AV-unprocessed.smi:1638|AV-procd|sdf|6546|dock4
  -GOLD-   22720 7233D 1   1.00000     0.00000
 Structure written by MMmdl.
 41 42  0  0  0  0  0  0  0  0  2 V2000
  150.7113  141.7910  156.2014 C   0  0  0  0  0  0  0  0  0  0  0  0
  150.6760  140.4294  155.5961 C   0  0  0  0  0  0  0  0  0  0  0  0
  151.7298  139.8845  154.9762 N   0  0  0  0  0  0  0  0  0  0  0  0
  151.4556  138.6133  154.4914 N   0  0  0  0  0  0  0  0  0  0  0  0
  150.1977  138.2367  154.7594 C   0  0  0  0  0  0  0  0  0  0  0  0
  149.6497  136.9853  154.3709 N   0  0  0  0  0  0  0  0  0  0  0  0
  149.6152  135.8386  155.0726 C   0  0  0  0  0  0  0  0  0  0  0  0
  150.0386  135.6903  156.2194 O   0  0  0  0  0  0  0  0  0  0  0  0
  149.0474  134.8499  154.3665 N   0  0  0  0  0  0  0  0  0  0  0  0
  148.8694  133.4843  154.8471 C   0  0  0  0  0  0  0  0  0  0  0  0
  149.2770  132.4529  153.7761 C   0  0  0  0  0  0  0  0  0  0  0  0
  148.1229  131.9534  152.9810 N   0  3  0  0  0  0  0  0  0  0  0  0
  147.1794  133.0392  152.6045 C   0  0  0  0  0  0  0  0  0  0  0  0
  146.6697  132.8481  151.1656 C   0  0  0  0  0  0  0  0  0  0  0  0
  145.5574  131.8009  151.0160 C   0  0  0  0  0  0  0  0  0  0  0  0
  145.9269  130.4063  151.5437 C   0  0  0  0  0  0  0  0  0  0  0  0
  146.0819  130.3840  153.0718 C   0  0  0  0  0  0  0  0  0  0  0  0
  147.4871  130.7495  153.5916 C   0  0  0  0  0  0  0  0  0  0  0  0
  149.2379  139.4161  155.6364 S   0  0  0  0  0  0  0  0  0  0  0  0
  151.7407  142.1160  156.3559 H   0  0  0  0  0  0  0  0  0  0  0  0
  150.1998  141.7870  157.1639 H   0  0  0  0  0  0  0  0  0  0  0  0
  150.2141  142.5031  155.5429 H   0  0  0  0  0  0  0  0  0  0  0  0
  149.2477  136.9588  153.4454 H   0  0  0  0  0  0  0  0  0  0  0  0
  148.7273  135.0525  153.4305 H   0  0  0  0  0  0  0  0  0  0  0  0
  149.4816  133.3552  155.7401 H   0  0  0  0  0  0  0  0  0  0  0  0
  147.8326  133.3529  155.1584 H   0  0  0  0  0  0  0  0  0  0  0  0
  150.0276  132.8661  153.1005 H   0  0  0  0  0  0  0  0  0  0  0  0
  149.7524  131.6180  154.2927 H   0  0  0  0  0  0  0  0  0  0  0  0
  146.3655  133.1353  153.3245 H   0  0  0  0  0  0  0  0  0  0  0  0
  147.6964  133.9991  152.6256 H   0  0  0  0  0  0  0  0  0  0  0  0
  146.2816  133.8013  150.8049 H   0  0  0  0  0  0  0  0  0  0  0  0
  147.5042  132.6018  150.5074 H   0  0  0  0  0  0  0  0  0  0  0  0
  144.6558  132.1532  151.5189 H   0  0  0  0  0  0  0  0  0  0  0  0
  145.2955  131.7205  149.9604 H   0  0  0  0  0  0  0  0  0  0  0  0
  145.1224  129.7226  151.2700 H   0  0  0  0  0  0  0  0  0  0  0  0
  146.8247  130.0257  151.0551 H   0  0  0  0  0  0  0  0  0  0  0  0
  145.3279  131.0237  153.5321 H   0  0  0  0  0  0  0  0  0  0  0  0
  145.8523  129.3795  153.4291 H   0  0  0  0  0  0  0  0  0  0  0  0
  148.1458  129.8984  153.4190 H   0  0  0  0  0  0  0  0  0  0  0  0
  147.4272  130.8780  154.6736 H   0  0  0  0  0  0  0  0  0  0  0  0
  148.5161  131.6463  152.1029 H   0  0  0  0  0  0  0  0  0  0  0  0
  1  2  1  0  0  0  0
  1 20  1  0  0  0  0
  1 21  1  0  0  0  0
  1 22  1  0  0  0  0
  2 19  1  0  0  0  0
  2  3  2  0  0  0  0
  3  4  1  0  0  0  0
  4  5  2  0  0  0  0
  5  6  1  0  0  0  0
  5 19  1  0  0  0  0
  6  7  1  0  0  0  0
  6 23  1  0  0  0  0
  7  8  2  0  0  0  0
  7  9  1  0  0  0  0
  9 10  1  0  0  0  0
  9 24  1  0  0  0  0
 10 11  1  0  0  0  0
 10 25  1  0  0  0  0
 10 26  1  0  0  0  0
 11 12  1  0  0  0  0
 11 27  1  0  0  0  0
 11 28  1  0  0  0  0
 12 18  1  0  0  0  0
 12 13  1  0  0  0  0
 12 41  1  0  0  0  0
 13 14  1  0  0  0  0
 13 29  1  0  0  0  0
 13 30  1  0  0  0  0
 14 15  1  0  0  0  0
 14 31  1  0  0  0  0
 14 32  1  0  0  0  0
 15 16  1  0  0  0  0
 15 33  1  0  0  0  0
 15 34  1  0  0  0  0
 16 17  1  0  0  0  0
 16 35  1  0  0  0  0
 16 36  1  0  0  0  0
 17 18  1  0  0  0  0
 17 37  1  0  0  0  0
 17 38  1  0  0  0  0
 18 39  1  0  0  0  0
 18 40  1  0  0  0  0
M  CHG  1  12   1
M  END
> <s_m_source_file>
AV-unprocessed.smi

> <i_m_source_file_index>
1638

> <i_lp_mmshare_version>
43012

> <i_f3d_flags>
0

> <s_epik_input>
W0NIM11jMW5uYyhzMSlbTkhdQyg9TylbTkhdW0NIMl1bQ0gyXU4yW0NIMl1bQ0gyXVtDSDJdW0NIMl1bQ0gyXVtDSDJdMg==

> <s_epik_cmdline>
J2VwaWtfcHl0aG9uJywgJy1waCcsICc3LjAnLCAnLXRuJywgJzgnLCAnLW1hJywgJzIwMCcsICctbWV0YWxfYmluZGluZycsICctaW1hZScsICc8aW5maWxlLm1hZT4nLCAnLW9tYWUnLCAnPG91dGZpbGUubWFlPic=

> <r_lp_tautomer_probability>
1

> <r_epik_Ionization_Penalty>
0.00683162

> <r_epik_Ionization_Penalty_Charging>
0.00256589

> <r_epik_Ionization_Penalty_Neutral>
0.00426573

> <r_epik_State_Penalty>
0.0020046

> <r_epik_Charging_Adjusted_Penalty>
0.00457048

> <i_epik_Tot_Q>
1

> <i_epik_Tot_abs_Q>
1

> <r_epik_Metal_State_Penalty>
0.375345

> <b_epik_Metal_Only>
0

> <s_lp_Force_Field>
OPLS_2005

> <r_lp_Energy>
20.2813

> <b_lp_Chiralities_Consistent>
1

> <s_lp_Variant>
AV-unprocessed.smi:1638-1

> <Gold.Version>
5.8.1

> <Gold.Id.Protein>
6NUR|6NUR_protein|mol2

> <Gold.PLP.Fitness>
42.2061

> <Gold.PLP.PLP>
-33.1284

> <Gold.PLP.part.hbond>
-4.0000

> <Gold.PLP.part.metal>
0.0000

> <Gold.PLP.part.buried>
-5.5925

> <Gold.PLP.part.nonpolar>
-24.2909

> <Gold.PLP.part.repulsive>
0.2482

> <Gold.PLP.ligand.clash>
0.0000

> <Gold.PLP.ligand.torsion>
1.3455

> <Gold.PLP.Chemscore.Hbond>
3.9040

> <Gold.PLP.Chemscore.CHOScore>
0.0000

> <Gold.PLP.Chemscore.Metal>
0.0000

> <Gold.Chemscore.Hbonds>
donor molecule, donor type, donor heavy atom, donor atom, acceptor molecule, acceptor atom, score
      L1  H     6    23       P1  7948  1.00
      L1  H     9    24       P1  7948  0.90
      L1  H    12    41       P1 10747  1.00
      P1  H  7989  7998       L1     3  0.90

> <Gold.PLP.Chemscore.Internal.Correction>
0.0566

> <Gold.Rescore>
     Score         DG    S(hbond)    S(metal)    S(lipo)     H(rot)  DE(clash)    DE(int)     intcor
     17.60     -18.82       2.63        0.00      74.05       1.60       0.04       1.19       ----

> <Gold.Chemscore.Fitness>
17.5961

> <Gold.Chemscore.DG>
-18.8237

> <Gold.Chemscore.ZeroCoef>
-5.4800

> <Gold.Chemscore.Hbond>
2.6257

> <Gold.Chemscore.Metal>
0.0000

> <Gold.Chemscore.Lipo>
74.0470

> <Gold.Chemscore.Internal_Hbond>
0.0000

> <Gold.Chemscore.DEClash>
0.0423

> <Gold.Chemscore.DEInternal>
1.1853

> <Gold.Chemscore.Rot>
1.5975

> <Gold.Chemscore.Internal.Correction>
   9.000000E+99

> <Gold.Chemscore.Hbonds>
donor molecule, donor type, donor heavy atom, donor atom, acceptor molecule, acceptor atom, score
      L1  H     6    23       P1  7948  0.95
      L1  H     9    24       P1  7948  0.57
      L1  H    12    41       P1 10747  0.93
      P1  H  7989  7998       L1     3  0.06

> <Gold.Chemscore.Hbond.Weighted>
-8.7698

> <Gold.Chemscore.Metal.Weighted>
-0.0000

> <Gold.Chemscore.Lipo.Weighted>
-8.6635

> <Gold.Chemscore.Internal_Hbond.Weighted>
0.0000

> <Gold.Chemscore.DEClash.Weighted>
0.0423

> <Gold.Chemscore.DEInternal.Weighted>
1.1853

> <Gold.Chemscore.Rot.Weighted>
4.0896

> <Gold.Chemscore.Internal.Correction.Weighted>
   9.000000E+99

> <Gold.Protein.RotatedTorsions>
[ 6907 6896 6895 6894 ] final -143.18 input  -60.11 | X-H torsion
[ 7974 7965 7964 7962 ] final  -12.68 input  175.53 | X-H torsion
[ 8008 7997 7996 7995 ] final  163.25 input   59.86 | X-H torsion
[ 10167 10162 10161 10158 ] final    5.14 input  -65.29 | X-H torsion
[ 10718 10713 10712 10709 ] final  -72.28 input   66.30 | X-H torsion
[ 10763 10752 10751 10750 ] final  -73.78 input  -60.55 | X-H torsion
[ 11005 11000 10999 10996 ] final   27.26 input  -57.11 | X-H torsion

> <Gold.Protein.ActiveResidues>
 VAL166  LYS551  ARG553  GLY616  TRP617  ASP618  TYR619  PRO620  LYS621  CYS622 
 ASP623  PHE694  ASN695  SER759  ASP760  ASP761  ALA762  ILE779  LEU786  VAL792 
 PHE793  MET794  SER795  GLU796  ALA797  LYS798  CYS799  TRP800  GLU811  SER814 

> <Gold.Protein.RotatedAtoms>
  151.0970  133.5272  159.2611 H   0  0  0  0  0  0  0  0  0  0  0  0  # atno 6907 bound_to 6896
  151.2118  135.0483  159.8924 H   0  0  0  0  0  0  0  0  0  0  0  0  # atno 6908 bound_to 6896
  152.5439  134.0784  159.8278 H   0  0  0  0  0  0  0  0  0  0  0  0  # atno 6909 bound_to 6896
  146.2143  140.3093  142.8381 H   0  0  0  0  0  0  0  0  0  0  0  0  # atno 7974 bound_to 7965
  156.1971  140.1728  156.7975 H   0  0  0  0  0  0  0  0  0  0  0  0  # atno 8008 bound_to 7997
  154.5544  140.0711  156.8750 H   0  0  0  0  0  0  0  0  0  0  0  0  # atno 8009 bound_to 7997
  155.2967  140.3359  155.4252 H   0  0  0  0  0  0  0  0  0  0  0  0  # atno 8010 bound_to 7997
  140.6498  143.7574  150.7556 H   0  0  0  0  0  0  0  0  0  0  0  0  # atno 10167 bound_to 10162
  156.0327  130.4369  150.2570 H   0  0  0  0  0  0  0  0  0  0  0  0  # atno 10718 bound_to 10713
  154.4641  135.5886  153.6276 H   0  0  0  0  0  0  0  0  0  0  0  0  # atno 10763 bound_to 10752
  152.9826  135.6051  154.3449 H   0  0  0  0  0  0  0  0  0  0  0  0  # atno 10764 bound_to 10752
  154.3324  135.2842  155.2444 H   0  0  0  0  0  0  0  0  0  0  0  0  # atno 10765 bound_to 10752
  140.3282  134.2468  155.7706 H   0  0  0  0  0  0  0  0  0  0  0  0  # atno 11005 bound_to 11000
  144.9000  140.7630  143.5873 LP  0  0  0  0  0  0  0  0  0  0  0  0  # atno 17320 bound_to 7965
  145.3019  139.1847  143.4685 LP  0  0  0  0  0  0  0  0  0  0  0  0  # atno 17321 bound_to 7965
  140.1222  143.4601  152.2306 LP  0  0  0  0  0  0  0  0  0  0  0  0  # atno 17342 bound_to 10162
  139.5711  144.7463  151.3888 LP  0  0  0  0  0  0  0  0  0  0  0  0  # atno 17343 bound_to 10162
  157.0671  131.0106  151.3203 LP  0  0  0  0  0  0  0  0  0  0  0  0  # atno 17370 bound_to 10713
  157.5027  130.7890  149.7621 LP  0  0  0  0  0  0  0  0  0  0  0  0  # atno 17371 bound_to 10713
  141.2070  133.7818  157.0144 LP  0  0  0  0  0  0  0  0  0  0  0  0  # atno 17394 bound_to 11000
  140.0884  134.9607  157.1736 LP  0  0  0  0  0  0  0  0  0  0  0  0  # atno 17395 bound_to 11000

$$$$
