AV-unprocessed.smi:47|AV-procd|sdf|446|dock1
  -GOLD-   2262016313D 1   1.00000     0.00000
 Structure written by MMmdl.
 30 32  0  0  0  0  0  0  0  0  2 V2000
  151.5468  136.4776  153.9299 O   0  0  0  0  0  0  0  0  0  0  0  0
  151.3139  137.5925  154.7645 C   0  0  2  0  0  0  0  0  0  0  0  0
  150.2784  138.5475  154.1858 C   0  0  0  0  0  0  0  0  0  0  0  0
  150.5140  139.8034  154.8837 N   0  0  0  0  0  0  0  0  0  0  0  0
  151.9486  139.8878  155.1812 C   0  0  1  0  0  0  0  0  0  0  0  0
  152.2262  140.3512  156.6000 C   0  0  0  0  0  0  0  0  0  0  0  0
  152.9299  139.6596  157.5197 N   0  0  0  0  0  0  0  0  0  0  0  0
  152.9746  140.4205  158.5972 N   0  5  0  0  0  0  0  0  0  0  0  0
  152.3165  141.5566  158.3212 C   0  0  0  0  0  0  0  0  0  0  0  0
  152.1734  142.6458  159.3094 C   0  0  0  0  0  0  0  0  0  0  0  0
  152.3397  142.3865  160.6897 C   0  0  0  0  0  0  0  0  0  0  0  0
  152.2059  143.4140  161.6439 C   0  0  0  0  0  0  0  0  0  0  0  0
  151.9025  144.7236  161.2303 C   0  0  0  0  0  0  0  0  0  0  0  0
  151.7335  145.0003  159.8616 C   0  0  0  0  0  0  0  0  0  0  0  0
  151.8684  143.9692  158.9114 C   0  0  0  0  0  0  0  0  0  0  0  0
  151.8457  141.5447  157.0820 N   0  0  0  0  0  0  0  0  0  0  0  0
  152.5378  138.4911  154.9112 C   0  0  0  0  0  0  0  0  0  0  0  0
  150.9886  137.2484  155.7475 H   0  0  0  0  0  0  0  0  0  0  0  0
  152.4175  140.6017  154.5029 H   0  0  0  0  0  0  0  0  0  0  0  0
  151.3500  136.7262  153.0397 H   0  0  0  0  0  0  0  0  0  0  0  0
  150.4525  138.6838  153.1175 H   0  0  0  0  0  0  0  0  0  0  0  0
  149.2562  138.1921  154.3171 H   0  0  0  0  0  0  0  0  0  0  0  0
  150.2407  140.5735  154.2824 H   0  0  0  0  0  0  0  0  0  0  0  0
  152.5734  141.3873  161.0272 H   0  0  0  0  0  0  0  0  0  0  0  0
  152.3364  143.1952  162.6933 H   0  0  0  0  0  0  0  0  0  0  0  0
  151.7998  145.5130  161.9601 H   0  0  0  0  0  0  0  0  0  0  0  0
  151.5001  146.0040  159.5383 H   0  0  0  0  0  0  0  0  0  0  0  0
  151.7345  144.2054  157.8660 H   0  0  0  0  0  0  0  0  0  0  0  0
  153.2230  138.1475  155.6875 H   0  0  0  0  0  0  0  0  0  0  0  0
  153.0940  138.5183  153.9730 H   0  0  0  0  0  0  0  0  0  0  0  0
  1  2  1  0  0  0  0
  1 20  1  0  0  0  0
  2 18  1  0  0  0  0
  2 17  1  0  0  0  0
  2  3  1  0  0  0  0
  3  4  1  0  0  0  0
  3 21  1  0  0  0  0
  3 22  1  0  0  0  0
  4  5  1  0  0  0  0
  4 23  1  0  0  0  0
  5 19  1  0  0  0  0
  5  6  1  0  0  0  0
  5 17  1  0  0  0  0
  6 16  1  0  0  0  0
  6  7  2  0  0  0  0
  7  8  1  0  0  0  0
  8  9  1  0  0  0  0
  9 10  1  0  0  0  0
  9 16  2  0  0  0  0
 10 15  1  0  0  0  0
 10 11  2  0  0  0  0
 11 12  1  0  0  0  0
 11 24  1  0  0  0  0
 12 13  2  0  0  0  0
 12 25  1  0  0  0  0
 13 14  1  0  0  0  0
 13 26  1  0  0  0  0
 14 15  2  0  0  0  0
 14 27  1  0  0  0  0
 15 28  1  0  0  0  0
 17 29  1  0  0  0  0
 17 30  1  0  0  0  0
M  CHG  1   8  -1
M  END
> <s_m_source_file>
AV-unprocessed.smi

> <i_m_source_file_index>
47

> <i_lp_mmshare_version>
43012

> <i_f3d_flags>
0

> <s_epik_input>
W09IXVtDQEhdMVtDSDJdW05IXVtDQEBIXShbQ0gyXTEpYzJuW25IXWMobjIpLWMzW2NIXVtjSF1bY0hdW2NIXVtjSF0z

> <s_epik_cmdline>
J2VwaWtfcHl0aG9uJywgJy1waCcsICc3LjAnLCAnLXRuJywgJzgnLCAnLW1hJywgJzIwMCcsICctbWV0YWxfYmluZGluZycsICctaW1hZScsICc8aW5maWxlLm1hZT4nLCAnLW9tYWUnLCAnPG91dGZpbGUubWFlPic=

> <r_epik_Ionization_Penalty>
16.1968

> <r_epik_Ionization_Penalty_Charging>
13.1522

> <r_epik_Ionization_Penalty_Neutral>
3.04463

> <r_epik_State_Penalty>
6.32428

> <r_epik_Charging_Adjusted_Penalty>
19.4764

> <i_epik_Tot_Q>
-1

> <i_epik_Tot_abs_Q>
1

> <r_epik_Metal_State_Penalty>
2.82187

> <b_epik_Metal_Only>
1

> <s_lp_Force_Field>
OPLS_2005

> <r_lp_Energy>
30.4729

> <b_lp_Chiralities_Consistent>
1

> <s_lp_Variant>
AV-unprocessed.smi:47-24

> <Gold.Version>
5.8.1

> <Gold.Id.Protein>
6NUR|6NUR_protein|mol2

> <Gold.PLP.Fitness>
46.5689

> <Gold.PLP.PLP>
-38.5260

> <Gold.PLP.part.hbond>
-4.3055

> <Gold.PLP.part.metal>
0.0000

> <Gold.PLP.part.buried>
0.1690

> <Gold.PLP.part.nonpolar>
-33.7548

> <Gold.PLP.part.repulsive>
0.0245

> <Gold.PLP.ligand.clash>
0.0000

> <Gold.PLP.ligand.torsion>
0.1837

> <Gold.PLP.Chemscore.Hbond>
2.8000

> <Gold.PLP.Chemscore.CHOScore>
0.0000

> <Gold.PLP.Chemscore.Metal>
0.0000

> <Gold.Chemscore.Hbonds>
donor molecule, donor type, donor heavy atom, donor atom, acceptor molecule, acceptor atom, score
      L1  H     1    20       P1  7949  0.78
      P1  H  7997  8008       L1     7  0.35
      P1  H 10752 10763       L1     1  1.00

> <Gold.PLP.Chemscore.Internal.Correction>
0.0103

> <Gold.Rescore>
     Score         DG    S(hbond)    S(metal)    S(lipo)     H(rot)  DE(clash)    DE(int)     intcor
     16.92     -17.25       1.18        0.00      98.81       1.46       0.11       0.22       ----

> <Gold.Chemscore.Fitness>
16.9150

> <Gold.Chemscore.DG>
-17.2482

> <Gold.Chemscore.ZeroCoef>
-5.4800

> <Gold.Chemscore.Hbond>
1.1828

> <Gold.Chemscore.Metal>
0.0000

> <Gold.Chemscore.Lipo>
98.8078

> <Gold.Chemscore.Internal_Hbond>
0.0000

> <Gold.Chemscore.DEClash>
0.1122

> <Gold.Chemscore.DEInternal>
0.2209

> <Gold.Chemscore.Rot>
1.4621

> <Gold.Chemscore.Internal.Correction>
   9.000000E+99

> <Gold.Chemscore.Hbonds>
donor molecule, donor type, donor heavy atom, donor atom, acceptor molecule, acceptor atom, score
      L1  H     1    20       P1  7949  0.61
      P1  H 10752 10763       L1     1  0.86

> <Gold.Chemscore.Hbond.Weighted>
-3.9505

> <Gold.Chemscore.Metal.Weighted>
-0.0000

> <Gold.Chemscore.Lipo.Weighted>
-11.5605

> <Gold.Chemscore.Internal_Hbond.Weighted>
0.0000

> <Gold.Chemscore.DEClash.Weighted>
0.1122

> <Gold.Chemscore.DEInternal.Weighted>
0.2209

> <Gold.Chemscore.Rot.Weighted>
3.7429

> <Gold.Chemscore.Internal.Correction.Weighted>
   9.000000E+99

> <Gold.Protein.RotatedTorsions>
[ 6907 6896 6895 6894 ] final   48.34 input  -60.11 | X-H torsion
[ 7974 7965 7964 7962 ] final   21.08 input  175.53 | X-H torsion
[ 8008 7997 7996 7995 ] final  -57.59 input   59.86 | X-H torsion
[ 10167 10162 10161 10158 ] final  -22.75 input  -65.29 | X-H torsion
[ 10718 10713 10712 10709 ] final -102.71 input   66.30 | X-H torsion
[ 10763 10752 10751 10750 ] final   38.31 input  -60.55 | X-H torsion
[ 11005 11000 10999 10996 ] final   84.45 input  -57.11 | X-H torsion

> <Gold.Protein.ActiveResidues>
 VAL166  LYS551  ARG553  GLY616  TRP617  ASP618  TYR619  PRO620  LYS621  CYS622 
 ASP623  PHE694  ASN695  SER759  ASP760  ASP761  ALA762  ILE779  LEU786  VAL792 
 PHE793  MET794  SER795  GLU796  ALA797  LYS798  CYS799  TRP800  GLU811  SER814 

> <Gold.Protein.RotatedAtoms>
  152.2784  134.7856  160.0401 H   0  0  0  0  0  0  0  0  0  0  0  0  # atno 6907 bound_to 6896
  151.8444  133.3424  159.3661 H   0  0  0  0  0  0  0  0  0  0  0  0  # atno 6908 bound_to 6896
  150.7179  134.5288  159.5734 H   0  0  0  0  0  0  0  0  0  0  0  0  # atno 6909 bound_to 6896
  146.2086  139.8078  142.8707 H   0  0  0  0  0  0  0  0  0  0  0  0  # atno 7974 bound_to 7965
  154.4274  140.1103  156.5822 H   0  0  0  0  0  0  0  0  0  0  0  0  # atno 8008 bound_to 7997
  155.6100  140.3494  155.4600 H   0  0  0  0  0  0  0  0  0  0  0  0  # atno 8009 bound_to 7997
  156.0107  140.1218  157.0446 H   0  0  0  0  0  0  0  0  0  0  0  0  # atno 8010 bound_to 7997
  140.7287  143.4506  151.0522 H   0  0  0  0  0  0  0  0  0  0  0  0  # atno 10167 bound_to 10162
  156.0238  130.5433  150.7147 H   0  0  0  0  0  0  0  0  0  0  0  0  # atno 10718 bound_to 10713
  153.0005  135.6253  154.2284 H   0  0  0  0  0  0  0  0  0  0  0  0  # atno 10763 bound_to 10752
  154.2027  135.2803  155.2987 H   0  0  0  0  0  0  0  0  0  0  0  0  # atno 10764 bound_to 10752
  154.5671  135.5688  153.7119 H   0  0  0  0  0  0  0  0  0  0  0  0  # atno 10765 bound_to 10752
  139.9000  134.8217  156.2446 H   0  0  0  0  0  0  0  0  0  0  0  0  # atno 11005 bound_to 11000
  145.3228  141.0248  143.3490 LP  0  0  0  0  0  0  0  0  0  0  0  0  # atno 17320 bound_to 7965
  144.8854  139.4846  143.6703 LP  0  0  0  0  0  0  0  0  0  0  0  0  # atno 17321 bound_to 7965
  139.8182  143.7857  152.3175 LP  0  0  0  0  0  0  0  0  0  0  0  0  # atno 17342 bound_to 10162
  139.7930  144.7403  150.9929 LP  0  0  0  0  0  0  0  0  0  0  0  0  # atno 17343 bound_to 10162
  157.4777  131.0899  151.0572 LP  0  0  0  0  0  0  0  0  0  0  0  0  # atno 17370 bound_to 10713
  157.1014  130.5983  149.5461 LP  0  0  0  0  0  0  0  0  0  0  0  0  # atno 17371 bound_to 10713
  141.0263  133.7013  156.1353 LP  0  0  0  0  0  0  0  0  0  0  0  0  # atno 17394 bound_to 11000
  140.7162  134.4408  157.5578 LP  0  0  0  0  0  0  0  0  0  0  0  0  # atno 17395 bound_to 11000

$$$$
