AV-unprocessed.smi:1807|AV-procd|sdf|7304|dock9
  -GOLD-   22720 8563D 1   1.00000     0.00000
 Structure written by MMmdl.
 44 45  0  0  0  0  0  0  0  0  1 V2000
  145.7022  134.1355  150.7842 C   0  0  0  0  0  0  0  0  0  0  0  0
  144.2866  134.5457  151.2278 C   0  0  1  0  0  0  0  0  0  0  0  0
  143.5123  133.3226  151.7600 C   0  0  0  0  0  0  0  0  0  0  0  0
  142.0912  133.6939  152.2088 C   0  0  0  0  0  0  0  0  0  0  0  0
  142.1204  134.8094  153.2625 C   0  0  0  0  0  0  0  0  0  0  0  0
  142.8734  136.0414  152.7400 C   0  0  0  0  0  0  0  0  0  0  0  0
  144.3020  135.6825  152.2801 C   0  0  2  0  0  0  0  0  0  0  0  0
  144.9602  136.8677  151.7359 N   0  0  0  0  0  0  0  0  0  0  0  0
  146.0043  137.5022  152.2892 C   0  0  0  0  0  0  0  0  0  0  0  0
  146.5035  137.1745  153.3665 O   0  0  0  0  0  0  0  0  0  0  0  0
  146.5534  138.7022  151.5092 C   0  0  0  0  0  0  0  0  0  0  0  0
  146.3880  139.9566  152.2352 N   0  0  0  0  0  0  0  0  0  0  0  0
  147.3795  140.3741  153.1331 C   0  0  0  0  0  0  0  0  0  0  0  0
  147.2686  141.5849  153.8694 C   0  0  0  0  0  0  0  0  0  0  0  0
  148.4122  141.6017  154.6168 C   0  0  0  0  0  0  0  0  0  0  0  0
  149.1272  140.4601  154.3099 N   0  0  0  0  0  0  0  0  0  0  0  0
  150.4028  140.0227  154.8483 C   0  0  0  0  0  0  0  0  0  0  0  0
  150.7454  138.6075  154.3772 C   0  0  0  0  0  0  0  0  0  0  0  0
  150.7138  138.3763  153.0622 N   0  0  0  0  0  0  0  0  0  0  0  0
  151.0366  137.7324  155.1895 O   0  0  0  0  0  0  0  0  0  0  0  0
  148.4931  139.7031  153.3877 N   0  0  0  0  0  0  0  0  0  0  0  0
  146.2896  133.7785  151.6302 H   0  0  0  0  0  0  0  0  0  0  0  0
  146.2437  134.9663  150.3312 H   0  0  0  0  0  0  0  0  0  0  0  0
  145.6649  133.3346  150.0455 H   0  0  0  0  0  0  0  0  0  0  0  0
  143.7596  134.9101  150.3446 H   0  0  0  0  0  0  0  0  0  0  0  0
  143.4592  132.5514  150.9909 H   0  0  0  0  0  0  0  0  0  0  0  0
  144.0529  132.8821  152.5991 H   0  0  0  0  0  0  0  0  0  0  0  0
  141.5068  134.0179  151.3468 H   0  0  0  0  0  0  0  0  0  0  0  0
  141.5877  132.8148  152.6122 H   0  0  0  0  0  0  0  0  0  0  0  0
  141.1032  135.0859  153.5410 H   0  0  0  0  0  0  0  0  0  0  0  0
  142.6019  134.4440  154.1705 H   0  0  0  0  0  0  0  0  0  0  0  0
  142.3171  136.4792  151.9098 H   0  0  0  0  0  0  0  0  0  0  0  0
  142.9099  136.8017  153.5212 H   0  0  0  0  0  0  0  0  0  0  0  0
  144.8667  135.3295  153.1458 H   0  0  0  0  0  0  0  0  0  0  0  0
  144.6142  137.2129  150.8525 H   0  0  0  0  0  0  0  0  0  0  0  0
  147.6026  138.5507  151.2494 H   0  0  0  0  0  0  0  0  0  0  0  0
  146.0090  138.7778  150.5680 H   0  0  0  0  0  0  0  0  0  0  0  0
  145.4585  140.3417  152.3191 H   0  0  0  0  0  0  0  0  0  0  0  0
  146.4767  142.3189  153.8580 H   0  0  0  0  0  0  0  0  0  0  0  0
  148.7723  142.3219  155.3366 H   0  0  0  0  0  0  0  0  0  0  0  0
  151.1872  140.7124  154.5321 H   0  0  0  0  0  0  0  0  0  0  0  0
  150.3568  140.0673  155.9375 H   0  0  0  0  0  0  0  0  0  0  0  0
  150.9372  137.4597  152.7033 H   0  0  0  0  0  0  0  0  0  0  0  0
  150.4702  139.1250  152.4296 H   0  0  0  0  0  0  0  0  0  0  0  0
  1  2  1  0  0  0  0
  1 22  1  0  0  0  0
  1 23  1  0  0  0  0
  1 24  1  0  0  0  0
  2  7  1  0  0  0  0
  2  3  1  0  0  0  0
  2 25  1  0  0  0  0
  3  4  1  0  0  0  0
  3 26  1  0  0  0  0
  3 27  1  0  0  0  0
  4  5  1  0  0  0  0
  4 28  1  0  0  0  0
  4 29  1  0  0  0  0
  5  6  1  0  0  0  0
  5 30  1  0  0  0  0
  5 31  1  0  0  0  0
  6  7  1  0  0  0  0
  6 32  1  0  0  0  0
  6 33  1  0  0  0  0
  7  8  1  0  0  0  0
  7 34  1  0  0  0  0
  8  9  1  0  0  0  0
  8 35  1  0  0  0  0
  9 10  2  0  0  0  0
  9 11  1  0  0  0  0
 11 12  1  0  0  0  0
 11 36  1  0  0  0  0
 11 37  1  0  0  0  0
 12 13  1  0  0  0  0
 12 38  1  0  0  0  0
 13 21  2  0  0  0  0
 13 14  1  0  0  0  0
 14 15  2  0  0  0  0
 14 39  1  0  0  0  0
 15 16  1  0  0  0  0
 15 40  1  0  0  0  0
 16 17  1  0  0  0  0
 16 21  1  0  0  0  0
 17 18  1  0  0  0  0
 17 41  1  0  0  0  0
 17 42  1  0  0  0  0
 18 19  1  0  0  0  0
 18 20  2  0  0  0  0
 19 43  1  0  0  0  0
 19 44  1  0  0  0  0
M  END
> <s_m_source_file>
AV-unprocessed.smi

> <i_m_source_file_index>
1807

> <i_lp_mmshare_version>
43012

> <i_f3d_flags>
0

> <s_epik_input>
W0NIM11bQ0BASF0xW0NIMl1bQ0gyXVtDSDJdW0NIMl1bQ0BIXTFbTkhdQyg9TylbQ0gyXVtOSF1jMltjSF1bY0hdbihuMilbQ0gyXUMoPU8pW05IMl0=

> <s_epik_cmdline>
J2VwaWtfcHl0aG9uJywgJy1waCcsICc3LjAnLCAnLXRuJywgJzgnLCAnLW1hJywgJzIwMCcsICctbWV0YWxfYmluZGluZycsICctaW1hZScsICc8aW5maWxlLm1hZT4nLCAnLW9tYWUnLCAnPG91dGZpbGUubWFlPic=

> <r_lp_tautomer_probability>
1

> <r_epik_Ionization_Penalty>
0.000167642

> <r_epik_Ionization_Penalty_Charging>
0

> <r_epik_Ionization_Penalty_Neutral>
0.000167642

> <r_epik_State_Penalty>
-0

> <r_epik_Charging_Adjusted_Penalty>
0

> <i_epik_Tot_Q>
0

> <i_epik_Tot_abs_Q>
0

> <r_epik_Metal_State_Penalty>
-0

> <b_epik_Metal_Only>
0

> <s_lp_Force_Field>
OPLS_2005

> <r_lp_Energy>
6.04908

> <b_lp_Chiralities_Consistent>
1

> <s_lp_Variant>
AV-unprocessed.smi:1807-4

> <Gold.Version>
5.8.1

> <Gold.Id.Protein>
6NUR|6NUR_protein|mol2

> <Gold.PLP.Fitness>
50.4012

> <Gold.PLP.PLP>
-36.2308

> <Gold.PLP.part.hbond>
-5.0000

> <Gold.PLP.part.metal>
0.0000

> <Gold.PLP.part.buried>
2.3909

> <Gold.PLP.part.nonpolar>
-36.7101

> <Gold.PLP.part.repulsive>
4.0274

> <Gold.PLP.ligand.clash>
0.0000

> <Gold.PLP.ligand.torsion>
0.3492

> <Gold.PLP.Chemscore.Hbond>
3.9500

> <Gold.PLP.Chemscore.CHOScore>
1.0000

> <Gold.PLP.Chemscore.Metal>
0.0000

> <Gold.Chemscore.Hbonds>
donor molecule, donor type, donor heavy atom, donor atom, acceptor molecule, acceptor atom, score
      L1  H     8    35       P1 10171  1.00
      L1  H    12    38       P1 10175  1.00
      L1  H    19    43       P1  7949  0.90
      L1  H    19    44       P1  7957  0.90
      L1  C    15    40       P1  8028  1.00

> <Gold.PLP.Chemscore.Internal.Correction>
0.0188

> <Gold.Rescore>
     Score         DG    S(hbond)    S(metal)    S(lipo)     H(rot)  DE(clash)    DE(int)     intcor
     12.29     -14.67       2.51        0.00      64.59       2.64       0.31       2.08       ----

> <Gold.Chemscore.Fitness>
12.2869

> <Gold.Chemscore.DG>
-14.6747

> <Gold.Chemscore.ZeroCoef>
-5.4800

> <Gold.Chemscore.Hbond>
2.5114

> <Gold.Chemscore.Metal>
0.0000

> <Gold.Chemscore.Lipo>
64.5908

> <Gold.Chemscore.Internal_Hbond>
0.0000

> <Gold.Chemscore.DEClash>
0.3051

> <Gold.Chemscore.DEInternal>
2.0826

> <Gold.Chemscore.Rot>
2.6369

> <Gold.Chemscore.Internal.Correction>
   9.000000E+99

> <Gold.Chemscore.Hbonds>
donor molecule, donor type, donor heavy atom, donor atom, acceptor molecule, acceptor atom, score
      L1  H     8    35       P1 10171  0.95
      L1  H    12    38       P1 10175  0.55
      L1  H    19    43       P1  7949  0.18
      L1  H    19    44       P1  7957  0.18

> <Gold.Chemscore.Hbond.Weighted>
-8.3879

> <Gold.Chemscore.Metal.Weighted>
-0.0000

> <Gold.Chemscore.Lipo.Weighted>
-7.5571

> <Gold.Chemscore.Internal_Hbond.Weighted>
0.0000

> <Gold.Chemscore.DEClash.Weighted>
0.3051

> <Gold.Chemscore.DEInternal.Weighted>
2.0826

> <Gold.Chemscore.Rot.Weighted>
6.7504

> <Gold.Chemscore.Internal.Correction.Weighted>
   9.000000E+99

> <Gold.Protein.RotatedTorsions>
[ 6907 6896 6895 6894 ] final  -66.91 input  -60.11 | X-H torsion
[ 7974 7965 7964 7962 ] final -154.31 input  175.53 | X-H torsion
[ 8008 7997 7996 7995 ] final   43.40 input   59.86 | X-H torsion
[ 10167 10162 10161 10158 ] final   35.43 input  -65.29 | X-H torsion
[ 10718 10713 10712 10709 ] final -152.83 input   66.30 | X-H torsion
[ 10763 10752 10751 10750 ] final  117.01 input  -60.55 | X-H torsion
[ 11005 11000 10999 10996 ] final -121.43 input  -57.11 | X-H torsion

> <Gold.Protein.ActiveResidues>
 VAL166  LYS551  ARG553  GLY616  TRP617  ASP618  TYR619  PRO620  LYS621  CYS622 
 ASP623  PHE694  ASN695  SER759  ASP760  ASP761  ALA762  ILE779  LEU786  VAL792 
 PHE793  MET794  SER795  GLU796  ALA797  LYS798  CYS799  TRP800  GLU811  SER814 

> <Gold.Protein.RotatedAtoms>
  150.7438  134.5954  159.6008 H   0  0  0  0  0  0  0  0  0  0  0  0  # atno 6907 bound_to 6896
  152.3330  134.7231  160.0293 H   0  0  0  0  0  0  0  0  0  0  0  0  # atno 6908 bound_to 6896
  151.7708  133.3305  159.3480 H   0  0  0  0  0  0  0  0  0  0  0  0  # atno 6909 bound_to 6896
  144.7696  140.4405  143.5917 H   0  0  0  0  0  0  0  0  0  0  0  0  # atno 7974 bound_to 7965
  155.3021  140.3385  155.4247 H   0  0  0  0  0  0  0  0  0  0  0  0  # atno 8008 bound_to 7997
  156.1996  140.1728  156.7965 H   0  0  0  0  0  0  0  0  0  0  0  0  # atno 8009 bound_to 7997
  154.5542  140.0699  156.8701 H   0  0  0  0  0  0  0  0  0  0  0  0  # atno 8010 bound_to 7997
  140.4222  144.1443  150.6149 H   0  0  0  0  0  0  0  0  0  0  0  0  # atno 10167 bound_to 10162
  156.4777  130.8288  151.2516 H   0  0  0  0  0  0  0  0  0  0  0  0  # atno 10718 bound_to 10713
  153.5458  135.3549  155.2738 H   0  0  0  0  0  0  0  0  0  0  0  0  # atno 10763 bound_to 10752
  154.8712  135.4102  154.2992 H   0  0  0  0  0  0  0  0  0  0  0  0  # atno 10764 bound_to 10752
  153.3708  135.7064  153.6707 H   0  0  0  0  0  0  0  0  0  0  0  0  # atno 10765 bound_to 10752
  141.0071  134.0319  157.3463 H   0  0  0  0  0  0  0  0  0  0  0  0  # atno 11005 bound_to 11000
  145.6365  139.1543  143.2940 LP  0  0  0  0  0  0  0  0  0  0  0  0  # atno 17320 bound_to 7965
  146.1831  140.6465  142.9180 LP  0  0  0  0  0  0  0  0  0  0  0  0  # atno 17321 bound_to 7965
  140.4521  143.2483  151.9334 LP  0  0  0  0  0  0  0  0  0  0  0  0  # atno 17342 bound_to 10162
  139.4783  144.5552  151.8324 LP  0  0  0  0  0  0  0  0  0  0  0  0  # atno 17343 bound_to 10162
  157.7486  131.0055  150.3116 LP  0  0  0  0  0  0  0  0  0  0  0  0  # atno 17370 bound_to 10713
  156.3553  130.3838  149.7295 LP  0  0  0  0  0  0  0  0  0  0  0  0  # atno 17371 bound_to 10713
  139.9069  135.0181  156.7525 LP  0  0  0  0  0  0  0  0  0  0  0  0  # atno 17394 bound_to 11000
  140.6795  133.9487  155.7902 LP  0  0  0  0  0  0  0  0  0  0  0  0  # atno 17395 bound_to 11000

$$$$
