AV-unprocessed.smi:2325|AV-procd|sdf|9296|dock10
  -GOLD-   2272012513D 1   1.00000     0.00000
 Structure written by MMmdl.
 40 41  0  0  0  0  0  0  0  0  1 V2000
  149.3443  139.2924  153.8844 C   0  0  0  0  0  0  0  0  0  0  0  0
  147.9425  139.6569  153.9538 N   0  0  0  0  0  0  0  0  0  0  0  0
  147.5573  140.8536  154.4559 N   0  0  0  0  0  0  0  0  0  0  0  0
  146.2292  140.8025  154.3503 C   0  0  0  0  0  0  0  0  0  0  0  0
  145.7147  139.6565  153.8140 N   0  0  0  0  0  0  0  0  0  0  0  0
  146.8430  138.9895  153.5918 C   0  0  0  0  0  0  0  0  0  0  0  0
  146.9505  137.6887  153.0311 N   0  0  0  0  0  0  0  0  0  0  0  0
  145.9983  136.7440  152.9552 C   0  0  0  0  0  0  0  0  0  0  0  0
  144.8407  136.8687  153.3549 O   0  0  0  0  0  0  0  0  0  0  0  0
  146.4699  135.6269  152.3845 N   0  0  0  0  0  0  0  0  0  0  0  0
  145.7042  134.3993  152.1773 C   0  0  1  0  0  0  0  0  0  0  0  0
  145.5891  134.0591  150.7047 C   0  0  0  0  0  0  0  0  0  0  0  0
  145.3315  132.5479  150.7155 C   0  0  0  0  0  0  0  0  0  0  0  0
  143.8301  132.2198  150.7855 C   0  0  0  0  0  0  0  0  0  0  0  0
  145.9951  131.8359  149.5268 C   0  0  0  0  0  0  0  0  0  0  0  0
  145.9284  132.0701  151.9199 O   0  0  0  0  0  0  0  0  0  0  0  0
  146.3746  133.1348  152.7589 C   0  0  0  0  0  0  0  0  0  0  0  0
  147.9157  133.1378  152.6783 C   0  0  0  0  0  0  0  0  0  0  0  0
  145.9060  132.8299  154.1905 C   0  0  0  0  0  0  0  0  0  0  0  0
  149.6060  139.0325  152.8584 H   0  0  0  0  0  0  0  0  0  0  0  0
  149.5308  138.4328  154.5284 H   0  0  0  0  0  0  0  0  0  0  0  0
  149.9738  140.1221  154.2092 H   0  0  0  0  0  0  0  0  0  0  0  0
  145.6062  141.6238  154.6727 H   0  0  0  0  0  0  0  0  0  0  0  0
  147.8561  137.4498  152.6553 H   0  0  0  0  0  0  0  0  0  0  0  0
  147.4340  135.6146  152.0856 H   0  0  0  0  0  0  0  0  0  0  0  0
  144.6949  134.5095  152.5789 H   0  0  0  0  0  0  0  0  0  0  0  0
  144.8060  134.6247  150.1984 H   0  0  0  0  0  0  0  0  0  0  0  0
  146.5302  134.2780  150.1973 H   0  0  0  0  0  0  0  0  0  0  0  0
  143.3066  132.5750  149.8973 H   0  0  0  0  0  0  0  0  0  0  0  0
  143.3593  132.6807  151.6541 H   0  0  0  0  0  0  0  0  0  0  0  0
  143.6661  131.1443  150.8583 H   0  0  0  0  0  0  0  0  0  0  0  0
  145.5889  132.1896  148.5787 H   0  0  0  0  0  0  0  0  0  0  0  0
  145.8376  130.7581  149.5754 H   0  0  0  0  0  0  0  0  0  0  0  0
  147.0717  132.0087  149.5140 H   0  0  0  0  0  0  0  0  0  0  0  0
  148.3511  133.8958  153.3298 H   0  0  0  0  0  0  0  0  0  0  0  0
  148.2653  133.3285  151.6636 H   0  0  0  0  0  0  0  0  0  0  0  0
  148.3227  132.1742  152.9860 H   0  0  0  0  0  0  0  0  0  0  0  0
  146.2221  133.6079  154.8854 H   0  0  0  0  0  0  0  0  0  0  0  0
  146.3160  131.8841  154.5458 H   0  0  0  0  0  0  0  0  0  0  0  0
  144.8195  132.7569  154.2442 H   0  0  0  0  0  0  0  0  0  0  0  0
  1  2  1  0  0  0  0
  1 20  1  0  0  0  0
  1 21  1  0  0  0  0
  1 22  1  0  0  0  0
  2  6  1  0  0  0  0
  2  3  1  0  0  0  0
  3  4  2  0  0  0  0
  4  5  1  0  0  0  0
  4 23  1  0  0  0  0
  5  6  2  0  0  0  0
  6  7  1  0  0  0  0
  7  8  1  0  0  0  0
  7 24  1  0  0  0  0
  8  9  2  0  0  0  0
  8 10  1  0  0  0  0
 10 11  1  0  0  0  0
 10 25  1  0  0  0  0
 11 17  1  0  0  0  0
 11 12  1  0  0  0  0
 11 26  1  0  0  0  0
 12 13  1  0  0  0  0
 12 27  1  0  0  0  0
 12 28  1  0  0  0  0
 13 14  1  0  0  0  0
 13 15  1  0  0  0  0
 13 16  1  0  0  0  0
 14 29  1  0  0  0  0
 14 30  1  0  0  0  0
 14 31  1  0  0  0  0
 15 32  1  0  0  0  0
 15 33  1  0  0  0  0
 15 34  1  0  0  0  0
 16 17  1  0  0  0  0
 17 18  1  0  0  0  0
 17 19  1  0  0  0  0
 18 35  1  0  0  0  0
 18 36  1  0  0  0  0
 18 37  1  0  0  0  0
 19 38  1  0  0  0  0
 19 39  1  0  0  0  0
 19 40  1  0  0  0  0
M  END
> <s_m_source_file>
AV-unprocessed.smi

> <i_m_source_file_index>
2325

> <i_lp_mmshare_version>
43012

> <i_f3d_flags>
0

> <s_epik_input>
W0NIM11uMW5bY0hdbmMxW05IXUMoPU8pW05IXVtDQEBIXShDKE8yKShbQ0gzXSlbQ0gzXSlbQ0gyXUMyKFtDSDNdKVtDSDNd

> <s_epik_cmdline>
J2VwaWtfcHl0aG9uJywgJy1waCcsICc3LjAnLCAnLXRuJywgJzgnLCAnLW1hJywgJzIwMCcsICctbWV0YWxfYmluZGluZycsICctaW1hZScsICc8aW5maWxlLm1hZT4nLCAnLW9tYWUnLCAnPG91dGZpbGUubWFlPic=

> <r_lp_tautomer_probability>
1

> <r_epik_Ionization_Penalty>
1.97832e-05

> <r_epik_Ionization_Penalty_Charging>
0

> <r_epik_Ionization_Penalty_Neutral>
1.97832e-05

> <r_epik_State_Penalty>
-0

> <r_epik_Charging_Adjusted_Penalty>
0

> <i_epik_Tot_Q>
0

> <i_epik_Tot_abs_Q>
0

> <r_epik_Metal_State_Penalty>
-0

> <b_epik_Metal_Only>
0

> <s_lp_Force_Field>
OPLS_2005

> <r_lp_Energy>
17.1515

> <b_lp_Chiralities_Consistent>
1

> <s_lp_Variant>
AV-unprocessed.smi:2325-2

> <Gold.Version>
5.8.1

> <Gold.Id.Protein>
6NUR|6NUR_protein|mol2

> <Gold.PLP.Fitness>
31.3257

> <Gold.PLP.PLP>
-25.5502

> <Gold.PLP.part.hbond>
-2.0000

> <Gold.PLP.part.metal>
0.0000

> <Gold.PLP.part.buried>
-3.2164

> <Gold.PLP.part.nonpolar>
-20.4295

> <Gold.PLP.part.repulsive>
0.3709

> <Gold.PLP.ligand.clash>
0.0000

> <Gold.PLP.ligand.torsion>
0.1059

> <Gold.PLP.Chemscore.Hbond>
1.9920

> <Gold.PLP.Chemscore.CHOScore>
0.0000

> <Gold.PLP.Chemscore.Metal>
0.0000

> <Gold.Chemscore.Hbonds>
donor molecule, donor type, donor heavy atom, donor atom, acceptor molecule, acceptor atom, score
      L1  H     7    24       P1  7948  1.00
      L1  H    10    25       P1  7948  1.00

> <Gold.PLP.Chemscore.Internal.Correction>
0.0112

> <Gold.Rescore>
     Score         DG    S(hbond)    S(metal)    S(lipo)     H(rot)  DE(clash)    DE(int)     intcor
     15.56     -16.84       1.96        0.00      62.89       1.00       0.02       1.26       ----

> <Gold.Chemscore.Fitness>
15.5615

> <Gold.Chemscore.DG>
-16.8366

> <Gold.Chemscore.ZeroCoef>
-5.4800

> <Gold.Chemscore.Hbond>
1.9635

> <Gold.Chemscore.Metal>
0.0000

> <Gold.Chemscore.Lipo>
62.8937

> <Gold.Chemscore.Internal_Hbond>
0.0000

> <Gold.Chemscore.DEClash>
0.0195

> <Gold.Chemscore.DEInternal>
1.2556

> <Gold.Chemscore.Rot>
1.0000

> <Gold.Chemscore.Internal.Correction>
   9.000000E+99

> <Gold.Chemscore.Hbonds>
donor molecule, donor type, donor heavy atom, donor atom, acceptor molecule, acceptor atom, score
      L1  H     7    24       P1  7948  0.94
      L1  H    10    25       P1  7948  0.98

> <Gold.Chemscore.Hbond.Weighted>
-6.5580

> <Gold.Chemscore.Metal.Weighted>
-0.0000

> <Gold.Chemscore.Lipo.Weighted>
-7.3586

> <Gold.Chemscore.Internal_Hbond.Weighted>
0.0000

> <Gold.Chemscore.DEClash.Weighted>
0.0195

> <Gold.Chemscore.DEInternal.Weighted>
1.2556

> <Gold.Chemscore.Rot.Weighted>
2.5600

> <Gold.Chemscore.Internal.Correction.Weighted>
   9.000000E+99

> <Gold.Protein.RotatedTorsions>
[ 6907 6896 6895 6894 ] final   23.52 input  -60.11 | X-H torsion
[ 7974 7965 7964 7962 ] final    5.16 input  175.53 | X-H torsion
[ 8008 7997 7996 7995 ] final  164.34 input   59.86 | X-H torsion
[ 10167 10162 10161 10158 ] final -165.93 input  -65.29 | X-H torsion
[ 10718 10713 10712 10709 ] final   68.15 input   66.30 | X-H torsion
[ 10763 10752 10751 10750 ] final   92.98 input  -60.55 | X-H torsion
[ 11005 11000 10999 10996 ] final  103.60 input  -57.11 | X-H torsion

> <Gold.Protein.ActiveResidues>
 VAL166  LYS551  ARG553  GLY616  TRP617  ASP618  TYR619  PRO620  LYS621  CYS622 
 ASP623  PHE694  ASN695  SER759  ASP760  ASP761  ALA762  ILE779  LEU786  VAL792 
 PHE793  MET794  SER795  GLU796  ALA797  LYS798  CYS799  TRP800  GLU811  SER814 

> <Gold.Protein.RotatedAtoms>
  151.9436  135.0202  160.0537 H   0  0  0  0  0  0  0  0  0  0  0  0  # atno 6907 bound_to 6896
  152.2015  133.4840  159.5069 H   0  0  0  0  0  0  0  0  0  0  0  0  # atno 6908 bound_to 6896
  150.6955  134.1501  159.4180 H   0  0  0  0  0  0  0  0  0  0  0  0  # atno 6909 bound_to 6896
  146.2441  140.0425  142.8381 H   0  0  0  0  0  0  0  0  0  0  0  0  # atno 7974 bound_to 7965
  156.1887  140.1699  156.8134 H   0  0  0  0  0  0  0  0  0  0  0  0  # atno 8008 bound_to 7997
  154.5445  140.0730  156.8599 H   0  0  0  0  0  0  0  0  0  0  0  0  # atno 8009 bound_to 7997
  155.3148  140.3370  155.4245 H   0  0  0  0  0  0  0  0  0  0  0  0  # atno 8010 bound_to 7997
  139.6149  144.0741  152.1878 H   0  0  0  0  0  0  0  0  0  0  0  0  # atno 10167 bound_to 10162
  157.6272  130.9358  150.0338 H   0  0  0  0  0  0  0  0  0  0  0  0  # atno 10718 bound_to 10713
  153.2252  135.4342  155.0533 H   0  0  0  0  0  0  0  0  0  0  0  0  # atno 10763 bound_to 10752
  154.8269  135.3366  154.6869 H   0  0  0  0  0  0  0  0  0  0  0  0  # atno 10764 bound_to 10752
  153.7299  135.7011  153.5048 H   0  0  0  0  0  0  0  0  0  0  0  0  # atno 10765 bound_to 10752
  139.8785  134.9269  156.5234 H   0  0  0  0  0  0  0  0  0  0  0  0  # atno 11005 bound_to 11000
  145.1056  140.9373  143.4687 LP  0  0  0  0  0  0  0  0  0  0  0  0  # atno 17320 bound_to 7965
  145.0628  139.3092  143.5872 LP  0  0  0  0  0  0  0  0  0  0  0  0  # atno 17321 bound_to 7965
  140.0368  144.6038  150.7443 LP  0  0  0  0  0  0  0  0  0  0  0  0  # atno 17342 bound_to 10162
  140.7344  143.2728  151.3834 LP  0  0  0  0  0  0  0  0  0  0  0  0  # atno 17343 bound_to 10162
  156.1452  130.3642  149.9521 LP  0  0  0  0  0  0  0  0  0  0  0  0  # atno 17370 bound_to 10713
  156.7553  130.9131  151.3639 LP  0  0  0  0  0  0  0  0  0  0  0  0  # atno 17371 bound_to 10713
  140.8434  133.8187  155.9097 LP  0  0  0  0  0  0  0  0  0  0  0  0  # atno 17394 bound_to 11000
  140.9215  134.2135  157.4923 LP  0  0  0  0  0  0  0  0  0  0  0  0  # atno 17395 bound_to 11000

$$$$
