AV-unprocessed.smi:2339|AV-procd|sdf|9342|dock4
  -GOLD-   2272012563D 1   1.00000     0.00000
 Structure written by MMmdl.
 49 52  0  0  0  0  0  0  0  0  1 V2000
  147.6452  136.9565  163.3678 C   0  0  0  0  0  0  0  0  0  0  0  0
  147.1223  135.6077  162.8617 C   0  0  0  0  0  0  0  0  0  0  0  0
  147.4902  135.3725  161.4730 N   0  0  0  0  0  0  0  0  0  0  0  0
  147.2196  134.1582  160.8508 C   0  0  0  0  0  0  0  0  0  0  0  0
  147.5953  133.8535  159.5937 C   0  0  0  0  0  0  0  0  0  0  0  0
  148.3480  134.8478  158.8027 C   0  0  0  0  0  0  0  0  0  0  0  0
  148.7084  134.6034  157.6511 O   0  0  0  0  0  0  0  0  0  0  0  0
  148.6427  136.1431  159.4699 C   0  0  0  0  0  0  0  0  0  0  0  0
  149.3551  137.0813  158.7074 N   0  0  0  0  0  0  0  0  0  0  0  0
  149.0008  138.3238  158.3209 C   0  0  0  0  0  0  0  0  0  0  0  0
  147.9359  138.8767  158.5863 O   0  0  0  0  0  0  0  0  0  0  0  0
  149.9615  138.9648  157.6325 N   0  0  0  0  0  0  0  0  0  0  0  0
  149.9059  140.3204  157.0693 C   0  0  2  0  0  0  0  0  0  0  0  0
  150.3861  140.4134  155.5995 C   0  0  2  0  0  0  0  0  0  0  0  0
  150.6190  139.2079  154.7202 C   0  0  0  0  0  0  0  0  0  0  0  0
  152.1263  138.9726  154.8533 C   0  0  0  0  0  0  0  0  0  0  0  0
  152.4958  139.6409  156.0573 O   0  0  0  0  0  0  0  0  0  0  0  0
  151.7419  140.8480  156.1326 C   0  0  2  0  0  0  0  0  0  0  0  0
  151.1164  141.1822  157.5018 C   0  0  0  0  0  0  0  0  0  0  0  0
  151.9167  140.8252  158.7549 C   0  0  0  0  0  0  0  0  0  0  0  0
  152.7931  142.0360  159.0814 C   0  0  0  0  0  0  0  0  0  0  0  0
  152.0772  143.2394  158.4610 C   0  0  0  0  0  0  0  0  0  0  0  0
  150.8505  142.6678  157.7428 C   0  0  0  0  0  0  0  0  0  0  0  0
  148.2013  136.3215  160.7411 C   0  0  0  0  0  0  0  0  0  0  0  0
  147.3529  137.1199  164.4051 H   0  0  0  0  0  0  0  0  0  0  0  0
  147.2468  137.7809  162.7760 H   0  0  0  0  0  0  0  0  0  0  0  0
  148.7334  137.0010  163.3168 H   0  0  0  0  0  0  0  0  0  0  0  0
  147.5130  134.8014  163.4836 H   0  0  0  0  0  0  0  0  0  0  0  0
  146.0367  135.5706  162.9612 H   0  0  0  0  0  0  0  0  0  0  0  0
  146.6661  133.4590  161.4607 H   0  0  0  0  0  0  0  0  0  0  0  0
  147.3596  132.8970  159.1506 H   0  0  0  0  0  0  0  0  0  0  0  0
  150.2841  136.7855  158.4449 H   0  0  0  0  0  0  0  0  0  0  0  0
  150.8482  138.4895  157.5433 H   0  0  0  0  0  0  0  0  0  0  0  0
  148.9566  140.8311  157.2403 H   0  0  0  0  0  0  0  0  0  0  0  0
  149.8875  141.2374  155.0864 H   0  0  0  0  0  0  0  0  0  0  0  0
  150.0538  138.3371  155.0480 H   0  0  0  0  0  0  0  0  0  0  0  0
  150.3437  139.3975  153.6824 H   0  0  0  0  0  0  0  0  0  0  0  0
  152.3852  137.9142  154.8881 H   0  0  0  0  0  0  0  0  0  0  0  0
  152.6596  139.4277  154.0174 H   0  0  0  0  0  0  0  0  0  0  0  0
  152.1915  141.6795  155.5879 H   0  0  0  0  0  0  0  0  0  0  0  0
  151.2371  140.6390  159.5878 H   0  0  0  0  0  0  0  0  0  0  0  0
  152.5177  139.9237  158.6321 H   0  0  0  0  0  0  0  0  0  0  0  0
  152.9395  142.1505  160.1558 H   0  0  0  0  0  0  0  0  0  0  0  0
  153.7770  141.9183  158.6258 H   0  0  0  0  0  0  0  0  0  0  0  0
  151.7888  143.9749  159.2127 H   0  0  0  0  0  0  0  0  0  0  0  0
  152.7372  143.7379  157.7499 H   0  0  0  0  0  0  0  0  0  0  0  0
  150.6429  143.2109  156.8199 H   0  0  0  0  0  0  0  0  0  0  0  0
  149.9732  142.7888  158.3800 H   0  0  0  0  0  0  0  0  0  0  0  0
  148.3538  137.2349  161.2934 H   0  0  0  0  0  0  0  0  0  0  0  0
  1  2  1  0  0  0  0
  1 25  1  0  0  0  0
  1 26  1  0  0  0  0
  1 27  1  0  0  0  0
  2  3  1  0  0  0  0
  2 28  1  0  0  0  0
  2 29  1  0  0  0  0
  3 24  1  0  0  0  0
  3  4  1  0  0  0  0
  4  5  2  0  0  0  0
  4 30  1  0  0  0  0
  5  6  1  0  0  0  0
  5 31  1  0  0  0  0
  6  7  2  0  0  0  0
  6  8  1  0  0  0  0
  8  9  1  0  0  0  0
  8 24  2  0  0  0  0
  9 10  1  0  0  0  0
  9 32  1  0  0  0  0
 10 11  2  0  0  0  0
 10 12  1  0  0  0  0
 12 13  1  0  0  0  0
 12 33  1  0  0  0  0
 13 19  1  0  0  0  0
 13 14  1  0  0  0  0
 13 34  1  0  0  0  0
 14 18  1  0  0  0  0
 14 15  1  0  0  0  0
 14 35  1  0  0  0  0
 15 16  1  0  0  0  0
 15 36  1  0  0  0  0
 15 37  1  0  0  0  0
 16 17  1  0  0  0  0
 16 38  1  0  0  0  0
 16 39  1  0  0  0  0
 17 18  1  0  0  0  0
 18 19  1  0  0  0  0
 18 40  1  0  0  0  0
 19 23  1  0  0  0  0
 19 20  1  0  0  0  0
 20 21  1  0  0  0  0
 20 41  1  0  0  0  0
 20 42  1  0  0  0  0
 21 22  1  0  0  0  0
 21 43  1  0  0  0  0
 21 44  1  0  0  0  0
 22 23  1  0  0  0  0
 22 45  1  0  0  0  0
 22 46  1  0  0  0  0
 23 47  1  0  0  0  0
 23 48  1  0  0  0  0
 24 49  1  0  0  0  0
M  END
> <s_m_source_file>
AV-unprocessed.smi

> <i_m_source_file_index>
2339

> <i_lp_mmshare_version>
43012

> <i_f3d_flags>
0

> <s_epik_input>
W0NIM11bQ0gyXW4xW2NIXVtjSF1jKD1PKWMoW2NIXTEpW05IXUMoPU8pW05IXVtDQEBIXTJbQ0BASF0oW0NIMl1bQ0gyXU8zKVtDQEBIXTNDMjRbQ0gyXVtDSDJdW0NIMl1bQ0gyXTQ=

> <s_epik_cmdline>
J2VwaWtfcHl0aG9uJywgJy1waCcsICc3LjAnLCAnLXRuJywgJzgnLCAnLW1hJywgJzIwMCcsICctbWV0YWxfYmluZGluZycsICctaW1hZScsICc8aW5maWxlLm1hZT4nLCAnLW9tYWUnLCAnPG91dGZpbGUubWFlPic=

> <r_lp_tautomer_probability>
1

> <r_epik_Ionization_Penalty>
0.00145966

> <r_epik_Ionization_Penalty_Charging>
0.00143969

> <r_epik_Ionization_Penalty_Neutral>
1.99697e-05

> <r_epik_State_Penalty>
0.000961843

> <r_epik_Charging_Adjusted_Penalty>
0.00240153

> <i_epik_Tot_Q>
0

> <i_epik_Tot_abs_Q>
0

> <r_epik_Metal_State_Penalty>
-0

> <b_epik_Metal_Only>
0

> <s_lp_Force_Field>
OPLS_2005

> <r_lp_Energy>
59.2385

> <b_lp_Chiralities_Consistent>
1

> <s_lp_Variant>
AV-unprocessed.smi:2339-7

> <Gold.Version>
5.8.1

> <Gold.Id.Protein>
6NUR|6NUR_protein|mol2

> <Gold.PLP.Fitness>
47.2012

> <Gold.PLP.PLP>
-45.3576

> <Gold.PLP.part.hbond>
-2.0000

> <Gold.PLP.part.metal>
0.0000

> <Gold.PLP.part.buried>
-4.8906

> <Gold.PLP.part.nonpolar>
-38.8972

> <Gold.PLP.part.repulsive>
0.2239

> <Gold.PLP.ligand.clash>
0.0000

> <Gold.PLP.ligand.torsion>
0.6795

> <Gold.PLP.Chemscore.Hbond>
1.0000

> <Gold.PLP.Chemscore.CHOScore>
0.0000

> <Gold.PLP.Chemscore.Metal>
0.0000

> <Gold.Chemscore.Hbonds>
donor molecule, donor type, donor heavy atom, donor atom, acceptor molecule, acceptor atom, score
      P1  H  7997  8009       L1    17  1.00

> <Gold.PLP.Chemscore.Internal.Correction>
0.2027

> <Gold.Rescore>
     Score         DG    S(hbond)    S(metal)    S(lipo)     H(rot)  DE(clash)    DE(int)     intcor
     18.19     -18.93       0.81        0.00     117.37       1.17       0.09       0.65       ----

> <Gold.Chemscore.Fitness>
18.1927

> <Gold.Chemscore.DG>
-18.9322

> <Gold.Chemscore.ZeroCoef>
-5.4800

> <Gold.Chemscore.Hbond>
0.8105

> <Gold.Chemscore.Metal>
0.0000

> <Gold.Chemscore.Lipo>
117.3728

> <Gold.Chemscore.Internal_Hbond>
0.0000

> <Gold.Chemscore.DEClash>
0.0866

> <Gold.Chemscore.DEInternal>
0.6529

> <Gold.Chemscore.Rot>
1.1670

> <Gold.Chemscore.Internal.Correction>
   9.000000E+99

> <Gold.Chemscore.Hbonds>
donor molecule, donor type, donor heavy atom, donor atom, acceptor molecule, acceptor atom, score
      P1  H  7997  8009       L1    17  0.51

> <Gold.Chemscore.Hbond.Weighted>
-2.7070

> <Gold.Chemscore.Metal.Weighted>
-0.0000

> <Gold.Chemscore.Lipo.Weighted>
-13.7326

> <Gold.Chemscore.Internal_Hbond.Weighted>
0.0000

> <Gold.Chemscore.DEClash.Weighted>
0.0866

> <Gold.Chemscore.DEInternal.Weighted>
0.6529

> <Gold.Chemscore.Rot.Weighted>
2.9874

> <Gold.Chemscore.Internal.Correction.Weighted>
   9.000000E+99

> <Gold.Protein.RotatedTorsions>
[ 6907 6896 6895 6894 ] final  -50.50 input  -60.11 | X-H torsion
[ 7974 7965 7964 7962 ] final  168.64 input  175.53 | X-H torsion
[ 8008 7997 7996 7995 ] final -154.96 input   59.86 | X-H torsion
[ 10167 10162 10161 10158 ] final  -50.68 input  -65.29 | X-H torsion
[ 10718 10713 10712 10709 ] final   25.89 input   66.30 | X-H torsion
[ 10763 10752 10751 10750 ] final   74.72 input  -60.55 | X-H torsion
[ 11005 11000 10999 10996 ] final  -74.08 input  -57.11 | X-H torsion

> <Gold.Protein.ActiveResidues>
 VAL166  LYS551  ARG553  GLY616  TRP617  ASP618  TYR619  PRO620  LYS621  CYS622 
 ASP623  PHE694  ASN695  SER759  ASP760  ASP761  ALA762  ILE779  LEU786  VAL792 
 PHE793  MET794  SER795  GLU796  ALA797  LYS798  CYS799  TRP800  GLU811  SER814 

> <Gold.Protein.RotatedAtoms>
  150.8701  134.8073  159.7148 H   0  0  0  0  0  0  0  0  0  0  0  0  # atno 6907 bound_to 6896
  152.4709  134.4960  159.9720 H   0  0  0  0  0  0  0  0  0  0  0  0  # atno 6908 bound_to 6896
  151.5050  133.3458  159.2911 H   0  0  0  0  0  0  0  0  0  0  0  0  # atno 6909 bound_to 6896
  144.7382  139.8937  143.6405 H   0  0  0  0  0  0  0  0  0  0  0  0  # atno 7974 bound_to 7965
  155.6945  140.0759  157.2435 H   0  0  0  0  0  0  0  0  0  0  0  0  # atno 8008 bound_to 7997
  154.4083  140.1658  156.2175 H   0  0  0  0  0  0  0  0  0  0  0  0  # atno 8009 bound_to 7997
  155.9423  140.3383  155.6340 H   0  0  0  0  0  0  0  0  0  0  0  0  # atno 8010 bound_to 7997
  140.6626  143.2648  151.4394 H   0  0  0  0  0  0  0  0  0  0  0  0  # atno 10167 bound_to 10162
  157.1994  130.6883  149.6182 H   0  0  0  0  0  0  0  0  0  0  0  0  # atno 10718 bound_to 10713
  153.0606  135.5015  154.8085 H   0  0  0  0  0  0  0  0  0  0  0  0  # atno 10763 bound_to 10752
  154.6877  135.2979  154.9527 H   0  0  0  0  0  0  0  0  0  0  0  0  # atno 10764 bound_to 10752
  154.0292  135.6732  153.4832 H   0  0  0  0  0  0  0  0  0  0  0  0  # atno 10765 bound_to 10752
  141.1631  133.6899  156.7310 H   0  0  0  0  0  0  0  0  0  0  0  0  # atno 11005 bound_to 11000
  146.1123  139.4129  143.0280 LP  0  0  0  0  0  0  0  0  0  0  0  0  # atno 17320 bound_to 7965
  145.7425  141.0003  143.1293 LP  0  0  0  0  0  0  0  0  0  0  0  0  # atno 17321 bound_to 7965
  139.5864  144.1595  152.2034 LP  0  0  0  0  0  0  0  0  0  0  0  0  # atno 17342 bound_to 10162
  140.0936  144.5600  150.7037 LP  0  0  0  0  0  0  0  0  0  0  0  0  # atno 17343 bound_to 10162
  155.9702  130.4588  150.6011 LP  0  0  0  0  0  0  0  0  0  0  0  0  # atno 17370 bound_to 10713
  157.3782  131.0776  151.1500 LP  0  0  0  0  0  0  0  0  0  0  0  0  # atno 17371 bound_to 10713
  140.2745  134.8365  157.3878 LP  0  0  0  0  0  0  0  0  0  0  0  0  # atno 17394 bound_to 11000
  140.1490  134.4874  155.7975 LP  0  0  0  0  0  0  0  0  0  0  0  0  # atno 17395 bound_to 11000

$$$$
