AV-unprocessed.smi:1826|AV-procd|sdf|7418|dock8
  -GOLD-   22720 9103D 1   1.00000     0.00000
 Structure written by MMmdl.
 40 42  0  0  0  0  0  0  0  0  2 V2000
  149.9739  141.1200  153.4906 O   0  0  0  0  0  0  0  0  0  0  0  0
  149.4644  140.8022  154.7693 C   0  0  0  0  0  0  0  0  0  0  0  0
  150.2265  141.4423  155.8855 C   0  0  0  0  0  0  0  0  0  0  0  0
  150.2766  142.7743  156.1737 N   0  3  0  0  0  0  0  0  0  0  0  0
  151.1044  142.9905  157.2755 C   0  0  0  0  0  0  0  0  0  0  0  0
  151.4651  144.1655  157.9276 C   0  0  0  0  0  0  0  0  0  0  0  0
  152.3401  144.0364  159.0262 C   0  0  0  0  0  0  0  0  0  0  0  0
  152.8202  142.7761  159.4383 C   0  0  0  0  0  0  0  0  0  0  0  0
  152.4455  141.5918  158.7702 C   0  0  0  0  0  0  0  0  0  0  0  0
  151.5809  141.7281  157.6844 C   0  0  0  0  0  0  0  0  0  0  0  0
  151.0109  140.8041  156.8010 N   0  0  0  0  0  0  0  0  0  0  0  0
  151.3211  139.3717  156.9518 C   0  0  0  0  0  0  0  0  0  0  0  0
  151.7761  138.6617  155.6486 C   0  0  1  0  0  0  0  0  0  0  0  0
  153.1443  138.8797  155.3500 O   0  0  0  0  0  0  0  0  0  0  0  0
  151.4107  137.1840  155.6571 C   0  0  0  0  0  0  0  0  0  0  0  0
  151.9059  136.3444  156.6769 C   0  0  0  0  0  0  0  0  0  0  0  0
  151.5818  134.9737  156.6908 C   0  0  0  0  0  0  0  0  0  0  0  0
  150.7576  134.4245  155.6852 C   0  0  0  0  0  0  0  0  0  0  0  0
  150.4169  132.9415  155.6967 C   0  0  0  0  0  0  0  0  0  0  0  0
  149.9264  132.5536  154.5190 F   0  0  0  0  0  0  0  0  0  0  0  0
  151.5203  132.2403  155.9534 F   0  0  0  0  0  0  0  0  0  0  0  0
  149.5087  132.6728  156.6352 F   0  0  0  0  0  0  0  0  0  0  0  0
  150.2715  135.2627  154.6588 C   0  0  0  0  0  0  0  0  0  0  0  0
  150.5941  136.6333  154.6454 C   0  0  0  0  0  0  0  0  0  0  0  0
  149.7931  140.3986  152.9072 H   0  0  0  0  0  0  0  0  0  0  0  0
  148.4215  141.1155  154.8227 H   0  0  0  0  0  0  0  0  0  0  0  0
  149.4863  139.7199  154.8982 H   0  0  0  0  0  0  0  0  0  0  0  0
  151.0991  145.1317  157.6122 H   0  0  0  0  0  0  0  0  0  0  0  0
  152.6498  144.9215  159.5627 H   0  0  0  0  0  0  0  0  0  0  0  0
  153.4902  142.7158  160.2838 H   0  0  0  0  0  0  0  0  0  0  0  0
  152.8201  140.6327  159.0948 H   0  0  0  0  0  0  0  0  0  0  0  0
  152.0568  139.2575  157.7486 H   0  0  0  0  0  0  0  0  0  0  0  0
  150.4206  138.8879  157.3315 H   0  0  0  0  0  0  0  0  0  0  0  0
  151.2334  139.1194  154.8203 H   0  0  0  0  0  0  0  0  0  0  0  0
  153.5655  138.0394  155.2497 H   0  0  0  0  0  0  0  0  0  0  0  0
  152.5395  136.7483  157.4530 H   0  0  0  0  0  0  0  0  0  0  0  0
  151.9720  134.3440  157.4770 H   0  0  0  0  0  0  0  0  0  0  0  0
  149.6495  134.8582  153.8740 H   0  0  0  0  0  0  0  0  0  0  0  0
  150.2140  137.2578  153.8501 H   0  0  0  0  0  0  0  0  0  0  0  0
  149.7810  143.4802  155.6443 H   0  0  0  0  0  0  0  0  0  0  0  0
  1  2  1  0  0  0  0
  1 25  1  0  0  0  0
  2  3  1  0  0  0  0
  2 26  1  0  0  0  0
  2 27  1  0  0  0  0
  3 11  1  0  0  0  0
  3  4  2  0  0  0  0
  4  5  1  0  0  0  0
  4 40  1  0  0  0  0
  5 10  2  0  0  0  0
  5  6  1  0  0  0  0
  6  7  2  0  0  0  0
  6 28  1  0  0  0  0
  7  8  1  0  0  0  0
  7 29  1  0  0  0  0
  8  9  2  0  0  0  0
  8 30  1  0  0  0  0
  9 10  1  0  0  0  0
  9 31  1  0  0  0  0
 10 11  1  0  0  0  0
 11 12  1  0  0  0  0
 12 13  1  0  0  0  0
 12 32  1  0  0  0  0
 12 33  1  0  0  0  0
 13 14  1  0  0  0  0
 13 15  1  0  0  0  0
 13 34  1  0  0  0  0
 14 35  1  0  0  0  0
 15 24  1  0  0  0  0
 15 16  2  0  0  0  0
 16 17  1  0  0  0  0
 16 36  1  0  0  0  0
 17 18  2  0  0  0  0
 17 37  1  0  0  0  0
 18 19  1  0  0  0  0
 18 23  1  0  0  0  0
 19 20  1  0  0  0  0
 19 21  1  0  0  0  0
 19 22  1  0  0  0  0
 23 24  2  0  0  0  0
 23 38  1  0  0  0  0
 24 39  1  0  0  0  0
M  CHG  1   4   1
M  END
> <s_m_source_file>
AV-unprocessed.smi

> <i_m_source_file_index>
1826

> <i_lp_mmshare_version>
43012

> <i_f3d_flags>
0

> <s_epik_input>
W2NIXTFbY0hdW2NIXVtjSF1jKGMxMiluKGMobjIpW0NIMl1bT0hdKVtDSDJdW0NASF0oW09IXSljM1tjSF1bY0hdYyhDKEYpKEYpRilbY0hdW2NIXTM=

> <s_epik_cmdline>
J2VwaWtfcHl0aG9uJywgJy1waCcsICc3LjAnLCAnLXRuJywgJzgnLCAnLW1hJywgJzIwMCcsICctbWV0YWxfYmluZGluZycsICctaW1hZScsICc8aW5maWxlLm1hZT4nLCAnLW9tYWUnLCAnPG91dGZpbGUubWFlPic=

> <r_epik_Ionization_Penalty>
1.35643

> <r_epik_Ionization_Penalty_Charging>
1.35557

> <r_epik_Ionization_Penalty_Neutral>
0.000856405

> <r_epik_State_Penalty>
1.43401

> <r_epik_Charging_Adjusted_Penalty>
2.78958

> <i_epik_Tot_Q>
1

> <i_epik_Tot_abs_Q>
1

> <r_epik_Metal_State_Penalty>
5.47166

> <b_epik_Metal_Only>
0

> <s_lp_Force_Field>
OPLS_2005

> <r_lp_Energy>
22.2169

> <b_lp_Chiralities_Consistent>
1

> <s_lp_Variant>
AV-unprocessed.smi:1826-4

> <Gold.Version>
5.8.1

> <Gold.Id.Protein>
6NUR|6NUR_protein|mol2

> <Gold.PLP.Fitness>
59.6923

> <Gold.PLP.PLP>
-46.4372

> <Gold.PLP.part.hbond>
-4.3076

> <Gold.PLP.part.metal>
0.0000

> <Gold.PLP.part.buried>
-2.5520

> <Gold.PLP.part.nonpolar>
-40.0547

> <Gold.PLP.part.repulsive>
0.1162

> <Gold.PLP.ligand.clash>
0.5562

> <Gold.PLP.ligand.torsion>
1.0915

> <Gold.PLP.Chemscore.Hbond>
4.8913

> <Gold.PLP.Chemscore.CHOScore>
0.0000

> <Gold.PLP.Chemscore.Metal>
0.0000

> <Gold.Chemscore.Hbonds>
donor molecule, donor type, donor heavy atom, donor atom, acceptor molecule, acceptor atom, score
      L1  H     1    25       P1  7957  0.80
      L1  H     4    40       P1  8028  1.93
      P1  H  7989  7998       L1     1  0.13
      P1  H  7997  8009       L1    14  1.00
      P1  H  8011  8017       L1     1  0.85

> <Gold.PLP.Chemscore.Internal.Correction>
1.3205

> <Gold.Rescore>
     Score         DG    S(hbond)    S(metal)    S(lipo)     H(rot)  DE(clash)    DE(int)     intcor
     19.02     -21.18       2.79        0.00     119.92       2.98       1.21       0.95       ----

> <Gold.Chemscore.Fitness>
19.0214

> <Gold.Chemscore.DG>
-21.1846

> <Gold.Chemscore.ZeroCoef>
-5.4800

> <Gold.Chemscore.Hbond>
2.7868

> <Gold.Chemscore.Metal>
0.0000

> <Gold.Chemscore.Lipo>
119.9244

> <Gold.Chemscore.Internal_Hbond>
0.0000

> <Gold.Chemscore.DEClash>
1.2103

> <Gold.Chemscore.DEInternal>
0.9528

> <Gold.Chemscore.Rot>
2.9822

> <Gold.Chemscore.Internal.Correction>
   9.000000E+99

> <Gold.Chemscore.Hbonds>
donor molecule, donor type, donor heavy atom, donor atom, acceptor molecule, acceptor atom, score
      L1  H     1    25       P1  7957  0.80
      L1  H     4    40       P1  8028  0.86
      P1  H  7989  7998       L1     1  0.01
      P1  H  7997  8009       L1    14  0.69
      P1  H  8011  8017       L1     1  0.16

> <Gold.Chemscore.Hbond.Weighted>
-9.3078

> <Gold.Chemscore.Metal.Weighted>
-0.0000

> <Gold.Chemscore.Lipo.Weighted>
-14.0312

> <Gold.Chemscore.Internal_Hbond.Weighted>
0.0000

> <Gold.Chemscore.DEClash.Weighted>
1.2103

> <Gold.Chemscore.DEInternal.Weighted>
0.9528

> <Gold.Chemscore.Rot.Weighted>
7.6343

> <Gold.Chemscore.Internal.Correction.Weighted>
   9.000000E+99

> <Gold.Protein.RotatedTorsions>
[ 6907 6896 6895 6894 ] final  -45.57 input  -60.11 | X-H torsion
[ 7974 7965 7964 7962 ] final  143.35 input  175.53 | X-H torsion
[ 8008 7997 7996 7995 ] final -143.18 input   59.86 | X-H torsion
[ 10167 10162 10161 10158 ] final   35.24 input  -65.29 | X-H torsion
[ 10718 10713 10712 10709 ] final   23.66 input   66.30 | X-H torsion
[ 10763 10752 10751 10750 ] final   61.19 input  -60.55 | X-H torsion
[ 11005 11000 10999 10996 ] final  -40.66 input  -57.11 | X-H torsion

> <Gold.Protein.ActiveResidues>
 VAL166  LYS551  ARG553  GLY616  TRP617  ASP618  TYR619  PRO620  LYS621  CYS622 
 ASP623  PHE694  ASN695  SER759  ASP760  ASP761  ALA762  ILE779  LEU786  VAL792 
 PHE793  MET794  SER795  GLU796  ALA797  LYS798  CYS799  TRP800  GLU811  SER814 

> <Gold.Protein.RotatedAtoms>
  150.9205  134.8623  159.7485 H   0  0  0  0  0  0  0  0  0  0  0  0  # atno 6907 bound_to 6896
  152.4990  134.4225  159.9495 H   0  0  0  0  0  0  0  0  0  0  0  0  # atno 6908 bound_to 6896
  151.4259  133.3645  159.2797 H   0  0  0  0  0  0  0  0  0  0  0  0  # atno 6909 bound_to 6896
  144.8929  139.5533  143.5790 H   0  0  0  0  0  0  0  0  0  0  0  0  # atno 7974 bound_to 7965
  155.5064  140.0580  157.2930 H   0  0  0  0  0  0  0  0  0  0  0  0  # atno 8008 bound_to 7997
  154.4568  140.1976  156.0307 H   0  0  0  0  0  0  0  0  0  0  0  0  # atno 8009 bound_to 7997
  156.0814  140.3246  155.7702 H   0  0  0  0  0  0  0  0  0  0  0  0  # atno 8010 bound_to 7997
  140.4240  144.1419  150.6151 H   0  0  0  0  0  0  0  0  0  0  0  0  # atno 10167 bound_to 10162
  157.1692  130.6752  149.6071 H   0  0  0  0  0  0  0  0  0  0  0  0  # atno 10718 bound_to 10713
  152.9943  135.5509  154.5994 H   0  0  0  0  0  0  0  0  0  0  0  0  # atno 10763 bound_to 10752
  154.5338  135.2815  155.1158 H   0  0  0  0  0  0  0  0  0  0  0  0  # atno 10764 bound_to 10752
  154.2463  135.6407  153.5277 H   0  0  0  0  0  0  0  0  0  0  0  0  # atno 10765 bound_to 10752
  141.0190  133.6871  156.2351 H   0  0  0  0  0  0  0  0  0  0  0  0  # atno 11005 bound_to 11000
  146.3064  139.7595  142.9053 LP  0  0  0  0  0  0  0  0  0  0  0  0  # atno 17320 bound_to 7965
  145.3752  141.0349  143.3209 LP  0  0  0  0  0  0  0  0  0  0  0  0  # atno 17321 bound_to 7965
  140.4502  143.2490  151.9358 LP  0  0  0  0  0  0  0  0  0  0  0  0  # atno 17342 bound_to 10162
  139.4783  144.5570  151.8298 LP  0  0  0  0  0  0  0  0  0  0  0  0  # atno 17343 bound_to 10162
  155.9741  130.4685  150.6362 LP  0  0  0  0  0  0  0  0  0  0  0  0  # atno 17370 bound_to 10713
  157.4059  131.0817  151.1265 LP  0  0  0  0  0  0  0  0  0  0  0  0  # atno 17371 bound_to 10713
  140.6605  134.4973  157.5583 LP  0  0  0  0  0  0  0  0  0  0  0  0  # atno 17394 bound_to 11000
  139.9134  134.8296  156.1447 LP  0  0  0  0  0  0  0  0  0  0  0  0  # atno 17395 bound_to 11000

$$$$
