AV-unprocessed.smi:2076|AV-procd|sdf|8459|dock1
  -GOLD-   2272011153D 1   1.00000     0.00000
 Structure written by MMmdl.
 45 46  0  0  0  0  0  0  0  0  2 V2000
  151.8958  144.8636  159.6437 C   0  0  0  0  0  0  0  0  0  0  0  0
  152.3451  143.4390  159.7819 C   0  0  0  0  0  0  0  0  0  0  0  0
  153.2257  142.8827  160.7514 C   0  0  0  0  0  0  0  0  0  0  0  0
  153.2877  141.5563  160.4295 C   0  0  0  0  0  0  0  0  0  0  0  0
  154.0407  140.4422  161.0793 C   0  0  0  0  0  0  0  0  0  0  0  0
  152.4781  141.3734  159.3223 N   0  0  0  0  0  0  0  0  0  0  0  0
  152.1789  140.1484  158.5961 C   0  0  0  0  0  0  0  0  0  0  0  0
  151.8454  140.4477  157.1338 C   0  0  0  0  0  0  0  0  0  0  0  0
  152.4826  139.9087  156.2295 O   0  0  0  0  0  0  0  0  0  0  0  0
  150.8340  141.3004  156.9183 N   0  0  0  0  0  0  0  0  0  0  0  0
  150.3011  141.6439  155.6070 C   0  0  0  0  0  0  0  0  0  0  0  0
  148.7915  141.3060  155.4894 C   0  0  2  0  0  0  0  0  0  0  0  0
  148.3452  141.3401  154.0084 C   0  0  0  0  0  0  0  0  0  0  0  0
  147.9105  142.1971  156.3140 N   0  3  0  0  0  0  0  0  0  0  0  0
  146.4776  142.1072  155.9212 C   0  0  0  0  0  0  0  0  0  0  0  0
  145.6213  143.1054  156.7168 C   0  0  0  0  0  0  0  0  0  0  0  0
  145.7673  142.8504  158.1058 O   0  0  0  0  0  0  0  0  0  0  0  0
  147.1107  143.0287  158.5289 C   0  0  0  0  0  0  0  0  0  0  0  0
  148.0302  142.0404  157.7904 C   0  0  0  0  0  0  0  0  0  0  0  0
  151.9006  142.5305  158.9291 N   0  0  0  0  0  0  0  0  0  0  0  0
  152.4067  145.5084  160.3591 H   0  0  0  0  0  0  0  0  0  0  0  0
  150.8240  144.9553  159.8212 H   0  0  0  0  0  0  0  0  0  0  0  0
  152.1039  145.2474  158.6447 H   0  0  0  0  0  0  0  0  0  0  0  0
  153.7329  143.3819  161.5636 H   0  0  0  0  0  0  0  0  0  0  0  0
  154.6119  140.8052  161.9337 H   0  0  0  0  0  0  0  0  0  0  0  0
  154.7402  139.9846  160.3795 H   0  0  0  0  0  0  0  0  0  0  0  0
  153.3603  139.6687  161.4356 H   0  0  0  0  0  0  0  0  0  0  0  0
  153.0348  139.4737  158.6514 H   0  0  0  0  0  0  0  0  0  0  0  0
  151.3434  139.6402  159.0784 H   0  0  0  0  0  0  0  0  0  0  0  0
  150.3700  141.6964  157.7236 H   0  0  0  0  0  0  0  0  0  0  0  0
  150.4768  142.7114  155.4688 H   0  0  0  0  0  0  0  0  0  0  0  0
  150.8643  141.1138  154.8367 H   0  0  0  0  0  0  0  0  0  0  0  0
  148.6676  140.2867  155.8594 H   0  0  0  0  0  0  0  0  0  0  0  0
  148.9340  140.6644  153.3877 H   0  0  0  0  0  0  0  0  0  0  0  0
  148.4508  142.3417  153.5908 H   0  0  0  0  0  0  0  0  0  0  0  0
  147.3090  141.0352  153.8746 H   0  0  0  0  0  0  0  0  0  0  0  0
  146.3456  142.3105  154.8603 H   0  0  0  0  0  0  0  0  0  0  0  0
  146.1154  141.0928  156.0953 H   0  0  0  0  0  0  0  0  0  0  0  0
  145.9033  144.1344  156.4872 H   0  0  0  0  0  0  0  0  0  0  0  0
  144.5705  142.9956  156.4475 H   0  0  0  0  0  0  0  0  0  0  0  0
  147.4260  144.0586  158.3531 H   0  0  0  0  0  0  0  0  0  0  0  0
  147.1662  142.8595  159.6043 H   0  0  0  0  0  0  0  0  0  0  0  0
  147.7839  141.0155  158.0732 H   0  0  0  0  0  0  0  0  0  0  0  0
  149.0492  142.2376  158.1224 H   0  0  0  0  0  0  0  0  0  0  0  0
  148.2091  143.1419  156.1172 H   0  0  0  0  0  0  0  0  0  0  0  0
  1  2  1  0  0  0  0
  1 21  1  0  0  0  0
  1 22  1  0  0  0  0
  1 23  1  0  0  0  0
  2 20  2  0  0  0  0
  2  3  1  0  0  0  0
  3  4  2  0  0  0  0
  3 24  1  0  0  0  0
  4  5  1  0  0  0  0
  4  6  1  0  0  0  0
  5 25  1  0  0  0  0
  5 26  1  0  0  0  0
  5 27  1  0  0  0  0
  6  7  1  0  0  0  0
  6 20  1  0  0  0  0
  7  8  1  0  0  0  0
  7 28  1  0  0  0  0
  7 29  1  0  0  0  0
  8  9  2  0  0  0  0
  8 10  1  0  0  0  0
 10 11  1  0  0  0  0
 10 30  1  0  0  0  0
 11 12  1  0  0  0  0
 11 31  1  0  0  0  0
 11 32  1  0  0  0  0
 12 13  1  0  0  0  0
 12 14  1  0  0  0  0
 12 33  1  0  0  0  0
 13 34  1  0  0  0  0
 13 35  1  0  0  0  0
 13 36  1  0  0  0  0
 14 19  1  0  0  0  0
 14 15  1  0  0  0  0
 14 45  1  0  0  0  0
 15 16  1  0  0  0  0
 15 37  1  0  0  0  0
 15 38  1  0  0  0  0
 16 17  1  0  0  0  0
 16 39  1  0  0  0  0
 16 40  1  0  0  0  0
 17 18  1  0  0  0  0
 18 19  1  0  0  0  0
 18 41  1  0  0  0  0
 18 42  1  0  0  0  0
 19 43  1  0  0  0  0
 19 44  1  0  0  0  0
M  CHG  1  14   1
M  END
> <s_m_source_file>
AV-unprocessed.smi

> <i_m_source_file_index>
2076

> <i_lp_mmshare_version>
43012

> <i_f3d_flags>
0

> <s_epik_input>
W0NIM11jMVtjSF1jKFtDSDNdKW4objEpW0NIMl1DKD1PKVtOSF1bQ0gyXVtDQEhdKFtDSDNdKU4yW0NIMl1bQ0gyXU9bQ0gyXVtDSDJdMg==

> <s_epik_cmdline>
J2VwaWtfcHl0aG9uJywgJy1waCcsICc3LjAnLCAnLXRuJywgJzgnLCAnLW1hJywgJzIwMCcsICctbWV0YWxfYmluZGluZycsICctaW1hZScsICc8aW5maWxlLm1hZT4nLCAnLW9tYWUnLCAnPG91dGZpbGUubWFlPic=

> <r_lp_tautomer_probability>
1

> <r_epik_Ionization_Penalty>
0.748594

> <r_epik_Ionization_Penalty_Charging>
0.748396

> <r_epik_Ionization_Penalty_Neutral>
0.000197403

> <r_epik_State_Penalty>
0.775162

> <r_epik_Charging_Adjusted_Penalty>
1.52356

> <i_epik_Tot_Q>
1

> <i_epik_Tot_abs_Q>
1

> <r_epik_Metal_State_Penalty>
0.77529

> <b_epik_Metal_Only>
0

> <s_lp_Force_Field>
OPLS_2005

> <r_lp_Energy>
18.1598

> <b_lp_Chiralities_Consistent>
1

> <s_lp_Variant>
AV-unprocessed.smi:2076-3

> <Gold.Version>
5.8.1

> <Gold.Id.Protein>
6NUR|6NUR_protein|mol2

> <Gold.PLP.Fitness>
47.5923

> <Gold.PLP.PLP>
-39.8322

> <Gold.PLP.part.hbond>
-2.0000

> <Gold.PLP.part.metal>
0.0000

> <Gold.PLP.part.buried>
-4.7571

> <Gold.PLP.part.nonpolar>
-32.1293

> <Gold.PLP.part.repulsive>
0.1724

> <Gold.PLP.ligand.clash>
0.0000

> <Gold.PLP.ligand.torsion>
0.6676

> <Gold.PLP.Chemscore.Hbond>
3.0000

> <Gold.PLP.Chemscore.CHOScore>
0.0000

> <Gold.PLP.Chemscore.Metal>
0.0000

> <Gold.Chemscore.Hbonds>
donor molecule, donor type, donor heavy atom, donor atom, acceptor molecule, acceptor atom, score
      L1  H    14    45       P1  8028  2.00
      P1  H  7997  8008       L1     9  1.00

> <Gold.PLP.Chemscore.Internal.Correction>
0.0953

> <Gold.Rescore>
     Score         DG    S(hbond)    S(metal)    S(lipo)     H(rot)  DE(clash)    DE(int)     intcor
     16.21     -18.92       1.98        0.00      97.17       1.78       0.20       2.51       ----

> <Gold.Chemscore.Fitness>
16.2137

> <Gold.Chemscore.DG>
-18.9239

> <Gold.Chemscore.ZeroCoef>
-5.4800

> <Gold.Chemscore.Hbond>
1.9824

> <Gold.Chemscore.Metal>
0.0000

> <Gold.Chemscore.Lipo>
97.1716

> <Gold.Chemscore.Internal_Hbond>
0.0000

> <Gold.Chemscore.DEClash>
0.2010

> <Gold.Chemscore.DEInternal>
2.5092

> <Gold.Chemscore.Rot>
1.7760

> <Gold.Chemscore.Internal.Correction>
   9.000000E+99

> <Gold.Chemscore.Hbonds>
donor molecule, donor type, donor heavy atom, donor atom, acceptor molecule, acceptor atom, score
      L1  H    14    45       P1  8028  0.70
      P1  H  7997  8008       L1     9  0.82

> <Gold.Chemscore.Hbond.Weighted>
-6.6212

> <Gold.Chemscore.Metal.Weighted>
-0.0000

> <Gold.Chemscore.Lipo.Weighted>
-11.3691

> <Gold.Chemscore.Internal_Hbond.Weighted>
0.0000

> <Gold.Chemscore.DEClash.Weighted>
0.2010

> <Gold.Chemscore.DEInternal.Weighted>
2.5092

> <Gold.Chemscore.Rot.Weighted>
4.5464

> <Gold.Chemscore.Internal.Correction.Weighted>
   9.000000E+99

> <Gold.Protein.RotatedTorsions>
[ 6907 6896 6895 6894 ] final -128.51 input  -60.11 | X-H torsion
[ 7974 7965 7964 7962 ] final  109.39 input  175.53 | X-H torsion
[ 8008 7997 7996 7995 ] final  -49.48 input   59.86 | X-H torsion
[ 10167 10162 10161 10158 ] final  -52.44 input  -65.29 | X-H torsion
[ 10718 10713 10712 10709 ] final  -82.59 input   66.30 | X-H torsion
[ 10763 10752 10751 10750 ] final -110.63 input  -60.55 | X-H torsion
[ 11005 11000 10999 10996 ] final  -61.19 input  -57.11 | X-H torsion

> <Gold.Protein.ActiveResidues>
 VAL166  LYS551  ARG553  GLY616  TRP617  ASP618  TYR619  PRO620  LYS621  CYS622 
 ASP623  PHE694  ASN695  SER759  ASP760  ASP761  ALA762  ILE779  LEU786  VAL792 
 PHE793  MET794  SER795  GLU796  ALA797  LYS798  CYS799  TRP800  GLU811  SER814 

> <Gold.Protein.RotatedAtoms>
  150.9186  133.6908  159.2837 H   0  0  0  0  0  0  0  0  0  0  0  0  # atno 6907 bound_to 6896
  151.4370  135.1015  159.9668 H   0  0  0  0  0  0  0  0  0  0  0  0  # atno 6908 bound_to 6896
  152.4968  133.8603  159.7302 H   0  0  0  0  0  0  0  0  0  0  0  0  # atno 6909 bound_to 6896
  145.2685  139.2675  143.3979 H   0  0  0  0  0  0  0  0  0  0  0  0  # atno 7974 bound_to 7965
  154.4045  140.1296  156.4509 H   0  0  0  0  0  0  0  0  0  0  0  0  # atno 8008 bound_to 7997
  155.7367  140.3490  155.5065 H   0  0  0  0  0  0  0  0  0  0  0  0  # atno 8009 bound_to 7997
  155.9077  140.1030  157.1293 H   0  0  0  0  0  0  0  0  0  0  0  0  # atno 8010 bound_to 7997
  140.6537  143.2584  151.4648 H   0  0  0  0  0  0  0  0  0  0  0  0  # atno 10167 bound_to 10162
  156.0031  130.4639  150.4129 H   0  0  0  0  0  0  0  0  0  0  0  0  # atno 10718 bound_to 10713
  154.8258  135.4557  154.0915 H   0  0  0  0  0  0  0  0  0  0  0  0  # atno 10763 bound_to 10752
  153.2230  135.6896  153.7984 H   0  0  0  0  0  0  0  0  0  0  0  0  # atno 10764 bound_to 10752
  153.7394  135.3315  155.3277 H   0  0  0  0  0  0  0  0  0  0  0  0  # atno 10765 bound_to 10752
  141.1315  133.6628  156.5337 H   0  0  0  0  0  0  0  0  0  0  0  0  # atno 11005 bound_to 11000
  146.3254  140.3121  142.8627 LP  0  0  0  0  0  0  0  0  0  0  0  0  # atno 17320 bound_to 7965
  144.9356  140.8023  143.5662 LP  0  0  0  0  0  0  0  0  0  0  0  0  # atno 17321 bound_to 7965
  139.5756  144.1826  152.1899 LP  0  0  0  0  0  0  0  0  0  0  0  0  # atno 17342 bound_to 10162
  140.1136  144.5435  150.6909 LP  0  0  0  0  0  0  0  0  0  0  0  0  # atno 17343 bound_to 10162
  157.2190  131.0478  151.2557 LP  0  0  0  0  0  0  0  0  0  0  0  0  # atno 17370 bound_to 10713
  157.3818  130.7235  149.6635 LP  0  0  0  0  0  0  0  0  0  0  0  0  # atno 17371 bound_to 10713
  140.4195  134.7200  157.4882 LP  0  0  0  0  0  0  0  0  0  0  0  0  # atno 17394 bound_to 11000
  140.0370  134.6323  155.9031 LP  0  0  0  0  0  0  0  0  0  0  0  0  # atno 17395 bound_to 11000

$$$$
