AV-unprocessed.smi:2866|AV-procd|sdf|11021|dock3
  -GOLD-   2272015483D 1   1.00000     0.00000
 Structure written by MMmdl.
 42 44  0  0  0  0  0  0  0  0  2 V2000
  152.4855  143.1996  161.3375 C   0  0  0  0  0  0  0  0  0  0  0  0
  151.9757  142.6521  160.0153 C   0  0  0  0  0  0  0  0  0  0  0  0
  152.4503  141.3944  159.5790 C   0  0  0  0  0  0  0  0  0  0  0  0
  151.9653  140.9197  158.3660 C   0  0  0  0  0  0  0  0  0  0  0  0
  152.2300  139.7357  157.6739 N   0  3  0  0  0  0  0  0  0  0  0  0
  151.5114  139.7155  156.5172 C   0  0  0  0  0  0  0  0  0  0  0  0
  150.7932  140.8697  156.4609 N   0  0  0  0  0  0  0  0  0  0  0  0
  149.8584  141.3506  155.4353 C   0  0  0  0  0  0  0  0  0  0  0  0
  149.1826  140.2063  154.6555 C   0  0  2  0  0  0  0  0  0  0  0  0
  150.1124  139.6396  153.7508 O   0  0  0  0  0  0  0  0  0  0  0  0
  147.9347  140.6916  153.8937 C   0  0  0  0  0  0  0  0  0  0  0  0
  147.2060  139.6028  153.2673 N   0  0  0  0  0  0  0  0  0  0  0  0
  147.1110  139.2971  151.9272 C   0  0  0  0  0  0  0  0  0  0  0  0
  146.3164  138.1925  151.8188 C   0  0  0  0  0  0  0  0  0  0  0  0
  145.9651  137.8840  153.1651 C   0  0  0  0  0  0  0  0  0  0  0  0
  145.1005  136.7597  153.6713 C   0  0  0  0  0  0  0  0  0  0  0  0
  144.9774  136.8313  154.9967 F   0  0  0  0  0  0  0  0  0  0  0  0
  143.8881  136.8362  153.1230 F   0  0  0  0  0  0  0  0  0  0  0  0
  145.6488  135.5868  153.3539 F   0  0  0  0  0  0  0  0  0  0  0  0
  146.5030  138.7364  154.0273 N   0  0  0  0  0  0  0  0  0  0  0  0
  151.0425  141.6509  157.5935 C   0  0  0  0  0  0  0  0  0  0  0  0
  150.5634  142.8907  158.0086 C   0  0  0  0  0  0  0  0  0  0  0  0
  151.0428  143.3897  159.2409 C   0  0  0  0  0  0  0  0  0  0  0  0
  150.5356  144.7384  159.7227 C   0  0  0  0  0  0  0  0  0  0  0  0
  153.2347  142.5422  161.7795 H   0  0  0  0  0  0  0  0  0  0  0  0
  151.6667  143.2992  162.0504 H   0  0  0  0  0  0  0  0  0  0  0  0
  152.9452  144.1783  161.1976 H   0  0  0  0  0  0  0  0  0  0  0  0
  153.1588  140.8265  160.1641 H   0  0  0  0  0  0  0  0  0  0  0  0
  151.5078  138.9256  155.7797 H   0  0  0  0  0  0  0  0  0  0  0  0
  149.1164  141.9892  155.9164 H   0  0  0  0  0  0  0  0  0  0  0  0
  150.4217  141.9903  154.7543 H   0  0  0  0  0  0  0  0  0  0  0  0
  148.8849  139.4239  155.3545 H   0  0  0  0  0  0  0  0  0  0  0  0
  149.7225  139.6272  152.8892 H   0  0  0  0  0  0  0  0  0  0  0  0
  147.2544  141.1995  154.5784 H   0  0  0  0  0  0  0  0  0  0  0  0
  148.2092  141.4220  153.1306 H   0  0  0  0  0  0  0  0  0  0  0  0
  147.6111  139.8842  151.1709 H   0  0  0  0  0  0  0  0  0  0  0  0
  146.0294  137.6794  150.9129 H   0  0  0  0  0  0  0  0  0  0  0  0
  149.8538  143.4510  157.4179 H   0  0  0  0  0  0  0  0  0  0  0  0
  149.8013  145.1580  159.0344 H   0  0  0  0  0  0  0  0  0  0  0  0
  151.3584  145.4489  159.8059 H   0  0  0  0  0  0  0  0  0  0  0  0
  150.0591  144.6427  160.6986 H   0  0  0  0  0  0  0  0  0  0  0  0
  152.8525  138.9936  157.9673 H   0  0  0  0  0  0  0  0  0  0  0  0
  1  2  1  0  0  0  0
  1 25  1  0  0  0  0
  1 26  1  0  0  0  0
  1 27  1  0  0  0  0
  2 23  1  0  0  0  0
  2  3  2  0  0  0  0
  3  4  1  0  0  0  0
  3 28  1  0  0  0  0
  4 21  2  0  0  0  0
  4  5  1  0  0  0  0
  5  6  2  0  0  0  0
  5 42  1  0  0  0  0
  6  7  1  0  0  0  0
  6 29  1  0  0  0  0
  7  8  1  0  0  0  0
  7 21  1  0  0  0  0
  8  9  1  0  0  0  0
  8 30  1  0  0  0  0
  8 31  1  0  0  0  0
  9 10  1  0  0  0  0
  9 11  1  0  0  0  0
  9 32  1  0  0  0  0
 10 33  1  0  0  0  0
 11 12  1  0  0  0  0
 11 34  1  0  0  0  0
 11 35  1  0  0  0  0
 12 20  1  0  0  0  0
 12 13  1  0  0  0  0
 13 14  2  0  0  0  0
 13 36  1  0  0  0  0
 14 15  1  0  0  0  0
 14 37  1  0  0  0  0
 15 16  1  0  0  0  0
 15 20  2  0  0  0  0
 16 17  1  0  0  0  0
 16 18  1  0  0  0  0
 16 19  1  0  0  0  0
 21 22  1  0  0  0  0
 22 23  2  0  0  0  0
 22 38  1  0  0  0  0
 23 24  1  0  0  0  0
 24 39  1  0  0  0  0
 24 40  1  0  0  0  0
 24 41  1  0  0  0  0
M  CHG  1   5   1
M  END
> <s_m_source_file>
AV-unprocessed.smi

> <i_m_source_file_index>
2866

> <i_lp_mmshare_version>
43012

> <i_f3d_flags>
0

> <s_epik_input>
W0NIM11jKFtjSF0xKWMoW0NIM10pW2NIXWMoYzEyKW4oW2NIXW4yKVtDSDJdW0NASF0oW09IXSlbQ0gyXW4zW2NIXVtjSF1jKG4zKUMoRikoRilG

> <s_epik_cmdline>
J2VwaWtfcHl0aG9uJywgJy1waCcsICc3LjAnLCAnLXRuJywgJzgnLCAnLW1hJywgJzIwMCcsICctbWV0YWxfYmluZGluZycsICctaW1hZScsICc8aW5maWxlLm1hZT4nLCAnLW9tYWUnLCAnPG91dGZpbGUubWFlPic=

> <r_lp_tautomer_probability>
1

> <r_epik_Ionization_Penalty>
1.09214

> <r_epik_Ionization_Penalty_Charging>
1.09214

> <r_epik_Ionization_Penalty_Neutral>
2.80082e-06

> <r_epik_State_Penalty>
1.14852

> <r_epik_Charging_Adjusted_Penalty>
2.24066

> <i_epik_Tot_Q>
1

> <i_epik_Tot_abs_Q>
1

> <r_epik_Metal_State_Penalty>
1.23687

> <b_epik_Metal_Only>
0

> <s_lp_Force_Field>
OPLS_2005

> <r_lp_Energy>
15.9965

> <b_lp_Chiralities_Consistent>
1

> <s_lp_Variant>
AV-unprocessed.smi:2866-3

> <Gold.Version>
5.8.1

> <Gold.Id.Protein>
6NUR|6NUR_protein|mol2

> <Gold.PLP.Fitness>
52.6155

> <Gold.PLP.PLP>
-45.4888

> <Gold.PLP.part.hbond>
-2.0000

> <Gold.PLP.part.metal>
0.0000

> <Gold.PLP.part.buried>
-2.3995

> <Gold.PLP.part.nonpolar>
-42.6913

> <Gold.PLP.part.repulsive>
0.2254

> <Gold.PLP.ligand.clash>
0.0000

> <Gold.PLP.ligand.torsion>
0.6332

> <Gold.PLP.Chemscore.Hbond>
1.9120

> <Gold.PLP.Chemscore.CHOScore>
0.8700

> <Gold.PLP.Chemscore.Metal>
0.0000

> <Gold.Chemscore.Hbonds>
donor molecule, donor type, donor heavy atom, donor atom, acceptor molecule, acceptor atom, score
      L1  H    10    33       P1  7957  1.00
      P1  H  7989  7998       L1    10  0.90
      L1  C    13    36       P1  7957  0.67

> <Gold.PLP.Chemscore.Internal.Correction>
0.0470

> <Gold.Rescore>
     Score         DG    S(hbond)    S(metal)    S(lipo)     H(rot)  DE(clash)    DE(int)     intcor
     16.09     -16.97       1.25        0.00     116.93       2.48       0.09       0.79       ----

> <Gold.Chemscore.Fitness>
16.0918

> <Gold.Chemscore.DG>
-16.9723

> <Gold.Chemscore.ZeroCoef>
-5.4800

> <Gold.Chemscore.Hbond>
1.2475

> <Gold.Chemscore.Metal>
0.0000

> <Gold.Chemscore.Lipo>
116.9308

> <Gold.Chemscore.Internal_Hbond>
0.0000

> <Gold.Chemscore.DEClash>
0.0881

> <Gold.Chemscore.DEInternal>
0.7924

> <Gold.Chemscore.Rot>
2.4825

> <Gold.Chemscore.Internal.Correction>
   9.000000E+99

> <Gold.Chemscore.Hbonds>
donor molecule, donor type, donor heavy atom, donor atom, acceptor molecule, acceptor atom, score
      L1  H    10    33       P1  7957  0.98
      P1  H  7989  7998       L1    10  0.19

> <Gold.Chemscore.Hbond.Weighted>
-4.1665

> <Gold.Chemscore.Metal.Weighted>
-0.0000

> <Gold.Chemscore.Lipo.Weighted>
-13.6809

> <Gold.Chemscore.Internal_Hbond.Weighted>
0.0000

> <Gold.Chemscore.DEClash.Weighted>
0.0881

> <Gold.Chemscore.DEInternal.Weighted>
0.7924

> <Gold.Chemscore.Rot.Weighted>
6.3551

> <Gold.Chemscore.Internal.Correction.Weighted>
   9.000000E+99

> <Gold.Protein.RotatedTorsions>
[ 6907 6896 6895 6894 ] final   43.22 input  -60.11 | X-H torsion
[ 7974 7965 7964 7962 ] final  135.98 input  175.53 | X-H torsion
[ 8008 7997 7996 7995 ] final  157.51 input   59.86 | X-H torsion
[ 10167 10162 10161 10158 ] final  -46.57 input  -65.29 | X-H torsion
[ 10718 10713 10712 10709 ] final   55.78 input   66.30 | X-H torsion
[ 10763 10752 10751 10750 ] final  156.37 input  -60.55 | X-H torsion
[ 11005 11000 10999 10996 ] final   39.45 input  -57.11 | X-H torsion

> <Gold.Protein.ActiveResidues>
 VAL166  LYS551  ARG553  GLY616  TRP617  ASP618  TYR619  PRO620  LYS621  CYS622 
 ASP623  PHE694  ASN695  SER759  ASP760  ASP761  ALA762  ILE779  LEU786  VAL792 
 PHE793  MET794  SER795  GLU796  ALA797  LYS798  CYS799  TRP800  GLU811  SER814 

> <Gold.Protein.RotatedAtoms>
  152.2176  134.8443  160.0489 H   0  0  0  0  0  0  0  0  0  0  0  0  # atno 6907 bound_to 6896
  151.9239  133.3588  159.3915 H   0  0  0  0  0  0  0  0  0  0  0  0  # atno 6908 bound_to 6896
  150.6991  134.4532  159.5390 H   0  0  0  0  0  0  0  0  0  0  0  0  # atno 6909 bound_to 6896
  144.9609  139.4711  143.5480 H   0  0  0  0  0  0  0  0  0  0  0  0  # atno 7974 bound_to 7965
  156.2360  140.1883  156.7119 H   0  0  0  0  0  0  0  0  0  0  0  0  # atno 8008 bound_to 7997
  154.6107  140.0622  156.9516 H   0  0  0  0  0  0  0  0  0  0  0  0  # atno 8009 bound_to 7997
  155.2022  140.3293  155.4344 H   0  0  0  0  0  0  0  0  0  0  0  0  # atno 8010 bound_to 7997
  140.6812  143.2824  151.3802 H   0  0  0  0  0  0  0  0  0  0  0  0  # atno 10167 bound_to 10162
  157.5374  130.8673  149.8773 H   0  0  0  0  0  0  0  0  0  0  0  0  # atno 10718 bound_to 10713
  154.1833  135.2798  155.3045 H   0  0  0  0  0  0  0  0  0  0  0  0  # atno 10763 bound_to 10752
  154.5986  135.5537  153.7354 H   0  0  0  0  0  0  0  0  0  0  0  0  # atno 10764 bound_to 10752
  153.0132  135.6386  154.1972 H   0  0  0  0  0  0  0  0  0  0  0  0  # atno 10765 bound_to 10752
  140.2027  134.3851  155.8088 H   0  0  0  0  0  0  0  0  0  0  0  0  # atno 11005 bound_to 11000
  146.3353  139.8759  142.8832 LP  0  0  0  0  0  0  0  0  0  0  0  0  # atno 17320 bound_to 7965
  145.2701  141.0105  143.3777 LP  0  0  0  0  0  0  0  0  0  0  0  0  # atno 17321 bound_to 7965
  139.6136  144.1049  152.2323 LP  0  0  0  0  0  0  0  0  0  0  0  0  # atno 17342 bound_to 10162
  140.0471  144.5962  150.7365 LP  0  0  0  0  0  0  0  0  0  0  0  0  # atno 17343 bound_to 10162
  156.0470  130.3726  150.1294 LP  0  0  0  0  0  0  0  0  0  0  0  0  # atno 17370 bound_to 10713
  156.9476  130.9764  151.3504 LP  0  0  0  0  0  0  0  0  0  0  0  0  # atno 17371 bound_to 10713
  141.2227  133.7102  156.8285 LP  0  0  0  0  0  0  0  0  0  0  0  0  # atno 17394 bound_to 11000
  140.2037  134.8878  157.3197 LP  0  0  0  0  0  0  0  0  0  0  0  0  # atno 17395 bound_to 11000

$$$$
