AV-unprocessed.smi:726|AV-procd|sdf|3511|dock4
  -GOLD-   22720 0513D 1   1.00000     0.00000
 Structure written by MMmdl.
 24 24  0  0  0  0  0  0  0  0  2 V2000
  151.2334  140.4249  157.9902 C   0  0  0  0  0  0  0  0  0  0  0  0
  150.9017  139.8912  156.6011 C   0  0  0  0  0  0  0  0  0  0  0  0
  150.2897  140.6890  155.7067 C   0  0  0  0  0  0  0  0  0  0  0  0
  150.0133  140.2045  154.3799 C   0  0  0  0  0  0  0  0  0  0  0  0
  149.3820  140.9865  153.4952 O   0  0  0  0  0  0  0  0  0  0  0  0
  150.4042  138.9666  154.0341 C   0  0  0  0  0  0  0  0  0  0  0  0
  151.0970  138.0798  154.9709 C   0  0  0  0  0  0  0  0  0  0  0  0
  151.4842  136.9711  154.6026 O   0  0  0  0  0  0  0  0  0  0  0  0
  151.2853  138.5553  156.2507 N   0  0  0  0  0  0  0  0  0  0  0  0
  151.8504  137.6482  157.2967 C   0  0  1  0  0  0  0  0  0  0  0  0
  151.1527  136.2660  157.3600 C   0  0  0  0  0  0  0  0  0  0  0  0
  153.3886  137.5930  157.2562 C   0  0  0  0  0  0  0  0  0  0  0  0
  154.0188  138.6588  157.4337 O   0  0  0  0  0  0  0  0  0  0  0  0
  153.9109  136.4757  157.0484 O   0  5  0  0  0  0  0  0  0  0  0  0
  151.0694  141.5017  158.0419 H   0  0  0  0  0  0  0  0  0  0  0  0
  152.2794  140.2567  158.2462 H   0  0  0  0  0  0  0  0  0  0  0  0
  150.5962  139.9634  158.7451 H   0  0  0  0  0  0  0  0  0  0  0  0
  150.0178  141.6999  155.9740 H   0  0  0  0  0  0  0  0  0  0  0  0
  149.1786  140.4544  152.7413 H   0  0  0  0  0  0  0  0  0  0  0  0
  150.2019  138.6065  153.0355 H   0  0  0  0  0  0  0  0  0  0  0  0
  151.6411  138.0284  158.2913 H   0  0  0  0  0  0  0  0  0  0  0  0
  151.4686  135.7202  158.2497 H   0  0  0  0  0  0  0  0  0  0  0  0
  151.3739  135.6234  156.5091 H   0  0  0  0  0  0  0  0  0  0  0  0
  150.0701  136.3800  157.4205 H   0  0  0  0  0  0  0  0  0  0  0  0
  1  2  1  0  0  0  0
  1 15  1  0  0  0  0
  1 16  1  0  0  0  0
  1 17  1  0  0  0  0
  2  9  1  0  0  0  0
  2  3  2  0  0  0  0
  3  4  1  0  0  0  0
  3 18  1  0  0  0  0
  4  5  1  0  0  0  0
  4  6  2  0  0  0  0
  5 19  1  0  0  0  0
  6  7  1  0  0  0  0
  6 20  1  0  0  0  0
  7  8  2  0  0  0  0
  7  9  1  0  0  0  0
  9 10  1  0  0  0  0
 10 11  1  0  0  0  0
 10 12  1  0  0  0  0
 10 21  1  0  0  0  0
 11 22  1  0  0  0  0
 11 23  1  0  0  0  0
 11 24  1  0  0  0  0
 12 13  2  0  0  0  0
 12 14  1  0  0  0  0
M  CHG  1  14  -1
M  END
> <s_m_source_file>
AV-unprocessed.smi

> <i_m_source_file_index>
726

> <i_lp_mmshare_version>
43012

> <i_f3d_flags>
0

> <s_epik_input>
W0NIM11jMVtjSF1jKFtPSF0pW2NIXWMoPU8pbjFbQ0BIXShbQ0gzXSlDKD1PKVtPSF0=

> <s_epik_cmdline>
J2VwaWtfcHl0aG9uJywgJy1waCcsICc3LjAnLCAnLXRuJywgJzgnLCAnLW1hJywgJzIwMCcsICctbWV0YWxfYmluZGluZycsICctaW1hZScsICc8aW5maWxlLm1hZT4nLCAnLW9tYWUnLCAnPG91dGZpbGUubWFlPic=

> <r_lp_tautomer_probability>
0.999984

> <r_epik_Ionization_Penalty>
0.316948

> <r_epik_Ionization_Penalty_Charging>
0.000813874

> <r_epik_Ionization_Penalty_Neutral>
0.316134

> <r_epik_State_Penalty>
0.363429

> <r_epik_Charging_Adjusted_Penalty>
0.364242

> <i_epik_Tot_Q>
-1

> <i_epik_Tot_abs_Q>
1

> <r_epik_Metal_State_Penalty>
0.363429

> <b_epik_Metal_Only>
0

> <s_lp_Force_Field>
OPLS_2005

> <r_lp_Energy>
20.5014

> <b_lp_Chiralities_Consistent>
1

> <s_lp_Variant>
AV-unprocessed.smi:726-2

> <Gold.Version>
5.8.1

> <Gold.Id.Protein>
6NUR|6NUR_protein|mol2

> <Gold.PLP.Fitness>
38.2320

> <Gold.PLP.PLP>
-20.4950

> <Gold.PLP.part.hbond>
-5.6614

> <Gold.PLP.part.metal>
0.0000

> <Gold.PLP.part.buried>
-0.0669

> <Gold.PLP.part.nonpolar>
-14.6270

> <Gold.PLP.part.repulsive>
0.1590

> <Gold.PLP.ligand.clash>
0.0000

> <Gold.PLP.ligand.torsion>
0.5442

> <Gold.PLP.Chemscore.Hbond>
6.1773

> <Gold.PLP.Chemscore.CHOScore>
0.0000

> <Gold.PLP.Chemscore.Metal>
0.0000

> <Gold.Chemscore.Hbonds>
donor molecule, donor type, donor heavy atom, donor atom, acceptor molecule, acceptor atom, score
      L1  H     5    19       P1  7957  0.91
      P1  H  7997  8008       L1    13  1.84
      P1  H  8011  8017       L1     5  0.45
      P1  H 10752 10764       L1     8  0.98
      P1  H 10752 10765       L1    14  1.95

> <Gold.PLP.Chemscore.Internal.Correction>
0.2936

> <Gold.Rescore>
     Score         DG    S(hbond)    S(metal)    S(lipo)     H(rot)  DE(clash)    DE(int)     intcor
     14.77     -17.36       3.76        0.00      39.15       2.06       0.74       1.86       ----

> <Gold.Chemscore.Fitness>
14.7671

> <Gold.Chemscore.DG>
-17.3616

> <Gold.Chemscore.ZeroCoef>
-5.4800

> <Gold.Chemscore.Hbond>
3.7642

> <Gold.Chemscore.Metal>
0.0000

> <Gold.Chemscore.Lipo>
39.1510

> <Gold.Chemscore.Internal_Hbond>
0.0000

> <Gold.Chemscore.DEClash>
0.7353

> <Gold.Chemscore.DEInternal>
1.8593

> <Gold.Chemscore.Rot>
2.0592

> <Gold.Chemscore.Internal.Correction>
   9.000000E+99

> <Gold.Chemscore.Hbonds>
donor molecule, donor type, donor heavy atom, donor atom, acceptor molecule, acceptor atom, score
      L1  H     5    19       P1  7957  0.90
      P1  H  7997  8008       L1    13  0.83
      P1  H  8011  8017       L1     5  0.02
      P1  H 10752 10764       L1     8  0.87
      P1  H 10752 10765       L1    14  0.87

> <Gold.Chemscore.Hbond.Weighted>
-12.5724

> <Gold.Chemscore.Metal.Weighted>
-0.0000

> <Gold.Chemscore.Lipo.Weighted>
-4.5807

> <Gold.Chemscore.Internal_Hbond.Weighted>
0.0000

> <Gold.Chemscore.DEClash.Weighted>
0.7353

> <Gold.Chemscore.DEInternal.Weighted>
1.8593

> <Gold.Chemscore.Rot.Weighted>
5.2715

> <Gold.Chemscore.Internal.Correction.Weighted>
   9.000000E+99

> <Gold.Protein.RotatedTorsions>
[ 6907 6896 6895 6894 ] final   13.93 input  -60.11 | X-H torsion
[ 7974 7965 7964 7962 ] final  163.72 input  175.53 | X-H torsion
[ 8008 7997 7996 7995 ] final  -86.25 input   59.86 | X-H torsion
[ 10167 10162 10161 10158 ] final   15.76 input  -65.29 | X-H torsion
[ 10718 10713 10712 10709 ] final  167.17 input   66.30 | X-H torsion
[ 10763 10752 10751 10750 ] final  -89.36 input  -60.55 | X-H torsion
[ 11005 11000 10999 10996 ] final -165.87 input  -57.11 | X-H torsion

> <Gold.Protein.ActiveResidues>
 VAL166  LYS551  ARG553  GLY616  TRP617  ASP618  TYR619  PRO620  LYS621  CYS622 
 ASP623  PHE694  ASN695  SER759  ASP760  ASP761  ALA762  ILE779  LEU786  VAL792 
 PHE793  MET794  SER795  GLU796  ALA797  LYS798  CYS799  TRP800  GLU811  SER814 

> <Gold.Protein.RotatedAtoms>
  151.7941  135.0727  160.0391 H   0  0  0  0  0  0  0  0  0  0  0  0  # atno 6907 bound_to 6896
  152.3136  133.5774  159.5705 H   0  0  0  0  0  0  0  0  0  0  0  0  # atno 6908 bound_to 6896
  150.7332  134.0032  159.3687 H   0  0  0  0  0  0  0  0  0  0  0  0  # atno 6909 bound_to 6896
  144.7577  139.8223  143.6344 H   0  0  0  0  0  0  0  0  0  0  0  0  # atno 7974 bound_to 7965
  154.6498  140.0581  156.9943 H   0  0  0  0  0  0  0  0  0  0  0  0  # atno 8008 bound_to 7997
  155.1388  140.3263  155.4438 H   0  0  0  0  0  0  0  0  0  0  0  0  # atno 8009 bound_to 7997
  156.2571  140.1967  156.6505 H   0  0  0  0  0  0  0  0  0  0  0  0  # atno 8010 bound_to 7997
  140.5845  143.8917  150.6818 H   0  0  0  0  0  0  0  0  0  0  0  0  # atno 10167 bound_to 10162
  157.0554  131.0325  151.2666 H   0  0  0  0  0  0  0  0  0  0  0  0  # atno 10718 bound_to 10713
  154.6544  135.5344  153.7941 H   0  0  0  0  0  0  0  0  0  0  0  0  # atno 10763 bound_to 10752
  153.0405  135.6490  154.0968 H   0  0  0  0  0  0  0  0  0  0  0  0  # atno 10764 bound_to 10752
  154.0882  135.2942  155.3257 H   0  0  0  0  0  0  0  0  0  0  0  0  # atno 10765 bound_to 10752
  140.5708  134.5239  157.5161 H   0  0  0  0  0  0  0  0  0  0  0  0  # atno 11005 bound_to 11000
  146.1606  139.4719  142.9991 LP  0  0  0  0  0  0  0  0  0  0  0  0  # atno 17320 bound_to 7965
  145.6724  141.0213  143.1651 LP  0  0  0  0  0  0  0  0  0  0  0  0  # atno 17321 bound_to 7965
  140.2425  143.3653  152.1475 LP  0  0  0  0  0  0  0  0  0  0  0  0  # atno 17342 bound_to 10162
  139.5189  144.7012  151.5487 LP  0  0  0  0  0  0  0  0  0  0  0  0  # atno 17343 bound_to 10162
  157.4997  130.7872  149.7592 LP  0  0  0  0  0  0  0  0  0  0  0  0  # atno 17370 bound_to 10713
  155.9995  130.3888  150.2663 LP  0  0  0  0  0  0  0  0  0  0  0  0  # atno 17371 bound_to 10713
  139.9362  134.7870  156.0796 LP  0  0  0  0  0  0  0  0  0  0  0  0  # atno 17394 bound_to 11000
  141.1057  133.6661  156.2858 LP  0  0  0  0  0  0  0  0  0  0  0  0  # atno 17395 bound_to 11000

$$$$
