AV-unprocessed.smi:2154|AV-procd|sdf|8772|dock4
  -GOLD-   2272011553D 1   1.00000     0.00000
 Structure written by MMmdl.
 32 33  0  0  0  0  0  0  0  0  1 V2000
  153.0824  143.1329  159.3702 C   0  0  0  0  0  0  0  0  0  0  0  0
  152.4801  144.5105  159.1772 C   0  0  2  0  0  0  0  0  0  0  0  0
  151.5528  145.0993  160.2151 C   0  0  0  0  0  0  0  0  0  0  0  0
  151.0135  144.7203  158.8552 C   0  0  2  0  0  0  0  0  0  0  0  0
  150.0471  143.5589  158.6936 C   0  0  0  0  0  0  0  0  0  0  0  0
  149.9517  143.0272  157.3405 N   0  0  0  0  0  0  0  0  0  0  0  0
  150.3366  141.7980  156.9662 C   0  0  0  0  0  0  0  0  0  0  0  0
  150.7946  140.9666  157.7513 O   0  0  0  0  0  0  0  0  0  0  0  0
  150.1541  141.4551  155.4809 C   0  0  0  0  0  0  0  0  0  0  0  0
  150.3780  140.0314  155.1901 N   0  0  0  0  0  0  0  0  0  0  0  0
  151.5398  139.4026  155.6148 C   0  0  0  0  0  0  0  0  0  0  0  0
  151.8116  138.0979  155.3751 C   0  0  0  0  0  0  0  0  0  0  0  0
  150.8648  137.2698  154.6357 C   0  0  0  0  0  0  0  0  0  0  0  0
  151.0197  136.0796  154.3707 O   0  0  0  0  0  0  0  0  0  0  0  0
  149.7099  137.9393  154.2226 N   0  0  0  0  0  0  0  0  0  0  0  0
  149.4244  139.2837  154.4651 C   0  0  0  0  0  0  0  0  0  0  0  0
  148.3753  139.7770  154.0528 O   0  0  0  0  0  0  0  0  0  0  0  0
  149.0258  137.4071  153.7047 H   0  0  0  0  0  0  0  0  0  0  0  0
  152.4251  142.4904  159.9555 H   0  0  0  0  0  0  0  0  0  0  0  0
  154.0341  143.2145  159.8950 H   0  0  0  0  0  0  0  0  0  0  0  0
  153.2597  142.6633  158.4025 H   0  0  0  0  0  0  0  0  0  0  0  0
  153.1621  145.2095  158.6969 H   0  0  0  0  0  0  0  0  0  0  0  0
  151.2769  144.4736  161.0619 H   0  0  0  0  0  0  0  0  0  0  0  0
  151.6537  146.1600  160.4360 H   0  0  0  0  0  0  0  0  0  0  0  0
  150.8167  145.5429  158.1699 H   0  0  0  0  0  0  0  0  0  0  0  0
  150.3399  142.7626  159.3798 H   0  0  0  0  0  0  0  0  0  0  0  0
  149.0475  143.8707  158.9948 H   0  0  0  0  0  0  0  0  0  0  0  0
  149.5810  143.6448  156.6329 H   0  0  0  0  0  0  0  0  0  0  0  0
  149.1448  141.7482  155.1885 H   0  0  0  0  0  0  0  0  0  0  0  0
  150.8200  142.0696  154.8712 H   0  0  0  0  0  0  0  0  0  0  0  0
  152.2720  139.9784  156.1631 H   0  0  0  0  0  0  0  0  0  0  0  0
  152.7349  137.6646  155.7316 H   0  0  0  0  0  0  0  0  0  0  0  0
  1  2  1  0  0  0  0
  1 19  1  0  0  0  0
  1 20  1  0  0  0  0
  1 21  1  0  0  0  0
  2  4  1  0  0  0  0
  2  3  1  0  0  0  0
  2 22  1  0  0  0  0
  3  4  1  0  0  0  0
  3 23  1  0  0  0  0
  3 24  1  0  0  0  0
  4  5  1  0  0  0  0
  4 25  1  0  0  0  0
  5  6  1  0  0  0  0
  5 26  1  0  0  0  0
  5 27  1  0  0  0  0
  6  7  1  0  0  0  0
  6 28  1  0  0  0  0
  7  8  2  0  0  0  0
  7  9  1  0  0  0  0
  9 10  1  0  0  0  0
  9 29  1  0  0  0  0
  9 30  1  0  0  0  0
 10 16  1  0  0  0  0
 10 11  1  0  0  0  0
 11 12  2  0  0  0  0
 11 31  1  0  0  0  0
 12 13  1  0  0  0  0
 12 32  1  0  0  0  0
 13 14  2  0  0  0  0
 13 15  1  0  0  0  0
 15 18  1  0  0  0  0
 15 16  1  0  0  0  0
 16 17  2  0  0  0  0
M  END
> <s_m_source_file>
AV-unprocessed.smi

> <i_m_source_file_index>
2154

> <i_lp_mmshare_version>
43012

> <i_f3d_flags>
0

> <s_epik_input>
W0NIM11bQ0BASF0xW0NIMl1bQ0BIXTFbQ0gyXVtOSF1DKD1PKVtDSDJdbjJbY0hdW2NIXWMoPU8pW25IXWMyPU8=

> <s_epik_cmdline>
J2VwaWtfcHl0aG9uJywgJy1waCcsICc3LjAnLCAnLXRuJywgJzgnLCAnLW1hJywgJzIwMCcsICctbWV0YWxfYmluZGluZycsICctaW1hZScsICc8aW5maWxlLm1hZT4nLCAnLW9tYWUnLCAnPG91dGZpbGUubWFlPic=

> <r_lp_tautomer_probability>
0.999537

> <r_epik_Ionization_Penalty>
0.00305319

> <r_epik_Ionization_Penalty_Charging>
0.00305317

> <r_epik_Ionization_Penalty_Neutral>
2.06703e-08

> <r_epik_State_Penalty>
0.00214626

> <r_epik_Charging_Adjusted_Penalty>
0.00519944

> <i_epik_Tot_Q>
0

> <i_epik_Tot_abs_Q>
0

> <r_epik_Metal_State_Penalty>
0.361976

> <b_epik_Metal_Only>
0

> <s_lp_Force_Field>
OPLS_2005

> <r_lp_Energy>
15.9584

> <b_lp_Chiralities_Consistent>
1

> <s_lp_Variant>
AV-unprocessed.smi:2154-3

> <Gold.Version>
5.8.1

> <Gold.Id.Protein>
6NUR|6NUR_protein|mol2

> <Gold.PLP.Fitness>
45.2949

> <Gold.PLP.PLP>
-38.3408

> <Gold.PLP.part.hbond>
-3.0000

> <Gold.PLP.part.metal>
0.0000

> <Gold.PLP.part.buried>
-5.0835

> <Gold.PLP.part.nonpolar>
-33.3322

> <Gold.PLP.part.repulsive>
1.7837

> <Gold.PLP.ligand.clash>
0.0000

> <Gold.PLP.ligand.torsion>
0.4311

> <Gold.PLP.Chemscore.Hbond>
2.4277

> <Gold.PLP.Chemscore.CHOScore>
0.0000

> <Gold.PLP.Chemscore.Metal>
0.0000

> <Gold.Chemscore.Hbonds>
donor molecule, donor type, donor heavy atom, donor atom, acceptor molecule, acceptor atom, score
      L1  H     6    28       P1  8028  1.00
      L1  H    15    18       P1  7948  0.47
      P1  H 10752 10764       L1    14  1.00

> <Gold.PLP.Chemscore.Internal.Correction>
0.5332

> <Gold.Rescore>
     Score         DG    S(hbond)    S(metal)    S(lipo)     H(rot)  DE(clash)    DE(int)     intcor
     15.38     -18.35       2.69        0.00      77.02       2.01       0.59       2.38       ----

> <Gold.Chemscore.Fitness>
15.3782

> <Gold.Chemscore.DG>
-18.3529

> <Gold.Chemscore.ZeroCoef>
-5.4800

> <Gold.Chemscore.Hbond>
2.6941

> <Gold.Chemscore.Metal>
0.0000

> <Gold.Chemscore.Lipo>
77.0207

> <Gold.Chemscore.Internal_Hbond>
0.0000

> <Gold.Chemscore.DEClash>
0.5933

> <Gold.Chemscore.DEInternal>
2.3815

> <Gold.Chemscore.Rot>
2.0065

> <Gold.Chemscore.Internal.Correction>
   9.000000E+99

> <Gold.Chemscore.Hbonds>
donor molecule, donor type, donor heavy atom, donor atom, acceptor molecule, acceptor atom, score
      L1  H     6    28       P1  8028  0.98
      L1  H    15    18       P1  7948  0.46
      P1  H 10752 10764       L1    14  0.78

> <Gold.Chemscore.Hbond.Weighted>
-8.9981

> <Gold.Chemscore.Metal.Weighted>
-0.0000

> <Gold.Chemscore.Lipo.Weighted>
-9.0114

> <Gold.Chemscore.Internal_Hbond.Weighted>
0.0000

> <Gold.Chemscore.DEClash.Weighted>
0.5933

> <Gold.Chemscore.DEInternal.Weighted>
2.3815

> <Gold.Chemscore.Rot.Weighted>
5.1366

> <Gold.Chemscore.Internal.Correction.Weighted>
   9.000000E+99

> <Gold.Protein.RotatedTorsions>
[ 6907 6896 6895 6894 ] final -165.65 input  -60.11 | X-H torsion
[ 7974 7965 7964 7962 ] final   12.46 input  175.53 | X-H torsion
[ 8008 7997 7996 7995 ] final  -70.52 input   59.86 | X-H torsion
[ 10167 10162 10161 10158 ] final  -26.49 input  -65.29 | X-H torsion
[ 10718 10713 10712 10709 ] final  -79.09 input   66.30 | X-H torsion
[ 10763 10752 10751 10750 ] final  -71.55 input  -60.55 | X-H torsion
[ 11005 11000 10999 10996 ] final  142.27 input  -57.11 | X-H torsion

> <Gold.Protein.ActiveResidues>
 VAL166  LYS551  ARG553  GLY616  TRP617  ASP618  TYR619  PRO620  LYS621  CYS622 
 ASP623  PHE694  ASN695  SER759  ASP760  ASP761  ALA762  ILE779  LEU786  VAL792 
 PHE793  MET794  SER795  GLU796  ALA797  LYS798  CYS799  TRP800  GLU811  SER814 

> <Gold.Protein.RotatedAtoms>
  151.4311  133.3670  159.2768 H   0  0  0  0  0  0  0  0  0  0  0  0  # atno 6907 bound_to 6896
  150.9224  134.8643  159.7508 H   0  0  0  0  0  0  0  0  0  0  0  0  # atno 6908 bound_to 6896
  152.4988  134.4250  159.9545 H   0  0  0  0  0  0  0  0  0  0  0  0  # atno 6909 bound_to 6896
  146.2351  139.9333  142.8493 H   0  0  0  0  0  0  0  0  0  0  0  0  # atno 7974 bound_to 7965
  154.5018  140.0833  156.7814 H   0  0  0  0  0  0  0  0  0  0  0  0  # atno 8008 bound_to 7997
  155.3984  140.3436  155.4237 H   0  0  0  0  0  0  0  0  0  0  0  0  # atno 8009 bound_to 7997
  156.1466  140.1545  156.8824 H   0  0  0  0  0  0  0  0  0  0  0  0  # atno 8010 bound_to 7997
  140.7282  143.4174  151.1006 H   0  0  0  0  0  0  0  0  0  0  0  0  # atno 10167 bound_to 10162
  156.0101  130.4536  150.3595 H   0  0  0  0  0  0  0  0  0  0  0  0  # atno 10718 bound_to 10713
  154.4333  135.5958  153.6082 H   0  0  0  0  0  0  0  0  0  0  0  0  # atno 10763 bound_to 10752
  152.9800  135.5980  154.3812 H   0  0  0  0  0  0  0  0  0  0  0  0  # atno 10764 bound_to 10752
  154.3653  135.2841  155.2275 H   0  0  0  0  0  0  0  0  0  0  0  0  # atno 10765 bound_to 10752
  140.0464  134.9278  157.0938 H   0  0  0  0  0  0  0  0  0  0  0  0  # atno 11005 bound_to 11000
  145.2023  140.9860  143.4148 LP  0  0  0  0  0  0  0  0  0  0  0  0  # atno 17320 bound_to 7965
  144.9763  139.3829  143.6284 LP  0  0  0  0  0  0  0  0  0  0  0  0  # atno 17321 bound_to 7965
  139.7815  143.8348  152.3138 LP  0  0  0  0  0  0  0  0  0  0  0  0  # atno 17342 bound_to 10162
  139.8301  144.7257  150.9461 LP  0  0  0  0  0  0  0  0  0  0  0  0  # atno 17343 bound_to 10162
  157.1685  131.0363  151.2807 LP  0  0  0  0  0  0  0  0  0  0  0  0  # atno 17370 bound_to 10713
  157.4250  130.7458  149.6943 LP  0  0  0  0  0  0  0  0  0  0  0  0  # atno 17371 bound_to 10713
  140.3986  134.2107  155.7164 LP  0  0  0  0  0  0  0  0  0  0  0  0  # atno 17394 bound_to 11000
  141.1909  133.8207  157.0900 LP  0  0  0  0  0  0  0  0  0  0  0  0  # atno 17395 bound_to 11000

$$$$
