AV-unprocessed.smi:1285|AV-procd|sdf|5372|dock1
  -GOLD-   22720 4513D 1   1.00000     0.00000
 Structure written by MMmdl.
 47 48  0  0  0  0  0  0  0  0  2 V2000
  149.6122  133.1369  154.8814 C   0  0  0  0  0  0  0  0  0  0  0  0
  149.9595  134.5909  154.5145 C   0  0  0  0  0  0  0  0  0  0  0  0
  149.1457  135.6891  155.2671 C   0  0  2  0  0  0  0  0  0  0  0  0
  149.4631  135.5378  156.7789 C   0  0  0  0  0  0  0  0  0  0  0  0
  147.6214  135.4518  155.0256 C   0  0  0  0  0  0  0  0  0  0  0  0
  147.2676  135.3941  153.6093 N   0  0  0  0  0  0  0  0  0  0  0  0
  146.1482  134.8583  153.0973 C   0  0  0  0  0  0  0  0  0  0  0  0
  145.2309  134.4197  153.7919 O   0  0  0  0  0  0  0  0  0  0  0  0
  146.0880  134.7771  151.5647 C   0  0  2  0  0  0  0  0  0  0  0  0
  144.9401  135.6081  150.9601 C   0  0  0  0  0  0  0  0  0  0  0  0
  146.0078  133.3808  151.1560 N   0  0  0  0  0  0  0  0  0  0  0  0
  146.0297  132.2551  151.8751 C   0  0  0  0  0  0  0  0  0  0  0  0
  145.9976  131.1497  151.1442 N   0  0  0  0  0  0  0  0  0  0  0  0
  145.9569  131.7027  149.8959 C   0  0  0  0  0  0  0  0  0  0  0  0
  145.9726  133.0347  149.8463 N   0  0  0  0  0  0  0  0  0  0  0  0
  149.5533  137.0608  154.7893 N   0  3  0  0  0  0  0  0  0  0  0  0
  148.6901  138.1898  155.2387 C   0  0  0  0  0  0  0  0  0  0  0  0
  149.0862  139.4890  154.5190 C   0  0  0  0  0  0  0  0  0  0  0  0
  150.4529  139.7769  154.7772 O   0  0  0  0  0  0  0  0  0  0  0  0
  151.3071  138.7542  154.2848 C   0  0  0  0  0  0  0  0  0  0  0  0
  150.9860  137.4231  154.9852 C   0  0  0  0  0  0  0  0  0  0  0  0
  150.2308  132.4436  154.3112 H   0  0  0  0  0  0  0  0  0  0  0  0
  148.5728  132.8992  154.6565 H   0  0  0  0  0  0  0  0  0  0  0  0
  149.7849  132.9306  155.9376 H   0  0  0  0  0  0  0  0  0  0  0  0
  151.0290  134.7443  154.6549 H   0  0  0  0  0  0  0  0  0  0  0  0
  149.8118  134.6987  153.4392 H   0  0  0  0  0  0  0  0  0  0  0  0
  149.4152  134.4972  157.1008 H   0  0  0  0  0  0  0  0  0  0  0  0
  148.7549  136.0839  157.4025 H   0  0  0  0  0  0  0  0  0  0  0  0
  150.4624  135.8998  157.0218 H   0  0  0  0  0  0  0  0  0  0  0  0
  147.2792  134.5482  155.5306 H   0  0  0  0  0  0  0  0  0  0  0  0
  147.0354  136.2677  155.4471 H   0  0  0  0  0  0  0  0  0  0  0  0
  147.9612  135.7319  152.9572 H   0  0  0  0  0  0  0  0  0  0  0  0
  147.0241  135.1870  151.1806 H   0  0  0  0  0  0  0  0  0  0  0  0
  145.0280  136.6597  151.2362 H   0  0  0  0  0  0  0  0  0  0  0  0
  143.9623  135.2578  151.2934 H   0  0  0  0  0  0  0  0  0  0  0  0
  144.9547  135.5557  149.8711 H   0  0  0  0  0  0  0  0  0  0  0  0
  146.0833  132.2438  152.9539 H   0  0  0  0  0  0  0  0  0  0  0  0
  145.9235  131.1056  148.9962 H   0  0  0  0  0  0  0  0  0  0  0  0
  147.6392  137.9982  155.0325 H   0  0  0  0  0  0  0  0  0  0  0  0
  148.7867  138.3363  156.3147 H   0  0  0  0  0  0  0  0  0  0  0  0
  148.9112  139.4095  153.4448 H   0  0  0  0  0  0  0  0  0  0  0  0
  148.4781  140.3185  154.8801 H   0  0  0  0  0  0  0  0  0  0  0  0
  151.1985  138.6614  153.2029 H   0  0  0  0  0  0  0  0  0  0  0  0
  152.3422  139.0379  154.4760 H   0  0  0  0  0  0  0  0  0  0  0  0
  151.2125  137.5081  156.0481 H   0  0  0  0  0  0  0  0  0  0  0  0
  151.6535  136.6685  154.5739 H   0  0  0  0  0  0  0  0  0  0  0  0
  149.4321  137.0205  153.7872 H   0  0  0  0  0  0  0  0  0  0  0  0
  1  2  1  0  0  0  0
  1 22  1  0  0  0  0
  1 23  1  0  0  0  0
  1 24  1  0  0  0  0
  2  3  1  0  0  0  0
  2 25  1  0  0  0  0
  2 26  1  0  0  0  0
  3  4  1  0  0  0  0
  3  5  1  0  0  0  0
  3 16  1  0  0  0  0
  4 27  1  0  0  0  0
  4 28  1  0  0  0  0
  4 29  1  0  0  0  0
  5  6  1  0  0  0  0
  5 30  1  0  0  0  0
  5 31  1  0  0  0  0
  6  7  1  0  0  0  0
  6 32  1  0  0  0  0
  7  8  2  0  0  0  0
  7  9  1  0  0  0  0
  9 10  1  0  0  0  0
  9 11  1  0  0  0  0
  9 33  1  0  0  0  0
 10 34  1  0  0  0  0
 10 35  1  0  0  0  0
 10 36  1  0  0  0  0
 11 15  1  0  0  0  0
 11 12  1  0  0  0  0
 12 13  2  0  0  0  0
 12 37  1  0  0  0  0
 13 14  1  0  0  0  0
 14 15  2  0  0  0  0
 14 38  1  0  0  0  0
 16 21  1  0  0  0  0
 16 17  1  0  0  0  0
 16 47  1  0  0  0  0
 17 18  1  0  0  0  0
 17 39  1  0  0  0  0
 17 40  1  0  0  0  0
 18 19  1  0  0  0  0
 18 41  1  0  0  0  0
 18 42  1  0  0  0  0
 19 20  1  0  0  0  0
 20 21  1  0  0  0  0
 20 43  1  0  0  0  0
 20 44  1  0  0  0  0
 21 45  1  0  0  0  0
 21 46  1  0  0  0  0
M  CHG  1  16   1
M  END
> <s_m_source_file>
AV-unprocessed.smi

> <i_m_source_file_index>
1285

> <i_lp_mmshare_version>
43012

> <i_f3d_flags>
0

> <s_epik_input>
W0NIMl0xW0NIMl1PW0NIMl1bQ0gyXU4xW0NAQF0oW0NIM10pKFtDSDJdW0NIM10pW0NIMl1bTkhdQyg9TylbQ0BIXShbQ0gzXSluMltjSF1uW2NIXW4y

> <s_epik_cmdline>
J2VwaWtfcHl0aG9uJywgJy1waCcsICc3LjAnLCAnLXRuJywgJzgnLCAnLW1hJywgJzIwMCcsICctbWV0YWxfYmluZGluZycsICctaW1hZScsICc8aW5maWxlLm1hZT4nLCAnLW9tYWUnLCAnPG91dGZpbGUubWFlPic=

> <r_lp_tautomer_probability>
1

> <r_epik_Ionization_Penalty>
0.569304

> <r_epik_Ionization_Penalty_Charging>
0.569295

> <r_epik_Ionization_Penalty_Neutral>
8.22697e-06

> <r_epik_State_Penalty>
0.581114

> <r_epik_Charging_Adjusted_Penalty>
1.15041

> <i_epik_Tot_Q>
1

> <i_epik_Tot_abs_Q>
1

> <r_epik_Metal_State_Penalty>
0.581117

> <b_epik_Metal_Only>
0

> <s_lp_Force_Field>
OPLS_2005

> <r_lp_Energy>
32.2271

> <b_lp_Chiralities_Consistent>
1

> <s_lp_Variant>
AV-unprocessed.smi:1285-6

> <Gold.Version>
5.8.1

> <Gold.Id.Protein>
6NUR|6NUR_protein|mol2

> <Gold.PLP.Fitness>
42.2751

> <Gold.PLP.PLP>
-30.5462

> <Gold.PLP.part.hbond>
-3.0000

> <Gold.PLP.part.metal>
0.0000

> <Gold.PLP.part.buried>
-5.4422

> <Gold.PLP.part.nonpolar>
-23.7153

> <Gold.PLP.part.repulsive>
1.4715

> <Gold.PLP.ligand.clash>
0.0000

> <Gold.PLP.ligand.torsion>
0.3406

> <Gold.PLP.Chemscore.Hbond>
4.0000

> <Gold.PLP.Chemscore.CHOScore>
0.0000

> <Gold.PLP.Chemscore.Metal>
0.0000

> <Gold.Chemscore.Hbonds>
donor molecule, donor type, donor heavy atom, donor atom, acceptor molecule, acceptor atom, score
      L1  H     6    32       P1  7948  1.00
      L1  H    16    47       P1  7948  1.59

> <Gold.PLP.Chemscore.Internal.Correction>
0.4101

> <Gold.Rescore>
     Score         DG    S(hbond)    S(metal)    S(lipo)     H(rot)  DE(clash)    DE(int)     intcor
     11.74     -13.62       2.60        0.00      55.70       2.76       1.32       0.56       ----

> <Gold.Chemscore.Fitness>
11.7370

> <Gold.Chemscore.DG>
-13.6193

> <Gold.Chemscore.ZeroCoef>
-5.4800

> <Gold.Chemscore.Hbond>
2.6004

> <Gold.Chemscore.Metal>
0.0000

> <Gold.Chemscore.Lipo>
55.6990

> <Gold.Chemscore.Internal_Hbond>
0.0000

> <Gold.Chemscore.DEClash>
1.3214

> <Gold.Chemscore.DEInternal>
0.5610

> <Gold.Chemscore.Rot>
2.7589

> <Gold.Chemscore.Internal.Correction>
   9.000000E+99

> <Gold.Chemscore.Hbonds>
donor molecule, donor type, donor heavy atom, donor atom, acceptor molecule, acceptor atom, score
      L1  H     6    32       P1  7948  0.95
      L1  H    16    47       P1  7948  0.74

> <Gold.Chemscore.Hbond.Weighted>
-8.6852

> <Gold.Chemscore.Metal.Weighted>
-0.0000

> <Gold.Chemscore.Lipo.Weighted>
-6.5168

> <Gold.Chemscore.Internal_Hbond.Weighted>
0.0000

> <Gold.Chemscore.DEClash.Weighted>
1.3214

> <Gold.Chemscore.DEInternal.Weighted>
0.5610

> <Gold.Chemscore.Rot.Weighted>
7.0627

> <Gold.Chemscore.Internal.Correction.Weighted>
   9.000000E+99

> <Gold.Protein.RotatedTorsions>
[ 6907 6896 6895 6894 ] final  -27.94 input  -60.11 | X-H torsion
[ 7974 7965 7964 7962 ] final  -95.43 input  175.53 | X-H torsion
[ 8008 7997 7996 7995 ] final  170.93 input   59.86 | X-H torsion
[ 10167 10162 10161 10158 ] final   27.76 input  -65.29 | X-H torsion
[ 10718 10713 10712 10709 ] final   38.60 input   66.30 | X-H torsion
[ 10763 10752 10751 10750 ] final  178.56 input  -60.55 | X-H torsion
[ 11005 11000 10999 10996 ] final -142.50 input  -57.11 | X-H torsion

> <Gold.Protein.ActiveResidues>
 VAL166  LYS551  ARG553  GLY616  TRP617  ASP618  TYR619  PRO620  LYS621  CYS622 
 ASP623  PHE694  ASN695  SER759  ASP760  ASP761  ALA762  ILE779  LEU786  VAL792 
 PHE793  MET794  SER795  GLU796  ALA797  LYS798  CYS799  TRP800  GLU811  SER814 

> <Gold.Protein.RotatedAtoms>
  151.1399  135.0174  159.8620 H   0  0  0  0  0  0  0  0  0  0  0  0  # atno 6907 bound_to 6896
  152.5452  134.1511  159.8529 H   0  0  0  0  0  0  0  0  0  0  0  0  # atno 6908 bound_to 6896
  151.1586  133.4815  159.2627 H   0  0  0  0  0  0  0  0  0  0  0  0  # atno 6909 bound_to 6896
  145.3602  140.9490  143.2505 H   0  0  0  0  0  0  0  0  0  0  0  0  # atno 7974 bound_to 7965
  156.1319  140.1525  156.9052 H   0  0  0  0  0  0  0  0  0  0  0  0  # atno 8008 bound_to 7997
  154.4916  140.0850  156.7646 H   0  0  0  0  0  0  0  0  0  0  0  0  # atno 8009 bound_to 7997
  155.4240  140.3424  155.4276 H   0  0  0  0  0  0  0  0  0  0  0  0  # atno 8010 bound_to 7997
  140.4910  144.0466  150.6297 H   0  0  0  0  0  0  0  0  0  0  0  0  # atno 10167 bound_to 10162
  157.3607  130.7648  149.7046 H   0  0  0  0  0  0  0  0  0  0  0  0  # atno 10718 bound_to 10713
  154.5092  135.2787  155.1357 H   0  0  0  0  0  0  0  0  0  0  0  0  # atno 10763 bound_to 10752
  154.2959  135.6258  153.5408 H   0  0  0  0  0  0  0  0  0  0  0  0  # atno 10764 bound_to 10752
  152.9915  135.5685  154.5553 H   0  0  0  0  0  0  0  0  0  0  0  0  # atno 10765 bound_to 10752
  140.8219  134.2621  157.4896 H   0  0  0  0  0  0  0  0  0  0  0  0  # atno 11005 bound_to 11000
  144.8652  139.5118  143.6793 LP  0  0  0  0  0  0  0  0  0  0  0  0  # atno 17320 bound_to 7965
  146.2931  139.7196  142.9147 LP  0  0  0  0  0  0  0  0  0  0  0  0  # atno 17321 bound_to 7965
  140.3735  143.2841  152.0251 LP  0  0  0  0  0  0  0  0  0  0  0  0  # atno 17342 bound_to 10162
  139.4851  144.6211  151.7253 LP  0  0  0  0  0  0  0  0  0  0  0  0  # atno 17343 bound_to 10162
  155.9737  130.4114  150.3981 LP  0  0  0  0  0  0  0  0  0  0  0  0  # atno 17370 bound_to 10713
  157.2058  131.0449  151.2626 LP  0  0  0  0  0  0  0  0  0  0  0  0  # atno 17371 bound_to 10713
  139.8708  134.9540  156.4162 LP  0  0  0  0  0  0  0  0  0  0  0  0  # atno 17394 bound_to 11000
  140.9090  133.7725  155.9769 LP  0  0  0  0  0  0  0  0  0  0  0  0  # atno 17395 bound_to 11000

$$$$
