AV-unprocessed.smi:113|AV-procd|sdf|1103|dock8
  -GOLD-   2262018213D 1   1.00000     0.00000
 Structure written by MMmdl.
 53 56  0  0  0  0  0  0  0  0  2 V2000
  145.2187  134.3395  152.0533 C   0  0  0  0  0  0  0  0  0  0  0  0
  146.2825  133.3949  152.5711 C   0  0  0  0  0  0  0  0  0  0  0  0
  147.4224  133.8506  153.2615 C   0  0  0  0  0  0  0  0  0  0  0  0
  148.3876  132.9219  153.7241 C   0  0  0  0  0  0  0  0  0  0  0  0
  149.6400  133.3887  154.4736 C   0  0  0  0  0  0  0  0  0  0  0  0
  149.4536  134.4022  155.5025 N   0  0  0  0  0  0  0  0  0  0  0  0
  148.5711  134.1039  156.5691 C   0  0  0  0  0  0  0  0  0  0  0  0
  147.9790  133.0243  156.6320 O   0  0  0  0  0  0  0  0  0  0  0  0
  148.4436  135.1531  157.5832 C   0  0  0  0  0  0  0  0  0  0  0  0
  147.5196  134.9003  158.7640 C   0  0  0  0  0  0  0  0  0  0  0  0
  149.1466  136.3038  157.4522 C   0  0  0  0  0  0  0  0  0  0  0  0
  149.9975  136.5737  156.3947 N   0  0  0  0  0  0  0  0  0  0  0  0
  150.7780  137.8704  156.3769 C   0  0  2  0  0  0  0  0  0  0  0  0
  150.6579  138.6779  157.6806 C   0  0  0  0  0  0  0  0  0  0  0  0
  150.0603  139.9981  157.2155 C   0  0  1  0  0  0  0  0  0  0  0  0
  150.6390  141.0819  157.9135 O   0  0  0  0  0  0  0  0  0  0  0  0
  150.3929  140.0270  155.7195 C   0  0  2  0  0  0  0  0  0  0  0  0
  149.4296  140.8627  154.8626 C   0  0  0  0  0  0  0  0  0  0  0  0
  149.8033  140.8109  153.5021 O   0  0  0  0  0  0  0  0  0  0  0  0
  150.2956  138.6622  155.3368 O   0  0  0  0  0  0  0  0  0  0  0  0
  150.2000  135.5970  155.3953 C   0  0  0  0  0  0  0  0  0  0  0  0
  151.0078  135.7745  154.4811 O   0  0  0  0  0  0  0  0  0  0  0  0
  148.1657  131.5393  153.4760 C   0  0  0  0  0  0  0  0  0  0  0  0
  149.0721  130.5406  153.9060 C   0  0  0  0  0  0  0  0  0  0  0  0
  148.8180  129.1807  153.6390 C   0  0  0  0  0  0  0  0  0  0  0  0
  147.6573  128.7992  152.9408 C   0  0  0  0  0  0  0  0  0  0  0  0
  146.7450  129.7786  152.5067 C   0  0  0  0  0  0  0  0  0  0  0  0
  146.9969  131.1393  152.7732 C   0  0  0  0  0  0  0  0  0  0  0  0
  146.1169  132.0741  152.3564 N   0  3  0  0  0  0  0  0  0  0  0  0
  145.5035  135.3795  152.2149 H   0  0  0  0  0  0  0  0  0  0  0  0
  144.2726  134.1615  152.5651 H   0  0  0  0  0  0  0  0  0  0  0  0
  145.0656  134.1915  150.9839 H   0  0  0  0  0  0  0  0  0  0  0  0
  147.5423  134.9109  153.4276 H   0  0  0  0  0  0  0  0  0  0  0  0
  150.1377  132.5366  154.9391 H   0  0  0  0  0  0  0  0  0  0  0  0
  150.3772  133.7782  153.7698 H   0  0  0  0  0  0  0  0  0  0  0  0
  147.4874  135.7517  159.4441 H   0  0  0  0  0  0  0  0  0  0  0  0
  147.8558  134.0321  159.3319 H   0  0  0  0  0  0  0  0  0  0  0  0
  146.5023  134.7115  158.4188 H   0  0  0  0  0  0  0  0  0  0  0  0
  149.0331  137.0537  158.2222 H   0  0  0  0  0  0  0  0  0  0  0  0
  151.8139  137.6021  156.1669 H   0  0  0  0  0  0  0  0  0  0  0  0
  150.0474  138.1747  158.4310 H   0  0  0  0  0  0  0  0  0  0  0  0
  151.6613  138.8082  158.0888 H   0  0  0  0  0  0  0  0  0  0  0  0
  148.9812  139.9954  157.3696 H   0  0  0  0  0  0  0  0  0  0  0  0
  150.6241  140.8837  158.8380 H   0  0  0  0  0  0  0  0  0  0  0  0
  151.4260  140.3429  155.5610 H   0  0  0  0  0  0  0  0  0  0  0  0
  148.4156  140.4727  154.9532 H   0  0  0  0  0  0  0  0  0  0  0  0
  149.4066  141.9000  155.1982 H   0  0  0  0  0  0  0  0  0  0  0  0
  149.2198  140.2184  153.0525 H   0  0  0  0  0  0  0  0  0  0  0  0
  149.9724  130.7942  154.4448 H   0  0  0  0  0  0  0  0  0  0  0  0
  149.5172  128.4273  153.9716 H   0  0  0  0  0  0  0  0  0  0  0  0
  147.4674  127.7550  152.7391 H   0  0  0  0  0  0  0  0  0  0  0  0
  145.8553  129.4798  151.9711 H   0  0  0  0  0  0  0  0  0  0  0  0
  145.2844  131.7660  151.8543 H   0  0  0  0  0  0  0  0  0  0  0  0
  1  2  1  0  0  0  0
  1 30  1  0  0  0  0
  1 31  1  0  0  0  0
  1 32  1  0  0  0  0
  2 29  1  0  0  0  0
  2  3  2  0  0  0  0
  3  4  1  0  0  0  0
  3 33  1  0  0  0  0
  4  5  1  0  0  0  0
  4 23  2  0  0  0  0
  5  6  1  0  0  0  0
  5 34  1  0  0  0  0
  5 35  1  0  0  0  0
  6 21  1  0  0  0  0
  6  7  1  0  0  0  0
  7  8  2  0  0  0  0
  7  9  1  0  0  0  0
  9 10  1  0  0  0  0
  9 11  2  0  0  0  0
 10 36  1  0  0  0  0
 10 37  1  0  0  0  0
 10 38  1  0  0  0  0
 11 12  1  0  0  0  0
 11 39  1  0  0  0  0
 12 13  1  0  0  0  0
 12 21  1  0  0  0  0
 13 20  1  0  0  0  0
 13 14  1  0  0  0  0
 13 40  1  0  0  0  0
 14 15  1  0  0  0  0
 14 41  1  0  0  0  0
 14 42  1  0  0  0  0
 15 16  1  0  0  0  0
 15 17  1  0  0  0  0
 15 43  1  0  0  0  0
 16 44  1  0  0  0  0
 17 18  1  0  0  0  0
 17 20  1  0  0  0  0
 17 45  1  0  0  0  0
 18 19  1  0  0  0  0
 18 46  1  0  0  0  0
 18 47  1  0  0  0  0
 19 48  1  0  0  0  0
 21 22  2  0  0  0  0
 23 28  1  0  0  0  0
 23 24  1  0  0  0  0
 24 25  2  0  0  0  0
 24 49  1  0  0  0  0
 25 26  1  0  0  0  0
 25 50  1  0  0  0  0
 26 27  2  0  0  0  0
 26 51  1  0  0  0  0
 27 28  1  0  0  0  0
 27 52  1  0  0  0  0
 28 29  2  0  0  0  0
 29 53  1  0  0  0  0
M  CHG  1  29   1
M  END
> <s_m_source_file>
AV-unprocessed.smi

> <i_m_source_file_index>
113

> <i_lp_mmshare_version>
43012

> <i_f3d_flags>
0

> <s_epik_input>
W2NIXTFbY0hdW2NIXVtjSF1jKGMxMiluYyhbQ0gzXSlbY0hdYzJbQ0gyXW4zYyg9TyljKFtDSDNdKVtjSF1uKGMzPU8pW0NAQEhdNFtDSDJdW0NAQEhdKFtPSF0pW0NASF0oTzQpW0NIMl1bT0hd

> <s_epik_cmdline>
J2VwaWtfcHl0aG9uJywgJy1waCcsICc3LjAnLCAnLXRuJywgJzgnLCAnLW1hJywgJzIwMCcsICctbWV0YWxfYmluZGluZycsICctaW1hZScsICc8aW5maWxlLm1hZT4nLCAnLW9tYWUnLCAnPG91dGZpbGUubWFlPic=

> <r_lp_tautomer_probability>
1

> <r_epik_Ionization_Penalty>
0.705471

> <r_epik_Ionization_Penalty_Charging>
0.70547

> <r_epik_Ionization_Penalty_Neutral>
1.19947e-07

> <r_epik_State_Penalty>
0.728574

> <r_epik_Charging_Adjusted_Penalty>
1.43404

> <i_epik_Tot_Q>
1

> <i_epik_Tot_abs_Q>
1

> <r_epik_Metal_State_Penalty>
4.61665

> <b_epik_Metal_Only>
0

> <s_epik_Chemistry_Notes>
This compound contains an acetal/aminal-like group ( X-CH(R)-Y where X, Y are N, S, or O) that may be acid/base labile, releasing an aldehyde.

> <s_lp_Force_Field>
OPLS_2005

> <r_lp_Energy>
37.5737

> <b_lp_Chiralities_Consistent>
1

> <s_lp_Variant>
AV-unprocessed.smi:113-13

> <Gold.Version>
5.8.1

> <Gold.Id.Protein>
6NUR|6NUR_protein|mol2

> <Gold.PLP.Fitness>
42.9078

> <Gold.PLP.PLP>
-35.7681

> <Gold.PLP.part.hbond>
-3.5488

> <Gold.PLP.part.metal>
0.0000

> <Gold.PLP.part.buried>
-3.7576

> <Gold.PLP.part.nonpolar>
-28.5509

> <Gold.PLP.part.repulsive>
0.9359

> <Gold.PLP.ligand.clash>
0.0000

> <Gold.PLP.ligand.torsion>
0.4052

> <Gold.PLP.Chemscore.Hbond>
2.6400

> <Gold.PLP.Chemscore.CHOScore>
0.0000

> <Gold.PLP.Chemscore.Metal>
0.0000

> <Gold.Chemscore.Hbonds>
donor molecule, donor type, donor heavy atom, donor atom, acceptor molecule, acceptor atom, score
      L1  H    19    48       P1  7957  0.27
      P1  H  7989  7998       L1    19  0.35
      P1  H  8011  8017       L1    19  1.00
      P1  H 10752 10765       L1    22  1.00

> <Gold.PLP.Chemscore.Internal.Correction>
0.0301

> <Gold.Rescore>
     Score         DG    S(hbond)    S(metal)    S(lipo)     H(rot)  DE(clash)    DE(int)     intcor
     13.34     -15.16       2.23        0.00      84.84       3.01       0.18       1.64       ----

> <Gold.Chemscore.Fitness>
13.3432

> <Gold.Chemscore.DG>
-15.1577

> <Gold.Chemscore.ZeroCoef>
-5.4800

> <Gold.Chemscore.Hbond>
2.2342

> <Gold.Chemscore.Metal>
0.0000

> <Gold.Chemscore.Lipo>
84.8414

> <Gold.Chemscore.Internal_Hbond>
0.0000

> <Gold.Chemscore.DEClash>
0.1792

> <Gold.Chemscore.DEInternal>
1.6353

> <Gold.Chemscore.Rot>
3.0120

> <Gold.Chemscore.Internal.Correction>
   9.000000E+99

> <Gold.Chemscore.Hbonds>
donor molecule, donor type, donor heavy atom, donor atom, acceptor molecule, acceptor atom, score
      L1  H    19    48       P1  7957  0.26
      P1  H  7989  7998       L1    19  0.21
      P1  H  8011  8017       L1    19  0.38
      P1  H 10752 10765       L1    22  0.99

> <Gold.Chemscore.Hbond.Weighted>
-7.4621

> <Gold.Chemscore.Metal.Weighted>
-0.0000

> <Gold.Chemscore.Lipo.Weighted>
-9.9264

> <Gold.Chemscore.Internal_Hbond.Weighted>
0.0000

> <Gold.Chemscore.DEClash.Weighted>
0.1792

> <Gold.Chemscore.DEInternal.Weighted>
1.6353

> <Gold.Chemscore.Rot.Weighted>
7.7108

> <Gold.Chemscore.Internal.Correction.Weighted>
   9.000000E+99

> <Gold.Protein.RotatedTorsions>
[ 6907 6896 6895 6894 ] final  125.51 input  -60.11 | X-H torsion
[ 7974 7965 7964 7962 ] final  -72.58 input  175.53 | X-H torsion
[ 8008 7997 7996 7995 ] final  161.93 input   59.86 | X-H torsion
[ 10167 10162 10161 10158 ] final  -75.42 input  -65.29 | X-H torsion
[ 10718 10713 10712 10709 ] final    7.57 input   66.30 | X-H torsion
[ 10763 10752 10751 10750 ] final  170.79 input  -60.55 | X-H torsion
[ 11005 11000 10999 10996 ] final  -50.71 input  -57.11 | X-H torsion

> <Gold.Protein.ActiveResidues>
 VAL166  LYS551  ARG553  GLY616  TRP617  ASP618  TYR619  PRO620  LYS621  CYS622 
 ASP623  PHE694  ASN695  SER759  ASP760  ASP761  ALA762  ILE779  LEU786  VAL792 
 PHE793  MET794  SER795  GLU796  ALA797  LYS798  CYS799  TRP800  GLU811  SER814 

> <Gold.Protein.RotatedAtoms>
  152.3986  133.6784  159.6296 H   0  0  0  0  0  0  0  0  0  0  0  0  # atno 6907 bound_to 6896
  150.7881  133.8831  159.3300 H   0  0  0  0  0  0  0  0  0  0  0  0  # atno 6908 bound_to 6896
  151.6602  135.0992  160.0229 H   0  0  0  0  0  0  0  0  0  0  0  0  # atno 6909 bound_to 6896
  145.6633  140.9245  143.0922 H   0  0  0  0  0  0  0  0  0  0  0  0  # atno 7974 bound_to 7965
  156.2068  140.1764  156.7783 H   0  0  0  0  0  0  0  0  0  0  0  0  # atno 8008 bound_to 7997
  154.5666  140.0690  156.8931 H   0  0  0  0  0  0  0  0  0  0  0  0  # atno 8009 bound_to 7997
  155.2750  140.3345  155.4265 H   0  0  0  0  0  0  0  0  0  0  0  0  # atno 8010 bound_to 7997
  140.4944  143.2373  151.7855 H   0  0  0  0  0  0  0  0  0  0  0  0  # atno 10167 bound_to 10162
  156.9388  130.5853  149.5652 H   0  0  0  0  0  0  0  0  0  0  0  0  # atno 10718 bound_to 10713
  154.4027  135.2755  155.2086 H   0  0  0  0  0  0  0  0  0  0  0  0  # atno 10763 bound_to 10752
  154.4105  135.6023  153.5954 H   0  0  0  0  0  0  0  0  0  0  0  0  # atno 10764 bound_to 10752
  152.9831  135.5948  154.4297 H   0  0  0  0  0  0  0  0  0  0  0  0  # atno 10765 bound_to 10752
  141.0831  133.6649  156.3770 H   0  0  0  0  0  0  0  0  0  0  0  0  # atno 11005 bound_to 11000
  144.7082  139.8477  143.7423 LP  0  0  0  0  0  0  0  0  0  0  0  0  # atno 17320 bound_to 7965
  146.1107  139.4112  143.0289 LP  0  0  0  0  0  0  0  0  0  0  0  0  # atno 17321 bound_to 7965
  139.4858  144.4606  151.9545 LP  0  0  0  0  0  0  0  0  0  0  0  0  # atno 17342 bound_to 10162
  140.3694  144.2875  150.5922 LP  0  0  0  0  0  0  0  0  0  0  0  0  # atno 17343 bound_to 10162
  156.0413  130.5495  150.8778 LP  0  0  0  0  0  0  0  0  0  0  0  0  # atno 17370 bound_to 10713
  157.5798  131.0946  150.9288 LP  0  0  0  0  0  0  0  0  0  0  0  0  # atno 17371 bound_to 10713
  140.5424  134.6107  157.5384 LP  0  0  0  0  0  0  0  0  0  0  0  0  # atno 17394 bound_to 11000
  139.9646  134.7394  156.0165 LP  0  0  0  0  0  0  0  0  0  0  0  0  # atno 17395 bound_to 11000

$$$$
