AV-unprocessed.smi:1658|AV-procd|sdf|6649|dock1
  -GOLD-   22720 7353D 1   1.00000     0.00000
 Structure written by MMmdl.
 47 48  0  0  0  0  0  0  0  0  2 V2000
  145.9114  128.6685  152.7059 C   0  0  0  0  0  0  0  0  0  0  0  0
  147.1292  128.9224  153.3978 O   0  0  0  0  0  0  0  0  0  0  0  0
  147.5493  130.2305  153.5265 C   0  0  0  0  0  0  0  0  0  0  0  0
  148.7337  130.4903  154.2440 C   0  0  0  0  0  0  0  0  0  0  0  0
  149.1645  131.8232  154.3813 C   0  0  0  0  0  0  0  0  0  0  0  0
  148.4078  132.8554  153.7910 C   0  0  0  0  0  0  0  0  0  0  0  0
  148.8517  134.1935  153.9671 N   0  0  0  0  0  0  0  0  0  0  0  0
  149.3988  134.7551  155.0585 C   0  0  0  0  0  0  0  0  0  0  0  0
  149.5430  134.2015  156.1482 O   0  0  0  0  0  0  0  0  0  0  0  0
  149.7638  136.0227  154.8182 N   0  0  0  0  0  0  0  0  0  0  0  0
  150.3827  136.9332  155.7825 C   0  0  0  0  0  0  0  0  0  0  0  0
  150.8978  138.2718  155.1659 C   0  0  0  0  0  0  0  0  0  0  0  0
  152.2377  138.0549  154.4202 C   0  0  0  0  0  0  0  0  0  0  0  0
  149.8485  138.7472  154.1254 C   0  0  0  0  0  0  0  0  0  0  0  0
  151.0546  139.2843  156.2762 N   0  3  0  0  0  0  0  0  0  0  0  0
  151.9697  138.8827  157.3840 C   0  0  0  0  0  0  0  0  0  0  0  0
  151.9073  139.8949  158.5384 C   0  0  0  0  0  0  0  0  0  0  0  0
  152.2660  141.1809  158.0558 O   0  0  0  0  0  0  0  0  0  0  0  0
  151.3604  141.6354  157.0614 C   0  0  0  0  0  0  0  0  0  0  0  0
  151.3740  140.6797  155.8554 C   0  0  0  0  0  0  0  0  0  0  0  0
  147.2269  132.4931  153.0982 C   0  0  0  0  0  0  0  0  0  0  0  0
  146.8070  131.2167  152.9652 N   0  0  0  0  0  0  0  0  0  0  0  0
  145.7179  127.5960  152.6989 H   0  0  0  0  0  0  0  0  0  0  0  0
  145.9647  129.0022  151.6687 H   0  0  0  0  0  0  0  0  0  0  0  0
  145.0652  129.1531  153.1952 H   0  0  0  0  0  0  0  0  0  0  0  0
  149.2997  129.6823  154.6835 H   0  0  0  0  0  0  0  0  0  0  0  0
  150.0671  132.0466  154.9314 H   0  0  0  0  0  0  0  0  0  0  0  0
  148.7075  134.8040  153.1761 H   0  0  0  0  0  0  0  0  0  0  0  0
  149.5996  136.3909  153.8925 H   0  0  0  0  0  0  0  0  0  0  0  0
  149.6324  137.1507  156.5436 H   0  0  0  0  0  0  0  0  0  0  0  0
  151.1742  136.3931  156.2999 H   0  0  0  0  0  0  0  0  0  0  0  0
  152.1061  137.4289  153.5373 H   0  0  0  0  0  0  0  0  0  0  0  0
  152.9807  137.5610  155.0468 H   0  0  0  0  0  0  0  0  0  0  0  0
  152.6664  138.9949  154.0733 H   0  0  0  0  0  0  0  0  0  0  0  0
  149.6424  137.9867  153.3722 H   0  0  0  0  0  0  0  0  0  0  0  0
  150.1886  139.6179  153.5647 H   0  0  0  0  0  0  0  0  0  0  0  0
  148.8993  138.9979  154.6001 H   0  0  0  0  0  0  0  0  0  0  0  0
  151.7186  137.9025  157.7822 H   0  0  0  0  0  0  0  0  0  0  0  0
  152.9967  138.8257  157.0219 H   0  0  0  0  0  0  0  0  0  0  0  0
  150.9128  139.9190  158.9869 H   0  0  0  0  0  0  0  0  0  0  0  0
  152.6049  139.6091  159.3259 H   0  0  0  0  0  0  0  0  0  0  0  0
  150.3559  141.7193  157.4795 H   0  0  0  0  0  0  0  0  0  0  0  0
  151.6569  142.6365  156.7477 H   0  0  0  0  0  0  0  0  0  0  0  0
  152.3497  140.7098  155.3698 H   0  0  0  0  0  0  0  0  0  0  0  0
  150.6444  141.0635  155.1446 H   0  0  0  0  0  0  0  0  0  0  0  0
  146.5768  133.2300  152.6530 H   0  0  0  0  0  0  0  0  0  0  0  0
  150.1370  139.3474  156.6939 H   0  0  0  0  0  0  0  0  0  0  0  0
  1  2  1  0  0  0  0
  1 23  1  0  0  0  0
  1 24  1  0  0  0  0
  1 25  1  0  0  0  0
  2  3  1  0  0  0  0
  3 22  1  0  0  0  0
  3  4  2  0  0  0  0
  4  5  1  0  0  0  0
  4 26  1  0  0  0  0
  5  6  2  0  0  0  0
  5 27  1  0  0  0  0
  6  7  1  0  0  0  0
  6 21  1  0  0  0  0
  7  8  1  0  0  0  0
  7 28  1  0  0  0  0
  8  9  2  0  0  0  0
  8 10  1  0  0  0  0
 10 11  1  0  0  0  0
 10 29  1  0  0  0  0
 11 12  1  0  0  0  0
 11 30  1  0  0  0  0
 11 31  1  0  0  0  0
 12 13  1  0  0  0  0
 12 14  1  0  0  0  0
 12 15  1  0  0  0  0
 13 32  1  0  0  0  0
 13 33  1  0  0  0  0
 13 34  1  0  0  0  0
 14 35  1  0  0  0  0
 14 36  1  0  0  0  0
 14 37  1  0  0  0  0
 15 20  1  0  0  0  0
 15 16  1  0  0  0  0
 15 47  1  0  0  0  0
 16 17  1  0  0  0  0
 16 38  1  0  0  0  0
 16 39  1  0  0  0  0
 17 18  1  0  0  0  0
 17 40  1  0  0  0  0
 17 41  1  0  0  0  0
 18 19  1  0  0  0  0
 19 20  1  0  0  0  0
 19 42  1  0  0  0  0
 19 43  1  0  0  0  0
 20 44  1  0  0  0  0
 20 45  1  0  0  0  0
 21 22  2  0  0  0  0
 21 46  1  0  0  0  0
M  CHG  1  15   1
M  END
> <s_m_source_file>
AV-unprocessed.smi

> <i_m_source_file_index>
1658

> <i_lp_mmshare_version>
43012

> <i_f3d_flags>
0

> <s_epik_input>
W0NIM11PYzFbY0hdW2NIXWMoW2NIXW4xKVtOSF1DKD1PKVtOSF1bQ0gyXUMoW0NIM10pKFtDSDNdKU4yW0NIMl1bQ0gyXU9bQ0gyXVtDSDJdMg==

> <s_epik_cmdline>
J2VwaWtfcHl0aG9uJywgJy1waCcsICc3LjAnLCAnLXRuJywgJzgnLCAnLW1hJywgJzIwMCcsICctbWV0YWxfYmluZGluZycsICctaW1hZScsICc8aW5maWxlLm1hZT4nLCAnLW9tYWUnLCAnPG91dGZpbGUubWFlPic=

> <r_lp_tautomer_probability>
1

> <r_epik_Ionization_Penalty>
0.602608

> <r_epik_Ionization_Penalty_Charging>
0.602531

> <r_epik_Ionization_Penalty_Neutral>
7.74737e-05

> <r_epik_State_Penalty>
0.617039

> <r_epik_Charging_Adjusted_Penalty>
1.21957

> <i_epik_Tot_Q>
1

> <i_epik_Tot_abs_Q>
1

> <r_epik_Metal_State_Penalty>
0.617043

> <b_epik_Metal_Only>
0

> <s_lp_Force_Field>
OPLS_2005

> <r_lp_Energy>
28.7753

> <b_lp_Chiralities_Consistent>
1

> <s_lp_Variant>
AV-unprocessed.smi:1658-2

> <Gold.Version>
5.8.1

> <Gold.Id.Protein>
6NUR|6NUR_protein|mol2

> <Gold.PLP.Fitness>
41.8507

> <Gold.PLP.PLP>
-36.8607

> <Gold.PLP.part.hbond>
-2.0000

> <Gold.PLP.part.metal>
0.0000

> <Gold.PLP.part.buried>
-4.1448

> <Gold.PLP.part.nonpolar>
-30.0607

> <Gold.PLP.part.repulsive>
0.3495

> <Gold.PLP.ligand.clash>
0.0000

> <Gold.PLP.ligand.torsion>
0.6354

> <Gold.PLP.Chemscore.Hbond>
2.0000

> <Gold.PLP.Chemscore.CHOScore>
0.0000

> <Gold.PLP.Chemscore.Metal>
0.0000

> <Gold.Chemscore.Hbonds>
donor molecule, donor type, donor heavy atom, donor atom, acceptor molecule, acceptor atom, score
      L1  H     7    28       P1  7948  1.00
      L1  H    10    29       P1  7948  0.81

> <Gold.PLP.Chemscore.Internal.Correction>
0.2608

> <Gold.Rescore>
     Score         DG    S(hbond)    S(metal)    S(lipo)     H(rot)  DE(clash)    DE(int)     intcor
     13.76     -15.56       1.56        0.00      79.92       1.76       0.05       1.75       ----

> <Gold.Chemscore.Fitness>
13.7622

> <Gold.Chemscore.DG>
-15.5556

> <Gold.Chemscore.ZeroCoef>
-5.4800

> <Gold.Chemscore.Hbond>
1.5641

> <Gold.Chemscore.Metal>
0.0000

> <Gold.Chemscore.Lipo>
79.9242

> <Gold.Chemscore.Internal_Hbond>
0.0000

> <Gold.Chemscore.DEClash>
0.0457

> <Gold.Chemscore.DEInternal>
1.7476

> <Gold.Chemscore.Rot>
1.7577

> <Gold.Chemscore.Internal.Correction>
   9.000000E+99

> <Gold.Chemscore.Hbonds>
donor molecule, donor type, donor heavy atom, donor atom, acceptor molecule, acceptor atom, score
      L1  H     7    28       P1  7948  0.35
      L1  H    10    29       P1  7948  0.51

> <Gold.Chemscore.Hbond.Weighted>
-5.2242

> <Gold.Chemscore.Metal.Weighted>
-0.0000

> <Gold.Chemscore.Lipo.Weighted>
-9.3511

> <Gold.Chemscore.Internal_Hbond.Weighted>
0.0000

> <Gold.Chemscore.DEClash.Weighted>
0.0457

> <Gold.Chemscore.DEInternal.Weighted>
1.7476

> <Gold.Chemscore.Rot.Weighted>
4.4997

> <Gold.Chemscore.Internal.Correction.Weighted>
   9.000000E+99

> <Gold.Protein.RotatedTorsions>
[ 6907 6896 6895 6894 ] final -179.78 input  -60.11 | X-H torsion
[ 7974 7965 7964 7962 ] final  -16.55 input  175.53 | X-H torsion
[ 8008 7997 7996 7995 ] final   91.74 input   59.86 | X-H torsion
[ 10167 10162 10161 10158 ] final    4.17 input  -65.29 | X-H torsion
[ 10718 10713 10712 10709 ] final   67.71 input   66.30 | X-H torsion
[ 10763 10752 10751 10750 ] final  165.87 input  -60.55 | X-H torsion
[ 11005 11000 10999 10996 ] final  164.17 input  -57.11 | X-H torsion

> <Gold.Protein.ActiveResidues>
 VAL166  LYS551  ARG553  GLY616  TRP617  ASP618  TYR619  PRO620  LYS621  CYS622 
 ASP623  PHE694  ASN695  SER759  ASP760  ASP761  ALA762  ILE779  LEU786  VAL792 
 PHE793  MET794  SER795  GLU796  ALA797  LYS798  CYS799  TRP800  GLU811  SER814 

> <Gold.Protein.RotatedAtoms>
  151.6590  133.3317  159.3169 H   0  0  0  0  0  0  0  0  0  0  0  0  # atno 6907 bound_to 6896
  150.7923  134.6959  159.6532 H   0  0  0  0  0  0  0  0  0  0  0  0  # atno 6908 bound_to 6896
  152.4004  134.6299  160.0124 H   0  0  0  0  0  0  0  0  0  0  0  0  # atno 6909 bound_to 6896
  146.1982  140.3652  142.8433 H   0  0  0  0  0  0  0  0  0  0  0  0  # atno 7974 bound_to 7965
  156.0273  140.3334  155.7102 H   0  0  0  0  0  0  0  0  0  0  0  0  # atno 8008 bound_to 7997
  155.5936  140.0648  157.2770 H   0  0  0  0  0  0  0  0  0  0  0  0  # atno 8009 bound_to 7997
  154.4339  140.1823  156.1088 H   0  0  0  0  0  0  0  0  0  0  0  0  # atno 8010 bound_to 7997
  140.6548  143.7453  150.7636 H   0  0  0  0  0  0  0  0  0  0  0  0  # atno 10167 bound_to 10162
  157.6247  130.9335  150.0280 H   0  0  0  0  0  0  0  0  0  0  0  0  # atno 10718 bound_to 10713
  154.3305  135.2755  155.2474 H   0  0  0  0  0  0  0  0  0  0  0  0  # atno 10763 bound_to 10752
  154.4788  135.5864  153.6378 H   0  0  0  0  0  0  0  0  0  0  0  0  # atno 10764 bound_to 10752
  152.9867  135.6106  154.3497 H   0  0  0  0  0  0  0  0  0  0  0  0  # atno 10765 bound_to 10752
  140.2432  134.8035  157.3431 H   0  0  0  0  0  0  0  0  0  0  0  0  # atno 11005 bound_to 11000
  144.8626  140.7161  143.6097 LP  0  0  0  0  0  0  0  0  0  0  0  0  # atno 17320 bound_to 7965
  145.3572  139.1691  143.4403 LP  0  0  0  0  0  0  0  0  0  0  0  0  # atno 17321 bound_to 7965
  140.1111  143.4698  152.2369 LP  0  0  0  0  0  0  0  0  0  0  0  0  # atno 17342 bound_to 10162
  139.5769  144.7492  151.3741 LP  0  0  0  0  0  0  0  0  0  0  0  0  # atno 17343 bound_to 10162
  156.1412  130.3642  149.9580 LP  0  0  0  0  0  0  0  0  0  0  0  0  # atno 17370 bound_to 10713
  156.7620  130.9154  151.3642 LP  0  0  0  0  0  0  0  0  0  0  0  0  # atno 17371 bound_to 10713
  140.1632  134.4702  155.7880 LP  0  0  0  0  0  0  0  0  0  0  0  0  # atno 17394 bound_to 11000
  141.2208  133.6910  156.7581 LP  0  0  0  0  0  0  0  0  0  0  0  0  # atno 17395 bound_to 11000

$$$$
