AV-unprocessed.smi:1495|AV-procd|sdf|6054|dock6
  -GOLD-   22720 6173D 1   1.00000     0.00000
 Structure written by MMmdl.
 40 41  0  0  0  0  0  0  0  0  1 V2000
  150.6492  144.9960  159.5818 C   0  0  0  0  0  0  0  0  0  0  0  0
  151.6844  144.5675  160.6288 C   0  0  0  0  0  0  0  0  0  0  0  0
  152.0700  143.0842  160.5188 C   0  0  1  0  0  0  0  0  0  0  0  0
  152.4543  142.6948  159.0786 C   0  0  0  0  0  0  0  0  0  0  0  0
  152.8400  141.2767  159.0669 N   0  0  0  0  0  0  0  0  0  0  0  0
  152.2602  140.2895  158.3425 C   0  0  0  0  0  0  0  0  0  0  0  0
  152.6374  139.1176  158.3729 O   0  0  0  0  0  0  0  0  0  0  0  0
  151.1891  140.6846  157.6362 N   0  0  0  0  0  0  0  0  0  0  0  0
  150.4110  139.8636  156.7141 C   0  0  0  0  0  0  0  0  0  0  0  0
  150.5192  140.3886  155.2712 C   0  0  0  0  0  0  0  0  0  0  0  0
  149.1852  140.5295  154.5955 C   0  0  0  0  0  0  0  0  0  0  0  0
  148.2867  141.5556  154.7522 C   0  0  0  0  0  0  0  0  0  0  0  0
  146.8410  141.3025  153.8142 S   0  0  0  0  0  0  0  0  0  0  0  0
  147.5252  139.7922  153.2251 C   0  0  0  0  0  0  0  0  0  0  0  0
  146.8181  138.8866  152.2762 C   0  0  0  0  0  0  0  0  0  0  0  0
  148.7381  139.5346  153.7203 N   0  0  0  0  0  0  0  0  0  0  0  0
  154.0001  141.0533  159.9316 C   0  0  0  0  0  0  0  0  0  0  0  0
  153.6222  141.4793  161.3620 C   0  0  0  0  0  0  0  0  0  0  0  0
  153.1919  142.8388  161.3671 O   0  0  0  0  0  0  0  0  0  0  0  0
  150.4097  146.0544  159.6844 H   0  0  0  0  0  0  0  0  0  0  0  0
  149.7210  144.4340  159.6885 H   0  0  0  0  0  0  0  0  0  0  0  0
  151.0240  144.8365  158.5705 H   0  0  0  0  0  0  0  0  0  0  0  0
  152.5769  145.1825  160.5075 H   0  0  0  0  0  0  0  0  0  0  0  0
  151.3018  144.7761  161.6285 H   0  0  0  0  0  0  0  0  0  0  0  0
  151.2275  142.4726  160.8472 H   0  0  0  0  0  0  0  0  0  0  0  0
  151.6393  142.9344  158.3952 H   0  0  0  0  0  0  0  0  0  0  0  0
  153.3015  143.2942  158.7414 H   0  0  0  0  0  0  0  0  0  0  0  0
  150.9231  141.6566  157.7015 H   0  0  0  0  0  0  0  0  0  0  0  0
  150.7035  138.8136  156.7565 H   0  0  0  0  0  0  0  0  0  0  0  0
  149.3712  139.9044  157.0395 H   0  0  0  0  0  0  0  0  0  0  0  0
  151.0277  141.3536  155.2834 H   0  0  0  0  0  0  0  0  0  0  0  0
  151.1631  139.7238  154.6944 H   0  0  0  0  0  0  0  0  0  0  0  0
  148.3829  142.4362  155.3702 H   0  0  0  0  0  0  0  0  0  0  0  0
  147.5133  138.5068  151.5269 H   0  0  0  0  0  0  0  0  0  0  0  0
  146.0165  139.4226  151.7676 H   0  0  0  0  0  0  0  0  0  0  0  0
  146.3879  138.0433  152.8167 H   0  0  0  0  0  0  0  0  0  0  0  0
  154.3271  140.0126  159.9394 H   0  0  0  0  0  0  0  0  0  0  0  0
  154.8450  141.6402  159.5689 H   0  0  0  0  0  0  0  0  0  0  0  0
  152.8335  140.8396  161.7615 H   0  0  0  0  0  0  0  0  0  0  0  0
  154.4813  141.3790  162.0253 H   0  0  0  0  0  0  0  0  0  0  0  0
  1  2  1  0  0  0  0
  1 20  1  0  0  0  0
  1 21  1  0  0  0  0
  1 22  1  0  0  0  0
  2  3  1  0  0  0  0
  2 23  1  0  0  0  0
  2 24  1  0  0  0  0
  3 19  1  0  0  0  0
  3  4  1  0  0  0  0
  3 25  1  0  0  0  0
  4  5  1  0  0  0  0
  4 26  1  0  0  0  0
  4 27  1  0  0  0  0
  5  6  1  0  0  0  0
  5 17  1  0  0  0  0
  6  7  2  0  0  0  0
  6  8  1  0  0  0  0
  8  9  1  0  0  0  0
  8 28  1  0  0  0  0
  9 10  1  0  0  0  0
  9 29  1  0  0  0  0
  9 30  1  0  0  0  0
 10 11  1  0  0  0  0
 10 31  1  0  0  0  0
 10 32  1  0  0  0  0
 11 16  1  0  0  0  0
 11 12  2  0  0  0  0
 12 13  1  0  0  0  0
 12 33  1  0  0  0  0
 13 14  1  0  0  0  0
 14 15  1  0  0  0  0
 14 16  2  0  0  0  0
 15 34  1  0  0  0  0
 15 35  1  0  0  0  0
 15 36  1  0  0  0  0
 17 18  1  0  0  0  0
 17 37  1  0  0  0  0
 17 38  1  0  0  0  0
 18 19  1  0  0  0  0
 18 39  1  0  0  0  0
 18 40  1  0  0  0  0
M  END
> <s_m_source_file>
AV-unprocessed.smi

> <i_m_source_file_index>
1495

> <i_lp_mmshare_version>
43012

> <i_f3d_flags>
0

> <s_epik_input>
W0NIM11bQ0gyXVtDQEBIXTFbQ0gyXU4oW0NIMl1bQ0gyXU8xKUMoPU8pW05IXVtDSDJdW0NIMl1jMltjSF1zYyhuMilbQ0gzXQ==

> <s_epik_cmdline>
J2VwaWtfcHl0aG9uJywgJy1waCcsICc3LjAnLCAnLXRuJywgJzgnLCAnLW1hJywgJzIwMCcsICctbWV0YWxfYmluZGluZycsICctaW1hZScsICc8aW5maWxlLm1hZT4nLCAnLW9tYWUnLCAnPG91dGZpbGUubWFlPic=

> <r_epik_Ionization_Penalty>
0.00206013

> <r_epik_Ionization_Penalty_Charging>
0

> <r_epik_Ionization_Penalty_Neutral>
0.00206013

> <r_epik_State_Penalty>
0.00138662

> <r_epik_Charging_Adjusted_Penalty>
0.00138662

> <i_epik_Tot_Q>
0

> <i_epik_Tot_abs_Q>
0

> <r_epik_Metal_State_Penalty>
-0

> <b_epik_Metal_Only>
0

> <s_lp_Force_Field>
OPLS_2005

> <r_lp_Energy>
24.1464

> <b_lp_Chiralities_Consistent>
1

> <s_lp_Variant>
AV-unprocessed.smi:1495-2

> <Gold.Version>
5.8.1

> <Gold.Id.Protein>
6NUR|6NUR_protein|mol2

> <Gold.PLP.Fitness>
43.6010

> <Gold.PLP.PLP>
-41.9533

> <Gold.PLP.part.hbond>
0.0000

> <Gold.PLP.part.metal>
0.0000

> <Gold.PLP.part.buried>
-3.4808

> <Gold.PLP.part.nonpolar>
-39.5090

> <Gold.PLP.part.repulsive>
1.5761

> <Gold.PLP.ligand.clash>
0.0000

> <Gold.PLP.ligand.torsion>
0.6882

> <Gold.PLP.Chemscore.Hbond>
0.0000

> <Gold.PLP.Chemscore.CHOScore>
1.0000

> <Gold.PLP.Chemscore.Metal>
0.0000

> <Gold.Chemscore.Hbonds>
donor molecule, donor type, donor heavy atom, donor atom, acceptor molecule, acceptor atom, score
      L1  C    12    33       P1  8028  1.00

> <Gold.PLP.Chemscore.Internal.Correction>
0.0241

> <Gold.Rescore>
     Score         DG    S(hbond)    S(metal)    S(lipo)     H(rot)  DE(clash)    DE(int)     intcor
     13.60     -14.72       0.00        0.00     110.10       1.42       0.35       0.77       ----

> <Gold.Chemscore.Fitness>
13.6014

> <Gold.Chemscore.DG>
-14.7229

> <Gold.Chemscore.ZeroCoef>
-5.4800

> <Gold.Chemscore.Hbond>
0.0000

> <Gold.Chemscore.Metal>
0.0000

> <Gold.Chemscore.Lipo>
110.0998

> <Gold.Chemscore.Internal_Hbond>
0.0000

> <Gold.Chemscore.DEClash>
0.3537

> <Gold.Chemscore.DEInternal>
0.7677

> <Gold.Chemscore.Rot>
1.4214

> <Gold.Chemscore.Internal.Correction>
   9.000000E+99

> <Gold.Chemscore.Hbond.Weighted>
-0.0000

> <Gold.Chemscore.Metal.Weighted>
-0.0000

> <Gold.Chemscore.Lipo.Weighted>
-12.8817

> <Gold.Chemscore.Internal_Hbond.Weighted>
0.0000

> <Gold.Chemscore.DEClash.Weighted>
0.3537

> <Gold.Chemscore.DEInternal.Weighted>
0.7677

> <Gold.Chemscore.Rot.Weighted>
3.6388

> <Gold.Chemscore.Internal.Correction.Weighted>
   9.000000E+99

> <Gold.Protein.RotatedTorsions>
[ 6907 6896 6895 6894 ] final -157.19 input  -60.11 | X-H torsion
[ 7974 7965 7964 7962 ] final   27.04 input  175.53 | X-H torsion
[ 8008 7997 7996 7995 ] final   37.92 input   59.86 | X-H torsion
[ 10167 10162 10161 10158 ] final  -86.46 input  -65.29 | X-H torsion
[ 10718 10713 10712 10709 ] final  126.76 input   66.30 | X-H torsion
[ 10763 10752 10751 10750 ] final -100.60 input  -60.55 | X-H torsion
[ 11005 11000 10999 10996 ] final  -81.22 input  -57.11 | X-H torsion

> <Gold.Protein.ActiveResidues>
 VAL166  LYS551  ARG553  GLY616  TRP617  ASP618  TYR619  PRO620  LYS621  CYS622 
 ASP623  PHE694  ASN695  SER759  ASP760  ASP761  ALA762  ILE779  LEU786  VAL792 
 PHE793  MET794  SER795  GLU796  ALA797  LYS798  CYS799  TRP800  GLU811  SER814 

> <Gold.Protein.RotatedAtoms>
  151.2991  133.4130  159.2638 H   0  0  0  0  0  0  0  0  0  0  0  0  # atno 6907 bound_to 6896
  151.0211  134.9470  159.8070 H   0  0  0  0  0  0  0  0  0  0  0  0  # atno 6908 bound_to 6896
  152.5324  134.2954  159.9111 H   0  0  0  0  0  0  0  0  0  0  0  0  # atno 6909 bound_to 6896
  146.1805  139.7245  142.8903 H   0  0  0  0  0  0  0  0  0  0  0  0  # atno 7974 bound_to 7965
  155.2116  140.3324  155.4328 H   0  0  0  0  0  0  0  0  0  0  0  0  # atno 8008 bound_to 7997
  156.2368  140.1876  156.7146 H   0  0  0  0  0  0  0  0  0  0  0  0  # atno 8009 bound_to 7997
  154.6074  140.0614  156.9434 H   0  0  0  0  0  0  0  0  0  0  0  0  # atno 8010 bound_to 7997
  140.3939  143.2692  151.9229 H   0  0  0  0  0  0  0  0  0  0  0  0  # atno 10167 bound_to 10162
  157.5391  131.1097  150.8888 H   0  0  0  0  0  0  0  0  0  0  0  0  # atno 10718 bound_to 10713
  154.7592  135.4929  153.9432 H   0  0  0  0  0  0  0  0  0  0  0  0  # atno 10763 bound_to 10752
  153.1231  135.6736  153.9310 H   0  0  0  0  0  0  0  0  0  0  0  0  # atno 10764 bound_to 10752
  153.9036  135.3107  155.3427 H   0  0  0  0  0  0  0  0  0  0  0  0  # atno 10765 bound_to 10752
  141.1667  133.7186  156.8390 H   0  0  0  0  0  0  0  0  0  0  0  0  # atno 11005 bound_to 11000
  145.4089  141.0394  143.3028 LP  0  0  0  0  0  0  0  0  0  0  0  0  # atno 17320 bound_to 7965
  144.8307  139.5633  143.6945 LP  0  0  0  0  0  0  0  0  0  0  0  0  # atno 17321 bound_to 7965
  139.4787  144.5700  151.8103 LP  0  0  0  0  0  0  0  0  0  0  0  0  # atno 17342 bound_to 10162
  140.4811  144.1449  150.5933 LP  0  0  0  0  0  0  0  0  0  0  0  0  # atno 17343 bound_to 10162
  156.9446  130.5397  149.5281 LP  0  0  0  0  0  0  0  0  0  0  0  0  # atno 17370 bound_to 10713
  156.0482  130.5555  150.8929 LP  0  0  0  0  0  0  0  0  0  0  0  0  # atno 17371 bound_to 10713
  140.1997  134.8906  157.3155 LP  0  0  0  0  0  0  0  0  0  0  0  0  # atno 17394 bound_to 11000
  140.2201  134.4034  155.7570 LP  0  0  0  0  0  0  0  0  0  0  0  0  # atno 17395 bound_to 11000

$$$$
