AV-unprocessed.smi:791|AV-procd|sdf|3749|dock4
  -GOLD-   22720 1183D 1   1.00000     0.00000
 Structure written by MMmdl.
 30 32  0  0  0  0  0  0  0  0  2 V2000
  147.6334  140.7844  154.0098 C   0  0  0  0  0  0  0  0  0  0  0  0
  147.5853  139.3068  153.5855 C   0  0  0  0  0  0  0  0  0  0  0  0
  148.9379  138.8163  153.2407 N   0  3  0  0  0  0  0  0  0  0  0  0
  149.9039  138.9524  154.3531 C   0  0  0  0  0  0  0  0  0  0  0  0
  149.9977  140.4175  154.8237 C   0  0  2  0  0  0  0  0  0  0  0  0
  150.9821  140.5859  155.9397 C   0  0  0  0  0  0  0  0  0  0  0  0
  152.0627  139.8190  156.0246 N   0  0  0  0  0  0  0  0  0  0  0  0
  152.6937  140.2746  157.1909 O   0  0  0  0  0  0  0  0  0  0  0  0
  151.9179  141.2794  157.6621 C   0  0  0  0  0  0  0  0  0  0  0  0
  152.3120  141.9589  158.9290 C   0  0  0  0  0  0  0  0  0  0  0  0
  152.5404  143.4529  158.9699 C   0  0  0  0  0  0  0  0  0  0  0  0
  153.7081  142.5092  159.1078 C   0  0  0  0  0  0  0  0  0  0  0  0
  150.8234  141.4992  156.9381 N   0  0  0  0  0  0  0  0  0  0  0  0
  148.6115  140.9904  155.1768 C   0  0  0  0  0  0  0  0  0  0  0  0
  146.6370  141.1238  154.2949 H   0  0  0  0  0  0  0  0  0  0  0  0
  147.9389  141.3995  153.1623 H   0  0  0  0  0  0  0  0  0  0  0  0
  147.1746  138.6936  154.3886 H   0  0  0  0  0  0  0  0  0  0  0  0
  146.9306  139.1821  152.7228 H   0  0  0  0  0  0  0  0  0  0  0  0
  148.8774  137.8433  152.9765 H   0  0  0  0  0  0  0  0  0  0  0  0
  149.5916  138.3049  155.1737 H   0  0  0  0  0  0  0  0  0  0  0  0
  150.8791  138.5966  154.0193 H   0  0  0  0  0  0  0  0  0  0  0  0
  150.3700  140.9975  153.9768 H   0  0  0  0  0  0  0  0  0  0  0  0
  151.8344  141.4888  159.7862 H   0  0  0  0  0  0  0  0  0  0  0  0
  152.4516  144.0061  158.0369 H   0  0  0  0  0  0  0  0  0  0  0  0
  152.2167  143.9858  159.8614 H   0  0  0  0  0  0  0  0  0  0  0  0
  154.1638  142.4145  160.0912 H   0  0  0  0  0  0  0  0  0  0  0  0
  154.3936  142.4318  158.2661 H   0  0  0  0  0  0  0  0  0  0  0  0
  148.6888  142.0515  155.4166 H   0  0  0  0  0  0  0  0  0  0  0  0
  148.2188  140.4974  156.0673 H   0  0  0  0  0  0  0  0  0  0  0  0
  149.2797  139.3468  152.4519 H   0  0  0  0  0  0  0  0  0  0  0  0
  1 14  1  0  0  0  0
  1  2  1  0  0  0  0
  1 15  1  0  0  0  0
  1 16  1  0  0  0  0
  2  3  1  0  0  0  0
  2 17  1  0  0  0  0
  2 18  1  0  0  0  0
  3  4  1  0  0  0  0
  3 19  1  0  0  0  0
  3 30  1  0  0  0  0
  4  5  1  0  0  0  0
  4 20  1  0  0  0  0
  4 21  1  0  0  0  0
  5  6  1  0  0  0  0
  5 14  1  0  0  0  0
  5 22  1  0  0  0  0
  6 13  1  0  0  0  0
  6  7  2  0  0  0  0
  7  8  1  0  0  0  0
  8  9  1  0  0  0  0
  9 10  1  0  0  0  0
  9 13  2  0  0  0  0
 10 12  1  0  0  0  0
 10 11  1  0  0  0  0
 10 23  1  0  0  0  0
 11 12  1  0  0  0  0
 11 24  1  0  0  0  0
 11 25  1  0  0  0  0
 12 26  1  0  0  0  0
 12 27  1  0  0  0  0
 14 28  1  0  0  0  0
 14 29  1  0  0  0  0
M  CHG  1   3   1
M  END
> <s_m_source_file>
AV-unprocessed.smi

> <i_m_source_file_index>
791

> <i_lp_mmshare_version>
43012

> <i_f3d_flags>
0

> <s_epik_input>
W0NIMl0xW0NIMl1bQ0gyXVtOSF1bQ0gyXVtDQEhdMWMybm9jKG4yKVtDSF0zW0NIMl1bQ0gyXTM=

> <s_epik_cmdline>
J2VwaWtfcHl0aG9uJywgJy1waCcsICc3LjAnLCAnLXRuJywgJzgnLCAnLW1hJywgJzIwMCcsICctbWV0YWxfYmluZGluZycsICctaW1hZScsICc8aW5maWxlLm1hZT4nLCAnLW9tYWUnLCAnPG91dGZpbGUubWFlPic=

> <r_lp_tautomer_probability>
1

> <r_epik_Ionization_Penalty>
0.000532935

> <r_epik_Ionization_Penalty_Charging>
0.000532935

> <r_epik_Ionization_Penalty_Neutral>
2.72852e-13

> <r_epik_State_Penalty>
0.000332992

> <r_epik_Charging_Adjusted_Penalty>
0.000865928

> <i_epik_Tot_Q>
1

> <i_epik_Tot_abs_Q>
1

> <r_epik_Metal_State_Penalty>
-0

> <b_epik_Metal_Only>
0

> <s_lp_Force_Field>
OPLS_2005

> <r_lp_Energy>
11.8714

> <b_lp_Chiralities_Consistent>
1

> <s_lp_Variant>
AV-unprocessed.smi:791-2

> <Gold.Version>
5.8.1

> <Gold.Id.Protein>
6NUR|6NUR_protein|mol2

> <Gold.PLP.Fitness>
38.3349

> <Gold.PLP.PLP>
-27.8305

> <Gold.PLP.part.hbond>
-2.9655

> <Gold.PLP.part.metal>
0.0000

> <Gold.PLP.part.buried>
-3.3729

> <Gold.PLP.part.nonpolar>
-21.8261

> <Gold.PLP.part.repulsive>
0.1385

> <Gold.PLP.ligand.clash>
0.0000

> <Gold.PLP.ligand.torsion>
0.7631

> <Gold.PLP.Chemscore.Hbond>
3.9513

> <Gold.PLP.Chemscore.CHOScore>
0.0000

> <Gold.PLP.Chemscore.Metal>
0.0000

> <Gold.Chemscore.Hbonds>
donor molecule, donor type, donor heavy atom, donor atom, acceptor molecule, acceptor atom, score
      L1  H     3    19       P1  7948  2.00
      L1  H     3    30       P1  7957  0.91
      P1  H  7997  8008       L1     8  0.88

> <Gold.PLP.Chemscore.Internal.Correction>
0.1768

> <Gold.Rescore>
     Score         DG    S(hbond)    S(metal)    S(lipo)     H(rot)  DE(clash)    DE(int)     intcor
     16.50     -17.83       2.34        0.00      65.81       1.23       0.47       0.87       ----

> <Gold.Chemscore.Fitness>
16.4950

> <Gold.Chemscore.DG>
-17.8333

> <Gold.Chemscore.ZeroCoef>
-5.4800

> <Gold.Chemscore.Hbond>
2.3371

> <Gold.Chemscore.Metal>
0.0000

> <Gold.Chemscore.Lipo>
65.8056

> <Gold.Chemscore.Internal_Hbond>
0.0000

> <Gold.Chemscore.DEClash>
0.4679

> <Gold.Chemscore.DEInternal>
0.8704

> <Gold.Chemscore.Rot>
1.2312

> <Gold.Chemscore.Internal.Correction>
   9.000000E+99

> <Gold.Chemscore.Hbonds>
donor molecule, donor type, donor heavy atom, donor atom, acceptor molecule, acceptor atom, score
      L1  H     3    19       P1  7948  0.99
      L1  H     3    30       P1  7957  0.87
      P1  H  7997  8008       L1     8  0.39

> <Gold.Chemscore.Hbond.Weighted>
-7.8059

> <Gold.Chemscore.Metal.Weighted>
-0.0000

> <Gold.Chemscore.Lipo.Weighted>
-7.6993

> <Gold.Chemscore.Internal_Hbond.Weighted>
0.0000

> <Gold.Chemscore.DEClash.Weighted>
0.4679

> <Gold.Chemscore.DEInternal.Weighted>
0.8704

> <Gold.Chemscore.Rot.Weighted>
3.1518

> <Gold.Chemscore.Internal.Correction.Weighted>
   9.000000E+99

> <Gold.Protein.RotatedTorsions>
[ 6907 6896 6895 6894 ] final  113.47 input  -60.11 | X-H torsion
[ 7974 7965 7964 7962 ] final  117.49 input  175.53 | X-H torsion
[ 8008 7997 7996 7995 ] final  -73.77 input   59.86 | X-H torsion
[ 10167 10162 10161 10158 ] final   73.15 input  -65.29 | X-H torsion
[ 10718 10713 10712 10709 ] final -146.15 input   66.30 | X-H torsion
[ 10763 10752 10751 10750 ] final    1.87 input  -60.55 | X-H torsion
[ 11005 11000 10999 10996 ] final  -25.33 input  -57.11 | X-H torsion

> <Gold.Protein.ActiveResidues>
 VAL166  LYS551  ARG553  GLY616  TRP617  ASP618  TYR619  PRO620  LYS621  CYS622 
 ASP623  PHE694  ASN695  SER759  ASP760  ASP761  ALA762  ILE779  LEU786  VAL792 
 PHE793  MET794  SER795  GLU796  ALA797  LYS798  CYS799  TRP800  GLU811  SER814 

> <Gold.Protein.RotatedAtoms>
  152.4859  133.8371  159.7133 H   0  0  0  0  0  0  0  0  0  0  0  0  # atno 6907 bound_to 6896
  150.8945  133.7190  159.2902 H   0  0  0  0  0  0  0  0  0  0  0  0  # atno 6908 bound_to 6896
  151.4651  135.1045  159.9788 H   0  0  0  0  0  0  0  0  0  0  0  0  # atno 6909 bound_to 6896
  145.1667  139.3124  143.4489 H   0  0  0  0  0  0  0  0  0  0  0  0  # atno 7974 bound_to 7965
  154.5274  140.0773  156.8284 H   0  0  0  0  0  0  0  0  0  0  0  0  # atno 8008 bound_to 7997
  155.3446  140.3409  155.4221 H   0  0  0  0  0  0  0  0  0  0  0  0  # atno 8009 bound_to 7997
  156.1746  140.1631  156.8372 H   0  0  0  0  0  0  0  0  0  0  0  0  # atno 8010 bound_to 7997
  140.0276  144.5491  150.7532 H   0  0  0  0  0  0  0  0  0  0  0  0  # atno 10167 bound_to 10162
  156.3913  130.7887  151.2089 H   0  0  0  0  0  0  0  0  0  0  0  0  # atno 10718 bound_to 10713
  153.3026  135.6957  153.7189 H   0  0  0  0  0  0  0  0  0  0  0  0  # atno 10763 bound_to 10752
  153.6097  135.3447  155.2975 H   0  0  0  0  0  0  0  0  0  0  0  0  # atno 10764 bound_to 10752
  154.8554  135.4360  154.2142 H   0  0  0  0  0  0  0  0  0  0  0  0  # atno 10765 bound_to 10752
  140.8927  133.7577  156.0442 H   0  0  0  0  0  0  0  0  0  0  0  0  # atno 11005 bound_to 11000
  146.3474  140.1798  142.8589 LP  0  0  0  0  0  0  0  0  0  0  0  0  # atno 17320 bound_to 7965
  145.0274  140.8843  143.5130 LP  0  0  0  0  0  0  0  0  0  0  0  0  # atno 17321 bound_to 7965
  140.7316  143.2696  151.3932 LP  0  0  0  0  0  0  0  0  0  0  0  0  # atno 17342 bound_to 10162
  139.6097  144.1123  152.2286 LP  0  0  0  0  0  0  0  0  0  0  0  0  # atno 17343 bound_to 10162
  157.7499  131.0315  150.4183 LP  0  0  0  0  0  0  0  0  0  0  0  0  # atno 17370 bound_to 10713
  156.4445  130.3998  149.6676 LP  0  0  0  0  0  0  0  0  0  0  0  0  # atno 17371 bound_to 10713
  140.8327  134.3160  157.5343 LP  0  0  0  0  0  0  0  0  0  0  0  0  # atno 17394 bound_to 11000
  139.8731  134.9372  156.3681 LP  0  0  0  0  0  0  0  0  0  0  0  0  # atno 17395 bound_to 11000

$$$$
