AV-unprocessed.smi:1560|AV-procd|sdf|6278|dock1
  -GOLD-   22720 6473D 1   1.00000     0.00000
 Structure written by MMmdl.
 48 49  0  0  0  0  0  0  0  0  2 V2000
  150.4657  133.0182  155.1761 C   0  0  0  0  0  0  0  0  0  0  0  0
  149.5169  133.1876  153.9761 C   0  0  0  0  0  0  0  0  0  0  0  0
  148.1218  133.8034  154.3033 C   0  0  2  0  0  0  0  0  0  0  0  0
  148.3643  135.0751  155.1590 C   0  0  0  0  0  0  0  0  0  0  0  0
  147.2951  132.7818  155.1396 C   0  0  0  0  0  0  0  0  0  0  0  0
  147.8006  132.6203  156.4997 N   0  0  0  0  0  0  0  0  0  0  0  0
  147.0311  132.5818  157.5966 C   0  0  0  0  0  0  0  0  0  0  0  0
  145.8037  132.6792  157.5576 O   0  0  0  0  0  0  0  0  0  0  0  0
  147.7685  132.3826  158.9291 C   0  0  0  0  0  0  0  0  0  0  0  0
  147.6014  133.5086  159.8596 N   0  0  0  0  0  0  0  0  0  0  0  0
  146.7542  133.3927  160.9525 C   0  0  0  0  0  0  0  0  0  0  0  0
  146.5461  134.3905  161.8440 C   0  0  0  0  0  0  0  0  0  0  0  0
  147.2251  135.6725  161.6897 C   0  0  0  0  0  0  0  0  0  0  0  0
  147.1041  136.6348  162.4445 O   0  0  0  0  0  0  0  0  0  0  0  0
  148.0662  135.7513  160.5764 N   0  0  0  0  0  0  0  0  0  0  0  0
  148.2828  134.7279  159.6522 C   0  0  0  0  0  0  0  0  0  0  0  0
  149.0419  134.9047  158.7001 O   0  0  0  0  0  0  0  0  0  0  0  0
  147.3986  134.1597  153.0276 N   0  3  0  0  0  0  0  0  0  0  0  0
  147.2259  133.0507  152.0463 C   0  0  0  0  0  0  0  0  0  0  0  0
  146.6722  133.5896  150.7177 C   0  0  0  0  0  0  0  0  0  0  0  0
  145.4309  134.2394  150.9516 O   0  0  0  0  0  0  0  0  0  0  0  0
  145.5767  135.3534  151.8207 C   0  0  0  0  0  0  0  0  0  0  0  0
  146.1068  134.8863  153.1875 C   0  0  0  0  0  0  0  0  0  0  0  0
  148.5558  136.6216  160.4268 H   0  0  0  0  0  0  0  0  0  0  0  0
  151.4102  132.5795  154.8540 H   0  0  0  0  0  0  0  0  0  0  0  0
  150.0461  132.3583  155.9350 H   0  0  0  0  0  0  0  0  0  0  0  0
  150.6980  133.9720  155.6495 H   0  0  0  0  0  0  0  0  0  0  0  0
  150.0216  133.7720  153.2072 H   0  0  0  0  0  0  0  0  0  0  0  0
  149.3856  132.2046  153.5221 H   0  0  0  0  0  0  0  0  0  0  0  0
  149.0783  134.8925  155.9628 H   0  0  0  0  0  0  0  0  0  0  0  0
  147.4500  135.4258  155.6381 H   0  0  0  0  0  0  0  0  0  0  0  0
  148.7589  135.8970  154.5610 H   0  0  0  0  0  0  0  0  0  0  0  0
  146.2515  133.0901  155.2085 H   0  0  0  0  0  0  0  0  0  0  0  0
  147.3022  131.8020  154.6612 H   0  0  0  0  0  0  0  0  0  0  0  0
  148.8002  132.5333  156.6144 H   0  0  0  0  0  0  0  0  0  0  0  0
  147.4020  131.4617  159.3854 H   0  0  0  0  0  0  0  0  0  0  0  0
  148.8287  132.2047  158.7366 H   0  0  0  0  0  0  0  0  0  0  0  0
  146.2264  132.4617  161.1043 H   0  0  0  0  0  0  0  0  0  0  0  0
  145.8724  134.2393  162.6752 H   0  0  0  0  0  0  0  0  0  0  0  0
  148.1676  132.5466  151.8393 H   0  0  0  0  0  0  0  0  0  0  0  0
  146.5385  132.3005  152.4375 H   0  0  0  0  0  0  0  0  0  0  0  0
  147.3788  134.2766  150.2491 H   0  0  0  0  0  0  0  0  0  0  0  0
  146.5132  132.7696  150.0171 H   0  0  0  0  0  0  0  0  0  0  0  0
  146.2454  136.0923  151.3759 H   0  0  0  0  0  0  0  0  0  0  0  0
  144.6062  135.8355  151.9404 H   0  0  0  0  0  0  0  0  0  0  0  0
  145.3681  134.2415  153.6638 H   0  0  0  0  0  0  0  0  0  0  0  0
  146.2161  135.7693  153.8140 H   0  0  0  0  0  0  0  0  0  0  0  0
  148.0113  134.8204  152.5712 H   0  0  0  0  0  0  0  0  0  0  0  0
  1  2  1  0  0  0  0
  1 25  1  0  0  0  0
  1 26  1  0  0  0  0
  1 27  1  0  0  0  0
  2  3  1  0  0  0  0
  2 28  1  0  0  0  0
  2 29  1  0  0  0  0
  3  4  1  0  0  0  0
  3  5  1  0  0  0  0
  3 18  1  0  0  0  0
  4 30  1  0  0  0  0
  4 31  1  0  0  0  0
  4 32  1  0  0  0  0
  5  6  1  0  0  0  0
  5 33  1  0  0  0  0
  5 34  1  0  0  0  0
  6  7  1  0  0  0  0
  6 35  1  0  0  0  0
  7  8  2  0  0  0  0
  7  9  1  0  0  0  0
  9 10  1  0  0  0  0
  9 36  1  0  0  0  0
  9 37  1  0  0  0  0
 10 16  1  0  0  0  0
 10 11  1  0  0  0  0
 11 12  2  0  0  0  0
 11 38  1  0  0  0  0
 12 13  1  0  0  0  0
 12 39  1  0  0  0  0
 13 14  2  0  0  0  0
 13 15  1  0  0  0  0
 15 24  1  0  0  0  0
 15 16  1  0  0  0  0
 16 17  2  0  0  0  0
 18 23  1  0  0  0  0
 18 19  1  0  0  0  0
 18 48  1  0  0  0  0
 19 20  1  0  0  0  0
 19 40  1  0  0  0  0
 19 41  1  0  0  0  0
 20 21  1  0  0  0  0
 20 42  1  0  0  0  0
 20 43  1  0  0  0  0
 21 22  1  0  0  0  0
 22 23  1  0  0  0  0
 22 44  1  0  0  0  0
 22 45  1  0  0  0  0
 23 46  1  0  0  0  0
 23 47  1  0  0  0  0
M  CHG  1  18   1
M  END
> <s_m_source_file>
AV-unprocessed.smi

> <i_m_source_file_index>
1560

> <i_lp_mmshare_version>
43012

> <i_f3d_flags>
0

> <s_epik_input>
W0NIMl0xW0NIMl1PW0NIMl1bQ0gyXU4xW0NAQF0oW0NIM10pKFtDSDJdW0NIM10pW0NIMl1bTkhdQyg9TylbQ0gyXW4yW2NIXVtjSF1jKD1PKVtuSF1jMj1P

> <s_epik_cmdline>
J2VwaWtfcHl0aG9uJywgJy1waCcsICc3LjAnLCAnLXRuJywgJzgnLCAnLW1hJywgJzIwMCcsICctbWV0YWxfYmluZGluZycsICctaW1hZScsICc8aW5maWxlLm1hZT4nLCAnLW9tYWUnLCAnPG91dGZpbGUubWFlPic=

> <r_lp_tautomer_probability>
0.999537

> <r_epik_Ionization_Penalty>
0.523885

> <r_epik_Ionization_Penalty_Charging>
0.523885

> <r_epik_Ionization_Penalty_Neutral>
8.70177e-08

> <r_epik_State_Penalty>
0.572334

> <r_epik_Charging_Adjusted_Penalty>
1.09622

> <i_epik_Tot_Q>
1

> <i_epik_Tot_abs_Q>
1

> <r_epik_Metal_State_Penalty>
0.938906

> <b_epik_Metal_Only>
0

> <s_lp_Force_Field>
OPLS_2005

> <r_lp_Energy>
29.9369

> <b_lp_Chiralities_Consistent>
1

> <s_lp_Variant>
AV-unprocessed.smi:1560-4

> <Gold.Version>
5.8.1

> <Gold.Id.Protein>
6NUR|6NUR_protein|mol2

> <Gold.PLP.Fitness>
42.5721

> <Gold.PLP.PLP>
-30.4641

> <Gold.PLP.part.hbond>
-4.0000

> <Gold.PLP.part.metal>
0.0000

> <Gold.PLP.part.buried>
-4.5236

> <Gold.PLP.part.nonpolar>
-21.6922

> <Gold.PLP.part.repulsive>
0.3800

> <Gold.PLP.ligand.clash>
0.0000

> <Gold.PLP.ligand.torsion>
0.5271

> <Gold.PLP.Chemscore.Hbond>
4.2430

> <Gold.PLP.Chemscore.CHOScore>
0.0000

> <Gold.PLP.Chemscore.Metal>
0.0000

> <Gold.Chemscore.Hbonds>
donor molecule, donor type, donor heavy atom, donor atom, acceptor molecule, acceptor atom, score
      L1  H    18    48       P1  7948  2.00
      P1  H  6896  6907       L1    17  1.00

> <Gold.PLP.Chemscore.Internal.Correction>
0.4332

> <Gold.Rescore>
     Score         DG    S(hbond)    S(metal)    S(lipo)     H(rot)  DE(clash)    DE(int)     intcor
     12.99     -13.86       2.58        0.00      53.99       2.56       0.01       0.87       ----

> <Gold.Chemscore.Fitness>
12.9894

> <Gold.Chemscore.DG>
-13.8608

> <Gold.Chemscore.ZeroCoef>
-5.4800

> <Gold.Chemscore.Hbond>
2.5828

> <Gold.Chemscore.Metal>
0.0000

> <Gold.Chemscore.Lipo>
53.9898

> <Gold.Chemscore.Internal_Hbond>
0.0000

> <Gold.Chemscore.DEClash>
0.0053

> <Gold.Chemscore.DEInternal>
0.8662

> <Gold.Chemscore.Rot>
2.5634

> <Gold.Chemscore.Internal.Correction>
   9.000000E+99

> <Gold.Chemscore.Hbonds>
donor molecule, donor type, donor heavy atom, donor atom, acceptor molecule, acceptor atom, score
      L1  H    18    48       P1  7948  0.74
      P1  H  6896  6907       L1    17  0.26

> <Gold.Chemscore.Hbond.Weighted>
-8.6264

> <Gold.Chemscore.Metal.Weighted>
-0.0000

> <Gold.Chemscore.Lipo.Weighted>
-6.3168

> <Gold.Chemscore.Internal_Hbond.Weighted>
0.0000

> <Gold.Chemscore.DEClash.Weighted>
0.0053

> <Gold.Chemscore.DEInternal.Weighted>
0.8662

> <Gold.Chemscore.Rot.Weighted>
6.5624

> <Gold.Chemscore.Internal.Correction.Weighted>
   9.000000E+99

> <Gold.Protein.RotatedTorsions>
[ 6907 6896 6895 6894 ] final  -80.25 input  -60.11 | X-H torsion
[ 7974 7965 7964 7962 ] final  -85.55 input  175.53 | X-H torsion
[ 8008 7997 7996 7995 ] final  129.04 input   59.86 | X-H torsion
[ 10167 10162 10161 10158 ] final  -45.18 input  -65.29 | X-H torsion
[ 10718 10713 10712 10709 ] final  -20.05 input   66.30 | X-H torsion
[ 10763 10752 10751 10750 ] final -166.84 input  -60.55 | X-H torsion
[ 11005 11000 10999 10996 ] final   -6.78 input  -57.11 | X-H torsion

> <Gold.Protein.ActiveResidues>
 VAL166  LYS551  ARG553  GLY616  TRP617  ASP618  TYR619  PRO620  LYS621  CYS622 
 ASP623  PHE694  ASN695  SER759  ASP760  ASP761  ALA762  ILE779  LEU786  VAL792 
 PHE793  MET794  SER795  GLU796  ALA797  LYS798  CYS799  TRP800  GLU811  SER814 

> <Gold.Protein.RotatedAtoms>
  150.6933  134.3998  159.5113 H   0  0  0  0  0  0  0  0  0  0  0  0  # atno 6907 bound_to 6896
  152.1773  134.8781  160.0538 H   0  0  0  0  0  0  0  0  0  0  0  0  # atno 6908 bound_to 6896
  151.9785  133.3715  159.4135 H   0  0  0  0  0  0  0  0  0  0  0  0  # atno 6909 bound_to 6896
  145.4918  140.9552  143.1808 H   0  0  0  0  0  0  0  0  0  0  0  0  # atno 7974 bound_to 7965
  156.2928  140.2630  156.2534 H   0  0  0  0  0  0  0  0  0  0  0  0  # atno 8008 bound_to 7997
  154.9860  140.0389  157.2317 H   0  0  0  0  0  0  0  0  0  0  0  0  # atno 8009 bound_to 7997
  154.7728  140.2781  155.6129 H   0  0  0  0  0  0  0  0  0  0  0  0  # atno 8010 bound_to 7997
  140.6868  143.2892  151.3602 H   0  0  0  0  0  0  0  0  0  0  0  0  # atno 10167 bound_to 10162
  156.5372  130.4669  149.6517 H   0  0  0  0  0  0  0  0  0  0  0  0  # atno 10718 bound_to 10713
  154.6792  135.2952  154.9636 H   0  0  0  0  0  0  0  0  0  0  0  0  # atno 10763 bound_to 10752
  154.0637  135.6628  153.4819 H   0  0  0  0  0  0  0  0  0  0  0  0  # atno 10764 bound_to 10752
  153.0536  135.5158  154.7827 H   0  0  0  0  0  0  0  0  0  0  0  0  # atno 10765 bound_to 10752
  140.7056  133.8952  155.8714 H   0  0  0  0  0  0  0  0  0  0  0  0  # atno 11005 bound_to 11000
  144.7830  139.6487  143.7146 LP  0  0  0  0  0  0  0  0  0  0  0  0  # atno 17320 bound_to 7965
  146.2279  139.5758  142.9574 LP  0  0  0  0  0  0  0  0  0  0  0  0  # atno 17321 bound_to 7965
  139.6233  144.0863  152.2411 LP  0  0  0  0  0  0  0  0  0  0  0  0  # atno 17342 bound_to 10162
  140.0314  144.6077  150.7484 LP  0  0  0  0  0  0  0  0  0  0  0  0  # atno 17343 bound_to 10162
  156.3005  130.7174  151.2044 LP  0  0  0  0  0  0  0  0  0  0  0  0  # atno 17370 bound_to 10713
  157.7411  131.0507  150.5116 LP  0  0  0  0  0  0  0  0  0  0  0  0  # atno 17371 bound_to 10713
  141.0127  134.0998  157.4204 LP  0  0  0  0  0  0  0  0  0  0  0  0  # atno 17394 bound_to 11000
  139.8885  135.0098  156.6624 LP  0  0  0  0  0  0  0  0  0  0  0  0  # atno 17395 bound_to 11000

$$$$
