AV-unprocessed.smi:23|AV-procd|sdf|174|dock8
  -GOLD-   2262015433D 1   1.00000     0.00000
 Structure written by MMmdl.
 53 56  0  0  0  0  0  0  0  0  1 V2000
  152.3630  143.2101  161.7552 C   0  0  0  0  0  0  0  0  0  0  0  0
  152.1379  142.0621  160.9454 O   0  0  0  0  0  0  0  0  0  0  0  0
  152.2038  142.1983  159.5218 C   0  0  2  0  0  0  0  0  0  0  0  0
  153.6608  142.6499  159.2956 C   0  0  0  0  0  0  0  0  0  0  0  0
  151.2001  143.2702  159.0233 C   0  0  0  0  0  0  0  0  0  0  0  0
  151.2004  143.3788  157.4880 C   0  0  0  0  0  0  0  0  0  0  0  0
  150.9840  142.0043  156.8331 C   0  0  0  0  0  0  0  0  0  0  0  0
  151.9463  141.0276  157.3441 N   0  0  0  0  0  0  0  0  0  0  0  0
  152.1410  139.8895  156.6324 C   0  0  0  0  0  0  0  0  0  0  0  0
  153.0225  139.8787  155.5969 N   0  0  0  0  0  0  0  0  0  0  0  0
  153.2092  138.7651  154.8823 C   0  0  0  0  0  0  0  0  0  0  0  0
  152.6339  137.5706  155.0324 N   0  0  0  0  0  0  0  0  0  0  0  0
  151.7576  137.5706  156.0776 C   0  0  0  0  0  0  0  0  0  0  0  0
  151.4504  138.6779  156.9182 C   0  0  0  0  0  0  0  0  0  0  0  0
  150.5094  138.3023  157.8698 N   0  0  0  0  0  0  0  0  0  0  0  0
  150.2620  137.0505  157.5961 C   0  0  0  0  0  0  0  0  0  0  0  0
  150.9902  136.5216  156.5541 N   0  0  0  0  0  0  0  0  0  0  0  0
  150.8880  135.1934  156.0229 C   0  0  0  0  0  0  0  0  0  0  0  0
  150.8224  134.9478  154.5122 C   0  0  0  0  0  0  0  0  0  0  0  0
  149.8361  133.7793  154.7321 C   0  0  0  0  0  0  0  0  0  0  0  0
  148.6084  133.7785  153.8082 C   0  0  0  0  0  0  0  0  0  0  0  0
  148.0523  135.0723  153.6873 O   0  0  0  0  0  0  0  0  0  0  0  0
  150.4207  132.3491  154.7112 C   0  0  0  0  0  0  0  0  0  0  0  0
  151.5786  132.2032  155.5080 O   0  0  0  0  0  0  0  0  0  0  0  0
  149.5835  134.3968  156.1259 C   0  0  0  0  0  0  0  0  0  0  0  0
  151.9443  140.8543  158.7971 C   0  0  0  0  0  0  0  0  0  0  0  0
  152.3208  142.9105  162.8023 H   0  0  0  0  0  0  0  0  0  0  0  0
  151.5956  143.9701  161.6127 H   0  0  0  0  0  0  0  0  0  0  0  0
  153.3422  143.6569  161.5906 H   0  0  0  0  0  0  0  0  0  0  0  0
  153.8966  142.7804  158.2398 H   0  0  0  0  0  0  0  0  0  0  0  0
  154.3627  141.9147  159.6906 H   0  0  0  0  0  0  0  0  0  0  0  0
  153.8625  143.5973  159.7965 H   0  0  0  0  0  0  0  0  0  0  0  0
  150.1867  143.0168  159.3309 H   0  0  0  0  0  0  0  0  0  0  0  0
  151.4224  144.2396  159.4704 H   0  0  0  0  0  0  0  0  0  0  0  0
  150.4213  144.0694  157.1642 H   0  0  0  0  0  0  0  0  0  0  0  0
  152.1423  143.8051  157.1429 H   0  0  0  0  0  0  0  0  0  0  0  0
  149.9724  141.6495  157.0354 H   0  0  0  0  0  0  0  0  0  0  0  0
  151.0819  142.0999  155.7508 H   0  0  0  0  0  0  0  0  0  0  0  0
  153.9227  138.8419  154.0751 H   0  0  0  0  0  0  0  0  0  0  0  0
  149.5410  136.4736  158.1570 H   0  0  0  0  0  0  0  0  0  0  0  0
  151.7139  134.6359  156.4661 H   0  0  0  0  0  0  0  0  0  0  0  0
  150.3704  135.7825  153.9736 H   0  0  0  0  0  0  0  0  0  0  0  0
  151.7736  134.6642  154.0609 H   0  0  0  0  0  0  0  0  0  0  0  0
  148.8616  133.4074  152.8145 H   0  0  0  0  0  0  0  0  0  0  0  0
  147.8312  133.1183  154.1941 H   0  0  0  0  0  0  0  0  0  0  0  0
  148.3650  135.4603  152.8842 H   0  0  0  0  0  0  0  0  0  0  0  0
  149.6841  131.6267  155.0643 H   0  0  0  0  0  0  0  0  0  0  0  0
  150.6873  132.0513  153.6967 H   0  0  0  0  0  0  0  0  0  0  0  0
  151.5851  132.8903  156.1569 H   0  0  0  0  0  0  0  0  0  0  0  0
  149.5590  133.6810  156.9484 H   0  0  0  0  0  0  0  0  0  0  0  0
  148.7063  135.0455  156.1528 H   0  0  0  0  0  0  0  0  0  0  0  0
  152.6755  140.1133  159.1194 H   0  0  0  0  0  0  0  0  0  0  0  0
  150.9645  140.4572  159.0617 H   0  0  0  0  0  0  0  0  0  0  0  0
  1  2  1  0  0  0  0
  1 27  1  0  0  0  0
  1 28  1  0  0  0  0
  1 29  1  0  0  0  0
  2  3  1  0  0  0  0
  3 26  1  0  0  0  0
  3  4  1  0  0  0  0
  3  5  1  0  0  0  0
  4 30  1  0  0  0  0
  4 31  1  0  0  0  0
  4 32  1  0  0  0  0
  5  6  1  0  0  0  0
  5 33  1  0  0  0  0
  5 34  1  0  0  0  0
  6  7  1  0  0  0  0
  6 35  1  0  0  0  0
  6 36  1  0  0  0  0
  7  8  1  0  0  0  0
  7 37  1  0  0  0  0
  7 38  1  0  0  0  0
  8  9  1  0  0  0  0
  8 26  1  0  0  0  0
  9 14  1  0  0  0  0
  9 10  2  0  0  0  0
 10 11  1  0  0  0  0
 11 12  2  0  0  0  0
 11 39  1  0  0  0  0
 12 13  1  0  0  0  0
 13 17  1  0  0  0  0
 13 14  2  0  0  0  0
 14 15  1  0  0  0  0
 15 16  2  0  0  0  0
 16 17  1  0  0  0  0
 16 40  1  0  0  0  0
 17 18  1  0  0  0  0
 18 25  1  0  0  0  0
 18 19  1  0  0  0  0
 18 41  1  0  0  0  0
 19 20  1  0  0  0  0
 19 42  1  0  0  0  0
 19 43  1  0  0  0  0
 20 21  1  0  0  0  0
 20 23  1  0  0  0  0
 20 25  1  0  0  0  0
 21 22  1  0  0  0  0
 21 44  1  0  0  0  0
 21 45  1  0  0  0  0
 22 46  1  0  0  0  0
 23 24  1  0  0  0  0
 23 47  1  0  0  0  0
 23 48  1  0  0  0  0
 24 49  1  0  0  0  0
 25 50  1  0  0  0  0
 25 51  1  0  0  0  0
 26 52  1  0  0  0  0
 26 53  1  0  0  0  0
M  END
> <s_m_source_file>
AV-unprocessed.smi

> <i_m_source_file_index>
23

> <i_lp_mmshare_version>
43012

> <i_f3d_flags>
0

> <s_epik_input>
W0NIM11PW0NAQF0xKFtDSDNdKVtDSDJdW0NIMl1bQ0gyXU4oW0NIMl0xKWMobltjSF1uMiljKGMyMyluW2NIXW4zW0NIXShbQ0gyXTQpW0NIMl1DNChbQ0gyXVtPSF0pW0NIMl1bT0hd

> <s_epik_cmdline>
J2VwaWtfcHl0aG9uJywgJy1waCcsICc3LjAnLCAnLXRuJywgJzgnLCAnLW1hJywgJzIwMCcsICctbWV0YWxfYmluZGluZycsICctaW1hZScsICc8aW5maWxlLm1hZT4nLCAnLW9tYWUnLCAnPG91dGZpbGUubWFlPic=

> <r_lp_tautomer_probability>
1

> <r_epik_Ionization_Penalty>
0.00233978

> <r_epik_Ionization_Penalty_Charging>
0

> <r_epik_Ionization_Penalty_Neutral>
0.00233978

> <r_epik_State_Penalty>
0.00146422

> <r_epik_Charging_Adjusted_Penalty>
0.00146422

> <i_epik_Tot_Q>
0

> <i_epik_Tot_abs_Q>
0

> <r_epik_Metal_State_Penalty>
-0

> <b_epik_Metal_Only>
0

> <s_lp_Force_Field>
OPLS_2005

> <r_lp_Energy>
49.2291

> <b_lp_Chiralities_Consistent>
1

> <s_lp_Variant>
AV-unprocessed.smi:23-2

> <Gold.Version>
5.8.1

> <Gold.Id.Protein>
6NUR|6NUR_protein|mol2

> <Gold.PLP.Fitness>
47.5782

> <Gold.PLP.PLP>
-41.0725

> <Gold.PLP.part.hbond>
-3.5213

> <Gold.PLP.part.metal>
0.0000

> <Gold.PLP.part.buried>
-5.7695

> <Gold.PLP.part.nonpolar>
-31.6322

> <Gold.PLP.part.repulsive>
0.0940

> <Gold.PLP.ligand.clash>
0.0000

> <Gold.PLP.ligand.torsion>
1.2320

> <Gold.PLP.Chemscore.Hbond>
2.7040

> <Gold.PLP.Chemscore.CHOScore>
0.0000

> <Gold.PLP.Chemscore.Metal>
0.0000

> <Gold.Chemscore.Hbonds>
donor molecule, donor type, donor heavy atom, donor atom, acceptor molecule, acceptor atom, score
      L1  H    22    46       P1  7948  0.65
      P1  H  7997  8010       L1    10  1.00
      P1  H 10752 10765       L1    12  0.51

> <Gold.PLP.Chemscore.Internal.Correction>
0.8577

> <Gold.Rescore>
     Score         DG    S(hbond)    S(metal)    S(lipo)     H(rot)  DE(clash)    DE(int)     intcor
     15.04     -16.55       2.49        0.00      97.48       3.38       0.04       1.47       ----

> <Gold.Chemscore.Fitness>
15.0401

> <Gold.Chemscore.DG>
-16.5491

> <Gold.Chemscore.ZeroCoef>
-5.4800

> <Gold.Chemscore.Hbond>
2.4929

> <Gold.Chemscore.Metal>
0.0000

> <Gold.Chemscore.Lipo>
97.4804

> <Gold.Chemscore.Internal_Hbond>
0.0000

> <Gold.Chemscore.DEClash>
0.0411

> <Gold.Chemscore.DEInternal>
1.4679

> <Gold.Chemscore.Rot>
3.3837

> <Gold.Chemscore.Internal.Correction>
   9.000000E+99

> <Gold.Chemscore.Hbonds>
donor molecule, donor type, donor heavy atom, donor atom, acceptor molecule, acceptor atom, score
      L1  H    22    46       P1  7948  0.64
      P1  H  7997  8010       L1    10  0.13
      P1  H 10752 10765       L1    12  0.25

> <Gold.Chemscore.Hbond.Weighted>
-8.3262

> <Gold.Chemscore.Metal.Weighted>
-0.0000

> <Gold.Chemscore.Lipo.Weighted>
-11.4052

> <Gold.Chemscore.Internal_Hbond.Weighted>
0.0000

> <Gold.Chemscore.DEClash.Weighted>
0.0411

> <Gold.Chemscore.DEInternal.Weighted>
1.4679

> <Gold.Chemscore.Rot.Weighted>
8.6622

> <Gold.Chemscore.Internal.Correction.Weighted>
   9.000000E+99

> <Gold.Protein.RotatedTorsions>
[ 6907 6896 6895 6894 ] final  -24.70 input  -60.11 | X-H torsion
[ 7974 7965 7964 7962 ] final  153.61 input  175.53 | X-H torsion
[ 8008 7997 7996 7995 ] final   74.71 input   59.86 | X-H torsion
[ 10167 10162 10161 10158 ] final   15.81 input  -65.29 | X-H torsion
[ 10718 10713 10712 10709 ] final   17.74 input   66.30 | X-H torsion
[ 10763 10752 10751 10750 ] final -176.41 input  -60.55 | X-H torsion
[ 11005 11000 10999 10996 ] final   35.28 input  -57.11 | X-H torsion

> <Gold.Protein.ActiveResidues>
 VAL166  LYS551  ARG553  GLY616  TRP617  ASP618  TYR619  PRO620  LYS621  CYS622 
 ASP623  PHE694  ASN695  SER759  ASP760  ASP761  ALA762  ILE779  LEU786  VAL792 
 PHE793  MET794  SER795  GLU796  ALA797  LYS798  CYS799  TRP800  GLU811  SER814 

> <Gold.Protein.RotatedAtoms>
  151.1858  135.0381  159.8811 H   0  0  0  0  0  0  0  0  0  0  0  0  # atno 6907 bound_to 6896
  152.5442  134.1012  159.8328 H   0  0  0  0  0  0  0  0  0  0  0  0  # atno 6908 bound_to 6896
  151.1134  133.5109  159.2637 H   0  0  0  0  0  0  0  0  0  0  0  0  # atno 6909 bound_to 6896
  144.8143  139.6824  143.6128 H   0  0  0  0  0  0  0  0  0  0  0  0  # atno 7974 bound_to 7965
  155.8023  140.3476  155.5410 H   0  0  0  0  0  0  0  0  0  0  0  0  # atno 8008 bound_to 7997
  155.8525  140.0958  157.1686 H   0  0  0  0  0  0  0  0  0  0  0  0  # atno 8009 bound_to 7997
  154.4008  140.1374  156.3849 H   0  0  0  0  0  0  0  0  0  0  0  0  # atno 8010 bound_to 7997
  140.5841  143.8924  150.6815 H   0  0  0  0  0  0  0  0  0  0  0  0  # atno 10167 bound_to 10162
  157.0864  130.6409  149.5838 H   0  0  0  0  0  0  0  0  0  0  0  0  # atno 10718 bound_to 10713
  154.5726  135.2829  155.0812 H   0  0  0  0  0  0  0  0  0  0  0  0  # atno 10763 bound_to 10752
  154.2178  135.6396  153.5139 H   0  0  0  0  0  0  0  0  0  0  0  0  # atno 10764 bound_to 10752
  153.0062  135.5507  154.6355 H   0  0  0  0  0  0  0  0  0  0  0  0  # atno 10765 bound_to 10752
  140.2443  134.3378  155.7914 H   0  0  0  0  0  0  0  0  0  0  0  0  # atno 11005 bound_to 11000
  146.2445  139.6069  142.9469 LP  0  0  0  0  0  0  0  0  0  0  0  0  # atno 17320 bound_to 7965
  145.5251  141.0430  143.2414 LP  0  0  0  0  0  0  0  0  0  0  0  0  # atno 17321 bound_to 7965
  140.2430  143.3649  152.1470 LP  0  0  0  0  0  0  0  0  0  0  0  0  # atno 17342 bound_to 10162
  139.5187  144.7009  151.5495 LP  0  0  0  0  0  0  0  0  0  0  0  0  # atno 17343 bound_to 10162
  155.9910  130.4963  150.7279 LP  0  0  0  0  0  0  0  0  0  0  0  0  # atno 17370 bound_to 10713
  157.4758  131.0897  151.0592 LP  0  0  0  0  0  0  0  0  0  0  0  0  # atno 17371 bound_to 10713
  141.2207  133.7316  156.8935 LP  0  0  0  0  0  0  0  0  0  0  0  0  # atno 17394 bound_to 11000
  140.1622  134.9158  157.2729 LP  0  0  0  0  0  0  0  0  0  0  0  0  # atno 17395 bound_to 11000

$$$$
