AV-unprocessed.smi:3086|AV-procd|sdf|11765|dock1
  -GOLD-   2272017143D 1   1.00000     0.00000
 Structure written by MMmdl.
 30 31  0  0  0  0  0  0  0  0  2 V2000
  153.0581  138.3845  154.6610 C   0  0  0  0  0  0  0  0  0  0  0  0
  152.1886  139.4153  155.2959 C   0  0  0  0  0  0  0  0  0  0  0  0
  151.0355  139.8682  154.7251 N   0  0  0  0  0  0  0  0  0  0  0  0
  150.6398  140.7371  155.6489 C   0  0  0  0  0  0  0  0  0  0  0  0
  149.3801  141.5363  155.5627 C   0  0  0  0  0  0  0  0  0  0  0  0
  151.4903  140.8248  156.6832 N   0  0  0  0  0  0  0  0  0  0  0  0
  151.4144  141.6042  157.9146 C   0  0  1  0  0  0  0  0  0  0  0  0
  152.6453  141.3447  158.8040 C   0  0  0  0  0  0  0  0  0  0  0  0
  152.5607  142.1766  160.0929 C   0  0  0  0  0  0  0  0  0  0  0  0
  152.3672  143.6687  159.7744 C   0  0  0  0  0  0  0  0  0  0  0  0
  151.1794  143.8723  158.9164 N   0  3  0  0  0  0  0  0  0  0  0  0
  151.2511  143.1181  157.6459 C   0  0  0  0  0  0  0  0  0  0  0  0
  152.5012  139.9453  156.4755 N   0  0  0  0  0  0  0  0  0  0  0  0
  152.6045  138.0087  153.7433 H   0  0  0  0  0  0  0  0  0  0  0  0
  153.2071  137.5448  155.3404 H   0  0  0  0  0  0  0  0  0  0  0  0
  154.0313  138.8101  154.4153 H   0  0  0  0  0  0  0  0  0  0  0  0
  148.7793  141.2099  154.7132 H   0  0  0  0  0  0  0  0  0  0  0  0
  149.6148  142.5933  155.4361 H   0  0  0  0  0  0  0  0  0  0  0  0
  148.7891  141.4106  156.4702 H   0  0  0  0  0  0  0  0  0  0  0  0
  150.5277  141.2729  158.4567 H   0  0  0  0  0  0  0  0  0  0  0  0
  152.7172  140.2846  159.0505 H   0  0  0  0  0  0  0  0  0  0  0  0
  153.5579  141.6010  158.2635 H   0  0  0  0  0  0  0  0  0  0  0  0
  151.7299  141.8209  160.7039 H   0  0  0  0  0  0  0  0  0  0  0  0
  153.4638  142.0352  160.6874 H   0  0  0  0  0  0  0  0  0  0  0  0
  152.2443  144.2396  160.6950 H   0  0  0  0  0  0  0  0  0  0  0  0
  153.2481  144.0653  159.2678 H   0  0  0  0  0  0  0  0  0  0  0  0
  150.3600  143.5704  159.4240 H   0  0  0  0  0  0  0  0  0  0  0  0
  152.0857  143.5079  157.0614 H   0  0  0  0  0  0  0  0  0  0  0  0
  150.3434  143.3068  157.0718 H   0  0  0  0  0  0  0  0  0  0  0  0
  151.0899  144.8569  158.7083 H   0  0  0  0  0  0  0  0  0  0  0  0
  1  2  1  0  0  0  0
  1 14  1  0  0  0  0
  1 15  1  0  0  0  0
  1 16  1  0  0  0  0
  2 13  2  0  0  0  0
  2  3  1  0  0  0  0
  3  4  2  0  0  0  0
  4  5  1  0  0  0  0
  4  6  1  0  0  0  0
  5 17  1  0  0  0  0
  5 18  1  0  0  0  0
  5 19  1  0  0  0  0
  6  7  1  0  0  0  0
  6 13  1  0  0  0  0
  7 12  1  0  0  0  0
  7  8  1  0  0  0  0
  7 20  1  0  0  0  0
  8  9  1  0  0  0  0
  8 21  1  0  0  0  0
  8 22  1  0  0  0  0
  9 10  1  0  0  0  0
  9 23  1  0  0  0  0
  9 24  1  0  0  0  0
 10 11  1  0  0  0  0
 10 25  1  0  0  0  0
 10 26  1  0  0  0  0
 11 12  1  0  0  0  0
 11 27  1  0  0  0  0
 11 30  1  0  0  0  0
 12 28  1  0  0  0  0
 12 29  1  0  0  0  0
M  CHG  1  11   1
M  END
> <s_m_source_file>
AV-unprocessed.smi

> <i_m_source_file_index>
3086

> <i_lp_mmshare_version>
43012

> <i_f3d_flags>
0

> <s_epik_input>
W0NIM11jMW5jKFtDSDNdKW4objEpW0NAQEhdMltDSDJdW0NIMl1bQ0gyXVtOSF1bQ0gyXTI=

> <s_epik_cmdline>
J2VwaWtfcHl0aG9uJywgJy1waCcsICc3LjAnLCAnLXRuJywgJzgnLCAnLW1hJywgJzIwMCcsICctbWV0YWxfYmluZGluZycsICctaW1hZScsICc8aW5maWxlLm1hZT4nLCAnLW9tYWUnLCAnPG91dGZpbGUubWFlPic=

> <r_lp_tautomer_probability>
1

> <r_epik_Ionization_Penalty>
0.000522417

> <r_epik_Ionization_Penalty_Charging>
0.000474443

> <r_epik_Ionization_Penalty_Neutral>
4.79736e-05

> <r_epik_State_Penalty>
-0

> <r_epik_Charging_Adjusted_Penalty>
0.000474443

> <i_epik_Tot_Q>
1

> <i_epik_Tot_abs_Q>
1

> <r_epik_Metal_State_Penalty>
-0

> <b_epik_Metal_Only>
0

> <s_lp_Force_Field>
OPLS_2005

> <r_lp_Energy>
16.4369

> <b_lp_Chiralities_Consistent>
1

> <s_lp_Variant>
AV-unprocessed.smi:3086-2

> <Gold.Version>
5.8.1

> <Gold.Id.Protein>
6NUR|6NUR_protein|mol2

> <Gold.PLP.Fitness>
36.5645

> <Gold.PLP.PLP>
-30.6189

> <Gold.PLP.part.hbond>
-2.0000

> <Gold.PLP.part.metal>
0.0000

> <Gold.PLP.part.buried>
-2.0498

> <Gold.PLP.part.nonpolar>
-26.5448

> <Gold.PLP.part.repulsive>
0.1276

> <Gold.PLP.ligand.clash>
0.0000

> <Gold.PLP.ligand.torsion>
0.0478

> <Gold.PLP.Chemscore.Hbond>
2.0000

> <Gold.PLP.Chemscore.CHOScore>
0.0000

> <Gold.PLP.Chemscore.Metal>
0.0000

> <Gold.Chemscore.Hbonds>
donor molecule, donor type, donor heavy atom, donor atom, acceptor molecule, acceptor atom, score
      P1  H  7989  7998       L1     3  1.00
      P1  H  7997  8008       L1    13  1.00

> <Gold.PLP.Chemscore.Internal.Correction>
0.0413

> <Gold.Rescore>
     Score         DG    S(hbond)    S(metal)    S(lipo)     H(rot)  DE(clash)    DE(int)     intcor
     13.59     -13.71       0.92        0.00      65.82       1.00       0.10       0.02       ----

> <Gold.Chemscore.Fitness>
13.5892

> <Gold.Chemscore.DG>
-13.7087

> <Gold.Chemscore.ZeroCoef>
-5.4800

> <Gold.Chemscore.Hbond>
0.9245

> <Gold.Chemscore.Metal>
0.0000

> <Gold.Chemscore.Lipo>
65.8194

> <Gold.Chemscore.Internal_Hbond>
0.0000

> <Gold.Chemscore.DEClash>
0.0990

> <Gold.Chemscore.DEInternal>
0.0206

> <Gold.Chemscore.Rot>
1.0000

> <Gold.Chemscore.Internal.Correction>
   9.000000E+99

> <Gold.Chemscore.Hbonds>
donor molecule, donor type, donor heavy atom, donor atom, acceptor molecule, acceptor atom, score
      P1  H  7989  7998       L1     3  0.12
      P1  H  7997  8008       L1    13  0.35

> <Gold.Chemscore.Hbond.Weighted>
-3.0878

> <Gold.Chemscore.Metal.Weighted>
-0.0000

> <Gold.Chemscore.Lipo.Weighted>
-7.7009

> <Gold.Chemscore.Internal_Hbond.Weighted>
0.0000

> <Gold.Chemscore.DEClash.Weighted>
0.0990

> <Gold.Chemscore.DEInternal.Weighted>
0.0206

> <Gold.Chemscore.Rot.Weighted>
2.5600

> <Gold.Chemscore.Internal.Correction.Weighted>
   9.000000E+99

> <Gold.Protein.RotatedTorsions>
[ 6907 6896 6895 6894 ] final -151.68 input  -60.11 | X-H torsion
[ 7974 7965 7964 7962 ] final  -93.68 input  175.53 | X-H torsion
[ 8008 7997 7996 7995 ] final  -41.41 input   59.86 | X-H torsion
[ 10167 10162 10161 10158 ] final  -97.03 input  -65.29 | X-H torsion
[ 10718 10713 10712 10709 ] final   25.63 input   66.30 | X-H torsion
[ 10763 10752 10751 10750 ] final   14.64 input  -60.55 | X-H torsion
[ 11005 11000 10999 10996 ] final  -52.32 input  -57.11 | X-H torsion

> <Gold.Protein.ActiveResidues>
 VAL166  LYS551  ARG553  GLY616  TRP617  ASP618  TYR619  PRO620  LYS621  CYS622 
 ASP623  PHE694  ASN695  SER759  ASP760  ASP761  ALA762  ILE779  LEU786  VAL792 
 PHE793  MET794  SER795  GLU796  ALA797  LYS798  CYS799  TRP800  GLU811  SER814 

> <Gold.Protein.RotatedAtoms>
  151.2166  133.4526  159.2599 H   0  0  0  0  0  0  0  0  0  0  0  0  # atno 6907 bound_to 6896
  151.0925  134.9924  159.8420 H   0  0  0  0  0  0  0  0  0  0  0  0  # atno 6908 bound_to 6896
  152.5436  134.2099  159.8798 H   0  0  0  0  0  0  0  0  0  0  0  0  # atno 6909 bound_to 6896
  145.3833  140.9520  143.2381 H   0  0  0  0  0  0  0  0  0  0  0  0  # atno 7974 bound_to 7965
  154.4004  140.1500  156.3187 H   0  0  0  0  0  0  0  0  0  0  0  0  # atno 8008 bound_to 7997
  155.8550  140.3456  155.5696 H   0  0  0  0  0  0  0  0  0  0  0  0  # atno 8009 bound_to 7997
  155.7943  140.0861  157.1982 H   0  0  0  0  0  0  0  0  0  0  0  0  # atno 8010 bound_to 7997
  140.2876  143.3242  152.0378 H   0  0  0  0  0  0  0  0  0  0  0  0  # atno 10167 bound_to 10162
  157.1960  130.6868  149.6169 H   0  0  0  0  0  0  0  0  0  0  0  0  # atno 10718 bound_to 10713
  153.1602  135.6794  153.8753 H   0  0  0  0  0  0  0  0  0  0  0  0  # atno 10763 bound_to 10752
  153.8151  135.3137  155.3406 H   0  0  0  0  0  0  0  0  0  0  0  0  # atno 10764 bound_to 10752
  154.7927  135.4825  154.0178 H   0  0  0  0  0  0  0  0  0  0  0  0  # atno 10765 bound_to 10752
  141.0918  133.6631  156.4006 H   0  0  0  0  0  0  0  0  0  0  0  0  # atno 11005 bound_to 11000
  144.8492  139.5349  143.6864 LP  0  0  0  0  0  0  0  0  0  0  0  0  # atno 17320 bound_to 7965
  146.2832  139.6932  142.9214 LP  0  0  0  0  0  0  0  0  0  0  0  0  # atno 17321 bound_to 7965
  139.4946  144.6548  151.6597 LP  0  0  0  0  0  0  0  0  0  0  0  0  # atno 17342 bound_to 10162
  140.5759  144.0029  150.6241 LP  0  0  0  0  0  0  0  0  0  0  0  0  # atno 17343 bound_to 10162
  155.9706  130.4599  150.6052 LP  0  0  0  0  0  0  0  0  0  0  0  0  # atno 17370 bound_to 10713
  157.3814  131.0781  151.1473 LP  0  0  0  0  0  0  0  0  0  0  0  0  # atno 17371 bound_to 10713
  140.5234  134.6282  157.5326 LP  0  0  0  0  0  0  0  0  0  0  0  0  # atno 17394 bound_to 11000
  139.9745  134.7238  155.9976 LP  0  0  0  0  0  0  0  0  0  0  0  0  # atno 17395 bound_to 11000

$$$$
