AV-unprocessed.smi:1709|AV-procd|sdf|6898|dock10
  -GOLD-   22720 8103D 1   1.00000     0.00000
 Structure written by MMmdl.
 43 45  0  0  0  0  0  0  0  0  2 V2000
  144.8122  145.3586  152.7964 C   0  0  0  0  0  0  0  0  0  0  0  0
  143.9231  145.5091  154.0208 C   0  0  0  0  0  0  0  0  0  0  0  0
  142.7485  146.2851  153.9251 C   0  0  0  0  0  0  0  0  0  0  0  0
  141.9248  146.4248  155.0545 C   0  0  0  0  0  0  0  0  0  0  0  0
  142.3132  145.7775  156.2391 C   0  0  0  0  0  0  0  0  0  0  0  0
  143.4343  145.0341  156.3389 N   0  0  0  0  0  0  0  0  0  0  0  0
  144.2449  144.8894  155.2590 C   0  0  0  0  0  0  0  0  0  0  0  0
  145.4493  144.1188  155.2730 N   0  0  0  0  0  0  0  0  0  0  0  0
  145.6788  142.7988  155.1038 C   0  0  0  0  0  0  0  0  0  0  0  0
  144.7534  142.0178  154.8892 O   0  0  0  0  0  0  0  0  0  0  0  0
  146.9588  142.4001  155.1803 N   0  0  0  0  0  0  0  0  0  0  0  0
  147.4359  141.0305  155.0214 C   0  0  1  0  0  0  0  0  0  0  0  0
  146.8894  140.3520  153.7713 C   0  0  0  0  0  0  0  0  0  0  0  0
  147.8784  139.2031  153.5678 C   0  0  0  0  0  0  0  0  0  0  0  0
  149.1906  139.7052  154.0365 N   0  3  2  0  0  0  0  0  0  0  0  0
  150.0378  138.6853  154.7018 C   0  0  0  0  0  0  0  0  0  0  0  0
  151.3867  139.2916  155.1312 C   0  0  0  0  0  0  0  0  0  0  0  0
  151.2361  140.6180  155.9049 C   0  0  0  0  0  0  0  0  0  0  0  0
  149.7653  140.9985  156.1350 C   0  0  0  0  0  0  0  0  0  0  0  0
  148.9581  140.9533  154.8177 C   0  0  2  0  0  0  0  0  0  0  0  0
  144.3941  145.8802  151.9350 H   0  0  0  0  0  0  0  0  0  0  0  0
  144.9214  144.3072  152.5292 H   0  0  0  0  0  0  0  0  0  0  0  0
  145.8019  145.7724  152.9905 H   0  0  0  0  0  0  0  0  0  0  0  0
  142.4790  146.7692  152.9979 H   0  0  0  0  0  0  0  0  0  0  0  0
  141.0195  147.0122  155.0134 H   0  0  0  0  0  0  0  0  0  0  0  0
  141.7098  145.8581  157.1312 H   0  0  0  0  0  0  0  0  0  0  0  0
  146.2835  144.6649  155.4314 H   0  0  0  0  0  0  0  0  0  0  0  0
  147.6560  143.1095  155.3600 H   0  0  0  0  0  0  0  0  0  0  0  0
  147.1457  140.4253  155.8831 H   0  0  0  0  0  0  0  0  0  0  0  0
  145.8605  140.0097  153.8876 H   0  0  0  0  0  0  0  0  0  0  0  0
  146.9271  141.0329  152.9191 H   0  0  0  0  0  0  0  0  0  0  0  0
  147.5672  138.3508  154.1741 H   0  0  0  0  0  0  0  0  0  0  0  0
  147.9262  138.8727  152.5300 H   0  0  0  0  0  0  0  0  0  0  0  0
  149.5143  138.2826  155.5706 H   0  0  0  0  0  0  0  0  0  0  0  0
  150.2039  137.8496  154.0211 H   0  0  0  0  0  0  0  0  0  0  0  0
  151.9309  138.5673  155.7379 H   0  0  0  0  0  0  0  0  0  0  0  0
  152.0026  139.4636  154.2476 H   0  0  0  0  0  0  0  0  0  0  0  0
  151.7569  140.5567  156.8610 H   0  0  0  0  0  0  0  0  0  0  0  0
  151.7263  141.4158  155.3455 H   0  0  0  0  0  0  0  0  0  0  0  0
  149.3284  140.3173  156.8667 H   0  0  0  0  0  0  0  0  0  0  0  0
  149.7062  141.9932  156.5776 H   0  0  0  0  0  0  0  0  0  0  0  0
  149.2800  141.7743  154.1747 H   0  0  0  0  0  0  0  0  0  0  0  0
  149.6969  139.9966  153.2126 H   0  0  0  0  0  0  0  0  0  0  0  0
  1  2  1  0  0  0  0
  1 21  1  0  0  0  0
  1 22  1  0  0  0  0
  1 23  1  0  0  0  0
  2  7  1  0  0  0  0
  2  3  2  0  0  0  0
  3  4  1  0  0  0  0
  3 24  1  0  0  0  0
  4  5  2  0  0  0  0
  4 25  1  0  0  0  0
  5  6  1  0  0  0  0
  5 26  1  0  0  0  0
  6  7  2  0  0  0  0
  7  8  1  0  0  0  0
  8  9  1  0  0  0  0
  8 27  1  0  0  0  0
  9 10  2  0  0  0  0
  9 11  1  0  0  0  0
 11 12  1  0  0  0  0
 11 28  1  0  0  0  0
 12 20  1  0  0  0  0
 12 13  1  0  0  0  0
 12 29  1  0  0  0  0
 13 14  1  0  0  0  0
 13 30  1  0  0  0  0
 13 31  1  0  0  0  0
 14 15  1  0  0  0  0
 14 32  1  0  0  0  0
 14 33  1  0  0  0  0
 15 20  1  0  0  0  0
 15 16  1  0  0  0  0
 15 43  1  0  0  0  0
 16 17  1  0  0  0  0
 16 34  1  0  0  0  0
 16 35  1  0  0  0  0
 17 18  1  0  0  0  0
 17 36  1  0  0  0  0
 17 37  1  0  0  0  0
 18 19  1  0  0  0  0
 18 38  1  0  0  0  0
 18 39  1  0  0  0  0
 19 20  1  0  0  0  0
 19 40  1  0  0  0  0
 19 41  1  0  0  0  0
 20 42  1  0  0  0  0
M  CHG  1  15   1
M  END
> <s_m_source_file>
AV-unprocessed.smi

> <i_m_source_file_index>
1709

> <i_lp_mmshare_version>
43012

> <i_f3d_flags>
0

> <s_epik_input>
W0NIM11jMVtjSF1bY0hdW2NIXW5jMVtOSF1DKD1PKVtOSF1bQ0BIXShbQ0gyXVtDSDJdMilbQ0BASF0oTjIzKVtDSDJdW0NIMl1bQ0gyXVtDSDJdMw==

> <s_epik_cmdline>
J2VwaWtfcHl0aG9uJywgJy1waCcsICc3LjAnLCAnLXRuJywgJzgnLCAnLW1hJywgJzIwMCcsICctbWV0YWxfYmluZGluZycsICctaW1hZScsICc8aW5maWxlLm1hZT4nLCAnLW9tYWUnLCAnPG91dGZpbGUubWFlPic=

> <r_epik_Ionization_Penalty>
0.00101524

> <r_epik_Ionization_Penalty_Charging>
0.000974069

> <r_epik_Ionization_Penalty_Neutral>
4.11757e-05

> <r_epik_State_Penalty>
0.000633842

> <r_epik_Charging_Adjusted_Penalty>
0.00160791

> <i_epik_Tot_Q>
1

> <i_epik_Tot_abs_Q>
1

> <r_epik_Metal_State_Penalty>
-0

> <b_epik_Metal_Only>
0

> <s_lp_Force_Field>
OPLS_2005

> <r_lp_Energy>
44.7523

> <b_lp_Chiralities_Consistent>
1

> <s_lp_Variant>
AV-unprocessed.smi:1709-8

> <Gold.Version>
5.8.1

> <Gold.Id.Protein>
6NUR|6NUR_protein|mol2

> <Gold.PLP.Fitness>
35.0448

> <Gold.PLP.PLP>
-31.2270

> <Gold.PLP.part.hbond>
-1.9585

> <Gold.PLP.part.metal>
0.0000

> <Gold.PLP.part.buried>
0.1873

> <Gold.PLP.part.nonpolar>
-30.2439

> <Gold.PLP.part.repulsive>
0.5118

> <Gold.PLP.ligand.clash>
0.0000

> <Gold.PLP.ligand.torsion>
0.8776

> <Gold.PLP.Chemscore.Hbond>
1.8550

> <Gold.PLP.Chemscore.CHOScore>
0.0000

> <Gold.PLP.Chemscore.Metal>
0.0000

> <Gold.Chemscore.Hbonds>
donor molecule, donor type, donor heavy atom, donor atom, acceptor molecule, acceptor atom, score
      L1  H    11    28       P1  8028  1.00
      L1  H    15    43       P1  7957  0.81

> <Gold.PLP.Chemscore.Internal.Correction>
0.0081

> <Gold.Rescore>
     Score         DG    S(hbond)    S(metal)    S(lipo)     H(rot)  DE(clash)    DE(int)     intcor
     15.54     -17.03       1.35        0.00      81.94       1.00       0.76       0.73       ----

> <Gold.Chemscore.Fitness>
15.5362

> <Gold.Chemscore.DG>
-17.0256

> <Gold.Chemscore.ZeroCoef>
-5.4800

> <Gold.Chemscore.Hbond>
1.3528

> <Gold.Chemscore.Metal>
0.0000

> <Gold.Chemscore.Lipo>
81.9420

> <Gold.Chemscore.Internal_Hbond>
0.0000

> <Gold.Chemscore.DEClash>
0.7594

> <Gold.Chemscore.DEInternal>
0.7300

> <Gold.Chemscore.Rot>
1.0000

> <Gold.Chemscore.Internal.Correction>
   9.000000E+99

> <Gold.Chemscore.Hbonds>
donor molecule, donor type, donor heavy atom, donor atom, acceptor molecule, acceptor atom, score
      L1  H    11    28       P1  8028  0.38
      L1  H    15    43       P1  7957  0.76

> <Gold.Chemscore.Hbond.Weighted>
-4.5183

> <Gold.Chemscore.Metal.Weighted>
-0.0000

> <Gold.Chemscore.Lipo.Weighted>
-9.5872

> <Gold.Chemscore.Internal_Hbond.Weighted>
0.0000

> <Gold.Chemscore.DEClash.Weighted>
0.7594

> <Gold.Chemscore.DEInternal.Weighted>
0.7300

> <Gold.Chemscore.Rot.Weighted>
2.5600

> <Gold.Chemscore.Internal.Correction.Weighted>
   9.000000E+99

> <Gold.Protein.RotatedTorsions>
[ 6907 6896 6895 6894 ] final   28.66 input  -60.11 | X-H torsion
[ 7974 7965 7964 7962 ] final -105.07 input  175.53 | X-H torsion
[ 8008 7997 7996 7995 ] final   -4.68 input   59.86 | X-H torsion
[ 10167 10162 10161 10158 ] final  -67.52 input  -65.29 | X-H torsion
[ 10718 10713 10712 10709 ] final  103.37 input   66.30 | X-H torsion
[ 10763 10752 10751 10750 ] final  -17.70 input  -60.55 | X-H torsion
[ 11005 11000 10999 10996 ] final -144.39 input  -57.11 | X-H torsion

> <Gold.Protein.ActiveResidues>
 VAL166  LYS551  ARG553  GLY616  TRP617  ASP618  TYR619  PRO620  LYS621  CYS622 
 ASP623  PHE694  ASN695  SER759  ASP760  ASP761  ALA762  ILE779  LEU786  VAL792 
 PHE793  MET794  SER795  GLU796  ALA797  LYS798  CYS799  TRP800  GLU811  SER814 

> <Gold.Protein.RotatedAtoms>
  152.0202  134.9827  160.0570 H   0  0  0  0  0  0  0  0  0  0  0  0  # atno 6907 bound_to 6896
  152.1344  133.4422  159.4744 H   0  0  0  0  0  0  0  0  0  0  0  0  # atno 6908 bound_to 6896
  150.6859  134.2300  159.4474 H   0  0  0  0  0  0  0  0  0  0  0  0  # atno 6909 bound_to 6896
  145.2351  140.9185  143.3182 H   0  0  0  0  0  0  0  0  0  0  0  0  # atno 7974 bound_to 7965
  154.6117  140.2478  155.7660 H   0  0  0  0  0  0  0  0  0  0  0  0  # atno 8008 bound_to 7997
  156.2375  140.2945  156.0302 H   0  0  0  0  0  0  0  0  0  0  0  0  # atno 8009 bound_to 7997
  155.2040  140.0395  157.2913 H   0  0  0  0  0  0  0  0  0  0  0  0  # atno 8010 bound_to 7997
  140.5576  143.2312  151.6790 H   0  0  0  0  0  0  0  0  0  0  0  0  # atno 10167 bound_to 10162
  157.6774  131.0777  150.5544 H   0  0  0  0  0  0  0  0  0  0  0  0  # atno 10718 bound_to 10713
  153.5780  135.7006  153.5476 H   0  0  0  0  0  0  0  0  0  0  0  0  # atno 10763 bound_to 10752
  153.3286  135.4053  155.1476 H   0  0  0  0  0  0  0  0  0  0  0  0  # atno 10764 bound_to 10752
  154.8622  135.3713  154.5306 H   0  0  0  0  0  0  0  0  0  0  0  0  # atno 10765 bound_to 10752
  140.8029  134.2836  157.4971 H   0  0  0  0  0  0  0  0  0  0  0  0  # atno 11005 bound_to 11000
  144.9640  139.3949  143.6341 LP  0  0  0  0  0  0  0  0  0  0  0  0  # atno 17320 bound_to 7965
  146.3343  139.8707  142.8840 LP  0  0  0  0  0  0  0  0  0  0  0  0  # atno 17321 bound_to 7965
  139.5055  144.3715  152.0466 LP  0  0  0  0  0  0  0  0  0  0  0  0  # atno 17342 bound_to 10162
  140.2838  144.3830  150.6110 LP  0  0  0  0  0  0  0  0  0  0  0  0  # atno 17343 bound_to 10162
  156.5848  130.4314  149.5961 LP  0  0  0  0  0  0  0  0  0  0  0  0  # atno 17370 bound_to 10713
  156.2631  130.6974  151.1749 LP  0  0  0  0  0  0  0  0  0  0  0  0  # atno 17371 bound_to 10713
  139.8720  134.9439  156.3867 LP  0  0  0  0  0  0  0  0  0  0  0  0  # atno 17394 bound_to 11000
  140.9277  133.7601  155.9985 LP  0  0  0  0  0  0  0  0  0  0  0  0  # atno 17395 bound_to 11000

$$$$
