AV-unprocessed.smi:855|AV-procd|sdf|3958|dock4
  -GOLD-   22720 1423D 1   1.00000     0.00000
 Structure written by MMmdl.
 35 36  0  0  0  0  0  0  0  0  3 V2000
  152.7486  137.7534  157.4396 C   0  0  0  0  0  0  0  0  0  0  0  0
  151.9948  138.3904  156.3232 C   0  0  0  0  0  0  0  0  0  0  0  0
  150.7241  138.2294  155.8471 C   0  0  0  0  0  0  0  0  0  0  0  0
  150.6669  139.1497  154.7665 C   0  0  0  0  0  0  0  0  0  0  0  0
  149.4841  139.2839  153.9920 N   0  0  0  0  0  0  0  0  0  0  0  0
  148.2110  139.0315  154.3476 C   0  0  0  0  0  0  0  0  0  0  0  0
  147.9506  138.6110  155.4811 O   0  0  0  0  0  0  0  0  0  0  0  0
  147.3341  139.2943  153.3401 N   0  5  0  0  0  0  0  0  0  0  0  0
  146.2481  138.4009  152.9340 C   0  0  0  0  0  0  0  0  0  0  0  0
  145.5298  137.8508  154.1827 C   0  0  0  0  0  0  0  0  0  0  0  0
  144.0478  137.9367  154.0828 N   0  3  0  0  0  0  0  0  0  0  0  0
  143.4157  136.8217  153.3373 C   0  0  0  0  0  0  0  0  0  0  0  0
  142.1333  136.4452  154.0917 C   0  0  0  0  0  0  0  0  0  0  0  0
  141.8982  137.6018  155.0570 C   0  0  0  0  0  0  0  0  0  0  0  0
  143.3126  138.0824  155.3611 C   0  0  0  0  0  0  0  0  0  0  0  0
  151.8014  139.8133  154.6002 N   0  0  0  0  0  0  0  0  0  0  0  0
  152.6576  139.3305  155.5967 O   0  0  0  0  0  0  0  0  0  0  0  0
  152.1806  136.9307  157.8741 H   0  0  0  0  0  0  0  0  0  0  0  0
  152.9541  138.4771  158.2283 H   0  0  0  0  0  0  0  0  0  0  0  0
  153.7006  137.3570  157.0865 H   0  0  0  0  0  0  0  0  0  0  0  0
  149.9604  137.5597  156.2135 H   0  0  0  0  0  0  0  0  0  0  0  0
  149.6176  139.6185  153.0496 H   0  0  0  0  0  0  0  0  0  0  0  0
  145.5179  138.9146  152.3082 H   0  0  0  0  0  0  0  0  0  0  0  0
  146.6126  137.5621  152.3396 H   0  0  0  0  0  0  0  0  0  0  0  0
  145.8182  136.8049  154.3006 H   0  0  0  0  0  0  0  0  0  0  0  0
  145.8746  138.3625  155.0818 H   0  0  0  0  0  0  0  0  0  0  0  0
  143.1940  137.1602  152.3247 H   0  0  0  0  0  0  0  0  0  0  0  0
  144.0741  135.9549  153.2603 H   0  0  0  0  0  0  0  0  0  0  0  0
  141.2868  136.2771  153.4253 H   0  0  0  0  0  0  0  0  0  0  0  0
  142.2978  135.5269  154.6568 H   0  0  0  0  0  0  0  0  0  0  0  0
  141.3357  138.3931  154.5599 H   0  0  0  0  0  0  0  0  0  0  0  0
  141.3484  137.3054  155.9507 H   0  0  0  0  0  0  0  0  0  0  0  0
  143.7598  137.4419  156.1231 H   0  0  0  0  0  0  0  0  0  0  0  0
  143.3306  139.1091  155.7281 H   0  0  0  0  0  0  0  0  0  0  0  0
  143.8553  138.7692  153.5429 H   0  0  0  0  0  0  0  0  0  0  0  0
  1  2  1  0  0  0  0
  1 18  1  0  0  0  0
  1 19  1  0  0  0  0
  1 20  1  0  0  0  0
  2 17  1  0  0  0  0
  2  3  2  0  0  0  0
  3  4  1  0  0  0  0
  3 21  1  0  0  0  0
  4  5  1  0  0  0  0
  4 16  2  0  0  0  0
  5  6  1  0  0  0  0
  5 22  1  0  0  0  0
  6  7  2  0  0  0  0
  6  8  1  0  0  0  0
  8  9  1  0  0  0  0
  9 10  1  0  0  0  0
  9 23  1  0  0  0  0
  9 24  1  0  0  0  0
 10 11  1  0  0  0  0
 10 25  1  0  0  0  0
 10 26  1  0  0  0  0
 11 15  1  0  0  0  0
 11 12  1  0  0  0  0
 11 35  1  0  0  0  0
 12 13  1  0  0  0  0
 12 27  1  0  0  0  0
 12 28  1  0  0  0  0
 13 14  1  0  0  0  0
 13 29  1  0  0  0  0
 13 30  1  0  0  0  0
 14 15  1  0  0  0  0
 14 31  1  0  0  0  0
 14 32  1  0  0  0  0
 15 33  1  0  0  0  0
 15 34  1  0  0  0  0
 16 17  1  0  0  0  0
M  CHG  1   8  -1
M  CHG  1  11   1
M  END
> <s_m_source_file>
AV-unprocessed.smi

> <i_m_source_file_index>
855

> <i_lp_mmshare_version>
43012

> <i_f3d_flags>
0

> <s_epik_input>
W0NIM11jMVtjSF1jKG5vMSlbTkhdQyg9TylbTkhdW0NIMl1bQ0gyXU4yW0NIMl1bQ0gyXVtDSDJdW0NIMl0y

> <s_epik_cmdline>
J2VwaWtfcHl0aG9uJywgJy1waCcsICc3LjAnLCAnLXRuJywgJzgnLCAnLW1hJywgJzIwMCcsICctbWV0YWxfYmluZGluZycsICctaW1hZScsICc8aW5maWxlLm1hZT4nLCAnLW9tYWUnLCAnPG91dGZpbGUubWFlPic=

> <r_epik_Ionization_Penalty>
6.76467

> <r_epik_Ionization_Penalty_Charging>
6.76466

> <r_epik_Ionization_Penalty_Neutral>
5.76722e-06

> <r_epik_State_Penalty>
6.79042

> <r_epik_Charging_Adjusted_Penalty>
13.5551

> <i_epik_Tot_Q>
0

> <i_epik_Tot_abs_Q>
2

> <r_epik_Metal_State_Penalty>
2.72416

> <b_epik_Metal_Only>
1

> <s_lp_Force_Field>
OPLS_2005

> <r_lp_Energy>
21.5232

> <b_lp_Chiralities_Consistent>
1

> <s_lp_Variant>
AV-unprocessed.smi:855-3

> <Gold.Version>
5.8.1

> <Gold.Id.Protein>
6NUR|6NUR_protein|mol2

> <Gold.PLP.Fitness>
33.5039

> <Gold.PLP.PLP>
-20.9986

> <Gold.PLP.part.hbond>
-3.7495

> <Gold.PLP.part.metal>
0.0000

> <Gold.PLP.part.buried>
-5.0272

> <Gold.PLP.part.nonpolar>
-13.8358

> <Gold.PLP.part.repulsive>
1.9227

> <Gold.PLP.ligand.clash>
0.0000

> <Gold.PLP.ligand.torsion>
1.2686

> <Gold.PLP.Chemscore.Hbond>
4.9920

> <Gold.PLP.Chemscore.CHOScore>
0.0000

> <Gold.PLP.Chemscore.Metal>
0.0000

> <Gold.Chemscore.Hbonds>
donor molecule, donor type, donor heavy atom, donor atom, acceptor molecule, acceptor atom, score
      L1  H     5    22       P1  7957  1.00
      L1  H    11    35       P1 10175  2.00
      P1  H  7989  7998       L1    16  0.98
      P1  H  7997  8010       L1    17  1.00

> <Gold.PLP.Chemscore.Internal.Correction>
0.0667

> <Gold.Rescore>
     Score         DG    S(hbond)    S(metal)    S(lipo)     H(rot)  DE(clash)    DE(int)     intcor
     13.24     -17.51       3.49        0.00      37.72       1.57       0.39       3.87       ----

> <Gold.Chemscore.Fitness>
13.2442

> <Gold.Chemscore.DG>
-17.5079

> <Gold.Chemscore.ZeroCoef>
-5.4800

> <Gold.Chemscore.Hbond>
3.4854

> <Gold.Chemscore.Metal>
0.0000

> <Gold.Chemscore.Lipo>
37.7246

> <Gold.Chemscore.Internal_Hbond>
0.0000

> <Gold.Chemscore.DEClash>
0.3929

> <Gold.Chemscore.DEInternal>
3.8707

> <Gold.Chemscore.Rot>
1.5731

> <Gold.Chemscore.Internal.Correction>
   9.000000E+99

> <Gold.Chemscore.Hbonds>
donor molecule, donor type, donor heavy atom, donor atom, acceptor molecule, acceptor atom, score
      L1  H     5    22       P1  7957  0.99
      L1  H    11    35       P1 10175  0.97
      P1  H  7989  7998       L1    16  0.69
      P1  H  7997  8010       L1    17  0.96

> <Gold.Chemscore.Hbond.Weighted>
-11.6412

> <Gold.Chemscore.Metal.Weighted>
-0.0000

> <Gold.Chemscore.Lipo.Weighted>
-4.4138

> <Gold.Chemscore.Internal_Hbond.Weighted>
0.0000

> <Gold.Chemscore.DEClash.Weighted>
0.3929

> <Gold.Chemscore.DEInternal.Weighted>
3.8707

> <Gold.Chemscore.Rot.Weighted>
4.0271

> <Gold.Chemscore.Internal.Correction.Weighted>
   9.000000E+99

> <Gold.Protein.RotatedTorsions>
[ 6907 6896 6895 6894 ] final -162.85 input  -60.11 | X-H torsion
[ 7974 7965 7964 7962 ] final -154.47 input  175.53 | X-H torsion
[ 8008 7997 7996 7995 ] final   81.69 input   59.86 | X-H torsion
[ 10167 10162 10161 10158 ] final  116.15 input  -65.29 | X-H torsion
[ 10718 10713 10712 10709 ] final   84.41 input   66.30 | X-H torsion
[ 10763 10752 10751 10750 ] final   33.23 input  -60.55 | X-H torsion
[ 11005 11000 10999 10996 ] final   32.24 input  -57.11 | X-H torsion

> <Gold.Protein.ActiveResidues>
 VAL166  LYS551  ARG553  GLY616  TRP617  ASP618  TYR619  PRO620  LYS621  CYS622 
 ASP623  PHE694  ASN695  SER759  ASP760  ASP761  ALA762  ILE779  LEU786  VAL792 
 PHE793  MET794  SER795  GLU796  ALA797  LYS798  CYS799  TRP800  GLU811  SER814 

> <Gold.Protein.RotatedAtoms>
  151.3868  133.3802  159.2716 H   0  0  0  0  0  0  0  0  0  0  0  0  # atno 6907 bound_to 6896
  150.9536  134.8934  159.7697 H   0  0  0  0  0  0  0  0  0  0  0  0  # atno 6908 bound_to 6896
  152.5121  134.3824  159.9408 H   0  0  0  0  0  0  0  0  0  0  0  0  # atno 6909 bound_to 6896
  144.7688  140.4384  143.5922 H   0  0  0  0  0  0  0  0  0  0  0  0  # atno 7974 bound_to 7965
  155.9005  140.3433  155.6023 H   0  0  0  0  0  0  0  0  0  0  0  0  # atno 8008 bound_to 7997
  155.7506  140.0819  157.2222 H   0  0  0  0  0  0  0  0  0  0  0  0  # atno 8009 bound_to 7997
  154.4043  140.1554  156.2706 H   0  0  0  0  0  0  0  0  0  0  0  0  # atno 8010 bound_to 7997
  139.6267  144.7109  151.2518 H   0  0  0  0  0  0  0  0  0  0  0  0  # atno 10167 bound_to 10162
  157.6897  131.0132  150.2668 H   0  0  0  0  0  0  0  0  0  0  0  0  # atno 10718 bound_to 10713
  153.0222  135.6392  154.1479 H   0  0  0  0  0  0  0  0  0  0  0  0  # atno 10763 bound_to 10752
  154.1212  135.2846  155.3209 H   0  0  0  0  0  0  0  0  0  0  0  0  # atno 10764 bound_to 10752
  154.6262  135.5508  153.7692 H   0  0  0  0  0  0  0  0  0  0  0  0  # atno 10765 bound_to 10752
  140.2755  134.3032  155.7815 H   0  0  0  0  0  0  0  0  0  0  0  0  # atno 11005 bound_to 11000
  145.6387  139.1547  143.2928 LP  0  0  0  0  0  0  0  0  0  0  0  0  # atno 17320 bound_to 7965
  146.1818  140.6485  142.9186 LP  0  0  0  0  0  0  0  0  0  0  0  0  # atno 17321 bound_to 7965
  140.7415  143.6555  150.8211 LP  0  0  0  0  0  0  0  0  0  0  0  0  # atno 17342 bound_to 10162
  140.0174  143.5579  152.2814 LP  0  0  0  0  0  0  0  0  0  0  0  0  # atno 17343 bound_to 10162
  156.3238  130.3790  149.7552 LP  0  0  0  0  0  0  0  0  0  0  0  0  # atno 17370 bound_to 10713
  156.5113  130.8173  151.3170 LP  0  0  0  0  0  0  0  0  0  0  0  0  # atno 17371 bound_to 10713
  141.2171  133.7493  156.9401 LP  0  0  0  0  0  0  0  0  0  0  0  0  # atno 17394 bound_to 11000
  140.1332  134.9342  157.2366 LP  0  0  0  0  0  0  0  0  0  0  0  0  # atno 17395 bound_to 11000

$$$$
