AV-unprocessed.smi:3209|AV-procd|sdf|12271|dock1
  -GOLD-   2272018103D 1   1.00000     0.00000
 Structure written by MMmdl.
 37 39  0  0  0  0  0  0  0  0  2 V2000
  153.7734  138.0450  156.2421 C   0  0  0  0  0  0  0  0  0  0  0  0
  152.6074  138.7130  155.5972 C   0  0  0  0  0  0  0  0  0  0  0  0
  152.0649  139.8489  156.0439 N   0  0  0  0  0  0  0  0  0  0  0  0
  150.9821  140.2709  155.2662 C   0  0  0  0  0  0  0  0  0  0  0  0
  150.2502  141.5283  155.6254 C   0  0  0  0  0  0  0  0  0  0  0  0
  150.8927  142.2556  156.8143 C   0  0  0  0  0  0  0  0  0  0  0  0
  149.8826  143.0126  157.5807 N   0  3  0  0  0  0  0  0  0  0  0  0
  150.3730  143.5727  158.8589 C   0  0  1  0  0  0  0  0  0  0  0  0
  151.5450  142.7857  159.4850 C   0  0  0  0  0  0  0  0  0  0  0  0
  152.5966  143.8854  159.7317 C   0  0  1  0  0  0  0  0  0  0  0  0
  153.2366  144.2756  158.3879 C   0  0  0  0  0  0  0  0  0  0  0  0
  152.1018  145.0435  157.6862 C   0  0  0  0  0  0  0  0  0  0  0  0
  150.9573  144.9955  158.7224 C   0  0  2  0  0  0  0  0  0  0  0  0
  151.7338  145.1082  160.0307 C   0  0  0  0  0  0  0  0  0  0  0  0
  150.7123  139.4322  154.2136 C   0  0  0  0  0  0  0  0  0  0  0  0
  151.8092  138.0795  154.1632 S   0  0  0  0  0  0  0  0  0  0  0  0
  153.9935  138.5021  157.2074 H   0  0  0  0  0  0  0  0  0  0  0  0
  154.6525  138.1334  155.6039 H   0  0  0  0  0  0  0  0  0  0  0  0
  153.5581  136.9879  156.3980 H   0  0  0  0  0  0  0  0  0  0  0  0
  150.2199  142.1959  154.7633 H   0  0  0  0  0  0  0  0  0  0  0  0
  149.2107  141.2966  155.8609 H   0  0  0  0  0  0  0  0  0  0  0  0
  151.3771  141.5344  157.4740 H   0  0  0  0  0  0  0  0  0  0  0  0
  151.6658  142.9380  156.4595 H   0  0  0  0  0  0  0  0  0  0  0  0
  149.5323  143.7689  157.0102 H   0  0  0  0  0  0  0  0  0  0  0  0
  149.5391  143.6086  159.5626 H   0  0  0  0  0  0  0  0  0  0  0  0
  151.2347  142.3244  160.4234 H   0  0  0  0  0  0  0  0  0  0  0  0
  151.9306  141.9958  158.8388 H   0  0  0  0  0  0  0  0  0  0  0  0
  153.3239  143.6318  160.5036 H   0  0  0  0  0  0  0  0  0  0  0  0
  154.0991  144.9253  158.5432 H   0  0  0  0  0  0  0  0  0  0  0  0
  153.5709  143.4087  157.8167 H   0  0  0  0  0  0  0  0  0  0  0  0
  152.4043  146.0748  157.4990 H   0  0  0  0  0  0  0  0  0  0  0  0
  151.8312  144.6045  156.7258 H   0  0  0  0  0  0  0  0  0  0  0  0
  150.2006  145.7664  158.5742 H   0  0  0  0  0  0  0  0  0  0  0  0
  151.1110  144.9915  160.9194 H   0  0  0  0  0  0  0  0  0  0  0  0
  152.3080  146.0326  160.1165 H   0  0  0  0  0  0  0  0  0  0  0  0
  149.9387  139.5262  153.4656 H   0  0  0  0  0  0  0  0  0  0  0  0
  149.1188  142.3848  157.7872 H   0  0  0  0  0  0  0  0  0  0  0  0
  1  2  1  0  0  0  0
  1 17  1  0  0  0  0
  1 18  1  0  0  0  0
  1 19  1  0  0  0  0
  2 16  1  0  0  0  0
  2  3  2  0  0  0  0
  3  4  1  0  0  0  0
  4  5  1  0  0  0  0
  4 15  2  0  0  0  0
  5  6  1  0  0  0  0
  5 20  1  0  0  0  0
  5 21  1  0  0  0  0
  6  7  1  0  0  0  0
  6 22  1  0  0  0  0
  6 23  1  0  0  0  0
  7  8  1  0  0  0  0
  7 24  1  0  0  0  0
  7 37  1  0  0  0  0
  8 13  1  0  0  0  0
  8  9  1  0  0  0  0
  8 25  1  0  0  0  0
  9 10  1  0  0  0  0
  9 26  1  0  0  0  0
  9 27  1  0  0  0  0
 10 14  1  0  0  0  0
 10 11  1  0  0  0  0
 10 28  1  0  0  0  0
 11 12  1  0  0  0  0
 11 29  1  0  0  0  0
 11 30  1  0  0  0  0
 12 13  1  0  0  0  0
 12 31  1  0  0  0  0
 12 32  1  0  0  0  0
 13 14  1  0  0  0  0
 13 33  1  0  0  0  0
 14 34  1  0  0  0  0
 14 35  1  0  0  0  0
 15 16  1  0  0  0  0
 15 36  1  0  0  0  0
M  CHG  1   7   1
M  END
> <s_m_source_file>
AV-unprocessed.smi

> <i_m_source_file_index>
3209

> <i_lp_mmshare_version>
43012

> <i_f3d_flags>
0

> <s_epik_input>
W0NIM11jMW5jKFtjSF1zMSlbQ0gyXVtDSDJdW05IXVtDQEhdKFtDSDJdW0NASF0yMylbQ0BIXShbQ0gyXTMpW0NIMl1bQ0gyXTI=

> <s_epik_cmdline>
J2VwaWtfcHl0aG9uJywgJy1waCcsICc3LjAnLCAnLXRuJywgJzgnLCAnLW1hJywgJzIwMCcsICctbWV0YWxfYmluZGluZycsICctaW1hZScsICc8aW5maWxlLm1hZT4nLCAnLW9tYWUnLCAnPG91dGZpbGUubWFlPic=

> <r_lp_tautomer_probability>
1

> <r_epik_Ionization_Penalty>
0.000342479

> <r_epik_Ionization_Penalty_Charging>
0.000317129

> <r_epik_Ionization_Penalty_Neutral>
2.535e-05

> <r_epik_State_Penalty>
-0

> <r_epik_Charging_Adjusted_Penalty>
0.000317129

> <i_epik_Tot_Q>
1

> <i_epik_Tot_abs_Q>
1

> <r_epik_Metal_State_Penalty>
-0

> <b_epik_Metal_Only>
0

> <s_lp_Force_Field>
OPLS_2005

> <r_lp_Energy>
49.0881

> <b_lp_Chiralities_Consistent>
1

> <s_lp_Variant>
AV-unprocessed.smi:3209-4

> <Gold.Version>
5.8.1

> <Gold.Id.Protein>
6NUR|6NUR_protein|mol2

> <Gold.PLP.Fitness>
46.5126

> <Gold.PLP.PLP>
-38.7216

> <Gold.PLP.part.hbond>
-1.0000

> <Gold.PLP.part.metal>
0.0000

> <Gold.PLP.part.buried>
-3.3011

> <Gold.PLP.part.nonpolar>
-34.7571

> <Gold.PLP.part.repulsive>
0.0298

> <Gold.PLP.ligand.clash>
0.0000

> <Gold.PLP.ligand.torsion>
0.6214

> <Gold.PLP.Chemscore.Hbond>
2.0000

> <Gold.PLP.Chemscore.CHOScore>
0.9983

> <Gold.PLP.Chemscore.Metal>
0.0000

> <Gold.Chemscore.Hbonds>
donor molecule, donor type, donor heavy atom, donor atom, acceptor molecule, acceptor atom, score
      L1  H     7    24       P1  8028  2.00
      L1  C    15    36       P1  7957  1.00

> <Gold.PLP.Chemscore.Internal.Correction>
0.0389

> <Gold.Rescore>
     Score         DG    S(hbond)    S(metal)    S(lipo)     H(rot)  DE(clash)    DE(int)     intcor
     20.06     -20.74       0.96        0.00     131.74       1.31       0.12       0.56       ----

> <Gold.Chemscore.Fitness>
20.0607

> <Gold.Chemscore.DG>
-20.7358

> <Gold.Chemscore.ZeroCoef>
-5.4800

> <Gold.Chemscore.Hbond>
0.9576

> <Gold.Chemscore.Metal>
0.0000

> <Gold.Chemscore.Lipo>
131.7357

> <Gold.Chemscore.Internal_Hbond>
0.0000

> <Gold.Chemscore.DEClash>
0.1185

> <Gold.Chemscore.DEInternal>
0.5566

> <Gold.Chemscore.Rot>
1.3108

> <Gold.Chemscore.Internal.Correction>
   9.000000E+99

> <Gold.Chemscore.Hbonds>
donor molecule, donor type, donor heavy atom, donor atom, acceptor molecule, acceptor atom, score
      L1  H     7    24       P1  8028  0.85

> <Gold.Chemscore.Hbond.Weighted>
-3.1985

> <Gold.Chemscore.Metal.Weighted>
-0.0000

> <Gold.Chemscore.Lipo.Weighted>
-15.4131

> <Gold.Chemscore.Internal_Hbond.Weighted>
0.0000

> <Gold.Chemscore.DEClash.Weighted>
0.1185

> <Gold.Chemscore.DEInternal.Weighted>
0.5566

> <Gold.Chemscore.Rot.Weighted>
3.3558

> <Gold.Chemscore.Internal.Correction.Weighted>
   9.000000E+99

> <Gold.Protein.RotatedTorsions>
[ 6907 6896 6895 6894 ] final  -80.05 input  -60.11 | X-H torsion
[ 7974 7965 7964 7962 ] final -103.79 input  175.53 | X-H torsion
[ 8008 7997 7996 7995 ] final  119.21 input   59.86 | X-H torsion
[ 10167 10162 10161 10158 ] final  -46.27 input  -65.29 | X-H torsion
[ 10718 10713 10712 10709 ] final  -61.06 input   66.30 | X-H torsion
[ 10763 10752 10751 10750 ] final   87.39 input  -60.55 | X-H torsion
[ 11005 11000 10999 10996 ] final  139.47 input  -57.11 | X-H torsion

> <Gold.Protein.ActiveResidues>
 VAL166  LYS551  ARG553  GLY616  TRP617  ASP618  TYR619  PRO620  LYS621  CYS622 
 ASP623  PHE694  ASN695  SER759  ASP760  ASP761  ALA762  ILE779  LEU786  VAL792 
 PHE793  MET794  SER795  GLU796  ALA797  LYS798  CYS799  TRP800  GLU811  SER814 

> <Gold.Protein.RotatedAtoms>
  150.6937  134.4028  159.5126 H   0  0  0  0  0  0  0  0  0  0  0  0  # atno 6907 bound_to 6896
  152.1799  134.8760  160.0536 H   0  0  0  0  0  0  0  0  0  0  0  0  # atno 6908 bound_to 6896
  151.9755  133.3705  159.4124 H   0  0  0  0  0  0  0  0  0  0  0  0  # atno 6909 bound_to 6896
  145.2514  140.9239  143.3093 H   0  0  0  0  0  0  0  0  0  0  0  0  # atno 7974 bound_to 7965
  156.2585  140.2858  156.0956 H   0  0  0  0  0  0  0  0  0  0  0  0  # atno 8008 bound_to 7997
  155.1415  140.0395  157.2817 H   0  0  0  0  0  0  0  0  0  0  0  0  # atno 8009 bound_to 7997
  154.6526  140.2548  155.7203 H   0  0  0  0  0  0  0  0  0  0  0  0  # atno 8010 bound_to 7997
  140.6824  143.2839  151.3758 H   0  0  0  0  0  0  0  0  0  0  0  0  # atno 10167 bound_to 10162
  156.0947  130.4194  150.0941 H   0  0  0  0  0  0  0  0  0  0  0  0  # atno 10718 bound_to 10713
  153.1663  135.4545  154.9842 H   0  0  0  0  0  0  0  0  0  0  0  0  # atno 10763 bound_to 10752
  154.7934  135.3229  154.7726 H   0  0  0  0  0  0  0  0  0  0  0  0  # atno 10764 bound_to 10752
  153.8208  135.6947  153.4882 H   0  0  0  0  0  0  0  0  0  0  0  0  # atno 10765 bound_to 10752
  140.0257  134.9376  157.0563 H   0  0  0  0  0  0  0  0  0  0  0  0  # atno 11005 bound_to 11000
  144.9499  139.4094  143.6407 LP  0  0  0  0  0  0  0  0  0  0  0  0  # atno 17320 bound_to 7965
  146.3301  139.8501  142.8874 LP  0  0  0  0  0  0  0  0  0  0  0  0  # atno 17321 bound_to 7965
  139.6157  144.1008  152.2343 LP  0  0  0  0  0  0  0  0  0  0  0  0  # atno 17342 bound_to 10162
  140.0437  144.5988  150.7391 LP  0  0  0  0  0  0  0  0  0  0  0  0  # atno 17343 bound_to 10162
  156.8943  130.9599  151.3584 LP  0  0  0  0  0  0  0  0  0  0  0  0  # atno 17370 bound_to 10713
  157.6106  130.8580  149.8945 LP  0  0  0  0  0  0  0  0  0  0  0  0  # atno 17371 bound_to 10713
  140.4311  134.1779  155.7168 LP  0  0  0  0  0  0  0  0  0  0  0  0  # atno 17394 bound_to 11000
  141.1801  133.8432  157.1287 LP  0  0  0  0  0  0  0  0  0  0  0  0  # atno 17395 bound_to 11000

$$$$
