AV-unprocessed.smi:512|AV-procd|sdf|2770|dock10
  -GOLD-   2262023233D 1   1.00000     0.00000
 Structure written by MMmdl.
 48 50  0  0  0  0  0  0  0  0  3 V2000
  151.0300  141.5110  157.3768 C   0  0  0  0  0  0  0  0  0  0  0  0
  150.1561  141.5984  156.1234 C   0  0  0  0  0  0  0  0  0  0  0  0
  150.5353  140.5687  155.2261 O   0  0  0  0  0  0  0  0  0  0  0  0
  150.2436  139.2743  155.7246 C   0  0  0  0  0  0  0  0  0  0  0  0
  149.6987  138.4140  154.5777 C   0  0  0  0  0  0  0  0  0  0  0  0
  148.9779  137.2462  155.0801 N   0  0  0  0  0  0  0  0  0  0  0  0
  147.6360  137.0257  155.1013 C   0  0  0  0  0  0  0  0  0  0  0  0
  146.7270  137.9274  154.5477 N   0  0  0  0  0  0  0  0  0  0  0  0
  146.5129  138.1177  153.1145 C   0  0  0  0  0  0  0  0  0  0  0  0
  145.2348  137.4017  152.6390 C   0  0  0  0  0  0  0  0  0  0  0  0
  144.0524  137.8528  153.4115 N   0  3  0  0  0  0  0  0  0  0  0  0
  142.8023  137.1938  152.9777 C   0  0  0  0  0  0  0  0  0  0  0  0
  144.2766  137.7473  154.8727 C   0  0  0  0  0  0  0  0  0  0  0  0
  145.5788  138.4622  155.2731 C   0  0  0  0  0  0  0  0  0  0  0  0
  147.2643  135.8956  155.7053 N   0  0  0  0  0  0  0  0  0  0  0  0
  148.4755  135.3288  156.0725 C   0  0  0  0  0  0  0  0  0  0  0  0
  149.5197  136.1201  155.7076 C   0  0  0  0  0  0  0  0  0  0  0  0
  150.9359  135.7915  155.9810 C   0  0  0  0  0  0  0  0  0  0  0  0
  151.8408  136.5467  155.6320 O   0  0  0  0  0  0  0  0  0  0  0  0
  151.0712  134.5975  156.6403 N   0  5  0  0  0  0  0  0  0  0  0  0
  150.0434  133.7646  157.0280 C   0  0  0  0  0  0  0  0  0  0  0  0
  150.2531  132.7066  157.6226 O   0  0  0  0  0  0  0  0  0  0  0  0
  148.7463  134.1101  156.7521 N   0  0  0  0  0  0  0  0  0  0  0  0
  147.6332  133.2453  157.1534 C   0  0  0  0  0  0  0  0  0  0  0  0
  150.7642  142.2897  158.0917 H   0  0  0  0  0  0  0  0  0  0  0  0
  152.0844  141.6306  157.1275 H   0  0  0  0  0  0  0  0  0  0  0  0
  150.9089  140.5472  157.8713 H   0  0  0  0  0  0  0  0  0  0  0  0
  149.1050  141.4923  156.3957 H   0  0  0  0  0  0  0  0  0  0  0  0
  150.2789  142.5741  155.6512 H   0  0  0  0  0  0  0  0  0  0  0  0
  151.1427  138.8232  156.1461 H   0  0  0  0  0  0  0  0  0  0  0  0
  149.5043  139.3427  156.5242 H   0  0  0  0  0  0  0  0  0  0  0  0
  149.0482  139.0247  153.9578 H   0  0  0  0  0  0  0  0  0  0  0  0
  150.5029  138.0848  153.9208 H   0  0  0  0  0  0  0  0  0  0  0  0
  146.4602  139.1847  152.8947 H   0  0  0  0  0  0  0  0  0  0  0  0
  147.3600  137.7213  152.5551 H   0  0  0  0  0  0  0  0  0  0  0  0
  145.0752  137.5948  151.5776 H   0  0  0  0  0  0  0  0  0  0  0  0
  145.3523  136.3227  152.7532 H   0  0  0  0  0  0  0  0  0  0  0  0
  142.8411  136.1193  153.1617 H   0  0  0  0  0  0  0  0  0  0  0  0
  142.6336  137.3530  151.9122 H   0  0  0  0  0  0  0  0  0  0  0  0
  141.9460  137.6024  153.5155 H   0  0  0  0  0  0  0  0  0  0  0  0
  143.4332  138.1870  155.4062 H   0  0  0  0  0  0  0  0  0  0  0  0
  144.3254  136.6959  155.1613 H   0  0  0  0  0  0  0  0  0  0  0  0
  145.7457  138.3569  156.3457 H   0  0  0  0  0  0  0  0  0  0  0  0
  145.4988  139.5324  155.0777 H   0  0  0  0  0  0  0  0  0  0  0  0
  147.5934  133.1564  158.2397 H   0  0  0  0  0  0  0  0  0  0  0  0
  147.7528  132.2459  156.7337 H   0  0  0  0  0  0  0  0  0  0  0  0
  146.6668  133.6215  156.8202 H   0  0  0  0  0  0  0  0  0  0  0  0
  143.9442  138.8372  153.2130 H   0  0  0  0  0  0  0  0  0  0  0  0
  1  2  1  0  0  0  0
  1 25  1  0  0  0  0
  1 26  1  0  0  0  0
  1 27  1  0  0  0  0
  2  3  1  0  0  0  0
  2 28  1  0  0  0  0
  2 29  1  0  0  0  0
  3  4  1  0  0  0  0
  4  5  1  0  0  0  0
  4 30  1  0  0  0  0
  4 31  1  0  0  0  0
  5  6  1  0  0  0  0
  5 32  1  0  0  0  0
  5 33  1  0  0  0  0
  6 17  1  0  0  0  0
  6  7  1  0  0  0  0
  7  8  1  0  0  0  0
  7 15  2  0  0  0  0
  8 14  1  0  0  0  0
  8  9  1  0  0  0  0
  9 10  1  0  0  0  0
  9 34  1  0  0  0  0
  9 35  1  0  0  0  0
 10 11  1  0  0  0  0
 10 36  1  0  0  0  0
 10 37  1  0  0  0  0
 11 12  1  0  0  0  0
 11 13  1  0  0  0  0
 11 48  1  0  0  0  0
 12 38  1  0  0  0  0
 12 39  1  0  0  0  0
 12 40  1  0  0  0  0
 13 14  1  0  0  0  0
 13 41  1  0  0  0  0
 13 42  1  0  0  0  0
 14 43  1  0  0  0  0
 14 44  1  0  0  0  0
 15 16  1  0  0  0  0
 16 23  1  0  0  0  0
 16 17  2  0  0  0  0
 17 18  1  0  0  0  0
 18 19  2  0  0  0  0
 18 20  1  0  0  0  0
 20 21  1  0  0  0  0
 21 22  2  0  0  0  0
 21 23  1  0  0  0  0
 23 24  1  0  0  0  0
 24 45  1  0  0  0  0
 24 46  1  0  0  0  0
 24 47  1  0  0  0  0
M  CHG  1  11   1
M  CHG  1  20  -1
M  END
> <s_m_source_file>
AV-unprocessed.smi

> <i_m_source_file_index>
512

> <i_lp_mmshare_version>
43012

> <i_f3d_flags>
0

> <s_epik_input>
W0NIM11uMWMoPU8pW25IXWMoPU8pYyhjMTIpbihbQ0gyXVtDSDJdT1tDSDJdW0NIM10pYyhuMilOM1tDSDJdW0NIMl1OKFtDSDNdKVtDSDJdW0NIMl0z

> <s_epik_cmdline>
J2VwaWtfcHl0aG9uJywgJy1waCcsICc3LjAnLCAnLXRuJywgJzgnLCAnLW1hJywgJzIwMCcsICctbWV0YWxfYmluZGluZycsICctaW1hZScsICc8aW5maWxlLm1hZT4nLCAnLW9tYWUnLCAnPG91dGZpbGUubWFlPic=

> <r_epik_Ionization_Penalty>
5.9926

> <r_epik_Ionization_Penalty_Charging>
0.122107

> <r_epik_Ionization_Penalty_Neutral>
5.87049

> <r_epik_State_Penalty>
5.92685

> <r_epik_Charging_Adjusted_Penalty>
6.04896

> <i_epik_Tot_Q>
0

> <i_epik_Tot_abs_Q>
2

> <r_epik_Metal_State_Penalty>
1.88919

> <b_epik_Metal_Only>
1

> <s_lp_Force_Field>
OPLS_2005

> <r_lp_Energy>
50.2729

> <b_lp_Chiralities_Consistent>
1

> <s_lp_Variant>
AV-unprocessed.smi:512-3

> <Gold.Version>
5.8.1

> <Gold.Id.Protein>
6NUR|6NUR_protein|mol2

> <Gold.PLP.Fitness>
35.7552

> <Gold.PLP.PLP>
-23.5938

> <Gold.PLP.part.hbond>
-4.0000

> <Gold.PLP.part.metal>
0.0000

> <Gold.PLP.part.buried>
-3.1186

> <Gold.PLP.part.nonpolar>
-16.6359

> <Gold.PLP.part.repulsive>
0.2000

> <Gold.PLP.ligand.clash>
0.0000

> <Gold.PLP.ligand.torsion>
1.6692

> <Gold.PLP.Chemscore.Hbond>
4.9760

> <Gold.PLP.Chemscore.CHOScore>
0.0000

> <Gold.PLP.Chemscore.Metal>
0.0000

> <Gold.Chemscore.Hbonds>
donor molecule, donor type, donor heavy atom, donor atom, acceptor molecule, acceptor atom, score
      L1  H    11    48       P1 10175  2.00
      P1  H  6896  6908       L1    22  0.65
      P1  H  7989  7998       L1     3  0.87
      P1  H 10752 10764       L1    19  1.00

> <Gold.PLP.Chemscore.Internal.Correction>
0.5718

> <Gold.Rescore>
     Score         DG    S(hbond)    S(metal)    S(lipo)     H(rot)  DE(clash)    DE(int)     intcor
     15.12     -16.88       3.13        0.00      43.67       1.63       0.01       1.76       ----

> <Gold.Chemscore.Fitness>
15.1182

> <Gold.Chemscore.DG>
-16.8790

> <Gold.Chemscore.ZeroCoef>
-5.4800

> <Gold.Chemscore.Hbond>
3.1345

> <Gold.Chemscore.Metal>
0.0000

> <Gold.Chemscore.Lipo>
43.6743

> <Gold.Chemscore.Internal_Hbond>
0.0000

> <Gold.Chemscore.DEClash>
0.0053

> <Gold.Chemscore.DEInternal>
1.7555

> <Gold.Chemscore.Rot>
1.6328

> <Gold.Chemscore.Internal.Correction>
   9.000000E+99

> <Gold.Chemscore.Hbonds>
donor molecule, donor type, donor heavy atom, donor atom, acceptor molecule, acceptor atom, score
      L1  H    11    48       P1 10175  1.00
      P1  H  6896  6908       L1    22  0.06
      P1  H  7989  7998       L1     3  0.81
      P1  H 10752 10764       L1    19  0.50

> <Gold.Chemscore.Hbond.Weighted>
-10.4691

> <Gold.Chemscore.Metal.Weighted>
-0.0000

> <Gold.Chemscore.Lipo.Weighted>
-5.1099

> <Gold.Chemscore.Internal_Hbond.Weighted>
0.0000

> <Gold.Chemscore.DEClash.Weighted>
0.0053

> <Gold.Chemscore.DEInternal.Weighted>
1.7555

> <Gold.Chemscore.Rot.Weighted>
4.1800

> <Gold.Chemscore.Internal.Correction.Weighted>
   9.000000E+99

> <Gold.Protein.RotatedTorsions>
[ 6907 6896 6895 6894 ] final  106.75 input  -60.11 | X-H torsion
[ 7974 7965 7964 7962 ] final  147.62 input  175.53 | X-H torsion
[ 8008 7997 7996 7995 ] final  136.41 input   59.86 | X-H torsion
[ 10167 10162 10161 10158 ] final   46.41 input  -65.29 | X-H torsion
[ 10718 10713 10712 10709 ] final  -50.04 input   66.30 | X-H torsion
[ 10763 10752 10751 10750 ] final  -34.80 input  -60.55 | X-H torsion
[ 11005 11000 10999 10996 ] final  -55.88 input  -57.11 | X-H torsion

> <Gold.Protein.ActiveResidues>
 VAL166  LYS551  ARG553  GLY616  TRP617  ASP618  TYR619  PRO620  LYS621  CYS622 
 ASP623  PHE694  ASN695  SER759  ASP760  ASP761  ALA762  ILE779  LEU786  VAL792 
 PHE793  MET794  SER795  GLU796  ALA797  LYS798  CYS799  TRP800  GLU811  SER814 

> <Gold.Protein.RotatedAtoms>
  152.5181  133.9335  159.7591 H   0  0  0  0  0  0  0  0  0  0  0  0  # atno 6907 bound_to 6896
  150.9680  133.6366  159.2750 H   0  0  0  0  0  0  0  0  0  0  0  0  # atno 6908 bound_to 6896
  151.3587  135.0905  159.9480 H   0  0  0  0  0  0  0  0  0  0  0  0  # atno 6909 bound_to 6896
  144.8578  139.6051  143.5944 H   0  0  0  0  0  0  0  0  0  0  0  0  # atno 7974 bound_to 7965
  156.3004  140.2446  156.3741 H   0  0  0  0  0  0  0  0  0  0  0  0  # atno 8008 bound_to 7997
  154.8761  140.0414  157.1774 H   0  0  0  0  0  0  0  0  0  0  0  0  # atno 8009 bound_to 7997
  154.8744  140.2940  155.5466 H   0  0  0  0  0  0  0  0  0  0  0  0  # atno 8010 bound_to 7997
  140.3142  144.2784  150.6194 H   0  0  0  0  0  0  0  0  0  0  0  0  # atno 10167 bound_to 10162
  156.1837  130.4151  149.9469 H   0  0  0  0  0  0  0  0  0  0  0  0  # atno 10718 bound_to 10713
  153.8527  135.6847  153.4791 H   0  0  0  0  0  0  0  0  0  0  0  0  # atno 10763 bound_to 10752
  153.1388  135.4666  154.9461 H   0  0  0  0  0  0  0  0  0  0  0  0  # atno 10764 bound_to 10752
  154.7795  135.3264  154.7969 H   0  0  0  0  0  0  0  0  0  0  0  0  # atno 10765 bound_to 10752
  141.1094  133.6611  156.4536 H   0  0  0  0  0  0  0  0  0  0  0  0  # atno 11005 bound_to 11000
  146.2836  139.6944  142.9211 LP  0  0  0  0  0  0  0  0  0  0  0  0  # atno 17320 bound_to 7965
  145.4373  141.0420  143.2877 LP  0  0  0  0  0  0  0  0  0  0  0  0  # atno 17321 bound_to 7965
  140.5541  143.2201  151.7876 LP  0  0  0  0  0  0  0  0  0  0  0  0  # atno 17342 bound_to 10162
  139.4887  144.4436  151.9735 LP  0  0  0  0  0  0  0  0  0  0  0  0  # atno 17343 bound_to 10162
  156.7232  130.9015  151.3620 LP  0  0  0  0  0  0  0  0  0  0  0  0  # atno 17370 bound_to 10713
  157.6885  130.9209  150.0450 LP  0  0  0  0  0  0  0  0  0  0  0  0  # atno 17371 bound_to 10713
  140.4814  134.6661  157.5173 LP  0  0  0  0  0  0  0  0  0  0  0  0  # atno 17394 bound_to 11000
  139.9981  134.6880  155.9576 LP  0  0  0  0  0  0  0  0  0  0  0  0  # atno 17395 bound_to 11000

$$$$
