AV-unprocessed.smi:2871|AV-procd|sdf|11032|dock6
  -GOLD-   2272015493D 1   1.00000     0.00000
 Structure written by MMmdl.
 38 40  0  0  0  0  0  0  0  0  1 V2000
  152.1449  144.7077  158.3258 C   0  0  0  0  0  0  0  0  0  0  0  0
  152.3581  143.9439  159.5482 N   0  0  0  0  0  0  0  0  0  0  0  0
  152.2022  144.5846  160.8497 C   0  0  0  0  0  0  0  0  0  0  0  0
  152.6992  142.5753  159.4785 C   0  0  0  0  0  0  0  0  0  0  0  0
  153.7054  142.0075  160.2979 C   0  0  0  0  0  0  0  0  0  0  0  0
  153.9622  140.6273  160.1353 C   0  0  0  0  0  0  0  0  0  0  0  0
  155.0191  139.8998  160.9525 C   0  0  0  0  0  0  0  0  0  0  0  0
  154.9284  140.1960  162.2497 F   0  0  0  0  0  0  0  0  0  0  0  0
  154.8706  138.5829  160.8083 F   0  0  0  0  0  0  0  0  0  0  0  0
  156.2341  140.2451  160.5254 F   0  0  0  0  0  0  0  0  0  0  0  0
  153.2769  139.8817  159.2395 N   0  0  0  0  0  0  0  0  0  0  0  0
  152.3499  140.5063  158.5145 C   0  0  0  0  0  0  0  0  0  0  0  0
  151.6738  139.7161  157.6034 N   0  0  0  0  0  0  0  0  0  0  0  0
  151.2592  140.1552  156.2754 C   0  0  2  0  0  0  0  0  0  0  0  0
  149.7425  140.1206  156.0746 C   0  0  0  0  0  0  0  0  0  0  0  0
  149.6142  139.2848  154.7929 C   0  0  2  0  0  0  0  0  0  0  0  0
  149.8656  137.7959  155.0633 C   0  0  0  0  0  0  0  0  0  0  0  0
  151.3756  137.7725  155.2915 C   0  0  0  0  0  0  0  0  0  0  0  0
  151.7464  139.2557  155.1219 C   0  0  1  0  0  0  0  0  0  0  0  0
  150.8145  139.6301  154.1214 O   0  0  0  0  0  0  0  0  0  0  0  0
  152.0302  141.8015  158.5906 N   0  0  0  0  0  0  0  0  0  0  0  0
  153.0502  144.7162  157.7181 H   0  0  0  0  0  0  0  0  0  0  0  0
  151.8823  145.7427  158.5455 H   0  0  0  0  0  0  0  0  0  0  0  0
  151.3339  144.2765  157.7385 H   0  0  0  0  0  0  0  0  0  0  0  0
  153.1273  144.5207  161.4232 H   0  0  0  0  0  0  0  0  0  0  0  0
  151.4082  144.1012  161.4198 H   0  0  0  0  0  0  0  0  0  0  0  0
  151.9458  145.6389  160.7468 H   0  0  0  0  0  0  0  0  0  0  0  0
  154.2604  142.5905  161.0170 H   0  0  0  0  0  0  0  0  0  0  0  0
  151.5489  138.7434  157.8429 H   0  0  0  0  0  0  0  0  0  0  0  0
  151.6118  141.1747  156.1134 H   0  0  0  0  0  0  0  0  0  0  0  0
  149.1974  139.6749  156.9081 H   0  0  0  0  0  0  0  0  0  0  0  0
  149.3595  141.1302  155.9218 H   0  0  0  0  0  0  0  0  0  0  0  0
  148.7057  139.4833  154.2237 H   0  0  0  0  0  0  0  0  0  0  0  0
  149.3009  137.4269  155.9201 H   0  0  0  0  0  0  0  0  0  0  0  0
  149.6016  137.1930  154.1938 H   0  0  0  0  0  0  0  0  0  0  0  0
  151.6535  137.3704  156.2659 H   0  0  0  0  0  0  0  0  0  0  0  0
  151.8642  137.1667  154.5277 H   0  0  0  0  0  0  0  0  0  0  0  0
  152.7870  139.4198  154.8407 H   0  0  0  0  0  0  0  0  0  0  0  0
  1  2  1  0  0  0  0
  1 22  1  0  0  0  0
  1 23  1  0  0  0  0
  1 24  1  0  0  0  0
  2  3  1  0  0  0  0
  2  4  1  0  0  0  0
  3 25  1  0  0  0  0
  3 26  1  0  0  0  0
  3 27  1  0  0  0  0
  4 21  1  0  0  0  0
  4  5  2  0  0  0  0
  5  6  1  0  0  0  0
  5 28  1  0  0  0  0
  6  7  1  0  0  0  0
  6 11  2  0  0  0  0
  7  8  1  0  0  0  0
  7  9  1  0  0  0  0
  7 10  1  0  0  0  0
 11 12  1  0  0  0  0
 12 13  1  0  0  0  0
 12 21  2  0  0  0  0
 13 14  1  0  0  0  0
 13 29  1  0  0  0  0
 14 19  1  0  0  0  0
 14 15  1  0  0  0  0
 14 30  1  0  0  0  0
 15 16  1  0  0  0  0
 15 31  1  0  0  0  0
 15 32  1  0  0  0  0
 16 20  1  0  0  0  0
 16 17  1  0  0  0  0
 16 33  1  0  0  0  0
 17 18  1  0  0  0  0
 17 34  1  0  0  0  0
 17 35  1  0  0  0  0
 18 19  1  0  0  0  0
 18 36  1  0  0  0  0
 18 37  1  0  0  0  0
 19 20  1  0  0  0  0
 19 38  1  0  0  0  0
M  END
> <s_m_source_file>
AV-unprocessed.smi

> <i_m_source_file_index>
2871

> <i_lp_mmshare_version>
43012

> <i_f3d_flags>
0

> <s_epik_input>
W0NIM11OKFtDSDNdKWMxW2NIXWMoQyhGKShGKUYpbmMobjEpW05IXVtDQEhdKFtDSDJdW0NAQEhdMjMpW0NAQEhdKE8zKVtDSDJdW0NIMl0y

> <s_epik_cmdline>
J2VwaWtfcHl0aG9uJywgJy1waCcsICc3LjAnLCAnLXRuJywgJzgnLCAnLW1hJywgJzIwMCcsICctbWV0YWxfYmluZGluZycsICctaW1hZScsICc8aW5maWxlLm1hZT4nLCAnLW9tYWUnLCAnPG91dGZpbGUubWFlPic=

> <r_lp_tautomer_probability>
1

> <r_epik_Ionization_Penalty>
0.00695968

> <r_epik_Ionization_Penalty_Charging>
0

> <r_epik_Ionization_Penalty_Neutral>
0.00695968

> <r_epik_State_Penalty>
0.0050343

> <r_epik_Charging_Adjusted_Penalty>
0.0050343

> <i_epik_Tot_Q>
0

> <i_epik_Tot_abs_Q>
0

> <r_epik_Metal_State_Penalty>
-0

> <b_epik_Metal_Only>
0

> <s_lp_Force_Field>
OPLS_2005

> <r_lp_Energy>
33.2945

> <b_lp_Chiralities_Consistent>
1

> <s_lp_Variant>
AV-unprocessed.smi:2871-3

> <Gold.Version>
5.8.1

> <Gold.Id.Protein>
6NUR|6NUR_protein|mol2

> <Gold.PLP.Fitness>
44.1237

> <Gold.PLP.PLP>
-44.0006

> <Gold.PLP.part.hbond>
-1.0000

> <Gold.PLP.part.metal>
0.0000

> <Gold.PLP.part.buried>
-2.9086

> <Gold.PLP.part.nonpolar>
-39.7302

> <Gold.PLP.part.repulsive>
0.2350

> <Gold.PLP.ligand.clash>
0.0000

> <Gold.PLP.ligand.torsion>
1.4547

> <Gold.PLP.Chemscore.Hbond>
1.0000

> <Gold.PLP.Chemscore.CHOScore>
0.0000

> <Gold.PLP.Chemscore.Metal>
0.0000

> <Gold.Chemscore.Hbonds>
donor molecule, donor type, donor heavy atom, donor atom, acceptor molecule, acceptor atom, score
      P1  H  7989  7998       L1    20  0.95

> <Gold.PLP.Chemscore.Internal.Correction>
0.0325

> <Gold.Rescore>
     Score         DG    S(hbond)    S(metal)    S(lipo)     H(rot)  DE(clash)    DE(int)     intcor
     14.77     -16.43       0.97        0.00      87.84       1.00       0.06       1.59       ----

> <Gold.Chemscore.Fitness>
14.7742

> <Gold.Chemscore.DG>
-16.4270

> <Gold.Chemscore.ZeroCoef>
-5.4800

> <Gold.Chemscore.Hbond>
0.9671

> <Gold.Chemscore.Metal>
0.0000

> <Gold.Chemscore.Lipo>
87.8372

> <Gold.Chemscore.Internal_Hbond>
0.0000

> <Gold.Chemscore.DEClash>
0.0580

> <Gold.Chemscore.DEInternal>
1.5948

> <Gold.Chemscore.Rot>
1.0000

> <Gold.Chemscore.Internal.Correction>
   9.000000E+99

> <Gold.Chemscore.Hbonds>
donor molecule, donor type, donor heavy atom, donor atom, acceptor molecule, acceptor atom, score
      P1  H  7989  7998       L1    20  0.21

> <Gold.Chemscore.Hbond.Weighted>
-3.2301

> <Gold.Chemscore.Metal.Weighted>
-0.0000

> <Gold.Chemscore.Lipo.Weighted>
-10.2770

> <Gold.Chemscore.Internal_Hbond.Weighted>
0.0000

> <Gold.Chemscore.DEClash.Weighted>
0.0580

> <Gold.Chemscore.DEInternal.Weighted>
1.5948

> <Gold.Chemscore.Rot.Weighted>
2.5600

> <Gold.Chemscore.Internal.Correction.Weighted>
   9.000000E+99

> <Gold.Protein.RotatedTorsions>
[ 6907 6896 6895 6894 ] final    6.20 input  -60.11 | X-H torsion
[ 7974 7965 7964 7962 ] final  164.40 input  175.53 | X-H torsion
[ 8008 7997 7996 7995 ] final   89.50 input   59.86 | X-H torsion
[ 10167 10162 10161 10158 ] final  -53.16 input  -65.29 | X-H torsion
[ 10718 10713 10712 10709 ] final  -51.24 input   66.30 | X-H torsion
[ 10763 10752 10751 10750 ] final  -98.44 input  -60.55 | X-H torsion
[ 11005 11000 10999 10996 ] final   -1.90 input  -57.11 | X-H torsion

> <Gold.Protein.ActiveResidues>
 VAL166  LYS551  ARG553  GLY616  TRP617  ASP618  TYR619  PRO620  LYS621  CYS622 
 ASP623  PHE694  ASN695  SER759  ASP760  ASP761  ALA762  ILE779  LEU786  VAL792 
 PHE793  MET794  SER795  GLU796  ALA797  LYS798  CYS799  TRP800  GLU811  SER814 

> <Gold.Protein.RotatedAtoms>
  151.6699  135.0977  160.0195 H   0  0  0  0  0  0  0  0  0  0  0  0  # atno 6907 bound_to 6896
  152.3897  133.6657  159.6236 H   0  0  0  0  0  0  0  0  0  0  0  0  # atno 6908 bound_to 6896
  150.7815  133.8891  159.3349 H   0  0  0  0  0  0  0  0  0  0  0  0  # atno 6909 bound_to 6896
  144.7547  139.8321  143.6354 H   0  0  0  0  0  0  0  0  0  0  0  0  # atno 7974 bound_to 7965
  156.0007  140.3360  155.6843 H   0  0  0  0  0  0  0  0  0  0  0  0  # atno 8008 bound_to 7997
  155.6294  140.0683  157.2671 H   0  0  0  0  0  0  0  0  0  0  0  0  # atno 8009 bound_to 7997
  154.4248  140.1762  156.1444 H   0  0  0  0  0  0  0  0  0  0  0  0  # atno 8010 bound_to 7997
  140.6499  143.2559  151.4752 H   0  0  0  0  0  0  0  0  0  0  0  0  # atno 10167 bound_to 10162
  156.1727  130.4149  149.9622 H   0  0  0  0  0  0  0  0  0  0  0  0  # atno 10718 bound_to 10713
  154.7414  135.5009  153.9130 H   0  0  0  0  0  0  0  0  0  0  0  0  # atno 10763 bound_to 10752
  153.1047  135.6694  153.9616 H   0  0  0  0  0  0  0  0  0  0  0  0  # atno 10764 bound_to 10752
  153.9392  135.3069  155.3422 H   0  0  0  0  0  0  0  0  0  0  0  0  # atno 10765 bound_to 10752
  140.6525  133.9392  155.8388 H   0  0  0  0  0  0  0  0  0  0  0  0  # atno 11005 bound_to 11000
  146.1541  139.4634  143.0030 LP  0  0  0  0  0  0  0  0  0  0  0  0  # atno 17320 bound_to 7965
  145.6822  141.0188  143.1600 LP  0  0  0  0  0  0  0  0  0  0  0  0  # atno 17321 bound_to 7965
  139.5713  144.1921  152.1841 LP  0  0  0  0  0  0  0  0  0  0  0  0  # atno 17342 bound_to 10162
  140.1218  144.5366  150.6858 LP  0  0  0  0  0  0  0  0  0  0  0  0  # atno 17343 bound_to 10162
  156.7417  130.9082  151.3632 LP  0  0  0  0  0  0  0  0  0  0  0  0  # atno 17370 bound_to 10713
  157.6814  130.9144  150.0277 LP  0  0  0  0  0  0  0  0  0  0  0  0  # atno 17371 bound_to 10713
  141.0526  134.0462  157.3763 LP  0  0  0  0  0  0  0  0  0  0  0  0  # atno 17394 bound_to 11000
  139.9041  135.0174  156.7405 LP  0  0  0  0  0  0  0  0  0  0  0  0  # atno 17395 bound_to 11000

$$$$
