AV-unprocessed.smi:949|AV-procd|sdf|4247|dock8
  -GOLD-   22720 2153D 1   1.00000     0.00000
 Structure written by MMmdl.
 32 33  0  0  0  0  0  0  0  0  1 V2000
  150.0505  140.4946  157.5382 C   0  0  0  0  0  0  0  0  0  0  0  0
  150.5867  141.7084  156.7576 C   0  0  1  0  0  0  0  0  0  0  0  0
  149.6380  142.1110  155.7247 N   0  0  0  0  0  0  0  0  0  0  0  0
  148.9908  141.1943  154.8770 C   0  0  0  0  0  0  0  0  0  0  0  0
  149.4875  139.8913  154.6345 C   0  0  0  0  0  0  0  0  0  0  0  0
  148.7737  139.0399  153.7686 C   0  0  0  0  0  0  0  0  0  0  0  0
  147.6311  139.3982  153.1485 N   0  0  0  0  0  0  0  0  0  0  0  0
  147.1571  140.6400  153.3776 C   0  0  0  0  0  0  0  0  0  0  0  0
  147.7910  141.5729  154.2253 C   0  0  0  0  0  0  0  0  0  0  0  0
  147.2242  142.8379  154.4003 N   0  0  0  0  0  0  0  0  0  0  0  0
  150.8766  142.8909  157.7028 C   0  0  2  0  0  0  0  0  0  0  0  0
  151.6239  144.0554  157.0468 C   0  0  0  0  0  0  0  0  0  0  0  0
  152.3129  144.6898  158.2323 C   0  0  0  0  0  0  0  0  0  0  0  0
  152.7203  143.4617  159.0376 C   0  0  0  0  0  0  0  0  0  0  0  0
  151.7233  142.4780  158.7754 O   0  0  0  0  0  0  0  0  0  0  0  0
  150.7663  140.1619  158.2902 H   0  0  0  0  0  0  0  0  0  0  0  0
  149.8552  139.6463  156.8826 H   0  0  0  0  0  0  0  0  0  0  0  0
  149.1192  140.7347  158.0523 H   0  0  0  0  0  0  0  0  0  0  0  0
  151.5292  141.4362  156.2827 H   0  0  0  0  0  0  0  0  0  0  0  0
  149.4472  143.0958  155.6124 H   0  0  0  0  0  0  0  0  0  0  0  0
  150.3935  139.5272  155.0933 H   0  0  0  0  0  0  0  0  0  0  0  0
  149.1327  138.0413  153.5685 H   0  0  0  0  0  0  0  0  0  0  0  0
  146.2410  140.8970  152.8658 H   0  0  0  0  0  0  0  0  0  0  0  0
  147.6580  143.5235  155.0016 H   0  0  0  0  0  0  0  0  0  0  0  0
  146.4870  143.1677  153.7943 H   0  0  0  0  0  0  0  0  0  0  0  0
  149.9490  143.2636  158.1404 H   0  0  0  0  0  0  0  0  0  0  0  0
  152.3674  143.6872  156.3381 H   0  0  0  0  0  0  0  0  0  0  0  0
  150.9620  144.7433  156.5199 H   0  0  0  0  0  0  0  0  0  0  0  0
  153.1590  145.3186  157.9542 H   0  0  0  0  0  0  0  0  0  0  0  0
  151.6045  145.2959  158.7987 H   0  0  0  0  0  0  0  0  0  0  0  0
  153.6809  143.0805  158.6885 H   0  0  0  0  0  0  0  0  0  0  0  0
  152.8054  143.6706  160.1042 H   0  0  0  0  0  0  0  0  0  0  0  0
  1  2  1  0  0  0  0
  1 16  1  0  0  0  0
  1 17  1  0  0  0  0
  1 18  1  0  0  0  0
  2  3  1  0  0  0  0
  2 11  1  0  0  0  0
  2 19  1  0  0  0  0
  3  4  1  0  0  0  0
  3 20  1  0  0  0  0
  4  9  1  0  0  0  0
  4  5  2  0  0  0  0
  5  6  1  0  0  0  0
  5 21  1  0  0  0  0
  6  7  2  0  0  0  0
  6 22  1  0  0  0  0
  7  8  1  0  0  0  0
  8  9  2  0  0  0  0
  8 23  1  0  0  0  0
  9 10  1  0  0  0  0
 10 24  1  0  0  0  0
 10 25  1  0  0  0  0
 11 15  1  0  0  0  0
 11 12  1  0  0  0  0
 11 26  1  0  0  0  0
 12 13  1  0  0  0  0
 12 27  1  0  0  0  0
 12 28  1  0  0  0  0
 13 14  1  0  0  0  0
 13 29  1  0  0  0  0
 13 30  1  0  0  0  0
 14 15  1  0  0  0  0
 14 31  1  0  0  0  0
 14 32  1  0  0  0  0
M  END
> <s_m_source_file>
AV-unprocessed.smi

> <i_m_source_file_index>
949

> <i_lp_mmshare_version>
43012

> <i_f3d_flags>
0

> <s_epik_input>
TzFbQ0gyXVtDSDJdW0NIMl1bQ0BIXTFbQ0BIXShbQ0gzXSlbTkhdYzJbY0hdW2NIXW5bY0hdYzJbTkgyXQ==

> <s_epik_cmdline>
J2VwaWtfcHl0aG9uJywgJy1waCcsICc3LjAnLCAnLXRuJywgJzgnLCAnLW1hJywgJzIwMCcsICctbWV0YWxfYmluZGluZycsICctaW1hZScsICc8aW5maWxlLm1hZT4nLCAnLW9tYWUnLCAnPG91dGZpbGUubWFlPic=

> <r_epik_Ionization_Penalty>
3.88091

> <r_epik_Ionization_Penalty_Charging>
0

> <r_epik_Ionization_Penalty_Neutral>
3.88091

> <r_epik_State_Penalty>
3.88049

> <r_epik_Charging_Adjusted_Penalty>
3.88049

> <i_epik_Tot_Q>
0

> <i_epik_Tot_abs_Q>
0

> <r_epik_Metal_State_Penalty>
0.313783

> <b_epik_Metal_Only>
1

> <s_lp_Force_Field>
OPLS_2005

> <r_lp_Energy>
23.3849

> <b_lp_Chiralities_Consistent>
1

> <s_lp_Variant>
AV-unprocessed.smi:949-6

> <Gold.Version>
5.8.1

> <Gold.Id.Protein>
6NUR|6NUR_protein|mol2

> <Gold.PLP.Fitness>
42.9285

> <Gold.PLP.PLP>
-31.9071

> <Gold.PLP.part.hbond>
-2.0000

> <Gold.PLP.part.metal>
0.0000

> <Gold.PLP.part.buried>
-3.3534

> <Gold.PLP.part.nonpolar>
-28.8354

> <Gold.PLP.part.repulsive>
1.5351

> <Gold.PLP.ligand.clash>
0.0000

> <Gold.PLP.ligand.torsion>
0.3167

> <Gold.PLP.Chemscore.Hbond>
2.0000

> <Gold.PLP.Chemscore.CHOScore>
1.8809

> <Gold.PLP.Chemscore.Metal>
0.0000

> <Gold.Chemscore.Hbonds>
donor molecule, donor type, donor heavy atom, donor atom, acceptor molecule, acceptor atom, score
      L1  H     3    20       P1  8028  1.00
      L1  H    10    24       P1  8028  1.00
      L1  C     6    22       P1  7948  1.00
      L1  C     8    23       P1 10175  0.80

> <Gold.PLP.Chemscore.Internal.Correction>
0.0122

> <Gold.Rescore>
     Score         DG    S(hbond)    S(metal)    S(lipo)     H(rot)  DE(clash)    DE(int)     intcor
     17.71     -19.23       1.82        0.00      92.31       1.22       0.03       1.50       ----

> <Gold.Chemscore.Fitness>
17.7107

> <Gold.Chemscore.DG>
-19.2344

> <Gold.Chemscore.ZeroCoef>
-5.4800

> <Gold.Chemscore.Hbond>
1.8172

> <Gold.Chemscore.Metal>
0.0000

> <Gold.Chemscore.Lipo>
92.3073

> <Gold.Chemscore.Internal_Hbond>
0.0000

> <Gold.Chemscore.DEClash>
0.0282

> <Gold.Chemscore.DEInternal>
1.4955

> <Gold.Chemscore.Rot>
1.2169

> <Gold.Chemscore.Internal.Correction>
   9.000000E+99

> <Gold.Chemscore.Hbonds>
donor molecule, donor type, donor heavy atom, donor atom, acceptor molecule, acceptor atom, score
      L1  H     3    20       P1  8028  1.00
      L1  H    10    24       P1  8028  0.26

> <Gold.Chemscore.Hbond.Weighted>
-6.0696

> <Gold.Chemscore.Metal.Weighted>
-0.0000

> <Gold.Chemscore.Lipo.Weighted>
-10.7999

> <Gold.Chemscore.Internal_Hbond.Weighted>
0.0000

> <Gold.Chemscore.DEClash.Weighted>
0.0282

> <Gold.Chemscore.DEInternal.Weighted>
1.4955

> <Gold.Chemscore.Rot.Weighted>
3.1152

> <Gold.Chemscore.Internal.Correction.Weighted>
   9.000000E+99

> <Gold.Protein.RotatedTorsions>
[ 6907 6896 6895 6894 ] final  -15.56 input  -60.11 | X-H torsion
[ 7974 7965 7964 7962 ] final -149.25 input  175.53 | X-H torsion
[ 8008 7997 7996 7995 ] final    7.10 input   59.86 | X-H torsion
[ 10167 10162 10161 10158 ] final -142.56 input  -65.29 | X-H torsion
[ 10718 10713 10712 10709 ] final  147.90 input   66.30 | X-H torsion
[ 10763 10752 10751 10750 ] final   35.69 input  -60.55 | X-H torsion
[ 11005 11000 10999 10996 ] final  110.92 input  -57.11 | X-H torsion

> <Gold.Protein.ActiveResidues>
 VAL166  LYS551  ARG553  GLY616  TRP617  ASP618  TYR619  PRO620  LYS621  CYS622 
 ASP623  PHE694  ASN695  SER759  ASP760  ASP761  ALA762  ILE779  LEU786  VAL792 
 PHE793  MET794  SER795  GLU796  ALA797  LYS798  CYS799  TRP800  GLU811  SER814 

> <Gold.Protein.RotatedAtoms>
  151.3220  135.0821  159.9308 H   0  0  0  0  0  0  0  0  0  0  0  0  # atno 6907 bound_to 6896
  152.5254  133.9629  159.7736 H   0  0  0  0  0  0  0  0  0  0  0  0  # atno 6908 bound_to 6896
  150.9952  133.6058  159.2733 H   0  0  0  0  0  0  0  0  0  0  0  0  # atno 6909 bound_to 6896
  144.7979  140.5089  143.5727 H   0  0  0  0  0  0  0  0  0  0  0  0  # atno 7974 bound_to 7965
  154.7495  140.2764  155.6304 H   0  0  0  0  0  0  0  0  0  0  0  0  # atno 8008 bound_to 7997
  156.2892  140.2681  156.2171 H   0  0  0  0  0  0  0  0  0  0  0  0  # atno 8009 bound_to 7997
  155.0155  140.0372  157.2406 H   0  0  0  0  0  0  0  0  0  0  0  0  # atno 8010 bound_to 7997
  139.8077  143.7746  152.2662 H   0  0  0  0  0  0  0  0  0  0  0  0  # atno 10167 bound_to 10162
  157.3153  131.0895  151.1284 H   0  0  0  0  0  0  0  0  0  0  0  0  # atno 10718 bound_to 10713
  153.0108  135.6326  154.1866 H   0  0  0  0  0  0  0  0  0  0  0  0  # atno 10763 bound_to 10752
  154.1608  135.2823  155.3111 H   0  0  0  0  0  0  0  0  0  0  0  0  # atno 10764 bound_to 10752
  154.5983  135.5595  153.7408 H   0  0  0  0  0  0  0  0  0  0  0  0  # atno 10765 bound_to 10752
  139.8892  134.9496  156.6353 H   0  0  0  0  0  0  0  0  0  0  0  0  # atno 11005 bound_to 11000
  145.5627  139.1480  143.3332 LP  0  0  0  0  0  0  0  0  0  0  0  0  # atno 17320 bound_to 7965
  146.2252  140.5763  142.8999 LP  0  0  0  0  0  0  0  0  0  0  0  0  # atno 17321 bound_to 7965
  139.7885  144.7419  150.9988 LP  0  0  0  0  0  0  0  0  0  0  0  0  # atno 17342 bound_to 10162
  140.7819  143.4467  151.0473 LP  0  0  0  0  0  0  0  0  0  0  0  0  # atno 17343 bound_to 10162
  157.2590  130.6650  149.5966 LP  0  0  0  0  0  0  0  0  0  0  0  0  # atno 17370 bound_to 10713
  155.9681  130.4515  150.5736 LP  0  0  0  0  0  0  0  0  0  0  0  0  # atno 17371 bound_to 10713
  140.7635  133.8798  155.8436 LP  0  0  0  0  0  0  0  0  0  0  0  0  # atno 17394 bound_to 11000
  140.9902  134.1288  157.4415 LP  0  0  0  0  0  0  0  0  0  0  0  0  # atno 17395 bound_to 11000

$$$$
