AV-unprocessed.smi:2677|AV-procd|sdf|10365|dock1
  -GOLD-   2272014393D 1   1.00000     0.00000
 Structure written by MMmdl.
 40 41  0  0  0  0  0  0  0  0  1 V2000
  145.4867  143.0171  154.8326 C   0  0  0  0  0  0  0  0  0  0  0  0
  146.2786  142.5387  153.6111 C   0  0  0  0  0  0  0  0  0  0  0  0
  147.4044  141.6212  153.9873 C   0  0  0  0  0  0  0  0  0  0  0  0
  148.3694  142.0624  154.8964 N   0  0  0  0  0  0  0  0  0  0  0  0
  149.3104  141.1468  155.1377 C   0  0  0  0  0  0  0  0  0  0  0  0
  150.4960  141.3921  156.0158 C   0  0  0  0  0  0  0  0  0  0  0  0
  150.1478  141.4519  157.5158 C   0  0  0  0  0  0  0  0  0  0  0  0
  151.2537  141.9681  158.3159 N   0  0  0  0  0  0  0  0  0  0  0  0
  152.1448  141.2203  158.9877 C   0  0  0  0  0  0  0  0  0  0  0  0
  152.1790  139.9934  158.8850 O   0  0  0  0  0  0  0  0  0  0  0  0
  153.0025  141.9277  159.7661 N   0  0  0  0  0  0  0  0  0  0  0  0
  154.2447  141.4191  160.3712 C   0  0  0  0  0  0  0  0  0  0  0  0
  153.9943  141.1225  161.8582 C   0  0  0  0  0  0  0  0  0  0  0  0
  153.5561  142.6431  162.7572 S   0  0  0  0  0  0  0  0  0  0  0  0
  152.2479  143.2797  161.6624 C   0  0  0  0  0  0  0  0  0  0  0  0
  152.7115  143.3006  160.1958 C   0  0  0  0  0  0  0  0  0  0  0  0
  149.0654  139.6550  154.2422 S   0  0  0  0  0  0  0  0  0  0  0  0
  147.6211  140.3384  153.5402 C   0  0  0  0  0  0  0  0  0  0  0  0
  146.7945  139.5515  152.5779 C   0  0  0  0  0  0  0  0  0  0  0  0
  144.6748  143.6806  154.5344 H   0  0  0  0  0  0  0  0  0  0  0  0
  146.1251  143.5635  155.5275 H   0  0  0  0  0  0  0  0  0  0  0  0
  145.0491  142.1753  155.3701 H   0  0  0  0  0  0  0  0  0  0  0  0
  145.6014  142.0428  152.9151 H   0  0  0  0  0  0  0  0  0  0  0  0
  146.6691  143.4053  153.0760 H   0  0  0  0  0  0  0  0  0  0  0  0
  151.2266  140.6019  155.8381 H   0  0  0  0  0  0  0  0  0  0  0  0
  150.9721  142.3235  155.7089 H   0  0  0  0  0  0  0  0  0  0  0  0
  149.2438  142.0410  157.6771 H   0  0  0  0  0  0  0  0  0  0  0  0
  149.9281  140.4465  157.8759 H   0  0  0  0  0  0  0  0  0  0  0  0
  151.2998  142.9699  158.4320 H   0  0  0  0  0  0  0  0  0  0  0  0
  154.6329  140.5318  159.8702 H   0  0  0  0  0  0  0  0  0  0  0  0
  155.0369  142.1622  160.2693 H   0  0  0  0  0  0  0  0  0  0  0  0
  153.1898  140.3951  161.9719 H   0  0  0  0  0  0  0  0  0  0  0  0
  154.8843  140.6901  162.3153 H   0  0  0  0  0  0  0  0  0  0  0  0
  151.3594  142.6565  161.7706 H   0  0  0  0  0  0  0  0  0  0  0  0
  151.9759  144.2833  161.9897 H   0  0  0  0  0  0  0  0  0  0  0  0
  153.5992  143.9255  160.0882 H   0  0  0  0  0  0  0  0  0  0  0  0
  151.9480  143.7740  159.5768 H   0  0  0  0  0  0  0  0  0  0  0  0
  146.9421  139.9116  151.5597 H   0  0  0  0  0  0  0  0  0  0  0  0
  145.7344  139.6358  152.8167 H   0  0  0  0  0  0  0  0  0  0  0  0
  147.0589  138.4942  152.6033 H   0  0  0  0  0  0  0  0  0  0  0  0
  1  2  1  0  0  0  0
  1 20  1  0  0  0  0
  1 21  1  0  0  0  0
  1 22  1  0  0  0  0
  2  3  1  0  0  0  0
  2 23  1  0  0  0  0
  2 24  1  0  0  0  0
  3 18  2  0  0  0  0
  3  4  1  0  0  0  0
  4  5  2  0  0  0  0
  5  6  1  0  0  0  0
  5 17  1  0  0  0  0
  6  7  1  0  0  0  0
  6 25  1  0  0  0  0
  6 26  1  0  0  0  0
  7  8  1  0  0  0  0
  7 27  1  0  0  0  0
  7 28  1  0  0  0  0
  8  9  1  0  0  0  0
  8 29  1  0  0  0  0
  9 10  2  0  0  0  0
  9 11  1  0  0  0  0
 11 16  1  0  0  0  0
 11 12  1  0  0  0  0
 12 13  1  0  0  0  0
 12 30  1  0  0  0  0
 12 31  1  0  0  0  0
 13 14  1  0  0  0  0
 13 32  1  0  0  0  0
 13 33  1  0  0  0  0
 14 15  1  0  0  0  0
 15 16  1  0  0  0  0
 15 34  1  0  0  0  0
 15 35  1  0  0  0  0
 16 36  1  0  0  0  0
 16 37  1  0  0  0  0
 17 18  1  0  0  0  0
 18 19  1  0  0  0  0
 19 38  1  0  0  0  0
 19 39  1  0  0  0  0
 19 40  1  0  0  0  0
M  END
> <s_m_source_file>
AV-unprocessed.smi

> <i_m_source_file_index>
2677

> <i_lp_mmshare_version>
43012

> <i_f3d_flags>
0

> <s_epik_input>
W0NIM11bQ0gyXWMxbmMoc2MxW0NIM10pW0NIMl1bQ0gyXVtOSF1DKD1PKU4yW0NIMl1bQ0gyXVNbQ0gyXVtDSDJdMg==

> <s_epik_cmdline>
J2VwaWtfcHl0aG9uJywgJy1waCcsICc3LjAnLCAnLXRuJywgJzgnLCAnLW1hJywgJzIwMCcsICctbWV0YWxfYmluZGluZycsICctaW1hZScsICc8aW5maWxlLm1hZT4nLCAnLW9tYWUnLCAnPG91dGZpbGUubWFlPic=

> <r_epik_Ionization_Penalty>
0.00440659

> <r_epik_Ionization_Penalty_Charging>
0

> <r_epik_Ionization_Penalty_Neutral>
0.00440659

> <r_epik_State_Penalty>
0.00314229

> <r_epik_Charging_Adjusted_Penalty>
0.00314229

> <i_epik_Tot_Q>
0

> <i_epik_Tot_abs_Q>
0

> <r_epik_Metal_State_Penalty>
-0

> <b_epik_Metal_Only>
0

> <s_lp_Force_Field>
OPLS_2005

> <r_lp_Energy>
14.3594

> <b_lp_Chiralities_Consistent>
1

> <s_lp_Variant>
AV-unprocessed.smi:2677-1

> <Gold.Version>
5.8.1

> <Gold.Id.Protein>
6NUR|6NUR_protein|mol2

> <Gold.PLP.Fitness>
43.8975

> <Gold.PLP.PLP>
-45.5714

> <Gold.PLP.part.hbond>
0.0000

> <Gold.PLP.part.metal>
0.0000

> <Gold.PLP.part.buried>
-3.6955

> <Gold.PLP.part.nonpolar>
-43.7352

> <Gold.PLP.part.repulsive>
2.4743

> <Gold.PLP.ligand.clash>
0.8454

> <Gold.PLP.ligand.torsion>
0.4383

> <Gold.PLP.Chemscore.Hbond>
0.0000

> <Gold.PLP.Chemscore.CHOScore>
0.0000

> <Gold.PLP.Chemscore.Metal>
0.0000

> <Gold.PLP.Chemscore.Internal.Correction>
0.0481

> <Gold.Rescore>
     Score         DG    S(hbond)    S(metal)    S(lipo)     H(rot)  DE(clash)    DE(int)     intcor
     14.60     -15.27       0.00        0.00     114.29       1.40       0.29       0.37       ----

> <Gold.Chemscore.Fitness>
14.6042

> <Gold.Chemscore.DG>
-15.2686

> <Gold.Chemscore.ZeroCoef>
-5.4800

> <Gold.Chemscore.Hbond>
0.0000

> <Gold.Chemscore.Metal>
0.0000

> <Gold.Chemscore.Lipo>
114.2950

> <Gold.Chemscore.Internal_Hbond>
0.0000

> <Gold.Chemscore.DEClash>
0.2949

> <Gold.Chemscore.DEInternal>
0.3694

> <Gold.Chemscore.Rot>
1.4000

> <Gold.Chemscore.Internal.Correction>
   9.000000E+99

> <Gold.Chemscore.Hbond.Weighted>
-0.0000

> <Gold.Chemscore.Metal.Weighted>
-0.0000

> <Gold.Chemscore.Lipo.Weighted>
-13.3725

> <Gold.Chemscore.Internal_Hbond.Weighted>
0.0000

> <Gold.Chemscore.DEClash.Weighted>
0.2949

> <Gold.Chemscore.DEInternal.Weighted>
0.3694

> <Gold.Chemscore.Rot.Weighted>
3.5839

> <Gold.Chemscore.Internal.Correction.Weighted>
   9.000000E+99

> <Gold.Protein.RotatedTorsions>
[ 6907 6896 6895 6894 ] final  -96.76 input  -60.11 | X-H torsion
[ 7974 7965 7964 7962 ] final  168.36 input  175.53 | X-H torsion
[ 8008 7997 7996 7995 ] final  157.05 input   59.86 | X-H torsion
[ 10167 10162 10161 10158 ] final  -97.99 input  -65.29 | X-H torsion
[ 10718 10713 10712 10709 ] final  -29.96 input   66.30 | X-H torsion
[ 10763 10752 10751 10750 ] final   14.32 input  -60.55 | X-H torsion
[ 11005 11000 10999 10996 ] final  168.19 input  -57.11 | X-H torsion

> <Gold.Protein.ActiveResidues>
 VAL166  LYS551  ARG553  GLY616  TRP617  ASP618  TYR619  PRO620  LYS621  CYS622 
 ASP623  PHE694  ASN695  SER759  ASP760  ASP761  ALA762  ILE779  LEU786  VAL792 
 PHE793  MET794  SER795  GLU796  ALA797  LYS798  CYS799  TRP800  GLU811  SER814 

> <Gold.Protein.RotatedAtoms>
  150.6997  134.1454  159.4120 H   0  0  0  0  0  0  0  0  0  0  0  0  # atno 6907 bound_to 6896
  151.9437  135.0199  160.0547 H   0  0  0  0  0  0  0  0  0  0  0  0  # atno 6908 bound_to 6896
  152.2071  133.4848  159.5126 H   0  0  0  0  0  0  0  0  0  0  0  0  # atno 6909 bound_to 6896
  144.7391  139.8896  143.6402 H   0  0  0  0  0  0  0  0  0  0  0  0  # atno 7974 bound_to 7965
  156.2387  140.1896  156.7048 H   0  0  0  0  0  0  0  0  0  0  0  0  # atno 8008 bound_to 7997
  154.6155  140.0616  156.9576 H   0  0  0  0  0  0  0  0  0  0  0  0  # atno 8009 bound_to 7997
  155.1946  140.3287  155.4355 H   0  0  0  0  0  0  0  0  0  0  0  0  # atno 8010 bound_to 7997
  140.2776  143.3303  152.0473 H   0  0  0  0  0  0  0  0  0  0  0  0  # atno 10167 bound_to 10162
  156.4058  130.4399  149.7288 H   0  0  0  0  0  0  0  0  0  0  0  0  # atno 10718 bound_to 10713
  153.1634  135.6800  153.8710 H   0  0  0  0  0  0  0  0  0  0  0  0  # atno 10763 bound_to 10752
  153.8098  135.3144  155.3400 H   0  0  0  0  0  0  0  0  0  0  0  0  # atno 10764 bound_to 10752
  154.7948  135.4813  154.0226 H   0  0  0  0  0  0  0  0  0  0  0  0  # atno 10765 bound_to 10752
  140.2846  134.7722  157.3787 H   0  0  0  0  0  0  0  0  0  0  0  0  # atno 11005 bound_to 11000
  146.1152  139.4162  143.0263 LP  0  0  0  0  0  0  0  0  0  0  0  0  # atno 17320 bound_to 7965
  145.7386  141.0016  143.1313 LP  0  0  0  0  0  0  0  0  0  0  0  0  # atno 17321 bound_to 7965
  139.4971  144.6614  151.6456 LP  0  0  0  0  0  0  0  0  0  0  0  0  # atno 17342 bound_to 10162
  140.5838  143.9899  150.6284 LP  0  0  0  0  0  0  0  0  0  0  0  0  # atno 17343 bound_to 10162
  156.4287  130.7804  151.2823 LP  0  0  0  0  0  0  0  0  0  0  0  0  # atno 17370 bound_to 10713
  157.7505  131.0161  150.3530 LP  0  0  0  0  0  0  0  0  0  0  0  0  # atno 17371 bound_to 10713
  140.1251  134.5168  155.8151 LP  0  0  0  0  0  0  0  0  0  0  0  0  # atno 17394 bound_to 11000
  141.2157  133.6770  156.6937 LP  0  0  0  0  0  0  0  0  0  0  0  0  # atno 17395 bound_to 11000

$$$$
