AV-unprocessed.smi:536|AV-procd|sdf|2862|dock3
  -GOLD-   2262023353D 1   1.00000     0.00000
 Structure written by MMmdl.
 46 48  0  0  0  0  0  0  0  0  1 V2000
  147.7838  141.1953  153.4508 C   0  0  0  0  0  0  0  0  0  0  0  0
  149.1102  141.5181  153.8274 O   0  0  0  0  0  0  0  0  0  0  0  0
  149.2536  141.6958  155.2265 C   0  0  0  0  0  0  0  0  0  0  0  0
  150.7096  142.0434  155.5757 C   0  0  0  0  0  0  0  0  0  0  0  0
  151.2684  141.1298  156.5666 N   0  0  0  0  0  0  0  0  0  0  0  0
  151.6566  141.4144  157.8361 C   0  0  0  0  0  0  0  0  0  0  0  0
  151.4948  142.6889  158.3721 N   0  0  0  0  0  0  0  0  0  0  0  0
  152.6407  143.4861  158.8011 C   0  0  0  0  0  0  0  0  0  0  0  0
  152.4676  144.2001  160.1547 C   0  0  0  0  0  0  0  0  0  0  0  0
  151.5815  145.4516  160.0605 C   0  0  0  0  0  0  0  0  0  0  0  0
  150.0687  145.1817  160.1225 C   0  0  0  0  0  0  0  0  0  0  0  0
  149.5982  143.8571  159.4992 C   0  0  0  0  0  0  0  0  0  0  0  0
  150.2836  143.4808  158.1748 C   0  0  0  0  0  0  0  0  0  0  0  0
  152.1659  140.3834  158.5150 N   0  0  0  0  0  0  0  0  0  0  0  0
  152.0802  139.3444  157.5998 C   0  0  0  0  0  0  0  0  0  0  0  0
  151.5344  139.7667  156.4311 C   0  0  0  0  0  0  0  0  0  0  0  0
  151.3123  138.8629  155.2950 C   0  0  0  0  0  0  0  0  0  0  0  0
  150.8036  139.2170  154.2338 O   0  0  0  0  0  0  0  0  0  0  0  0
  151.7205  137.5939  155.5397 N   0  0  0  0  0  0  0  0  0  0  0  0
  152.2809  137.1056  156.6887 C   0  0  0  0  0  0  0  0  0  0  0  0
  152.5992  135.9186  156.7543 O   0  0  0  0  0  0  0  0  0  0  0  0
  152.4615  137.9805  157.7313 N   0  0  0  0  0  0  0  0  0  0  0  0
  153.0440  137.5582  159.0066 C   0  0  0  0  0  0  0  0  0  0  0  0
  151.5925  136.9311  154.7890 H   0  0  0  0  0  0  0  0  0  0  0  0
  147.7331  141.0638  152.3701 H   0  0  0  0  0  0  0  0  0  0  0  0
  147.0907  141.9913  153.7261 H   0  0  0  0  0  0  0  0  0  0  0  0
  147.4555  140.2665  153.9189 H   0  0  0  0  0  0  0  0  0  0  0  0
  148.5886  142.4937  155.5572 H   0  0  0  0  0  0  0  0  0  0  0  0
  148.9574  140.7854  155.7496 H   0  0  0  0  0  0  0  0  0  0  0  0
  151.3229  142.0138  154.6758 H   0  0  0  0  0  0  0  0  0  0  0  0
  150.7827  143.0654  155.9452 H   0  0  0  0  0  0  0  0  0  0  0  0
  153.4989  142.8167  158.8758 H   0  0  0  0  0  0  0  0  0  0  0  0
  152.8924  144.2042  158.0197 H   0  0  0  0  0  0  0  0  0  0  0  0
  152.1119  143.5167  160.9267 H   0  0  0  0  0  0  0  0  0  0  0  0
  153.4576  144.5221  160.4794 H   0  0  0  0  0  0  0  0  0  0  0  0
  151.8395  146.1380  160.8678 H   0  0  0  0  0  0  0  0  0  0  0  0
  151.8181  145.9866  159.1399 H   0  0  0  0  0  0  0  0  0  0  0  0
  149.7458  145.1980  161.1640 H   0  0  0  0  0  0  0  0  0  0  0  0
  149.5510  146.0130  159.6423 H   0  0  0  0  0  0  0  0  0  0  0  0
  149.7239  143.0524  160.2233 H   0  0  0  0  0  0  0  0  0  0  0  0
  148.5231  143.9289  159.3314 H   0  0  0  0  0  0  0  0  0  0  0  0
  150.4969  144.3682  157.5778 H   0  0  0  0  0  0  0  0  0  0  0  0
  149.5907  142.8808  157.5834 H   0  0  0  0  0  0  0  0  0  0  0  0
  153.3283  136.5060  159.0390 H   0  0  0  0  0  0  0  0  0  0  0  0
  152.3322  137.7298  159.8147 H   0  0  0  0  0  0  0  0  0  0  0  0
  153.9394  138.1434  159.2186 H   0  0  0  0  0  0  0  0  0  0  0  0
  1  2  1  0  0  0  0
  1 25  1  0  0  0  0
  1 26  1  0  0  0  0
  1 27  1  0  0  0  0
  2  3  1  0  0  0  0
  3  4  1  0  0  0  0
  3 28  1  0  0  0  0
  3 29  1  0  0  0  0
  4  5  1  0  0  0  0
  4 30  1  0  0  0  0
  4 31  1  0  0  0  0
  5 16  1  0  0  0  0
  5  6  1  0  0  0  0
  6  7  1  0  0  0  0
  6 14  2  0  0  0  0
  7 13  1  0  0  0  0
  7  8  1  0  0  0  0
  8  9  1  0  0  0  0
  8 32  1  0  0  0  0
  8 33  1  0  0  0  0
  9 10  1  0  0  0  0
  9 34  1  0  0  0  0
  9 35  1  0  0  0  0
 10 11  1  0  0  0  0
 10 36  1  0  0  0  0
 10 37  1  0  0  0  0
 11 12  1  0  0  0  0
 11 38  1  0  0  0  0
 11 39  1  0  0  0  0
 12 13  1  0  0  0  0
 12 40  1  0  0  0  0
 12 41  1  0  0  0  0
 13 42  1  0  0  0  0
 13 43  1  0  0  0  0
 14 15  1  0  0  0  0
 15 22  1  0  0  0  0
 15 16  2  0  0  0  0
 16 17  1  0  0  0  0
 17 18  2  0  0  0  0
 17 19  1  0  0  0  0
 19 24  1  0  0  0  0
 19 20  1  0  0  0  0
 20 21  2  0  0  0  0
 20 22  1  0  0  0  0
 22 23  1  0  0  0  0
 23 44  1  0  0  0  0
 23 45  1  0  0  0  0
 23 46  1  0  0  0  0
M  END
> <s_m_source_file>
AV-unprocessed.smi

> <i_m_source_file_index>
536

> <i_lp_mmshare_version>
43012

> <i_f3d_flags>
0

> <s_epik_input>
W0NIM11uMWMoPU8pW25IXWMoPU8pYyhjMTIpbihbQ0gyXVtDSDJdT1tDSDNdKWMobjIpTjNbQ0gyXVtDSDJdW0NIMl1bQ0gyXVtDSDJdW0NIMl0z

> <s_epik_cmdline>
J2VwaWtfcHl0aG9uJywgJy1waCcsICc3LjAnLCAnLXRuJywgJzgnLCAnLW1hJywgJzIwMCcsICctbWV0YWxfYmluZGluZycsICctaW1hZScsICc8aW5maWxlLm1hZT4nLCAnLW9tYWUnLCAnPG91dGZpbGUubWFlPic=

> <r_lp_tautomer_probability>
1

> <r_epik_Ionization_Penalty>
0.000219348

> <r_epik_Ionization_Penalty_Charging>
2.05342e-05

> <r_epik_Ionization_Penalty_Neutral>
0.000198814

> <r_epik_State_Penalty>
-0

> <r_epik_Charging_Adjusted_Penalty>
2.05342e-05

> <i_epik_Tot_Q>
0

> <i_epik_Tot_abs_Q>
0

> <r_epik_Metal_State_Penalty>
0.0195159

> <b_epik_Metal_Only>
0

> <s_lp_Force_Field>
OPLS_2005

> <r_lp_Energy>
45.5568

> <b_lp_Chiralities_Consistent>
1

> <s_lp_Variant>
AV-unprocessed.smi:536-1

> <Gold.Version>
5.8.1

> <Gold.Id.Protein>
6NUR|6NUR_protein|mol2

> <Gold.PLP.Fitness>
44.8545

> <Gold.PLP.PLP>
-38.2738

> <Gold.PLP.part.hbond>
-3.8026

> <Gold.PLP.part.metal>
0.0000

> <Gold.PLP.part.buried>
-2.0658

> <Gold.PLP.part.nonpolar>
-32.3878

> <Gold.PLP.part.repulsive>
0.7546

> <Gold.PLP.ligand.clash>
0.0000

> <Gold.PLP.ligand.torsion>
1.3487

> <Gold.PLP.Chemscore.Hbond>
2.7520

> <Gold.PLP.Chemscore.CHOScore>
0.0000

> <Gold.PLP.Chemscore.Metal>
0.0000

> <Gold.Chemscore.Hbonds>
donor molecule, donor type, donor heavy atom, donor atom, acceptor molecule, acceptor atom, score
      P1  H  7989  7998       L1    18  1.00
      P1  H  8011  8017       L1     2  0.72
      P1  H 10752 10765       L1    21  1.00

> <Gold.PLP.Chemscore.Internal.Correction>
1.0222

> <Gold.Rescore>
     Score         DG    S(hbond)    S(metal)    S(lipo)     H(rot)  DE(clash)    DE(int)     intcor
     14.91     -19.67       2.09        0.00      93.53       1.46       2.38       2.38       ----

> <Gold.Chemscore.Fitness>
14.9053

> <Gold.Chemscore.DG>
-19.6659

> <Gold.Chemscore.ZeroCoef>
-5.4800

> <Gold.Chemscore.Hbond>
2.0866

> <Gold.Chemscore.Metal>
0.0000

> <Gold.Chemscore.Lipo>
93.5345

> <Gold.Chemscore.Internal_Hbond>
0.0000

> <Gold.Chemscore.DEClash>
2.3817

> <Gold.Chemscore.DEInternal>
2.3789

> <Gold.Chemscore.Rot>
1.4557

> <Gold.Chemscore.Internal.Correction>
   9.000000E+99

> <Gold.Chemscore.Hbonds>
donor molecule, donor type, donor heavy atom, donor atom, acceptor molecule, acceptor atom, score
      P1  H  7989  7998       L1    18  0.83
      P1  H  8011  8017       L1     2  0.32
      P1  H 10752 10765       L1    21  0.65

> <Gold.Chemscore.Hbond.Weighted>
-6.9691

> <Gold.Chemscore.Metal.Weighted>
-0.0000

> <Gold.Chemscore.Lipo.Weighted>
-10.9435

> <Gold.Chemscore.Internal_Hbond.Weighted>
0.0000

> <Gold.Chemscore.DEClash.Weighted>
2.3817

> <Gold.Chemscore.DEInternal.Weighted>
2.3789

> <Gold.Chemscore.Rot.Weighted>
3.7267

> <Gold.Chemscore.Internal.Correction.Weighted>
   9.000000E+99

> <Gold.Protein.RotatedTorsions>
[ 6907 6896 6895 6894 ] final  172.74 input  -60.11 | X-H torsion
[ 7974 7965 7964 7962 ] final   29.94 input  175.53 | X-H torsion
[ 8008 7997 7996 7995 ] final  -94.69 input   59.86 | X-H torsion
[ 10167 10162 10161 10158 ] final -126.95 input  -65.29 | X-H torsion
[ 10718 10713 10712 10709 ] final   39.32 input   66.30 | X-H torsion
[ 10763 10752 10751 10750 ] final -140.69 input  -60.55 | X-H torsion
[ 11005 11000 10999 10996 ] final  116.45 input  -57.11 | X-H torsion

> <Gold.Protein.ActiveResidues>
 VAL166  LYS551  ARG553  GLY616  TRP617  ASP618  TYR619  PRO620  LYS621  CYS622 
 ASP623  PHE694  ASN695  SER759  ASP760  ASP761  ALA762  ILE779  LEU786  VAL792 
 PHE793  MET794  SER795  GLU796  ALA797  LYS798  CYS799  TRP800  GLU811  SER814 

> <Gold.Protein.RotatedAtoms>
  151.7794  133.3348  159.3466 H   0  0  0  0  0  0  0  0  0  0  0  0  # atno 6907 bound_to 6896
  150.7432  134.5945  159.6014 H   0  0  0  0  0  0  0  0  0  0  0  0  # atno 6908 bound_to 6896
  152.3286  134.7290  160.0346 H   0  0  0  0  0  0  0  0  0  0  0  0  # atno 6909 bound_to 6896
  146.1641  139.6854  142.9013 H   0  0  0  0  0  0  0  0  0  0  0  0  # atno 7974 bound_to 7965
  154.7517  140.0487  157.0899 H   0  0  0  0  0  0  0  0  0  0  0  0  # atno 8008 bound_to 7997
  155.0049  140.3129  155.4833 H   0  0  0  0  0  0  0  0  0  0  0  0  # atno 8009 bound_to 7997
  156.2886  140.2194  156.5161 H   0  0  0  0  0  0  0  0  0  0  0  0  # atno 8010 bound_to 7997
  139.9661  143.5897  152.2429 H   0  0  0  0  0  0  0  0  0  0  0  0  # atno 10167 bound_to 10162
  157.3692  130.7692  149.7106 H   0  0  0  0  0  0  0  0  0  0  0  0  # atno 10718 bound_to 10713
  154.8570  135.3546  154.5747 H   0  0  0  0  0  0  0  0  0  0  0  0  # atno 10763 bound_to 10752
  153.6359  135.7000  153.5263 H   0  0  0  0  0  0  0  0  0  0  0  0  # atno 10764 bound_to 10752
  153.3011  135.4206  155.1212 H   0  0  0  0  0  0  0  0  0  0  0  0  # atno 10765 bound_to 10752
  139.9042  134.9598  156.7201 H   0  0  0  0  0  0  0  0  0  0  0  0  # atno 11005 bound_to 11000
  145.4512  141.0428  143.2803 LP  0  0  0  0  0  0  0  0  0  0  0  0  # atno 17320 bound_to 7965
  144.8068  139.6036  143.7047 LP  0  0  0  0  0  0  0  0  0  0  0  0  # atno 17321 bound_to 7965
  139.6517  144.7661  151.2135 LP  0  0  0  0  0  0  0  0  0  0  0  0  # atno 17342 bound_to 10162
  140.7537  143.6150  150.8568 LP  0  0  0  0  0  0  0  0  0  0  0  0  # atno 17343 bound_to 10162
  155.9752  130.4092  150.3866 LP  0  0  0  0  0  0  0  0  0  0  0  0  # atno 17370 bound_to 10713
  157.1955  131.0425  151.2678 LP  0  0  0  0  0  0  0  0  0  0  0  0  # atno 17371 bound_to 10713
  140.7007  133.9308  155.8023 LP  0  0  0  0  0  0  0  0  0  0  0  0  # atno 17394 bound_to 11000
  141.0373  134.0671  157.3944 LP  0  0  0  0  0  0  0  0  0  0  0  0  # atno 17395 bound_to 11000

$$$$
