AV-unprocessed.smi:158|AV-procd|sdf|1329|dock3
  -GOLD-   2262019 23D 1   1.00000     0.00000
 Structure written by MMmdl.
 31 33  0  0  0  0  0  0  0  0  1 V2000
  149.8489  128.4457  153.4284 N   0  0  0  0  0  0  0  0  0  0  0  0
  148.8200  129.3032  153.4871 C   0  0  0  0  0  0  0  0  0  0  0  0
  148.5731  129.9330  154.6593 N   0  0  0  0  0  0  0  0  0  0  0  0
  147.5564  130.7981  154.7606 C   0  0  0  0  0  0  0  0  0  0  0  0
  147.3342  131.5439  156.2992 Cl  0  0  0  0  0  0  0  0  0  0  0  0
  146.6937  131.1510  153.8021 N   0  0  0  0  0  0  0  0  0  0  0  0
  146.9392  130.5183  152.6178 C   0  0  0  0  0  0  0  0  0  0  0  0
  147.9804  129.5815  152.3809 C   0  0  0  0  0  0  0  0  0  0  0  0
  147.9304  129.1396  151.0656 N   0  0  0  0  0  0  0  0  0  0  0  0
  146.9138  129.7834  150.5570 C   0  0  0  0  0  0  0  0  0  0  0  0
  146.2601  130.6345  151.4210 N   0  0  0  0  0  0  0  0  0  0  0  0
  145.0745  131.4983  151.1274 C   0  0  2  0  0  0  0  0  0  0  0  0
  144.7661  131.4173  149.7665 O   0  0  0  0  0  0  0  0  0  0  0  0
  144.6049  132.7267  149.2180 C   0  0  1  0  0  0  0  0  0  0  0  0
  143.4367  132.7187  148.2200 C   0  0  0  0  0  0  0  0  0  0  0  0
  142.9999  134.0347  147.9544 O   0  0  0  0  0  0  0  0  0  0  0  0
  144.4000  133.6239  150.4446 C   0  0  2  0  0  0  0  0  0  0  0  0
  144.7302  134.9810  150.2249 O   0  0  0  0  0  0  0  0  0  0  0  0
  145.3274  132.9742  151.4523 C   0  0  2  0  0  0  0  0  0  0  0  0
  146.6036  133.2851  151.2045 F   0  0  0  0  0  0  0  0  0  0  0  0
  144.2572  131.0686  151.7082 H   0  0  0  0  0  0  0  0  0  0  0  0
  145.5372  132.9845  148.7118 H   0  0  0  0  0  0  0  0  0  0  0  0
  143.3692  133.5545  150.7955 H   0  0  0  0  0  0  0  0  0  0  0  0
  145.1033  133.2054  152.4939 H   0  0  0  0  0  0  0  0  0  0  0  0
  150.0532  127.9643  152.5645 H   0  0  0  0  0  0  0  0  0  0  0  0
  150.4183  128.2844  154.2464 H   0  0  0  0  0  0  0  0  0  0  0  0
  146.6101  129.6541  149.5285 H   0  0  0  0  0  0  0  0  0  0  0  0
  143.7549  132.2692  147.2791 H   0  0  0  0  0  0  0  0  0  0  0  0
  142.6035  132.1238  148.5954 H   0  0  0  0  0  0  0  0  0  0  0  0
  142.1978  134.1866  148.4305 H   0  0  0  0  0  0  0  0  0  0  0  0
  145.1607  135.0515  149.3861 H   0  0  0  0  0  0  0  0  0  0  0  0
  1  2  1  0  0  0  0
  1 25  1  0  0  0  0
  1 26  1  0  0  0  0
  2  8  1  0  0  0  0
  2  3  2  0  0  0  0
  3  4  1  0  0  0  0
  4  5  1  0  0  0  0
  4  6  2  0  0  0  0
  6  7  1  0  0  0  0
  7 11  1  0  0  0  0
  7  8  2  0  0  0  0
  8  9  1  0  0  0  0
  9 10  2  0  0  0  0
 10 11  1  0  0  0  0
 10 27  1  0  0  0  0
 11 12  1  0  0  0  0
 12 21  1  0  0  0  0
 12 19  1  0  0  0  0
 12 13  1  0  0  0  0
 13 14  1  0  0  0  0
 14 22  1  0  0  0  0
 14 15  1  0  0  0  0
 14 17  1  0  0  0  0
 15 16  1  0  0  0  0
 15 28  1  0  0  0  0
 15 29  1  0  0  0  0
 16 30  1  0  0  0  0
 17 23  1  0  0  0  0
 17 18  1  0  0  0  0
 17 19  1  0  0  0  0
 18 31  1  0  0  0  0
 19 24  1  0  0  0  0
 19 20  1  0  0  0  0
M  END
> <s_m_source_file>
AV-unprocessed.smi

> <i_m_source_file_index>
158

> <i_lp_mmshare_version>
43012

> <i_f3d_flags>
0

> <s_epik_input>
Q2xjKG4xKW5jKFtOSDJdKWMoYzEyKW5bY0hdbjJbQ0BASF0zT1tDQEhdKFtDSDJdW09IXSlbQ0BASF0oW09IXSlbQ0BASF0zRg==

> <s_epik_cmdline>
J2VwaWtfcHl0aG9uJywgJy1waCcsICc3LjAnLCAnLXRuJywgJzgnLCAnLW1hJywgJzIwMCcsICctbWV0YWxfYmluZGluZycsICctaW1hZScsICc8aW5maWxlLm1hZT4nLCAnLW9tYWUnLCAnPG91dGZpbGUubWFlPic=

> <r_lp_tautomer_probability>
1

> <r_epik_Ionization_Penalty>
6.51543e-05

> <r_epik_Ionization_Penalty_Charging>
0

> <r_epik_Ionization_Penalty_Neutral>
6.51543e-05

> <r_epik_State_Penalty>
-0

> <r_epik_Charging_Adjusted_Penalty>
0

> <i_epik_Tot_Q>
0

> <i_epik_Tot_abs_Q>
0

> <r_epik_Metal_State_Penalty>
-0

> <b_epik_Metal_Only>
0

> <s_epik_Chemistry_Notes>
This compound contains an acetal/aminal-like group ( X-CH(R)-Y where X, Y are N, S, or O) that may be acid/base labile, releasing an aldehyde.

> <s_lp_Force_Field>
OPLS_2005

> <r_lp_Energy>
35.9636

> <b_lp_Chiralities_Consistent>
1

> <s_lp_Variant>
AV-unprocessed.smi:158-7

> <Gold.Version>
5.8.1

> <Gold.Id.Protein>
6NUR|6NUR_protein|mol2

> <Gold.PLP.Fitness>
39.5170

> <Gold.PLP.PLP>
-32.6719

> <Gold.PLP.part.hbond>
-6.0000

> <Gold.PLP.part.metal>
0.0000

> <Gold.PLP.part.buried>
-4.3846

> <Gold.PLP.part.nonpolar>
-22.9499

> <Gold.PLP.part.repulsive>
0.4126

> <Gold.PLP.ligand.clash>
0.0000

> <Gold.PLP.ligand.torsion>
0.1647

> <Gold.PLP.Chemscore.Hbond>
2.3900

> <Gold.PLP.Chemscore.CHOScore>
0.0000

> <Gold.PLP.Chemscore.Metal>
0.0000

> <Gold.Chemscore.Hbonds>
donor molecule, donor type, donor heavy atom, donor atom, acceptor molecule, acceptor atom, score
      L1  H     1    25       P1 10737  0.32
      L1  H    16    30       P1 10186  1.00
      L1  H    18    31       P1  7921  1.00
      P1  H 10785 10796       L1    13  0.15

> <Gold.PLP.Chemscore.Internal.Correction>
0.0044

> <Gold.Rescore>
     Score         DG    S(hbond)    S(metal)    S(lipo)     H(rot)  DE(clash)    DE(int)     intcor
      9.32      -9.68       2.06        0.00      45.52       3.12       0.13       0.23       ----

> <Gold.Chemscore.Fitness>
9.3185

> <Gold.Chemscore.DG>
-9.6752

> <Gold.Chemscore.ZeroCoef>
-5.4800

> <Gold.Chemscore.Hbond>
2.0553

> <Gold.Chemscore.Metal>
0.0000

> <Gold.Chemscore.Lipo>
45.5181

> <Gold.Chemscore.Internal_Hbond>
0.0000

> <Gold.Chemscore.DEClash>
0.1289

> <Gold.Chemscore.DEInternal>
0.2279

> <Gold.Chemscore.Rot>
3.1230

> <Gold.Chemscore.Internal.Correction>
   9.000000E+99

> <Gold.Chemscore.Hbonds>
donor molecule, donor type, donor heavy atom, donor atom, acceptor molecule, acceptor atom, score
      L1  H     1    25       P1 10737  0.32
      L1  H    16    30       P1 10186  0.99
      L1  H    18    31       P1  7921  0.94
      P1  H 10785 10796       L1    13  0.08

> <Gold.Chemscore.Hbond.Weighted>
-6.8646

> <Gold.Chemscore.Metal.Weighted>
-0.0000

> <Gold.Chemscore.Lipo.Weighted>
-5.3256

> <Gold.Chemscore.Internal_Hbond.Weighted>
0.0000

> <Gold.Chemscore.DEClash.Weighted>
0.1289

> <Gold.Chemscore.DEInternal.Weighted>
0.2279

> <Gold.Chemscore.Rot.Weighted>
7.9950

> <Gold.Chemscore.Internal.Correction.Weighted>
   9.000000E+99

> <Gold.Protein.RotatedTorsions>
[ 6907 6896 6895 6894 ] final  114.53 input  -60.11 | X-H torsion
[ 7974 7965 7964 7962 ] final   25.13 input  175.53 | X-H torsion
[ 8008 7997 7996 7995 ] final  112.39 input   59.86 | X-H torsion
[ 10167 10162 10161 10158 ] final  -25.37 input  -65.29 | X-H torsion
[ 10718 10713 10712 10709 ] final   91.96 input   66.30 | X-H torsion
[ 10763 10752 10751 10750 ] final  -60.22 input  -60.55 | X-H torsion
[ 11005 11000 10999 10996 ] final   56.01 input  -57.11 | X-H torsion

> <Gold.Protein.ActiveResidues>
 VAL166  LYS551  ARG553  GLY616  TRP617  ASP618  TYR619  PRO620  LYS621  CYS622 
 ASP623  PHE694  ASN695  SER759  ASP760  ASP761  ALA762  ILE779  LEU786  VAL792 
 PHE793  MET794  SER795  GLU796  ALA797  LYS798  CYS799  TRP800  GLU811  SER814 

> <Gold.Protein.RotatedAtoms>
  152.4797  133.8223  159.7059 H   0  0  0  0  0  0  0  0  0  0  0  0  # atno 6907 bound_to 6896
  150.8838  133.7327  159.2931 H   0  0  0  0  0  0  0  0  0  0  0  0  # atno 6908 bound_to 6896
  151.4822  135.1056  159.9833 H   0  0  0  0  0  0  0  0  0  0  0  0  # atno 6909 bound_to 6896
  146.1904  139.7508  142.8836 H   0  0  0  0  0  0  0  0  0  0  0  0  # atno 7974 bound_to 7965
  156.2189  140.3000  155.9905 H   0  0  0  0  0  0  0  0  0  0  0  0  # atno 8008 bound_to 7997
  155.2533  140.0427  157.3006 H   0  0  0  0  0  0  0  0  0  0  0  0  # atno 8009 bound_to 7997
  154.5810  140.2375  155.8062 H   0  0  0  0  0  0  0  0  0  0  0  0  # atno 8010 bound_to 7997
  140.7286  143.4270  151.0861 H   0  0  0  0  0  0  0  0  0  0  0  0  # atno 10167 bound_to 10162
  157.6959  131.0426  150.3810 H   0  0  0  0  0  0  0  0  0  0  0  0  # atno 10718 bound_to 10713
  154.2658  135.6299  153.5291 H   0  0  0  0  0  0  0  0  0  0  0  0  # atno 10763 bound_to 10752
  152.9888  135.5598  154.5655 H   0  0  0  0  0  0  0  0  0  0  0  0  # atno 10764 bound_to 10752
  154.5214  135.2882  155.1235 H   0  0  0  0  0  0  0  0  0  0  0  0  # atno 10765 bound_to 10752
  140.0562  134.5667  155.9205 H   0  0  0  0  0  0  0  0  0  0  0  0  # atno 11005 bound_to 11000
  145.3811  141.0358  143.3177 LP  0  0  0  0  0  0  0  0  0  0  0  0  # atno 17320 bound_to 7965
  144.8475  139.5373  143.6872 LP  0  0  0  0  0  0  0  0  0  0  0  0  # atno 17321 bound_to 7965
  139.7923  143.8201  152.3153 LP  0  0  0  0  0  0  0  0  0  0  0  0  # atno 17342 bound_to 10162
  139.8189  144.7304  150.9598 LP  0  0  0  0  0  0  0  0  0  0  0  0  # atno 17343 bound_to 10162
  156.4223  130.3955  149.6816 LP  0  0  0  0  0  0  0  0  0  0  0  0  # atno 17370 bound_to 10713
  156.4063  130.7699  151.2710 LP  0  0  0  0  0  0  0  0  0  0  0  0  # atno 17371 bound_to 10713
  141.1953  133.6586  156.5636 LP  0  0  0  0  0  0  0  0  0  0  0  0  # atno 17394 bound_to 11000
  140.3840  134.7498  157.4680 LP  0  0  0  0  0  0  0  0  0  0  0  0  # atno 17395 bound_to 11000

$$$$
