AV-unprocessed.smi:2563|AV-procd|sdf|10057|dock6
  -GOLD-   2272014 93D 1   1.00000     0.00000
 Structure written by MMmdl.
 35 36  0  0  0  0  0  0  0  0  2 V2000
  151.5045  138.0063  158.3981 C   0  0  0  0  0  0  0  0  0  0  0  0
  150.6176  139.2434  158.2064 C   0  0  0  0  0  0  0  0  0  0  0  0
  151.3468  140.3578  157.5996 N   0  0  0  0  0  0  0  0  0  0  0  0
  151.9482  140.1623  156.2818 C   0  0  0  0  0  0  0  0  0  0  0  0
  150.8940  140.0739  155.1643 C   0  0  1  0  0  0  0  0  0  0  0  0
  150.8892  138.6846  154.4968 C   0  0  0  0  0  0  0  0  0  0  0  0
  149.8130  138.6053  153.4894 N   0  3  0  0  0  0  0  0  0  0  0  0
  148.4994  138.9452  154.0695 C   0  0  0  0  0  0  0  0  0  0  0  0
  148.5689  140.3161  154.7625 C   0  0  0  0  0  0  0  0  0  0  0  0
  149.6075  140.3013  155.7357 O   0  0  0  0  0  0  0  0  0  0  0  0
  151.5693  141.5522  158.3280 C   0  0  0  0  0  0  0  0  0  0  0  0
  151.6603  142.8133  157.6886 C   0  0  0  0  0  0  0  0  0  0  0  0
  151.8838  143.9482  158.4868 C   0  0  0  0  0  0  0  0  0  0  0  0
  152.0009  143.7511  159.8728 C   0  0  0  0  0  0  0  0  0  0  0  0
  151.9042  142.5304  160.4410 N   0  0  0  0  0  0  0  0  0  0  0  0
  151.6918  141.4535  159.6776 N   0  0  0  0  0  0  0  0  0  0  0  0
  150.9333  137.1865  158.8337 H   0  0  0  0  0  0  0  0  0  0  0  0
  152.3409  138.2170  159.0648 H   0  0  0  0  0  0  0  0  0  0  0  0
  151.9122  137.6589  157.4485 H   0  0  0  0  0  0  0  0  0  0  0  0
  149.7807  138.9816  157.5585 H   0  0  0  0  0  0  0  0  0  0  0  0
  150.1676  139.5399  159.1543 H   0  0  0  0  0  0  0  0  0  0  0  0
  152.6609  140.9613  156.0780 H   0  0  0  0  0  0  0  0  0  0  0  0
  152.5424  139.2475  156.2908 H   0  0  0  0  0  0  0  0  0  0  0  0
  151.0974  140.8353  154.4091 H   0  0  0  0  0  0  0  0  0  0  0  0
  151.8458  138.4875  154.0122 H   0  0  0  0  0  0  0  0  0  0  0  0
  150.7392  137.9030  155.2428 H   0  0  0  0  0  0  0  0  0  0  0  0
  150.0165  139.2596  152.7473 H   0  0  0  0  0  0  0  0  0  0  0  0
  147.7453  138.9494  153.2824 H   0  0  0  0  0  0  0  0  0  0  0  0
  148.2136  138.1745  154.7865 H   0  0  0  0  0  0  0  0  0  0  0  0
  148.7438  141.1133  154.0382 H   0  0  0  0  0  0  0  0  0  0  0  0
  147.6229  140.5368  155.2568 H   0  0  0  0  0  0  0  0  0  0  0  0
  151.5585  142.9345  156.6215 H   0  0  0  0  0  0  0  0  0  0  0  0
  151.9612  144.9342  158.0535 H   0  0  0  0  0  0  0  0  0  0  0  0
  152.1729  144.5846  160.5377 H   0  0  0  0  0  0  0  0  0  0  0  0
  149.7792  137.6715  153.1054 H   0  0  0  0  0  0  0  0  0  0  0  0
  1  2  1  0  0  0  0
  1 17  1  0  0  0  0
  1 18  1  0  0  0  0
  1 19  1  0  0  0  0
  2  3  1  0  0  0  0
  2 20  1  0  0  0  0
  2 21  1  0  0  0  0
  3  4  1  0  0  0  0
  3 11  1  0  0  0  0
  4  5  1  0  0  0  0
  4 22  1  0  0  0  0
  4 23  1  0  0  0  0
  5 10  1  0  0  0  0
  5  6  1  0  0  0  0
  5 24  1  0  0  0  0
  6  7  1  0  0  0  0
  6 25  1  0  0  0  0
  6 26  1  0  0  0  0
  7  8  1  0  0  0  0
  7 27  1  0  0  0  0
  7 35  1  0  0  0  0
  8  9  1  0  0  0  0
  8 28  1  0  0  0  0
  8 29  1  0  0  0  0
  9 10  1  0  0  0  0
  9 30  1  0  0  0  0
  9 31  1  0  0  0  0
 11 16  1  0  0  0  0
 11 12  2  0  0  0  0
 12 13  1  0  0  0  0
 12 32  1  0  0  0  0
 13 14  2  0  0  0  0
 13 33  1  0  0  0  0
 14 15  1  0  0  0  0
 14 34  1  0  0  0  0
 15 16  2  0  0  0  0
M  CHG  1   7   1
M  END
> <s_m_source_file>
AV-unprocessed.smi

> <i_m_source_file_index>
2563

> <i_lp_mmshare_version>
43012

> <i_f3d_flags>
0

> <s_epik_input>
bjFuW2NIXVtjSF1bY0hdYzFOKFtDSDJdW0NIM10pW0NIMl1bQ0BASF0yW0NIMl1bTkhdW0NIMl1bQ0gyXU8y

> <s_epik_cmdline>
J2VwaWtfcHl0aG9uJywgJy1waCcsICc3LjAnLCAnLXRuJywgJzgnLCAnLW1hJywgJzIwMCcsICctbWV0YWxfYmluZGluZycsICctaW1hZScsICc8aW5maWxlLm1hZT4nLCAnLW9tYWUnLCAnPG91dGZpbGUubWFlPic=

> <r_lp_tautomer_probability>
1

> <r_epik_Ionization_Penalty>
0.0472862

> <r_epik_Ionization_Penalty_Charging>
0.0127794

> <r_epik_Ionization_Penalty_Neutral>
0.0345068

> <r_epik_State_Penalty>
0.0614045

> <r_epik_Charging_Adjusted_Penalty>
0.0741839

> <i_epik_Tot_Q>
1

> <i_epik_Tot_abs_Q>
1

> <r_epik_Metal_State_Penalty>
0.0547208

> <b_epik_Metal_Only>
0

> <s_lp_Force_Field>
OPLS_2005

> <r_lp_Energy>
26.038

> <b_lp_Chiralities_Consistent>
1

> <s_lp_Variant>
AV-unprocessed.smi:2563-2

> <Gold.Version>
5.8.1

> <Gold.Id.Protein>
6NUR|6NUR_protein|mol2

> <Gold.PLP.Fitness>
38.1067

> <Gold.PLP.PLP>
-31.6180

> <Gold.PLP.part.hbond>
-3.0285

> <Gold.PLP.part.metal>
0.0000

> <Gold.PLP.part.buried>
-3.8858

> <Gold.PLP.part.nonpolar>
-24.5777

> <Gold.PLP.part.repulsive>
0.1650

> <Gold.PLP.ligand.clash>
0.0000

> <Gold.PLP.ligand.torsion>
1.2854

> <Gold.PLP.Chemscore.Hbond>
3.0000

> <Gold.PLP.Chemscore.CHOScore>
0.0000

> <Gold.PLP.Chemscore.Metal>
0.0000

> <Gold.Chemscore.Hbonds>
donor molecule, donor type, donor heavy atom, donor atom, acceptor molecule, acceptor atom, score
      L1  H     7    27       P1  7957  1.00
      L1  H     7    35       P1  7948  1.98

> <Gold.PLP.Chemscore.Internal.Correction>
0.0595

> <Gold.Rescore>
     Score         DG    S(hbond)    S(metal)    S(lipo)     H(rot)  DE(clash)    DE(int)     intcor
     15.34     -16.85       1.95        0.00      72.15       1.40       0.06       1.46       ----

> <Gold.Chemscore.Fitness>
15.3433

> <Gold.Chemscore.DG>
-16.8537

> <Gold.Chemscore.ZeroCoef>
-5.4800

> <Gold.Chemscore.Hbond>
1.9536

> <Gold.Chemscore.Metal>
0.0000

> <Gold.Chemscore.Lipo>
72.1456

> <Gold.Chemscore.Internal_Hbond>
0.0000

> <Gold.Chemscore.DEClash>
0.0551

> <Gold.Chemscore.DEInternal>
1.4553

> <Gold.Chemscore.Rot>
1.4033

> <Gold.Chemscore.Internal.Correction>
   9.000000E+99

> <Gold.Chemscore.Hbonds>
donor molecule, donor type, donor heavy atom, donor atom, acceptor molecule, acceptor atom, score
      L1  H     7    27       P1  7957  0.86
      L1  H     7    35       P1  7948  0.50

> <Gold.Chemscore.Hbond.Weighted>
-6.5251

> <Gold.Chemscore.Metal.Weighted>
-0.0000

> <Gold.Chemscore.Lipo.Weighted>
-8.4410

> <Gold.Chemscore.Internal_Hbond.Weighted>
0.0000

> <Gold.Chemscore.DEClash.Weighted>
0.0551

> <Gold.Chemscore.DEInternal.Weighted>
1.4553

> <Gold.Chemscore.Rot.Weighted>
3.5924

> <Gold.Chemscore.Internal.Correction.Weighted>
   9.000000E+99

> <Gold.Protein.RotatedTorsions>
[ 6907 6896 6895 6894 ] final  114.19 input  -60.11 | X-H torsion
[ 7974 7965 7964 7962 ] final   87.44 input  175.53 | X-H torsion
[ 8008 7997 7996 7995 ] final  146.28 input   59.86 | X-H torsion
[ 10167 10162 10161 10158 ] final -154.56 input  -65.29 | X-H torsion
[ 10718 10713 10712 10709 ] final  119.72 input   66.30 | X-H torsion
[ 10763 10752 10751 10750 ] final  -63.25 input  -60.55 | X-H torsion
[ 11005 11000 10999 10996 ] final -156.81 input  -57.11 | X-H torsion

> <Gold.Protein.ActiveResidues>
 VAL166  LYS551  ARG553  GLY616  TRP617  ASP618  TYR619  PRO620  LYS621  CYS622 
 ASP623  PHE694  ASN695  SER759  ASP760  ASP761  ALA762  ILE779  LEU786  VAL792 
 PHE793  MET794  SER795  GLU796  ALA797  LYS798  CYS799  TRP800  GLU811  SER814 

> <Gold.Protein.RotatedAtoms>
  152.4817  133.8271  159.7083 H   0  0  0  0  0  0  0  0  0  0  0  0  # atno 6907 bound_to 6896
  150.8872  133.7282  159.2921 H   0  0  0  0  0  0  0  0  0  0  0  0  # atno 6908 bound_to 6896
  151.4767  135.1053  159.9818 H   0  0  0  0  0  0  0  0  0  0  0  0  # atno 6909 bound_to 6896
  145.5590  139.2302  143.2470 H   0  0  0  0  0  0  0  0  0  0  0  0  # atno 7974 bound_to 7965
  156.2860  140.2186  156.5351 H   0  0  0  0  0  0  0  0  0  0  0  0  # atno 8008 bound_to 7997
  154.7416  140.0487  157.0838 H   0  0  0  0  0  0  0  0  0  0  0  0  # atno 8009 bound_to 7997
  155.0223  140.3125  155.4792 H   0  0  0  0  0  0  0  0  0  0  0  0  # atno 8010 bound_to 7997
  139.7003  143.9273  152.2426 H   0  0  0  0  0  0  0  0  0  0  0  0  # atno 10167 bound_to 10162
  157.5942  131.1060  150.7935 H   0  0  0  0  0  0  0  0  0  0  0  0  # atno 10718 bound_to 10713
  154.3122  135.6213  153.5470 H   0  0  0  0  0  0  0  0  0  0  0  0  # atno 10763 bound_to 10752
  152.9828  135.5704  154.5165 H   0  0  0  0  0  0  0  0  0  0  0  0  # atno 10764 bound_to 10752
  154.4816  135.2863  155.1542 H   0  0  0  0  0  0  0  0  0  0  0  0  # atno 10765 bound_to 10752
  140.6715  134.4242  157.5231 H   0  0  0  0  0  0  0  0  0  0  0  0  # atno 11005 bound_to 11000
  146.1864  140.6414  142.9165 LP  0  0  0  0  0  0  0  0  0  0  0  0  # atno 17320 bound_to 7965
  144.7492  140.5147  143.6814 LP  0  0  0  0  0  0  0  0  0  0  0  0  # atno 17321 bound_to 7965
  139.9114  144.6854  150.8558 LP  0  0  0  0  0  0  0  0  0  0  0  0  # atno 17342 bound_to 10162
  140.7708  143.3440  151.2148 LP  0  0  0  0  0  0  0  0  0  0  0  0  # atno 17343 bound_to 10162
  156.8349  130.5028  149.5327 LP  0  0  0  0  0  0  0  0  0  0  0  0  # atno 17370 bound_to 10713
  156.1002  130.5963  150.9880 LP  0  0  0  0  0  0  0  0  0  0  0  0  # atno 17371 bound_to 10713
  139.8980  134.8624  156.2020 LP  0  0  0  0  0  0  0  0  0  0  0  0  # atno 17394 bound_to 11000
  141.0388  133.6949  156.1561 LP  0  0  0  0  0  0  0  0  0  0  0  0  # atno 17395 bound_to 11000

$$$$
