AV-unprocessed.smi:3164|AV-procd|sdf|12081|dock2
  -GOLD-   2272017513D 1   1.00000     0.00000
 Structure written by MMmdl.
 40 41  0  0  0  0  0  0  0  0  3 V2000
  146.7836  138.8837  151.7459 C   0  0  0  0  0  0  0  0  0  0  0  0
  146.3855  139.4930  153.0361 N   0  3  1  0  0  0  0  0  0  0  0  0
  146.0791  138.5017  154.0944 C   0  0  0  0  0  0  0  0  0  0  0  0
  147.3661  137.9424  154.7279 C   0  0  0  0  0  0  0  0  0  0  0  0
  148.1650  139.0155  155.2123 O   0  0  0  0  0  0  0  0  0  0  0  0
  148.5825  139.8971  154.1745 C   0  0  2  0  0  0  0  0  0  0  0  0
  149.4979  140.9639  154.7946 C   0  0  0  0  0  0  0  0  0  0  0  0
  149.0570  141.3298  156.1562 N   0  3  0  0  0  0  0  0  0  0  0  0
  150.1653  141.5459  157.1064 C   0  0  0  0  0  0  0  0  0  0  0  0
  150.9110  142.8518  156.7994 C   0  0  0  0  0  0  0  0  0  0  0  0
  151.3027  143.5961  158.0615 C   0  0  0  0  0  0  0  0  0  0  0  0
  151.1718  144.9989  158.1438 C   0  0  0  0  0  0  0  0  0  0  0  0
  151.5587  145.6389  159.3374 C   0  0  0  0  0  0  0  0  0  0  0  0
  152.0595  144.8558  160.3951 C   0  0  0  0  0  0  0  0  0  0  0  0
  152.1516  143.4617  160.2125 C   0  0  0  0  0  0  0  0  0  0  0  0
  151.7842  142.8381  159.0719 N   0  0  0  0  0  0  0  0  0  0  0  0
  147.3285  140.5271  153.5273 C   0  0  0  0  0  0  0  0  0  0  0  0
  147.7170  138.3270  151.8275 H   0  0  0  0  0  0  0  0  0  0  0  0
  146.9130  139.6530  150.9840 H   0  0  0  0  0  0  0  0  0  0  0  0
  146.0117  138.1991  151.3928 H   0  0  0  0  0  0  0  0  0  0  0  0
  145.4852  138.9959  154.8645 H   0  0  0  0  0  0  0  0  0  0  0  0
  145.4597  137.6970  153.6961 H   0  0  0  0  0  0  0  0  0  0  0  0
  147.1162  137.2868  155.5622 H   0  0  0  0  0  0  0  0  0  0  0  0
  147.9327  137.3413  154.0152 H   0  0  0  0  0  0  0  0  0  0  0  0
  149.1476  139.3404  153.4249 H   0  0  0  0  0  0  0  0  0  0  0  0
  150.5184  140.5827  154.8529 H   0  0  0  0  0  0  0  0  0  0  0  0
  149.5236  141.8541  154.1644 H   0  0  0  0  0  0  0  0  0  0  0  0
  148.5120  142.1790  156.1010 H   0  0  0  0  0  0  0  0  0  0  0  0
  149.7650  141.5737  158.1210 H   0  0  0  0  0  0  0  0  0  0  0  0
  150.8553  140.7024  157.0541 H   0  0  0  0  0  0  0  0  0  0  0  0
  151.8069  142.6424  156.2133 H   0  0  0  0  0  0  0  0  0  0  0  0
  150.2879  143.5043  156.1857 H   0  0  0  0  0  0  0  0  0  0  0  0
  150.7853  145.5741  157.3153 H   0  0  0  0  0  0  0  0  0  0  0  0
  151.4730  146.7107  159.4397 H   0  0  0  0  0  0  0  0  0  0  0  0
  152.3654  145.3124  161.3248 H   0  0  0  0  0  0  0  0  0  0  0  0
  152.5311  142.8310  161.0029 H   0  0  0  0  0  0  0  0  0  0  0  0
  147.6053  141.1987  152.7136 H   0  0  0  0  0  0  0  0  0  0  0  0
  146.8059  141.1370  154.2659 H   0  0  0  0  0  0  0  0  0  0  0  0
  148.4695  140.5913  156.5168 H   0  0  0  0  0  0  0  0  0  0  0  0
  145.5175  139.9722  152.8401 H   0  0  0  0  0  0  0  0  0  0  0  0
  1  2  1  0  0  0  0
  1 18  1  0  0  0  0
  1 19  1  0  0  0  0
  1 20  1  0  0  0  0
  2 17  1  0  0  0  0
  2  3  1  0  0  0  0
  2 40  1  0  0  0  0
  3  4  1  0  0  0  0
  3 21  1  0  0  0  0
  3 22  1  0  0  0  0
  4  5  1  0  0  0  0
  4 23  1  0  0  0  0
  4 24  1  0  0  0  0
  5  6  1  0  0  0  0
  6  7  1  0  0  0  0
  6 17  1  0  0  0  0
  6 25  1  0  0  0  0
  7  8  1  0  0  0  0
  7 26  1  0  0  0  0
  7 27  1  0  0  0  0
  8  9  1  0  0  0  0
  8 28  1  0  0  0  0
  8 39  1  0  0  0  0
  9 10  1  0  0  0  0
  9 29  1  0  0  0  0
  9 30  1  0  0  0  0
 10 11  1  0  0  0  0
 10 31  1  0  0  0  0
 10 32  1  0  0  0  0
 11 16  1  0  0  0  0
 11 12  2  0  0  0  0
 12 13  1  0  0  0  0
 12 33  1  0  0  0  0
 13 14  2  0  0  0  0
 13 34  1  0  0  0  0
 14 15  1  0  0  0  0
 14 35  1  0  0  0  0
 15 16  2  0  0  0  0
 15 36  1  0  0  0  0
 17 37  1  0  0  0  0
 17 38  1  0  0  0  0
M  CHG  1   2   1
M  CHG  1   8   1
M  END
> <s_m_source_file>
AV-unprocessed.smi

> <i_m_source_file_index>
3164

> <i_lp_mmshare_version>
43012

> <i_f3d_flags>
0

> <s_epik_input>
W0NIM11OMVtDSDJdW0NIMl1PW0NASF0oW0NIMl0xKVtDSDJdW05IXVtDSDJdW0NIMl1jMltjSF1bY0hdW2NIXVtjSF1uMg==

> <s_epik_cmdline>
J2VwaWtfcHl0aG9uJywgJy1waCcsICc3LjAnLCAnLXRuJywgJzgnLCAnLW1hJywgJzIwMCcsICctbWV0YWxfYmluZGluZycsICctaW1hZScsICc8aW5maWxlLm1hZT4nLCAnLW9tYWUnLCAnPG91dGZpbGUubWFlPic=

> <r_epik_Ionization_Penalty>
0.294944

> <r_epik_Ionization_Penalty_Charging>
0.29381

> <r_epik_Ionization_Penalty_Neutral>
0.00113372

> <r_epik_State_Penalty>
0.271365

> <r_epik_Charging_Adjusted_Penalty>
0.565175

> <i_epik_Tot_Q>
2

> <i_epik_Tot_abs_Q>
2

> <r_epik_Metal_State_Penalty>
0.271365

> <b_epik_Metal_Only>
0

> <s_lp_Force_Field>
OPLS_2005

> <r_lp_Energy>
22.4387

> <b_lp_Chiralities_Consistent>
1

> <s_lp_Variant>
AV-unprocessed.smi:3164-3

> <Gold.Version>
5.8.1

> <Gold.Id.Protein>
6NUR|6NUR_protein|mol2

> <Gold.PLP.Fitness>
40.5294

> <Gold.PLP.PLP>
-36.7291

> <Gold.PLP.part.hbond>
-1.0000

> <Gold.PLP.part.metal>
0.0000

> <Gold.PLP.part.buried>
-1.2102

> <Gold.PLP.part.nonpolar>
-34.0407

> <Gold.PLP.part.repulsive>
0.1209

> <Gold.PLP.ligand.clash>
0.0000

> <Gold.PLP.ligand.torsion>
1.1008

> <Gold.PLP.Chemscore.Hbond>
2.0000

> <Gold.PLP.Chemscore.CHOScore>
0.0000

> <Gold.PLP.Chemscore.Metal>
0.0000

> <Gold.Chemscore.Hbonds>
donor molecule, donor type, donor heavy atom, donor atom, acceptor molecule, acceptor atom, score
      L1  H     2    40       P1 10175  2.00

> <Gold.PLP.Chemscore.Internal.Correction>
0.0019

> <Gold.Rescore>
     Score         DG    S(hbond)    S(metal)    S(lipo)     H(rot)  DE(clash)    DE(int)     intcor
     16.32     -17.55       0.98        0.00     111.15       1.65       0.35       0.87       ----

> <Gold.Chemscore.Fitness>
16.3210

> <Gold.Chemscore.DG>
-17.5475

> <Gold.Chemscore.ZeroCoef>
-5.4800

> <Gold.Chemscore.Hbond>
0.9805

> <Gold.Chemscore.Metal>
0.0000

> <Gold.Chemscore.Lipo>
111.1516

> <Gold.Chemscore.Internal_Hbond>
0.0000

> <Gold.Chemscore.DEClash>
0.3539

> <Gold.Chemscore.DEInternal>
0.8726

> <Gold.Chemscore.Rot>
1.6454

> <Gold.Chemscore.Internal.Correction>
   9.000000E+99

> <Gold.Chemscore.Hbonds>
donor molecule, donor type, donor heavy atom, donor atom, acceptor molecule, acceptor atom, score
      L1  H     2    40       P1 10175  0.99

> <Gold.Chemscore.Hbond.Weighted>
-3.2750

> <Gold.Chemscore.Metal.Weighted>
-0.0000

> <Gold.Chemscore.Lipo.Weighted>
-13.0047

> <Gold.Chemscore.Internal_Hbond.Weighted>
0.0000

> <Gold.Chemscore.DEClash.Weighted>
0.3539

> <Gold.Chemscore.DEInternal.Weighted>
0.8726

> <Gold.Chemscore.Rot.Weighted>
4.2122

> <Gold.Chemscore.Internal.Correction.Weighted>
   9.000000E+99

> <Gold.Protein.RotatedTorsions>
[ 6907 6896 6895 6894 ] final   86.73 input  -60.11 | X-H torsion
[ 7974 7965 7964 7962 ] final -169.57 input  175.53 | X-H torsion
[ 8008 7997 7996 7995 ] final   21.67 input   59.86 | X-H torsion
[ 10167 10162 10161 10158 ] final -171.27 input  -65.29 | X-H torsion
[ 10718 10713 10712 10709 ] final   89.81 input   66.30 | X-H torsion
[ 10763 10752 10751 10750 ] final   25.18 input  -60.55 | X-H torsion
[ 11005 11000 10999 10996 ] final   71.38 input  -57.11 | X-H torsion

> <Gold.Protein.ActiveResidues>
 VAL166  LYS551  ARG553  GLY616  TRP617  ASP618  TYR619  PRO620  LYS621  CYS622 
 ASP623  PHE694  ASN695  SER759  ASP760  ASP761  ALA762  ILE779  LEU786  VAL792 
 PHE793  MET794  SER795  GLU796  ALA797  LYS798  CYS799  TRP800  GLU811  SER814 

> <Gold.Protein.RotatedAtoms>
  152.5399  134.2387  159.8853 H   0  0  0  0  0  0  0  0  0  0  0  0  # atno 6907 bound_to 6896
  151.2355  133.4420  159.2613 H   0  0  0  0  0  0  0  0  0  0  0  0  # atno 6908 bound_to 6896
  151.0675  134.9791  159.8348 H   0  0  0  0  0  0  0  0  0  0  0  0  # atno 6909 bound_to 6896
  144.7183  140.2201  143.6317 H   0  0  0  0  0  0  0  0  0  0  0  0  # atno 7974 bound_to 7965
  154.9542  140.3069  155.5061 H   0  0  0  0  0  0  0  0  0  0  0  0  # atno 8008 bound_to 7997
  156.2984  140.2313  156.4560 H   0  0  0  0  0  0  0  0  0  0  0  0  # atno 8009 bound_to 7997
  154.8026  140.0433  157.1272 H   0  0  0  0  0  0  0  0  0  0  0  0  # atno 8010 bound_to 7997
  139.5812  144.1419  152.1517 H   0  0  0  0  0  0  0  0  0  0  0  0  # atno 10167 bound_to 10162
  157.6957  131.0347  150.3483 H   0  0  0  0  0  0  0  0  0  0  0  0  # atno 10718 bound_to 10713
  153.0710  135.6589  154.0247 H   0  0  0  0  0  0  0  0  0  0  0  0  # atno 10763 bound_to 10752
  153.9892  135.2947  155.3415 H   0  0  0  0  0  0  0  0  0  0  0  0  # atno 10764 bound_to 10752
  154.7085  135.5215  153.8700 H   0  0  0  0  0  0  0  0  0  0  0  0  # atno 10765 bound_to 10752
  139.9547  134.7166  156.0781 H   0  0  0  0  0  0  0  0  0  0  0  0  # atno 11005 bound_to 11000
  145.8509  139.2175  143.1773 LP  0  0  0  0  0  0  0  0  0  0  0  0  # atno 17320 bound_to 7965
  146.0262  140.8302  142.9899 LP  0  0  0  0  0  0  0  0  0  0  0  0  # atno 17321 bound_to 7965
  140.0973  144.5570  150.7013 LP  0  0  0  0  0  0  0  0  0  0  0  0  # atno 17342 bound_to 10162
  140.7090  143.2490  151.4640 LP  0  0  0  0  0  0  0  0  0  0  0  0  # atno 17343 bound_to 10162
  156.3934  130.3902  149.7013 LP  0  0  0  0  0  0  0  0  0  0  0  0  # atno 17370 bound_to 10713
  156.4355  130.7835  151.2856 LP  0  0  0  0  0  0  0  0  0  0  0  0  # atno 17371 bound_to 10713
  141.1216  133.6611  156.3229 LP  0  0  0  0  0  0  0  0  0  0  0  0  # atno 17394 bound_to 11000
  140.5638  134.5908  157.5440 LP  0  0  0  0  0  0  0  0  0  0  0  0  # atno 17395 bound_to 11000

$$$$
