AV-unprocessed.smi:322|AV-procd|sdf|2337|dock4
  -GOLD-   2262022243D 1   1.00000     0.00000
 Structure written by MMmdl.
 44 46  0  0  0  0  0  0  0  0  2 V2000
  148.9548  142.4476  155.0966 O   0  0  0  0  0  0  0  0  0  0  0  0
  149.5901  141.3294  155.6754 C   0  0  0  0  0  0  0  0  0  0  0  0
  150.4723  141.7077  156.8189 C   0  0  0  0  0  0  0  0  0  0  0  0
  150.6920  142.9748  157.2708 N   0  3  0  0  0  0  0  0  0  0  0  0
  151.5671  142.9442  158.3574 C   0  0  0  0  0  0  0  0  0  0  0  0
  152.0828  143.9707  159.1426 C   0  0  0  0  0  0  0  0  0  0  0  0
  152.9577  143.5931  160.1824 C   0  0  0  0  0  0  0  0  0  0  0  0
  153.2890  142.2412  160.4096 C   0  0  0  0  0  0  0  0  0  0  0  0
  152.7595  141.2092  159.6070 C   0  0  0  0  0  0  0  0  0  0  0  0
  151.8963  141.5918  158.5808 C   0  0  0  0  0  0  0  0  0  0  0  0
  151.2007  140.8659  157.6083 N   0  0  0  0  0  0  0  0  0  0  0  0
  151.3339  139.4009  157.5777 C   0  0  0  0  0  0  0  0  0  0  0  0
  152.7979  138.9330  157.4588 C   0  0  2  0  0  0  0  0  0  0  0  0
  153.1979  139.0245  156.1055 O   0  0  0  0  0  0  0  0  0  0  0  0
  152.9752  137.4808  157.9259 C   0  0  0  0  0  0  0  0  0  0  0  0
  154.1444  137.3968  158.7283 O   0  0  0  0  0  0  0  0  0  0  0  0
  153.9081  137.6138  160.1121 C   0  0  0  0  0  0  0  0  0  0  0  0
  154.3528  136.4521  160.9846 C   0  0  0  0  0  0  0  0  0  0  0  0
  154.2489  136.5413  162.3889 C   0  0  0  0  0  0  0  0  0  0  0  0
  154.6545  135.4630  163.1989 C   0  0  0  0  0  0  0  0  0  0  0  0
  155.1592  134.2884  162.6076 C   0  0  0  0  0  0  0  0  0  0  0  0
  155.6559  132.9668  163.5995 Cl  0  0  0  0  0  0  0  0  0  0  0  0
  155.2565  134.1926  161.2056 C   0  0  0  0  0  0  0  0  0  0  0  0
  154.8518  135.2714  160.3954 C   0  0  0  0  0  0  0  0  0  0  0  0
  149.0611  143.1872  155.6756 H   0  0  0  0  0  0  0  0  0  0  0  0
  148.8334  140.6220  156.0147 H   0  0  0  0  0  0  0  0  0  0  0  0
  150.1824  140.8232  154.9127 H   0  0  0  0  0  0  0  0  0  0  0  0
  151.8308  145.0069  158.9706 H   0  0  0  0  0  0  0  0  0  0  0  0
  153.3834  144.3556  160.8188 H   0  0  0  0  0  0  0  0  0  0  0  0
  153.9631  141.9903  161.2157 H   0  0  0  0  0  0  0  0  0  0  0  0
  153.0196  140.1767  159.7878 H   0  0  0  0  0  0  0  0  0  0  0  0
  150.8673  138.9973  158.4774 H   0  0  0  0  0  0  0  0  0  0  0  0
  150.7466  139.0287  156.7373 H   0  0  0  0  0  0  0  0  0  0  0  0
  153.4342  139.5858  158.0571 H   0  0  0  0  0  0  0  0  0  0  0  0
  153.2840  138.1494  155.7602 H   0  0  0  0  0  0  0  0  0  0  0  0
  152.1222  137.1848  158.5387 H   0  0  0  0  0  0  0  0  0  0  0  0
  153.0106  136.7995  157.0740 H   0  0  0  0  0  0  0  0  0  0  0  0
  154.4749  138.4944  160.4147 H   0  0  0  0  0  0  0  0  0  0  0  0
  152.8565  137.8494  160.2836 H   0  0  0  0  0  0  0  0  0  0  0  0
  153.8614  137.4391  162.8479 H   0  0  0  0  0  0  0  0  0  0  0  0
  154.5764  135.5381  164.2737 H   0  0  0  0  0  0  0  0  0  0  0  0
  155.6408  133.2920  160.7499 H   0  0  0  0  0  0  0  0  0  0  0  0
  154.9283  135.1895  159.3211 H   0  0  0  0  0  0  0  0  0  0  0  0
  150.2679  143.7988  156.8648 H   0  0  0  0  0  0  0  0  0  0  0  0
  1  2  1  0  0  0  0
  1 25  1  0  0  0  0
  2  3  1  0  0  0  0
  2 26  1  0  0  0  0
  2 27  1  0  0  0  0
  3 11  1  0  0  0  0
  3  4  2  0  0  0  0
  4  5  1  0  0  0  0
  4 44  1  0  0  0  0
  5 10  2  0  0  0  0
  5  6  1  0  0  0  0
  6  7  2  0  0  0  0
  6 28  1  0  0  0  0
  7  8  1  0  0  0  0
  7 29  1  0  0  0  0
  8  9  2  0  0  0  0
  8 30  1  0  0  0  0
  9 10  1  0  0  0  0
  9 31  1  0  0  0  0
 10 11  1  0  0  0  0
 11 12  1  0  0  0  0
 12 13  1  0  0  0  0
 12 32  1  0  0  0  0
 12 33  1  0  0  0  0
 13 14  1  0  0  0  0
 13 15  1  0  0  0  0
 13 34  1  0  0  0  0
 14 35  1  0  0  0  0
 15 16  1  0  0  0  0
 15 36  1  0  0  0  0
 15 37  1  0  0  0  0
 16 17  1  0  0  0  0
 17 18  1  0  0  0  0
 17 38  1  0  0  0  0
 17 39  1  0  0  0  0
 18 24  1  0  0  0  0
 18 19  2  0  0  0  0
 19 20  1  0  0  0  0
 19 40  1  0  0  0  0
 20 21  2  0  0  0  0
 20 41  1  0  0  0  0
 21 22  1  0  0  0  0
 21 23  1  0  0  0  0
 23 24  2  0  0  0  0
 23 42  1  0  0  0  0
 24 43  1  0  0  0  0
M  CHG  1   4   1
M  END
> <s_m_source_file>
AV-unprocessed.smi

> <i_m_source_file_index>
322

> <i_lp_mmshare_version>
43012

> <i_f3d_flags>
0

> <s_epik_input>
W2NIXTFbY0hdW2NIXVtjSF1jKGMxMiluKGMobjIpW0NIMl1bT0hdKVtDSDJdW0NASF0oW09IXSlbQ0gyXU9bQ0gyXWMzW2NIXVtjSF1jKENsKVtjSF1bY0hdMw==

> <s_epik_cmdline>
J2VwaWtfcHl0aG9uJywgJy1waCcsICc3LjAnLCAnLXRuJywgJzgnLCAnLW1hJywgJzIwMCcsICctbWV0YWxfYmluZGluZycsICctaW1hZScsICc8aW5maWxlLm1hZT4nLCAnLW9tYWUnLCAnPG91dGZpbGUubWFlPic=

> <r_epik_Ionization_Penalty>
1.34314

> <r_epik_Ionization_Penalty_Charging>
1.34228

> <r_epik_Ionization_Penalty_Neutral>
0.000856898

> <r_epik_State_Penalty>
1.41963

> <r_epik_Charging_Adjusted_Penalty>
2.76191

> <i_epik_Tot_Q>
1

> <i_epik_Tot_abs_Q>
1

> <r_epik_Metal_State_Penalty>
5.45585

> <b_epik_Metal_Only>
0

> <s_lp_Force_Field>
OPLS_2005

> <r_lp_Energy>
17.7001

> <b_lp_Chiralities_Consistent>
1

> <s_lp_Variant>
AV-unprocessed.smi:322-3

> <Gold.Version>
5.8.1

> <Gold.Id.Protein>
6NUR|6NUR_protein|mol2

> <Gold.PLP.Fitness>
63.9570

> <Gold.PLP.PLP>
-54.1575

> <Gold.PLP.part.hbond>
-4.3001

> <Gold.PLP.part.metal>
0.0000

> <Gold.PLP.part.buried>
-5.1461

> <Gold.PLP.part.nonpolar>
-44.0798

> <Gold.PLP.part.repulsive>
0.0520

> <Gold.PLP.ligand.clash>
0.0000

> <Gold.PLP.ligand.torsion>
1.4098

> <Gold.PLP.Chemscore.Hbond>
4.1642

> <Gold.PLP.Chemscore.CHOScore>
0.0000

> <Gold.PLP.Chemscore.Metal>
0.0000

> <Gold.Chemscore.Hbonds>
donor molecule, donor type, donor heavy atom, donor atom, acceptor molecule, acceptor atom, score
      L1  H     1    25       P1  8028  0.77
      L1  H     4    44       P1  8028  1.98
      P1  H  7997  8010       L1    14  0.85

> <Gold.PLP.Chemscore.Internal.Correction>
0.1265

> <Gold.Rescore>
     Score         DG    S(hbond)    S(metal)    S(lipo)     H(rot)  DE(clash)    DE(int)     intcor
     20.91     -22.49       2.67        0.00     139.95       3.24       0.03       1.55       ----

> <Gold.Chemscore.Fitness>
20.9118

> <Gold.Chemscore.DG>
-22.4931

> <Gold.Chemscore.ZeroCoef>
-5.4800

> <Gold.Chemscore.Hbond>
2.6733

> <Gold.Chemscore.Metal>
0.0000

> <Gold.Chemscore.Lipo>
139.9505

> <Gold.Chemscore.Internal_Hbond>
0.0000

> <Gold.Chemscore.DEClash>
0.0323

> <Gold.Chemscore.DEInternal>
1.5490

> <Gold.Chemscore.Rot>
3.2383

> <Gold.Chemscore.Internal.Correction>
   9.000000E+99

> <Gold.Chemscore.Hbonds>
donor molecule, donor type, donor heavy atom, donor atom, acceptor molecule, acceptor atom, score
      L1  H     1    25       P1  8028  0.73
      L1  H     4    44       P1  8028  0.89
      P1  H  7997  8010       L1    14  0.14

> <Gold.Chemscore.Hbond.Weighted>
-8.9289

> <Gold.Chemscore.Metal.Weighted>
-0.0000

> <Gold.Chemscore.Lipo.Weighted>
-16.3742

> <Gold.Chemscore.Internal_Hbond.Weighted>
0.0000

> <Gold.Chemscore.DEClash.Weighted>
0.0323

> <Gold.Chemscore.DEInternal.Weighted>
1.5490

> <Gold.Chemscore.Rot.Weighted>
8.2901

> <Gold.Chemscore.Internal.Correction.Weighted>
   9.000000E+99

> <Gold.Protein.RotatedTorsions>
[ 6907 6896 6895 6894 ] final  114.18 input  -60.11 | X-H torsion
[ 7974 7965 7964 7962 ] final   80.79 input  175.53 | X-H torsion
[ 8008 7997 7996 7995 ] final   77.92 input   59.86 | X-H torsion
[ 10167 10162 10161 10158 ] final -177.26 input  -65.29 | X-H torsion
[ 10718 10713 10712 10709 ] final  -45.95 input   66.30 | X-H torsion
[ 10763 10752 10751 10750 ] final -111.14 input  -60.55 | X-H torsion
[ 11005 11000 10999 10996 ] final  -19.77 input  -57.11 | X-H torsion

> <Gold.Protein.ActiveResidues>
 VAL166  LYS551  ARG553  GLY616  TRP617  ASP618  TYR619  PRO620  LYS621  CYS622 
 ASP623  PHE694  ASN695  SER759  ASP760  ASP761  ALA762  ILE779  LEU786  VAL792 
 PHE793  MET794  SER795  GLU796  ALA797  LYS798  CYS799  TRP800  GLU811  SER814 

> <Gold.Protein.RotatedAtoms>
  152.4817  133.8271  159.7083 H   0  0  0  0  0  0  0  0  0  0  0  0  # atno 6907 bound_to 6896
  150.8872  133.7282  159.2921 H   0  0  0  0  0  0  0  0  0  0  0  0  # atno 6908 bound_to 6896
  151.4767  135.1053  159.9818 H   0  0  0  0  0  0  0  0  0  0  0  0  # atno 6909 bound_to 6896
  145.6466  139.2437  143.2000 H   0  0  0  0  0  0  0  0  0  0  0  0  # atno 7974 bound_to 7965
  155.8484  140.3459  155.5677 H   0  0  0  0  0  0  0  0  0  0  0  0  # atno 8008 bound_to 7997
  155.8064  140.0892  157.1948 H   0  0  0  0  0  0  0  0  0  0  0  0  # atno 8009 bound_to 7997
  154.4007  140.1456  156.3322 H   0  0  0  0  0  0  0  0  0  0  0  0  # atno 8010 bound_to 7997
  139.5489  144.2162  152.1040 H   0  0  0  0  0  0  0  0  0  0  0  0  # atno 10167 bound_to 10162
  156.2232  130.4167  149.8967 H   0  0  0  0  0  0  0  0  0  0  0  0  # atno 10718 bound_to 10713
  154.8285  135.4538  154.0994 H   0  0  0  0  0  0  0  0  0  0  0  0  # atno 10763 bound_to 10752
  153.2287  135.6903  153.7921 H   0  0  0  0  0  0  0  0  0  0  0  0  # atno 10764 bound_to 10752
  153.7312  135.3326  155.3262 H   0  0  0  0  0  0  0  0  0  0  0  0  # atno 10765 bound_to 10752
  140.8399  133.7934  155.9849 H   0  0  0  0  0  0  0  0  0  0  0  0  # atno 11005 bound_to 11000
  146.1238  140.7275  142.9445 LP  0  0  0  0  0  0  0  0  0  0  0  0  # atno 17320 bound_to 7965
  144.7138  140.4135  143.7060 LP  0  0  0  0  0  0  0  0  0  0  0  0  # atno 17321 bound_to 7965
  140.1653  144.4987  150.6609 LP  0  0  0  0  0  0  0  0  0  0  0  0  # atno 17342 bound_to 10162
  140.6746  143.2299  151.5540 LP  0  0  0  0  0  0  0  0  0  0  0  0  # atno 17343 bound_to 10162
  156.6606  130.8780  151.3546 LP  0  0  0  0  0  0  0  0  0  0  0  0  # atno 17370 bound_to 10713
  157.7097  130.9426  150.1049 LP  0  0  0  0  0  0  0  0  0  0  0  0  # atno 17371 bound_to 10713
  140.8906  134.2499  157.5096 LP  0  0  0  0  0  0  0  0  0  0  0  0  # atno 17394 bound_to 11000
  139.8703  134.9660  156.4546 LP  0  0  0  0  0  0  0  0  0  0  0  0  # atno 17395 bound_to 11000

$$$$
