AV-unprocessed.smi:1565|AV-procd|sdf|6301|dock8
  -GOLD-   22720 6503D 1   1.00000     0.00000
 Structure written by MMmdl.
 39 40  0  0  0  0  0  0  0  0  2 V2000
  150.1109  141.7067  156.6249 C   0  0  0  0  0  0  0  0  0  0  0  0
  151.2816  142.3447  157.3800 C   0  0  2  0  0  0  0  0  0  0  0  0
  151.9374  141.3604  158.3666 C   0  0  0  0  0  0  0  0  0  0  0  0
  152.9679  142.0341  159.1514 N   0  0  0  0  0  0  0  0  0  0  0  0
  153.8157  141.1815  159.8909 C   0  0  0  0  0  0  0  0  0  0  0  0
  153.9714  141.3712  161.2838 C   0  0  0  0  0  0  0  0  0  0  0  0
  154.8324  140.5193  162.0020 C   0  0  0  0  0  0  0  0  0  0  0  0
  155.5130  139.4878  161.3160 C   0  0  0  0  0  0  0  0  0  0  0  0
  156.4805  138.5674  162.0101 C   0  0  0  0  0  0  0  0  0  0  0  0
  156.5794  137.4088  161.5908 O   0  0  0  0  0  0  0  0  0  0  0  0
  157.0954  139.1616  163.0719 N   0  5  0  0  0  0  0  0  0  0  0  0
  157.6037  138.4378  164.2399 C   0  0  0  0  0  0  0  0  0  0  0  0
  156.8420  138.8312  165.5219 C   0  0  0  0  0  0  0  0  0  0  0  0
  157.4457  138.2747  166.5721 F   0  0  0  0  0  0  0  0  0  0  0  0
  156.8467  140.1549  165.6868 F   0  0  0  0  0  0  0  0  0  0  0  0
  155.5808  138.3984  165.4861 F   0  0  0  0  0  0  0  0  0  0  0  0
  155.2945  139.3796  159.9257 C   0  0  0  0  0  0  0  0  0  0  0  0
  154.4687  140.1928  159.2324 N   0  0  0  0  0  0  0  0  0  0  0  0
  152.4913  143.2536  159.8001 C   0  0  0  0  0  0  0  0  0  0  0  0
  151.8228  144.1842  158.7713 C   0  0  2  0  0  0  0  0  0  0  0  0
  151.2043  145.4212  159.4309 C   0  0  0  0  0  0  0  0  0  0  0  0
  150.7880  143.4713  158.0994 O   0  0  0  0  0  0  0  0  0  0  0  0
  150.4405  140.8425  156.0473 H   0  0  0  0  0  0  0  0  0  0  0  0
  149.6609  142.4178  155.9316 H   0  0  0  0  0  0  0  0  0  0  0  0
  149.3329  141.3733  157.3123 H   0  0  0  0  0  0  0  0  0  0  0  0
  152.0215  142.6814  156.6513 H   0  0  0  0  0  0  0  0  0  0  0  0
  151.1881  140.9564  159.0488 H   0  0  0  0  0  0  0  0  0  0  0  0
  152.3444  140.5177  157.8092 H   0  0  0  0  0  0  0  0  0  0  0  0
  153.4390  142.1499  161.8088 H   0  0  0  0  0  0  0  0  0  0  0  0
  154.9640  140.6685  163.0639 H   0  0  0  0  0  0  0  0  0  0  0  0
  157.5493  137.3560  164.1090 H   0  0  0  0  0  0  0  0  0  0  0  0
  158.6632  138.6505  164.3867 H   0  0  0  0  0  0  0  0  0  0  0  0
  155.7937  138.6179  159.3443 H   0  0  0  0  0  0  0  0  0  0  0  0
  151.7816  142.9895  160.5855 H   0  0  0  0  0  0  0  0  0  0  0  0
  153.3242  143.7751  160.2738 H   0  0  0  0  0  0  0  0  0  0  0  0
  152.5623  144.5151  158.0397 H   0  0  0  0  0  0  0  0  0  0  0  0
  151.9613  146.0083  159.9514 H   0  0  0  0  0  0  0  0  0  0  0  0
  150.4398  145.1414  160.1562 H   0  0  0  0  0  0  0  0  0  0  0  0
  150.7369  146.0667  158.6869 H   0  0  0  0  0  0  0  0  0  0  0  0
  1  2  1  0  0  0  0
  1 23  1  0  0  0  0
  1 24  1  0  0  0  0
  1 25  1  0  0  0  0
  2 22  1  0  0  0  0
  2  3  1  0  0  0  0
  2 26  1  0  0  0  0
  3  4  1  0  0  0  0
  3 27  1  0  0  0  0
  3 28  1  0  0  0  0
  4  5  1  0  0  0  0
  4 19  1  0  0  0  0
  5 18  1  0  0  0  0
  5  6  2  0  0  0  0
  6  7  1  0  0  0  0
  6 29  1  0  0  0  0
  7  8  2  0  0  0  0
  7 30  1  0  0  0  0
  8  9  1  0  0  0  0
  8 17  1  0  0  0  0
  9 10  2  0  0  0  0
  9 11  1  0  0  0  0
 11 12  1  0  0  0  0
 12 13  1  0  0  0  0
 12 31  1  0  0  0  0
 12 32  1  0  0  0  0
 13 14  1  0  0  0  0
 13 15  1  0  0  0  0
 13 16  1  0  0  0  0
 17 18  2  0  0  0  0
 17 33  1  0  0  0  0
 19 20  1  0  0  0  0
 19 34  1  0  0  0  0
 19 35  1  0  0  0  0
 20 21  1  0  0  0  0
 20 22  1  0  0  0  0
 20 36  1  0  0  0  0
 21 37  1  0  0  0  0
 21 38  1  0  0  0  0
 21 39  1  0  0  0  0
M  CHG  1  11  -1
M  END
> <s_m_source_file>
AV-unprocessed.smi

> <i_m_source_file_index>
1565

> <i_lp_mmshare_version>
43012

> <i_f3d_flags>
0

> <s_epik_input>
W0NIM11bQ0BASF0xW0NIMl1OKFtDSDJdW0NASF0oTzEpW0NIM10pYzJbY0hdW2NIXWMoW2NIXW4yKUMoPU8pW05IXVtDSDJdQyhGKShGKUY=

> <s_epik_cmdline>
J2VwaWtfcHl0aG9uJywgJy1waCcsICc3LjAnLCAnLXRuJywgJzgnLCAnLW1hJywgJzIwMCcsICctbWV0YWxfYmluZGluZycsICctaW1hZScsICc8aW5maWxlLm1hZT4nLCAnLW9tYWUnLCAnPG91dGZpbGUubWFlPic=

> <r_lp_tautomer_probability>
1

> <r_epik_Ionization_Penalty>
6.78525

> <r_epik_Ionization_Penalty_Charging>
6.78469

> <r_epik_Ionization_Penalty_Neutral>
0.000559052

> <r_epik_State_Penalty>
6.78469

> <r_epik_Charging_Adjusted_Penalty>
13.5694

> <i_epik_Tot_Q>
-1

> <i_epik_Tot_abs_Q>
1

> <r_epik_Metal_State_Penalty>
2.70441

> <b_epik_Metal_Only>
1

> <s_lp_Force_Field>
OPLS_2005

> <r_lp_Energy>
25.7162

> <b_lp_Chiralities_Consistent>
1

> <s_lp_Variant>
AV-unprocessed.smi:1565-5

> <Gold.Version>
5.8.1

> <Gold.Id.Protein>
6NUR|6NUR_protein|mol2

> <Gold.PLP.Fitness>
38.1965

> <Gold.PLP.PLP>
-36.6111

> <Gold.PLP.part.hbond>
-1.0000

> <Gold.PLP.part.metal>
0.0000

> <Gold.PLP.part.buried>
-3.6046

> <Gold.PLP.part.nonpolar>
-31.3973

> <Gold.PLP.part.repulsive>
0.1481

> <Gold.PLP.ligand.clash>
0.0000

> <Gold.PLP.ligand.torsion>
0.7835

> <Gold.PLP.Chemscore.Hbond>
0.9440

> <Gold.PLP.Chemscore.CHOScore>
0.0000

> <Gold.PLP.Chemscore.Metal>
0.0000

> <Gold.Chemscore.Hbonds>
donor molecule, donor type, donor heavy atom, donor atom, acceptor molecule, acceptor atom, score
      P1  H  7997  8009       L1    18  0.93

> <Gold.PLP.Chemscore.Internal.Correction>
0.3204

> <Gold.Rescore>
     Score         DG    S(hbond)    S(metal)    S(lipo)     H(rot)  DE(clash)    DE(int)     intcor
     15.28     -16.08       0.85        0.00      94.51       1.29       0.09       0.70       ----

> <Gold.Chemscore.Fitness>
15.2849

> <Gold.Chemscore.DG>
-16.0759

> <Gold.Chemscore.ZeroCoef>
-5.4800

> <Gold.Chemscore.Hbond>
0.8522

> <Gold.Chemscore.Metal>
0.0000

> <Gold.Chemscore.Lipo>
94.5076

> <Gold.Chemscore.Internal_Hbond>
0.0000

> <Gold.Chemscore.DEClash>
0.0935

> <Gold.Chemscore.DEInternal>
0.6975

> <Gold.Chemscore.Rot>
1.2921

> <Gold.Chemscore.Internal.Correction>
   9.000000E+99

> <Gold.Chemscore.Hbonds>
donor molecule, donor type, donor heavy atom, donor atom, acceptor molecule, acceptor atom, score
      P1  H  7997  8009       L1    18  0.49

> <Gold.Chemscore.Hbond.Weighted>
-2.8463

> <Gold.Chemscore.Metal.Weighted>
-0.0000

> <Gold.Chemscore.Lipo.Weighted>
-11.0574

> <Gold.Chemscore.Internal_Hbond.Weighted>
0.0000

> <Gold.Chemscore.DEClash.Weighted>
0.0935

> <Gold.Chemscore.DEInternal.Weighted>
0.6975

> <Gold.Chemscore.Rot.Weighted>
3.3078

> <Gold.Chemscore.Internal.Correction.Weighted>
   9.000000E+99

> <Gold.Protein.RotatedTorsions>
[ 6907 6896 6895 6894 ] final  108.52 input  -60.11 | X-H torsion
[ 7974 7965 7964 7962 ] final   84.44 input  175.53 | X-H torsion
[ 8008 7997 7996 7995 ] final  125.72 input   59.86 | X-H torsion
[ 10167 10162 10161 10158 ] final  108.63 input  -65.29 | X-H torsion
[ 10718 10713 10712 10709 ] final -146.44 input   66.30 | X-H torsion
[ 10763 10752 10751 10750 ] final   17.70 input  -60.55 | X-H torsion
[ 11005 11000 10999 10996 ] final -150.65 input  -57.11 | X-H torsion

> <Gold.Protein.ActiveResidues>
 VAL166  LYS551  ARG553  GLY616  TRP617  ASP618  TYR619  PRO620  LYS621  CYS622 
 ASP623  PHE694  ASN695  SER759  ASP760  ASP761  ALA762  ILE779  LEU786  VAL792 
 PHE793  MET794  SER795  GLU796  ALA797  LYS798  CYS799  TRP800  GLU811  SER814 

> <Gold.Protein.RotatedAtoms>
  152.5108  133.9077  159.7472 H   0  0  0  0  0  0  0  0  0  0  0  0  # atno 6907 bound_to 6896
  150.9478  133.6575  159.2785 H   0  0  0  0  0  0  0  0  0  0  0  0  # atno 6908 bound_to 6896
  151.3864  135.0953  159.9565 H   0  0  0  0  0  0  0  0  0  0  0  0  # atno 6909 bound_to 6896
  145.5987  139.2349  143.2258 H   0  0  0  0  0  0  0  0  0  0  0  0  # atno 7974 bound_to 7965
  156.2842  140.2710  156.1994 H   0  0  0  0  0  0  0  0  0  0  0  0  # atno 8008 bound_to 7997
  155.0376  140.0386  157.2515 H   0  0  0  0  0  0  0  0  0  0  0  0  # atno 8009 bound_to 7997
  154.7301  140.2705  155.6469 H   0  0  0  0  0  0  0  0  0  0  0  0  # atno 8010 bound_to 7997
  139.6831  144.7116  151.1480 H   0  0  0  0  0  0  0  0  0  0  0  0  # atno 10167 bound_to 10162
  156.3949  130.7904  151.2110 H   0  0  0  0  0  0  0  0  0  0  0  0  # atno 10718 bound_to 10713
  153.1315  135.6741  153.9171 H   0  0  0  0  0  0  0  0  0  0  0  0  # atno 10763 bound_to 10752
  153.8656  135.3076  155.3441 H   0  0  0  0  0  0  0  0  0  0  0  0  # atno 10764 bound_to 10752
  154.7711  135.4939  153.9732 H   0  0  0  0  0  0  0  0  0  0  0  0  # atno 10765 bound_to 10752
  140.7380  134.3546  157.5153 H   0  0  0  0  0  0  0  0  0  0  0  0  # atno 11005 bound_to 11000
  146.1593  140.6812  142.9285 LP  0  0  0  0  0  0  0  0  0  0  0  0  # atno 17320 bound_to 7965
  144.7319  140.4697  143.6931 LP  0  0  0  0  0  0  0  0  0  0  0  0  # atno 17321 bound_to 7965
  140.7659  143.5669  150.9037 LP  0  0  0  0  0  0  0  0  0  0  0  0  # atno 17342 bound_to 10162
  139.9343  143.6457  152.3069 LP  0  0  0  0  0  0  0  0  0  0  0  0  # atno 17343 bound_to 10162
  157.7501  131.0304  150.4137 LP  0  0  0  0  0  0  0  0  0  0  0  0  # atno 17370 bound_to 10713
  156.4405  130.3990  149.6700 LP  0  0  0  0  0  0  0  0  0  0  0  0  # atno 17371 bound_to 10713
  139.8812  134.9062  156.2917 LP  0  0  0  0  0  0  0  0  0  0  0  0  # atno 17394 bound_to 11000
  140.9862  133.7236  156.0745 LP  0  0  0  0  0  0  0  0  0  0  0  0  # atno 17395 bound_to 11000

$$$$
