AV-unprocessed.smi:2106|AV-procd|sdf|8596|dock9
  -GOLD-   2272011333D 1   1.00000     0.00000
 Structure written by MMmdl.
 48 49  0  0  0  0  0  0  0  0  2 V2000
  152.8743  140.9639  159.0848 C   0  0  0  0  0  0  0  0  0  0  0  0
  152.1464  140.8157  157.7815 C   0  0  0  0  0  0  0  0  0  0  0  0
  151.0803  141.6092  157.2736 C   0  0  0  0  0  0  0  0  0  0  0  0
  150.7917  141.0510  156.0604 C   0  0  0  0  0  0  0  0  0  0  0  0
  149.7667  141.4350  155.0447 C   0  0  0  0  0  0  0  0  0  0  0  0
  151.6603  139.9867  155.8917 N   0  0  0  0  0  0  0  0  0  0  0  0
  151.7814  139.0692  154.7698 C   0  0  0  0  0  0  0  0  0  0  0  0
  151.4968  137.6305  155.2037 C   0  0  0  0  0  0  0  0  0  0  0  0
  152.3588  136.9839  155.7986 O   0  0  0  0  0  0  0  0  0  0  0  0
  150.2829  137.1422  154.9042 N   0  0  0  0  0  0  0  0  0  0  0  0
  149.8007  135.8147  155.2677 C   0  0  0  0  0  0  0  0  0  0  0  0
  148.2879  135.6642  155.0113 C   0  0  0  0  0  0  0  0  0  0  0  0
  147.9819  134.6840  153.9391 N   0  3  1  0  0  0  0  0  0  0  0  0
  148.4673  133.3231  154.2711 C   0  0  0  0  0  0  0  0  0  0  0  0
  148.1838  132.3460  153.1145 C   0  0  1  0  0  0  0  0  0  0  0  0
  148.5968  130.9100  153.4557 C   0  0  0  0  0  0  0  0  0  0  0  0
  146.7883  132.3493  152.8363 O   0  0  0  0  0  0  0  0  0  0  0  0
  146.3150  133.6271  152.4263 C   0  0  1  0  0  0  0  0  0  0  0  0
  144.8312  133.4934  152.0661 C   0  0  0  0  0  0  0  0  0  0  0  0
  146.5468  134.6398  153.5637 C   0  0  0  0  0  0  0  0  0  0  0  0
  152.4892  139.8458  156.9497 N   0  0  0  0  0  0  0  0  0  0  0  0
  152.4556  141.7765  159.6790 H   0  0  0  0  0  0  0  0  0  0  0  0
  153.9298  141.1824  158.9222 H   0  0  0  0  0  0  0  0  0  0  0  0
  152.8087  140.0516  159.6782 H   0  0  0  0  0  0  0  0  0  0  0  0
  150.5997  142.4614  157.7309 H   0  0  0  0  0  0  0  0  0  0  0  0
  149.2083  142.3131  155.3693 H   0  0  0  0  0  0  0  0  0  0  0  0
  149.0542  140.6255  154.8854 H   0  0  0  0  0  0  0  0  0  0  0  0
  150.2338  141.6706  154.0887 H   0  0  0  0  0  0  0  0  0  0  0  0
  151.0922  139.3704  153.9788 H   0  0  0  0  0  0  0  0  0  0  0  0
  152.7869  139.1407  154.3540 H   0  0  0  0  0  0  0  0  0  0  0  0
  149.6371  137.7481  154.4180 H   0  0  0  0  0  0  0  0  0  0  0  0
  150.3769  135.0716  154.7159 H   0  0  0  0  0  0  0  0  0  0  0  0
  150.0166  135.6547  156.3244 H   0  0  0  0  0  0  0  0  0  0  0  0
  147.8183  135.3330  155.9388 H   0  0  0  0  0  0  0  0  0  0  0  0
  147.8339  136.6244  154.7619 H   0  0  0  0  0  0  0  0  0  0  0  0
  149.5391  133.3531  154.4711 H   0  0  0  0  0  0  0  0  0  0  0  0
  147.9802  132.9773  155.1845 H   0  0  0  0  0  0  0  0  0  0  0  0
  148.7291  132.6618  152.2232 H   0  0  0  0  0  0  0  0  0  0  0  0
  149.6633  130.8487  153.6737 H   0  0  0  0  0  0  0  0  0  0  0  0
  148.3891  130.2371  152.6234 H   0  0  0  0  0  0  0  0  0  0  0  0
  148.0552  130.5390  154.3265 H   0  0  0  0  0  0  0  0  0  0  0  0
  146.8605  133.9432  151.5351 H   0  0  0  0  0  0  0  0  0  0  0  0
  144.4198  134.4472  151.7350 H   0  0  0  0  0  0  0  0  0  0  0  0
  144.2453  133.1555  152.9215 H   0  0  0  0  0  0  0  0  0  0  0  0
  144.6892  132.7733  151.2599 H   0  0  0  0  0  0  0  0  0  0  0  0
  145.9508  134.3680  154.4366 H   0  0  0  0  0  0  0  0  0  0  0  0
  146.2071  135.6224  153.2387 H   0  0  0  0  0  0  0  0  0  0  0  0
  148.4951  134.9779  153.1202 H   0  0  0  0  0  0  0  0  0  0  0  0
  1  2  1  0  0  0  0
  1 22  1  0  0  0  0
  1 23  1  0  0  0  0
  1 24  1  0  0  0  0
  2 21  2  0  0  0  0
  2  3  1  0  0  0  0
  3  4  2  0  0  0  0
  3 25  1  0  0  0  0
  4  5  1  0  0  0  0
  4  6  1  0  0  0  0
  5 26  1  0  0  0  0
  5 27  1  0  0  0  0
  5 28  1  0  0  0  0
  6  7  1  0  0  0  0
  6 21  1  0  0  0  0
  7  8  1  0  0  0  0
  7 29  1  0  0  0  0
  7 30  1  0  0  0  0
  8  9  2  0  0  0  0
  8 10  1  0  0  0  0
 10 11  1  0  0  0  0
 10 31  1  0  0  0  0
 11 12  1  0  0  0  0
 11 32  1  0  0  0  0
 11 33  1  0  0  0  0
 12 13  1  0  0  0  0
 12 34  1  0  0  0  0
 12 35  1  0  0  0  0
 13 20  1  0  0  0  0
 13 14  1  0  0  0  0
 13 48  1  0  0  0  0
 14 15  1  0  0  0  0
 14 36  1  0  0  0  0
 14 37  1  0  0  0  0
 15 16  1  0  0  0  0
 15 17  1  0  0  0  0
 15 38  1  0  0  0  0
 16 39  1  0  0  0  0
 16 40  1  0  0  0  0
 16 41  1  0  0  0  0
 17 18  1  0  0  0  0
 18 19  1  0  0  0  0
 18 20  1  0  0  0  0
 18 42  1  0  0  0  0
 19 43  1  0  0  0  0
 19 44  1  0  0  0  0
 19 45  1  0  0  0  0
 20 46  1  0  0  0  0
 20 47  1  0  0  0  0
M  CHG  1  13   1
M  END
> <s_m_source_file>
AV-unprocessed.smi

> <i_m_source_file_index>
2106

> <i_lp_mmshare_version>
43012

> <i_f3d_flags>
0

> <s_epik_input>
W0NIM11jMVtjSF1jKFtDSDNdKW4objEpW0NIMl1DKD1PKVtOSF1bQ0gyXVtDSDJdTjJbQ0gyXVtDQEBIXShbQ0gzXSlPW0NAQEhdKFtDSDNdKVtDSDJdMg==

> <s_epik_cmdline>
J2VwaWtfcHl0aG9uJywgJy1waCcsICc3LjAnLCAnLXRuJywgJzgnLCAnLW1hJywgJzIwMCcsICctbWV0YWxfYmluZGluZycsICctaW1hZScsICc8aW5maWxlLm1hZT4nLCAnLW9tYWUnLCAnPG91dGZpbGUubWFlPic=

> <r_lp_tautomer_probability>
1

> <r_epik_Ionization_Penalty>
0.748586

> <r_epik_Ionization_Penalty_Charging>
0.748396

> <r_epik_Ionization_Penalty_Neutral>
0.000189656

> <r_epik_State_Penalty>
0.775162

> <r_epik_Charging_Adjusted_Penalty>
1.52356

> <i_epik_Tot_Q>
1

> <i_epik_Tot_abs_Q>
1

> <r_epik_Metal_State_Penalty>
0.775295

> <b_epik_Metal_Only>
0

> <s_lp_Force_Field>
OPLS_2005

> <r_lp_Energy>
12.4658

> <b_lp_Chiralities_Consistent>
1

> <s_lp_Variant>
AV-unprocessed.smi:2106-4

> <Gold.Version>
5.8.1

> <Gold.Id.Protein>
6NUR|6NUR_protein|mol2

> <Gold.PLP.Fitness>
46.5866

> <Gold.PLP.PLP>
-36.4885

> <Gold.PLP.part.hbond>
-3.0000

> <Gold.PLP.part.metal>
0.0000

> <Gold.PLP.part.buried>
-2.3078

> <Gold.PLP.part.nonpolar>
-30.3862

> <Gold.PLP.part.repulsive>
0.1796

> <Gold.PLP.ligand.clash>
0.0000

> <Gold.PLP.ligand.torsion>
0.6870

> <Gold.PLP.Chemscore.Hbond>
3.8160

> <Gold.PLP.Chemscore.CHOScore>
0.0000

> <Gold.PLP.Chemscore.Metal>
0.0000

> <Gold.Chemscore.Hbonds>
donor molecule, donor type, donor heavy atom, donor atom, acceptor molecule, acceptor atom, score
      L1  H    13    48       P1  7948  2.00
      P1  H  7997  8008       L1    21  1.00
      P1  H 10752 10764       L1     9  0.86

> <Gold.PLP.Chemscore.Internal.Correction>
0.0240

> <Gold.Rescore>
     Score         DG    S(hbond)    S(metal)    S(lipo)     H(rot)  DE(clash)    DE(int)     intcor
     17.76     -18.78       2.73        0.00      73.65       1.73       0.12       0.89       ----

> <Gold.Chemscore.Fitness>
17.7615

> <Gold.Chemscore.DG>
-18.7763

> <Gold.Chemscore.ZeroCoef>
-5.4800

> <Gold.Chemscore.Hbond>
2.7282

> <Gold.Chemscore.Metal>
0.0000

> <Gold.Chemscore.Lipo>
73.6514

> <Gold.Chemscore.Internal_Hbond>
0.0000

> <Gold.Chemscore.DEClash>
0.1214

> <Gold.Chemscore.DEInternal>
0.8934

> <Gold.Chemscore.Rot>
1.7316

> <Gold.Chemscore.Internal.Correction>
   9.000000E+99

> <Gold.Chemscore.Hbonds>
donor molecule, donor type, donor heavy atom, donor atom, acceptor molecule, acceptor atom, score
      L1  H    13    48       P1  7948  0.68
      P1  H  7997  8008       L1    21  0.37
      P1  H 10752 10764       L1     9  0.84

> <Gold.Chemscore.Hbond.Weighted>
-9.1121

> <Gold.Chemscore.Metal.Weighted>
-0.0000

> <Gold.Chemscore.Lipo.Weighted>
-8.6172

> <Gold.Chemscore.Internal_Hbond.Weighted>
0.0000

> <Gold.Chemscore.DEClash.Weighted>
0.1214

> <Gold.Chemscore.DEInternal.Weighted>
0.8934

> <Gold.Chemscore.Rot.Weighted>
4.4330

> <Gold.Chemscore.Internal.Correction.Weighted>
   9.000000E+99

> <Gold.Protein.RotatedTorsions>
[ 6907 6896 6895 6894 ] final   78.80 input  -60.11 | X-H torsion
[ 7974 7965 7964 7962 ] final   28.52 input  175.53 | X-H torsion
[ 8008 7997 7996 7995 ] final  -72.19 input   59.86 | X-H torsion
[ 10167 10162 10161 10158 ] final  166.39 input  -65.29 | X-H torsion
[ 10718 10713 10712 10709 ] final    1.23 input   66.30 | X-H torsion
[ 10763 10752 10751 10750 ] final  -30.07 input  -60.55 | X-H torsion
[ 11005 11000 10999 10996 ] final  -25.88 input  -57.11 | X-H torsion

> <Gold.Protein.ActiveResidues>
 VAL166  LYS551  ARG553  GLY616  TRP617  ASP618  TYR619  PRO620  LYS621  CYS622 
 ASP623  PHE694  ASN695  SER759  ASP760  ASP761  ALA762  ILE779  LEU786  VAL792 
 PHE793  MET794  SER795  GLU796  ALA797  LYS798  CYS799  TRP800  GLU811  SER814 

> <Gold.Protein.RotatedAtoms>
  152.5174  134.3609  159.9284 H   0  0  0  0  0  0  0  0  0  0  0  0  # atno 6907 bound_to 6896
  151.3561  133.3900  159.2693 H   0  0  0  0  0  0  0  0  0  0  0  0  # atno 6908 bound_to 6896
  150.9688  134.9083  159.7833 H   0  0  0  0  0  0  0  0  0  0  0  0  # atno 6909 bound_to 6896
  146.1724  139.7045  142.8958 H   0  0  0  0  0  0  0  0  0  0  0  0  # atno 7974 bound_to 7965
  154.5146  140.0802  156.8057 H   0  0  0  0  0  0  0  0  0  0  0  0  # atno 8008 bound_to 7997
  155.3708  140.3423  155.4225 H   0  0  0  0  0  0  0  0  0  0  0  0  # atno 8009 bound_to 7997
  156.1613  140.1589  156.8594 H   0  0  0  0  0  0  0  0  0  0  0  0  # atno 8010 bound_to 7997
  139.4924  144.4032  151.9385 H   0  0  0  0  0  0  0  0  0  0  0  0  # atno 10167 bound_to 10162
  156.8450  130.5534  149.5674 H   0  0  0  0  0  0  0  0  0  0  0  0  # atno 10718 bound_to 10713
  153.7749  135.6909  153.4899 H   0  0  0  0  0  0  0  0  0  0  0  0  # atno 10763 bound_to 10752
  153.1850  135.4492  155.0075 H   0  0  0  0  0  0  0  0  0  0  0  0  # atno 10764 bound_to 10752
  154.8104  135.3375  154.7256 H   0  0  0  0  0  0  0  0  0  0  0  0  # atno 10765 bound_to 10752
  140.8978  133.7544  156.0504 H   0  0  0  0  0  0  0  0  0  0  0  0  # atno 11005 bound_to 11000
  145.4304  141.0414  143.2914 LP  0  0  0  0  0  0  0  0  0  0  0  0  # atno 17320 bound_to 7965
  144.8183  139.5837  143.6998 LP  0  0  0  0  0  0  0  0  0  0  0  0  # atno 17321 bound_to 7965
  140.3472  144.3132  150.5956 LP  0  0  0  0  0  0  0  0  0  0  0  0  # atno 17342 bound_to 10162
  140.5516  143.2205  151.7917 LP  0  0  0  0  0  0  0  0  0  0  0  0  # atno 17343 bound_to 10162
  156.0859  130.5858  150.9647 LP  0  0  0  0  0  0  0  0  0  0  0  0  # atno 17370 bound_to 10713
  157.6334  131.0918  150.8395 LP  0  0  0  0  0  0  0  0  0  0  0  0  # atno 17371 bound_to 10713
  140.8267  134.3226  157.5363 LP  0  0  0  0  0  0  0  0  0  0  0  0  # atno 17394 bound_to 11000
  139.8738  134.9340  156.3596 LP  0  0  0  0  0  0  0  0  0  0  0  0  # atno 17395 bound_to 11000

$$$$
