AV-unprocessed.smi:3263|AV-procd|sdf|12486|dock3
  -GOLD-   2272018383D 1   1.00000     0.00000
 Structure written by MMmdl.
 41 43  0  0  0  0  0  0  0  0  1 V2000
  147.1811  143.2556  160.8631 O   0  0  0  0  0  0  0  0  0  0  0  0
  147.7383  143.9194  159.9891 C   0  0  0  0  0  0  0  0  0  0  0  0
  148.9923  144.7322  160.3222 C   0  0  0  0  0  0  0  0  0  0  0  0
  150.1048  144.5824  159.2600 C   0  0  2  0  0  0  0  0  0  0  0  0
  150.5372  143.1229  159.0023 C   0  0  0  0  0  0  0  0  0  0  0  0
  152.0722  143.1923  159.1151 C   0  0  2  0  0  0  0  0  0  0  0  0
  152.4638  143.3525  160.5957 C   0  0  0  0  0  0  0  0  0  0  0  0
  152.0592  144.8072  160.8964 C   0  0  0  0  0  0  0  0  0  0  0  0
  151.4576  145.2790  159.5565 C   0  0  1  0  0  0  0  0  0  0  0  0
  152.3742  144.5791  158.5586 C   0  0  0  0  0  0  0  0  0  0  0  0
  147.3147  143.9691  158.7171 N   0  0  0  0  0  0  0  0  0  0  0  0
  146.1877  143.2157  158.1811 C   0  0  0  0  0  0  0  0  0  0  0  0
  144.8970  144.0525  158.1946 C   0  0  0  0  0  0  0  0  0  0  0  0
  144.5550  144.6055  156.8243 C   0  0  0  0  0  0  0  0  0  0  0  0
  144.2810  145.9788  156.6485 C   0  0  0  0  0  0  0  0  0  0  0  0
  143.9638  146.4393  155.3559 C   0  0  0  0  0  0  0  0  0  0  0  0
  143.9328  145.5140  154.2947 C   0  0  0  0  0  0  0  0  0  0  0  0
  144.2211  144.1634  154.5746 C   0  0  0  0  0  0  0  0  0  0  0  0
  144.5263  143.7116  155.8101 N   0  0  0  0  0  0  0  0  0  0  0  0
  148.7304  145.7822  160.4584 H   0  0  0  0  0  0  0  0  0  0  0  0
  149.3674  144.3920  161.2878 H   0  0  0  0  0  0  0  0  0  0  0  0
  149.7238  144.9868  158.3201 H   0  0  0  0  0  0  0  0  0  0  0  0
  150.1096  142.4182  159.7167 H   0  0  0  0  0  0  0  0  0  0  0  0
  150.2324  142.8054  158.0043 H   0  0  0  0  0  0  0  0  0  0  0  0
  152.5852  142.3711  158.6140 H   0  0  0  0  0  0  0  0  0  0  0  0
  151.9520  142.6364  161.2395 H   0  0  0  0  0  0  0  0  0  0  0  0
  153.5375  143.2183  160.7323 H   0  0  0  0  0  0  0  0  0  0  0  0
  151.3683  144.8890  161.7345 H   0  0  0  0  0  0  0  0  0  0  0  0
  152.9401  145.4001  161.1461 H   0  0  0  0  0  0  0  0  0  0  0  0
  151.4236  146.3641  159.4521 H   0  0  0  0  0  0  0  0  0  0  0  0
  153.4226  144.8666  158.6565 H   0  0  0  0  0  0  0  0  0  0  0  0
  152.0649  144.7058  157.5195 H   0  0  0  0  0  0  0  0  0  0  0  0
  147.8299  144.5449  158.0670 H   0  0  0  0  0  0  0  0  0  0  0  0
  146.4139  142.8711  157.1705 H   0  0  0  0  0  0  0  0  0  0  0  0
  146.0561  142.3223  158.7923 H   0  0  0  0  0  0  0  0  0  0  0  0
  144.0651  143.4453  158.5542 H   0  0  0  0  0  0  0  0  0  0  0  0
  144.9918  144.8851  158.8933 H   0  0  0  0  0  0  0  0  0  0  0  0
  144.3124  146.6646  157.4825 H   0  0  0  0  0  0  0  0  0  0  0  0
  143.7477  147.4830  155.1816 H   0  0  0  0  0  0  0  0  0  0  0  0
  143.6935  145.8313  153.2905 H   0  0  0  0  0  0  0  0  0  0  0  0
  144.2054  143.4262  153.7853 H   0  0  0  0  0  0  0  0  0  0  0  0
  1  2  2  0  0  0  0
  2  3  1  0  0  0  0
  2 11  1  0  0  0  0
  3  4  1  0  0  0  0
  3 20  1  0  0  0  0
  3 21  1  0  0  0  0
  4  9  1  0  0  0  0
  4  5  1  0  0  0  0
  4 22  1  0  0  0  0
  5  6  1  0  0  0  0
  5 23  1  0  0  0  0
  5 24  1  0  0  0  0
  6 10  1  0  0  0  0
  6  7  1  0  0  0  0
  6 25  1  0  0  0  0
  7  8  1  0  0  0  0
  7 26  1  0  0  0  0
  7 27  1  0  0  0  0
  8  9  1  0  0  0  0
  8 28  1  0  0  0  0
  8 29  1  0  0  0  0
  9 10  1  0  0  0  0
  9 30  1  0  0  0  0
 10 31  1  0  0  0  0
 10 32  1  0  0  0  0
 11 12  1  0  0  0  0
 11 33  1  0  0  0  0
 12 13  1  0  0  0  0
 12 34  1  0  0  0  0
 12 35  1  0  0  0  0
 13 14  1  0  0  0  0
 13 36  1  0  0  0  0
 13 37  1  0  0  0  0
 14 19  1  0  0  0  0
 14 15  2  0  0  0  0
 15 16  1  0  0  0  0
 15 38  1  0  0  0  0
 16 17  2  0  0  0  0
 16 39  1  0  0  0  0
 17 18  1  0  0  0  0
 17 40  1  0  0  0  0
 18 19  2  0  0  0  0
 18 41  1  0  0  0  0
M  END
> <s_m_source_file>
AV-unprocessed.smi

> <i_m_source_file_index>
3263

> <i_lp_mmshare_version>
43012

> <i_f3d_flags>
0

> <s_epik_input>
W0NIMl0xW0NIMl1bQ0BASF0oW0NIMl0yKVtDQEBIXShbQ0gyXVtDQEhdMTIpW0NIMl1DKD1PKVtOSF1bQ0gyXVtDSDJdYzNbY0hdW2NIXVtjSF1bY0hdbjM=

> <s_epik_cmdline>
J2VwaWtfcHl0aG9uJywgJy1waCcsICc3LjAnLCAnLXRuJywgJzgnLCAnLW1hJywgJzIwMCcsICctbWV0YWxfYmluZGluZycsICctaW1hZScsICc8aW5maWxlLm1hZT4nLCAnLW9tYWUnLCAnPG91dGZpbGUubWFlPic=

> <r_epik_Ionization_Penalty>
0.0273541

> <r_epik_Ionization_Penalty_Charging>
0

> <r_epik_Ionization_Penalty_Neutral>
0.0273541

> <r_epik_State_Penalty>
0.0223838

> <r_epik_Charging_Adjusted_Penalty>
0.0223838

> <i_epik_Tot_Q>
0

> <i_epik_Tot_abs_Q>
0

> <r_epik_Metal_State_Penalty>
0.0213927

> <b_epik_Metal_Only>
0

> <s_lp_Force_Field>
OPLS_2005

> <r_lp_Energy>
46.2802

> <b_lp_Chiralities_Consistent>
1

> <s_lp_Variant>
AV-unprocessed.smi:3263-1

> <Gold.Version>
5.8.1

> <Gold.Id.Protein>
6NUR|6NUR_protein|mol2

> <Gold.PLP.Fitness>
48.6156

> <Gold.PLP.PLP>
-40.6307

> <Gold.PLP.part.hbond>
-2.4655

> <Gold.PLP.part.metal>
0.0000

> <Gold.PLP.part.buried>
-3.9466

> <Gold.PLP.part.nonpolar>
-34.6716

> <Gold.PLP.part.repulsive>
0.1972

> <Gold.PLP.ligand.clash>
0.0000

> <Gold.PLP.ligand.torsion>
0.7513

> <Gold.PLP.Chemscore.Hbond>
2.1441

> <Gold.PLP.Chemscore.CHOScore>
1.0000

> <Gold.PLP.Chemscore.Metal>
0.0000

> <Gold.Chemscore.Hbonds>
donor molecule, donor type, donor heavy atom, donor atom, acceptor molecule, acceptor atom, score
      L1  H    11    33       P1  8029  0.93
      P1  H  6933  6944       L1     1  1.00
      P1  H  6934  6946       L1     1  0.05
      L1  C    18    41       P1 10174  0.96

> <Gold.PLP.Chemscore.Internal.Correction>
0.0551

> <Gold.Rescore>
     Score         DG    S(hbond)    S(metal)    S(lipo)     H(rot)  DE(clash)    DE(int)     intcor
     19.90     -20.70       1.66        0.00     114.55       1.46       0.21       0.58       ----

> <Gold.Chemscore.Fitness>
19.8998

> <Gold.Chemscore.DG>
-20.6972

> <Gold.Chemscore.ZeroCoef>
-5.4800

> <Gold.Chemscore.Hbond>
1.6590

> <Gold.Chemscore.Metal>
0.0000

> <Gold.Chemscore.Lipo>
114.5478

> <Gold.Chemscore.Internal_Hbond>
0.0000

> <Gold.Chemscore.DEClash>
0.2149

> <Gold.Chemscore.DEInternal>
0.5825

> <Gold.Chemscore.Rot>
1.4555

> <Gold.Chemscore.Internal.Correction>
   9.000000E+99

> <Gold.Chemscore.Hbonds>
donor molecule, donor type, donor heavy atom, donor atom, acceptor molecule, acceptor atom, score
      L1  H    11    33       P1  8029  0.44
      P1  H  6933  6944       L1     1  0.30
      P1  H  6934  6946       L1     1  0.07

> <Gold.Chemscore.Hbond.Weighted>
-5.5411

> <Gold.Chemscore.Metal.Weighted>
-0.0000

> <Gold.Chemscore.Lipo.Weighted>
-13.4021

> <Gold.Chemscore.Internal_Hbond.Weighted>
0.0000

> <Gold.Chemscore.DEClash.Weighted>
0.2149

> <Gold.Chemscore.DEInternal.Weighted>
0.5825

> <Gold.Chemscore.Rot.Weighted>
3.7260

> <Gold.Chemscore.Internal.Correction.Weighted>
   9.000000E+99

> <Gold.Protein.RotatedTorsions>
[ 6907 6896 6895 6894 ] final  -58.91 input  -60.11 | X-H torsion
[ 7974 7965 7964 7962 ] final   86.86 input  175.53 | X-H torsion
[ 8008 7997 7996 7995 ] final -145.20 input   59.86 | X-H torsion
[ 10167 10162 10161 10158 ] final   54.86 input  -65.29 | X-H torsion
[ 10718 10713 10712 10709 ] final  140.93 input   66.30 | X-H torsion
[ 10763 10752 10751 10750 ] final   24.31 input  -60.55 | X-H torsion
[ 11005 11000 10999 10996 ] final  -62.70 input  -57.11 | X-H torsion

> <Gold.Protein.ActiveResidues>
 VAL166  LYS551  ARG553  GLY616  TRP617  ASP618  TYR619  PRO620  LYS621  CYS622 
 ASP623  PHE694  ASN695  SER759  ASP760  ASP761  ALA762  ILE779  LEU786  VAL792 
 PHE793  MET794  SER795  GLU796  ALA797  LYS798  CYS799  TRP800  GLU811  SER814 

> <Gold.Protein.RotatedAtoms>
  150.7970  134.7037  159.6563 H   0  0  0  0  0  0  0  0  0  0  0  0  # atno 6907 bound_to 6896
  152.4083  134.6165  160.0049 H   0  0  0  0  0  0  0  0  0  0  0  0  # atno 6908 bound_to 6896
  151.6415  133.3289  159.3167 H   0  0  0  0  0  0  0  0  0  0  0  0  # atno 6909 bound_to 6896
  145.5667  139.2309  143.2429 H   0  0  0  0  0  0  0  0  0  0  0  0  # atno 7974 bound_to 7965
  155.5393  140.0606  157.2873 H   0  0  0  0  0  0  0  0  0  0  0  0  # atno 8008 bound_to 7997
  154.4457  140.1922  156.0618 H   0  0  0  0  0  0  0  0  0  0  0  0  # atno 8009 bound_to 7997
  156.0596  140.3274  155.7450 H   0  0  0  0  0  0  0  0  0  0  0  0  # atno 8010 bound_to 7997
  140.2257  144.3741  150.6433 H   0  0  0  0  0  0  0  0  0  0  0  0  # atno 10167 bound_to 10162
  157.3978  131.1013  151.0583 H   0  0  0  0  0  0  0  0  0  0  0  0  # atno 10718 bound_to 10713
  153.0773  135.6608  154.0118 H   0  0  0  0  0  0  0  0  0  0  0  0  # atno 10763 bound_to 10752
  153.9749  135.2961  155.3426 H   0  0  0  0  0  0  0  0  0  0  0  0  # atno 10764 bound_to 10752
  154.7165  135.5183  153.8816 H   0  0  0  0  0  0  0  0  0  0  0  0  # atno 10765 bound_to 10752
  141.1369  133.6643  156.5568 H   0  0  0  0  0  0  0  0  0  0  0  0  # atno 11005 bound_to 11000
  146.1813  140.6492  142.9188 LP  0  0  0  0  0  0  0  0  0  0  0  0  # atno 17320 bound_to 7965
  144.7457  140.5061  143.6837 LP  0  0  0  0  0  0  0  0  0  0  0  0  # atno 17321 bound_to 7965
  140.6223  143.2177  151.6669 LP  0  0  0  0  0  0  0  0  0  0  0  0  # atno 17342 bound_to 10162
  139.5128  144.3464  152.0693 LP  0  0  0  0  0  0  0  0  0  0  0  0  # atno 17343 bound_to 10162
  157.1593  130.6218  149.5606 LP  0  0  0  0  0  0  0  0  0  0  0  0  # atno 17370 bound_to 10713
  155.9815  130.4822  150.6830 LP  0  0  0  0  0  0  0  0  0  0  0  0  # atno 17371 bound_to 10713
  140.4020  134.7348  157.4785 LP  0  0  0  0  0  0  0  0  0  0  0  0  # atno 17394 bound_to 11000
  140.0489  134.6159  155.8886 LP  0  0  0  0  0  0  0  0  0  0  0  0  # atno 17395 bound_to 11000

$$$$
