AV-unprocessed.smi:2923|AV-procd|sdf|11216|dock8
  -GOLD-   2272016103D 1   1.00000     0.00000
 Structure written by MMmdl.
 46 48  0  0  0  0  0  0  0  0  1 V2000
  151.3681  145.6569  160.0222 C   0  0  0  0  0  0  0  0  0  0  0  0
  151.8255  144.3693  159.5151 N   0  0  0  0  0  0  0  0  0  0  0  0
  151.6958  144.0589  158.0950 C   0  0  0  0  0  0  0  0  0  0  0  0
  152.3644  143.4068  160.3995 C   0  0  0  0  0  0  0  0  0  0  0  0
  152.6860  143.7323  161.7405 C   0  0  0  0  0  0  0  0  0  0  0  0
  153.2168  142.7384  162.5851 C   0  0  0  0  0  0  0  0  0  0  0  0
  153.4233  141.4381  162.0698 C   0  0  0  0  0  0  0  0  0  0  0  0
  153.9268  140.3438  162.8244 N   0  0  0  0  0  0  0  0  0  0  0  0
  153.5864  139.0457  162.7521 C   0  0  0  0  0  0  0  0  0  0  0  0
  152.6948  138.5797  162.0430 O   0  0  0  0  0  0  0  0  0  0  0  0
  154.3387  138.3020  163.5734 N   0  0  0  0  0  0  0  0  0  0  0  0
  154.2303  136.8537  163.7029 C   0  0  2  0  0  0  0  0  0  0  0  0
  153.0406  136.4306  164.5648 C   0  0  1  0  0  0  0  0  0  0  0  0
  151.7689  135.7043  164.3069 C   0  0  0  0  0  0  0  0  0  0  0  0
  151.8309  134.7324  165.5157 C   0  0  0  0  0  0  0  0  0  0  0  0
  153.1651  134.8647  166.0641 O   0  0  0  0  0  0  0  0  0  0  0  0
  153.9425  135.2773  164.9591 C   0  0  2  0  0  0  0  0  0  0  0  0
  155.1302  136.2538  164.8487 C   0  0  0  0  0  0  0  0  0  0  0  0
  156.4467  135.6285  164.3866 C   0  0  0  0  0  0  0  0  0  0  0  0
  155.4699  137.1130  166.0840 C   0  0  0  0  0  0  0  0  0  0  0  0
  153.0647  141.2061  160.7278 C   0  0  0  0  0  0  0  0  0  0  0  0
  152.5562  142.1555  159.9153 N   0  0  0  0  0  0  0  0  0  0  0  0
  150.5779  145.5189  160.7607 H   0  0  0  0  0  0  0  0  0  0  0  0
  150.9690  146.2805  159.2221 H   0  0  0  0  0  0  0  0  0  0  0  0
  152.1911  146.2001  160.4876 H   0  0  0  0  0  0  0  0  0  0  0  0
  151.0481  143.1937  157.9499 H   0  0  0  0  0  0  0  0  0  0  0  0
  152.6717  143.8395  157.6607 H   0  0  0  0  0  0  0  0  0  0  0  0
  151.2653  144.8937  157.5419 H   0  0  0  0  0  0  0  0  0  0  0  0
  152.5318  144.7221  162.1421 H   0  0  0  0  0  0  0  0  0  0  0  0
  153.4372  142.9930  163.6096 H   0  0  0  0  0  0  0  0  0  0  0  0
  154.6170  140.5825  163.5213 H   0  0  0  0  0  0  0  0  0  0  0  0
  155.0445  138.7617  164.1297 H   0  0  0  0  0  0  0  0  0  0  0  0
  154.2869  136.3119  162.7542 H   0  0  0  0  0  0  0  0  0  0  0  0
  152.8843  137.1482  165.3735 H   0  0  0  0  0  0  0  0  0  0  0  0
  150.8947  136.3548  164.3368 H   0  0  0  0  0  0  0  0  0  0  0  0
  151.7874  135.1739  163.3537 H   0  0  0  0  0  0  0  0  0  0  0  0
  151.0962  134.9859  166.2803 H   0  0  0  0  0  0  0  0  0  0  0  0
  151.6489  133.7050  165.1980 H   0  0  0  0  0  0  0  0  0  0  0  0
  153.9975  134.4811  164.2078 H   0  0  0  0  0  0  0  0  0  0  0  0
  156.8723  134.9805  165.1532 H   0  0  0  0  0  0  0  0  0  0  0  0
  157.1900  136.3890  164.1458 H   0  0  0  0  0  0  0  0  0  0  0  0
  156.3095  135.0217  163.4910 H   0  0  0  0  0  0  0  0  0  0  0  0
  155.8801  136.4996  166.8866 H   0  0  0  0  0  0  0  0  0  0  0  0
  154.6139  137.6387  166.5023 H   0  0  0  0  0  0  0  0  0  0  0  0
  156.2157  137.8720  165.8455 H   0  0  0  0  0  0  0  0  0  0  0  0
  153.1896  140.2275  160.2879 H   0  0  0  0  0  0  0  0  0  0  0  0
  1  2  1  0  0  0  0
  1 23  1  0  0  0  0
  1 24  1  0  0  0  0
  1 25  1  0  0  0  0
  2  3  1  0  0  0  0
  2  4  1  0  0  0  0
  3 26  1  0  0  0  0
  3 27  1  0  0  0  0
  3 28  1  0  0  0  0
  4 22  1  0  0  0  0
  4  5  2  0  0  0  0
  5  6  1  0  0  0  0
  5 29  1  0  0  0  0
  6  7  2  0  0  0  0
  6 30  1  0  0  0  0
  7  8  1  0  0  0  0
  7 21  1  0  0  0  0
  8  9  1  0  0  0  0
  8 31  1  0  0  0  0
  9 10  2  0  0  0  0
  9 11  1  0  0  0  0
 11 12  1  0  0  0  0
 11 32  1  0  0  0  0
 12 18  1  0  0  0  0
 12 13  1  0  0  0  0
 12 33  1  0  0  0  0
 13 17  1  0  0  0  0
 13 14  1  0  0  0  0
 13 34  1  0  0  0  0
 14 15  1  0  0  0  0
 14 35  1  0  0  0  0
 14 36  1  0  0  0  0
 15 16  1  0  0  0  0
 15 37  1  0  0  0  0
 15 38  1  0  0  0  0
 16 17  1  0  0  0  0
 17 18  1  0  0  0  0
 17 39  1  0  0  0  0
 18 19  1  0  0  0  0
 18 20  1  0  0  0  0
 19 40  1  0  0  0  0
 19 41  1  0  0  0  0
 19 42  1  0  0  0  0
 20 43  1  0  0  0  0
 20 44  1  0  0  0  0
 20 45  1  0  0  0  0
 21 22  2  0  0  0  0
 21 46  1  0  0  0  0
M  END
> <s_m_source_file>
AV-unprocessed.smi

> <i_m_source_file_index>
2923

> <i_lp_mmshare_version>
43012

> <i_f3d_flags>
0

> <s_epik_input>
W0NIM11OKFtDSDNdKWMxW2NIXVtjSF1jKFtjSF1uMSlbTkhdQyg9TylbTkhdW0NASF0yQyhbQ0gzXSkoW0NIM10pW0NAQEhdKFtDQEhdMjMpT1tDSDJdW0NIMl0z

> <s_epik_cmdline>
J2VwaWtfcHl0aG9uJywgJy1waCcsICc3LjAnLCAnLXRuJywgJzgnLCAnLW1hJywgJzIwMCcsICctbWV0YWxfYmluZGluZycsICctaW1hZScsICc8aW5maWxlLm1hZT4nLCAnLW9tYWUnLCAnPG91dGZpbGUubWFlPic=

> <r_lp_tautomer_probability>
1

> <r_epik_Ionization_Penalty>
0.628785

> <r_epik_Ionization_Penalty_Charging>
0

> <r_epik_Ionization_Penalty_Neutral>
0.628785

> <r_epik_State_Penalty>
0.644286

> <r_epik_Charging_Adjusted_Penalty>
0.644286

> <i_epik_Tot_Q>
0

> <i_epik_Tot_abs_Q>
0

> <r_epik_Metal_State_Penalty>
0.308404

> <b_epik_Metal_Only>
0

> <s_lp_Force_Field>
OPLS_2005

> <r_lp_Energy>
62.6556

> <b_lp_Chiralities_Consistent>
1

> <s_lp_Variant>
AV-unprocessed.smi:2923-15

> <Gold.Version>
5.8.1

> <Gold.Id.Protein>
6NUR|6NUR_protein|mol2

> <Gold.PLP.Fitness>
42.3936

> <Gold.PLP.PLP>
-43.0135

> <Gold.PLP.part.hbond>
-0.5920

> <Gold.PLP.part.metal>
0.0000

> <Gold.PLP.part.buried>
-5.4339

> <Gold.PLP.part.nonpolar>
-36.4382

> <Gold.PLP.part.repulsive>
0.0867

> <Gold.PLP.ligand.clash>
0.0000

> <Gold.PLP.ligand.torsion>
0.4441

> <Gold.PLP.Chemscore.Hbond>
0.0000

> <Gold.PLP.Chemscore.CHOScore>
0.0000

> <Gold.PLP.Chemscore.Metal>
0.0000

> <Gold.PLP.Chemscore.Internal.Correction>
0.2682

> <Gold.Rescore>
     Score         DG    S(hbond)    S(metal)    S(lipo)     H(rot)  DE(clash)    DE(int)     intcor
     13.18     -14.85       0.00        0.00     101.98       1.00       0.05       1.62       ----

> <Gold.Chemscore.Fitness>
13.1785

> <Gold.Chemscore.DG>
-14.8514

> <Gold.Chemscore.ZeroCoef>
-5.4800

> <Gold.Chemscore.Hbond>
0.0000

> <Gold.Chemscore.Metal>
0.0000

> <Gold.Chemscore.Lipo>
101.9778

> <Gold.Chemscore.Internal_Hbond>
0.0000

> <Gold.Chemscore.DEClash>
0.0497

> <Gold.Chemscore.DEInternal>
1.6232

> <Gold.Chemscore.Rot>
1.0000

> <Gold.Chemscore.Internal.Correction>
   9.000000E+99

> <Gold.Chemscore.Hbond.Weighted>
-0.0000

> <Gold.Chemscore.Metal.Weighted>
-0.0000

> <Gold.Chemscore.Lipo.Weighted>
-11.9314

> <Gold.Chemscore.Internal_Hbond.Weighted>
0.0000

> <Gold.Chemscore.DEClash.Weighted>
0.0497

> <Gold.Chemscore.DEInternal.Weighted>
1.6232

> <Gold.Chemscore.Rot.Weighted>
2.5600

> <Gold.Chemscore.Internal.Correction.Weighted>
   9.000000E+99

> <Gold.Protein.RotatedTorsions>
[ 6907 6896 6895 6894 ] final -108.58 input  -60.11 | X-H torsion
[ 7974 7965 7964 7962 ] final   -1.67 input  175.53 | X-H torsion
[ 8008 7997 7996 7995 ] final  148.90 input   59.86 | X-H torsion
[ 10167 10162 10161 10158 ] final  153.50 input  -65.29 | X-H torsion
[ 10718 10713 10712 10709 ] final -129.67 input   66.30 | X-H torsion
[ 10763 10752 10751 10750 ] final  136.34 input  -60.55 | X-H torsion
[ 11005 11000 10999 10996 ] final  155.00 input  -57.11 | X-H torsion

> <Gold.Protein.ActiveResidues>
 VAL166  LYS551  ARG553  GLY616  TRP617  ASP618  TYR619  PRO620  LYS621  CYS622 
 ASP623  PHE694  ASN695  SER759  ASP760  ASP761  ALA762  ILE779  LEU786  VAL792 
 PHE793  MET794  SER795  GLU796  ALA797  LYS798  CYS799  TRP800  GLU811  SER814 

> <Gold.Protein.RotatedAtoms>
  150.7510  133.9656  159.3529 H   0  0  0  0  0  0  0  0  0  0  0  0  # atno 6907 bound_to 6896
  151.7586  135.0813  160.0351 H   0  0  0  0  0  0  0  0  0  0  0  0  # atno 6908 bound_to 6896
  152.3418  133.6039  159.5918 H   0  0  0  0  0  0  0  0  0  0  0  0  # atno 6909 bound_to 6896
  146.2414  140.1455  142.8335 H   0  0  0  0  0  0  0  0  0  0  0  0  # atno 7974 bound_to 7965
  156.2774  140.2116  156.5772 H   0  0  0  0  0  0  0  0  0  0  0  0  # atno 8008 bound_to 7997
  154.7087  140.0514  157.0552 H   0  0  0  0  0  0  0  0  0  0  0  0  # atno 8009 bound_to 7997
  155.0634  140.3169  155.4656 H   0  0  0  0  0  0  0  0  0  0  0  0  # atno 8010 bound_to 7997
  139.4827  144.5268  151.7788 H   0  0  0  0  0  0  0  0  0  0  0  0  # atno 10167 bound_to 10162
  156.2070  130.6894  151.0605 H   0  0  0  0  0  0  0  0  0  0  0  0  # atno 10718 bound_to 10713
  153.8549  135.3074  155.3434 H   0  0  0  0  0  0  0  0  0  0  0  0  # atno 10763 bound_to 10752
  154.7875  135.4801  153.9981 H   0  0  0  0  0  0  0  0  0  0  0  0  # atno 10764 bound_to 10752
  153.1496  135.6840  153.8996 H   0  0  0  0  0  0  0  0  0  0  0  0  # atno 10765 bound_to 10752
  140.1541  134.8655  157.2491 H   0  0  0  0  0  0  0  0  0  0  0  0  # atno 11005 bound_to 11000
  145.0211  140.8794  143.5166 LP  0  0  0  0  0  0  0  0  0  0  0  0  # atno 17320 bound_to 7965
  145.1503  139.2518  143.5444 LP  0  0  0  0  0  0  0  0  0  0  0  0  # atno 17321 bound_to 7965
  140.4789  144.1479  150.5929 LP  0  0  0  0  0  0  0  0  0  0  0  0  # atno 17342 bound_to 10162
  140.4300  143.2572  151.9607 LP  0  0  0  0  0  0  0  0  0  0  0  0  # atno 17343 bound_to 10162
  157.7017  131.0773  150.6798 LP  0  0  0  0  0  0  0  0  0  0  0  0  # atno 17370 bound_to 10713
  156.6856  130.4580  149.5615 LP  0  0  0  0  0  0  0  0  0  0  0  0  # atno 17371 bound_to 10713
  140.2569  134.3617  155.7421 LP  0  0  0  0  0  0  0  0  0  0  0  0  # atno 17394 bound_to 11000
  141.2202  133.7348  156.9021 LP  0  0  0  0  0  0  0  0  0  0  0  0  # atno 17395 bound_to 11000

$$$$
