AV-unprocessed.smi:1125|AV-procd|sdf|4836|dock3
  -GOLD-   22720 3403D 1   1.00000     0.00000
 Structure written by MMmdl.
 45 46  0  0  0  0  0  0  0  0  1 V2000
  152.7536  143.3356  161.4661 C   0  0  0  0  0  0  0  0  0  0  0  0
  151.8024  142.7239  160.5490 N   0  0  0  0  0  0  0  0  0  0  0  0
  152.3689  141.4825  160.0203 C   0  0  0  0  0  0  0  0  0  0  0  0
  151.3543  140.7870  159.0955 C   0  0  0  0  0  0  0  0  0  0  0  0
  150.9451  141.7067  157.9349 C   0  0  0  0  0  0  0  0  0  0  0  0
  149.8943  141.0724  157.1451 N   0  0  0  0  0  0  0  0  0  0  0  0
  150.0551  140.5526  155.9179 C   0  0  0  0  0  0  0  0  0  0  0  0
  151.1266  140.5620  155.3118 O   0  0  0  0  0  0  0  0  0  0  0  0
  148.8168  139.9306  155.2709 C   0  0  0  0  0  0  0  0  0  0  0  0
  147.8800  141.0039  154.7973 C   0  0  0  0  0  0  0  0  0  0  0  0
  147.8555  141.5880  153.5560 C   0  0  0  0  0  0  0  0  0  0  0  0
  146.6027  142.7893  153.4291 S   0  0  0  0  0  0  0  0  0  0  0  0
  146.1461  142.4622  155.1049 C   0  0  0  0  0  0  0  0  0  0  0  0
  145.0355  143.1615  155.8518 C   0  0  0  0  0  0  0  0  0  0  0  0
  145.5904  143.7932  157.1434 C   0  0  0  0  0  0  0  0  0  0  0  0
  143.9226  142.1716  156.2590 C   0  0  0  0  0  0  0  0  0  0  0  0
  144.3967  144.2363  154.9509 C   0  0  0  0  0  0  0  0  0  0  0  0
  146.9074  141.5135  155.6630 N   0  0  0  0  0  0  0  0  0  0  0  0
  150.4697  143.0558  158.5029 C   0  0  0  0  0  0  0  0  0  0  0  0
  151.5188  143.6549  159.4562 C   0  0  0  0  0  0  0  0  0  0  0  0
  152.9674  142.6654  162.2992 H   0  0  0  0  0  0  0  0  0  0  0  0
  152.3461  144.2585  161.8802 H   0  0  0  0  0  0  0  0  0  0  0  0
  153.6943  143.5718  160.9666 H   0  0  0  0  0  0  0  0  0  0  0  0
  153.2938  141.6899  159.4795 H   0  0  0  0  0  0  0  0  0  0  0  0
  152.6225  140.8166  160.8459 H   0  0  0  0  0  0  0  0  0  0  0  0
  151.7831  139.8629  158.7065 H   0  0  0  0  0  0  0  0  0  0  0  0
  150.4747  140.5004  159.6747 H   0  0  0  0  0  0  0  0  0  0  0  0
  151.8207  141.8732  157.3043 H   0  0  0  0  0  0  0  0  0  0  0  0
  148.9789  141.0139  157.5673 H   0  0  0  0  0  0  0  0  0  0  0  0
  149.1284  139.2876  154.4465 H   0  0  0  0  0  0  0  0  0  0  0  0
  148.3189  139.2832  155.9938 H   0  0  0  0  0  0  0  0  0  0  0  0
  148.4939  141.3798  152.7100 H   0  0  0  0  0  0  0  0  0  0  0  0
  144.8043  144.2910  157.7123 H   0  0  0  0  0  0  0  0  0  0  0  0
  146.3558  144.5394  156.9277 H   0  0  0  0  0  0  0  0  0  0  0  0
  146.0397  143.0397  157.7916 H   0  0  0  0  0  0  0  0  0  0  0  0
  144.3028  141.3845  156.9114 H   0  0  0  0  0  0  0  0  0  0  0  0
  143.4693  141.6941  155.3894 H   0  0  0  0  0  0  0  0  0  0  0  0
  143.1217  142.6770  156.7998 H   0  0  0  0  0  0  0  0  0  0  0  0
  143.5804  144.7496  155.4602 H   0  0  0  0  0  0  0  0  0  0  0  0
  143.9915  143.7983  154.0378 H   0  0  0  0  0  0  0  0  0  0  0  0
  145.1229  144.9949  154.6564 H   0  0  0  0  0  0  0  0  0  0  0  0
  150.2696  143.7575  157.6923 H   0  0  0  0  0  0  0  0  0  0  0  0
  149.5276  142.9247  159.0375 H   0  0  0  0  0  0  0  0  0  0  0  0
  151.1420  144.5932  159.8651 H   0  0  0  0  0  0  0  0  0  0  0  0
  152.4353  143.8880  158.9115 H   0  0  0  0  0  0  0  0  0  0  0  0
  1  2  1  0  0  0  0
  1 21  1  0  0  0  0
  1 22  1  0  0  0  0
  1 23  1  0  0  0  0
  2 20  1  0  0  0  0
  2  3  1  0  0  0  0
  3  4  1  0  0  0  0
  3 24  1  0  0  0  0
  3 25  1  0  0  0  0
  4  5  1  0  0  0  0
  4 26  1  0  0  0  0
  4 27  1  0  0  0  0
  5  6  1  0  0  0  0
  5 19  1  0  0  0  0
  5 28  1  0  0  0  0
  6  7  1  0  0  0  0
  6 29  1  0  0  0  0
  7  8  2  0  0  0  0
  7  9  1  0  0  0  0
  9 10  1  0  0  0  0
  9 30  1  0  0  0  0
  9 31  1  0  0  0  0
 10 18  1  0  0  0  0
 10 11  2  0  0  0  0
 11 12  1  0  0  0  0
 11 32  1  0  0  0  0
 12 13  1  0  0  0  0
 13 14  1  0  0  0  0
 13 18  2  0  0  0  0
 14 15  1  0  0  0  0
 14 16  1  0  0  0  0
 14 17  1  0  0  0  0
 15 33  1  0  0  0  0
 15 34  1  0  0  0  0
 15 35  1  0  0  0  0
 16 36  1  0  0  0  0
 16 37  1  0  0  0  0
 16 38  1  0  0  0  0
 17 39  1  0  0  0  0
 17 40  1  0  0  0  0
 17 41  1  0  0  0  0
 19 20  1  0  0  0  0
 19 42  1  0  0  0  0
 19 43  1  0  0  0  0
 20 44  1  0  0  0  0
 20 45  1  0  0  0  0
M  END
> <s_m_source_file>
AV-unprocessed.smi

> <i_m_source_file_index>
1125

> <i_lp_mmshare_version>
43012

> <i_f3d_flags>
0

> <s_epik_input>
W0NIM11OMVtDSDJdW0NIMl1bQ0hdKFtDSDJdW0NIMl0xKVtOSF1DKD1PKVtDSDJdYzJbY0hdc2MobjIpQyhbQ0gzXSkoW0NIM10pW0NIM10=

> <s_epik_cmdline>
J2VwaWtfcHl0aG9uJywgJy1waCcsICc3LjAnLCAnLXRuJywgJzgnLCAnLW1hJywgJzIwMCcsICctbWV0YWxfYmluZGluZycsICctaW1hZScsICc8aW5maWxlLm1hZT4nLCAnLW9tYWUnLCAnPG91dGZpbGUubWFlPic=

> <r_epik_Ionization_Penalty>
2.53567

> <r_epik_Ionization_Penalty_Charging>
0

> <r_epik_Ionization_Penalty_Neutral>
2.53567

> <r_epik_State_Penalty>
2.70312

> <r_epik_Charging_Adjusted_Penalty>
2.70312

> <i_epik_Tot_Q>
0

> <i_epik_Tot_abs_Q>
0

> <r_epik_Metal_State_Penalty>
2.70311

> <b_epik_Metal_Only>
0

> <s_lp_Force_Field>
OPLS_2005

> <r_lp_Energy>
6.33754

> <b_lp_Chiralities_Consistent>
1

> <s_lp_Variant>
AV-unprocessed.smi:1125-3

> <Gold.Version>
5.8.1

> <Gold.Id.Protein>
6NUR|6NUR_protein|mol2

> <Gold.PLP.Fitness>
37.3793

> <Gold.PLP.PLP>
-33.2333

> <Gold.PLP.part.hbond>
-1.7001

> <Gold.PLP.part.metal>
0.0000

> <Gold.PLP.part.buried>
-6.8557

> <Gold.PLP.part.nonpolar>
-24.4273

> <Gold.PLP.part.repulsive>
0.2004

> <Gold.PLP.ligand.clash>
0.0000

> <Gold.PLP.ligand.torsion>
0.7279

> <Gold.PLP.Chemscore.Hbond>
0.8640

> <Gold.PLP.Chemscore.CHOScore>
1.0000

> <Gold.PLP.Chemscore.Metal>
0.0000

> <Gold.Chemscore.Hbonds>
donor molecule, donor type, donor heavy atom, donor atom, acceptor molecule, acceptor atom, score
      P1  H  7989  7998       L1     8  0.91
      L1  C    11    32       P1  7957  1.00

> <Gold.PLP.Chemscore.Internal.Correction>
0.0097

> <Gold.Rescore>
     Score         DG    S(hbond)    S(metal)    S(lipo)     H(rot)  DE(clash)    DE(int)     intcor
     14.51     -15.04       0.88        0.00      86.15       1.35       0.04       0.49       ----

> <Gold.Chemscore.Fitness>
14.5115

> <Gold.Chemscore.DG>
-15.0385

> <Gold.Chemscore.ZeroCoef>
-5.4800

> <Gold.Chemscore.Hbond>
0.8807

> <Gold.Chemscore.Metal>
0.0000

> <Gold.Chemscore.Lipo>
86.1504

> <Gold.Chemscore.Internal_Hbond>
0.0000

> <Gold.Chemscore.DEClash>
0.0405

> <Gold.Chemscore.DEInternal>
0.4864

> <Gold.Chemscore.Rot>
1.3526

> <Gold.Chemscore.Internal.Correction>
   9.000000E+99

> <Gold.Chemscore.Hbonds>
donor molecule, donor type, donor heavy atom, donor atom, acceptor molecule, acceptor atom, score
      P1  H  7989  7998       L1     8  0.89

> <Gold.Chemscore.Hbond.Weighted>
-2.9415

> <Gold.Chemscore.Metal.Weighted>
-0.0000

> <Gold.Chemscore.Lipo.Weighted>
-10.0796

> <Gold.Chemscore.Internal_Hbond.Weighted>
0.0000

> <Gold.Chemscore.DEClash.Weighted>
0.0405

> <Gold.Chemscore.DEInternal.Weighted>
0.4864

> <Gold.Chemscore.Rot.Weighted>
3.4626

> <Gold.Chemscore.Internal.Correction.Weighted>
   9.000000E+99

> <Gold.Protein.RotatedTorsions>
[ 6907 6896 6895 6894 ] final -169.45 input  -60.11 | X-H torsion
[ 7974 7965 7964 7962 ] final  -83.05 input  175.53 | X-H torsion
[ 8008 7997 7996 7995 ] final  125.34 input   59.86 | X-H torsion
[ 10167 10162 10161 10158 ] final  155.72 input  -65.29 | X-H torsion
[ 10718 10713 10712 10709 ] final  -33.11 input   66.30 | X-H torsion
[ 10763 10752 10751 10750 ] final -178.36 input  -60.55 | X-H torsion
[ 11005 11000 10999 10996 ] final    6.45 input  -57.11 | X-H torsion

> <Gold.Protein.ActiveResidues>
 VAL166  LYS551  ARG553  GLY616  TRP617  ASP618  TYR619  PRO620  LYS621  CYS622 
 ASP623  PHE694  ASN695  SER759  ASP760  ASP761  ALA762  ILE779  LEU786  VAL792 
 PHE793  MET794  SER795  GLU796  ALA797  LYS798  CYS799  TRP800  GLU811  SER814 

> <Gold.Protein.RotatedAtoms>
  151.4918  133.3523  159.2854 H   0  0  0  0  0  0  0  0  0  0  0  0  # atno 6907 bound_to 6896
  150.8829  134.8225  159.7249 H   0  0  0  0  0  0  0  0  0  0  0  0  # atno 6908 bound_to 6896
  152.4774  134.4818  159.9720 H   0  0  0  0  0  0  0  0  0  0  0  0  # atno 6909 bound_to 6896
  145.5251  140.9527  143.1634 H   0  0  0  0  0  0  0  0  0  0  0  0  # atno 7974 bound_to 7965
  156.2831  140.2718  156.1934 H   0  0  0  0  0  0  0  0  0  0  0  0  # atno 8008 bound_to 7997
  155.0435  140.0386  157.2536 H   0  0  0  0  0  0  0  0  0  0  0  0  # atno 8009 bound_to 7997
  154.7254  140.2696  155.6508 H   0  0  0  0  0  0  0  0  0  0  0  0  # atno 8010 bound_to 7997
  139.4821  144.5073  151.8078 H   0  0  0  0  0  0  0  0  0  0  0  0  # atno 10167 bound_to 10162
  156.3666  130.4332  149.7579 H   0  0  0  0  0  0  0  0  0  0  0  0  # atno 10718 bound_to 10713
  154.5486  135.2811  155.1029 H   0  0  0  0  0  0  0  0  0  0  0  0  # atno 10763 bound_to 10752
  154.2484  135.6344  153.5235 H   0  0  0  0  0  0  0  0  0  0  0  0  # atno 10764 bound_to 10752
  152.9997  135.5576  154.6046 H   0  0  0  0  0  0  0  0  0  0  0  0  # atno 10765 bound_to 10752
  140.5593  134.0208  155.7966 H   0  0  0  0  0  0  0  0  0  0  0  0  # atno 11005 bound_to 11000
  144.7655  139.6855  143.7216 LP  0  0  0  0  0  0  0  0  0  0  0  0  # atno 17320 bound_to 7965
  146.2081  139.5418  142.9699 LP  0  0  0  0  0  0  0  0  0  0  0  0  # atno 17321 bound_to 7965
  140.4573  144.1772  150.5902 LP  0  0  0  0  0  0  0  0  0  0  0  0  # atno 17342 bound_to 10162
  140.4522  143.2482  151.9332 LP  0  0  0  0  0  0  0  0  0  0  0  0  # atno 17343 bound_to 10162
  156.4723  130.8002  151.3020 LP  0  0  0  0  0  0  0  0  0  0  0  0  # atno 17370 bound_to 10713
  157.7479  131.0032  150.3029 LP  0  0  0  0  0  0  0  0  0  0  0  0  # atno 17371 bound_to 10713
  141.1124  133.9595  157.2885 LP  0  0  0  0  0  0  0  0  0  0  0  0  # atno 17394 bound_to 11000
  139.9416  135.0190  156.8724 LP  0  0  0  0  0  0  0  0  0  0  0  0  # atno 17395 bound_to 11000

$$$$
