AV-unprocessed.smi:1292|AV-procd|sdf|5398|dock6
  -GOLD-   22720 4553D 1   1.00000     0.00000
 Structure written by MMmdl.
 39 40  0  0  0  0  0  0  0  0  2 V2000
  153.4549  142.3032  160.8548 C   0  0  0  0  0  0  0  0  0  0  0  0
  152.3073  142.2582  159.8362 C   0  0  1  0  0  0  0  0  0  0  0  0
  152.0043  143.6526  159.2713 C   0  0  0  0  0  0  0  0  0  0  0  0
  150.8509  143.5587  158.2698 C   0  0  0  0  0  0  0  0  0  0  0  0
  151.1690  142.5566  157.1503 C   0  0  0  0  0  0  0  0  0  0  0  0
  151.5175  141.2262  157.6979 N   0  0  0  0  0  0  0  0  0  0  0  0
  151.4909  139.8723  156.6063 S   0  0  0  0  0  0  0  0  0  0  0  0
  151.0668  140.4112  155.3040 O   0  0  0  0  0  0  0  0  0  0  0  0
  152.8209  139.2456  156.6850 O   0  0  0  0  0  0  0  0  0  0  0  0
  150.3367  139.0167  157.3617 N   0  5  0  0  0  0  0  0  0  0  0  0
  148.9468  139.1799  156.9645 C   0  0  0  0  0  0  0  0  0  0  0  0
  148.4623  140.6334  157.1891 C   0  0  0  0  0  0  0  0  0  0  0  0
  147.7705  141.2949  155.9997 C   0  0  0  0  0  0  0  0  0  0  0  0
  146.6572  142.1454  156.1914 C   0  0  0  0  0  0  0  0  0  0  0  0
  146.0607  142.7403  155.0632 C   0  0  0  0  0  0  0  0  0  0  0  0
  146.5887  142.4598  153.7886 C   0  0  0  0  0  0  0  0  0  0  0  0
  147.6938  141.5906  153.6985 C   0  0  0  0  0  0  0  0  0  0  0  0
  148.2709  141.0118  154.7724 N   0  0  0  0  0  0  0  0  0  0  0  0
  152.6070  141.2647  158.6956 C   0  0  0  0  0  0  0  0  0  0  0  0
  154.3808  142.6480  160.3931 H   0  0  0  0  0  0  0  0  0  0  0  0
  153.6417  141.3162  161.2790 H   0  0  0  0  0  0  0  0  0  0  0  0
  153.2216  142.9774  161.6793 H   0  0  0  0  0  0  0  0  0  0  0  0
  151.4175  141.9056  160.3605 H   0  0  0  0  0  0  0  0  0  0  0  0
  151.7423  144.3406  160.0758 H   0  0  0  0  0  0  0  0  0  0  0  0
  152.8890  144.0614  158.7815 H   0  0  0  0  0  0  0  0  0  0  0  0
  149.9393  143.2520  158.7847 H   0  0  0  0  0  0  0  0  0  0  0  0
  150.6487  144.5407  157.8416 H   0  0  0  0  0  0  0  0  0  0  0  0
  150.3103  142.4820  156.4841 H   0  0  0  0  0  0  0  0  0  0  0  0
  152.0014  142.9170  156.5449 H   0  0  0  0  0  0  0  0  0  0  0  0
  148.8264  138.9440  155.9068 H   0  0  0  0  0  0  0  0  0  0  0  0
  148.2798  138.4931  157.4872 H   0  0  0  0  0  0  0  0  0  0  0  0
  147.7961  140.6675  158.0526 H   0  0  0  0  0  0  0  0  0  0  0  0
  149.3199  141.2503  157.4591 H   0  0  0  0  0  0  0  0  0  0  0  0
  146.2786  142.3472  157.1824 H   0  0  0  0  0  0  0  0  0  0  0  0
  145.2145  143.4020  155.1741 H   0  0  0  0  0  0  0  0  0  0  0  0
  146.1587  142.9004  152.9015 H   0  0  0  0  0  0  0  0  0  0  0  0
  148.1237  141.3512  152.7372 H   0  0  0  0  0  0  0  0  0  0  0  0
  153.5376  141.5258  158.1901 H   0  0  0  0  0  0  0  0  0  0  0  0
  152.7480  140.2721  159.1225 H   0  0  0  0  0  0  0  0  0  0  0  0
  1  2  1  0  0  0  0
  1 20  1  0  0  0  0
  1 21  1  0  0  0  0
  1 22  1  0  0  0  0
  2 19  1  0  0  0  0
  2  3  1  0  0  0  0
  2 23  1  0  0  0  0
  3  4  1  0  0  0  0
  3 24  1  0  0  0  0
  3 25  1  0  0  0  0
  4  5  1  0  0  0  0
  4 26  1  0  0  0  0
  4 27  1  0  0  0  0
  5  6  1  0  0  0  0
  5 28  1  0  0  0  0
  5 29  1  0  0  0  0
  6  7  1  0  0  0  0
  6 19  1  0  0  0  0
  7  8  2  0  0  0  0
  7  9  2  0  0  0  0
  7 10  1  0  0  0  0
 10 11  1  0  0  0  0
 11 12  1  0  0  0  0
 11 30  1  0  0  0  0
 11 31  1  0  0  0  0
 12 13  1  0  0  0  0
 12 32  1  0  0  0  0
 12 33  1  0  0  0  0
 13 18  1  0  0  0  0
 13 14  2  0  0  0  0
 14 15  1  0  0  0  0
 14 34  1  0  0  0  0
 15 16  2  0  0  0  0
 15 35  1  0  0  0  0
 16 17  1  0  0  0  0
 16 36  1  0  0  0  0
 17 18  2  0  0  0  0
 17 37  1  0  0  0  0
 19 38  1  0  0  0  0
 19 39  1  0  0  0  0
M  CHG  1  10  -1
M  END
> <s_m_source_file>
AV-unprocessed.smi

> <i_m_source_file_index>
1292

> <i_lp_mmshare_version>
43012

> <i_f3d_flags>
0

> <s_epik_input>
W0NIM11bQ0BASF0xW0NIMl1bQ0gyXVtDSDJdTihbQ0gyXTEpUyg9TykoPU8pW05IXVtDSDJdW0NIMl1jMltjSF1bY0hdW2NIXVtjSF1uMg==

> <s_epik_cmdline>
J2VwaWtfcHl0aG9uJywgJy1waCcsICc3LjAnLCAnLXRuJywgJzgnLCAnLW1hJywgJzIwMCcsICctbWV0YWxfYmluZGluZycsICctaW1hZScsICc8aW5maWxlLm1hZT4nLCAnLW9tYWUnLCAnPG91dGZpbGUubWFlPic=

> <r_epik_Ionization_Penalty>
2.02944

> <r_epik_Ionization_Penalty_Charging>
1.95606

> <r_epik_Ionization_Penalty_Neutral>
0.0733799

> <r_epik_State_Penalty>
2.47711

> <r_epik_Charging_Adjusted_Penalty>
4.43317

> <i_epik_Tot_Q>
-1

> <i_epik_Tot_abs_Q>
1

> <r_epik_Metal_State_Penalty>
0.729901

> <b_epik_Metal_Only>
0

> <s_lp_Force_Field>
OPLS_2005

> <r_lp_Energy>
9.691

> <b_lp_Chiralities_Consistent>
1

> <s_lp_Variant>
AV-unprocessed.smi:1292-4

> <Gold.Version>
5.8.1

> <Gold.Id.Protein>
6NUR|6NUR_protein|mol2

> <Gold.PLP.Fitness>
42.3561

> <Gold.PLP.PLP>
-34.8492

> <Gold.PLP.part.hbond>
-2.0000

> <Gold.PLP.part.metal>
0.0000

> <Gold.PLP.part.buried>
-6.8439

> <Gold.PLP.part.nonpolar>
-26.1961

> <Gold.PLP.part.repulsive>
0.1542

> <Gold.PLP.ligand.clash>
0.0000

> <Gold.PLP.ligand.torsion>
1.5479

> <Gold.PLP.Chemscore.Hbond>
2.0000

> <Gold.PLP.Chemscore.CHOScore>
1.0000

> <Gold.PLP.Chemscore.Metal>
0.0000

> <Gold.Chemscore.Hbonds>
donor molecule, donor type, donor heavy atom, donor atom, acceptor molecule, acceptor atom, score
      P1  H  7989  7998       L1     8  1.00
      P1  H  7997  8008       L1     9  1.00
      L1  C    17    37       P1  7957  1.00

> <Gold.PLP.Chemscore.Internal.Correction>
1.6028

> <Gold.Rescore>
     Score         DG    S(hbond)    S(metal)    S(lipo)     H(rot)  DE(clash)    DE(int)     intcor
     17.65     -19.23       1.96        0.00      92.72       1.42       0.05       1.53       ----

> <Gold.Chemscore.Fitness>
17.6502

> <Gold.Chemscore.DG>
-19.2326

> <Gold.Chemscore.ZeroCoef>
-5.4800

> <Gold.Chemscore.Hbond>
1.9593

> <Gold.Chemscore.Metal>
0.0000

> <Gold.Chemscore.Lipo>
92.7167

> <Gold.Chemscore.Internal_Hbond>
0.0000

> <Gold.Chemscore.DEClash>
0.0529

> <Gold.Chemscore.DEInternal>
1.5295

> <Gold.Chemscore.Rot>
1.4216

> <Gold.Chemscore.Internal.Correction>
   9.000000E+99

> <Gold.Chemscore.Hbonds>
donor molecule, donor type, donor heavy atom, donor atom, acceptor molecule, acceptor atom, score
      P1  H  7989  7998       L1     8  0.94
      P1  H  7997  8008       L1     9  1.00

> <Gold.Chemscore.Hbond.Weighted>
-6.5440

> <Gold.Chemscore.Metal.Weighted>
-0.0000

> <Gold.Chemscore.Lipo.Weighted>
-10.8479

> <Gold.Chemscore.Internal_Hbond.Weighted>
0.0000

> <Gold.Chemscore.DEClash.Weighted>
0.0529

> <Gold.Chemscore.DEInternal.Weighted>
1.5295

> <Gold.Chemscore.Rot.Weighted>
3.6392

> <Gold.Chemscore.Internal.Correction.Weighted>
   9.000000E+99

> <Gold.Protein.RotatedTorsions>
[ 6907 6896 6895 6894 ] final  167.15 input  -60.11 | X-H torsion
[ 7974 7965 7964 7962 ] final    8.58 input  175.53 | X-H torsion
[ 8008 7997 7996 7995 ] final  -55.80 input   59.86 | X-H torsion
[ 10167 10162 10161 10158 ] final  118.00 input  -65.29 | X-H torsion
[ 10718 10713 10712 10709 ] final  -89.71 input   66.30 | X-H torsion
[ 10763 10752 10751 10750 ] final  148.88 input  -60.55 | X-H torsion
[ 11005 11000 10999 10996 ] final  163.35 input  -57.11 | X-H torsion

> <Gold.Protein.ActiveResidues>
 VAL166  LYS551  ARG553  GLY616  TRP617  ASP618  TYR619  PRO620  LYS621  CYS622 
 ASP623  PHE694  ASN695  SER759  ASP760  ASP761  ALA762  ILE779  LEU786  VAL792 
 PHE793  MET794  SER795  GLU796  ALA797  LYS798  CYS799  TRP800  GLU811  SER814 

> <Gold.Protein.RotatedAtoms>
  151.8677  133.3469  159.3724 H   0  0  0  0  0  0  0  0  0  0  0  0  # atno 6907 bound_to 6896
  150.7161  134.5143  159.5632 H   0  0  0  0  0  0  0  0  0  0  0  0  # atno 6908 bound_to 6896
  152.2670  134.7974  160.0472 H   0  0  0  0  0  0  0  0  0  0  0  0  # atno 6909 bound_to 6896
  146.2414  139.9912  142.8425 H   0  0  0  0  0  0  0  0  0  0  0  0  # atno 7974 bound_to 7965
  154.4207  140.1144  156.5535 H   0  0  0  0  0  0  0  0  0  0  0  0  # atno 8008 bound_to 7997
  155.6385  140.3496  155.4687 H   0  0  0  0  0  0  0  0  0  0  0  0  # atno 8009 bound_to 7997
  155.9890  140.1175  157.0645 H   0  0  0  0  0  0  0  0  0  0  0  0  # atno 8010 bound_to 7997
  139.6141  144.7088  151.2779 H   0  0  0  0  0  0  0  0  0  0  0  0  # atno 10167 bound_to 10162
  155.9985  130.4882  150.5212 H   0  0  0  0  0  0  0  0  0  0  0  0  # atno 10718 bound_to 10713
  154.0619  135.2873  155.3323 H   0  0  0  0  0  0  0  0  0  0  0  0  # atno 10763 bound_to 10752
  154.6802  135.5266  153.8257 H   0  0  0  0  0  0  0  0  0  0  0  0  # atno 10764 bound_to 10752
  153.0519  135.6580  154.0807 H   0  0  0  0  0  0  0  0  0  0  0  0  # atno 10765 bound_to 10752
  140.2349  134.8095  157.3354 H   0  0  0  0  0  0  0  0  0  0  0  0  # atno 11005 bound_to 11000
  145.1501  140.9618  143.4438 LP  0  0  0  0  0  0  0  0  0  0  0  0  # atno 17320 bound_to 7965
  145.0213  139.3421  143.6071 LP  0  0  0  0  0  0  0  0  0  0  0  0  # atno 17321 bound_to 7965
  140.7339  143.6782  150.8024 LP  0  0  0  0  0  0  0  0  0  0  0  0  # atno 17342 bound_to 10162
  140.0381  143.5374  152.2730 LP  0  0  0  0  0  0  0  0  0  0  0  0  # atno 17343 bound_to 10162
  157.3173  131.0675  151.1957 LP  0  0  0  0  0  0  0  0  0  0  0  0  # atno 17370 bound_to 10713
  157.2883  130.6783  149.6101 LP  0  0  0  0  0  0  0  0  0  0  0  0  # atno 17371 bound_to 10713
  140.1712  134.4606  155.7830 LP  0  0  0  0  0  0  0  0  0  0  0  0  # atno 17394 bound_to 11000
  141.2215  133.6943  156.7711 LP  0  0  0  0  0  0  0  0  0  0  0  0  # atno 17395 bound_to 11000

$$$$
