AV-unprocessed.smi:1174|AV-procd|sdf|4948|dock2
  -GOLD-   22720 3533D 1   1.00000     0.00000
 Structure written by MMmdl.
 41 42  0  0  0  0  0  0  0  0  1 V2000
  151.2117  141.4860  158.4301 C   0  0  0  0  0  0  0  0  0  0  0  0
  151.0440  142.1136  157.0398 C   0  0  2  0  0  0  0  0  0  0  0  0
  151.6706  143.5239  156.9806 C   0  0  0  0  0  0  0  0  0  0  0  0
  151.7253  144.1701  158.2802 N   0  0  0  0  0  0  0  0  0  0  0  0
  150.9875  145.2427  158.7357 C   0  0  0  0  0  0  0  0  0  0  0  0
  151.4056  145.5131  160.0068 C   0  0  0  0  0  0  0  0  0  0  0  0
  152.4102  144.5342  160.2467 C   0  0  0  0  0  0  0  0  0  0  0  0
  152.5965  143.7293  159.2130 N   0  0  0  0  0  0  0  0  0  0  0  0
  149.6195  142.1648  156.7117 N   0  0  0  0  0  0  0  0  0  0  0  0
  148.8259  141.1034  156.4939 C   0  0  0  0  0  0  0  0  0  0  0  0
  149.2210  139.9412  156.5878 O   0  0  0  0  0  0  0  0  0  0  0  0
  147.3751  141.4116  156.0789 C   0  0  1  0  0  0  0  0  0  0  0  0
  147.3098  142.4727  154.9528 C   0  0  0  0  0  0  0  0  0  0  0  0
  147.5934  141.8946  153.5519 C   0  0  0  0  0  0  0  0  0  0  0  0
  146.7454  140.6377  153.2939 C   0  0  0  0  0  0  0  0  0  0  0  0
  147.0097  139.6481  154.3533 N   0  0  0  0  0  0  0  0  0  0  0  0
  147.6068  138.4388  154.1966 C   0  0  0  0  0  0  0  0  0  0  0  0
  148.3321  138.2976  153.0827 N   0  0  0  0  0  0  0  0  0  0  0  0
  147.5135  137.5195  155.0084 O   0  0  0  0  0  0  0  0  0  0  0  0
  146.5825  140.1437  155.6720 C   0  0  0  0  0  0  0  0  0  0  0  0
  152.2654  141.4022  158.6973 H   0  0  0  0  0  0  0  0  0  0  0  0
  150.7844  140.4830  158.4625 H   0  0  0  0  0  0  0  0  0  0  0  0
  150.7199  142.0835  159.1987 H   0  0  0  0  0  0  0  0  0  0  0  0
  151.5654  141.4672  156.3312 H   0  0  0  0  0  0  0  0  0  0  0  0
  152.6807  143.4772  156.5710 H   0  0  0  0  0  0  0  0  0  0  0  0
  151.0943  144.1632  156.3103 H   0  0  0  0  0  0  0  0  0  0  0  0
  150.2438  145.7258  158.1192 H   0  0  0  0  0  0  0  0  0  0  0  0
  151.0506  146.2928  160.6638 H   0  0  0  0  0  0  0  0  0  0  0  0
  153.0061  144.3862  161.1352 H   0  0  0  0  0  0  0  0  0  0  0  0
  149.2113  143.0830  156.6154 H   0  0  0  0  0  0  0  0  0  0  0  0
  146.8787  141.8366  156.9530 H   0  0  0  0  0  0  0  0  0  0  0  0
  146.3120  142.9129  154.9508 H   0  0  0  0  0  0  0  0  0  0  0  0
  147.9955  143.2959  155.1587 H   0  0  0  0  0  0  0  0  0  0  0  0
  147.3823  142.6487  152.7933 H   0  0  0  0  0  0  0  0  0  0  0  0
  148.6513  141.6509  153.4506 H   0  0  0  0  0  0  0  0  0  0  0  0
  145.6861  140.8977  153.3101 H   0  0  0  0  0  0  0  0  0  0  0  0
  146.9359  140.2713  152.2856 H   0  0  0  0  0  0  0  0  0  0  0  0
  148.7999  137.4234  152.8945 H   0  0  0  0  0  0  0  0  0  0  0  0
  148.4019  139.0658  152.4316 H   0  0  0  0  0  0  0  0  0  0  0  0
  146.6707  139.3877  156.4540 H   0  0  0  0  0  0  0  0  0  0  0  0
  145.5185  140.3795  155.6249 H   0  0  0  0  0  0  0  0  0  0  0  0
  1  2  1  0  0  0  0
  1 21  1  0  0  0  0
  1 22  1  0  0  0  0
  1 23  1  0  0  0  0
  2  3  1  0  0  0  0
  2  9  1  0  0  0  0
  2 24  1  0  0  0  0
  3  4  1  0  0  0  0
  3 25  1  0  0  0  0
  3 26  1  0  0  0  0
  4  8  1  0  0  0  0
  4  5  1  0  0  0  0
  5  6  2  0  0  0  0
  5 27  1  0  0  0  0
  6  7  1  0  0  0  0
  6 28  1  0  0  0  0
  7  8  2  0  0  0  0
  7 29  1  0  0  0  0
  9 10  1  0  0  0  0
  9 30  1  0  0  0  0
 10 11  2  0  0  0  0
 10 12  1  0  0  0  0
 12 20  1  0  0  0  0
 12 13  1  0  0  0  0
 12 31  1  0  0  0  0
 13 14  1  0  0  0  0
 13 32  1  0  0  0  0
 13 33  1  0  0  0  0
 14 15  1  0  0  0  0
 14 34  1  0  0  0  0
 14 35  1  0  0  0  0
 15 16  1  0  0  0  0
 15 36  1  0  0  0  0
 15 37  1  0  0  0  0
 16 17  1  0  0  0  0
 16 20  1  0  0  0  0
 17 18  1  0  0  0  0
 17 19  2  0  0  0  0
 18 38  1  0  0  0  0
 18 39  1  0  0  0  0
 20 40  1  0  0  0  0
 20 41  1  0  0  0  0
M  END
> <s_m_source_file>
AV-unprocessed.smi

> <i_m_source_file_index>
1174

> <i_lp_mmshare_version>
43012

> <i_f3d_flags>
0

> <s_epik_input>
bjFbY0hdW2NIXVtjSF1uMVtDSDJdW0NAQEhdKFtDSDNdKVtOSF1DKD1PKVtDQEBIXTJbQ0gyXVtDSDJdW0NIMl1OKFtDSDJdMilDKD1PKVtOSDJd

> <s_epik_cmdline>
J2VwaWtfcHl0aG9uJywgJy1waCcsICc3LjAnLCAnLXRuJywgJzgnLCAnLW1hJywgJzIwMCcsICctbWV0YWxfYmluZGluZycsICctaW1hZScsICc8aW5maWxlLm1hZT4nLCAnLW9tYWUnLCAnPG91dGZpbGUubWFlPic=

> <r_lp_tautomer_probability>
1

> <r_epik_Ionization_Penalty>
0.000372452

> <r_epik_Ionization_Penalty_Charging>
0

> <r_epik_Ionization_Penalty_Neutral>
0.000372452

> <r_epik_State_Penalty>
-0

> <r_epik_Charging_Adjusted_Penalty>
0

> <i_epik_Tot_Q>
0

> <i_epik_Tot_abs_Q>
0

> <r_epik_Metal_State_Penalty>
-0

> <b_epik_Metal_Only>
0

> <s_lp_Force_Field>
OPLS_2005

> <r_lp_Energy>
23.1922

> <b_lp_Chiralities_Consistent>
1

> <s_lp_Variant>
AV-unprocessed.smi:1174-3

> <Gold.Version>
5.8.1

> <Gold.Id.Protein>
6NUR|6NUR_protein|mol2

> <Gold.PLP.Fitness>
41.3439

> <Gold.PLP.PLP>
-31.8580

> <Gold.PLP.part.hbond>
-2.7776

> <Gold.PLP.part.metal>
0.0000

> <Gold.PLP.part.buried>
-2.5025

> <Gold.PLP.part.nonpolar>
-26.2617

> <Gold.PLP.part.repulsive>
0.1723

> <Gold.PLP.ligand.clash>
0.0000

> <Gold.PLP.ligand.torsion>
1.0011

> <Gold.PLP.Chemscore.Hbond>
2.8080

> <Gold.PLP.Chemscore.CHOScore>
1.0000

> <Gold.PLP.Chemscore.Metal>
0.0000

> <Gold.Chemscore.Hbonds>
donor molecule, donor type, donor heavy atom, donor atom, acceptor molecule, acceptor atom, score
      L1  H     9    30       P1  8028  1.00
      L1  H    18    38       P1  7948  0.90
      L1  H    18    39       P1  7957  0.91
      L1  C     5    27       P1  8029  0.99

> <Gold.PLP.Chemscore.Internal.Correction>
0.0640

> <Gold.Rescore>
     Score         DG    S(hbond)    S(metal)    S(lipo)     H(rot)  DE(clash)    DE(int)     intcor
     14.67     -19.04       2.52        0.00      83.66       1.82       1.97       2.40       ----

> <Gold.Chemscore.Fitness>
14.6695

> <Gold.Chemscore.DG>
-19.0374

> <Gold.Chemscore.ZeroCoef>
-5.4800

> <Gold.Chemscore.Hbond>
2.5238

> <Gold.Chemscore.Metal>
0.0000

> <Gold.Chemscore.Lipo>
83.6639

> <Gold.Chemscore.Internal_Hbond>
0.0000

> <Gold.Chemscore.DEClash>
1.9700

> <Gold.Chemscore.DEInternal>
2.3979

> <Gold.Chemscore.Rot>
1.8206

> <Gold.Chemscore.Internal.Correction>
   9.000000E+99

> <Gold.Chemscore.Hbonds>
donor molecule, donor type, donor heavy atom, donor atom, acceptor molecule, acceptor atom, score
      L1  H     9    30       P1  8028  0.96
      L1  H    18    38       P1  7948  0.85
      L1  H    18    39       P1  7957  0.85

> <Gold.Chemscore.Hbond.Weighted>
-8.4294

> <Gold.Chemscore.Metal.Weighted>
-0.0000

> <Gold.Chemscore.Lipo.Weighted>
-9.7887

> <Gold.Chemscore.Internal_Hbond.Weighted>
0.0000

> <Gold.Chemscore.DEClash.Weighted>
1.9700

> <Gold.Chemscore.DEInternal.Weighted>
2.3979

> <Gold.Chemscore.Rot.Weighted>
4.6607

> <Gold.Chemscore.Internal.Correction.Weighted>
   9.000000E+99

> <Gold.Protein.RotatedTorsions>
[ 6907 6896 6895 6894 ] final   60.80 input  -60.11 | X-H torsion
[ 7974 7965 7964 7962 ] final   88.24 input  175.53 | X-H torsion
[ 8008 7997 7996 7995 ] final -164.40 input   59.86 | X-H torsion
[ 10167 10162 10161 10158 ] final -128.39 input  -65.29 | X-H torsion
[ 10718 10713 10712 10709 ] final  147.29 input   66.30 | X-H torsion
[ 10763 10752 10751 10750 ] final -136.82 input  -60.55 | X-H torsion
[ 11005 11000 10999 10996 ] final   11.05 input  -57.11 | X-H torsion

> <Gold.Protein.ActiveResidues>
 VAL166  LYS551  ARG553  GLY616  TRP617  ASP618  TYR619  PRO620  LYS621  CYS622 
 ASP623  PHE694  ASN695  SER759  ASP760  ASP761  ALA762  ILE779  LEU786  VAL792 
 PHE793  MET794  SER795  GLU796  ALA797  LYS798  CYS799  TRP800  GLU811  SER814 

> <Gold.Protein.RotatedAtoms>
  152.4034  134.6248  160.0060 H   0  0  0  0  0  0  0  0  0  0  0  0  # atno 6907 bound_to 6896
  151.6447  133.3318  159.3146 H   0  0  0  0  0  0  0  0  0  0  0  0  # atno 6908 bound_to 6896
  150.7931  134.7013  159.6596 H   0  0  0  0  0  0  0  0  0  0  0  0  # atno 6909 bound_to 6896
  145.5484  139.2293  143.2526 H   0  0  0  0  0  0  0  0  0  0  0  0  # atno 7974 bound_to 7965
  155.8351  140.0939  157.1769 H   0  0  0  0  0  0  0  0  0  0  0  0  # atno 8008 bound_to 7997
  154.3980  140.1411  156.3721 H   0  0  0  0  0  0  0  0  0  0  0  0  # atno 8009 bound_to 7997
  155.8125  140.3449  155.5468 H   0  0  0  0  0  0  0  0  0  0  0  0  # atno 8010 bound_to 7997
  139.9508  143.6057  152.2476 H   0  0  0  0  0  0  0  0  0  0  0  0  # atno 10167 bound_to 10162
  157.3228  131.0907  151.1227 H   0  0  0  0  0  0  0  0  0  0  0  0  # atno 10718 bound_to 10713
  154.8676  135.3661  154.5122 H   0  0  0  0  0  0  0  0  0  0  0  0  # atno 10763 bound_to 10752
  153.5757  135.7019  153.5490 H   0  0  0  0  0  0  0  0  0  0  0  0  # atno 10764 bound_to 10752
  153.3502  135.4074  155.1603 H   0  0  0  0  0  0  0  0  0  0  0  0  # atno 10765 bound_to 10752
  140.5076  134.0684  155.7810 H   0  0  0  0  0  0  0  0  0  0  0  0  # atno 11005 bound_to 11000
  146.1934  140.6306  142.9135 LP  0  0  0  0  0  0  0  0  0  0  0  0  # atno 17320 bound_to 7965
  144.7542  140.5266  143.6781 LP  0  0  0  0  0  0  0  0  0  0  0  0  # atno 17321 bound_to 7965
  139.6630  144.7662  151.1927 LP  0  0  0  0  0  0  0  0  0  0  0  0  # atno 17342 bound_to 10162
  140.7583  143.5981  150.8727 LP  0  0  0  0  0  0  0  0  0  0  0  0  # atno 17343 bound_to 10162
  157.2505  130.6612  149.5929 LP  0  0  0  0  0  0  0  0  0  0  0  0  # atno 17370 bound_to 10713
  155.9687  130.4540  150.5833 LP  0  0  0  0  0  0  0  0  0  0  0  0  # atno 17371 bound_to 10713
  141.1402  133.9151  157.2342 LP  0  0  0  0  0  0  0  0  0  0  0  0  # atno 17394 bound_to 11000
  139.9677  135.0137  156.9431 LP  0  0  0  0  0  0  0  0  0  0  0  0  # atno 17395 bound_to 11000

$$$$
