AV-unprocessed.smi:2726|AV-procd|sdf|10520|dock4
  -GOLD-   2272014563D 1   1.00000     0.00000
 Structure written by MMmdl.
 42 43  0  0  0  0  0  0  0  0  2 V2000
  146.9007  133.1672  155.1060 C   0  0  0  0  0  0  0  0  0  0  0  0
  147.9549  133.0998  153.9869 C   0  0  0  0  0  0  0  0  0  0  0  0
  148.9195  131.9313  154.2800 C   0  0  0  0  0  0  0  0  0  0  0  0
  147.2394  132.8882  152.6356 C   0  0  0  0  0  0  0  0  0  0  0  0
  148.6739  134.3800  154.0001 N   0  0  0  0  0  0  0  0  0  0  0  0
  149.3121  134.9680  155.0265 C   0  0  0  0  0  0  0  0  0  0  0  0
  149.3940  134.4852  156.1552 O   0  0  0  0  0  0  0  0  0  0  0  0
  149.8251  136.1545  154.6571 N   0  0  0  0  0  0  0  0  0  0  0  0
  150.5672  137.0774  155.4427 C   0  0  0  0  0  0  0  0  0  0  0  0
  151.4290  137.9707  154.7709 C   0  0  0  0  0  0  0  0  0  0  0  0
  152.1955  138.8942  155.5109 C   0  0  0  0  0  0  0  0  0  0  0  0
  152.0975  138.9035  156.9218 C   0  0  0  0  0  0  0  0  0  0  0  0
  152.8124  139.7802  157.7496 N   0  0  0  0  0  0  0  0  0  0  0  0
  152.0910  140.9759  158.1526 C   0  0  0  0  0  0  0  0  0  0  0  0
  152.8720  141.5438  159.3403 C   0  0  0  0  0  0  0  0  0  0  0  0
  153.6699  140.3559  159.8913 C   0  0  0  0  0  0  0  0  0  0  0  0
  153.3127  139.1818  158.9757 C   0  0  0  0  0  0  0  0  0  0  0  0
  151.2711  138.0242  157.5284 N   0  3  0  0  0  0  0  0  0  0  0  0
  150.5183  137.1256  156.8574 C   0  0  0  0  0  0  0  0  0  0  0  0
  146.3247  132.2430  155.1653 H   0  0  0  0  0  0  0  0  0  0  0  0
  146.1947  133.9822  154.9409 H   0  0  0  0  0  0  0  0  0  0  0  0
  147.3641  133.3257  156.0807 H   0  0  0  0  0  0  0  0  0  0  0  0
  149.4534  132.0832  155.2188 H   0  0  0  0  0  0  0  0  0  0  0  0
  149.6641  131.8050  153.4942 H   0  0  0  0  0  0  0  0  0  0  0  0
  148.3789  130.9877  154.3608 H   0  0  0  0  0  0  0  0  0  0  0  0
  146.6275  131.9857  152.6529 H   0  0  0  0  0  0  0  0  0  0  0  0
  147.9427  132.7786  151.8102 H   0  0  0  0  0  0  0  0  0  0  0  0
  146.5815  133.7253  152.3990 H   0  0  0  0  0  0  0  0  0  0  0  0
  148.6779  134.8778  153.1218 H   0  0  0  0  0  0  0  0  0  0  0  0
  149.6107  136.4573  153.7183 H   0  0  0  0  0  0  0  0  0  0  0  0
  151.4999  137.9558  153.6929 H   0  0  0  0  0  0  0  0  0  0  0  0
  152.8475  139.5840  154.9956 H   0  0  0  0  0  0  0  0  0  0  0  0
  152.0321  141.6928  157.3331 H   0  0  0  0  0  0  0  0  0  0  0  0
  151.0730  140.7296  158.4572 H   0  0  0  0  0  0  0  0  0  0  0  0
  153.5553  142.3253  159.0059 H   0  0  0  0  0  0  0  0  0  0  0  0
  152.2078  141.9814  160.0863 H   0  0  0  0  0  0  0  0  0  0  0  0
  154.7383  140.5686  159.8376 H   0  0  0  0  0  0  0  0  0  0  0  0
  153.4265  140.1397  160.9320 H   0  0  0  0  0  0  0  0  0  0  0  0
  152.5450  138.5623  159.4414 H   0  0  0  0  0  0  0  0  0  0  0  0
  154.1795  138.5504  158.7777 H   0  0  0  0  0  0  0  0  0  0  0  0
  149.9211  136.4790  157.4822 H   0  0  0  0  0  0  0  0  0  0  0  0
  151.2137  138.0373  158.5471 H   0  0  0  0  0  0  0  0  0  0  0  0
  1  2  1  0  0  0  0
  1 20  1  0  0  0  0
  1 21  1  0  0  0  0
  1 22  1  0  0  0  0
  2  3  1  0  0  0  0
  2  4  1  0  0  0  0
  2  5  1  0  0  0  0
  3 23  1  0  0  0  0
  3 24  1  0  0  0  0
  3 25  1  0  0  0  0
  4 26  1  0  0  0  0
  4 27  1  0  0  0  0
  4 28  1  0  0  0  0
  5  6  1  0  0  0  0
  5 29  1  0  0  0  0
  6  7  2  0  0  0  0
  6  8  1  0  0  0  0
  8  9  1  0  0  0  0
  8 30  1  0  0  0  0
  9 19  1  0  0  0  0
  9 10  2  0  0  0  0
 10 11  1  0  0  0  0
 10 31  1  0  0  0  0
 11 12  2  0  0  0  0
 11 32  1  0  0  0  0
 12 13  1  0  0  0  0
 12 18  1  0  0  0  0
 13 17  1  0  0  0  0
 13 14  1  0  0  0  0
 14 15  1  0  0  0  0
 14 33  1  0  0  0  0
 14 34  1  0  0  0  0
 15 16  1  0  0  0  0
 15 35  1  0  0  0  0
 15 36  1  0  0  0  0
 16 17  1  0  0  0  0
 16 37  1  0  0  0  0
 16 38  1  0  0  0  0
 17 39  1  0  0  0  0
 17 40  1  0  0  0  0
 18 19  2  0  0  0  0
 18 42  1  0  0  0  0
 19 41  1  0  0  0  0
M  CHG  1  18   1
M  END
> <s_m_source_file>
AV-unprocessed.smi

> <i_m_source_file_index>
2726

> <i_lp_mmshare_version>
43012

> <i_f3d_flags>
0

> <s_epik_input>
W0NIM11DKFtDSDNdKShbQ0gzXSlbTkhdQyg9TylbTkhdYzFbY0hdW2NIXWMobltjSF0xKU4yW0NIMl1bQ0gyXVtDSDJdW0NIMl0y

> <s_epik_cmdline>
J2VwaWtfcHl0aG9uJywgJy1waCcsICc3LjAnLCAnLXRuJywgJzgnLCAnLW1hJywgJzIwMCcsICctbWV0YWxfYmluZGluZycsICctaW1hZScsICc8aW5maWxlLm1hZT4nLCAnLW9tYWUnLCAnPG91dGZpbGUubWFlPic=

> <r_lp_tautomer_probability>
0.999994

> <r_epik_Ionization_Penalty>
1.07826

> <r_epik_Ionization_Penalty_Charging>
1.07824

> <r_epik_Ionization_Penalty_Neutral>
2.30307e-05

> <r_epik_State_Penalty>
1.13344

> <r_epik_Charging_Adjusted_Penalty>
2.21168

> <i_epik_Tot_Q>
1

> <i_epik_Tot_abs_Q>
1

> <r_epik_Metal_State_Penalty>
1.22394

> <b_epik_Metal_Only>
0

> <s_lp_Force_Field>
OPLS_2005

> <r_lp_Energy>
40.4449

> <b_lp_Chiralities_Consistent>
1

> <s_lp_Variant>
AV-unprocessed.smi:2726-2

> <Gold.Version>
5.8.1

> <Gold.Id.Protein>
6NUR|6NUR_protein|mol2

> <Gold.PLP.Fitness>
37.4083

> <Gold.PLP.PLP>
-29.9597

> <Gold.PLP.part.hbond>
-3.0073

> <Gold.PLP.part.metal>
0.0000

> <Gold.PLP.part.buried>
-4.0131

> <Gold.PLP.part.nonpolar>
-24.1812

> <Gold.PLP.part.repulsive>
0.1105

> <Gold.PLP.ligand.clash>
0.0000

> <Gold.PLP.ligand.torsion>
0.7845

> <Gold.PLP.Chemscore.Hbond>
3.0000

> <Gold.PLP.Chemscore.CHOScore>
0.0000

> <Gold.PLP.Chemscore.Metal>
0.0000

> <Gold.Chemscore.Hbonds>
donor molecule, donor type, donor heavy atom, donor atom, acceptor molecule, acceptor atom, score
      L1  H     5    29       P1  7948  1.00
      L1  H     8    30       P1  7948  1.00
      P1  H  7997  8009       L1    13  1.00

> <Gold.PLP.Chemscore.Internal.Correction>
0.0175

> <Gold.Rescore>
     Score         DG    S(hbond)    S(metal)    S(lipo)     H(rot)  DE(clash)    DE(int)     intcor
     13.21     -16.75       1.96        0.00      66.21       1.18       0.00       3.54       ----

> <Gold.Chemscore.Fitness>
13.2095

> <Gold.Chemscore.DG>
-16.7508

> <Gold.Chemscore.ZeroCoef>
-5.4800

> <Gold.Chemscore.Hbond>
1.9618

> <Gold.Chemscore.Metal>
0.0000

> <Gold.Chemscore.Lipo>
66.2149

> <Gold.Chemscore.Internal_Hbond>
0.0000

> <Gold.Chemscore.DEClash>
0.0000

> <Gold.Chemscore.DEInternal>
3.5413

> <Gold.Chemscore.Rot>
1.1830

> <Gold.Chemscore.Internal.Correction>
   9.000000E+99

> <Gold.Chemscore.Hbonds>
donor molecule, donor type, donor heavy atom, donor atom, acceptor molecule, acceptor atom, score
      L1  H     5    29       P1  7948  0.40
      L1  H     8    30       P1  7948  0.59
      P1  H  7997  8009       L1    13  0.12

> <Gold.Chemscore.Hbond.Weighted>
-6.5522

> <Gold.Chemscore.Metal.Weighted>
-0.0000

> <Gold.Chemscore.Lipo.Weighted>
-7.7471

> <Gold.Chemscore.Internal_Hbond.Weighted>
0.0000

> <Gold.Chemscore.DEClash.Weighted>
0.0000

> <Gold.Chemscore.DEInternal.Weighted>
3.5413

> <Gold.Chemscore.Rot.Weighted>
3.0285

> <Gold.Chemscore.Internal.Correction.Weighted>
   9.000000E+99

> <Gold.Protein.RotatedTorsions>
[ 6907 6896 6895 6894 ] final -145.88 input  -60.11 | X-H torsion
[ 7974 7965 7964 7962 ] final  -14.72 input  175.53 | X-H torsion
[ 8008 7997 7996 7995 ] final -177.45 input   59.86 | X-H torsion
[ 10167 10162 10161 10158 ] final  164.01 input  -65.29 | X-H torsion
[ 10718 10713 10712 10709 ] final -146.90 input   66.30 | X-H torsion
[ 10763 10752 10751 10750 ] final -137.83 input  -60.55 | X-H torsion
[ 11005 11000 10999 10996 ] final  137.14 input  -57.11 | X-H torsion

> <Gold.Protein.ActiveResidues>
 VAL166  LYS551  ARG553  GLY616  TRP617  ASP618  TYR619  PRO620  LYS621  CYS622 
 ASP623  PHE694  ASN695  SER759  ASP760  ASP761  ALA762  ILE779  LEU786  VAL792 
 PHE793  MET794  SER795  GLU796  ALA797  LYS798  CYS799  TRP800  GLU811  SER814 

> <Gold.Protein.RotatedAtoms>
  151.1339  133.5017  159.2598 H   0  0  0  0  0  0  0  0  0  0  0  0  # atno 6907 bound_to 6896
  151.1727  135.0325  159.8768 H   0  0  0  0  0  0  0  0  0  0  0  0  # atno 6908 bound_to 6896
  152.5460  134.1201  159.8448 H   0  0  0  0  0  0  0  0  0  0  0  0  # atno 6909 bound_to 6896
  146.2062  140.3388  142.8406 H   0  0  0  0  0  0  0  0  0  0  0  0  # atno 7974 bound_to 7965
  156.0071  140.1233  157.0490 H   0  0  0  0  0  0  0  0  0  0  0  0  # atno 8008 bound_to 7997
  154.4262  140.1095  156.5847 H   0  0  0  0  0  0  0  0  0  0  0  0  # atno 8009 bound_to 7997
  155.6131  140.3471  155.4631 H   0  0  0  0  0  0  0  0  0  0  0  0  # atno 8010 bound_to 7997
  139.4882  144.4279  151.9107 H   0  0  0  0  0  0  0  0  0  0  0  0  # atno 10167 bound_to 10162
  156.4008  130.7932  151.2143 H   0  0  0  0  0  0  0  0  0  0  0  0  # atno 10718 bound_to 10713
  154.8652  135.3630  154.5286 H   0  0  0  0  0  0  0  0  0  0  0  0  # atno 10763 bound_to 10752
  153.5913  135.7015  153.5427 H   0  0  0  0  0  0  0  0  0  0  0  0  # atno 10764 bound_to 10752
  153.3371  135.4108  155.1504 H   0  0  0  0  0  0  0  0  0  0  0  0  # atno 10765 bound_to 10752
  140.0094  134.9445  157.0244 H   0  0  0  0  0  0  0  0  0  0  0  0  # atno 11005 bound_to 11000
  144.8800  140.7387  143.5993 LP  0  0  0  0  0  0  0  0  0  0  0  0  # atno 17320 bound_to 7965
  145.3309  139.1760  143.4537 LP  0  0  0  0  0  0  0  0  0  0  0  0  # atno 17321 bound_to 7965
  140.3725  144.2837  150.5918 LP  0  0  0  0  0  0  0  0  0  0  0  0  # atno 17342 bound_to 10162
  140.5306  143.2244  151.8245 LP  0  0  0  0  0  0  0  0  0  0  0  0  # atno 17343 bound_to 10162
  157.7504  131.0287  150.4062 LP  0  0  0  0  0  0  0  0  0  0  0  0  # atno 17370 bound_to 10713
  156.4341  130.3978  149.6740 LP  0  0  0  0  0  0  0  0  0  0  0  0  # atno 17371 bound_to 10713
  140.4582  134.1511  155.7188 LP  0  0  0  0  0  0  0  0  0  0  0  0  # atno 17394 bound_to 11000
  141.1700  133.8628  157.1600 LP  0  0  0  0  0  0  0  0  0  0  0  0  # atno 17395 bound_to 11000

$$$$
