AV-unprocessed.smi:657|AV-procd|sdf|3226|dock2
  -GOLD-   22720 0163D 1   1.00000     0.00000
 Structure written by MMmdl.
 46 47  0  0  0  0  0  0  0  0  3 V2000
  147.7854  139.9128  155.2349 C   0  0  0  0  0  0  0  0  0  0  0  0
  148.1888  139.0925  153.9941 C   0  0  0  0  0  0  0  0  0  0  0  0
  147.0527  139.0295  152.9587 C   0  0  0  0  0  0  0  0  0  0  0  0
  148.7096  137.7214  154.3203 N   0  3  2  0  0  0  0  0  0  0  0  0
  147.6358  136.7730  154.7407 C   0  0  0  0  0  0  0  0  0  0  0  0
  148.1543  135.3373  154.8862 C   0  0  0  0  0  0  0  0  0  0  0  0
  149.2859  135.2886  155.9123 C   0  0  0  0  0  0  0  0  0  0  0  0
  150.4036  136.2330  155.4667 C   0  0  0  0  0  0  0  0  0  0  0  0
  149.8978  137.6821  155.2431 C   0  0  1  0  0  0  0  0  0  0  0  0
  151.0884  138.5482  154.7765 C   0  0  0  0  0  0  0  0  0  0  0  0
  152.0383  137.9795  154.2296 O   0  0  0  0  0  0  0  0  0  0  0  0
  150.8976  139.8678  155.0641 N   0  5  0  0  0  0  0  0  0  0  0  0
  151.3174  140.4946  156.3139 C   0  0  0  0  0  0  0  0  0  0  0  0
  150.9069  141.9799  156.3128 C   0  0  0  0  0  0  0  0  0  0  0  0
  151.3322  142.7058  157.5656 C   0  0  0  0  0  0  0  0  0  0  0  0
  152.0869  142.1948  158.6621 C   0  0  0  0  0  0  0  0  0  0  0  0
  152.3007  143.0959  159.6070 N   0  0  0  0  0  0  0  0  0  0  0  0
  151.6982  144.2119  159.1485 N   0  0  0  0  0  0  0  0  0  0  0  0
  151.7341  145.4199  159.9445 C   0  0  0  0  0  0  0  0  0  0  0  0
  151.1108  144.0088  157.9186 C   0  0  0  0  0  0  0  0  0  0  0  0
  147.5384  140.9365  154.9522 H   0  0  0  0  0  0  0  0  0  0  0  0
  148.5953  139.9679  155.9621 H   0  0  0  0  0  0  0  0  0  0  0  0
  146.9086  139.4999  155.7339 H   0  0  0  0  0  0  0  0  0  0  0  0
  148.9689  139.6632  153.4943 H   0  0  0  0  0  0  0  0  0  0  0  0
  146.7972  140.0293  152.6065 H   0  0  0  0  0  0  0  0  0  0  0  0
  146.1418  138.5920  153.3659 H   0  0  0  0  0  0  0  0  0  0  0  0
  147.3492  138.4437  152.0879 H   0  0  0  0  0  0  0  0  0  0  0  0
  147.2121  137.0902  155.6940 H   0  0  0  0  0  0  0  0  0  0  0  0
  146.8215  136.7730  154.0180 H   0  0  0  0  0  0  0  0  0  0  0  0
  147.3425  134.6788  155.1968 H   0  0  0  0  0  0  0  0  0  0  0  0
  148.5054  134.9681  153.9217 H   0  0  0  0  0  0  0  0  0  0  0  0
  148.9165  135.5820  156.8958 H   0  0  0  0  0  0  0  0  0  0  0  0
  149.6668  134.2714  156.0081 H   0  0  0  0  0  0  0  0  0  0  0  0
  151.2009  136.2256  156.2115 H   0  0  0  0  0  0  0  0  0  0  0  0
  150.8432  135.8380  154.5492 H   0  0  0  0  0  0  0  0  0  0  0  0
  149.5687  138.0692  156.2086 H   0  0  0  0  0  0  0  0  0  0  0  0
  150.8690  140.0094  157.1823 H   0  0  0  0  0  0  0  0  0  0  0  0
  152.3966  140.4212  156.4521 H   0  0  0  0  0  0  0  0  0  0  0  0
  151.3326  142.4687  155.4354 H   0  0  0  0  0  0  0  0  0  0  0  0
  149.8253  142.0505  156.1889 H   0  0  0  0  0  0  0  0  0  0  0  0
  152.4807  141.1982  158.7976 H   0  0  0  0  0  0  0  0  0  0  0  0
  151.1739  146.2126  159.4479 H   0  0  0  0  0  0  0  0  0  0  0  0
  152.7667  145.7441  160.0764 H   0  0  0  0  0  0  0  0  0  0  0  0
  151.2895  145.2312  160.9221 H   0  0  0  0  0  0  0  0  0  0  0  0
  150.5854  144.7977  157.4006 H   0  0  0  0  0  0  0  0  0  0  0  0
  149.0733  137.3688  153.4460 H   0  0  0  0  0  0  0  0  0  0  0  0
  1  2  1  0  0  0  0
  1 21  1  0  0  0  0
  1 22  1  0  0  0  0
  1 23  1  0  0  0  0
  2  3  1  0  0  0  0
  2  4  1  0  0  0  0
  2 24  1  0  0  0  0
  3 25  1  0  0  0  0
  3 26  1  0  0  0  0
  3 27  1  0  0  0  0
  4  9  1  0  0  0  0
  4  5  1  0  0  0  0
  4 46  1  0  0  0  0
  5  6  1  0  0  0  0
  5 28  1  0  0  0  0
  5 29  1  0  0  0  0
  6  7  1  0  0  0  0
  6 30  1  0  0  0  0
  6 31  1  0  0  0  0
  7  8  1  0  0  0  0
  7 32  1  0  0  0  0
  7 33  1  0  0  0  0
  8  9  1  0  0  0  0
  8 34  1  0  0  0  0
  8 35  1  0  0  0  0
  9 10  1  0  0  0  0
  9 36  1  0  0  0  0
 10 11  2  0  0  0  0
 10 12  1  0  0  0  0
 12 13  1  0  0  0  0
 13 14  1  0  0  0  0
 13 37  1  0  0  0  0
 13 38  1  0  0  0  0
 14 15  1  0  0  0  0
 14 39  1  0  0  0  0
 14 40  1  0  0  0  0
 15 20  2  0  0  0  0
 15 16  1  0  0  0  0
 16 17  2  0  0  0  0
 16 41  1  0  0  0  0
 17 18  1  0  0  0  0
 18 19  1  0  0  0  0
 18 20  1  0  0  0  0
 19 42  1  0  0  0  0
 19 43  1  0  0  0  0
 19 44  1  0  0  0  0
 20 45  1  0  0  0  0
M  CHG  1   4   1
M  CHG  1  12  -1
M  END
> <s_m_source_file>
AV-unprocessed.smi

> <i_m_source_file_index>
657

> <i_lp_mmshare_version>
43012

> <i_f3d_flags>
0

> <s_epik_input>
W0NIM11bQ0hdKFtDSDNdKU4xW0NIMl1bQ0gyXVtDSDJdW0NIMl1bQ0BIXTFDKD1PKVtOSF1bQ0gyXVtDSDJdYzJbY0hdbm4oW0NIM10pW2NIXTI=

> <s_epik_cmdline>
J2VwaWtfcHl0aG9uJywgJy1waCcsICc3LjAnLCAnLXRuJywgJzgnLCAnLW1hJywgJzIwMCcsICctbWV0YWxfYmluZGluZycsICctaW1hZScsICc8aW5maWxlLm1hZT4nLCAnLW9tYWUnLCAnPG91dGZpbGUubWFlPic=

> <r_lp_tautomer_probability>
1

> <r_epik_Ionization_Penalty>
6.1622

> <r_epik_Ionization_Penalty_Charging>
6.16146

> <r_epik_Ionization_Penalty_Neutral>
0.00073675

> <r_epik_State_Penalty>
6.18018

> <r_epik_Charging_Adjusted_Penalty>
12.3416

> <i_epik_Tot_Q>
0

> <i_epik_Tot_abs_Q>
2

> <r_epik_Metal_State_Penalty>
2.12232

> <b_epik_Metal_Only>
1

> <s_lp_Force_Field>
OPLS_2005

> <r_lp_Energy>
11.2403

> <b_lp_Chiralities_Consistent>
1

> <s_lp_Variant>
AV-unprocessed.smi:657-7

> <Gold.Version>
5.8.1

> <Gold.Id.Protein>
6NUR|6NUR_protein|mol2

> <Gold.PLP.Fitness>
46.0120

> <Gold.PLP.PLP>
-36.4455

> <Gold.PLP.part.hbond>
-2.2310

> <Gold.PLP.part.metal>
0.0000

> <Gold.PLP.part.buried>
-4.8019

> <Gold.PLP.part.nonpolar>
-28.5050

> <Gold.PLP.part.repulsive>
0.1962

> <Gold.PLP.ligand.clash>
0.0000

> <Gold.PLP.ligand.torsion>
1.4288

> <Gold.PLP.Chemscore.Hbond>
3.0000

> <Gold.PLP.Chemscore.CHOScore>
1.0000

> <Gold.PLP.Chemscore.Metal>
0.0000

> <Gold.Chemscore.Hbonds>
donor molecule, donor type, donor heavy atom, donor atom, acceptor molecule, acceptor atom, score
      L1  H     4    46       P1  7948  2.00
      P1  H  7989  7998       L1    12  1.00
      L1  C    20    45       P1  8028  1.00

> <Gold.PLP.Chemscore.Internal.Correction>
0.4241

> <Gold.Rescore>
     Score         DG    S(hbond)    S(metal)    S(lipo)     H(rot)  DE(clash)    DE(int)     intcor
     14.26     -16.68       1.45        0.00      88.68       1.57       0.08       2.34       ----

> <Gold.Chemscore.Fitness>
14.2641

> <Gold.Chemscore.DG>
-16.6821

> <Gold.Chemscore.ZeroCoef>
-5.4800

> <Gold.Chemscore.Hbond>
1.4538

> <Gold.Chemscore.Metal>
0.0000

> <Gold.Chemscore.Lipo>
88.6835

> <Gold.Chemscore.Internal_Hbond>
0.0000

> <Gold.Chemscore.DEClash>
0.0755

> <Gold.Chemscore.DEInternal>
2.3425

> <Gold.Chemscore.Rot>
1.5741

> <Gold.Chemscore.Internal.Correction>
   9.000000E+99

> <Gold.Chemscore.Hbonds>
donor molecule, donor type, donor heavy atom, donor atom, acceptor molecule, acceptor atom, score
      L1  H     4    46       P1  7948  0.96
      P1  H  7989  7998       L1    12  0.39

> <Gold.Chemscore.Hbond.Weighted>
-4.8558

> <Gold.Chemscore.Metal.Weighted>
-0.0000

> <Gold.Chemscore.Lipo.Weighted>
-10.3760

> <Gold.Chemscore.Internal_Hbond.Weighted>
0.0000

> <Gold.Chemscore.DEClash.Weighted>
0.0755

> <Gold.Chemscore.DEInternal.Weighted>
2.3425

> <Gold.Chemscore.Rot.Weighted>
4.0297

> <Gold.Chemscore.Internal.Correction.Weighted>
   9.000000E+99

> <Gold.Protein.RotatedTorsions>
[ 6907 6896 6895 6894 ] final  132.74 input  -60.11 | X-H torsion
[ 7974 7965 7964 7962 ] final -110.69 input  175.53 | X-H torsion
[ 8008 7997 7996 7995 ] final -169.03 input   59.86 | X-H torsion
[ 10167 10162 10161 10158 ] final  -46.20 input  -65.29 | X-H torsion
[ 10718 10713 10712 10709 ] final  -16.91 input   66.30 | X-H torsion
[ 10763 10752 10751 10750 ] final  103.43 input  -60.55 | X-H torsion
[ 11005 11000 10999 10996 ] final -100.33 input  -57.11 | X-H torsion

> <Gold.Protein.ActiveResidues>
 VAL166  LYS551  ARG553  GLY616  TRP617  ASP618  TYR619  PRO620  LYS621  CYS622 
 ASP623  PHE694  ASN695  SER759  ASP760  ASP761  ALA762  ILE779  LEU786  VAL792 
 PHE793  MET794  SER795  GLU796  ALA797  LYS798  CYS799  TRP800  GLU811  SER814 

> <Gold.Protein.RotatedAtoms>
  152.3292  133.5940  159.5797 H   0  0  0  0  0  0  0  0  0  0  0  0  # atno 6907 bound_to 6896
  150.7414  133.9893  159.3610 H   0  0  0  0  0  0  0  0  0  0  0  0  # atno 6908 bound_to 6896
  151.7769  135.0772  160.0419 H   0  0  0  0  0  0  0  0  0  0  0  0  # atno 6909 bound_to 6896
  145.1652  140.8898  143.3567 H   0  0  0  0  0  0  0  0  0  0  0  0  # atno 7974 bound_to 7965
  155.8994  140.1038  157.1361 H   0  0  0  0  0  0  0  0  0  0  0  0  # atno 8008 bound_to 7997
  154.4024  140.1295  156.4481 H   0  0  0  0  0  0  0  0  0  0  0  0  # atno 8009 bound_to 7997
  155.7441  140.3466  155.5120 H   0  0  0  0  0  0  0  0  0  0  0  0  # atno 8010 bound_to 7997
  140.6827  143.2842  151.3748 H   0  0  0  0  0  0  0  0  0  0  0  0  # atno 10167 bound_to 10162
  156.5809  130.4774  149.6321 H   0  0  0  0  0  0  0  0  0  0  0  0  # atno 10718 bound_to 10713
  153.3525  135.3977  155.1657 H   0  0  0  0  0  0  0  0  0  0  0  0  # atno 10763 bound_to 10752
  154.8665  135.3660  154.5203 H   0  0  0  0  0  0  0  0  0  0  0  0  # atno 10764 bound_to 10752
  153.5656  135.7080  153.5587 H   0  0  0  0  0  0  0  0  0  0  0  0  # atno 10765 bound_to 10752
  141.1275  133.8391  157.1088 H   0  0  0  0  0  0  0  0  0  0  0  0  # atno 11005 bound_to 11000
  145.0289  139.3358  143.6034 LP  0  0  0  0  0  0  0  0  0  0  0  0  # atno 17320 bound_to 7965
  146.3477  139.9619  142.8716 LP  0  0  0  0  0  0  0  0  0  0  0  0  # atno 17321 bound_to 7965
  139.6162  144.0999  152.2347 LP  0  0  0  0  0  0  0  0  0  0  0  0  # atno 17342 bound_to 10162
  140.0429  144.5993  150.7397 LP  0  0  0  0  0  0  0  0  0  0  0  0  # atno 17343 bound_to 10162
  156.2632  130.6974  151.1749 LP  0  0  0  0  0  0  0  0  0  0  0  0  # atno 17370 bound_to 10713
  157.7327  131.0598  150.5617 LP  0  0  0  0  0  0  0  0  0  0  0  0  # atno 17371 bound_to 10713
  140.0288  134.9911  157.0738 LP  0  0  0  0  0  0  0  0  0  0  0  0  # atno 17394 bound_to 11000
  140.4319  134.1771  155.7168 LP  0  0  0  0  0  0  0  0  0  0  0  0  # atno 17395 bound_to 11000

$$$$
