AV-unprocessed.smi:1491|AV-procd|sdf|6035|dock1
  -GOLD-   22720 6143D 1   1.00000     0.00000
 Structure written by MMmdl.
 38 39  0  0  0  0  0  0  0  0  1 V2000
  145.6365  136.1228  154.6961 O   0  0  0  0  0  0  0  0  0  0  0  0
  146.4827  136.0700  153.8033 C   0  0  0  0  0  0  0  0  0  0  0  0
  146.6890  134.9984  153.0246 N   0  0  0  0  0  0  0  0  0  0  0  0
  145.9183  133.7592  153.0770 C   0  0  0  0  0  0  0  0  0  0  0  0
  144.7186  133.7896  152.1122 C   0  0  0  0  0  0  0  0  0  0  0  0
  144.9694  133.0569  150.8851 N   0  0  0  0  0  0  0  0  0  0  0  0
  146.1199  132.3559  150.5470 C   0  0  0  0  0  0  0  0  0  0  0  0
  145.9062  131.8315  149.2924 C   0  0  0  0  0  0  0  0  0  0  0  0
  144.6373  132.1905  148.8442 N   0  0  0  0  0  0  0  0  0  0  0  0
  144.1428  132.9144  149.8401 C   0  0  0  0  0  0  0  0  0  0  0  0
  147.3000  137.0818  153.4806 N   0  0  0  0  0  0  0  0  0  0  0  0
  147.3067  138.3951  154.1173 C   0  0  2  0  0  0  0  0  0  0  0  0
  146.8411  139.4605  153.1087 C   0  0  0  0  0  0  0  0  0  0  0  0
  146.8813  140.8717  153.7206 C   0  0  0  0  0  0  0  0  0  0  0  0
  148.2680  141.2198  154.2934 C   0  0  2  0  0  0  0  0  0  0  0  0
  149.1968  141.3913  153.2413 O   0  0  0  0  0  0  0  0  0  0  0  0
  148.7664  140.1361  155.2684 C   0  0  0  0  0  0  0  0  0  0  0  0
  148.7134  138.7267  154.6532 C   0  0  0  0  0  0  0  0  0  0  0  0
  147.4120  135.0544  152.3225 H   0  0  0  0  0  0  0  0  0  0  0  0
  146.5861  132.9459  152.7929 H   0  0  0  0  0  0  0  0  0  0  0  0
  145.5893  133.5383  154.0939 H   0  0  0  0  0  0  0  0  0  0  0  0
  143.8299  133.3794  152.5937 H   0  0  0  0  0  0  0  0  0  0  0  0
  144.4822  134.8209  151.8477 H   0  0  0  0  0  0  0  0  0  0  0  0
  146.9738  132.2958  151.2056 H   0  0  0  0  0  0  0  0  0  0  0  0
  146.5628  131.2284  148.6828 H   0  0  0  0  0  0  0  0  0  0  0  0
  143.1569  133.3545  149.8076 H   0  0  0  0  0  0  0  0  0  0  0  0
  147.9604  136.9388  152.7305 H   0  0  0  0  0  0  0  0  0  0  0  0
  146.6034  138.3943  154.9526 H   0  0  0  0  0  0  0  0  0  0  0  0
  147.4725  139.4313  152.2194 H   0  0  0  0  0  0  0  0  0  0  0  0
  145.8275  139.2382  152.7730 H   0  0  0  0  0  0  0  0  0  0  0  0
  146.5821  141.6116  152.9775 H   0  0  0  0  0  0  0  0  0  0  0  0
  146.1422  140.9295  154.5207 H   0  0  0  0  0  0  0  0  0  0  0  0
  148.2061  142.1726  154.8202 H   0  0  0  0  0  0  0  0  0  0  0  0
  149.0966  140.6758  152.6323 H   0  0  0  0  0  0  0  0  0  0  0  0
  149.7805  140.3620  155.6001 H   0  0  0  0  0  0  0  0  0  0  0  0
  148.1441  140.1524  156.1640 H   0  0  0  0  0  0  0  0  0  0  0  0
  149.0119  137.9920  155.4020 H   0  0  0  0  0  0  0  0  0  0  0  0
  149.4428  138.6547  153.8452 H   0  0  0  0  0  0  0  0  0  0  0  0
  1  2  2  0  0  0  0
  2  3  1  0  0  0  0
  2 11  1  0  0  0  0
  3  4  1  0  0  0  0
  3 19  1  0  0  0  0
  4  5  1  0  0  0  0
  4 20  1  0  0  0  0
  4 21  1  0  0  0  0
  5  6  1  0  0  0  0
  5 22  1  0  0  0  0
  5 23  1  0  0  0  0
  6 10  1  0  0  0  0
  6  7  1  0  0  0  0
  7  8  2  0  0  0  0
  7 24  1  0  0  0  0
  8  9  1  0  0  0  0
  8 25  1  0  0  0  0
  9 10  2  0  0  0  0
 10 26  1  0  0  0  0
 11 12  1  0  0  0  0
 11 27  1  0  0  0  0
 12 18  1  0  0  0  0
 12 13  1  0  0  0  0
 12 28  1  0  0  0  0
 13 14  1  0  0  0  0
 13 29  1  0  0  0  0
 13 30  1  0  0  0  0
 14 15  1  0  0  0  0
 14 31  1  0  0  0  0
 14 32  1  0  0  0  0
 15 16  1  0  0  0  0
 15 17  1  0  0  0  0
 15 33  1  0  0  0  0
 16 34  1  0  0  0  0
 17 18  1  0  0  0  0
 17 35  1  0  0  0  0
 17 36  1  0  0  0  0
 18 37  1  0  0  0  0
 18 38  1  0  0  0  0
M  END
> <s_m_source_file>
AV-unprocessed.smi

> <i_m_source_file_index>
1491

> <i_lp_mmshare_version>
43012

> <i_f3d_flags>
0

> <s_epik_input>
W0NIMl0xW0NIMl1bQ0BIXShbT0hdKVtDSDJdW0NIMl1bQ0BIXTFbTkhdQyg9TylbTkhdW0NIMl1bQ0gyXW4yW2NIXVtjSF1uW2NIXTI=

> <s_epik_cmdline>
J2VwaWtfcHl0aG9uJywgJy1waCcsICc3LjAnLCAnLXRuJywgJzgnLCAnLW1hJywgJzIwMCcsICctbWV0YWxfYmluZGluZycsICctaW1hZScsICc8aW5maWxlLm1hZT4nLCAnLW9tYWUnLCAnPG91dGZpbGUubWFlPic=

> <r_lp_tautomer_probability>
1

> <r_epik_Ionization_Penalty>
0.623245

> <r_epik_Ionization_Penalty_Charging>
0.623187

> <r_epik_Ionization_Penalty_Neutral>
5.75214e-05

> <r_epik_State_Penalty>
0.639392

> <r_epik_Charging_Adjusted_Penalty>
1.26258

> <i_epik_Tot_Q>
0

> <i_epik_Tot_abs_Q>
0

> <r_epik_Metal_State_Penalty>
0.307266

> <b_epik_Metal_Only>
0

> <s_lp_Force_Field>
OPLS_2005

> <r_lp_Energy>
9.71392

> <b_lp_Chiralities_Consistent>
1

> <s_lp_Variant>
AV-unprocessed.smi:1491-4

> <Gold.Version>
5.8.1

> <Gold.Id.Protein>
6NUR|6NUR_protein|mol2

> <Gold.PLP.Fitness>
45.4396

> <Gold.PLP.PLP>
-30.7580

> <Gold.PLP.part.hbond>
-5.3265

> <Gold.PLP.part.metal>
0.0000

> <Gold.PLP.part.buried>
-4.4945

> <Gold.PLP.part.nonpolar>
-21.7378

> <Gold.PLP.part.repulsive>
0.2556

> <Gold.PLP.ligand.clash>
0.0000

> <Gold.PLP.ligand.torsion>
0.5107

> <Gold.PLP.Chemscore.Hbond>
3.6388

> <Gold.PLP.Chemscore.CHOScore>
1.5785

> <Gold.PLP.Chemscore.Metal>
0.0000

> <Gold.Chemscore.Hbonds>
donor molecule, donor type, donor heavy atom, donor atom, acceptor molecule, acceptor atom, score
      L1  H     3    19       P1  7948  0.80
      L1  H    11    27       P1  7948  0.91
      L1  H    16    34       P1  7957  0.88
      P1  H  8011  8017       L1    16  0.91
      L1  C     7    24       P1 10747  0.51
      L1  C     8    25       P1 10747  0.07
      L1  C    10    26       P1 10186  1.00

> <Gold.PLP.Chemscore.Internal.Correction>
0.0512

> <Gold.Rescore>
     Score         DG    S(hbond)    S(metal)    S(lipo)     H(rot)  DE(clash)    DE(int)     intcor
     16.28     -16.93       3.25        0.00      61.32       2.57       0.12       0.53       ----

> <Gold.Chemscore.Fitness>
16.2819

> <Gold.Chemscore.DG>
-16.9301

> <Gold.Chemscore.ZeroCoef>
-5.4800

> <Gold.Chemscore.Hbond>
3.2529

> <Gold.Chemscore.Metal>
0.0000

> <Gold.Chemscore.Lipo>
61.3182

> <Gold.Chemscore.Internal_Hbond>
0.0000

> <Gold.Chemscore.DEClash>
0.1166

> <Gold.Chemscore.DEInternal>
0.5316

> <Gold.Chemscore.Rot>
2.5738

> <Gold.Chemscore.Internal.Correction>
   9.000000E+99

> <Gold.Chemscore.Hbonds>
donor molecule, donor type, donor heavy atom, donor atom, acceptor molecule, acceptor atom, score
      L1  H     3    19       P1  7948  0.78
      L1  H    11    27       P1  7948  0.87
      L1  H    16    34       P1  7957  0.86
      P1  H  8011  8017       L1    16  0.21

> <Gold.Chemscore.Hbond.Weighted>
-10.8648

> <Gold.Chemscore.Metal.Weighted>
-0.0000

> <Gold.Chemscore.Lipo.Weighted>
-7.1742

> <Gold.Chemscore.Internal_Hbond.Weighted>
0.0000

> <Gold.Chemscore.DEClash.Weighted>
0.1166

> <Gold.Chemscore.DEInternal.Weighted>
0.5316

> <Gold.Chemscore.Rot.Weighted>
6.5890

> <Gold.Chemscore.Internal.Correction.Weighted>
   9.000000E+99

> <Gold.Protein.RotatedTorsions>
[ 6907 6896 6895 6894 ] final  159.14 input  -60.11 | X-H torsion
[ 7974 7965 7964 7962 ] final  127.92 input  175.53 | X-H torsion
[ 8008 7997 7996 7995 ] final -114.61 input   59.86 | X-H torsion
[ 10167 10162 10161 10158 ] final  155.58 input  -65.29 | X-H torsion
[ 10718 10713 10712 10709 ] final -146.06 input   66.30 | X-H torsion
[ 10763 10752 10751 10750 ] final  152.75 input  -60.55 | X-H torsion
[ 11005 11000 10999 10996 ] final -101.38 input  -57.11 | X-H torsion

> <Gold.Protein.ActiveResidues>
 VAL166  LYS551  ARG553  GLY616  TRP617  ASP618  TYR619  PRO620  LYS621  CYS622 
 ASP623  PHE694  ASN695  SER759  ASP760  ASP761  ALA762  ILE779  LEU786  VAL792 
 PHE793  MET794  SER795  GLU796  ALA797  LYS798  CYS799  TRP800  GLU811  SER814 

> <Gold.Protein.RotatedAtoms>
  151.9900  133.3787  159.4140 H   0  0  0  0  0  0  0  0  0  0  0  0  # atno 6907 bound_to 6896
  150.6923  134.3947  159.5101 H   0  0  0  0  0  0  0  0  0  0  0  0  # atno 6908 bound_to 6896
  152.1679  134.8858  160.0587 H   0  0  0  0  0  0  0  0  0  0  0  0  # atno 6909 bound_to 6896
  145.0452  139.3929  143.5082 H   0  0  0  0  0  0  0  0  0  0  0  0  # atno 7974 bound_to 7965
  155.0390  140.0392  157.2502 H   0  0  0  0  0  0  0  0  0  0  0  0  # atno 8008 bound_to 7997
  154.7232  140.2716  155.6498 H   0  0  0  0  0  0  0  0  0  0  0  0  # atno 8009 bound_to 7997
  156.2822  140.2698  156.1910 H   0  0  0  0  0  0  0  0  0  0  0  0  # atno 8010 bound_to 7997
  139.4821  144.5085  151.8060 H   0  0  0  0  0  0  0  0  0  0  0  0  # atno 10167 bound_to 10162
  156.3902  130.7882  151.2083 H   0  0  0  0  0  0  0  0  0  0  0  0  # atno 10718 bound_to 10713
  154.1251  135.2830  155.3199 H   0  0  0  0  0  0  0  0  0  0  0  0  # atno 10763 bound_to 10752
  154.6395  135.5407  153.7776 H   0  0  0  0  0  0  0  0  0  0  0  0  # atno 10764 bound_to 10752
  153.0300  135.6483  154.1404 H   0  0  0  0  0  0  0  0  0  0  0  0  # atno 10765 bound_to 10752
  141.1233  133.8473  157.1224 H   0  0  0  0  0  0  0  0  0  0  0  0  # atno 11005 bound_to 11000
  146.3513  140.0074  142.8670 LP  0  0  0  0  0  0  0  0  0  0  0  0  # atno 17320 bound_to 7965
  145.1597  140.9666  143.4384 LP  0  0  0  0  0  0  0  0  0  0  0  0  # atno 17321 bound_to 7965
  140.4586  144.1754  150.5904 LP  0  0  0  0  0  0  0  0  0  0  0  0  # atno 17342 bound_to 10162
  140.4509  143.2487  151.9349 LP  0  0  0  0  0  0  0  0  0  0  0  0  # atno 17343 bound_to 10162
  157.7498  131.0318  150.4197 LP  0  0  0  0  0  0  0  0  0  0  0  0  # atno 17370 bound_to 10713
  156.4457  130.4001  149.6668 LP  0  0  0  0  0  0  0  0  0  0  0  0  # atno 17371 bound_to 10713
  140.0209  134.9946  157.0589 LP  0  0  0  0  0  0  0  0  0  0  0  0  # atno 17394 bound_to 11000
  140.4442  134.1649  155.7176 LP  0  0  0  0  0  0  0  0  0  0  0  0  # atno 17395 bound_to 11000

$$$$
