AV-unprocessed.smi:1619|AV-procd|sdf|6487|dock4
  -GOLD-   22720 7153D 1   1.00000     0.00000
 Structure written by MMmdl.
 44 46  0  0  0  0  0  0  0  0  2 V2000
  152.4497  142.6211  161.9269 C   0  0  0  0  0  0  0  0  0  0  0  0
  152.0062  142.3244  160.5053 C   0  0  0  0  0  0  0  0  0  0  0  0
  152.2843  141.0551  159.9496 C   0  0  0  0  0  0  0  0  0  0  0  0
  151.8887  140.7389  158.6317 C   0  0  0  0  0  0  0  0  0  0  0  0
  152.0531  139.5771  157.8969 N   0  0  0  0  0  0  0  0  0  0  0  0
  151.4719  139.9030  156.7460 C   0  0  0  0  0  0  0  0  0  0  0  0
  150.9463  141.1397  156.6492 N   0  0  0  0  0  0  0  0  0  0  0  0
  150.2663  141.7211  155.5059 C   0  0  0  0  0  0  0  0  0  0  0  0
  149.5851  140.6560  154.6256 C   0  0  2  0  0  0  0  0  0  0  0  0
  150.5639  140.0016  153.8407 O   0  0  0  0  0  0  0  0  0  0  0  0
  148.5247  141.2717  153.6930 C   0  0  0  0  0  0  0  0  0  0  0  0
  147.5231  142.0747  154.4346 N   0  3  0  0  0  0  0  0  0  0  0  0
  146.3741  142.5596  153.6309 C   0  0  0  0  0  0  0  0  0  0  0  0
  145.1151  142.3598  154.4856 C   0  0  0  0  0  0  0  0  0  0  0  0
  145.6418  142.0957  155.8926 C   0  0  0  0  0  0  0  0  0  0  0  0
  146.9755  141.4042  155.6305 C   0  0  0  0  0  0  0  0  0  0  0  0
  151.2023  141.7360  157.8788 C   0  0  0  0  0  0  0  0  0  0  0  0
  150.9216  143.0032  158.4193 C   0  0  0  0  0  0  0  0  0  0  0  0
  151.3233  143.3022  159.7381 C   0  0  0  0  0  0  0  0  0  0  0  0
  151.0146  144.6729  160.3139 C   0  0  0  0  0  0  0  0  0  0  0  0
  152.9308  141.7554  162.3831 H   0  0  0  0  0  0  0  0  0  0  0  0
  151.5945  142.8923  162.5464 H   0  0  0  0  0  0  0  0  0  0  0  0
  153.1631  143.4455  161.9391 H   0  0  0  0  0  0  0  0  0  0  0  0
  152.8056  140.3108  160.5335 H   0  0  0  0  0  0  0  0  0  0  0  0
  151.4226  139.2006  155.9267 H   0  0  0  0  0  0  0  0  0  0  0  0
  149.5265  142.4298  155.8803 H   0  0  0  0  0  0  0  0  0  0  0  0
  150.9858  142.2997  154.9242 H   0  0  0  0  0  0  0  0  0  0  0  0
  149.1194  139.9132  155.2741 H   0  0  0  0  0  0  0  0  0  0  0  0
  150.2210  139.8769  152.9687 H   0  0  0  0  0  0  0  0  0  0  0  0
  149.0004  141.9054  152.9425 H   0  0  0  0  0  0  0  0  0  0  0  0
  148.0151  140.4758  153.1470 H   0  0  0  0  0  0  0  0  0  0  0  0
  146.5293  143.6138  153.3994 H   0  0  0  0  0  0  0  0  0  0  0  0
  146.2787  142.0245  152.6847 H   0  0  0  0  0  0  0  0  0  0  0  0
  144.4388  143.2143  154.4446 H   0  0  0  0  0  0  0  0  0  0  0  0
  144.5668  141.4857  154.1314 H   0  0  0  0  0  0  0  0  0  0  0  0
  145.8076  143.0408  156.4116 H   0  0  0  0  0  0  0  0  0  0  0  0
  144.9615  141.4936  156.4953 H   0  0  0  0  0  0  0  0  0  0  0  0
  146.8040  140.3479  155.4155 H   0  0  0  0  0  0  0  0  0  0  0  0
  147.6579  141.4709  156.4787 H   0  0  0  0  0  0  0  0  0  0  0  0
  150.4010  143.7384  157.8238 H   0  0  0  0  0  0  0  0  0  0  0  0
  150.5021  145.3039  159.5872 H   0  0  0  0  0  0  0  0  0  0  0  0
  151.9339  145.1801  160.6073 H   0  0  0  0  0  0  0  0  0  0  0  0
  150.3728  144.5832  161.1907 H   0  0  0  0  0  0  0  0  0  0  0  0
  147.9979  142.9001  154.7728 H   0  0  0  0  0  0  0  0  0  0  0  0
  1  2  1  0  0  0  0
  1 21  1  0  0  0  0
  1 22  1  0  0  0  0
  1 23  1  0  0  0  0
  2 19  1  0  0  0  0
  2  3  2  0  0  0  0
  3  4  1  0  0  0  0
  3 24  1  0  0  0  0
  4 17  2  0  0  0  0
  4  5  1  0  0  0  0
  5  6  2  0  0  0  0
  6  7  1  0  0  0  0
  6 25  1  0  0  0  0
  7  8  1  0  0  0  0
  7 17  1  0  0  0  0
  8  9  1  0  0  0  0
  8 26  1  0  0  0  0
  8 27  1  0  0  0  0
  9 10  1  0  0  0  0
  9 11  1  0  0  0  0
  9 28  1  0  0  0  0
 10 29  1  0  0  0  0
 11 12  1  0  0  0  0
 11 30  1  0  0  0  0
 11 31  1  0  0  0  0
 12 16  1  0  0  0  0
 12 13  1  0  0  0  0
 12 44  1  0  0  0  0
 13 14  1  0  0  0  0
 13 32  1  0  0  0  0
 13 33  1  0  0  0  0
 14 15  1  0  0  0  0
 14 34  1  0  0  0  0
 14 35  1  0  0  0  0
 15 16  1  0  0  0  0
 15 36  1  0  0  0  0
 15 37  1  0  0  0  0
 16 38  1  0  0  0  0
 16 39  1  0  0  0  0
 17 18  1  0  0  0  0
 18 19  2  0  0  0  0
 18 40  1  0  0  0  0
 19 20  1  0  0  0  0
 20 41  1  0  0  0  0
 20 42  1  0  0  0  0
 20 43  1  0  0  0  0
M  CHG  1  12   1
M  END
> <s_m_source_file>
AV-unprocessed.smi

> <i_m_source_file_index>
1619

> <i_lp_mmshare_version>
43012

> <i_f3d_flags>
0

> <s_epik_input>
W0NIM11jKFtjSF0xKWMoW0NIM10pW2NIXWMoYzEyKW4oW2NIXW4yKVtDSDJdW0NASF0oW09IXSlbQ0gyXU4zW0NIMl1bQ0gyXVtDSDJdW0NIMl0z

> <s_epik_cmdline>
J2VwaWtfcHl0aG9uJywgJy1waCcsICc3LjAnLCAnLXRuJywgJzgnLCAnLW1hJywgJzIwMCcsICctbWV0YWxfYmluZGluZycsICctaW1hZScsICc8aW5maWxlLm1hZT4nLCAnLW9tYWUnLCAnPG91dGZpbGUubWFlPic=

> <r_epik_Ionization_Penalty>
0.0947557

> <r_epik_Ionization_Penalty_Charging>
0.00674132

> <r_epik_Ionization_Penalty_Neutral>
0.0880144

> <r_epik_State_Penalty>
0.0806172

> <r_epik_Charging_Adjusted_Penalty>
0.0873585

> <i_epik_Tot_Q>
1

> <i_epik_Tot_abs_Q>
1

> <r_epik_Metal_State_Penalty>
8.03852e-05

> <b_epik_Metal_Only>
0

> <s_lp_Force_Field>
OPLS_2005

> <r_lp_Energy>
32.0343

> <b_lp_Chiralities_Consistent>
1

> <s_lp_Variant>
AV-unprocessed.smi:1619-1

> <Gold.Version>
5.8.1

> <Gold.Id.Protein>
6NUR|6NUR_protein|mol2

> <Gold.PLP.Fitness>
59.1209

> <Gold.PLP.PLP>
-48.2193

> <Gold.PLP.part.hbond>
-3.0000

> <Gold.PLP.part.metal>
0.0000

> <Gold.PLP.part.buried>
-5.2215

> <Gold.PLP.part.nonpolar>
-38.7263

> <Gold.PLP.part.repulsive>
0.1488

> <Gold.PLP.ligand.clash>
0.0000

> <Gold.PLP.ligand.torsion>
0.5806

> <Gold.PLP.Chemscore.Hbond>
3.9840

> <Gold.PLP.Chemscore.CHOScore>
0.0000

> <Gold.PLP.Chemscore.Metal>
0.0000

> <Gold.Chemscore.Hbonds>
donor molecule, donor type, donor heavy atom, donor atom, acceptor molecule, acceptor atom, score
      L1  H    10    29       P1  7957  1.00
      L1  H    12    44       P1  8028  1.27
      P1  H  7989  7998       L1    10  0.56

> <Gold.PLP.Chemscore.Internal.Correction>
0.1108

> <Gold.Rescore>
     Score         DG    S(hbond)    S(metal)    S(lipo)     H(rot)  DE(clash)    DE(int)     intcor
     19.58     -20.32       1.90        0.00     116.95       2.02       0.03       0.71       ----

> <Gold.Chemscore.Fitness>
19.5785

> <Gold.Chemscore.DG>
-20.3167

> <Gold.Chemscore.ZeroCoef>
-5.4800

> <Gold.Chemscore.Hbond>
1.8958

> <Gold.Chemscore.Metal>
0.0000

> <Gold.Chemscore.Lipo>
116.9452

> <Gold.Chemscore.Internal_Hbond>
0.0000

> <Gold.Chemscore.DEClash>
0.0267

> <Gold.Chemscore.DEInternal>
0.7115

> <Gold.Chemscore.Rot>
2.0227

> <Gold.Chemscore.Internal.Correction>
   9.000000E+99

> <Gold.Chemscore.Hbonds>
donor molecule, donor type, donor heavy atom, donor atom, acceptor molecule, acceptor atom, score
      L1  H    10    29       P1  7957  0.99
      L1  H    12    44       P1  8028  0.59
      P1  H  7989  7998       L1    10  0.06

> <Gold.Chemscore.Hbond.Weighted>
-6.3321

> <Gold.Chemscore.Metal.Weighted>
-0.0000

> <Gold.Chemscore.Lipo.Weighted>
-13.6826

> <Gold.Chemscore.Internal_Hbond.Weighted>
0.0000

> <Gold.Chemscore.DEClash.Weighted>
0.0267

> <Gold.Chemscore.DEInternal.Weighted>
0.7115

> <Gold.Chemscore.Rot.Weighted>
5.1780

> <Gold.Chemscore.Internal.Correction.Weighted>
   9.000000E+99

> <Gold.Protein.RotatedTorsions>
[ 6907 6896 6895 6894 ] final   84.93 input  -60.11 | X-H torsion
[ 7974 7965 7964 7962 ] final   96.06 input  175.53 | X-H torsion
[ 8008 7997 7996 7995 ] final -129.83 input   59.86 | X-H torsion
[ 10167 10162 10161 10158 ] final  -79.94 input  -65.29 | X-H torsion
[ 10718 10713 10712 10709 ] final -155.96 input   66.30 | X-H torsion
[ 10763 10752 10751 10750 ] final   78.30 input  -60.55 | X-H torsion
[ 11005 11000 10999 10996 ] final -139.31 input  -57.11 | X-H torsion

> <Gold.Protein.ActiveResidues>
 VAL166  LYS551  ARG553  GLY616  TRP617  ASP618  TYR619  PRO620  LYS621  CYS622 
 ASP623  PHE694  ASN695  SER759  ASP760  ASP761  ALA762  ILE779  LEU786  VAL792 
 PHE793  MET794  SER795  GLU796  ALA797  LYS798  CYS799  TRP800  GLU811  SER814 

> <Gold.Protein.RotatedAtoms>
  152.5363  134.2665  159.8954 H   0  0  0  0  0  0  0  0  0  0  0  0  # atno 6907 bound_to 6896
  151.2623  133.4289  159.2624 H   0  0  0  0  0  0  0  0  0  0  0  0  # atno 6908 bound_to 6896
  151.0442  134.9643  159.8234 H   0  0  0  0  0  0  0  0  0  0  0  0  # atno 6909 bound_to 6896
  145.4439  139.2299  143.3077 H   0  0  0  0  0  0  0  0  0  0  0  0  # atno 7974 bound_to 7965
  155.2857  140.0446  157.3019 H   0  0  0  0  0  0  0  0  0  0  0  0  # atno 8008 bound_to 7997
  154.5570  140.2335  155.8362 H   0  0  0  0  0  0  0  0  0  0  0  0  # atno 8009 bound_to 7997
  156.2016  140.3024  155.9545 H   0  0  0  0  0  0  0  0  0  0  0  0  # atno 8010 bound_to 7997
  140.4548  143.2471  151.8435 H   0  0  0  0  0  0  0  0  0  0  0  0  # atno 10167 bound_to 10162
  156.5200  130.8473  151.2678 H   0  0  0  0  0  0  0  0  0  0  0  0  # atno 10718 bound_to 10713
  153.0863  135.4882  154.8604 H   0  0  0  0  0  0  0  0  0  0  0  0  # atno 10763 bound_to 10752
  154.7215  135.3040  154.9042 H   0  0  0  0  0  0  0  0  0  0  0  0  # atno 10764 bound_to 10752
  153.9705  135.6801  153.4800 H   0  0  0  0  0  0  0  0  0  0  0  0  # atno 10765 bound_to 10752
  140.8532  134.2260  157.4749 H   0  0  0  0  0  0  0  0  0  0  0  0  # atno 11005 bound_to 11000
  146.2541  140.5190  142.8881 LP  0  0  0  0  0  0  0  0  0  0  0  0  # atno 17320 bound_to 7965
  144.8104  140.6375  143.6419 LP  0  0  0  0  0  0  0  0  0  0  0  0  # atno 17321 bound_to 7965
  139.4800  144.5077  151.8975 LP  0  0  0  0  0  0  0  0  0  0  0  0  # atno 17342 bound_to 10162
  140.4164  144.2301  150.5887 LP  0  0  0  0  0  0  0  0  0  0  0  0  # atno 17343 bound_to 10162
  157.7438  130.9921  150.2623 LP  0  0  0  0  0  0  0  0  0  0  0  0  # atno 17370 bound_to 10713
  156.3159  130.3778  149.7619 LP  0  0  0  0  0  0  0  0  0  0  0  0  # atno 17371 bound_to 10713
  139.8704  134.9693  156.4663 LP  0  0  0  0  0  0  0  0  0  0  0  0  # atno 17394 bound_to 11000
  140.8767  133.7948  155.9422 LP  0  0  0  0  0  0  0  0  0  0  0  0  # atno 17395 bound_to 11000

$$$$
