AV-unprocessed.smi:2872|AV-procd|sdf|11034|dock4
  -GOLD-   2272015493D 1   1.00000     0.00000
 Structure written by MMmdl.
 39 41  0  0  0  0  0  0  0  0  1 V2000
  151.4891  136.9360  159.4645 O   0  0  0  0  0  0  0  0  0  0  0  0
  150.7721  137.5091  158.6459 C   0  0  0  0  0  0  0  0  0  0  0  0
  151.1450  138.5760  157.9245 N   0  0  0  0  0  0  0  0  0  0  0  0
  152.4490  139.2265  158.0011 C   0  0  0  0  0  0  0  0  0  0  0  0
  152.2826  140.5971  158.5906 C   0  0  0  0  0  0  0  0  0  0  0  0
  152.8403  140.9386  159.7528 N   0  0  0  0  0  0  0  0  0  0  0  0
  152.4458  142.2534  159.9058 C   0  0  0  0  0  0  0  0  0  0  0  0
  152.7145  143.1792  160.9391 C   0  0  0  0  0  0  0  0  0  0  0  0
  152.2005  144.4910  160.8734 C   0  0  0  0  0  0  0  0  0  0  0  0
  151.4126  144.8953  159.7763 C   0  0  0  0  0  0  0  0  0  0  0  0
  151.1316  143.9878  158.7369 C   0  0  0  0  0  0  0  0  0  0  0  0
  151.6459  142.6794  158.8078 C   0  0  0  0  0  0  0  0  0  0  0  0
  151.5615  141.5683  157.9755 N   0  0  0  0  0  0  0  0  0  0  0  0
  150.8510  141.4986  156.7086 C   0  0  0  0  0  0  0  0  0  0  0  0
  149.3356  141.6155  156.9084 C   0  0  0  0  0  0  0  0  0  0  0  0
  148.6951  141.4054  155.6582 O   0  0  0  0  0  0  0  0  0  0  0  0
  147.4787  142.0158  155.4392 C   0  0  0  0  0  0  0  0  0  0  0  0
  147.1386  142.3043  154.1011 C   0  0  0  0  0  0  0  0  0  0  0  0
  145.9164  142.9288  153.7859 C   0  0  0  0  0  0  0  0  0  0  0  0
  145.0169  143.2724  154.8118 C   0  0  0  0  0  0  0  0  0  0  0  0
  145.3419  142.9888  156.1511 C   0  0  0  0  0  0  0  0  0  0  0  0
  146.5646  142.3642  156.4663 C   0  0  0  0  0  0  0  0  0  0  0  0
  149.7386  137.2153  158.4058 H   0  0  0  0  0  0  0  0  0  0  0  0
  150.4751  138.9705  157.2804 H   0  0  0  0  0  0  0  0  0  0  0  0
  153.1450  138.6432  158.6067 H   0  0  0  0  0  0  0  0  0  0  0  0
  152.8836  139.2959  157.0040 H   0  0  0  0  0  0  0  0  0  0  0  0
  153.3179  142.8796  161.7832 H   0  0  0  0  0  0  0  0  0  0  0  0
  152.4128  145.1910  161.6683 H   0  0  0  0  0  0  0  0  0  0  0  0
  151.0239  145.9022  159.7331 H   0  0  0  0  0  0  0  0  0  0  0  0
  150.5294  144.2942  157.8947 H   0  0  0  0  0  0  0  0  0  0  0  0
  151.2128  142.2827  156.0437 H   0  0  0  0  0  0  0  0  0  0  0  0
  151.0936  140.5518  156.2251 H   0  0  0  0  0  0  0  0  0  0  0  0
  149.0020  140.8714  157.6335 H   0  0  0  0  0  0  0  0  0  0  0  0
  149.0888  142.6049  157.2966 H   0  0  0  0  0  0  0  0  0  0  0  0
  147.8233  142.0445  153.3071 H   0  0  0  0  0  0  0  0  0  0  0  0
  145.6693  143.1441  152.7568 H   0  0  0  0  0  0  0  0  0  0  0  0
  144.0794  143.7520  154.5719 H   0  0  0  0  0  0  0  0  0  0  0  0
  144.6517  143.2505  156.9396 H   0  0  0  0  0  0  0  0  0  0  0  0
  146.7771  142.1628  157.5051 H   0  0  0  0  0  0  0  0  0  0  0  0
  1  2  2  0  0  0  0
  2  3  1  0  0  0  0
  2 23  1  0  0  0  0
  3  4  1  0  0  0  0
  3 24  1  0  0  0  0
  4  5  1  0  0  0  0
  4 25  1  0  0  0  0
  4 26  1  0  0  0  0
  5 13  1  0  0  0  0
  5  6  2  0  0  0  0
  6  7  1  0  0  0  0
  7 12  2  0  0  0  0
  7  8  1  0  0  0  0
  8  9  2  0  0  0  0
  8 27  1  0  0  0  0
  9 10  1  0  0  0  0
  9 28  1  0  0  0  0
 10 11  2  0  0  0  0
 10 29  1  0  0  0  0
 11 12  1  0  0  0  0
 11 30  1  0  0  0  0
 12 13  1  0  0  0  0
 13 14  1  0  0  0  0
 14 15  1  0  0  0  0
 14 31  1  0  0  0  0
 14 32  1  0  0  0  0
 15 16  1  0  0  0  0
 15 33  1  0  0  0  0
 15 34  1  0  0  0  0
 16 17  1  0  0  0  0
 17 22  1  0  0  0  0
 17 18  2  0  0  0  0
 18 19  1  0  0  0  0
 18 35  1  0  0  0  0
 19 20  2  0  0  0  0
 19 36  1  0  0  0  0
 20 21  1  0  0  0  0
 20 37  1  0  0  0  0
 21 22  2  0  0  0  0
 21 38  1  0  0  0  0
 22 39  1  0  0  0  0
M  END
> <s_m_source_file>
AV-unprocessed.smi

> <i_m_source_file_index>
2872

> <i_lp_mmshare_version>
43012

> <i_f3d_flags>
0

> <s_epik_input>
Tz1bQ0hdW05IXVtDSDJdYyhuMSluKGMoYzEyKVtjSF1bY0hdW2NIXVtjSF0yKVtDSDJdW0NIMl1PYzNbY0hdW2NIXVtjSF1bY0hdW2NIXTM=

> <s_epik_cmdline>
J2VwaWtfcHl0aG9uJywgJy1waCcsICc3LjAnLCAnLXRuJywgJzgnLCAnLW1hJywgJzIwMCcsICctbWV0YWxfYmluZGluZycsICctaW1hZScsICc8aW5maWxlLm1hZT4nLCAnLW9tYWUnLCAnPG91dGZpbGUubWFlPic=

> <r_lp_tautomer_probability>
1

> <r_epik_Ionization_Penalty>
0.0659793

> <r_epik_Ionization_Penalty_Charging>
0

> <r_epik_Ionization_Penalty_Neutral>
0.0659793

> <r_epik_State_Penalty>
0.0575748

> <r_epik_Charging_Adjusted_Penalty>
0.0575748

> <i_epik_Tot_Q>
0

> <i_epik_Tot_abs_Q>
0

> <r_epik_Metal_State_Penalty>
0.0517641

> <b_epik_Metal_Only>
0

> <s_lp_Force_Field>
OPLS_2005

> <r_lp_Energy>
12.8976

> <b_lp_Chiralities_Consistent>
1

> <s_lp_Variant>
AV-unprocessed.smi:2872-1

> <Gold.Version>
5.8.1

> <Gold.Id.Protein>
6NUR|6NUR_protein|mol2

> <Gold.PLP.Fitness>
47.8476

> <Gold.PLP.PLP>
-46.0403

> <Gold.PLP.part.hbond>
-1.0000

> <Gold.PLP.part.metal>
0.0000

> <Gold.PLP.part.buried>
-7.0209

> <Gold.PLP.part.nonpolar>
-38.3405

> <Gold.PLP.part.repulsive>
0.1422

> <Gold.PLP.ligand.clash>
0.0000

> <Gold.PLP.ligand.torsion>
0.6301

> <Gold.PLP.Chemscore.Hbond>
1.0000

> <Gold.PLP.Chemscore.CHOScore>
0.0000

> <Gold.PLP.Chemscore.Metal>
0.0000

> <Gold.Chemscore.Hbonds>
donor molecule, donor type, donor heavy atom, donor atom, acceptor molecule, acceptor atom, score
      P1  H  6896  6908       L1     1  1.00

> <Gold.PLP.Chemscore.Internal.Correction>
0.0675

> <Gold.Rescore>
     Score         DG    S(hbond)    S(metal)    S(lipo)     H(rot)  DE(clash)    DE(int)     intcor
     15.37     -16.11       0.99        0.00     115.59       2.42       0.13       0.61       ----

> <Gold.Chemscore.Fitness>
15.3661

> <Gold.Chemscore.DG>
-16.1070

> <Gold.Chemscore.ZeroCoef>
-5.4800

> <Gold.Chemscore.Hbond>
0.9880

> <Gold.Chemscore.Metal>
0.0000

> <Gold.Chemscore.Lipo>
115.5861

> <Gold.Chemscore.Internal_Hbond>
0.0000

> <Gold.Chemscore.DEClash>
0.1263

> <Gold.Chemscore.DEInternal>
0.6146

> <Gold.Chemscore.Rot>
2.4205

> <Gold.Chemscore.Internal.Correction>
   9.000000E+99

> <Gold.Chemscore.Hbonds>
donor molecule, donor type, donor heavy atom, donor atom, acceptor molecule, acceptor atom, score
      P1  H  6896  6908       L1     1  0.98

> <Gold.Chemscore.Hbond.Weighted>
-3.2999

> <Gold.Chemscore.Metal.Weighted>
-0.0000

> <Gold.Chemscore.Lipo.Weighted>
-13.5236

> <Gold.Chemscore.Internal_Hbond.Weighted>
0.0000

> <Gold.Chemscore.DEClash.Weighted>
0.1263

> <Gold.Chemscore.DEInternal.Weighted>
0.6146

> <Gold.Chemscore.Rot.Weighted>
6.1965

> <Gold.Chemscore.Internal.Correction.Weighted>
   9.000000E+99

> <Gold.Protein.RotatedTorsions>
[ 6907 6896 6895 6894 ] final -139.25 input  -60.11 | X-H torsion
[ 7974 7965 7964 7962 ] final -137.26 input  175.53 | X-H torsion
[ 8008 7997 7996 7995 ] final  160.50 input   59.86 | X-H torsion
[ 10167 10162 10161 10158 ] final   46.42 input  -65.29 | X-H torsion
[ 10718 10713 10712 10709 ] final  -55.97 input   66.30 | X-H torsion
[ 10763 10752 10751 10750 ] final   22.76 input  -60.55 | X-H torsion
[ 11005 11000 10999 10996 ] final  122.09 input  -57.11 | X-H torsion

> <Gold.Protein.ActiveResidues>
 VAL166  LYS551  ARG553  GLY616  TRP617  ASP618  TYR619  PRO620  LYS621  CYS622 
 ASP623  PHE694  ASN695  SER759  ASP760  ASP761  ALA762  ILE779  LEU786  VAL792 
 PHE793  MET794  SER795  GLU796  ALA797  LYS798  CYS799  TRP800  GLU811  SER814 

> <Gold.Protein.RotatedAtoms>
  151.0454  133.5670  159.2646 H   0  0  0  0  0  0  0  0  0  0  0  0  # atno 6907 bound_to 6896
  151.2701  135.0681  159.9141 H   0  0  0  0  0  0  0  0  0  0  0  0  # atno 6908 bound_to 6896
  152.5372  134.0185  159.8025 H   0  0  0  0  0  0  0  0  0  0  0  0  # atno 6909 bound_to 6896
  144.8857  140.6571  143.5177 H   0  0  0  0  0  0  0  0  0  0  0  0  # atno 7974 bound_to 7965
  156.2168  140.1802  156.7570 H   0  0  0  0  0  0  0  0  0  0  0  0  # atno 8008 bound_to 7997
  154.5804  140.0667  156.9124 H   0  0  0  0  0  0  0  0  0  0  0  0  # atno 8009 bound_to 7997
  155.2513  140.3329  155.4284 H   0  0  0  0  0  0  0  0  0  0  0  0  # atno 8010 bound_to 7997
  140.3141  144.2785  150.6194 H   0  0  0  0  0  0  0  0  0  0  0  0  # atno 10167 bound_to 10162
  156.1326  130.4158  150.0242 H   0  0  0  0  0  0  0  0  0  0  0  0  # atno 10718 bound_to 10713
  153.0890  135.6641  153.9891 H   0  0  0  0  0  0  0  0  0  0  0  0  # atno 10763 bound_to 10752
  153.9493  135.2985  155.3440 H   0  0  0  0  0  0  0  0  0  0  0  0  # atno 10764 bound_to 10752
  154.7302  135.5126  153.9025 H   0  0  0  0  0  0  0  0  0  0  0  0  # atno 10765 bound_to 10752
  139.9253  134.9640  156.8056 H   0  0  0  0  0  0  0  0  0  0  0  0  # atno 11005 bound_to 11000
  145.3874  139.1624  143.4248 LP  0  0  0  0  0  0  0  0  0  0  0  0  # atno 17320 bound_to 7965
  146.3023  140.3960  142.8700 LP  0  0  0  0  0  0  0  0  0  0  0  0  # atno 17321 bound_to 7965
  140.5542  143.2201  151.7876 LP  0  0  0  0  0  0  0  0  0  0  0  0  # atno 17342 bound_to 10162
  139.4887  144.4436  151.9736 LP  0  0  0  0  0  0  0  0  0  0  0  0  # atno 17343 bound_to 10162
  156.8150  130.9338  151.3643 LP  0  0  0  0  0  0  0  0  0  0  0  0  # atno 17370 bound_to 10713
  157.6502  130.8878  149.9618 LP  0  0  0  0  0  0  0  0  0  0  0  0  # atno 17371 bound_to 10713
  140.6354  133.9867  155.7682 LP  0  0  0  0  0  0  0  0  0  0  0  0  # atno 17394 bound_to 11000
  141.0806  134.0068  157.3391 LP  0  0  0  0  0  0  0  0  0  0  0  0  # atno 17395 bound_to 11000

$$$$
