AV-unprocessed.smi:1506|AV-procd|sdf|6078|dock1
  -GOLD-   22720 6203D 1   1.00000     0.00000
 Structure written by MMmdl.
 40 42  0  0  0  0  0  0  0  0  2 V2000
  146.3885  142.4144  153.9397 C   0  0  0  0  0  0  0  0  0  0  0  0
  147.1713  141.1290  154.1120 C   0  0  0  0  0  0  0  0  0  0  0  0
  146.4999  139.8942  154.2076 C   0  0  0  0  0  0  0  0  0  0  0  0
  147.2356  138.7058  154.3683 C   0  0  0  0  0  0  0  0  0  0  0  0
  148.6417  138.7461  154.4357 C   0  0  0  0  0  0  0  0  0  0  0  0
  149.3289  139.9831  154.3441 C   0  0  0  0  0  0  0  0  0  0  0  0
  150.6999  140.1148  154.4038 O   0  0  0  0  0  0  0  0  0  0  0  0
  151.4752  138.9585  154.6915 C   0  0  0  0  0  0  0  0  0  0  0  0
  152.5367  139.3151  155.7427 C   0  0  2  0  0  0  0  0  0  0  0  0
  153.4290  138.2246  155.8615 O   0  0  0  0  0  0  0  0  0  0  0  0
  151.9131  139.6463  157.1138 C   0  0  0  0  0  0  0  0  0  0  0  0
  151.6022  141.0743  157.2732 N   0  0  0  0  0  0  0  0  0  0  0  0
  150.8152  141.8812  156.5110 C   0  0  0  0  0  0  0  0  0  0  0  0
  150.8361  143.1235  157.0692 N   0  3  0  0  0  0  0  0  0  0  0  0
  151.6504  143.1115  158.2036 C   0  0  0  0  0  0  0  0  0  0  0  0
  151.9816  144.1249  159.0979 C   0  0  0  0  0  0  0  0  0  0  0  0
  152.8481  143.7781  160.1553 C   0  0  0  0  0  0  0  0  0  0  0  0
  153.3501  142.4678  160.2937 C   0  0  0  0  0  0  0  0  0  0  0  0
  153.0060  141.4478  159.3823 C   0  0  0  0  0  0  0  0  0  0  0  0
  152.1480  141.7979  158.3401 C   0  0  0  0  0  0  0  0  0  0  0  0
  148.5789  141.1664  154.1816 C   0  0  0  0  0  0  0  0  0  0  0  0
  145.3556  142.2134  153.6534 H   0  0  0  0  0  0  0  0  0  0  0  0
  146.8392  143.0354  153.1651 H   0  0  0  0  0  0  0  0  0  0  0  0
  146.3814  142.9787  154.8724 H   0  0  0  0  0  0  0  0  0  0  0  0
  145.4215  139.8533  154.1582 H   0  0  0  0  0  0  0  0  0  0  0  0
  146.7203  137.7594  154.4403 H   0  0  0  0  0  0  0  0  0  0  0  0
  149.1692  137.8127  154.5586 H   0  0  0  0  0  0  0  0  0  0  0  0
  150.8441  138.1487  155.0617 H   0  0  0  0  0  0  0  0  0  0  0  0
  151.9625  138.6169  153.7764 H   0  0  0  0  0  0  0  0  0  0  0  0
  153.1142  140.1710  155.3907 H   0  0  0  0  0  0  0  0  0  0  0  0
  152.9311  137.4534  156.0867 H   0  0  0  0  0  0  0  0  0  0  0  0
  150.9762  139.1014  157.2360 H   0  0  0  0  0  0  0  0  0  0  0  0
  152.5589  139.3250  157.9313 H   0  0  0  0  0  0  0  0  0  0  0  0
  150.2706  141.5883  155.6249 H   0  0  0  0  0  0  0  0  0  0  0  0
  151.5995  145.1299  158.9937 H   0  0  0  0  0  0  0  0  0  0  0  0
  153.1350  144.5325  160.8735 H   0  0  0  0  0  0  0  0  0  0  0  0
  154.0143  142.2400  161.1148 H   0  0  0  0  0  0  0  0  0  0  0  0
  153.4018  140.4493  159.4946 H   0  0  0  0  0  0  0  0  0  0  0  0
  149.0923  142.1144  154.1098 H   0  0  0  0  0  0  0  0  0  0  0  0
  150.3304  143.9190  156.7011 H   0  0  0  0  0  0  0  0  0  0  0  0
  1  2  1  0  0  0  0
  1 22  1  0  0  0  0
  1 23  1  0  0  0  0
  1 24  1  0  0  0  0
  2 21  1  0  0  0  0
  2  3  2  0  0  0  0
  3  4  1  0  0  0  0
  3 25  1  0  0  0  0
  4  5  2  0  0  0  0
  4 26  1  0  0  0  0
  5  6  1  0  0  0  0
  5 27  1  0  0  0  0
  6  7  1  0  0  0  0
  6 21  2  0  0  0  0
  7  8  1  0  0  0  0
  8  9  1  0  0  0  0
  8 28  1  0  0  0  0
  8 29  1  0  0  0  0
  9 10  1  0  0  0  0
  9 11  1  0  0  0  0
  9 30  1  0  0  0  0
 10 31  1  0  0  0  0
 11 12  1  0  0  0  0
 11 32  1  0  0  0  0
 11 33  1  0  0  0  0
 12 20  1  0  0  0  0
 12 13  1  0  0  0  0
 13 14  2  0  0  0  0
 13 34  1  0  0  0  0
 14 15  1  0  0  0  0
 14 40  1  0  0  0  0
 15 20  2  0  0  0  0
 15 16  1  0  0  0  0
 16 17  2  0  0  0  0
 16 35  1  0  0  0  0
 17 18  1  0  0  0  0
 17 36  1  0  0  0  0
 18 19  2  0  0  0  0
 18 37  1  0  0  0  0
 19 20  1  0  0  0  0
 19 38  1  0  0  0  0
 21 39  1  0  0  0  0
M  CHG  1  14   1
M  END
> <s_m_source_file>
AV-unprocessed.smi

> <i_m_source_file_index>
1506

> <i_lp_mmshare_version>
43012

> <i_f3d_flags>
0

> <s_epik_input>
W0NIM11jMVtjSF1bY0hdW2NIXWMoW2NIXTEpT1tDSDJdW0NASF0oW09IXSlbQ0gyXW4oW2NIXW4yKWMoYzIzKVtjSF1bY0hdW2NIXVtjSF0z

> <s_epik_cmdline>
J2VwaWtfcHl0aG9uJywgJy1waCcsICc3LjAnLCAnLXRuJywgJzgnLCAnLW1hJywgJzIwMCcsICctbWV0YWxfYmluZGluZycsICctaW1hZScsICc8aW5maWxlLm1hZT4nLCAnLW9tYWUnLCAnPG91dGZpbGUubWFlPic=

> <r_lp_tautomer_probability>
1

> <r_epik_Ionization_Penalty>
1.37864

> <r_epik_Ionization_Penalty_Charging>
1.37864

> <r_epik_Ionization_Penalty_Neutral>
2.3993e-06

> <r_epik_State_Penalty>
1.45896

> <r_epik_Charging_Adjusted_Penalty>
2.8376

> <i_epik_Tot_Q>
1

> <i_epik_Tot_abs_Q>
1

> <r_epik_Metal_State_Penalty>
5.49899

> <b_epik_Metal_Only>
0

> <s_lp_Force_Field>
OPLS_2005

> <r_lp_Energy>
20.022

> <b_lp_Chiralities_Consistent>
1

> <s_lp_Variant>
AV-unprocessed.smi:1506-3

> <Gold.Version>
5.8.1

> <Gold.Id.Protein>
6NUR|6NUR_protein|mol2

> <Gold.PLP.Fitness>
56.4838

> <Gold.PLP.PLP>
-48.7646

> <Gold.PLP.part.hbond>
-2.9528

> <Gold.PLP.part.metal>
0.0000

> <Gold.PLP.part.buried>
-5.1951

> <Gold.PLP.part.nonpolar>
-41.2537

> <Gold.PLP.part.repulsive>
0.1233

> <Gold.PLP.ligand.clash>
0.0000

> <Gold.PLP.ligand.torsion>
0.7931

> <Gold.PLP.Chemscore.Hbond>
2.9913

> <Gold.PLP.Chemscore.CHOScore>
0.0000

> <Gold.PLP.Chemscore.Metal>
0.0000

> <Gold.Chemscore.Hbonds>
donor molecule, donor type, donor heavy atom, donor atom, acceptor molecule, acceptor atom, score
      L1  H    14    40       P1  8028  2.00
      P1  H  7989  7998       L1     7  0.93

> <Gold.PLP.Chemscore.Internal.Correction>
0.3317

> <Gold.Rescore>
     Score         DG    S(hbond)    S(metal)    S(lipo)     H(rot)  DE(clash)    DE(int)     intcor
     18.49     -20.85       1.92        0.00     126.45       2.27       0.14       2.23       ----

> <Gold.Chemscore.Fitness>
18.4920

> <Gold.Chemscore.DG>
-20.8542

> <Gold.Chemscore.ZeroCoef>
-5.4800

> <Gold.Chemscore.Hbond>
1.9153

> <Gold.Chemscore.Metal>
0.0000

> <Gold.Chemscore.Lipo>
126.4457

> <Gold.Chemscore.Internal_Hbond>
0.0000

> <Gold.Chemscore.DEClash>
0.1372

> <Gold.Chemscore.DEInternal>
2.2250

> <Gold.Chemscore.Rot>
2.2723

> <Gold.Chemscore.Internal.Correction>
   9.000000E+99

> <Gold.Chemscore.Hbonds>
donor molecule, donor type, donor heavy atom, donor atom, acceptor molecule, acceptor atom, score
      L1  H    14    40       P1  8028  0.97
      P1  H  7989  7998       L1     7  0.27

> <Gold.Chemscore.Hbond.Weighted>
-6.3971

> <Gold.Chemscore.Metal.Weighted>
-0.0000

> <Gold.Chemscore.Lipo.Weighted>
-14.7941

> <Gold.Chemscore.Internal_Hbond.Weighted>
0.0000

> <Gold.Chemscore.DEClash.Weighted>
0.1372

> <Gold.Chemscore.DEInternal.Weighted>
2.2250

> <Gold.Chemscore.Rot.Weighted>
5.8170

> <Gold.Chemscore.Internal.Correction.Weighted>
   9.000000E+99

> <Gold.Protein.RotatedTorsions>
[ 6907 6896 6895 6894 ] final  122.09 input  -60.11 | X-H torsion
[ 7974 7965 7964 7962 ] final  101.26 input  175.53 | X-H torsion
[ 8008 7997 7996 7995 ] final   26.81 input   59.86 | X-H torsion
[ 10167 10162 10161 10158 ] final -169.79 input  -65.29 | X-H torsion
[ 10718 10713 10712 10709 ] final  101.90 input   66.30 | X-H torsion
[ 10763 10752 10751 10750 ] final  -71.36 input  -60.55 | X-H torsion
[ 11005 11000 10999 10996 ] final -104.14 input  -57.11 | X-H torsion

> <Gold.Protein.ActiveResidues>
 VAL166  LYS551  ARG553  GLY616  TRP617  ASP618  TYR619  PRO620  LYS621  CYS622 
 ASP623  PHE694  ASN695  SER759  ASP760  ASP761  ALA762  ILE779  LEU786  VAL792 
 PHE793  MET794  SER795  GLU796  ALA797  LYS798  CYS799  TRP800  GLU811  SER814 

> <Gold.Protein.RotatedAtoms>
  152.4271  133.7213  159.6534 H   0  0  0  0  0  0  0  0  0  0  0  0  # atno 6907 bound_to 6896
  150.8148  133.8347  159.3171 H   0  0  0  0  0  0  0  0  0  0  0  0  # atno 6908 bound_to 6896
  151.6046  135.1047  160.0119 H   0  0  0  0  0  0  0  0  0  0  0  0  # atno 6909 bound_to 6896
  145.3747  139.2391  143.3436 H   0  0  0  0  0  0  0  0  0  0  0  0  # atno 7974 bound_to 7965
  155.0331  140.3161  155.4751 H   0  0  0  0  0  0  0  0  0  0  0  0  # atno 8008 bound_to 7997
  156.2870  140.2176  156.5395 H   0  0  0  0  0  0  0  0  0  0  0  0  # atno 8009 bound_to 7997
  154.7353  140.0478  157.0751 H   0  0  0  0  0  0  0  0  0  0  0  0  # atno 8010 bound_to 7997
  139.5901  144.1233  152.1623 H   0  0  0  0  0  0  0  0  0  0  0  0  # atno 10167 bound_to 10162
  157.6817  131.0739  150.5323 H   0  0  0  0  0  0  0  0  0  0  0  0  # atno 10718 bound_to 10713
  154.4307  135.5964  153.6067 H   0  0  0  0  0  0  0  0  0  0  0  0  # atno 10763 bound_to 10752
  152.9799  135.5974  154.3842 H   0  0  0  0  0  0  0  0  0  0  0  0  # atno 10764 bound_to 10752
  154.3680  135.2841  155.2261 H   0  0  0  0  0  0  0  0  0  0  0  0  # atno 10765 bound_to 10752
  141.1114  133.8698  157.1574 H   0  0  0  0  0  0  0  0  0  0  0  0  # atno 11005 bound_to 11000
  146.2869  140.4404  142.8754 LP  0  0  0  0  0  0  0  0  0  0  0  0  # atno 17320 bound_to 7965
  144.8551  140.7058  143.6143 LP  0  0  0  0  0  0  0  0  0  0  0  0  # atno 17321 bound_to 7965
  140.0805  144.5705  150.7126 LP  0  0  0  0  0  0  0  0  0  0  0  0  # atno 17342 bound_to 10162
  140.7165  143.2549  151.4416 LP  0  0  0  0  0  0  0  0  0  0  0  0  # atno 17343 bound_to 10162
  156.5632  130.4261  149.6053 LP  0  0  0  0  0  0  0  0  0  0  0  0  # atno 17370 bound_to 10713
  156.2803  130.7067  151.1889 LP  0  0  0  0  0  0  0  0  0  0  0  0  # atno 17371 bound_to 10713
  140.0010  135.0028  157.0190 LP  0  0  0  0  0  0  0  0  0  0  0  0  # atno 17394 bound_to 11000
  140.4765  134.1333  155.7210 LP  0  0  0  0  0  0  0  0  0  0  0  0  # atno 17395 bound_to 11000

$$$$
