AV-unprocessed.smi:2468|AV-procd|sdf|9731|dock6
  -GOLD-   2272013373D 1   1.00000     0.00000
 Structure written by MMmdl.
 32 33  0  0  0  0  0  0  0  0  1 V2000
  152.2162  145.1995  159.3460 C   0  0  0  0  0  0  0  0  0  0  0  0
  152.4076  143.6942  159.3436 C   0  0  0  0  0  0  0  0  0  0  0  0
  153.0884  143.1901  160.3959 N   0  0  0  0  0  0  0  0  0  0  0  0
  153.2783  141.8559  160.4483 C   0  0  0  0  0  0  0  0  0  0  0  0
  152.8099  140.9671  159.4621 C   0  0  0  0  0  0  0  0  0  0  0  0
  152.1105  141.4930  158.3490 C   0  0  0  0  0  0  0  0  0  0  0  0
  151.5792  140.6886  157.3024 N   0  0  0  0  0  0  0  0  0  0  0  0
  152.1073  139.5975  156.7180 C   0  0  0  0  0  0  0  0  0  0  0  0
  153.1810  139.0843  157.0331 O   0  0  0  0  0  0  0  0  0  0  0  0
  151.2711  138.9875  155.5802 C   0  0  2  0  0  0  0  0  0  0  0  0
  151.0008  140.0286  154.6394 O   0  0  0  0  0  0  0  0  0  0  0  0
  149.5981  140.2462  154.5116 C   0  0  0  0  0  0  0  0  0  0  0  0
  148.9781  139.6411  155.7653 C   0  0  0  0  0  0  0  0  0  0  0  0
  149.8830  138.4466  155.9893 C   0  0  2  0  0  0  0  0  0  0  0  0
  149.7568  137.8001  157.3810 C   0  0  0  0  0  0  0  0  0  0  0  0
  151.8942  142.8903  158.2986 C   0  0  0  0  0  0  0  0  0  0  0  0
  151.0238  143.6047  156.9821 Cl  0  0  0  0  0  0  0  0  0  0  0  0
  152.6166  145.6361  158.4308 H   0  0  0  0  0  0  0  0  0  0  0  0
  152.7234  145.6674  160.1909 H   0  0  0  0  0  0  0  0  0  0  0  0
  151.1560  145.4456  159.4109 H   0  0  0  0  0  0  0  0  0  0  0  0
  153.8153  141.4831  161.3079 H   0  0  0  0  0  0  0  0  0  0  0  0
  152.9851  139.9101  159.5872 H   0  0  0  0  0  0  0  0  0  0  0  0
  150.7229  141.0322  156.8920 H   0  0  0  0  0  0  0  0  0  0  0  0
  151.8441  138.2006  155.0867 H   0  0  0  0  0  0  0  0  0  0  0  0
  149.3666  141.3055  154.3978 H   0  0  0  0  0  0  0  0  0  0  0  0
  149.2430  139.7239  153.6223 H   0  0  0  0  0  0  0  0  0  0  0  0
  149.0435  140.3416  156.5986 H   0  0  0  0  0  0  0  0  0  0  0  0
  147.9316  139.3667  155.6296 H   0  0  0  0  0  0  0  0  0  0  0  0
  149.6094  137.6852  155.2567 H   0  0  0  0  0  0  0  0  0  0  0  0
  149.9262  138.5170  158.1845 H   0  0  0  0  0  0  0  0  0  0  0  0
  150.4721  136.9859  157.4996 H   0  0  0  0  0  0  0  0  0  0  0  0
  148.7586  137.3856  157.5231 H   0  0  0  0  0  0  0  0  0  0  0  0
  1  2  1  0  0  0  0
  1 18  1  0  0  0  0
  1 19  1  0  0  0  0
  1 20  1  0  0  0  0
  2 16  1  0  0  0  0
  2  3  2  0  0  0  0
  3  4  1  0  0  0  0
  4  5  2  0  0  0  0
  4 21  1  0  0  0  0
  5  6  1  0  0  0  0
  5 22  1  0  0  0  0
  6  7  1  0  0  0  0
  6 16  2  0  0  0  0
  7  8  1  0  0  0  0
  7 23  1  0  0  0  0
  8  9  2  0  0  0  0
  8 10  1  0  0  0  0
 10 14  1  0  0  0  0
 10 11  1  0  0  0  0
 10 24  1  0  0  0  0
 11 12  1  0  0  0  0
 12 13  1  0  0  0  0
 12 25  1  0  0  0  0
 12 26  1  0  0  0  0
 13 14  1  0  0  0  0
 13 27  1  0  0  0  0
 13 28  1  0  0  0  0
 14 15  1  0  0  0  0
 14 29  1  0  0  0  0
 15 30  1  0  0  0  0
 15 31  1  0  0  0  0
 15 32  1  0  0  0  0
 16 17  1  0  0  0  0
M  END
> <s_m_source_file>
AV-unprocessed.smi

> <i_m_source_file_index>
2468

> <i_lp_mmshare_version>
43012

> <i_f3d_flags>
0

> <s_epik_input>
W0NIM11jMW5bY0hdW2NIXWMoYzFDbClbTkhdQyg9TylbQ0BASF0yT1tDSDJdW0NIMl1bQ0BIXTJbQ0gzXQ==

> <s_epik_cmdline>
J2VwaWtfcHl0aG9uJywgJy1waCcsICc3LjAnLCAnLXRuJywgJzgnLCAnLW1hJywgJzIwMCcsICctbWV0YWxfYmluZGluZycsICctaW1hZScsICc8aW5maWxlLm1hZT4nLCAnLW9tYWUnLCAnPG91dGZpbGUubWFlPic=

> <r_epik_Ionization_Penalty>
0.000361027

> <r_epik_Ionization_Penalty_Charging>
0

> <r_epik_Ionization_Penalty_Neutral>
0.000361027

> <r_epik_State_Penalty>
0.000217849

> <r_epik_Charging_Adjusted_Penalty>
0.000217849

> <i_epik_Tot_Q>
0

> <i_epik_Tot_abs_Q>
0

> <r_epik_Metal_State_Penalty>
-0

> <b_epik_Metal_Only>
0

> <s_lp_Force_Field>
OPLS_2005

> <r_lp_Energy>
25.639

> <b_lp_Chiralities_Consistent>
1

> <s_lp_Variant>
AV-unprocessed.smi:2468-3

> <Gold.Version>
5.8.1

> <Gold.Id.Protein>
6NUR|6NUR_protein|mol2

> <Gold.PLP.Fitness>
36.0031

> <Gold.PLP.PLP>
-30.6551

> <Gold.PLP.part.hbond>
-2.0000

> <Gold.PLP.part.metal>
0.0000

> <Gold.PLP.part.buried>
-1.3353

> <Gold.PLP.part.nonpolar>
-27.3535

> <Gold.PLP.part.repulsive>
0.1698

> <Gold.PLP.ligand.clash>
0.0000

> <Gold.PLP.ligand.torsion>
0.3315

> <Gold.PLP.Chemscore.Hbond>
2.0000

> <Gold.PLP.Chemscore.CHOScore>
0.0000

> <Gold.PLP.Chemscore.Metal>
0.0000

> <Gold.Chemscore.Hbonds>
donor molecule, donor type, donor heavy atom, donor atom, acceptor molecule, acceptor atom, score
      P1  H  7989  7998       L1    11  1.00
      P1  H  7997  8008       L1     9  1.00

> <Gold.PLP.Chemscore.Internal.Correction>
0.0109

> <Gold.Rescore>
     Score         DG    S(hbond)    S(metal)    S(lipo)     H(rot)  DE(clash)    DE(int)     intcor
     18.73     -20.37       1.92        0.00      94.17       1.00       1.27       0.37       ----

> <Gold.Chemscore.Fitness>
18.7290

> <Gold.Chemscore.DG>
-20.3656

> <Gold.Chemscore.ZeroCoef>
-5.4800

> <Gold.Chemscore.Hbond>
1.9245

> <Gold.Chemscore.Metal>
0.0000

> <Gold.Chemscore.Lipo>
94.1706

> <Gold.Chemscore.Internal_Hbond>
0.0000

> <Gold.Chemscore.DEClash>
1.2700

> <Gold.Chemscore.DEInternal>
0.3666

> <Gold.Chemscore.Rot>
1.0000

> <Gold.Chemscore.Internal.Correction>
   9.000000E+99

> <Gold.Chemscore.Hbonds>
donor molecule, donor type, donor heavy atom, donor atom, acceptor molecule, acceptor atom, score
      P1  H  7989  7998       L1    11  0.48
      P1  H  7997  8008       L1     9  0.91

> <Gold.Chemscore.Hbond.Weighted>
-6.4277

> <Gold.Chemscore.Metal.Weighted>
-0.0000

> <Gold.Chemscore.Lipo.Weighted>
-11.0180

> <Gold.Chemscore.Internal_Hbond.Weighted>
0.0000

> <Gold.Chemscore.DEClash.Weighted>
1.2700

> <Gold.Chemscore.DEInternal.Weighted>
0.3666

> <Gold.Chemscore.Rot.Weighted>
2.5600

> <Gold.Chemscore.Internal.Correction.Weighted>
   9.000000E+99

> <Gold.Protein.RotatedTorsions>
[ 6907 6896 6895 6894 ] final -167.78 input  -60.11 | X-H torsion
[ 7974 7965 7964 7962 ] final -163.40 input  175.53 | X-H torsion
[ 8008 7997 7996 7995 ] final  -77.05 input   59.86 | X-H torsion
[ 10167 10162 10161 10158 ] final -131.54 input  -65.29 | X-H torsion
[ 10718 10713 10712 10709 ] final  128.16 input   66.30 | X-H torsion
[ 10763 10752 10751 10750 ] final  -62.93 input  -60.55 | X-H torsion
[ 11005 11000 10999 10996 ] final   87.79 input  -57.11 | X-H torsion

> <Gold.Protein.ActiveResidues>
 VAL166  LYS551  ARG553  GLY616  TRP617  ASP618  TYR619  PRO620  LYS621  CYS622 
 ASP623  PHE694  ASN695  SER759  ASP760  ASP761  ALA762  ILE779  LEU786  VAL792 
 PHE793  MET794  SER795  GLU796  ALA797  LYS798  CYS799  TRP800  GLU811  SER814 

> <Gold.Protein.RotatedAtoms>
  151.4650  133.3583  159.2814 H   0  0  0  0  0  0  0  0  0  0  0  0  # atno 6907 bound_to 6896
  150.8999  134.8413  159.7364 H   0  0  0  0  0  0  0  0  0  0  0  0  # atno 6908 bound_to 6896
  152.4873  134.4569  159.9644 H   0  0  0  0  0  0  0  0  0  0  0  0  # atno 6909 bound_to 6896
  144.7327  140.3113  143.6187 H   0  0  0  0  0  0  0  0  0  0  0  0  # atno 7974 bound_to 7965
  154.5561  140.0717  156.8745 H   0  0  0  0  0  0  0  0  0  0  0  0  # atno 8008 bound_to 7997
  155.2900  140.3377  155.4235 H   0  0  0  0  0  0  0  0  0  0  0  0  # atno 8009 bound_to 7997
  156.2003  140.1719  156.7899 H   0  0  0  0  0  0  0  0  0  0  0  0  # atno 8010 bound_to 7997
  139.9179  143.6417  152.2560 H   0  0  0  0  0  0  0  0  0  0  0  0  # atno 10167 bound_to 10162
  157.5269  131.1098  150.9069 H   0  0  0  0  0  0  0  0  0  0  0  0  # atno 10718 bound_to 10713
  154.3074  135.6222  153.5450 H   0  0  0  0  0  0  0  0  0  0  0  0  # atno 10763 bound_to 10752
  152.9833  135.5693  154.5216 H   0  0  0  0  0  0  0  0  0  0  0  0  # atno 10764 bound_to 10752
  154.4859  135.2865  155.1511 H   0  0  0  0  0  0  0  0  0  0  0  0  # atno 10765 bound_to 10752
  139.8911  134.8445  156.2910 H   0  0  0  0  0  0  0  0  0  0  0  0  # atno 11005 bound_to 11000
  145.7662  139.1841  143.2238 LP  0  0  0  0  0  0  0  0  0  0  0  0  # atno 17320 bound_to 7965
  146.0947  140.7614  142.9578 LP  0  0  0  0  0  0  0  0  0  0  0  0  # atno 17321 bound_to 7965
  139.6887  144.7649  151.1478 LP  0  0  0  0  0  0  0  0  0  0  0  0  # atno 17342 bound_to 10162
  140.7669  143.5620  150.9088 LP  0  0  0  0  0  0  0  0  0  0  0  0  # atno 17343 bound_to 10162
  156.9662  130.5474  149.5288 LP  0  0  0  0  0  0  0  0  0  0  0  0  # atno 17370 bound_to 10713
  156.0394  130.5478  150.8733 LP  0  0  0  0  0  0  0  0  0  0  0  0  # atno 17371 bound_to 10713
  140.9976  133.7170  156.0910 LP  0  0  0  0  0  0  0  0  0  0  0  0  # atno 17394 bound_to 11000
  140.7541  134.4012  157.5536 LP  0  0  0  0  0  0  0  0  0  0  0  0  # atno 17395 bound_to 11000

$$$$
