AV-unprocessed.smi:2458|AV-procd|sdf|9708|dock2
  -GOLD-   2272013343D 1   1.00000     0.00000
 Structure written by MMmdl.
 47 48  0  0  0  0  0  0  0  0  1 V2000
  150.7773  145.0947  159.6757 C   0  0  0  0  0  0  0  0  0  0  0  0
  152.1871  144.4818  159.5645 C   0  0  0  0  0  0  0  0  0  0  0  0
  152.7125  144.7082  158.1335 C   0  0  0  0  0  0  0  0  0  0  0  0
  152.2276  142.9844  159.9910 C   0  0  1  0  0  0  0  0  0  0  0  0
  151.9936  142.0246  158.7979 C   0  0  0  0  0  0  0  0  0  0  0  0
  152.0490  140.5449  159.2113 C   0  0  0  0  0  0  0  0  0  0  0  0
  153.3886  140.1995  159.8860 C   0  0  2  0  0  0  0  0  0  0  0  0
  153.4323  138.7224  160.3013 C   0  0  0  0  0  0  0  0  0  0  0  0
  152.5010  137.9679  160.0185 O   0  0  0  0  0  0  0  0  0  0  0  0
  154.5205  138.3216  160.9738 N   0  0  0  0  0  0  0  0  0  0  0  0
  154.7430  136.9617  161.4475 C   0  0  0  0  0  0  0  0  0  0  0  0
  154.1933  136.7773  162.8733 C   0  0  2  0  0  0  0  0  0  0  0  0
  154.9608  137.5684  163.7592 O   0  0  0  0  0  0  0  0  0  0  0  0
  154.2054  135.3139  163.2855 C   0  0  0  0  0  0  0  0  0  0  0  0
  153.8362  134.9162  164.5889 C   0  0  0  0  0  0  0  0  0  0  0  0
  153.8743  133.5481  164.9202 C   0  0  0  0  0  0  0  0  0  0  0  0
  154.2824  132.6304  163.9321 C   0  0  0  0  0  0  0  0  0  0  0  0
  154.6399  132.9969  162.6827 N   0  0  0  0  0  0  0  0  0  0  0  0
  154.6005  134.3109  162.3733 C   0  0  0  0  0  0  0  0  0  0  0  0
  153.6089  141.1243  161.0970 C   0  0  0  0  0  0  0  0  0  0  0  0
  153.5565  142.6062  160.6913 C   0  0  0  0  0  0  0  0  0  0  0  0
  151.4205  142.8219  160.7070 H   0  0  0  0  0  0  0  0  0  0  0  0
  154.1904  140.3797  159.1676 H   0  0  0  0  0  0  0  0  0  0  0  0
  150.0480  144.5183  159.1058 H   0  0  0  0  0  0  0  0  0  0  0  0
  150.7607  146.1159  159.2941 H   0  0  0  0  0  0  0  0  0  0  0  0
  150.4345  145.1484  160.7083 H   0  0  0  0  0  0  0  0  0  0  0  0
  152.8360  145.0434  160.2381 H   0  0  0  0  0  0  0  0  0  0  0  0
  152.1709  144.0970  157.4109 H   0  0  0  0  0  0  0  0  0  0  0  0
  153.7733  144.4771  158.0452 H   0  0  0  0  0  0  0  0  0  0  0  0
  152.5999  145.7504  157.8333 H   0  0  0  0  0  0  0  0  0  0  0  0
  151.0204  142.2040  158.3429 H   0  0  0  0  0  0  0  0  0  0  0  0
  152.7376  142.2128  158.0225 H   0  0  0  0  0  0  0  0  0  0  0  0
  151.2188  140.3300  159.8861 H   0  0  0  0  0  0  0  0  0  0  0  0
  151.9005  139.9174  158.3314 H   0  0  0  0  0  0  0  0  0  0  0  0
  155.2454  138.9987  161.1628 H   0  0  0  0  0  0  0  0  0  0  0  0
  154.2173  136.2913  160.7655 H   0  0  0  0  0  0  0  0  0  0  0  0
  155.8012  136.6987  161.3980 H   0  0  0  0  0  0  0  0  0  0  0  0
  153.1635  137.1357  162.9176 H   0  0  0  0  0  0  0  0  0  0  0  0
  155.1689  137.0502  164.5216 H   0  0  0  0  0  0  0  0  0  0  0  0
  153.5314  135.6459  165.3246 H   0  0  0  0  0  0  0  0  0  0  0  0
  153.5990  133.2104  165.9083 H   0  0  0  0  0  0  0  0  0  0  0  0
  154.3241  131.5740  164.1521 H   0  0  0  0  0  0  0  0  0  0  0  0
  154.8955  134.5672  161.3664 H   0  0  0  0  0  0  0  0  0  0  0  0
  152.8514  140.9364  161.8597 H   0  0  0  0  0  0  0  0  0  0  0  0
  154.5725  140.9097  161.5612 H   0  0  0  0  0  0  0  0  0  0  0  0
  154.3972  142.8334  160.0344 H   0  0  0  0  0  0  0  0  0  0  0  0
  153.6994  143.2001  161.5930 H   0  0  0  0  0  0  0  0  0  0  0  0
  1  2  1  0  0  0  0
  1 24  1  0  0  0  0
  1 25  1  0  0  0  0
  1 26  1  0  0  0  0
  2  3  1  0  0  0  0
  2  4  1  0  0  0  0
  2 27  1  0  0  0  0
  3 28  1  0  0  0  0
  3 29  1  0  0  0  0
  3 30  1  0  0  0  0
  4 22  1  0  0  0  0
  4 21  1  0  0  0  0
  4  5  1  0  0  0  0
  5  6  1  0  0  0  0
  5 31  1  0  0  0  0
  5 32  1  0  0  0  0
  6  7  1  0  0  0  0
  6 33  1  0  0  0  0
  6 34  1  0  0  0  0
  7 23  1  0  0  0  0
  7  8  1  0  0  0  0
  7 20  1  0  0  0  0
  8  9  2  0  0  0  0
  8 10  1  0  0  0  0
 10 11  1  0  0  0  0
 10 35  1  0  0  0  0
 11 12  1  0  0  0  0
 11 36  1  0  0  0  0
 11 37  1  0  0  0  0
 12 13  1  0  0  0  0
 12 14  1  0  0  0  0
 12 38  1  0  0  0  0
 13 39  1  0  0  0  0
 14 19  1  0  0  0  0
 14 15  2  0  0  0  0
 15 16  1  0  0  0  0
 15 40  1  0  0  0  0
 16 17  2  0  0  0  0
 16 41  1  0  0  0  0
 17 18  1  0  0  0  0
 17 42  1  0  0  0  0
 18 19  2  0  0  0  0
 19 43  1  0  0  0  0
 20 21  1  0  0  0  0
 20 44  1  0  0  0  0
 20 45  1  0  0  0  0
 21 46  1  0  0  0  0
 21 47  1  0  0  0  0
M  END
> <s_m_source_file>
AV-unprocessed.smi

> <i_m_source_file_index>
2458

> <i_lp_mmshare_version>
43012

> <i_f3d_flags>
0

> <s_epik_input>
W0NIM11bQ0hdKFtDSDNdKVtDQEhdMVtDSDJdW0NIMl1bQ0BASF0oW0NIMl1bQ0gyXTEpQyg9TylbTkhdW0NIMl1bQ0BIXShbT0hdKWMyW2NIXVtjSF1bY0hdbltjSF0y

> <s_epik_cmdline>
J2VwaWtfcHl0aG9uJywgJy1waCcsICc3LjAnLCAnLXRuJywgJzgnLCAnLW1hJywgJzIwMCcsICctbWV0YWxfYmluZGluZycsICctaW1hZScsICc8aW5maWxlLm1hZT4nLCAnLW9tYWUnLCAnPG91dGZpbGUubWFlPic=

> <r_epik_Ionization_Penalty>
0.00169206

> <r_epik_Ionization_Penalty_Charging>
0

> <r_epik_Ionization_Penalty_Neutral>
0.00169206

> <r_epik_State_Penalty>
0.0011427

> <r_epik_Charging_Adjusted_Penalty>
0.0011427

> <i_epik_Tot_Q>
0

> <i_epik_Tot_abs_Q>
0

> <r_epik_Metal_State_Penalty>
-0

> <b_epik_Metal_Only>
0

> <s_lp_Force_Field>
OPLS_2005

> <r_lp_Energy>
18.0059

> <b_lp_Chiralities_Consistent>
1

> <s_lp_Variant>
AV-unprocessed.smi:2458-1

> <Gold.Version>
5.8.1

> <Gold.Id.Protein>
6NUR|6NUR_protein|mol2

> <Gold.PLP.Fitness>
44.0243

> <Gold.PLP.PLP>
-46.2182

> <Gold.PLP.part.hbond>
0.0000

> <Gold.PLP.part.metal>
0.0000

> <Gold.PLP.part.buried>
-5.3667

> <Gold.PLP.part.nonpolar>
-40.8054

> <Gold.PLP.part.repulsive>
0.0000

> <Gold.PLP.ligand.clash>
0.0000

> <Gold.PLP.ligand.torsion>
1.1205

> <Gold.PLP.Chemscore.Hbond>
0.0000

> <Gold.PLP.Chemscore.CHOScore>
0.0000

> <Gold.PLP.Chemscore.Metal>
0.0000

> <Gold.PLP.Chemscore.Internal.Correction>
0.0471

> <Gold.Rescore>
     Score         DG    S(hbond)    S(metal)    S(lipo)     H(rot)  DE(clash)    DE(int)     intcor
     15.98     -17.07       0.00        0.00     144.08       2.06       0.03       1.05       ----

> <Gold.Chemscore.Fitness>
15.9848

> <Gold.Chemscore.DG>
-17.0674

> <Gold.Chemscore.ZeroCoef>
-5.4800

> <Gold.Chemscore.Hbond>
0.0000

> <Gold.Chemscore.Metal>
0.0000

> <Gold.Chemscore.Lipo>
144.0849

> <Gold.Chemscore.Internal_Hbond>
0.0000

> <Gold.Chemscore.DEClash>
0.0337

> <Gold.Chemscore.DEInternal>
1.0489

> <Gold.Chemscore.Rot>
2.0588

> <Gold.Chemscore.Internal.Correction>
   9.000000E+99

> <Gold.Chemscore.Hbond.Weighted>
-0.0000

> <Gold.Chemscore.Metal.Weighted>
-0.0000

> <Gold.Chemscore.Lipo.Weighted>
-16.8579

> <Gold.Chemscore.Internal_Hbond.Weighted>
0.0000

> <Gold.Chemscore.DEClash.Weighted>
0.0337

> <Gold.Chemscore.DEInternal.Weighted>
1.0489

> <Gold.Chemscore.Rot.Weighted>
5.2705

> <Gold.Chemscore.Internal.Correction.Weighted>
   9.000000E+99

> <Gold.Protein.RotatedTorsions>
[ 6907 6896 6895 6894 ] final   20.20 input  -60.11 | X-H torsion
[ 7974 7965 7964 7962 ] final -125.83 input  175.53 | X-H torsion
[ 8008 7997 7996 7995 ] final   89.19 input   59.86 | X-H torsion
[ 10167 10162 10161 10158 ] final  151.50 input  -65.29 | X-H torsion
[ 10718 10713 10712 10709 ] final  139.18 input   66.30 | X-H torsion
[ 10763 10752 10751 10750 ] final  176.25 input  -60.55 | X-H torsion
[ 11005 11000 10999 10996 ] final  160.96 input  -57.11 | X-H torsion

> <Gold.Protein.ActiveResidues>
 VAL166  LYS551  ARG553  GLY616  TRP617  ASP618  TYR619  PRO620  LYS621  CYS622 
 ASP623  PHE694  ASN695  SER759  ASP760  ASP761  ALA762  ILE779  LEU786  VAL792 
 PHE793  MET794  SER795  GLU796  ALA797  LYS798  CYS799  TRP800  GLU811  SER814 

> <Gold.Protein.RotatedAtoms>
  151.8927  135.0410  160.0498 H   0  0  0  0  0  0  0  0  0  0  0  0  # atno 6907 bound_to 6896
  152.2423  133.5141  159.5285 H   0  0  0  0  0  0  0  0  0  0  0  0  # atno 6908 bound_to 6896
  150.7057  134.0989  159.4001 H   0  0  0  0  0  0  0  0  0  0  0  0  # atno 6909 bound_to 6896
  144.9935  140.7754  143.4540 H   0  0  0  0  0  0  0  0  0  0  0  0  # atno 7974 bound_to 7965
  155.9970  140.3363  155.6808 H   0  0  0  0  0  0  0  0  0  0  0  0  # atno 8008 bound_to 7997
  155.6343  140.0688  157.2657 H   0  0  0  0  0  0  0  0  0  0  0  0  # atno 8009 bound_to 7997
  154.4237  140.1754  156.1493 H   0  0  0  0  0  0  0  0  0  0  0  0  # atno 8010 bound_to 7997
  139.4840  144.5436  151.7522 H   0  0  0  0  0  0  0  0  0  0  0  0  # atno 10167 bound_to 10162
  157.4172  131.1034  151.0391 H   0  0  0  0  0  0  0  0  0  0  0  0  # atno 10718 bound_to 10713
  154.4786  135.2774  155.1588 H   0  0  0  0  0  0  0  0  0  0  0  0  # atno 10763 bound_to 10752
  154.3307  135.6190  153.5553 H   0  0  0  0  0  0  0  0  0  0  0  0  # atno 10764 bound_to 10752
  152.9872  135.5765  154.5182 H   0  0  0  0  0  0  0  0  0  0  0  0  # atno 10765 bound_to 10752
  140.2111  134.8267  157.3121 H   0  0  0  0  0  0  0  0  0  0  0  0  # atno 11005 bound_to 11000
  145.2253  139.2140  143.5071 LP  0  0  0  0  0  0  0  0  0  0  0  0  # atno 17320 bound_to 7965
  146.3436  140.2119  142.8590 LP  0  0  0  0  0  0  0  0  0  0  0  0  # atno 17321 bound_to 7965
  140.4979  144.1213  150.5964 LP  0  0  0  0  0  0  0  0  0  0  0  0  # atno 17342 bound_to 10162
  140.4096  143.2663  151.9849 LP  0  0  0  0  0  0  0  0  0  0  0  0  # atno 17343 bound_to 10162
  157.1335  130.6112  149.5535 LP  0  0  0  0  0  0  0  0  0  0  0  0  # atno 17370 bound_to 10713
  155.9869  130.4906  150.7100 LP  0  0  0  0  0  0  0  0  0  0  0  0  # atno 17371 bound_to 10713
  140.1950  134.4325  155.7694 LP  0  0  0  0  0  0  0  0  0  0  0  0  # atno 17394 bound_to 11000
  141.2226  133.7045  156.8090 LP  0  0  0  0  0  0  0  0  0  0  0  0  # atno 17395 bound_to 11000

$$$$
