AV-unprocessed.smi:1251|AV-procd|sdf|5257|dock4
  -GOLD-   22720 4363D 1   1.00000     0.00000
 Structure written by MMmdl.
 39 40  0  0  0  0  0  0  0  0  1 V2000
  151.1084  142.7222  157.8079 C   0  0  0  0  0  0  0  0  0  0  0  0
  150.0928  141.7802  157.1520 C   0  0  0  0  0  0  0  0  0  0  0  0
  150.3034  141.6491  155.6372 C   0  0  0  0  0  0  0  0  0  0  0  0
  149.3146  140.7318  154.9982 C   0  0  0  0  0  0  0  0  0  0  0  0
  147.9993  140.9812  154.9855 N   0  0  0  0  0  0  0  0  0  0  0  0
  147.2787  139.9743  154.3589 N   0  0  0  0  0  0  0  0  0  0  0  0
  148.0728  138.9835  153.9303 C   0  0  0  0  0  0  0  0  0  0  0  0
  147.5981  137.8264  153.2575 N   0  0  0  0  0  0  0  0  0  0  0  0
  146.3536  137.3174  153.2514 C   0  0  0  0  0  0  0  0  0  0  0  0
  145.3899  137.7881  153.8563 O   0  0  0  0  0  0  0  0  0  0  0  0
  146.2869  136.2122  152.4938 N   0  0  0  0  0  0  0  0  0  0  0  0
  145.0921  135.3980  152.2798 C   0  0  1  0  0  0  0  0  0  0  0  0
  143.8985  136.3351  152.0389 C   0  0  0  0  0  0  0  0  0  0  0  0
  145.3219  134.4258  151.1035 C   0  0  2  0  0  0  0  0  0  0  0  0
  144.0899  133.6081  150.7060 C   0  0  0  0  0  0  0  0  0  0  0  0
  144.7146  132.3752  150.0958 C   0  0  0  0  0  0  0  0  0  0  0  0
  145.9063  132.1542  151.0188 C   0  0  0  0  0  0  0  0  0  0  0  0
  146.3137  133.4535  151.4362 O   0  0  0  0  0  0  0  0  0  0  0  0
  149.7824  139.2031  154.2621 S   0  0  0  0  0  0  0  0  0  0  0  0
  150.9324  142.7962  158.8814 H   0  0  0  0  0  0  0  0  0  0  0  0
  151.0416  143.7269  157.3895 H   0  0  0  0  0  0  0  0  0  0  0  0
  152.1282  142.3649  157.6622 H   0  0  0  0  0  0  0  0  0  0  0  0
  150.1647  140.7963  157.6172 H   0  0  0  0  0  0  0  0  0  0  0  0
  149.0837  142.1429  157.3515 H   0  0  0  0  0  0  0  0  0  0  0  0
  150.2314  142.6288  155.1625 H   0  0  0  0  0  0  0  0  0  0  0  0
  151.3066  141.2757  155.4289 H   0  0  0  0  0  0  0  0  0  0  0  0
  148.2875  137.3287  152.7142 H   0  0  0  0  0  0  0  0  0  0  0  0
  147.1317  135.8996  152.0384 H   0  0  0  0  0  0  0  0  0  0  0  0
  144.8776  134.8160  153.1781 H   0  0  0  0  0  0  0  0  0  0  0  0
  142.9683  135.7762  151.9356 H   0  0  0  0  0  0  0  0  0  0  0  0
  144.0337  136.9268  151.1329 H   0  0  0  0  0  0  0  0  0  0  0  0
  143.7693  137.0262  152.8724 H   0  0  0  0  0  0  0  0  0  0  0  0
  145.6820  134.9713  150.2295 H   0  0  0  0  0  0  0  0  0  0  0  0
  143.5097  133.3307  151.5873 H   0  0  0  0  0  0  0  0  0  0  0  0
  143.4321  134.1374  150.0162 H   0  0  0  0  0  0  0  0  0  0  0  0
  144.0376  131.5211  150.0600 H   0  0  0  0  0  0  0  0  0  0  0  0
  145.0557  132.5881  149.0817 H   0  0  0  0  0  0  0  0  0  0  0  0
  145.6046  131.5870  151.9002 H   0  0  0  0  0  0  0  0  0  0  0  0
  146.7197  131.6166  150.5307 H   0  0  0  0  0  0  0  0  0  0  0  0
  1  2  1  0  0  0  0
  1 20  1  0  0  0  0
  1 21  1  0  0  0  0
  1 22  1  0  0  0  0
  2  3  1  0  0  0  0
  2 23  1  0  0  0  0
  2 24  1  0  0  0  0
  3  4  1  0  0  0  0
  3 25  1  0  0  0  0
  3 26  1  0  0  0  0
  4 19  1  0  0  0  0
  4  5  2  0  0  0  0
  5  6  1  0  0  0  0
  6  7  2  0  0  0  0
  7  8  1  0  0  0  0
  7 19  1  0  0  0  0
  8  9  1  0  0  0  0
  8 27  1  0  0  0  0
  9 10  2  0  0  0  0
  9 11  1  0  0  0  0
 11 12  1  0  0  0  0
 11 28  1  0  0  0  0
 12 13  1  0  0  0  0
 12 14  1  0  0  0  0
 12 29  1  0  0  0  0
 13 30  1  0  0  0  0
 13 31  1  0  0  0  0
 13 32  1  0  0  0  0
 14 18  1  0  0  0  0
 14 15  1  0  0  0  0
 14 33  1  0  0  0  0
 15 16  1  0  0  0  0
 15 34  1  0  0  0  0
 15 35  1  0  0  0  0
 16 17  1  0  0  0  0
 16 36  1  0  0  0  0
 16 37  1  0  0  0  0
 17 18  1  0  0  0  0
 17 38  1  0  0  0  0
 17 39  1  0  0  0  0
M  END
> <s_m_source_file>
AV-unprocessed.smi

> <i_m_source_file_index>
1251

> <i_lp_mmshare_version>
43012

> <i_f3d_flags>
0

> <s_epik_input>
W0NIM11bQ0gyXVtDSDJdYzFubmMoczEpW05IXUMoPU8pW05IXVtDQEhdKFtDSDNdKVtDQEBIXTJbQ0gyXVtDSDJdW0NIMl1PMg==

> <s_epik_cmdline>
J2VwaWtfcHl0aG9uJywgJy1waCcsICc3LjAnLCAnLXRuJywgJzgnLCAnLW1hJywgJzIwMCcsICctbWV0YWxfYmluZGluZycsICctaW1hZScsICc8aW5maWxlLm1hZT4nLCAnLW9tYWUnLCAnPG91dGZpbGUubWFlPic=

> <r_lp_tautomer_probability>
1

> <r_epik_Ionization_Penalty>
0.000503621

> <r_epik_Ionization_Penalty_Charging>
0

> <r_epik_Ionization_Penalty_Neutral>
0.000503621

> <r_epik_State_Penalty>
-0

> <r_epik_Charging_Adjusted_Penalty>
0

> <i_epik_Tot_Q>
0

> <i_epik_Tot_abs_Q>
0

> <r_epik_Metal_State_Penalty>
0.219912

> <b_epik_Metal_Only>
0

> <s_lp_Force_Field>
OPLS_2005

> <r_lp_Energy>
12.879

> <b_lp_Chiralities_Consistent>
1

> <s_lp_Variant>
AV-unprocessed.smi:1251-2

> <Gold.Version>
5.8.1

> <Gold.Id.Protein>
6NUR|6NUR_protein|mol2

> <Gold.PLP.Fitness>
34.7314

> <Gold.PLP.PLP>
-29.6204

> <Gold.PLP.part.hbond>
-2.0000

> <Gold.PLP.part.metal>
0.0000

> <Gold.PLP.part.buried>
-3.9006

> <Gold.PLP.part.nonpolar>
-24.2706

> <Gold.PLP.part.repulsive>
0.5785

> <Gold.PLP.ligand.clash>
0.0000

> <Gold.PLP.ligand.torsion>
0.3473

> <Gold.PLP.Chemscore.Hbond>
1.9280

> <Gold.PLP.Chemscore.CHOScore>
0.0000

> <Gold.PLP.Chemscore.Metal>
0.0000

> <Gold.Chemscore.Hbonds>
donor molecule, donor type, donor heavy atom, donor atom, acceptor molecule, acceptor atom, score
      L1  H     8    27       P1  7948  1.00
      L1  H    11    28       P1  7948  0.91

> <Gold.PLP.Chemscore.Internal.Correction>
0.0216

> <Gold.Rescore>
     Score         DG    S(hbond)    S(metal)    S(lipo)     H(rot)  DE(clash)    DE(int)     intcor
     13.63     -16.59       1.93        0.00      74.40       1.58       0.03       2.93       ----

> <Gold.Chemscore.Fitness>
13.6306

> <Gold.Chemscore.DG>
-16.5904

> <Gold.Chemscore.ZeroCoef>
-5.4800

> <Gold.Chemscore.Hbond>
1.9346

> <Gold.Chemscore.Metal>
0.0000

> <Gold.Chemscore.Lipo>
74.3978

> <Gold.Chemscore.Internal_Hbond>
0.0000

> <Gold.Chemscore.DEClash>
0.0282

> <Gold.Chemscore.DEInternal>
2.9316

> <Gold.Chemscore.Rot>
1.5843

> <Gold.Chemscore.Internal.Correction>
   9.000000E+99

> <Gold.Chemscore.Hbonds>
donor molecule, donor type, donor heavy atom, donor atom, acceptor molecule, acceptor atom, score
      L1  H     8    27       P1  7948  0.93
      L1  H    11    28       P1  7948  0.88

> <Gold.Chemscore.Hbond.Weighted>
-6.4616

> <Gold.Chemscore.Metal.Weighted>
-0.0000

> <Gold.Chemscore.Lipo.Weighted>
-8.7045

> <Gold.Chemscore.Internal_Hbond.Weighted>
0.0000

> <Gold.Chemscore.DEClash.Weighted>
0.0282

> <Gold.Chemscore.DEInternal.Weighted>
2.9316

> <Gold.Chemscore.Rot.Weighted>
4.0558

> <Gold.Chemscore.Internal.Correction.Weighted>
   9.000000E+99

> <Gold.Protein.RotatedTorsions>
[ 6907 6896 6895 6894 ] final   58.68 input  -60.11 | X-H torsion
[ 7974 7965 7964 7962 ] final -164.74 input  175.53 | X-H torsion
[ 8008 7997 7996 7995 ] final   20.60 input   59.86 | X-H torsion
[ 10167 10162 10161 10158 ] final   97.63 input  -65.29 | X-H torsion
[ 10718 10713 10712 10709 ] final   60.76 input   66.30 | X-H torsion
[ 10763 10752 10751 10750 ] final  -54.98 input  -60.55 | X-H torsion
[ 11005 11000 10999 10996 ] final -171.26 input  -57.11 | X-H torsion

> <Gold.Protein.ActiveResidues>
 VAL166  LYS551  ARG553  GLY616  TRP617  ASP618  TYR619  PRO620  LYS621  CYS622 
 ASP623  PHE694  ASN695  SER759  ASP760  ASP761  ALA762  ILE779  LEU786  VAL792 
 PHE793  MET794  SER795  GLU796  ALA797  LYS798  CYS799  TRP800  GLU811  SER814 

> <Gold.Protein.RotatedAtoms>
  152.3846  134.6537  160.0130 H   0  0  0  0  0  0  0  0  0  0  0  0  # atno 6907 bound_to 6896
  151.6790  133.3307  159.3223 H   0  0  0  0  0  0  0  0  0  0  0  0  # atno 6908 bound_to 6896
  150.7775  134.6733  159.6448 H   0  0  0  0  0  0  0  0  0  0  0  0  # atno 6909 bound_to 6896
  144.7288  140.2916  143.6219 H   0  0  0  0  0  0  0  0  0  0  0  0  # atno 7974 bound_to 7965
  154.9380  140.3049  155.5135 H   0  0  0  0  0  0  0  0  0  0  0  0  # atno 8008 bound_to 7997
  156.2998  140.2341  156.4383 H   0  0  0  0  0  0  0  0  0  0  0  0  # atno 8009 bound_to 7997
  154.8173  140.0425  157.1374 H   0  0  0  0  0  0  0  0  0  0  0  0  # atno 8010 bound_to 7997
  139.7783  144.6897  151.0058 H   0  0  0  0  0  0  0  0  0  0  0  0  # atno 10167 bound_to 10162
  157.5777  130.8957  149.9376 H   0  0  0  0  0  0  0  0  0  0  0  0  # atno 10718 bound_to 10713
  154.1835  135.6439  153.5040 H   0  0  0  0  0  0  0  0  0  0  0  0  # atno 10763 bound_to 10752
  153.0053  135.5411  154.6489 H   0  0  0  0  0  0  0  0  0  0  0  0  # atno 10764 bound_to 10752
  154.5860  135.2929  155.0657 H   0  0  0  0  0  0  0  0  0  0  0  0  # atno 10765 bound_to 10752
  140.5103  134.5808  157.5016 H   0  0  0  0  0  0  0  0  0  0  0  0  # atno 11005 bound_to 11000
  145.7850  139.1905  143.2136 LP  0  0  0  0  0  0  0  0  0  0  0  0  # atno 17320 bound_to 7965
  146.0803  140.7771  142.9645 LP  0  0  0  0  0  0  0  0  0  0  0  0  # atno 17321 bound_to 7965
  140.7817  143.4511  151.0412 LP  0  0  0  0  0  0  0  0  0  0  0  0  # atno 17342 bound_to 10162
  139.8192  143.7843  152.3176 LP  0  0  0  0  0  0  0  0  0  0  0  0  # atno 17343 bound_to 10162
  156.0822  130.3672  150.0558 LP  0  0  0  0  0  0  0  0  0  0  0  0  # atno 17370 bound_to 10713
  156.8701  130.9521  151.3610 LP  0  0  0  0  0  0  0  0  0  0  0  0  # atno 17371 bound_to 10713
  139.9663  134.7368  156.0132 LP  0  0  0  0  0  0  0  0  0  0  0  0  # atno 17394 bound_to 11000
  141.1389  133.6569  156.3673 LP  0  0  0  0  0  0  0  0  0  0  0  0  # atno 17395 bound_to 11000

$$$$
