AV-unprocessed.smi:2041|AV-procd|sdf|8292|dock8
  -GOLD-   2272010553D 1   1.00000     0.00000
 Structure written by MMmdl.
 30 31  0  0  0  0  0  0  0  0  2 V2000
  152.4406  139.6092  157.0624 O   0  0  0  0  0  0  0  0  0  0  0  0
  151.6673  140.2564  157.7726 C   0  0  0  0  0  0  0  0  0  0  0  0
  152.0061  141.0305  158.8290 N   0  5  0  0  0  0  0  0  0  0  0  0
  151.8248  142.3600  158.7739 C   0  0  0  0  0  0  0  0  0  0  0  0
  151.1651  142.9654  157.7796 N   0  0  0  0  0  0  0  0  0  0  0  0
  151.0871  144.3514  157.9280 C   0  0  0  0  0  0  0  0  0  0  0  0
  151.6954  144.8115  159.0657 C   0  0  0  0  0  0  0  0  0  0  0  0
  152.3883  143.5096  159.9902 S   0  0  0  0  0  0  0  0  0  0  0  0
  150.3490  140.2316  157.5229 N   0  0  0  0  0  0  0  0  0  0  0  0
  149.6814  139.4817  156.4565 C   0  0  2  0  0  0  0  0  0  0  0  0
  149.8788  137.9707  156.7380 C   0  0  0  0  0  0  0  0  0  0  0  0
  149.6107  137.0093  155.5581 C   0  0  0  0  0  0  0  0  0  0  0  0
  148.3360  137.3093  154.7431 C   0  0  0  0  0  0  0  0  0  0  0  0
  148.2650  138.6921  154.0443 C   0  0  0  0  0  0  0  0  0  0  0  0
  149.5328  139.4203  153.9915 N   0  0  0  0  0  0  0  0  0  0  0  0
  150.2380  139.8336  155.0585 C   0  0  0  0  0  0  0  0  0  0  0  0
  151.3000  140.4410  154.9269 O   0  0  0  0  0  0  0  0  0  0  0  0
  150.5776  144.9335  157.1745 H   0  0  0  0  0  0  0  0  0  0  0  0
  151.7771  145.8291  159.4158 H   0  0  0  0  0  0  0  0  0  0  0  0
  149.7563  140.7721  158.1354 H   0  0  0  0  0  0  0  0  0  0  0  0
  148.6169  139.7173  156.4928 H   0  0  0  0  0  0  0  0  0  0  0  0
  150.8955  137.7892  157.0906 H   0  0  0  0  0  0  0  0  0  0  0  0
  149.2283  137.6948  157.5686 H   0  0  0  0  0  0  0  0  0  0  0  0
  150.4711  137.0049  154.8876 H   0  0  0  0  0  0  0  0  0  0  0  0
  149.5523  135.9922  155.9463 H   0  0  0  0  0  0  0  0  0  0  0  0
  148.2441  136.5370  153.9785 H   0  0  0  0  0  0  0  0  0  0  0  0
  147.4608  137.1877  155.3822 H   0  0  0  0  0  0  0  0  0  0  0  0
  147.9043  138.5655  153.0233 H   0  0  0  0  0  0  0  0  0  0  0  0
  147.5214  139.3206  154.5360 H   0  0  0  0  0  0  0  0  0  0  0  0
  149.8978  139.6373  153.0755 H   0  0  0  0  0  0  0  0  0  0  0  0
  1  2  2  0  0  0  0
  2  3  1  0  0  0  0
  2  9  1  0  0  0  0
  3  4  1  0  0  0  0
  4  8  1  0  0  0  0
  4  5  2  0  0  0  0
  5  6  1  0  0  0  0
  6  7  2  0  0  0  0
  6 18  1  0  0  0  0
  7  8  1  0  0  0  0
  7 19  1  0  0  0  0
  9 10  1  0  0  0  0
  9 20  1  0  0  0  0
 10 16  1  0  0  0  0
 10 11  1  0  0  0  0
 10 21  1  0  0  0  0
 11 12  1  0  0  0  0
 11 22  1  0  0  0  0
 11 23  1  0  0  0  0
 12 13  1  0  0  0  0
 12 24  1  0  0  0  0
 12 25  1  0  0  0  0
 13 14  1  0  0  0  0
 13 26  1  0  0  0  0
 13 27  1  0  0  0  0
 14 15  1  0  0  0  0
 14 28  1  0  0  0  0
 14 29  1  0  0  0  0
 15 16  1  0  0  0  0
 15 30  1  0  0  0  0
 16 17  2  0  0  0  0
M  CHG  1   3  -1
M  END
> <s_m_source_file>
AV-unprocessed.smi

> <i_m_source_file_index>
2041

> <i_lp_mmshare_version>
43012

> <i_f3d_flags>
0

> <s_epik_input>
czFbY0hdW2NIXW5jMVtOSF1DKD1PKVtOSF1bQ0BASF0yW0NIMl1bQ0gyXVtDSDJdW0NIMl1bTkhdQzI9Tw==

> <s_epik_cmdline>
J2VwaWtfcHl0aG9uJywgJy1waCcsICc3LjAnLCAnLXRuJywgJzgnLCAnLW1hJywgJzIwMCcsICctbWV0YWxfYmluZGluZycsICctaW1hZScsICc8aW5maWxlLm1hZT4nLCAnLW9tYWUnLCAnPG91dGZpbGUubWFlPic=

> <r_lp_tautomer_probability>
1

> <r_epik_Ionization_Penalty>
7.83857

> <r_epik_Ionization_Penalty_Charging>
6.39911

> <r_epik_Ionization_Penalty_Neutral>
1.43945

> <r_epik_State_Penalty>
6.3991

> <r_epik_Charging_Adjusted_Penalty>
12.7982

> <i_epik_Tot_Q>
-1

> <i_epik_Tot_abs_Q>
1

> <r_epik_Metal_State_Penalty>
2.33024

> <b_epik_Metal_Only>
1

> <s_lp_Force_Field>
OPLS_2005

> <r_lp_Energy>
11.6521

> <b_lp_Chiralities_Consistent>
1

> <s_lp_Variant>
AV-unprocessed.smi:2041-3

> <Gold.Version>
5.8.1

> <Gold.Id.Protein>
6NUR|6NUR_protein|mol2

> <Gold.PLP.Fitness>
37.0763

> <Gold.PLP.PLP>
-26.4465

> <Gold.PLP.part.hbond>
-2.7426

> <Gold.PLP.part.metal>
0.0000

> <Gold.PLP.part.buried>
-3.8200

> <Gold.PLP.part.nonpolar>
-20.7491

> <Gold.PLP.part.repulsive>
0.3143

> <Gold.PLP.ligand.clash>
0.0000

> <Gold.PLP.ligand.torsion>
0.6608

> <Gold.PLP.Chemscore.Hbond>
2.9825

> <Gold.PLP.Chemscore.CHOScore>
1.0000

> <Gold.PLP.Chemscore.Metal>
0.0000

> <Gold.Chemscore.Hbonds>
donor molecule, donor type, donor heavy atom, donor atom, acceptor molecule, acceptor atom, score
      L1  H    15    30       P1  7957  1.00
      P1  H  7989  7998       L1    17  0.98
      P1  H  7997  8009       L1     1  0.94
      L1  C     6    18       P1  8028  1.00

> <Gold.PLP.Chemscore.Internal.Correction>
0.0037

> <Gold.Rescore>
     Score         DG    S(hbond)    S(metal)    S(lipo)     H(rot)  DE(clash)    DE(int)     intcor
     12.63     -17.54       2.62        0.00      50.20       1.00       0.04       4.88       ----

> <Gold.Chemscore.Fitness>
12.6325

> <Gold.Chemscore.DG>
-17.5434

> <Gold.Chemscore.ZeroCoef>
-5.4800

> <Gold.Chemscore.Hbond>
2.6199

> <Gold.Chemscore.Metal>
0.0000

> <Gold.Chemscore.Lipo>
50.1971

> <Gold.Chemscore.Internal_Hbond>
0.0000

> <Gold.Chemscore.DEClash>
0.0354

> <Gold.Chemscore.DEInternal>
4.8755

> <Gold.Chemscore.Rot>
1.0000

> <Gold.Chemscore.Internal.Correction>
   9.000000E+99

> <Gold.Chemscore.Hbonds>
donor molecule, donor type, donor heavy atom, donor atom, acceptor molecule, acceptor atom, score
      L1  H    15    30       P1  7957  0.93
      P1  H  7989  7998       L1    17  0.82
      P1  H  7997  8009       L1     1  0.90

> <Gold.Chemscore.Hbond.Weighted>
-8.7503

> <Gold.Chemscore.Metal.Weighted>
-0.0000

> <Gold.Chemscore.Lipo.Weighted>
-5.8731

> <Gold.Chemscore.Internal_Hbond.Weighted>
0.0000

> <Gold.Chemscore.DEClash.Weighted>
0.0354

> <Gold.Chemscore.DEInternal.Weighted>
4.8755

> <Gold.Chemscore.Rot.Weighted>
2.5600

> <Gold.Chemscore.Internal.Correction.Weighted>
   9.000000E+99

> <Gold.Protein.RotatedTorsions>
[ 6907 6896 6895 6894 ] final   15.10 input  -60.11 | X-H torsion
[ 7974 7965 7964 7962 ] final -171.15 input  175.53 | X-H torsion
[ 8008 7997 7996 7995 ] final  172.17 input   59.86 | X-H torsion
[ 10167 10162 10161 10158 ] final  -83.47 input  -65.29 | X-H torsion
[ 10718 10713 10712 10709 ] final -138.69 input   66.30 | X-H torsion
[ 10763 10752 10751 10750 ] final  -57.44 input  -60.55 | X-H torsion
[ 11005 11000 10999 10996 ] final  118.29 input  -57.11 | X-H torsion

> <Gold.Protein.ActiveResidues>
 VAL166  LYS551  ARG553  GLY616  TRP617  ASP618  TYR619  PRO620  LYS621  CYS622 
 ASP623  PHE694  ASN695  SER759  ASP760  ASP761  ALA762  ILE779  LEU786  VAL792 
 PHE793  MET794  SER795  GLU796  ALA797  LYS798  CYS799  TRP800  GLU811  SER814 

> <Gold.Protein.RotatedAtoms>
  151.8128  135.0676  160.0414 H   0  0  0  0  0  0  0  0  0  0  0  0  # atno 6907 bound_to 6896
  152.3008  133.5649  159.5626 H   0  0  0  0  0  0  0  0  0  0  0  0  # atno 6908 bound_to 6896
  150.7273  134.0210  159.3743 H   0  0  0  0  0  0  0  0  0  0  0  0  # atno 6909 bound_to 6896
  144.7160  140.1965  143.6343 H   0  0  0  0  0  0  0  0  0  0  0  0  # atno 7974 bound_to 7965
  156.1200  140.1493  156.9218 H   0  0  0  0  0  0  0  0  0  0  0  0  # atno 8008 bound_to 7997
  154.4829  140.0874  156.7460 H   0  0  0  0  0  0  0  0  0  0  0  0  # atno 8009 bound_to 7997
  155.4445  140.3432  155.4296 H   0  0  0  0  0  0  0  0  0  0  0  0  # atno 8010 bound_to 7997
  140.4224  143.2579  151.8872 H   0  0  0  0  0  0  0  0  0  0  0  0  # atno 10167 bound_to 10162
  156.3022  130.7435  151.1489 H   0  0  0  0  0  0  0  0  0  0  0  0  # atno 10718 bound_to 10713
  154.2224  135.6375  153.5149 H   0  0  0  0  0  0  0  0  0  0  0  0  # atno 10763 bound_to 10752
  152.9966  135.5500  154.6099 H   0  0  0  0  0  0  0  0  0  0  0  0  # atno 10764 bound_to 10752
  154.5563  135.2905  155.0935 H   0  0  0  0  0  0  0  0  0  0  0  0  # atno 10765 bound_to 10752
  139.9104  134.9619  156.7480 H   0  0  0  0  0  0  0  0  0  0  0  0  # atno 11005 bound_to 11000
  145.8719  139.2277  143.1656 LP  0  0  0  0  0  0  0  0  0  0  0  0  # atno 17320 bound_to 7965
  146.0076  140.8464  142.9987 LP  0  0  0  0  0  0  0  0  0  0  0  0  # atno 17321 bound_to 7965
  139.4783  144.5423  151.8509 LP  0  0  0  0  0  0  0  0  0  0  0  0  # atno 17342 bound_to 10162
  140.4519  144.1843  150.5898 LP  0  0  0  0  0  0  0  0  0  0  0  0  # atno 17343 bound_to 10162
  157.7371  131.0556  150.5377 LP  0  0  0  0  0  0  0  0  0  0  0  0  # atno 17370 bound_to 10713
  156.5506  130.4230  149.6109 LP  0  0  0  0  0  0  0  0  0  0  0  0  # atno 17371 bound_to 10713
  140.6796  133.9486  155.7903 LP  0  0  0  0  0  0  0  0  0  0  0  0  # atno 17394 bound_to 11000
  141.0519  134.0472  157.3772 LP  0  0  0  0  0  0  0  0  0  0  0  0  # atno 17395 bound_to 11000

$$$$
