AV-unprocessed.smi:2743|AV-procd|sdf|10566|dock4
  -GOLD-   2272015 23D 1   1.00000     0.00000
 Structure written by MMmdl.
 38 39  0  0  0  0  0  0  0  0  1 V2000
  148.3552  136.5678  161.1303 N   0  0  0  0  0  0  0  0  0  0  0  0
  148.6380  136.6661  160.0123 C   0  0  0  0  0  0  0  0  0  0  0  0
  148.9984  136.7879  158.5897 C   0  0  0  0  0  0  0  0  0  0  0  0
  149.2374  138.2303  158.1425 C   0  0  0  0  0  0  0  0  0  0  0  0
  150.0268  138.9532  158.7503 O   0  0  0  0  0  0  0  0  0  0  0  0
  148.5325  138.6382  157.0761 N   0  0  0  0  0  0  0  0  0  0  0  0
  148.5770  139.9746  156.4826 C   0  0  0  0  0  0  0  0  0  0  0  0
  149.0243  139.9689  154.9897 C   0  0  0  0  0  0  0  0  0  0  0  0
  150.4173  139.3060  154.8960 C   0  0  0  0  0  0  0  0  0  0  0  0
  151.5007  139.8256  155.6447 C   0  0  0  0  0  0  0  0  0  0  0  0
  152.7618  139.2038  155.5597 C   0  0  0  0  0  0  0  0  0  0  0  0
  153.0024  138.1172  154.7987 N   0  0  0  0  0  0  0  0  0  0  0  0
  151.9733  137.6104  154.0901 C   0  0  0  0  0  0  0  0  0  0  0  0
  150.6751  138.1582  154.1045 C   0  0  0  0  0  0  0  0  0  0  0  0
  147.9751  139.2290  154.1008 C   0  0  0  0  0  0  0  0  0  0  0  0
  146.6188  139.9479  153.9863 C   0  0  0  0  0  0  0  0  0  0  0  0
  146.7940  141.3769  153.4624 C   0  0  0  0  0  0  0  0  0  0  0  0
  147.7769  142.1597  154.3395 C   0  0  0  0  0  0  0  0  0  0  0  0
  149.1279  141.4307  154.4627 C   0  0  0  0  0  0  0  0  0  0  0  0
  149.8944  136.1910  158.4167 H   0  0  0  0  0  0  0  0  0  0  0  0
  148.1923  136.3546  157.9973 H   0  0  0  0  0  0  0  0  0  0  0  0
  147.9051  137.9752  156.6444 H   0  0  0  0  0  0  0  0  0  0  0  0
  147.6246  140.4857  156.6191 H   0  0  0  0  0  0  0  0  0  0  0  0
  149.2894  140.5500  157.0742 H   0  0  0  0  0  0  0  0  0  0  0  0
  151.3786  140.6861  156.2848 H   0  0  0  0  0  0  0  0  0  0  0  0
  153.5984  139.5888  156.1235 H   0  0  0  0  0  0  0  0  0  0  0  0
  152.1889  136.7362  153.4939 H   0  0  0  0  0  0  0  0  0  0  0  0
  149.9116  137.6799  153.5114 H   0  0  0  0  0  0  0  0  0  0  0  0
  148.3688  139.1320  153.0880 H   0  0  0  0  0  0  0  0  0  0  0  0
  147.8066  138.2132  154.4582 H   0  0  0  0  0  0  0  0  0  0  0  0
  145.9657  139.3903  153.3144 H   0  0  0  0  0  0  0  0  0  0  0  0
  146.1114  139.9645  154.9504 H   0  0  0  0  0  0  0  0  0  0  0  0
  147.1620  141.3483  152.4358 H   0  0  0  0  0  0  0  0  0  0  0  0
  145.8304  141.8859  153.4327 H   0  0  0  0  0  0  0  0  0  0  0  0
  147.9342  143.1515  153.9147 H   0  0  0  0  0  0  0  0  0  0  0  0
  147.3439  142.3214  155.3266 H   0  0  0  0  0  0  0  0  0  0  0  0
  149.7817  142.0287  155.0971 H   0  0  0  0  0  0  0  0  0  0  0  0
  149.5980  141.4196  153.4779 H   0  0  0  0  0  0  0  0  0  0  0  0
  1  2  3  0  0  0  0
  2  3  1  0  0  0  0
  3  4  1  0  0  0  0
  3 20  1  0  0  0  0
  3 21  1  0  0  0  0
  4  5  2  0  0  0  0
  4  6  1  0  0  0  0
  6  7  1  0  0  0  0
  6 22  1  0  0  0  0
  7  8  1  0  0  0  0
  7 23  1  0  0  0  0
  7 24  1  0  0  0  0
  8 19  1  0  0  0  0
  8  9  1  0  0  0  0
  8 15  1  0  0  0  0
  9 14  1  0  0  0  0
  9 10  2  0  0  0  0
 10 11  1  0  0  0  0
 10 25  1  0  0  0  0
 11 12  2  0  0  0  0
 11 26  1  0  0  0  0
 12 13  1  0  0  0  0
 13 14  2  0  0  0  0
 13 27  1  0  0  0  0
 14 28  1  0  0  0  0
 15 16  1  0  0  0  0
 15 29  1  0  0  0  0
 15 30  1  0  0  0  0
 16 17  1  0  0  0  0
 16 31  1  0  0  0  0
 16 32  1  0  0  0  0
 17 18  1  0  0  0  0
 17 33  1  0  0  0  0
 17 34  1  0  0  0  0
 18 19  1  0  0  0  0
 18 35  1  0  0  0  0
 18 36  1  0  0  0  0
 19 37  1  0  0  0  0
 19 38  1  0  0  0  0
M  END
> <s_m_source_file>
AV-unprocessed.smi

> <i_m_source_file_index>
2743

> <i_lp_mmshare_version>
43012

> <i_f3d_flags>
0

> <s_epik_input>
TiNDW0NIMl1DKD1PKVtOSF1bQ0gyXUMxKFtDSDJdW0NIMl1bQ0gyXVtDSDJdW0NIMl0xKWMyW2NIXVtjSF1uW2NIXVtjSF0y

> <s_epik_cmdline>
J2VwaWtfcHl0aG9uJywgJy1waCcsICc3LjAnLCAnLXRuJywgJzgnLCAnLW1hJywgJzIwMCcsICctbWV0YWxfYmluZGluZycsICctaW1hZScsICc8aW5maWxlLm1hZT4nLCAnLW9tYWUnLCAnPG91dGZpbGUubWFlPic=

> <r_epik_Ionization_Penalty>
0.0541122

> <r_epik_Ionization_Penalty_Charging>
0

> <r_epik_Ionization_Penalty_Neutral>
0.0541122

> <r_epik_State_Penalty>
0.0465294

> <r_epik_Charging_Adjusted_Penalty>
0.0465294

> <i_epik_Tot_Q>
0

> <i_epik_Tot_abs_Q>
0

> <r_epik_Metal_State_Penalty>
0.042555

> <b_epik_Metal_Only>
0

> <s_lp_Force_Field>
OPLS_2005

> <r_lp_Energy>
19.5313

> <b_lp_Chiralities_Consistent>
1

> <s_lp_Variant>
AV-unprocessed.smi:2743-1

> <Gold.Version>
5.8.1

> <Gold.Id.Protein>
6NUR|6NUR_protein|mol2

> <Gold.PLP.Fitness>
36.1600

> <Gold.PLP.PLP>
-30.2691

> <Gold.PLP.part.hbond>
-2.1928

> <Gold.PLP.part.metal>
0.0000

> <Gold.PLP.part.buried>
1.0827

> <Gold.PLP.part.nonpolar>
-29.7085

> <Gold.PLP.part.repulsive>
0.0688

> <Gold.PLP.ligand.clash>
0.0000

> <Gold.PLP.ligand.torsion>
0.0649

> <Gold.PLP.Chemscore.Hbond>
1.0000

> <Gold.PLP.Chemscore.CHOScore>
1.0000

> <Gold.PLP.Chemscore.Metal>
0.0000

> <Gold.Chemscore.Hbonds>
donor molecule, donor type, donor heavy atom, donor atom, acceptor molecule, acceptor atom, score
      P1  H  6931  6943       L1     1  1.00
      L1  C    13    27       P1  7949  1.00

> <Gold.PLP.Chemscore.Internal.Correction>
0.0207

> <Gold.Rescore>
     Score         DG    S(hbond)    S(metal)    S(lipo)     H(rot)  DE(clash)    DE(int)     intcor
     12.92     -13.22       0.81        0.00      82.11       1.79       0.21       0.09       ----

> <Gold.Chemscore.Fitness>
12.9201

> <Gold.Chemscore.DG>
-13.2179

> <Gold.Chemscore.ZeroCoef>
-5.4800

> <Gold.Chemscore.Hbond>
0.8122

> <Gold.Chemscore.Metal>
0.0000

> <Gold.Chemscore.Lipo>
82.1066

> <Gold.Chemscore.Internal_Hbond>
0.0000

> <Gold.Chemscore.DEClash>
0.2054

> <Gold.Chemscore.DEInternal>
0.0925

> <Gold.Chemscore.Rot>
1.7895

> <Gold.Chemscore.Internal.Correction>
   9.000000E+99

> <Gold.Chemscore.Hbonds>
donor molecule, donor type, donor heavy atom, donor atom, acceptor molecule, acceptor atom, score
      P1  H  6931  6943       L1     1  0.39

> <Gold.Chemscore.Hbond.Weighted>
-2.7127

> <Gold.Chemscore.Metal.Weighted>
-0.0000

> <Gold.Chemscore.Lipo.Weighted>
-9.6065

> <Gold.Chemscore.Internal_Hbond.Weighted>
0.0000

> <Gold.Chemscore.DEClash.Weighted>
0.2054

> <Gold.Chemscore.DEInternal.Weighted>
0.0925

> <Gold.Chemscore.Rot.Weighted>
4.5812

> <Gold.Chemscore.Internal.Correction.Weighted>
   9.000000E+99

> <Gold.Protein.RotatedTorsions>
[ 6907 6896 6895 6894 ] final   93.07 input  -60.11 | X-H torsion
[ 7974 7965 7964 7962 ] final -126.50 input  175.53 | X-H torsion
[ 8008 7997 7996 7995 ] final  171.89 input   59.86 | X-H torsion
[ 10167 10162 10161 10158 ] final   75.55 input  -65.29 | X-H torsion
[ 10718 10713 10712 10709 ] final -124.09 input   66.30 | X-H torsion
[ 10763 10752 10751 10750 ] final  -79.20 input  -60.55 | X-H torsion
[ 11005 11000 10999 10996 ] final   73.71 input  -57.11 | X-H torsion

> <Gold.Protein.ActiveResidues>
 VAL166  LYS551  ARG553  GLY616  TRP617  ASP618  TYR619  PRO620  LYS621  CYS622 
 ASP623  PHE694  ASN695  SER759  ASP760  ASP761  ALA762  ILE779  LEU786  VAL792 
 PHE793  MET794  SER795  GLU796  ALA797  LYS798  CYS799  TRP800  GLU811  SER814 

> <Gold.Protein.RotatedAtoms>
  152.5453  134.1404  159.8476 H   0  0  0  0  0  0  0  0  0  0  0  0  # atno 6907 bound_to 6896
  151.1440  133.4944  159.2604 H   0  0  0  0  0  0  0  0  0  0  0  0  # atno 6908 bound_to 6896
  151.1542  135.0252  159.8736 H   0  0  0  0  0  0  0  0  0  0  0  0  # atno 6909 bound_to 6896
  144.9866  140.7692  143.4579 H   0  0  0  0  0  0  0  0  0  0  0  0  # atno 7974 bound_to 7965
  156.1227  140.1500  156.9180 H   0  0  0  0  0  0  0  0  0  0  0  0  # atno 8008 bound_to 7997
  154.4848  140.0868  156.7503 H   0  0  0  0  0  0  0  0  0  0  0  0  # atno 8009 bound_to 7997
  155.4399  140.3430  155.4291 H   0  0  0  0  0  0  0  0  0  0  0  0  # atno 8010 bound_to 7997
  140.0018  144.5680  150.7731 H   0  0  0  0  0  0  0  0  0  0  0  0  # atno 10167 bound_to 10162
  156.1558  130.6567  150.9979 H   0  0  0  0  0  0  0  0  0  0  0  0  # atno 10718 bound_to 10713
  154.5356  135.5704  153.6796 H   0  0  0  0  0  0  0  0  0  0  0  0  # atno 10763 bound_to 10752
  152.9950  135.6215  154.2570 H   0  0  0  0  0  0  0  0  0  0  0  0  # atno 10764 bound_to 10752
  154.2499  135.2859  155.2800 H   0  0  0  0  0  0  0  0  0  0  0  0  # atno 10765 bound_to 10752
  139.9426  134.7371  156.1060 H   0  0  0  0  0  0  0  0  0  0  0  0  # atno 11005 bound_to 11000
  145.2344  139.2100  143.5026 LP  0  0  0  0  0  0  0  0  0  0  0  0  # atno 17320 bound_to 7965
  146.3421  140.2228  142.8592 LP  0  0  0  0  0  0  0  0  0  0  0  0  # atno 17321 bound_to 7965
  140.7416  143.2820  151.3571 LP  0  0  0  0  0  0  0  0  0  0  0  0  # atno 17342 bound_to 10162
  139.6266  144.0801  152.2440 LP  0  0  0  0  0  0  0  0  0  0  0  0  # atno 17343 bound_to 10162
  157.6694  131.0865  150.7650 LP  0  0  0  0  0  0  0  0  0  0  0  0  # atno 17370 bound_to 10713
  156.7715  130.4830  149.5417 LP  0  0  0  0  0  0  0  0  0  0  0  0  # atno 17371 bound_to 10713
  141.1066  133.6658  156.2879 LP  0  0  0  0  0  0  0  0  0  0  0  0  # atno 17394 bound_to 11000
  140.5913  134.5647  157.5500 LP  0  0  0  0  0  0  0  0  0  0  0  0  # atno 17395 bound_to 11000

$$$$
