AV-unprocessed.smi:753|AV-procd|sdf|3599|dock9
  -GOLD-   22720 0593D 1   1.00000     0.00000
 Structure written by MMmdl.
 43 45  0  0  0  0  0  0  0  0  1 V2000
  152.1154  139.7103  156.2353 C   0  0  0  0  0  0  0  0  0  0  0  0
  150.8041  139.7880  155.4816 C   0  0  0  0  0  0  0  0  0  0  0  0
  150.0647  140.9890  155.4371 C   0  0  0  0  0  0  0  0  0  0  0  0
  148.8494  141.0024  154.7261 C   0  0  0  0  0  0  0  0  0  0  0  0
  148.4222  139.8200  154.0882 C   0  0  0  0  0  0  0  0  0  0  0  0
  147.1171  139.7803  153.3181 C   0  0  0  0  0  0  0  0  0  0  0  0
  146.2554  138.5692  153.7089 C   0  0  0  0  0  0  0  0  0  0  0  0
  146.5570  137.4096  152.8796 N   0  0  0  0  0  0  0  0  0  0  0  0
  145.6631  136.4861  152.4880 C   0  0  0  0  0  0  0  0  0  0  0  0
  144.4743  136.5174  152.8009 O   0  0  0  0  0  0  0  0  0  0  0  0
  146.1677  135.5100  151.7130 N   0  0  0  0  0  0  0  0  0  0  0  0
  145.4595  134.3683  151.1300 C   0  0  2  0  0  0  0  0  0  0  0  0
  144.6005  133.5974  152.1604 C   0  0  0  0  0  0  0  0  0  0  0  0
  145.1717  132.1695  152.0835 C   0  0  1  0  0  0  0  0  0  0  0  0
  144.8036  131.5395  150.7262 C   0  0  0  0  0  0  0  0  0  0  0  0
  145.7128  132.2979  149.7388 C   0  0  0  0  0  0  0  0  0  0  0  0
  146.4550  133.2860  150.6577 C   0  0  2  0  0  0  0  0  0  0  0  0
  146.6600  132.4405  151.9115 C   0  0  0  0  0  0  0  0  0  0  0  0
  149.2361  138.6723  154.1931 C   0  0  0  0  0  0  0  0  0  0  0  0
  150.4023  138.6497  154.8736 N   0  0  0  0  0  0  0  0  0  0  0  0
  152.3911  140.6799  156.6511 H   0  0  0  0  0  0  0  0  0  0  0  0
  152.9171  139.3854  155.5716 H   0  0  0  0  0  0  0  0  0  0  0  0
  152.0382  138.9974  157.0567 H   0  0  0  0  0  0  0  0  0  0  0  0
  150.4160  141.8798  155.9368 H   0  0  0  0  0  0  0  0  0  0  0  0
  148.2570  141.9041  154.6750 H   0  0  0  0  0  0  0  0  0  0  0  0
  146.5708  140.7073  153.4983 H   0  0  0  0  0  0  0  0  0  0  0  0
  147.3371  139.7557  152.2499 H   0  0  0  0  0  0  0  0  0  0  0  0
  146.4438  138.2981  154.7482 H   0  0  0  0  0  0  0  0  0  0  0  0
  145.1943  138.8151  153.6392 H   0  0  0  0  0  0  0  0  0  0  0  0
  147.5132  137.3030  152.5735 H   0  0  0  0  0  0  0  0  0  0  0  0
  147.1547  135.5643  151.5070 H   0  0  0  0  0  0  0  0  0  0  0  0
  144.8560  134.7130  150.2882 H   0  0  0  0  0  0  0  0  0  0  0  0
  144.7226  133.9997  153.1676 H   0  0  0  0  0  0  0  0  0  0  0  0
  143.5374  133.6312  151.9194 H   0  0  0  0  0  0  0  0  0  0  0  0
  144.9118  131.5478  152.9408 H   0  0  0  0  0  0  0  0  0  0  0  0
  145.0331  130.4731  150.7166 H   0  0  0  0  0  0  0  0  0  0  0  0
  143.7450  131.6563  150.4915 H   0  0  0  0  0  0  0  0  0  0  0  0
  146.4139  131.6122  149.2610 H   0  0  0  0  0  0  0  0  0  0  0  0
  145.1488  132.7997  148.9517 H   0  0  0  0  0  0  0  0  0  0  0  0
  147.3683  133.6836  150.2129 H   0  0  0  0  0  0  0  0  0  0  0  0
  147.0986  132.9943  152.7434 H   0  0  0  0  0  0  0  0  0  0  0  0
  147.2471  131.5375  151.7339 H   0  0  0  0  0  0  0  0  0  0  0  0
  148.9415  137.7457  153.7225 H   0  0  0  0  0  0  0  0  0  0  0  0
  1  2  1  0  0  0  0
  1 21  1  0  0  0  0
  1 22  1  0  0  0  0
  1 23  1  0  0  0  0
  2 20  1  0  0  0  0
  2  3  2  0  0  0  0
  3  4  1  0  0  0  0
  3 24  1  0  0  0  0
  4  5  2  0  0  0  0
  4 25  1  0  0  0  0
  5  6  1  0  0  0  0
  5 19  1  0  0  0  0
  6  7  1  0  0  0  0
  6 26  1  0  0  0  0
  6 27  1  0  0  0  0
  7  8  1  0  0  0  0
  7 28  1  0  0  0  0
  7 29  1  0  0  0  0
  8  9  1  0  0  0  0
  8 30  1  0  0  0  0
  9 10  2  0  0  0  0
  9 11  1  0  0  0  0
 11 12  1  0  0  0  0
 11 31  1  0  0  0  0
 12 17  1  0  0  0  0
 12 13  1  0  0  0  0
 12 32  1  0  0  0  0
 13 14  1  0  0  0  0
 13 33  1  0  0  0  0
 13 34  1  0  0  0  0
 14 18  1  0  0  0  0
 14 15  1  0  0  0  0
 14 35  1  0  0  0  0
 15 16  1  0  0  0  0
 15 36  1  0  0  0  0
 15 37  1  0  0  0  0
 16 17  1  0  0  0  0
 16 38  1  0  0  0  0
 16 39  1  0  0  0  0
 17 18  1  0  0  0  0
 17 40  1  0  0  0  0
 18 41  1  0  0  0  0
 18 42  1  0  0  0  0
 19 20  2  0  0  0  0
 19 43  1  0  0  0  0
M  END
> <s_m_source_file>
AV-unprocessed.smi

> <i_m_source_file_index>
753

> <i_lp_mmshare_version>
43012

> <i_f3d_flags>
0

> <s_epik_input>
W0NIM11jMVtjSF1bY0hdYyhbY0hdbjEpW0NIMl1bQ0gyXVtOSF1DKD1PKVtOSF1bQ0BIXShbQ0gyXVtDQEBIXTIzKVtDQEBIXShbQ0gyXTMpW0NIMl1bQ0gyXTI=

> <s_epik_cmdline>
J2VwaWtfcHl0aG9uJywgJy1waCcsICc3LjAnLCAnLXRuJywgJzgnLCAnLW1hJywgJzIwMCcsICctbWV0YWxfYmluZGluZycsICctaW1hZScsICc8aW5maWxlLm1hZT4nLCAnLW9tYWUnLCAnPG91dGZpbGUubWFlPic=

> <r_epik_Ionization_Penalty>
0.0569047

> <r_epik_Ionization_Penalty_Charging>
0

> <r_epik_Ionization_Penalty_Neutral>
0.0569047

> <r_epik_State_Penalty>
0.0490541

> <r_epik_Charging_Adjusted_Penalty>
0.0490541

> <i_epik_Tot_Q>
0

> <i_epik_Tot_abs_Q>
0

> <r_epik_Metal_State_Penalty>
0.0447357

> <b_epik_Metal_Only>
0

> <s_lp_Force_Field>
OPLS_2005

> <r_lp_Energy>
50.812

> <b_lp_Chiralities_Consistent>
1

> <s_lp_Variant>
AV-unprocessed.smi:753-1

> <Gold.Version>
5.8.1

> <Gold.Id.Protein>
6NUR|6NUR_protein|mol2

> <Gold.PLP.Fitness>
45.8028

> <Gold.PLP.PLP>
-38.0396

> <Gold.PLP.part.hbond>
-2.0000

> <Gold.PLP.part.metal>
0.0000

> <Gold.PLP.part.buried>
-2.6558

> <Gold.PLP.part.nonpolar>
-33.8034

> <Gold.PLP.part.repulsive>
0.3721

> <Gold.PLP.ligand.clash>
0.0000

> <Gold.PLP.ligand.torsion>
0.6346

> <Gold.PLP.Chemscore.Hbond>
2.0000

> <Gold.PLP.Chemscore.CHOScore>
1.0000

> <Gold.PLP.Chemscore.Metal>
0.0000

> <Gold.Chemscore.Hbonds>
donor molecule, donor type, donor heavy atom, donor atom, acceptor molecule, acceptor atom, score
      L1  H     8    30       P1  7948  1.00
      L1  H    11    31       P1  7948  1.00
      L1  C    19    43       P1  7948  1.00

> <Gold.PLP.Chemscore.Internal.Correction>
0.0323

> <Gold.Rescore>
     Score         DG    S(hbond)    S(metal)    S(lipo)     H(rot)  DE(clash)    DE(int)     intcor
     19.54     -20.02       1.90        0.00     101.15       1.43       0.07       0.41       ----

> <Gold.Chemscore.Fitness>
19.5368

> <Gold.Chemscore.DG>
-20.0154

> <Gold.Chemscore.ZeroCoef>
-5.4800

> <Gold.Chemscore.Hbond>
1.9041

> <Gold.Chemscore.Metal>
0.0000

> <Gold.Chemscore.Lipo>
101.1458

> <Gold.Chemscore.Internal_Hbond>
0.0000

> <Gold.Chemscore.DEClash>
0.0688

> <Gold.Chemscore.DEInternal>
0.4098

> <Gold.Chemscore.Rot>
1.4291

> <Gold.Chemscore.Internal.Correction>
   9.000000E+99

> <Gold.Chemscore.Hbonds>
donor molecule, donor type, donor heavy atom, donor atom, acceptor molecule, acceptor atom, score
      L1  H     8    30       P1  7948  0.96
      L1  H    11    31       P1  7948  0.96

> <Gold.Chemscore.Hbond.Weighted>
-6.3598

> <Gold.Chemscore.Metal.Weighted>
-0.0000

> <Gold.Chemscore.Lipo.Weighted>
-11.8341

> <Gold.Chemscore.Internal_Hbond.Weighted>
0.0000

> <Gold.Chemscore.DEClash.Weighted>
0.0688

> <Gold.Chemscore.DEInternal.Weighted>
0.4098

> <Gold.Chemscore.Rot.Weighted>
3.6585

> <Gold.Chemscore.Internal.Correction.Weighted>
   9.000000E+99

> <Gold.Protein.RotatedTorsions>
[ 6907 6896 6895 6894 ] final  104.80 input  -60.11 | X-H torsion
[ 7974 7965 7964 7962 ] final  -33.54 input  175.53 | X-H torsion
[ 8008 7997 7996 7995 ] final -118.64 input   59.86 | X-H torsion
[ 10167 10162 10161 10158 ] final  -57.75 input  -65.29 | X-H torsion
[ 10718 10713 10712 10709 ] final -172.09 input   66.30 | X-H torsion
[ 10763 10752 10751 10750 ] final  -56.42 input  -60.55 | X-H torsion
[ 11005 11000 10999 10996 ] final   96.39 input  -57.11 | X-H torsion

> <Gold.Protein.ActiveResidues>
 VAL166  LYS551  ARG553  GLY616  TRP617  ASP618  TYR619  PRO620  LYS621  CYS622 
 ASP623  PHE694  ASN695  SER759  ASP760  ASP761  ALA762  ILE779  LEU786  VAL792 
 PHE793  MET794  SER795  GLU796  ALA797  LYS798  CYS799  TRP800  GLU811  SER814 

> <Gold.Protein.RotatedAtoms>
  152.5252  133.9623  159.7722 H   0  0  0  0  0  0  0  0  0  0  0  0  # atno 6907 bound_to 6896
  150.9911  133.6140  159.2715 H   0  0  0  0  0  0  0  0  0  0  0  0  # atno 6908 bound_to 6896
  151.3283  135.0841  159.9383 H   0  0  0  0  0  0  0  0  0  0  0  0  # atno 6909 bound_to 6896
  146.0902  140.5929  142.8868 H   0  0  0  0  0  0  0  0  0  0  0  0  # atno 7974 bound_to 7965
  155.1029  140.0396  157.2702 H   0  0  0  0  0  0  0  0  0  0  0  0  # atno 8008 bound_to 7997
  154.6744  140.2619  155.6947 H   0  0  0  0  0  0  0  0  0  0  0  0  # atno 8009 bound_to 7997
  156.2671  140.2791  156.1266 H   0  0  0  0  0  0  0  0  0  0  0  0  # atno 8010 bound_to 7997
  140.6239  143.2430  151.5412 H   0  0  0  0  0  0  0  0  0  0  0  0  # atno 10167 bound_to 10162
  156.7504  130.9376  151.3114 H   0  0  0  0  0  0  0  0  0  0  0  0  # atno 10718 bound_to 10713
  154.2063  135.6402  153.5102 H   0  0  0  0  0  0  0  0  0  0  0  0  # atno 10763 bound_to 10752
  153.0000  135.5463  154.6262 H   0  0  0  0  0  0  0  0  0  0  0  0  # atno 10764 bound_to 10752
  154.5688  135.2915  155.0821 H   0  0  0  0  0  0  0  0  0  0  0  0  # atno 10765 bound_to 10752
  139.8782  134.8948  156.4152 H   0  0  0  0  0  0  0  0  0  0  0  0  # atno 11005 bound_to 11000
  144.7355  140.4795  143.6907 LP  0  0  0  0  0  0  0  0  0  0  0  0  # atno 17320 bound_to 7965
  145.6053  139.1507  143.3106 LP  0  0  0  0  0  0  0  0  0  0  0  0  # atno 17321 bound_to 7965
  139.5462  144.2514  152.1447 LP  0  0  0  0  0  0  0  0  0  0  0  0  # atno 17342 bound_to 10162
  140.1740  144.4908  150.6564 LP  0  0  0  0  0  0  0  0  0  0  0  0  # atno 17343 bound_to 10162
  157.6779  130.9112  150.0195 LP  0  0  0  0  0  0  0  0  0  0  0  0  # atno 17370 bound_to 10713
  156.1405  130.3642  149.9590 LP  0  0  0  0  0  0  0  0  0  0  0  0  # atno 17371 bound_to 10713
  140.9172  133.7670  155.9863 LP  0  0  0  0  0  0  0  0  0  0  0  0  # atno 17394 bound_to 11000
  140.8480  134.2988  157.5287 LP  0  0  0  0  0  0  0  0  0  0  0  0  # atno 17395 bound_to 11000

$$$$
