AV-unprocessed.smi:3231|AV-procd|sdf|12336|dock1
  -GOLD-   2272018193D 1   1.00000     0.00000
 Structure written by MMmdl.
 42 43  0  0  0  0  0  0  0  0  3 V2000
  149.1201  141.1585  153.1237 O   0  0  0  0  0  0  0  0  0  0  0  0
  148.6152  140.7594  154.3823 C   0  0  1  0  0  0  0  0  0  0  0  0
  148.1117  139.3114  154.2326 C   0  0  0  0  0  0  0  0  0  0  0  0
  148.0178  138.9063  152.8152 N   0  3  0  0  0  0  0  0  0  0  0  0
  146.6359  138.6875  152.3461 C   0  0  0  0  0  0  0  0  0  0  0  0
  145.9673  137.5405  153.1170 C   0  0  0  0  0  0  0  0  0  0  0  0
  145.3700  136.5689  152.2219 N   0  0  0  0  0  0  0  0  0  0  0  0
  145.9165  135.9853  151.0982 C   0  0  0  0  0  0  0  0  0  0  0  0
  144.9770  135.1385  150.5839 C   0  0  0  0  0  0  0  0  0  0  0  0
  143.8738  135.2768  151.4718 C   0  0  0  0  0  0  0  0  0  0  0  0
  144.1123  136.1347  152.4510 N   0  0  0  0  0  0  0  0  0  0  0  0
  149.7431  140.8862  155.4311 C   0  0  0  0  0  0  0  0  0  0  0  0
  149.4917  141.9443  156.4446 N   0  3  0  0  0  0  0  0  0  0  0  0
  148.3681  141.6373  157.3651 C   0  0  0  0  0  0  0  0  0  0  0  0
  148.1600  142.7873  158.3660 C   0  0  0  0  0  0  0  0  0  0  0  0
  149.3657  143.0216  159.0819 O   0  0  0  0  0  0  0  0  0  0  0  0
  150.4274  143.4102  158.2202 C   0  0  0  0  0  0  0  0  0  0  0  0
  150.7132  142.2810  157.2156 C   0  0  0  0  0  0  0  0  0  0  0  0
  149.1784  140.4030  152.5591 H   0  0  0  0  0  0  0  0  0  0  0  0
  147.7696  141.4022  154.6253 H   0  0  0  0  0  0  0  0  0  0  0  0
  148.7997  138.6258  154.7301 H   0  0  0  0  0  0  0  0  0  0  0  0
  147.1411  139.1938  154.7174 H   0  0  0  0  0  0  0  0  0  0  0  0
  148.4343  139.6268  152.2433 H   0  0  0  0  0  0  0  0  0  0  0  0
  146.0609  139.6061  152.4719 H   0  0  0  0  0  0  0  0  0  0  0  0
  146.6551  138.4622  151.2789 H   0  0  0  0  0  0  0  0  0  0  0  0
  146.6942  137.0270  153.7484 H   0  0  0  0  0  0  0  0  0  0  0  0
  145.1900  137.9275  153.7774 H   0  0  0  0  0  0  0  0  0  0  0  0
  146.9164  136.2170  150.7613 H   0  0  0  0  0  0  0  0  0  0  0  0
  145.0636  134.5159  149.7058 H   0  0  0  0  0  0  0  0  0  0  0  0
  142.9138  134.7833  151.4341 H   0  0  0  0  0  0  0  0  0  0  0  0
  149.8977  139.9368  155.9459 H   0  0  0  0  0  0  0  0  0  0  0  0
  150.6773  141.1011  154.9089 H   0  0  0  0  0  0  0  0  0  0  0  0
  147.4458  141.4797  156.8077 H   0  0  0  0  0  0  0  0  0  0  0  0
  148.5776  140.7121  157.9044 H   0  0  0  0  0  0  0  0  0  0  0  0
  147.8421  143.6977  157.8550 H   0  0  0  0  0  0  0  0  0  0  0  0
  147.3730  142.5297  159.0751 H   0  0  0  0  0  0  0  0  0  0  0  0
  150.1746  144.3381  157.7046 H   0  0  0  0  0  0  0  0  0  0  0  0
  151.3143  143.6116  158.8212 H   0  0  0  0  0  0  0  0  0  0  0  0
  151.0701  141.3948  157.7426 H   0  0  0  0  0  0  0  0  0  0  0  0
  151.5073  142.5917  156.5357 H   0  0  0  0  0  0  0  0  0  0  0  0
  148.5382  138.0496  152.6893 H   0  0  0  0  0  0  0  0  0  0  0  0
  149.2422  142.7816  155.9377 H   0  0  0  0  0  0  0  0  0  0  0  0
  1  2  1  0  0  0  0
  1 19  1  0  0  0  0
  2  3  1  0  0  0  0
  2 12  1  0  0  0  0
  2 20  1  0  0  0  0
  3  4  1  0  0  0  0
  3 21  1  0  0  0  0
  3 22  1  0  0  0  0
  4  5  1  0  0  0  0
  4 23  1  0  0  0  0
  4 41  1  0  0  0  0
  5  6  1  0  0  0  0
  5 24  1  0  0  0  0
  5 25  1  0  0  0  0
  6  7  1  0  0  0  0
  6 26  1  0  0  0  0
  6 27  1  0  0  0  0
  7 11  1  0  0  0  0
  7  8  1  0  0  0  0
  8  9  2  0  0  0  0
  8 28  1  0  0  0  0
  9 10  1  0  0  0  0
  9 29  1  0  0  0  0
 10 11  2  0  0  0  0
 10 30  1  0  0  0  0
 12 13  1  0  0  0  0
 12 31  1  0  0  0  0
 12 32  1  0  0  0  0
 13 18  1  0  0  0  0
 13 14  1  0  0  0  0
 13 42  1  0  0  0  0
 14 15  1  0  0  0  0
 14 33  1  0  0  0  0
 14 34  1  0  0  0  0
 15 16  1  0  0  0  0
 15 35  1  0  0  0  0
 15 36  1  0  0  0  0
 16 17  1  0  0  0  0
 17 18  1  0  0  0  0
 17 37  1  0  0  0  0
 17 38  1  0  0  0  0
 18 39  1  0  0  0  0
 18 40  1  0  0  0  0
M  CHG  1   4   1
M  CHG  1  13   1
M  END
> <s_m_source_file>
AV-unprocessed.smi

> <i_m_source_file_index>
3231

> <i_lp_mmshare_version>
43012

> <i_f3d_flags>
0

> <s_epik_input>
W0NIMl0xW0NIMl1PW0NIMl1bQ0gyXU4xW0NIMl1bQ0BIXShbT0hdKVtDSDJdW05IXVtDSDJdW0NIMl1uMltjSF1bY0hdW2NIXW4y

> <s_epik_cmdline>
J2VwaWtfcHl0aG9uJywgJy1waCcsICc3LjAnLCAnLXRuJywgJzgnLCAnLW1hJywgJzIwMCcsICctbWV0YWxfYmluZGluZycsICctaW1hZScsICc8aW5maWxlLm1hZT4nLCAnLW9tYWUnLCAnPG91dGZpbGUubWFlPic=

> <r_lp_tautomer_probability>
1

> <r_epik_Ionization_Penalty>
2.09881

> <r_epik_Ionization_Penalty_Charging>
2.09628

> <r_epik_Ionization_Penalty_Neutral>
0.0025303

> <r_epik_State_Penalty>
1.58657

> <r_epik_Charging_Adjusted_Penalty>
3.68285

> <i_epik_Tot_Q>
2

> <i_epik_Tot_abs_Q>
2

> <r_epik_Metal_State_Penalty>
1.58685

> <b_epik_Metal_Only>
0

> <s_lp_Force_Field>
OPLS_2005

> <r_lp_Energy>
27.3068

> <b_lp_Chiralities_Consistent>
1

> <s_lp_Variant>
AV-unprocessed.smi:3231-6

> <Gold.Version>
5.8.1

> <Gold.Id.Protein>
6NUR|6NUR_protein|mol2

> <Gold.PLP.Fitness>
53.5240

> <Gold.PLP.PLP>
-33.5832

> <Gold.PLP.part.hbond>
-6.1844

> <Gold.PLP.part.metal>
0.0000

> <Gold.PLP.part.buried>
-4.4753

> <Gold.PLP.part.nonpolar>
-24.5192

> <Gold.PLP.part.repulsive>
0.3935

> <Gold.PLP.ligand.clash>
0.0000

> <Gold.PLP.ligand.torsion>
2.3212

> <Gold.PLP.Chemscore.Hbond>
6.7113

> <Gold.PLP.Chemscore.CHOScore>
1.3290

> <Gold.PLP.Chemscore.Metal>
0.0000

> <Gold.Chemscore.Hbonds>
donor molecule, donor type, donor heavy atom, donor atom, acceptor molecule, acceptor atom, score
      L1  H     1    19       P1  7957  0.74
      L1  H     4    23       P1  7957  0.94
      L1  H     4    41       P1  7948  2.00
      L1  H    13    42       P1  8028  2.00
      P1  H  8011  8017       L1     1  1.00
      L1  C     8    28       P1  7948  1.00
      L1  C    10    30       P1 10186  0.29

> <Gold.PLP.Chemscore.Internal.Correction>
0.4622

> <Gold.Rescore>
     Score         DG    S(hbond)    S(metal)    S(lipo)     H(rot)  DE(clash)    DE(int)     intcor
     17.91     -20.18       4.17        0.00      70.97       2.94       0.01       2.26       ----

> <Gold.Chemscore.Fitness>
17.9095

> <Gold.Chemscore.DG>
-20.1833

> <Gold.Chemscore.ZeroCoef>
-5.4800

> <Gold.Chemscore.Hbond>
4.1725

> <Gold.Chemscore.Metal>
0.0000

> <Gold.Chemscore.Lipo>
70.9662

> <Gold.Chemscore.Internal_Hbond>
0.0000

> <Gold.Chemscore.DEClash>
0.0127

> <Gold.Chemscore.DEInternal>
2.2611

> <Gold.Chemscore.Rot>
2.9437

> <Gold.Chemscore.Internal.Correction>
   9.000000E+99

> <Gold.Chemscore.Hbonds>
donor molecule, donor type, donor heavy atom, donor atom, acceptor molecule, acceptor atom, score
      L1  H     1    19       P1  7957  0.70
      L1  H     4    23       P1  7957  0.91
      L1  H     4    41       P1  7948  0.93
      L1  H    13    42       P1  8028  0.96
      P1  H  8011  8017       L1     1  0.59

> <Gold.Chemscore.Hbond.Weighted>
-13.9361

> <Gold.Chemscore.Metal.Weighted>
-0.0000

> <Gold.Chemscore.Lipo.Weighted>
-8.3030

> <Gold.Chemscore.Internal_Hbond.Weighted>
0.0000

> <Gold.Chemscore.DEClash.Weighted>
0.0127

> <Gold.Chemscore.DEInternal.Weighted>
2.2611

> <Gold.Chemscore.Rot.Weighted>
7.5359

> <Gold.Chemscore.Internal.Correction.Weighted>
   9.000000E+99

> <Gold.Protein.RotatedTorsions>
[ 6907 6896 6895 6894 ] final   93.33 input  -60.11 | X-H torsion
[ 7974 7965 7964 7962 ] final  -28.33 input  175.53 | X-H torsion
[ 8008 7997 7996 7995 ] final    8.68 input   59.86 | X-H torsion
[ 10167 10162 10161 10158 ] final   73.90 input  -65.29 | X-H torsion
[ 10718 10713 10712 10709 ] final   54.64 input   66.30 | X-H torsion
[ 10763 10752 10751 10750 ] final  -41.65 input  -60.55 | X-H torsion
[ 11005 11000 10999 10996 ] final  -95.03 input  -57.11 | X-H torsion

> <Gold.Protein.ActiveResidues>
 VAL166  LYS551  ARG553  GLY616  TRP617  ASP618  TYR619  PRO620  LYS621  CYS622 
 ASP623  PHE694  ASN695  SER759  ASP760  ASP761  ALA762  ILE779  LEU786  VAL792 
 PHE793  MET794  SER795  GLU796  ALA797  LYS798  CYS799  TRP800  GLU811  SER814 

> <Gold.Protein.RotatedAtoms>
  152.5452  134.1364  159.8460 H   0  0  0  0  0  0  0  0  0  0  0  0  # atno 6907 bound_to 6896
  151.1404  133.4968  159.2604 H   0  0  0  0  0  0  0  0  0  0  0  0  # atno 6908 bound_to 6896
  151.1579  135.0269  159.8752 H   0  0  0  0  0  0  0  0  0  0  0  0  # atno 6909 bound_to 6896
  146.1295  140.5269  142.8699 H   0  0  0  0  0  0  0  0  0  0  0  0  # atno 7974 bound_to 7965
  154.7700  140.2800  155.6145 H   0  0  0  0  0  0  0  0  0  0  0  0  # atno 8008 bound_to 7997
  156.2932  140.2643  156.2428 H   0  0  0  0  0  0  0  0  0  0  0  0  # atno 8009 bound_to 7997
  154.9911  140.0373  157.2309 H   0  0  0  0  0  0  0  0  0  0  0  0  # atno 8010 bound_to 7997
  140.0195  144.5551  150.7593 H   0  0  0  0  0  0  0  0  0  0  0  0  # atno 10167 bound_to 10162
  157.5275  130.8607  149.8641 H   0  0  0  0  0  0  0  0  0  0  0  0  # atno 10718 bound_to 10713
  153.9660  135.6734  153.4746 H   0  0  0  0  0  0  0  0  0  0  0  0  # atno 10763 bound_to 10752
  153.0815  135.4921  154.8509 H   0  0  0  0  0  0  0  0  0  0  0  0  # atno 10764 bound_to 10752
  154.7246  135.3124  154.8953 H   0  0  0  0  0  0  0  0  0  0  0  0  # atno 10765 bound_to 10752
  141.1454  133.7997  157.0379 H   0  0  0  0  0  0  0  0  0  0  0  0  # atno 11005 bound_to 11000
  144.7676  140.5566  143.6692 LP  0  0  0  0  0  0  0  0  0  0  0  0  # atno 17320 bound_to 7965
  145.5291  139.1475  143.3509 LP  0  0  0  0  0  0  0  0  0  0  0  0  # atno 17321 bound_to 7965
  140.7348  143.2733  151.3819 LP  0  0  0  0  0  0  0  0  0  0  0  0  # atno 17342 bound_to 10162
  139.6149  144.1023  152.2336 LP  0  0  0  0  0  0  0  0  0  0  0  0  # atno 17343 bound_to 10162
  156.0397  130.3742  150.1466 LP  0  0  0  0  0  0  0  0  0  0  0  0  # atno 17370 bound_to 10713
  156.9652  130.9817  151.3470 LP  0  0  0  0  0  0  0  0  0  0  0  0  # atno 17371 bound_to 10713
  140.0711  134.9701  157.1469 LP  0  0  0  0  0  0  0  0  0  0  0  0  # atno 17394 bound_to 11000
  140.3709  134.2391  155.7178 LP  0  0  0  0  0  0  0  0  0  0  0  0  # atno 17395 bound_to 11000

$$$$
