AV-unprocessed.smi:910|AV-procd|sdf|4124|dock10
  -GOLD-   22720 2 23D 1   1.00000     0.00000
 Structure written by MMmdl.
 46 47  0  0  0  0  0  0  0  0  1 V2000
  147.1052  137.7653  154.7875 C   0  0  0  0  0  0  0  0  0  0  0  0
  148.1322  138.8634  154.6195 C   0  0  0  0  0  0  0  0  0  0  0  0
  149.3111  138.8670  155.3123 N   0  0  0  0  0  0  0  0  0  0  0  0
  150.0329  139.9986  154.9399 C   0  0  0  0  0  0  0  0  0  0  0  0
  151.1928  140.4629  155.2915 N   0  0  0  0  0  0  0  0  0  0  0  0
  151.9514  139.7877  156.2370 C   0  0  0  0  0  0  0  0  0  0  0  0
  153.0902  139.3246  156.1184 O   0  0  0  0  0  0  0  0  0  0  0  0
  151.2742  139.6978  157.3913 N   0  0  0  0  0  0  0  0  0  0  0  0
  151.7634  139.0774  158.6184 C   0  0  0  0  0  0  0  0  0  0  0  0
  152.7156  140.0055  159.3862 C   0  0  0  0  0  0  0  0  0  0  0  0
  152.6852  141.2915  158.7849 O   0  0  0  0  0  0  0  0  0  0  0  0
  151.8155  142.2199  159.4199 C   0  0  2  0  0  0  0  0  0  0  0  0
  151.2513  143.1982  158.3684 C   0  0  0  0  0  0  0  0  0  0  0  0
  150.4176  144.3104  159.0212 C   0  0  0  0  0  0  0  0  0  0  0  0
  151.2335  145.0586  160.0846 C   0  0  0  0  0  0  0  0  0  0  0  0
  151.7874  144.0878  161.1387 C   0  0  0  0  0  0  0  0  0  0  0  0
  152.6315  142.9676  160.4981 C   0  0  1  0  0  0  0  0  0  0  0  0
  153.1668  142.0073  161.5738 C   0  0  0  0  0  0  0  0  0  0  0  0
  149.2595  140.6584  154.0181 O   0  0  0  0  0  0  0  0  0  0  0  0
  148.1113  139.9455  153.8460 C   0  0  0  0  0  0  0  0  0  0  0  0
  147.0744  140.4597  152.8731 C   0  0  0  0  0  0  0  0  0  0  0  0
  146.9365  137.2587  153.8371 H   0  0  0  0  0  0  0  0  0  0  0  0
  146.1578  138.1837  155.1277 H   0  0  0  0  0  0  0  0  0  0  0  0
  147.4372  137.0260  155.5171 H   0  0  0  0  0  0  0  0  0  0  0  0
  149.5726  138.1502  155.9739 H   0  0  0  0  0  0  0  0  0  0  0  0
  150.3507  140.1047  157.4269 H   0  0  0  0  0  0  0  0  0  0  0  0
  150.9057  138.8277  159.2434 H   0  0  0  0  0  0  0  0  0  0  0  0
  152.2613  138.1351  158.3848 H   0  0  0  0  0  0  0  0  0  0  0  0
  152.4037  140.0677  160.4286 H   0  0  0  0  0  0  0  0  0  0  0  0
  153.7288  139.6012  159.3744 H   0  0  0  0  0  0  0  0  0  0  0  0
  150.9938  141.6968  159.9132 H   0  0  0  0  0  0  0  0  0  0  0  0
  152.0736  143.6444  157.8076 H   0  0  0  0  0  0  0  0  0  0  0  0
  150.6362  142.6670  157.6425 H   0  0  0  0  0  0  0  0  0  0  0  0
  150.0688  145.0089  158.2601 H   0  0  0  0  0  0  0  0  0  0  0  0
  149.5260  143.8794  159.4785 H   0  0  0  0  0  0  0  0  0  0  0  0
  152.0578  145.5905  159.6076 H   0  0  0  0  0  0  0  0  0  0  0  0
  150.6131  145.8157  160.5651 H   0  0  0  0  0  0  0  0  0  0  0  0
  152.3882  144.6404  161.8618 H   0  0  0  0  0  0  0  0  0  0  0  0
  150.9588  143.6508  161.6976 H   0  0  0  0  0  0  0  0  0  0  0  0
  153.4905  143.4323  160.0114 H   0  0  0  0  0  0  0  0  0  0  0  0
  152.3529  141.5080  162.1000 H   0  0  0  0  0  0  0  0  0  0  0  0
  153.7635  142.5418  162.3133 H   0  0  0  0  0  0  0  0  0  0  0  0
  153.8028  141.2354  161.1392 H   0  0  0  0  0  0  0  0  0  0  0  0
  146.0709  140.3151  153.2737 H   0  0  0  0  0  0  0  0  0  0  0  0
  147.1499  139.9267  151.9252 H   0  0  0  0  0  0  0  0  0  0  0  0
  147.2204  141.5237  152.6855 H   0  0  0  0  0  0  0  0  0  0  0  0
  1 22  1  0  0  0  0
  1 23  1  0  0  0  0
  1 24  1  0  0  0  0
  1  2  1  0  0  0  0
  2  3  1  0  0  0  0
  2 20  2  0  0  0  0
  3 25  1  0  0  0  0
  3  4  1  0  0  0  0
  4 19  1  0  0  0  0
  4  5  2  0  0  0  0
  5  6  1  0  0  0  0
  6  8  1  0  0  0  0
  6  7  2  0  0  0  0
  8  9  1  0  0  0  0
  8 26  1  0  0  0  0
  9 10  1  0  0  0  0
  9 27  1  0  0  0  0
  9 28  1  0  0  0  0
 10 11  1  0  0  0  0
 10 29  1  0  0  0  0
 10 30  1  0  0  0  0
 11 12  1  0  0  0  0
 12 17  1  0  0  0  0
 12 13  1  0  0  0  0
 12 31  1  0  0  0  0
 13 14  1  0  0  0  0
 13 32  1  0  0  0  0
 13 33  1  0  0  0  0
 14 15  1  0  0  0  0
 14 34  1  0  0  0  0
 14 35  1  0  0  0  0
 15 16  1  0  0  0  0
 15 36  1  0  0  0  0
 15 37  1  0  0  0  0
 16 17  1  0  0  0  0
 16 38  1  0  0  0  0
 16 39  1  0  0  0  0
 17 18  1  0  0  0  0
 17 40  1  0  0  0  0
 18 41  1  0  0  0  0
 18 42  1  0  0  0  0
 18 43  1  0  0  0  0
 19 20  1  0  0  0  0
 20 21  1  0  0  0  0
 21 44  1  0  0  0  0
 21 45  1  0  0  0  0
 21 46  1  0  0  0  0
M  END
> <s_m_source_file>
AV-unprocessed.smi

> <i_m_source_file_index>
910

> <i_lp_mmshare_version>
43012

> <i_f3d_flags>
0

> <s_epik_input>
W0NIM11jMW5jKG9jMVtDSDNdKVtOSF1DKD1PKVtOSF1bQ0gyXVtDSDJdT1tDQEBIXTJbQ0gyXVtDSDJdW0NIMl1bQ0gyXVtDQEhdMltDSDNd

> <s_epik_cmdline>
J2VwaWtfcHl0aG9uJywgJy1waCcsICc3LjAnLCAnLXRuJywgJzgnLCAnLW1hJywgJzIwMCcsICctbWV0YWxfYmluZGluZycsICctaW1hZScsICc8aW5maWxlLm1hZT4nLCAnLW9tYWUnLCAnPG91dGZpbGUubWFlPic=

> <r_lp_tautomer_probability>
0.107061

> <r_epik_Ionization_Penalty>
0.727192

> <r_epik_Ionization_Penalty_Charging>
0.726719

> <r_epik_Ionization_Penalty_Neutral>
0.000473387

> <r_epik_State_Penalty>
2.53712

> <r_epik_Charging_Adjusted_Penalty>
3.26383

> <i_epik_Tot_Q>
0

> <i_epik_Tot_abs_Q>
0

> <r_epik_Metal_State_Penalty>
3.71015

> <b_epik_Metal_Only>
0

> <s_lp_Force_Field>
OPLS_2005

> <r_lp_Energy>
31.238

> <b_lp_Chiralities_Consistent>
1

> <s_lp_Variant>
AV-unprocessed.smi:910-9

> <Gold.Version>
5.8.1

> <Gold.Id.Protein>
6NUR|6NUR_protein|mol2

> <Gold.PLP.Fitness>
41.9178

> <Gold.PLP.PLP>
-39.7471

> <Gold.PLP.part.hbond>
-2.5126

> <Gold.PLP.part.metal>
0.0000

> <Gold.PLP.part.buried>
-5.1886

> <Gold.PLP.part.nonpolar>
-33.4868

> <Gold.PLP.part.repulsive>
1.3720

> <Gold.PLP.ligand.clash>
0.0215

> <Gold.PLP.ligand.torsion>
1.6850

> <Gold.PLP.Chemscore.Hbond>
1.8432

> <Gold.PLP.Chemscore.CHOScore>
0.0000

> <Gold.PLP.Chemscore.Metal>
0.0000

> <Gold.Chemscore.Hbonds>
donor molecule, donor type, donor heavy atom, donor atom, acceptor molecule, acceptor atom, score
      P1  H  7989  7998       L1     5  0.57
      P1  H  7997  8008       L1     7  0.99

> <Gold.PLP.Chemscore.Internal.Correction>
0.0326

> <Gold.Rescore>
     Score         DG    S(hbond)    S(metal)    S(lipo)     H(rot)  DE(clash)    DE(int)     intcor
     14.69     -18.98       1.73        0.00     102.22       1.66       1.53       2.76       ----

> <Gold.Chemscore.Fitness>
14.6918

> <Gold.Chemscore.DG>
-18.9791

> <Gold.Chemscore.ZeroCoef>
-5.4800

> <Gold.Chemscore.Hbond>
1.7314

> <Gold.Chemscore.Metal>
0.0000

> <Gold.Chemscore.Lipo>
102.2188

> <Gold.Chemscore.Internal_Hbond>
0.0000

> <Gold.Chemscore.DEClash>
1.5319

> <Gold.Chemscore.DEInternal>
2.7553

> <Gold.Chemscore.Rot>
1.6576

> <Gold.Chemscore.Internal.Correction>
   9.000000E+99

> <Gold.Chemscore.Hbonds>
donor molecule, donor type, donor heavy atom, donor atom, acceptor molecule, acceptor atom, score
      P1  H  7989  7998       L1     5  0.04
      P1  H  7997  8008       L1     7  0.91
      P1  H  8011  8017       L1    19  0.02

> <Gold.Chemscore.Hbond.Weighted>
-5.7830

> <Gold.Chemscore.Metal.Weighted>
-0.0000

> <Gold.Chemscore.Lipo.Weighted>
-11.9596

> <Gold.Chemscore.Internal_Hbond.Weighted>
0.0000

> <Gold.Chemscore.DEClash.Weighted>
1.5319

> <Gold.Chemscore.DEInternal.Weighted>
2.7553

> <Gold.Chemscore.Rot.Weighted>
4.2436

> <Gold.Chemscore.Internal.Correction.Weighted>
   9.000000E+99

> <Gold.Protein.RotatedTorsions>
[ 6907 6896 6895 6894 ] final -172.66 input  -60.11 | X-H torsion
[ 7974 7965 7964 7962 ] final  -34.49 input  175.53 | X-H torsion
[ 8008 7997 7996 7995 ] final  -53.82 input   59.86 | X-H torsion
[ 10167 10162 10161 10158 ] final  154.01 input  -65.29 | X-H torsion
[ 10718 10713 10712 10709 ] final  133.29 input   66.30 | X-H torsion
[ 10763 10752 10751 10750 ] final  -96.84 input  -60.55 | X-H torsion
[ 11005 11000 10999 10996 ] final  109.04 input  -57.11 | X-H torsion

> <Gold.Protein.ActiveResidues>
 VAL166  LYS551  ARG553  GLY616  TRP617  ASP618  TYR619  PRO620  LYS621  CYS622 
 ASP623  PHE694  ASN695  SER759  ASP760  ASP761  ALA762  ILE779  LEU786  VAL792 
 PHE793  MET794  SER795  GLU796  ALA797  LYS798  CYS799  TRP800  GLU811  SER814 

> <Gold.Protein.RotatedAtoms>
  151.5436  133.3428  159.2939 H   0  0  0  0  0  0  0  0  0  0  0  0  # atno 6907 bound_to 6896
  150.8520  134.7851  159.7027 H   0  0  0  0  0  0  0  0  0  0  0  0  # atno 6908 bound_to 6896
  152.4564  134.5290  159.9857 H   0  0  0  0  0  0  0  0  0  0  0  0  # atno 6909 bound_to 6896
  146.0825  140.6044  142.8901 H   0  0  0  0  0  0  0  0  0  0  0  0  # atno 7974 bound_to 7965
  154.4144  140.1191  156.5215 H   0  0  0  0  0  0  0  0  0  0  0  0  # atno 8008 bound_to 7997
  155.6697  140.3496  155.4794 H   0  0  0  0  0  0  0  0  0  0  0  0  # atno 8009 bound_to 7997
  155.9643  140.1129  157.0858 H   0  0  0  0  0  0  0  0  0  0  0  0  # atno 8010 bound_to 7997
  139.4825  144.5223  151.7856 H   0  0  0  0  0  0  0  0  0  0  0  0  # atno 10167 bound_to 10162
  157.4787  131.1084  150.9710 H   0  0  0  0  0  0  0  0  0  0  0  0  # atno 10718 bound_to 10713
  154.7275  135.5068  153.8910 H   0  0  0  0  0  0  0  0  0  0  0  0  # atno 10763 bound_to 10752
  153.0919  135.6661  153.9846 H   0  0  0  0  0  0  0  0  0  0  0  0  # atno 10764 bound_to 10752
  153.9655  135.3043  155.3410 H   0  0  0  0  0  0  0  0  0  0  0  0  # atno 10765 bound_to 10752
  139.8855  134.9447  156.6065 H   0  0  0  0  0  0  0  0  0  0  0  0  # atno 11005 bound_to 11000
  144.7303  140.4651  143.6943 LP  0  0  0  0  0  0  0  0  0  0  0  0  # atno 17320 bound_to 7965
  145.6191  139.1522  143.3033 LP  0  0  0  0  0  0  0  0  0  0  0  0  # atno 17321 bound_to 7965
  140.4739  144.1547  150.5922 LP  0  0  0  0  0  0  0  0  0  0  0  0  # atno 17342 bound_to 10162
  140.4352  143.2550  151.9544 LP  0  0  0  0  0  0  0  0  0  0  0  0  # atno 17343 bound_to 10162
  157.0450  130.5764  149.5361 LP  0  0  0  0  0  0  0  0  0  0  0  0  # atno 17370 bound_to 10713
  156.0110  130.5202  150.7988 LP  0  0  0  0  0  0  0  0  0  0  0  0  # atno 17371 bound_to 10713
  140.7844  133.8633  155.8594 LP  0  0  0  0  0  0  0  0  0  0  0  0  # atno 17394 bound_to 11000
  140.9732  134.1504  157.4558 LP  0  0  0  0  0  0  0  0  0  0  0  0  # atno 17395 bound_to 11000

$$$$
