AV-unprocessed.smi:1268|AV-procd|sdf|5326|dock8
  -GOLD-   22720 4453D 1   1.00000     0.00000
 Structure written by MMmdl.
 39 40  0  0  0  0  0  0  0  0  3 V2000
  152.8766  139.2004  156.5529 O   0  0  0  0  0  0  0  0  0  0  0  0
  152.0610  140.0184  156.9858 C   0  0  0  0  0  0  0  0  0  0  0  0
  151.0313  140.4042  156.2187 N   0  0  0  0  0  0  0  0  0  0  0  0
  150.7540  139.9328  154.8655 C   0  0  0  0  0  0  0  0  0  0  0  0
  149.8474  138.6846  154.8676 C   0  0  1  0  0  0  0  0  0  0  0  0
  149.0017  138.7520  153.7361 O   0  0  0  0  0  0  0  0  0  0  0  0
  150.6714  137.3869  154.7581 C   0  0  0  0  0  0  0  0  0  0  0  0
  149.8168  136.1867  154.5697 N   0  3  0  0  0  0  0  0  0  0  0  0
  148.5540  136.2350  155.3556 C   0  0  0  0  0  0  0  0  0  0  0  0
  147.6471  135.0386  155.0211 C   0  0  0  0  0  0  0  0  0  0  0  0
  148.3805  133.7111  155.2520 C   0  0  0  0  0  0  0  0  0  0  0  0
  149.6965  133.6963  154.4634 C   0  0  0  0  0  0  0  0  0  0  0  0
  150.5600  134.9219  154.8065 C   0  0  0  0  0  0  0  0  0  0  0  0
  152.0758  140.5970  158.2072 N   0  5  0  0  0  0  0  0  0  0  0  0
  152.0268  141.9346  158.3176 C   0  0  0  0  0  0  0  0  0  0  0  0
  151.3579  142.7133  157.4596 N   0  0  0  0  0  0  0  0  0  0  0  0
  151.4361  144.0730  157.7667 C   0  0  0  0  0  0  0  0  0  0  0  0
  152.1762  144.3350  158.8890 C   0  0  0  0  0  0  0  0  0  0  0  0
  152.7994  142.8731  159.5986 S   0  0  0  0  0  0  0  0  0  0  0  0
  150.3908  141.0801  156.6091 H   0  0  0  0  0  0  0  0  0  0  0  0
  150.3108  140.7408  154.2822 H   0  0  0  0  0  0  0  0  0  0  0  0
  151.7073  139.7060  154.3849 H   0  0  0  0  0  0  0  0  0  0  0  0
  149.2350  138.6675  155.7684 H   0  0  0  0  0  0  0  0  0  0  0  0
  149.4580  139.2208  153.0530 H   0  0  0  0  0  0  0  0  0  0  0  0
  151.3663  137.4875  153.9225 H   0  0  0  0  0  0  0  0  0  0  0  0
  151.2877  137.2468  155.6476 H   0  0  0  0  0  0  0  0  0  0  0  0
  148.7879  136.2397  156.4213 H   0  0  0  0  0  0  0  0  0  0  0  0
  148.0104  137.1565  155.1507 H   0  0  0  0  0  0  0  0  0  0  0  0
  146.7423  135.0749  155.6285 H   0  0  0  0  0  0  0  0  0  0  0  0
  147.3244  135.1040  153.9810 H   0  0  0  0  0  0  0  0  0  0  0  0
  148.5857  133.5823  156.3156 H   0  0  0  0  0  0  0  0  0  0  0  0
  147.7501  132.8740  154.9507 H   0  0  0  0  0  0  0  0  0  0  0  0
  150.2475  132.7797  154.6763 H   0  0  0  0  0  0  0  0  0  0  0  0
  149.4825  133.6871  153.3937 H   0  0  0  0  0  0  0  0  0  0  0  0
  151.4616  134.9038  154.1928 H   0  0  0  0  0  0  0  0  0  0  0  0
  150.8830  134.8776  155.8478 H   0  0  0  0  0  0  0  0  0  0  0  0
  150.9319  144.7858  157.1314 H   0  0  0  0  0  0  0  0  0  0  0  0
  152.3908  145.2917  159.3402 H   0  0  0  0  0  0  0  0  0  0  0  0
  149.5578  136.1820  153.5931 H   0  0  0  0  0  0  0  0  0  0  0  0
  1  2  2  0  0  0  0
  2  3  1  0  0  0  0
  2 14  1  0  0  0  0
  3  4  1  0  0  0  0
  3 20  1  0  0  0  0
  4  5  1  0  0  0  0
  4 21  1  0  0  0  0
  4 22  1  0  0  0  0
  5  6  1  0  0  0  0
  5  7  1  0  0  0  0
  5 23  1  0  0  0  0
  6 24  1  0  0  0  0
  7  8  1  0  0  0  0
  7 25  1  0  0  0  0
  7 26  1  0  0  0  0
  8 13  1  0  0  0  0
  8  9  1  0  0  0  0
  8 39  1  0  0  0  0
  9 10  1  0  0  0  0
  9 27  1  0  0  0  0
  9 28  1  0  0  0  0
 10 11  1  0  0  0  0
 10 29  1  0  0  0  0
 10 30  1  0  0  0  0
 11 12  1  0  0  0  0
 11 31  1  0  0  0  0
 11 32  1  0  0  0  0
 12 13  1  0  0  0  0
 12 33  1  0  0  0  0
 12 34  1  0  0  0  0
 13 35  1  0  0  0  0
 13 36  1  0  0  0  0
 14 15  1  0  0  0  0
 15 19  1  0  0  0  0
 15 16  2  0  0  0  0
 16 17  1  0  0  0  0
 17 18  2  0  0  0  0
 17 37  1  0  0  0  0
 18 19  1  0  0  0  0
 18 38  1  0  0  0  0
M  CHG  1   8   1
M  CHG  1  14  -1
M  END
> <s_m_source_file>
AV-unprocessed.smi

> <i_m_source_file_index>
1268

> <i_lp_mmshare_version>
43012

> <i_f3d_flags>
0

> <s_epik_input>
czFbY0hdW2NIXW5jMVtOSF1DKD1PKVtOSF1bQ0gyXVtDQEhdKFtPSF0pW0NIMl1OMltDSDJdW0NIMl1bQ0gyXVtDSDJdW0NIMl0y

> <s_epik_cmdline>
J2VwaWtfcHl0aG9uJywgJy1waCcsICc3LjAnLCAnLXRuJywgJzgnLCAnLW1hJywgJzIwMCcsICctbWV0YWxfYmluZGluZycsICctaW1hZScsICc8aW5maWxlLm1hZT4nLCAnLW9tYWUnLCAnPG91dGZpbGUubWFlPic=

> <r_lp_tautomer_probability>
0.999

> <r_epik_Ionization_Penalty>
6.36291

> <r_epik_Ionization_Penalty_Charging>
5.4816

> <r_epik_Ionization_Penalty_Neutral>
0.881305

> <r_epik_State_Penalty>
5.4805

> <r_epik_Charging_Adjusted_Penalty>
10.9621

> <i_epik_Tot_Q>
0

> <i_epik_Tot_abs_Q>
2

> <r_epik_Metal_State_Penalty>
1.48871

> <b_epik_Metal_Only>
1

> <s_lp_Force_Field>
OPLS_2005

> <r_lp_Energy>
8.43067

> <b_lp_Chiralities_Consistent>
1

> <s_lp_Variant>
AV-unprocessed.smi:1268-4

> <Gold.Version>
5.8.1

> <Gold.Id.Protein>
6NUR|6NUR_protein|mol2

> <Gold.PLP.Fitness>
45.2081

> <Gold.PLP.PLP>
-33.3609

> <Gold.PLP.part.hbond>
-3.5333

> <Gold.PLP.part.metal>
0.0000

> <Gold.PLP.part.buried>
-1.9214

> <Gold.PLP.part.nonpolar>
-28.6785

> <Gold.PLP.part.repulsive>
0.2392

> <Gold.PLP.ligand.clash>
0.0000

> <Gold.PLP.ligand.torsion>
1.5626

> <Gold.PLP.Chemscore.Hbond>
3.9600

> <Gold.PLP.Chemscore.CHOScore>
1.0000

> <Gold.PLP.Chemscore.Metal>
0.0000

> <Gold.Chemscore.Hbonds>
donor molecule, donor type, donor heavy atom, donor atom, acceptor molecule, acceptor atom, score
      L1  H     6    24       P1  7957  0.93
      L1  H     8    39       P1  7948  2.00
      P1  H  7997  8009       L1     1  1.00
      L1  C    17    37       P1  8028  1.00

> <Gold.PLP.Chemscore.Internal.Correction>
0.0924

> <Gold.Rescore>
     Score         DG    S(hbond)    S(metal)    S(lipo)     H(rot)  DE(clash)    DE(int)     intcor
     13.67     -17.51       2.84        0.00      76.08       2.48       0.71       3.13       ----

> <Gold.Chemscore.Fitness>
13.6699

> <Gold.Chemscore.DG>
-17.5063

> <Gold.Chemscore.ZeroCoef>
-5.4800

> <Gold.Chemscore.Hbond>
2.8389

> <Gold.Chemscore.Metal>
0.0000

> <Gold.Chemscore.Lipo>
76.0842

> <Gold.Chemscore.Internal_Hbond>
0.0000

> <Gold.Chemscore.DEClash>
0.7097

> <Gold.Chemscore.DEInternal>
3.1266

> <Gold.Chemscore.Rot>
2.4834

> <Gold.Chemscore.Internal.Correction>
   9.000000E+99

> <Gold.Chemscore.Hbonds>
donor molecule, donor type, donor heavy atom, donor atom, acceptor molecule, acceptor atom, score
      L1  H     6    24       P1  7957  0.86
      L1  H     8    39       P1  7948  0.50
      P1  H  7997  8009       L1     1  0.45

> <Gold.Chemscore.Hbond.Weighted>
-9.4819

> <Gold.Chemscore.Metal.Weighted>
-0.0000

> <Gold.Chemscore.Lipo.Weighted>
-8.9019

> <Gold.Chemscore.Internal_Hbond.Weighted>
0.0000

> <Gold.Chemscore.DEClash.Weighted>
0.7097

> <Gold.Chemscore.DEInternal.Weighted>
3.1266

> <Gold.Chemscore.Rot.Weighted>
6.3575

> <Gold.Chemscore.Internal.Correction.Weighted>
   9.000000E+99

> <Gold.Protein.RotatedTorsions>
[ 6907 6896 6895 6894 ] final -149.52 input  -60.11 | X-H torsion
[ 7974 7965 7964 7962 ] final  170.65 input  175.53 | X-H torsion
[ 8008 7997 7996 7995 ] final -167.24 input   59.86 | X-H torsion
[ 10167 10162 10161 10158 ] final  114.25 input  -65.29 | X-H torsion
[ 10718 10713 10712 10709 ] final   57.60 input   66.30 | X-H torsion
[ 10763 10752 10751 10750 ] final -156.50 input  -60.55 | X-H torsion
[ 11005 11000 10999 10996 ] final    1.62 input  -57.11 | X-H torsion

> <Gold.Protein.ActiveResidues>
 VAL166  LYS551  ARG553  GLY616  TRP617  ASP618  TYR619  PRO620  LYS621  CYS622 
 ASP623  PHE694  ASN695  SER759  ASP760  ASP761  ALA762  ILE779  LEU786  VAL792 
 PHE793  MET794  SER795  GLU796  ALA797  LYS798  CYS799  TRP800  GLU811  SER814 

> <Gold.Protein.RotatedAtoms>
  151.1853  133.4700  159.2594 H   0  0  0  0  0  0  0  0  0  0  0  0  # atno 6907 bound_to 6896
  151.1218  135.0083  159.8552 H   0  0  0  0  0  0  0  0  0  0  0  0  # atno 6908 bound_to 6896
  152.5456  134.1763  159.8670 H   0  0  0  0  0  0  0  0  0  0  0  0  # atno 6909 bound_to 6896
  144.7317  139.9233  143.6421 H   0  0  0  0  0  0  0  0  0  0  0  0  # atno 7974 bound_to 7965
  155.8750  140.0999  157.1524 H   0  0  0  0  0  0  0  0  0  0  0  0  # atno 8008 bound_to 7997
  154.4000  140.1340  156.4189 H   0  0  0  0  0  0  0  0  0  0  0  0  # atno 8009 bound_to 7997
  155.7707  140.3461  155.5248 H   0  0  0  0  0  0  0  0  0  0  0  0  # atno 8010 bound_to 7997
  139.6402  144.7123  151.2252 H   0  0  0  0  0  0  0  0  0  0  0  0  # atno 10167 bound_to 10162
  157.5527  130.8778  149.8989 H   0  0  0  0  0  0  0  0  0  0  0  0  # atno 10718 bound_to 10713
  154.7708  135.3144  154.8193 H   0  0  0  0  0  0  0  0  0  0  0  0  # atno 10763 bound_to 10752
  153.8929  135.6823  153.4764 H   0  0  0  0  0  0  0  0  0  0  0  0  # atno 10764 bound_to 10752
  153.1322  135.4775  154.9300 H   0  0  0  0  0  0  0  0  0  0  0  0  # atno 10765 bound_to 10752
  140.6134  133.9727  155.8188 H   0  0  0  0  0  0  0  0  0  0  0  0  # atno 11005 bound_to 11000
  146.0912  139.3903  143.0404 LP  0  0  0  0  0  0  0  0  0  0  0  0  # atno 17320 bound_to 7965
  145.7708  140.9897  143.1151 LP  0  0  0  0  0  0  0  0  0  0  0  0  # atno 17321 bound_to 7965
  140.7487  143.6325  150.8410 LP  0  0  0  0  0  0  0  0  0  0  0  0  # atno 17342 bound_to 10162
  139.9961  143.5794  152.2892 LP  0  0  0  0  0  0  0  0  0  0  0  0  # atno 17343 bound_to 10162
  156.0591  130.3703  150.1022 LP  0  0  0  0  0  0  0  0  0  0  0  0  # atno 17370 bound_to 10713
  156.9194  130.9678  151.3551 LP  0  0  0  0  0  0  0  0  0  0  0  0  # atno 17371 bound_to 10713
  141.0792  134.0088  157.3411 LP  0  0  0  0  0  0  0  0  0  0  0  0  # atno 17394 bound_to 11000
  139.9183  135.0198  156.7966 LP  0  0  0  0  0  0  0  0  0  0  0  0  # atno 17395 bound_to 11000

$$$$
