AV-unprocessed.smi:1410|AV-procd|sdf|5738|dock8
  -GOLD-   22720 5373D 1   1.00000     0.00000
 Structure written by MMmdl.
 40 41  0  0  0  0  0  0  0  0  4 V2000
  142.3225  139.7030  154.7636 N   0  5  0  0  0  0  0  0  0  0  0  0
  143.2741  139.9464  155.6873 C   0  0  0  0  0  0  0  0  0  0  0  0
  143.6270  139.2247  156.6172 O   0  0  0  0  0  0  0  0  0  0  0  0
  143.9466  141.3088  155.4883 C   0  0  0  0  0  0  0  0  0  0  0  0
  145.2217  141.1639  154.7401 N   0  3  2  0  0  0  0  0  0  0  0  0
  146.2308  140.3783  155.4943 C   0  0  0  0  0  0  0  0  0  0  0  0
  147.4812  140.1116  154.6381 C   0  0  0  0  0  0  0  0  0  0  0  0
  148.1009  141.4158  154.0971 C   0  0  2  0  0  0  0  0  0  0  0  0
  148.7286  142.2033  155.1583 N   0  0  0  0  0  0  0  0  0  0  0  0
  149.7155  141.7765  155.9599 C   0  0  0  0  0  0  0  0  0  0  0  0
  150.2034  140.6487  155.8929 O   0  0  0  0  0  0  0  0  0  0  0  0
  150.0725  142.7252  156.8429 N   0  0  0  0  0  0  0  0  0  0  0  0
  151.0669  142.6585  157.8568 C   0  0  0  0  0  0  0  0  0  0  0  0
  151.5820  143.8782  158.3496 C   0  0  0  0  0  0  0  0  0  0  0  0
  152.5803  143.8604  159.3448 C   0  0  0  0  0  0  0  0  0  0  0  0
  153.0434  142.6810  159.8116 N   0  3  0  0  0  0  0  0  0  0  0  0
  152.5934  141.4903  159.3612 C   0  0  0  0  0  0  0  0  0  0  0  0
  151.5953  141.4449  158.3665 C   0  0  0  0  0  0  0  0  0  0  0  0
  147.0193  142.2424  153.3803 C   0  0  0  0  0  0  0  0  0  0  0  0
  145.7763  142.4593  154.2627 C   0  0  0  0  0  0  0  0  0  0  0  0
  142.5620  139.7806  153.7681 H   0  0  0  0  0  0  0  0  0  0  0  0
  143.2770  141.9967  154.9691 H   0  0  0  0  0  0  0  0  0  0  0  0
  144.1305  141.7401  156.4740 H   0  0  0  0  0  0  0  0  0  0  0  0
  146.5001  140.9096  156.4085 H   0  0  0  0  0  0  0  0  0  0  0  0
  145.7994  139.4239  155.7990 H   0  0  0  0  0  0  0  0  0  0  0  0
  148.2139  139.5440  155.2127 H   0  0  0  0  0  0  0  0  0  0  0  0
  147.2033  139.4748  153.7971 H   0  0  0  0  0  0  0  0  0  0  0  0
  148.8720  141.1628  153.3668 H   0  0  0  0  0  0  0  0  0  0  0  0
  148.3911  143.1467  155.2824 H   0  0  0  0  0  0  0  0  0  0  0  0
  149.5241  143.5727  156.8294 H   0  0  0  0  0  0  0  0  0  0  0  0
  151.2138  144.8226  157.9757 H   0  0  0  0  0  0  0  0  0  0  0  0
  153.0202  144.7475  159.7765 H   0  0  0  0  0  0  0  0  0  0  0  0
  153.0465  140.6142  159.8020 H   0  0  0  0  0  0  0  0  0  0  0  0
  151.2652  140.4822  158.0069 H   0  0  0  0  0  0  0  0  0  0  0  0
  147.4251  143.2032  153.0605 H   0  0  0  0  0  0  0  0  0  0  0  0
  146.7192  141.7235  152.4688 H   0  0  0  0  0  0  0  0  0  0  0  0
  145.0259  143.0008  153.6861 H   0  0  0  0  0  0  0  0  0  0  0  0
  146.0246  143.0879  155.1192 H   0  0  0  0  0  0  0  0  0  0  0  0
  144.9904  140.6211  153.9196 H   0  0  0  0  0  0  0  0  0  0  0  0
  153.7672  142.6895  160.5310 H   0  0  0  0  0  0  0  0  0  0  0  0
  1  2  1  0  0  0  0
  1 21  1  0  0  0  0
  2  3  2  0  0  0  0
  2  4  1  0  0  0  0
  4  5  1  0  0  0  0
  4 22  1  0  0  0  0
  4 23  1  0  0  0  0
  5 20  1  0  0  0  0
  5  6  1  0  0  0  0
  5 39  1  0  0  0  0
  6  7  1  0  0  0  0
  6 24  1  0  0  0  0
  6 25  1  0  0  0  0
  7  8  1  0  0  0  0
  7 26  1  0  0  0  0
  7 27  1  0  0  0  0
  8  9  1  0  0  0  0
  8 19  1  0  0  0  0
  8 28  1  0  0  0  0
  9 10  1  0  0  0  0
  9 29  1  0  0  0  0
 10 11  2  0  0  0  0
 10 12  1  0  0  0  0
 12 13  1  0  0  0  0
 12 30  1  0  0  0  0
 13 18  1  0  0  0  0
 13 14  2  0  0  0  0
 14 15  1  0  0  0  0
 14 31  1  0  0  0  0
 15 16  2  0  0  0  0
 15 32  1  0  0  0  0
 16 17  1  0  0  0  0
 16 40  1  0  0  0  0
 17 18  2  0  0  0  0
 17 33  1  0  0  0  0
 18 34  1  0  0  0  0
 19 20  1  0  0  0  0
 19 35  1  0  0  0  0
 19 36  1  0  0  0  0
 20 37  1  0  0  0  0
 20 38  1  0  0  0  0
M  CHG  1   1  -1
M  CHG  1   5   1
M  CHG  1  16   1
M  END
> <s_m_source_file>
AV-unprocessed.smi

> <i_m_source_file_index>
1410

> <i_lp_mmshare_version>
43012

> <i_f3d_flags>
0

> <s_epik_input>
W05IMl1DKD1PKVtDSDJdTjFbQ0gyXVtDSDJdW0NIXShbQ0gyXVtDSDJdMSlbTkhdQyg9TylbTkhdYzJbY0hdW2NIXW5bY0hdW2NIXTI=

> <s_epik_cmdline>
J2VwaWtfcHl0aG9uJywgJy1waCcsICc3LjAnLCAnLXRuJywgJzgnLCAnLW1hJywgJzIwMCcsICctbWV0YWxfYmluZGluZycsICctaW1hZScsICc8aW5maWxlLm1hZT4nLCAnLW9tYWUnLCAnPG91dGZpbGUubWFlPic=

> <r_epik_Ionization_Penalty>
6.84067

> <r_epik_Ionization_Penalty_Charging>
6.84065

> <r_epik_Ionization_Penalty_Neutral>
1.84563e-05

> <r_epik_State_Penalty>
7.68217

> <r_epik_Charging_Adjusted_Penalty>
14.5228

> <i_epik_Tot_Q>
1

> <i_epik_Tot_abs_Q>
3

> <r_epik_Metal_State_Penalty>
3.74331

> <b_epik_Metal_Only>
1

> <s_lp_Force_Field>
OPLS_2005

> <r_lp_Energy>
20.5434

> <b_lp_Chiralities_Consistent>
1

> <s_lp_Variant>
AV-unprocessed.smi:1410-10

> <Gold.Version>
5.8.1

> <Gold.Id.Protein>
6NUR|6NUR_protein|mol2

> <Gold.PLP.Fitness>
46.5502

> <Gold.PLP.PLP>
-32.4641

> <Gold.PLP.part.hbond>
-4.0000

> <Gold.PLP.part.metal>
0.0000

> <Gold.PLP.part.buried>
-6.2591

> <Gold.PLP.part.nonpolar>
-23.2449

> <Gold.PLP.part.repulsive>
0.3678

> <Gold.PLP.ligand.clash>
0.0000

> <Gold.PLP.ligand.torsion>
0.4604

> <Gold.PLP.Chemscore.Hbond>
4.9920

> <Gold.PLP.Chemscore.CHOScore>
0.0000

> <Gold.PLP.Chemscore.Metal>
0.0000

> <Gold.Chemscore.Hbonds>
donor molecule, donor type, donor heavy atom, donor atom, acceptor molecule, acceptor atom, score
      L1  H     1    21       P1 10175  0.99
      L1  H     5    39       P1 10175  1.66
      L1  H     9    29       P1  8028  0.90
      L1  H    12    30       P1  8028  0.80

> <Gold.PLP.Chemscore.Internal.Correction>
0.0310

> <Gold.Rescore>
     Score         DG    S(hbond)    S(metal)    S(lipo)     H(rot)  DE(clash)    DE(int)     intcor
     19.31     -22.31       3.59        0.00      84.19       1.96       1.70       1.30       ----

> <Gold.Chemscore.Fitness>
19.3069

> <Gold.Chemscore.DG>
-22.3082

> <Gold.Chemscore.ZeroCoef>
-5.4800

> <Gold.Chemscore.Hbond>
3.5923

> <Gold.Chemscore.Metal>
0.0000

> <Gold.Chemscore.Lipo>
84.1928

> <Gold.Chemscore.Internal_Hbond>
0.0000

> <Gold.Chemscore.DEClash>
1.6971

> <Gold.Chemscore.DEInternal>
1.3042

> <Gold.Chemscore.Rot>
1.9612

> <Gold.Chemscore.Internal.Correction>
   9.000000E+99

> <Gold.Chemscore.Hbonds>
donor molecule, donor type, donor heavy atom, donor atom, acceptor molecule, acceptor atom, score
      L1  H     1    21       P1 10175  0.93
      L1  H     5    39       P1 10175  0.80
      L1  H     9    29       P1  8028  0.86
      L1  H    12    30       P1  8028  0.78

> <Gold.Chemscore.Hbond.Weighted>
-11.9984

> <Gold.Chemscore.Metal.Weighted>
-0.0000

> <Gold.Chemscore.Lipo.Weighted>
-9.8506

> <Gold.Chemscore.Internal_Hbond.Weighted>
0.0000

> <Gold.Chemscore.DEClash.Weighted>
1.6971

> <Gold.Chemscore.DEInternal.Weighted>
1.3042

> <Gold.Chemscore.Rot.Weighted>
5.0208

> <Gold.Chemscore.Internal.Correction.Weighted>
   9.000000E+99

> <Gold.Protein.RotatedTorsions>
[ 6907 6896 6895 6894 ] final  -83.25 input  -60.11 | X-H torsion
[ 7974 7965 7964 7962 ] final  146.49 input  175.53 | X-H torsion
[ 8008 7997 7996 7995 ] final  -72.98 input   59.86 | X-H torsion
[ 10167 10162 10161 10158 ] final -136.46 input  -65.29 | X-H torsion
[ 10718 10713 10712 10709 ] final  -87.86 input   66.30 | X-H torsion
[ 10763 10752 10751 10750 ] final   21.20 input  -60.55 | X-H torsion
[ 11005 11000 10999 10996 ] final -106.71 input  -57.11 | X-H torsion

> <Gold.Protein.ActiveResidues>
 VAL166  LYS551  ARG553  GLY616  TRP617  ASP618  TYR619  PRO620  LYS621  CYS622 
 ASP623  PHE694  ASN695  SER759  ASP760  ASP761  ALA762  ILE779  LEU786  VAL792 
 PHE793  MET794  SER795  GLU796  ALA797  LYS798  CYS799  TRP800  GLU811  SER814 

> <Gold.Protein.RotatedAtoms>
  150.6887  134.3541  159.4921 H   0  0  0  0  0  0  0  0  0  0  0  0  # atno 6907 bound_to 6896
  152.1378  134.9083  160.0564 H   0  0  0  0  0  0  0  0  0  0  0  0  # atno 6908 bound_to 6896
  152.0228  133.3871  159.4302 H   0  0  0  0  0  0  0  0  0  0  0  0  # atno 6909 bound_to 6896
  144.8667  139.5911  143.5906 H   0  0  0  0  0  0  0  0  0  0  0  0  # atno 7974 bound_to 7965
  154.5210  140.0787  156.8172 H   0  0  0  0  0  0  0  0  0  0  0  0  # atno 8008 bound_to 7997
  155.3576  140.3416  155.4222 H   0  0  0  0  0  0  0  0  0  0  0  0  # atno 8009 bound_to 7997
  156.1681  140.1610  156.8483 H   0  0  0  0  0  0  0  0  0  0  0  0  # atno 8010 bound_to 7997
  139.8675  143.6999  152.2643 H   0  0  0  0  0  0  0  0  0  0  0  0  # atno 10167 bound_to 10162
  155.9984  130.4815  150.4931 H   0  0  0  0  0  0  0  0  0  0  0  0  # atno 10718 bound_to 10713
  153.1014  135.6673  153.9665 H   0  0  0  0  0  0  0  0  0  0  0  0  # atno 10763 bound_to 10752
  153.9235  135.3012  155.3448 H   0  0  0  0  0  0  0  0  0  0  0  0  # atno 10764 bound_to 10752
  154.7435  135.5068  153.9239 H   0  0  0  0  0  0  0  0  0  0  0  0  # atno 10765 bound_to 10752
  141.0991  133.8917  157.1889 H   0  0  0  0  0  0  0  0  0  0  0  0  # atno 11005 bound_to 11000
  146.2901  139.7114  142.9167 LP  0  0  0  0  0  0  0  0  0  0  0  0  # atno 17320 bound_to 7965
  145.4208  141.0406  143.2965 LP  0  0  0  0  0  0  0  0  0  0  0  0  # atno 17321 bound_to 7965
  139.7315  144.7581  151.0794 LP  0  0  0  0  0  0  0  0  0  0  0  0  # atno 17342 bound_to 10162
  140.7766  143.5082  150.9685 LP  0  0  0  0  0  0  0  0  0  0  0  0  # atno 17343 bound_to 10162
  157.2924  131.0629  151.2125 LP  0  0  0  0  0  0  0  0  0  0  0  0  # atno 17370 bound_to 10713
  157.3133  130.6900  149.6228 LP  0  0  0  0  0  0  0  0  0  0  0  0  # atno 17371 bound_to 10713
  139.9836  135.0089  156.9810 LP  0  0  0  0  0  0  0  0  0  0  0  0  # atno 17394 bound_to 11000
  140.5067  134.1043  155.7261 LP  0  0  0  0  0  0  0  0  0  0  0  0  # atno 17395 bound_to 11000

$$$$
