AV-unprocessed.smi:995|AV-procd|sdf|4345|dock8
  -GOLD-   22720 2243D 1   1.00000     0.00000
 Structure written by MMmdl.
 37 38  0  0  0  0  0  0  0  0  1 V2000
  145.5952  132.6907  153.0572 O   0  0  0  0  0  0  0  0  0  0  0  0
  146.3462  133.5332  152.5665 C   0  0  0  0  0  0  0  0  0  0  0  0
  147.2975  134.1993  153.2478 N   0  0  0  0  0  0  0  0  0  0  0  0
  147.6624  134.0987  154.6185 C   0  0  0  0  0  0  0  0  0  0  0  0
  147.0346  133.2498  155.5619 C   0  0  0  0  0  0  0  0  0  0  0  0
  147.4947  133.2535  156.8928 C   0  0  0  0  0  0  0  0  0  0  0  0
  148.5582  134.1076  157.2451 C   0  0  0  0  0  0  0  0  0  0  0  0
  149.0073  134.0994  158.5497 O   0  0  0  0  0  0  0  0  0  0  0  0
  148.0842  133.7715  159.5851 C   0  0  0  0  0  0  0  0  0  0  0  0
  147.6457  135.0586  160.2992 C   0  0  0  0  0  0  0  0  0  0  0  0
  148.7209  135.7969  160.5779 F   0  0  0  0  0  0  0  0  0  0  0  0
  146.8408  135.7350  159.4785 F   0  0  0  0  0  0  0  0  0  0  0  0
  146.8775  134.7748  161.6002 C   0  0  0  0  0  0  0  0  0  0  0  0
  147.5418  133.9162  162.3743 F   0  0  0  0  0  0  0  0  0  0  0  0
  146.6595  135.9034  162.2755 F   0  0  0  0  0  0  0  0  0  0  0  0
  149.1534  134.9349  156.3513 N   0  0  0  0  0  0  0  0  0  0  0  0
  148.7091  134.9250  155.0774 C   0  0  0  0  0  0  0  0  0  0  0  0
  146.2423  133.8909  151.0712 C   0  0  2  0  0  0  0  0  0  0  0  0
  144.8973  134.5309  150.6527 C   0  0  0  0  0  0  0  0  0  0  0  0
  143.8562  133.5614  150.6813 O   0  0  0  0  0  0  0  0  0  0  0  0
  144.1331  132.4757  149.8082 C   0  0  0  0  0  0  0  0  0  0  0  0
  145.4326  131.7898  150.2584 C   0  0  0  0  0  0  0  0  0  0  0  0
  146.4910  132.7454  150.2515 O   0  0  0  0  0  0  0  0  0  0  0  0
  147.8712  134.8202  152.6952 H   0  0  0  0  0  0  0  0  0  0  0  0
  146.2095  132.6057  155.3033 H   0  0  0  0  0  0  0  0  0  0  0  0
  147.0376  132.6123  157.6320 H   0  0  0  0  0  0  0  0  0  0  0  0
  147.2080  133.2717  159.1680 H   0  0  0  0  0  0  0  0  0  0  0  0
  148.5521  133.0898  160.2974 H   0  0  0  0  0  0  0  0  0  0  0  0
  145.9034  134.3299  161.3949 H   0  0  0  0  0  0  0  0  0  0  0  0
  149.2120  135.5994  154.3996 H   0  0  0  0  0  0  0  0  0  0  0  0
  147.0381  134.6094  150.8717 H   0  0  0  0  0  0  0  0  0  0  0  0
  144.6345  135.3597  151.3113 H   0  0  0  0  0  0  0  0  0  0  0  0
  144.9768  134.9511  149.6490 H   0  0  0  0  0  0  0  0  0  0  0  0
  143.3023  131.7708  149.8418 H   0  0  0  0  0  0  0  0  0  0  0  0
  144.2143  132.8287  148.7789 H   0  0  0  0  0  0  0  0  0  0  0  0
  145.3129  131.3421  151.2458 H   0  0  0  0  0  0  0  0  0  0  0  0
  145.6862  130.9790  149.5755 H   0  0  0  0  0  0  0  0  0  0  0  0
  1  2  2  0  0  0  0
  2  3  1  0  0  0  0
  2 18  1  0  0  0  0
  3  4  1  0  0  0  0
  3 24  1  0  0  0  0
  4 17  1  0  0  0  0
  4  5  2  0  0  0  0
  5  6  1  0  0  0  0
  5 25  1  0  0  0  0
  6  7  2  0  0  0  0
  6 26  1  0  0  0  0
  7  8  1  0  0  0  0
  7 16  1  0  0  0  0
  8  9  1  0  0  0  0
  9 10  1  0  0  0  0
  9 27  1  0  0  0  0
  9 28  1  0  0  0  0
 10 11  1  0  0  0  0
 10 12  1  0  0  0  0
 10 13  1  0  0  0  0
 13 14  1  0  0  0  0
 13 15  1  0  0  0  0
 13 29  1  0  0  0  0
 16 17  2  0  0  0  0
 17 30  1  0  0  0  0
 18 23  1  0  0  0  0
 18 19  1  0  0  0  0
 18 31  1  0  0  0  0
 19 20  1  0  0  0  0
 19 32  1  0  0  0  0
 19 33  1  0  0  0  0
 20 21  1  0  0  0  0
 21 22  1  0  0  0  0
 21 34  1  0  0  0  0
 21 35  1  0  0  0  0
 22 23  1  0  0  0  0
 22 36  1  0  0  0  0
 22 37  1  0  0  0  0
M  END
> <s_m_source_file>
AV-unprocessed.smi

> <i_m_source_file_index>
995

> <i_lp_mmshare_version>
43012

> <i_f3d_flags>
0

> <s_epik_input>
TzFbQ0gyXVtDSDJdT1tDSDJdW0NASF0xQyg9TylbTkhdYzJbY0hdW2NIXWMobltjSF0yKU9bQ0gyXUMoRikoRilbQ0hdKEYpRg==

> <s_epik_cmdline>
J2VwaWtfcHl0aG9uJywgJy1waCcsICc3LjAnLCAnLXRuJywgJzgnLCAnLW1hJywgJzIwMCcsICctbWV0YWxfYmluZGluZycsICctaW1hZScsICc8aW5maWxlLm1hZT4nLCAnLW9tYWUnLCAnPG91dGZpbGUubWFlPic=

> <r_lp_tautomer_probability>
1

> <r_epik_Ionization_Penalty>
2.54436e-06

> <r_epik_Ionization_Penalty_Charging>
0

> <r_epik_Ionization_Penalty_Neutral>
2.54436e-06

> <r_epik_State_Penalty>
-0

> <r_epik_Charging_Adjusted_Penalty>
0

> <i_epik_Tot_Q>
0

> <i_epik_Tot_abs_Q>
0

> <r_epik_Metal_State_Penalty>
-0

> <b_epik_Metal_Only>
0

> <s_lp_Force_Field>
OPLS_2005

> <r_lp_Energy>
9.34037

> <b_lp_Chiralities_Consistent>
1

> <s_lp_Variant>
AV-unprocessed.smi:995-1

> <Gold.Version>
5.8.1

> <Gold.Id.Protein>
6NUR|6NUR_protein|mol2

> <Gold.PLP.Fitness>
39.6468

> <Gold.PLP.PLP>
-32.4214

> <Gold.PLP.part.hbond>
-2.0000

> <Gold.PLP.part.metal>
0.0000

> <Gold.PLP.part.buried>
-6.3183

> <Gold.PLP.part.nonpolar>
-25.3737

> <Gold.PLP.part.repulsive>
0.7045

> <Gold.PLP.ligand.clash>
0.0000

> <Gold.PLP.ligand.torsion>
0.9392

> <Gold.PLP.Chemscore.Hbond>
2.0000

> <Gold.PLP.Chemscore.CHOScore>
1.0000

> <Gold.PLP.Chemscore.Metal>
0.0000

> <Gold.Chemscore.Hbonds>
donor molecule, donor type, donor heavy atom, donor atom, acceptor molecule, acceptor atom, score
      L1  H     3    24       P1  7948  1.00
      P1  H  6896  6907       L1     8  1.00
      L1  C    17    30       P1  7948  0.82

> <Gold.PLP.Chemscore.Internal.Correction>
0.1038

> <Gold.Rescore>
     Score         DG    S(hbond)    S(metal)    S(lipo)     H(rot)  DE(clash)    DE(int)     intcor
      9.65     -13.15       1.91        0.00      57.41       2.12       0.13       3.38       ----

> <Gold.Chemscore.Fitness>
9.6500

> <Gold.Chemscore.DG>
-13.1523

> <Gold.Chemscore.ZeroCoef>
-5.4800

> <Gold.Chemscore.Hbond>
1.9086

> <Gold.Chemscore.Metal>
0.0000

> <Gold.Chemscore.Lipo>
57.4142

> <Gold.Chemscore.Internal_Hbond>
0.0000

> <Gold.Chemscore.DEClash>
0.1251

> <Gold.Chemscore.DEInternal>
3.3772

> <Gold.Chemscore.Rot>
2.1172

> <Gold.Chemscore.Internal.Correction>
   9.000000E+99

> <Gold.Chemscore.Hbonds>
donor molecule, donor type, donor heavy atom, donor atom, acceptor molecule, acceptor atom, score
      L1  H     3    24       P1  7948  0.88
      P1  H  6896  6907       L1     8  0.50

> <Gold.Chemscore.Hbond.Weighted>
-6.3749

> <Gold.Chemscore.Metal.Weighted>
-0.0000

> <Gold.Chemscore.Lipo.Weighted>
-6.7175

> <Gold.Chemscore.Internal_Hbond.Weighted>
0.0000

> <Gold.Chemscore.DEClash.Weighted>
0.1251

> <Gold.Chemscore.DEInternal.Weighted>
3.3772

> <Gold.Chemscore.Rot.Weighted>
5.4200

> <Gold.Chemscore.Internal.Correction.Weighted>
   9.000000E+99

> <Gold.Protein.RotatedTorsions>
[ 6907 6896 6895 6894 ] final -100.22 input  -60.11 | X-H torsion
[ 7974 7965 7964 7962 ] final  -21.24 input  175.53 | X-H torsion
[ 8008 7997 7996 7995 ] final -148.14 input   59.86 | X-H torsion
[ 10167 10162 10161 10158 ] final  160.18 input  -65.29 | X-H torsion
[ 10718 10713 10712 10709 ] final -104.71 input   66.30 | X-H torsion
[ 10763 10752 10751 10750 ] final -121.24 input  -60.55 | X-H torsion
[ 11005 11000 10999 10996 ] final  175.08 input  -57.11 | X-H torsion

> <Gold.Protein.ActiveResidues>
 VAL166  LYS551  ARG553  GLY616  TRP617  ASP618  TYR619  PRO620  LYS621  CYS622 
 ASP623  PHE694  ASN695  SER759  ASP760  ASP761  ALA762  ILE779  LEU786  VAL792 
 PHE793  MET794  SER795  GLU796  ALA797  LYS798  CYS799  TRP800  GLU811  SER814 

> <Gold.Protein.RotatedAtoms>
  150.7108  134.0920  159.3934 H   0  0  0  0  0  0  0  0  0  0  0  0  # atno 6907 bound_to 6896
  151.8906  135.0416  160.0506 H   0  0  0  0  0  0  0  0  0  0  0  0  # atno 6908 bound_to 6896
  152.2495  133.5167  159.5353 H   0  0  0  0  0  0  0  0  0  0  0  0  # atno 6909 bound_to 6896
  146.1744  140.4314  142.8519 H   0  0  0  0  0  0  0  0  0  0  0  0  # atno 7974 bound_to 7965
  155.5869  140.0649  157.2769 H   0  0  0  0  0  0  0  0  0  0  0  0  # atno 8008 bound_to 7997
  154.4316  140.1842  156.1080 H   0  0  0  0  0  0  0  0  0  0  0  0  # atno 8009 bound_to 7997
  156.0263  140.3311  155.7095 H   0  0  0  0  0  0  0  0  0  0  0  0  # atno 8010 bound_to 7997
  139.4838  144.4659  151.8642 H   0  0  0  0  0  0  0  0  0  0  0  0  # atno 10167 bound_to 10162
  156.0316  130.5528  150.7436 H   0  0  0  0  0  0  0  0  0  0  0  0  # atno 10718 bound_to 10713
  154.8663  135.4174  154.2589 H   0  0  0  0  0  0  0  0  0  0  0  0  # atno 10763 bound_to 10752
  153.3521  135.6999  153.6786 H   0  0  0  0  0  0  0  0  0  0  0  0  # atno 10764 bound_to 10752
  153.5721  135.3589  155.2814 H   0  0  0  0  0  0  0  0  0  0  0  0  # atno 10765 bound_to 10752
  140.3583  134.7135  157.4314 H   0  0  0  0  0  0  0  0  0  0  0  0  # atno 11005 bound_to 11000
  144.8212  140.6553  143.6351 LP  0  0  0  0  0  0  0  0  0  0  0  0  # atno 17320 bound_to 7965
  145.4253  139.1557  143.4052 LP  0  0  0  0  0  0  0  0  0  0  0  0  # atno 17321 bound_to 7965
  140.4125  144.2351  150.5888 LP  0  0  0  0  0  0  0  0  0  0  0  0  # atno 17342 bound_to 10162
  140.4953  143.2334  151.8759 LP  0  0  0  0  0  0  0  0  0  0  0  0  # atno 17343 bound_to 10162
  157.4998  131.0917  151.0328 LP  0  0  0  0  0  0  0  0  0  0  0  0  # atno 17370 bound_to 10713
  157.0712  130.5864  149.5403 LP  0  0  0  0  0  0  0  0  0  0  0  0  # atno 17371 bound_to 10713
  140.0647  134.5946  155.8709 LP  0  0  0  0  0  0  0  0  0  0  0  0  # atno 17394 bound_to 11000
  141.1992  133.6605  156.5830 LP  0  0  0  0  0  0  0  0  0  0  0  0  # atno 17395 bound_to 11000

$$$$
