AV-unprocessed.smi:356|AV-procd|sdf|2414|dock2
  -GOLD-   2262022343D 1   1.00000     0.00000
 Structure written by MMmdl.
 43 45  0  0  0  0  0  0  0  0  3 V2000
  148.2422  141.2649  154.1822 C   0  0  0  0  0  0  0  0  0  0  0  0
  149.2309  141.2233  155.2988 C   0  0  0  0  0  0  0  0  0  0  0  0
  149.8102  142.3032  155.8953 N   0  3  0  0  0  0  0  0  0  0  0  0
  150.6788  141.8780  156.9012 C   0  0  0  0  0  0  0  0  0  0  0  0
  151.4848  142.6005  157.7756 C   0  0  0  0  0  0  0  0  0  0  0  0
  152.2548  141.8526  158.6905 C   0  0  0  0  0  0  0  0  0  0  0  0
  152.2060  140.4434  158.7121 C   0  0  0  0  0  0  0  0  0  0  0  0
  151.3860  139.7216  157.8197 C   0  0  0  0  0  0  0  0  0  0  0  0
  150.6277  140.4690  156.9189 C   0  0  0  0  0  0  0  0  0  0  0  0
  149.7247  140.1094  155.9125 N   0  0  0  0  0  0  0  0  0  0  0  0
  149.4460  138.6852  155.6706 C   0  0  0  0  0  0  0  0  0  0  0  0
  150.5817  137.9682  154.9127 C   0  0  2  0  0  0  0  0  0  0  0  0
  150.3913  138.1457  153.5216 O   0  0  0  0  0  0  0  0  0  0  0  0
  150.6062  136.4596  155.2334 C   0  0  0  0  0  0  0  0  0  0  0  0
  149.4820  135.7104  154.6150 N   0  3  0  0  0  0  0  0  0  0  0  0
  149.7432  134.2571  154.4611 C   0  0  0  0  0  0  0  0  0  0  0  0
  148.5472  133.5644  153.7854 C   0  0  0  0  0  0  0  0  0  0  0  0
  147.3670  133.8007  154.5423 O   0  0  0  0  0  0  0  0  0  0  0  0
  147.0553  135.1858  154.6218 C   0  0  0  0  0  0  0  0  0  0  0  0
  148.2007  135.9307  155.3277 C   0  0  0  0  0  0  0  0  0  0  0  0
  148.0429  142.2947  153.8853 H   0  0  0  0  0  0  0  0  0  0  0  0
  147.3035  140.8058  154.4932 H   0  0  0  0  0  0  0  0  0  0  0  0
  148.6264  140.7235  153.3175 H   0  0  0  0  0  0  0  0  0  0  0  0
  151.5232  143.6799  157.7618 H   0  0  0  0  0  0  0  0  0  0  0  0
  152.8948  142.3704  159.3903 H   0  0  0  0  0  0  0  0  0  0  0  0
  152.8098  139.9055  159.4286 H   0  0  0  0  0  0  0  0  0  0  0  0
  151.3549  138.6426  157.8455 H   0  0  0  0  0  0  0  0  0  0  0  0
  149.2545  138.2054  156.6312 H   0  0  0  0  0  0  0  0  0  0  0  0
  148.5143  138.6208  155.1068 H   0  0  0  0  0  0  0  0  0  0  0  0
  151.5276  138.4334  155.1869 H   0  0  0  0  0  0  0  0  0  0  0  0
  149.7438  137.5281  153.2185 H   0  0  0  0  0  0  0  0  0  0  0  0
  151.5494  136.0171  154.9084 H   0  0  0  0  0  0  0  0  0  0  0  0
  150.5728  136.3368  156.3175 H   0  0  0  0  0  0  0  0  0  0  0  0
  150.6375  134.0867  153.8632 H   0  0  0  0  0  0  0  0  0  0  0  0
  149.9239  133.8115  155.4404 H   0  0  0  0  0  0  0  0  0  0  0  0
  148.4162  133.9224  152.7627 H   0  0  0  0  0  0  0  0  0  0  0  0
  148.7192  132.4895  153.7265 H   0  0  0  0  0  0  0  0  0  0  0  0
  146.8833  135.5906  153.6230 H   0  0  0  0  0  0  0  0  0  0  0  0
  146.1265  135.3082  155.1792 H   0  0  0  0  0  0  0  0  0  0  0  0
  148.2912  135.5856  156.3593 H   0  0  0  0  0  0  0  0  0  0  0  0
  147.9745  136.9972  155.3644 H   0  0  0  0  0  0  0  0  0  0  0  0
  149.3550  136.0913  153.6881 H   0  0  0  0  0  0  0  0  0  0  0  0
  149.6221  143.2620  155.6317 H   0  0  0  0  0  0  0  0  0  0  0  0
  1  2  1  0  0  0  0
  1 21  1  0  0  0  0
  1 22  1  0  0  0  0
  1 23  1  0  0  0  0
  2 10  1  0  0  0  0
  2  3  2  0  0  0  0
  3  4  1  0  0  0  0
  3 43  1  0  0  0  0
  4  9  2  0  0  0  0
  4  5  1  0  0  0  0
  5  6  2  0  0  0  0
  5 24  1  0  0  0  0
  6  7  1  0  0  0  0
  6 25  1  0  0  0  0
  7  8  2  0  0  0  0
  7 26  1  0  0  0  0
  8  9  1  0  0  0  0
  8 27  1  0  0  0  0
  9 10  1  0  0  0  0
 10 11  1  0  0  0  0
 11 12  1  0  0  0  0
 11 28  1  0  0  0  0
 11 29  1  0  0  0  0
 12 13  1  0  0  0  0
 12 14  1  0  0  0  0
 12 30  1  0  0  0  0
 13 31  1  0  0  0  0
 14 15  1  0  0  0  0
 14 32  1  0  0  0  0
 14 33  1  0  0  0  0
 15 20  1  0  0  0  0
 15 16  1  0  0  0  0
 15 42  1  0  0  0  0
 16 17  1  0  0  0  0
 16 34  1  0  0  0  0
 16 35  1  0  0  0  0
 17 18  1  0  0  0  0
 17 36  1  0  0  0  0
 17 37  1  0  0  0  0
 18 19  1  0  0  0  0
 19 20  1  0  0  0  0
 19 38  1  0  0  0  0
 19 39  1  0  0  0  0
 20 40  1  0  0  0  0
 20 41  1  0  0  0  0
M  CHG  1   3   1
M  CHG  1  15   1
M  END
> <s_m_source_file>
AV-unprocessed.smi

> <i_m_source_file_index>
356

> <i_lp_mmshare_version>
43012

> <i_f3d_flags>
0

> <s_epik_input>
W2NIXTFbY0hdW2NIXVtjSF1jKGMxMiluKGMobjIpW0NIM10pW0NIMl1bQ0BIXShbT0hdKVtDSDJdTjNbQ0gyXVtDSDJdT1tDSDJdW0NIMl0z

> <s_epik_cmdline>
J2VwaWtfcHl0aG9uJywgJy1waCcsICc3LjAnLCAnLXRuJywgJzgnLCAnLW1hJywgJzIwMCcsICctbWV0YWxfYmluZGluZycsICctaW1hZScsICc8aW5maWxlLm1hZT4nLCAnLW9tYWUnLCAnPG91dGZpbGUubWFlPic=

> <r_epik_Ionization_Penalty>
1.81899

> <r_epik_Ionization_Penalty_Charging>
1.81898

> <r_epik_Ionization_Penalty_Neutral>
1.42224e-05

> <r_epik_State_Penalty>
1.87399

> <r_epik_Charging_Adjusted_Penalty>
3.69296

> <i_epik_Tot_Q>
2

> <i_epik_Tot_abs_Q>
2

> <r_epik_Metal_State_Penalty>
5.87601

> <b_epik_Metal_Only>
0

> <s_lp_Force_Field>
OPLS_2005

> <r_lp_Energy>
28.369

> <b_lp_Chiralities_Consistent>
1

> <s_lp_Variant>
AV-unprocessed.smi:356-7

> <Gold.Version>
5.8.1

> <Gold.Id.Protein>
6NUR|6NUR_protein|mol2

> <Gold.PLP.Fitness>
46.9962

> <Gold.PLP.PLP>
-33.4154

> <Gold.PLP.part.hbond>
-4.7706

> <Gold.PLP.part.metal>
0.0000

> <Gold.PLP.part.buried>
-4.4093

> <Gold.PLP.part.nonpolar>
-25.9662

> <Gold.PLP.part.repulsive>
0.2583

> <Gold.PLP.ligand.clash>
0.0000

> <Gold.PLP.ligand.torsion>
0.7487

> <Gold.PLP.Chemscore.Hbond>
5.0000

> <Gold.PLP.Chemscore.CHOScore>
0.0000

> <Gold.PLP.Chemscore.Metal>
0.0000

> <Gold.Chemscore.Hbonds>
donor molecule, donor type, donor heavy atom, donor atom, acceptor molecule, acceptor atom, score
      L1  H     3    43       P1  8028  2.00
      L1  H    13    31       P1  7948  1.00
      L1  H    15    42       P1  7948  2.00

> <Gold.PLP.Chemscore.Internal.Correction>
0.0782

> <Gold.Rescore>
     Score         DG    S(hbond)    S(metal)    S(lipo)     H(rot)  DE(clash)    DE(int)     intcor
     17.09     -17.97       2.69        0.00      76.75       2.13       0.09       0.79       ----

> <Gold.Chemscore.Fitness>
17.0922

> <Gold.Chemscore.DG>
-17.9723

> <Gold.Chemscore.ZeroCoef>
-5.4800

> <Gold.Chemscore.Hbond>
2.6863

> <Gold.Chemscore.Metal>
0.0000

> <Gold.Chemscore.Lipo>
76.7489

> <Gold.Chemscore.Internal_Hbond>
0.0000

> <Gold.Chemscore.DEClash>
0.0852

> <Gold.Chemscore.DEInternal>
0.7949

> <Gold.Chemscore.Rot>
2.1327

> <Gold.Chemscore.Internal.Correction>
   9.000000E+99

> <Gold.Chemscore.Hbonds>
donor molecule, donor type, donor heavy atom, donor atom, acceptor molecule, acceptor atom, score
      L1  H     3    43       P1  8028  0.99
      L1  H    13    31       P1  7948  0.61
      L1  H    15    42       P1  7948  0.74

> <Gold.Chemscore.Hbond.Weighted>
-8.9723

> <Gold.Chemscore.Metal.Weighted>
-0.0000

> <Gold.Chemscore.Lipo.Weighted>
-8.9796

> <Gold.Chemscore.Internal_Hbond.Weighted>
0.0000

> <Gold.Chemscore.DEClash.Weighted>
0.0852

> <Gold.Chemscore.DEInternal.Weighted>
0.7949

> <Gold.Chemscore.Rot.Weighted>
5.4596

> <Gold.Chemscore.Internal.Correction.Weighted>
   9.000000E+99

> <Gold.Protein.RotatedTorsions>
[ 6907 6896 6895 6894 ] final  109.72 input  -60.11 | X-H torsion
[ 7974 7965 7964 7962 ] final  101.48 input  175.53 | X-H torsion
[ 8008 7997 7996 7995 ] final   60.36 input   59.86 | X-H torsion
[ 10167 10162 10161 10158 ] final   10.95 input  -65.29 | X-H torsion
[ 10718 10713 10712 10709 ] final  133.24 input   66.30 | X-H torsion
[ 10763 10752 10751 10750 ] final   74.27 input  -60.55 | X-H torsion
[ 11005 11000 10999 10996 ] final  -76.53 input  -57.11 | X-H torsion

> <Gold.Protein.ActiveResidues>
 VAL166  LYS551  ARG553  GLY616  TRP617  ASP618  TYR619  PRO620  LYS621  CYS622 
 ASP623  PHE694  ASN695  SER759  ASP760  ASP761  ALA762  ILE779  LEU786  VAL792 
 PHE793  MET794  SER795  GLU796  ALA797  LYS798  CYS799  TRP800  GLU811  SER814 

> <Gold.Protein.RotatedAtoms>
  152.5054  133.8904  159.7390 H   0  0  0  0  0  0  0  0  0  0  0  0  # atno 6907 bound_to 6896
  150.9344  133.6720  159.2810 H   0  0  0  0  0  0  0  0  0  0  0  0  # atno 6908 bound_to 6896
  151.4054  135.0982  159.9621 H   0  0  0  0  0  0  0  0  0  0  0  0  # atno 6909 bound_to 6896
  145.3717  139.2397  143.3451 H   0  0  0  0  0  0  0  0  0  0  0  0  # atno 7974 bound_to 7965
  155.5810  140.3491  155.4540 H   0  0  0  0  0  0  0  0  0  0  0  0  # atno 8008 bound_to 7997
  156.0373  140.1288  157.0219 H   0  0  0  0  0  0  0  0  0  0  0  0  # atno 8009 bound_to 7997
  154.4377  140.1031  156.6172 H   0  0  0  0  0  0  0  0  0  0  0  0  # atno 8010 bound_to 7997
  140.6162  143.8302  150.7122 H   0  0  0  0  0  0  0  0  0  0  0  0  # atno 10167 bound_to 10162
  157.4793  131.1085  150.9703 H   0  0  0  0  0  0  0  0  0  0  0  0  # atno 10718 bound_to 10713
  153.0576  135.5032  154.8017 H   0  0  0  0  0  0  0  0  0  0  0  0  # atno 10763 bound_to 10752
  154.6831  135.2971  154.9587 H   0  0  0  0  0  0  0  0  0  0  0  0  # atno 10764 bound_to 10752
  154.0366  135.6722  153.4838 H   0  0  0  0  0  0  0  0  0  0  0  0  # atno 10765 bound_to 10752
  141.1654  133.6987  156.7682 H   0  0  0  0  0  0  0  0  0  0  0  0  # atno 11005 bound_to 11000
  146.2882  140.4369  142.8749 LP  0  0  0  0  0  0  0  0  0  0  0  0  # atno 17320 bound_to 7965
  144.8571  140.7087  143.6131 LP  0  0  0  0  0  0  0  0  0  0  0  0  # atno 17321 bound_to 7965
  140.1882  143.4058  152.1883 LP  0  0  0  0  0  0  0  0  0  0  0  0  # atno 17342 bound_to 10162
  139.5401  144.7248  151.4763 LP  0  0  0  0  0  0  0  0  0  0  0  0  # atno 17343 bound_to 10162
  157.0442  130.5761  149.5360 LP  0  0  0  0  0  0  0  0  0  0  0  0  # atno 17370 bound_to 10713
  156.0113  130.5204  150.7996 LP  0  0  0  0  0  0  0  0  0  0  0  0  # atno 17371 bound_to 10713
  140.2483  134.8560  157.3642 LP  0  0  0  0  0  0  0  0  0  0  0  0  # atno 17394 bound_to 11000
  140.1727  134.4588  155.7821 LP  0  0  0  0  0  0  0  0  0  0  0  0  # atno 17395 bound_to 11000

$$$$
