AV-unprocessed.smi:1048|AV-procd|sdf|4604|dock4
  -GOLD-   22720 3103D 1   1.00000     0.00000
 Structure written by MMmdl.
 46 47  0  0  0  0  0  0  0  0  2 V2000
  150.9569  141.7755  158.3373 C   0  0  0  0  0  0  0  0  0  0  0  0
  149.9694  141.3267  157.2511 C   0  0  2  0  0  0  0  0  0  0  0  0
  150.4604  141.7032  155.8428 C   0  0  0  0  0  0  0  0  0  0  0  0
  149.4488  141.2772  154.7654 C   0  0  0  0  0  0  0  0  0  0  0  0
  148.1088  141.8674  155.0246 N   0  3  1  0  0  0  0  0  0  0  0  0
  147.1281  141.5949  153.9424 C   0  0  0  0  0  0  0  0  0  0  0  0
  147.4051  140.2607  153.2197 C   0  0  2  0  0  0  0  0  0  0  0  0
  146.8840  140.3876  151.9111 O   0  0  0  0  0  0  0  0  0  0  0  0
  146.6959  139.0812  153.9164 C   0  0  0  0  0  0  0  0  0  0  0  0
  146.8578  137.8322  153.1790 N   0  0  0  0  0  0  0  0  0  0  0  0
  145.8600  137.0054  152.8366 C   0  0  0  0  0  0  0  0  0  0  0  0
  144.6776  137.2292  153.0933 O   0  0  0  0  0  0  0  0  0  0  0  0
  146.3215  135.9360  152.1664 N   0  0  0  0  0  0  0  0  0  0  0  0
  145.5907  134.8231  151.6694 C   0  0  0  0  0  0  0  0  0  0  0  0
  146.3012  133.8189  150.9800 C   0  0  0  0  0  0  0  0  0  0  0  0
  145.6054  132.6947  150.4962 C   0  0  0  0  0  0  0  0  0  0  0  0
  144.2192  132.6134  150.7307 C   0  0  0  0  0  0  0  0  0  0  0  0
  143.5257  133.5574  151.4010 N   0  0  0  0  0  0  0  0  0  0  0  0
  144.1991  134.6345  151.8602 C   0  0  0  0  0  0  0  0  0  0  0  0
  147.5953  141.4864  156.3651 C   0  0  0  0  0  0  0  0  0  0  0  0
  148.5682  141.9200  157.4744 C   0  0  0  0  0  0  0  0  0  0  0  0
  151.0806  142.8589  158.3398 H   0  0  0  0  0  0  0  0  0  0  0  0
  151.9395  141.3287  158.1828 H   0  0  0  0  0  0  0  0  0  0  0  0
  150.6122  141.4780  159.3281 H   0  0  0  0  0  0  0  0  0  0  0  0
  149.8903  140.2397  157.3043 H   0  0  0  0  0  0  0  0  0  0  0  0
  150.6245  142.7802  155.7823 H   0  0  0  0  0  0  0  0  0  0  0  0
  151.4246  141.2328  155.6461 H   0  0  0  0  0  0  0  0  0  0  0  0
  149.8184  141.5897  153.7894 H   0  0  0  0  0  0  0  0  0  0  0  0
  149.3693  140.1892  154.7378 H   0  0  0  0  0  0  0  0  0  0  0  0
  146.1208  141.6064  154.3614 H   0  0  0  0  0  0  0  0  0  0  0  0
  147.1551  142.3982  153.2039 H   0  0  0  0  0  0  0  0  0  0  0  0
  148.4767  140.0673  153.1685 H   0  0  0  0  0  0  0  0  0  0  0  0
  147.6075  140.4443  151.3035 H   0  0  0  0  0  0  0  0  0  0  0  0
  147.1509  138.9099  154.8923 H   0  0  0  0  0  0  0  0  0  0  0  0
  145.6438  139.2995  154.1105 H   0  0  0  0  0  0  0  0  0  0  0  0
  147.7994  137.5716  152.9244 H   0  0  0  0  0  0  0  0  0  0  0  0
  147.3078  135.9366  151.9512 H   0  0  0  0  0  0  0  0  0  0  0  0
  147.3656  133.9076  150.8185 H   0  0  0  0  0  0  0  0  0  0  0  0
  146.1220  131.9127  149.9596 H   0  0  0  0  0  0  0  0  0  0  0  0
  143.6540  131.7644  150.3760 H   0  0  0  0  0  0  0  0  0  0  0  0
  143.5964  135.3397  152.4107 H   0  0  0  0  0  0  0  0  0  0  0  0
  146.6275  141.9591  156.5371 H   0  0  0  0  0  0  0  0  0  0  0  0
  147.4342  140.4080  156.4023 H   0  0  0  0  0  0  0  0  0  0  0  0
  148.1802  141.6078  158.4446 H   0  0  0  0  0  0  0  0  0  0  0  0
  148.6263  143.0094  157.5016 H   0  0  0  0  0  0  0  0  0  0  0  0
  148.2253  142.8708  155.0471 H   0  0  0  0  0  0  0  0  0  0  0  0
  1  2  1  0  0  0  0
  1 22  1  0  0  0  0
  1 23  1  0  0  0  0
  1 24  1  0  0  0  0
  2 21  1  0  0  0  0
  2  3  1  0  0  0  0
  2 25  1  0  0  0  0
  3  4  1  0  0  0  0
  3 26  1  0  0  0  0
  3 27  1  0  0  0  0
  4  5  1  0  0  0  0
  4 28  1  0  0  0  0
  4 29  1  0  0  0  0
  5  6  1  0  0  0  0
  5 20  1  0  0  0  0
  5 46  1  0  0  0  0
  6  7  1  0  0  0  0
  6 30  1  0  0  0  0
  6 31  1  0  0  0  0
  7  8  1  0  0  0  0
  7  9  1  0  0  0  0
  7 32  1  0  0  0  0
  8 33  1  0  0  0  0
  9 10  1  0  0  0  0
  9 34  1  0  0  0  0
  9 35  1  0  0  0  0
 10 11  1  0  0  0  0
 10 36  1  0  0  0  0
 11 12  2  0  0  0  0
 11 13  1  0  0  0  0
 13 14  1  0  0  0  0
 13 37  1  0  0  0  0
 14 19  1  0  0  0  0
 14 15  2  0  0  0  0
 15 16  1  0  0  0  0
 15 38  1  0  0  0  0
 16 17  2  0  0  0  0
 16 39  1  0  0  0  0
 17 18  1  0  0  0  0
 17 40  1  0  0  0  0
 18 19  2  0  0  0  0
 19 41  1  0  0  0  0
 20 21  1  0  0  0  0
 20 42  1  0  0  0  0
 20 43  1  0  0  0  0
 21 44  1  0  0  0  0
 21 45  1  0  0  0  0
M  CHG  1   5   1
M  END
> <s_m_source_file>
AV-unprocessed.smi

> <i_m_source_file_index>
1048

> <i_lp_mmshare_version>
43012

> <i_f3d_flags>
0

> <s_epik_input>
W0NIM11bQ0hdMVtDSDJdW0NIMl1OKFtDSDJdW0NIMl0xKVtDSDJdW0NASF0oW09IXSlbQ0gyXVtOSF1DKD1PKVtOSF1jMltjSF1bY0hdW2NIXW5bY0hdMg==

> <s_epik_cmdline>
J2VwaWtfcHl0aG9uJywgJy1waCcsICc3LjAnLCAnLXRuJywgJzgnLCAnLW1hJywgJzIwMCcsICctbWV0YWxfYmluZGluZycsICctaW1hZScsICc8aW5maWxlLm1hZT4nLCAnLW9tYWUnLCAnPG91dGZpbGUubWFlPic=

> <r_lp_tautomer_probability>
1

> <r_epik_Ionization_Penalty>
0.00581049

> <r_epik_Ionization_Penalty_Charging>
0.00147689

> <r_epik_Ionization_Penalty_Neutral>
0.0043336

> <r_epik_State_Penalty>
-0

> <r_epik_Charging_Adjusted_Penalty>
0.00147689

> <i_epik_Tot_Q>
1

> <i_epik_Tot_abs_Q>
1

> <r_epik_Metal_State_Penalty>
-0

> <b_epik_Metal_Only>
0

> <s_lp_Force_Field>
OPLS_2005

> <r_lp_Energy>
22.5683

> <b_lp_Chiralities_Consistent>
1

> <s_lp_Variant>
AV-unprocessed.smi:1048-1

> <Gold.Version>
5.8.1

> <Gold.Id.Protein>
6NUR|6NUR_protein|mol2

> <Gold.PLP.Fitness>
48.4411

> <Gold.PLP.PLP>
-35.8777

> <Gold.PLP.part.hbond>
-4.2972

> <Gold.PLP.part.metal>
0.0000

> <Gold.PLP.part.buried>
-5.3279

> <Gold.PLP.part.nonpolar>
-26.2875

> <Gold.PLP.part.repulsive>
0.5609

> <Gold.PLP.ligand.clash>
0.0000

> <Gold.PLP.ligand.torsion>
0.8300

> <Gold.PLP.Chemscore.Hbond>
4.7236

> <Gold.PLP.Chemscore.CHOScore>
0.0000

> <Gold.PLP.Chemscore.Metal>
0.0000

> <Gold.Chemscore.Hbonds>
donor molecule, donor type, donor heavy atom, donor atom, acceptor molecule, acceptor atom, score
      L1  H     5    46       P1  8028  1.98
      L1  H     8    33       P1  7957  0.86
      L1  H    10    36       P1  7948  0.86
      L1  H    13    37       P1  7948  1.00

> <Gold.PLP.Chemscore.Internal.Correction>
0.0528

> <Gold.Rescore>
     Score         DG    S(hbond)    S(metal)    S(lipo)     H(rot)  DE(clash)    DE(int)     intcor
     18.89     -21.25       3.59        0.00      82.33       2.29       0.30       2.05       ----

> <Gold.Chemscore.Fitness>
18.8949

> <Gold.Chemscore.DG>
-21.2493

> <Gold.Chemscore.ZeroCoef>
-5.4800

> <Gold.Chemscore.Hbond>
3.5900

> <Gold.Chemscore.Metal>
0.0000

> <Gold.Chemscore.Lipo>
82.3271

> <Gold.Chemscore.Internal_Hbond>
0.0000

> <Gold.Chemscore.DEClash>
0.3009

> <Gold.Chemscore.DEInternal>
2.0535

> <Gold.Chemscore.Rot>
2.2865

> <Gold.Chemscore.Internal.Correction>
   9.000000E+99

> <Gold.Chemscore.Hbonds>
donor molecule, donor type, donor heavy atom, donor atom, acceptor molecule, acceptor atom, score
      L1  H     5    46       P1  8028  0.91
      L1  H     8    33       P1  7957  0.82
      L1  H    10    36       P1  7948  0.79
      L1  H    13    37       P1  7948  1.00

> <Gold.Chemscore.Hbond.Weighted>
-11.9906

> <Gold.Chemscore.Metal.Weighted>
-0.0000

> <Gold.Chemscore.Lipo.Weighted>
-9.6323

> <Gold.Chemscore.Internal_Hbond.Weighted>
0.0000

> <Gold.Chemscore.DEClash.Weighted>
0.3009

> <Gold.Chemscore.DEInternal.Weighted>
2.0535

> <Gold.Chemscore.Rot.Weighted>
5.8536

> <Gold.Chemscore.Internal.Correction.Weighted>
   9.000000E+99

> <Gold.Protein.RotatedTorsions>
[ 6907 6896 6895 6894 ] final  -78.81 input  -60.11 | X-H torsion
[ 7974 7965 7964 7962 ] final  179.49 input  175.53 | X-H torsion
[ 8008 7997 7996 7995 ] final  117.69 input   59.86 | X-H torsion
[ 10167 10162 10161 10158 ] final -158.19 input  -65.29 | X-H torsion
[ 10718 10713 10712 10709 ] final  170.24 input   66.30 | X-H torsion
[ 10763 10752 10751 10750 ] final -122.66 input  -60.55 | X-H torsion
[ 11005 11000 10999 10996 ] final  -95.79 input  -57.11 | X-H torsion

> <Gold.Protein.ActiveResidues>
 VAL166  LYS551  ARG553  GLY616  TRP617  ASP618  TYR619  PRO620  LYS621  CYS622 
 ASP623  PHE694  ASN695  SER759  ASP760  ASP761  ALA762  ILE779  LEU786  VAL792 
 PHE793  MET794  SER795  GLU796  ALA797  LYS798  CYS799  TRP800  GLU811  SER814 

> <Gold.Protein.RotatedAtoms>
  150.6964  134.4216  159.5207 H   0  0  0  0  0  0  0  0  0  0  0  0  # atno 6907 bound_to 6896
  152.1958  134.8629  160.0522 H   0  0  0  0  0  0  0  0  0  0  0  0  # atno 6908 bound_to 6896
  151.9568  133.3648  159.4057 H   0  0  0  0  0  0  0  0  0  0  0  0  # atno 6909 bound_to 6896
  144.7145  140.0556  143.6434 H   0  0  0  0  0  0  0  0  0  0  0  0  # atno 7974 bound_to 7965
  156.2507  140.2891  156.0718 H   0  0  0  0  0  0  0  0  0  0  0  0  # atno 8008 bound_to 7997
  155.1663  140.0400  157.2870 H   0  0  0  0  0  0  0  0  0  0  0  0  # atno 8009 bound_to 7997
  154.6357  140.2510  155.7387 H   0  0  0  0  0  0  0  0  0  0  0  0  # atno 8010 bound_to 7997
  139.6711  143.9743  152.2284 H   0  0  0  0  0  0  0  0  0  0  0  0  # atno 10167 bound_to 10162
  157.0110  131.0204  151.2803 H   0  0  0  0  0  0  0  0  0  0  0  0  # atno 10718 bound_to 10713
  154.8693  135.4125  154.2817 H   0  0  0  0  0  0  0  0  0  0  0  0  # atno 10763 bound_to 10752
  153.3709  135.7007  153.6644 H   0  0  0  0  0  0  0  0  0  0  0  0  # atno 10764 bound_to 10752
  153.5506  135.3629  155.2730 H   0  0  0  0  0  0  0  0  0  0  0  0  # atno 10765 bound_to 10752
  141.1431  133.8051  157.0483 H   0  0  0  0  0  0  0  0  0  0  0  0  # atno 11005 bound_to 11000
  145.9907  139.3012  143.0986 LP  0  0  0  0  0  0  0  0  0  0  0  0  # atno 17320 bound_to 7965
  145.8906  140.9306  143.0554 LP  0  0  0  0  0  0  0  0  0  0  0  0  # atno 17321 bound_to 7965
  139.9508  144.6622  150.8174 LP  0  0  0  0  0  0  0  0  0  0  0  0  # atno 17342 bound_to 10162
  140.7618  143.3184  151.2680 LP  0  0  0  0  0  0  0  0  0  0  0  0  # atno 17343 bound_to 10162
  157.5320  130.8065  149.7928 LP  0  0  0  0  0  0  0  0  0  0  0  0  # atno 17370 bound_to 10713
  156.0136  130.3823  150.2183 LP  0  0  0  0  0  0  0  0  0  0  0  0  # atno 17371 bound_to 10713
  140.0648  134.9735  157.1367 LP  0  0  0  0  0  0  0  0  0  0  0  0  # atno 17394 bound_to 11000
  140.3795  134.2302  155.7172 LP  0  0  0  0  0  0  0  0  0  0  0  0  # atno 17395 bound_to 11000

$$$$
