AV-unprocessed.smi:242|AV-procd|sdf|1845|dock4
  -GOLD-   2262020463D 1   1.00000     0.00000
 Structure written by MMmdl.
 58 61  0  0  0  0  0  0  0  0  2 V2000
  144.0711  132.7431  148.7012 C   0  0  0  0  0  0  0  0  0  0  0  0
  144.1453  132.0099  150.0544 C   0  0  0  0  0  0  0  0  0  0  0  0
  143.2177  132.7070  151.0679 C   0  0  0  0  0  0  0  0  0  0  0  0
  145.5423  131.9379  150.5681 N   0  3  1  0  0  0  0  0  0  0  0  0
  146.2062  133.2495  150.7827 C   0  0  0  0  0  0  0  0  0  0  0  0
  146.9776  133.1518  152.1046 C   0  0  0  0  0  0  0  0  0  0  0  0
  147.0589  131.6483  152.3840 C   0  0  1  0  0  0  0  0  0  0  0  0
  147.2594  131.2947  153.7909 N   0  0  0  0  0  0  0  0  0  0  0  0
  147.1354  129.8839  154.1367 C   0  0  0  0  0  0  0  0  0  0  0  0
  148.3624  131.8396  154.3496 C   0  0  0  0  0  0  0  0  0  0  0  0
  149.4032  131.0099  154.6044 N   0  0  0  0  0  0  0  0  0  0  0  0
  150.5152  131.4909  155.1693 C   0  0  0  0  0  0  0  0  0  0  0  0
  150.7851  132.7417  155.5501 N   0  0  0  0  0  0  0  0  0  0  0  0
  149.7387  133.5775  155.2900 C   0  0  0  0  0  0  0  0  0  0  0  0
  148.5002  133.2140  154.6920 C   0  0  0  0  0  0  0  0  0  0  0  0
  147.6805  134.3303  154.5787 N   0  0  0  0  0  0  0  0  0  0  0  0
  148.3953  135.2999  155.0814 C   0  0  0  0  0  0  0  0  0  0  0  0
  149.6394  134.9340  155.5446 N   0  0  0  0  0  0  0  0  0  0  0  0
  150.6333  135.8015  156.1580 C   0  0  0  0  0  0  0  0  0  0  0  0
  151.0984  136.9667  155.2489 C   0  0  0  0  0  0  0  0  0  0  0  0
  151.6004  136.4096  154.0462 O   0  0  0  0  0  0  0  0  0  0  0  0
  149.9084  137.8842  154.9023 C   0  0  0  0  0  0  0  0  0  0  0  0
  150.3508  139.1513  154.1491 C   0  0  0  0  0  0  0  0  0  0  0  0
  151.3346  139.8465  154.9049 O   0  0  0  0  0  0  0  0  0  0  0  0
  152.5226  139.0859  155.0859 C   0  0  0  0  0  0  0  0  0  0  0  0
  152.2186  137.8118  155.8944 C   0  0  0  0  0  0  0  0  0  0  0  0
  145.7269  131.1624  151.8141 C   0  0  0  0  0  0  0  0  0  0  0  0
  143.0388  132.8267  148.3598 H   0  0  0  0  0  0  0  0  0  0  0  0
  144.6172  132.2161  147.9189 H   0  0  0  0  0  0  0  0  0  0  0  0
  144.4770  133.7527  148.7731 H   0  0  0  0  0  0  0  0  0  0  0  0
  143.7866  130.9903  149.9047 H   0  0  0  0  0  0  0  0  0  0  0  0
  142.2012  132.7811  150.6804 H   0  0  0  0  0  0  0  0  0  0  0  0
  143.5607  133.7187  151.2868 H   0  0  0  0  0  0  0  0  0  0  0  0
  143.1567  132.1652  152.0116 H   0  0  0  0  0  0  0  0  0  0  0  0
  146.8798  133.4431  149.9474 H   0  0  0  0  0  0  0  0  0  0  0  0
  145.4916  134.0720  150.8325 H   0  0  0  0  0  0  0  0  0  0  0  0
  147.9579  133.6272  152.0531 H   0  0  0  0  0  0  0  0  0  0  0  0
  146.4080  133.6494  152.8914 H   0  0  0  0  0  0  0  0  0  0  0  0
  147.8648  131.2196  151.7864 H   0  0  0  0  0  0  0  0  0  0  0  0
  147.4322  129.6991  155.1704 H   0  0  0  0  0  0  0  0  0  0  0  0
  147.7576  129.2679  153.4863 H   0  0  0  0  0  0  0  0  0  0  0  0
  146.1011  129.5569  154.0295 H   0  0  0  0  0  0  0  0  0  0  0  0
  151.3007  130.7700  155.3423 H   0  0  0  0  0  0  0  0  0  0  0  0
  148.0292  136.3149  155.1374 H   0  0  0  0  0  0  0  0  0  0  0  0
  150.2190  136.1903  157.0893 H   0  0  0  0  0  0  0  0  0  0  0  0
  151.4873  135.1853  156.4424 H   0  0  0  0  0  0  0  0  0  0  0  0
  150.8789  136.2823  153.4490 H   0  0  0  0  0  0  0  0  0  0  0  0
  149.1643  137.3422  154.3169 H   0  0  0  0  0  0  0  0  0  0  0  0
  149.4084  138.1891  155.8225 H   0  0  0  0  0  0  0  0  0  0  0  0
  150.7402  138.9067  153.1595 H   0  0  0  0  0  0  0  0  0  0  0  0
  149.4962  139.8106  153.9964 H   0  0  0  0  0  0  0  0  0  0  0  0
  152.9623  138.8412  154.1179 H   0  0  0  0  0  0  0  0  0  0  0  0
  153.2523  139.6974  155.6168 H   0  0  0  0  0  0  0  0  0  0  0  0
  151.9144  138.1037  156.9004 H   0  0  0  0  0  0  0  0  0  0  0  0
  153.1320  137.2269  156.0072 H   0  0  0  0  0  0  0  0  0  0  0  0
  144.9158  131.3846  152.5106 H   0  0  0  0  0  0  0  0  0  0  0  0
  145.7300  130.0890  151.6214 H   0  0  0  0  0  0  0  0  0  0  0  0
  146.0909  131.4619  149.8662 H   0  0  0  0  0  0  0  0  0  0  0  0
  1  2  1  0  0  0  0
  1 28  1  0  0  0  0
  1 29  1  0  0  0  0
  1 30  1  0  0  0  0
  2  3  1  0  0  0  0
  2  4  1  0  0  0  0
  2 31  1  0  0  0  0
  3 32  1  0  0  0  0
  3 33  1  0  0  0  0
  3 34  1  0  0  0  0
  4 27  1  0  0  0  0
  4  5  1  0  0  0  0
  4 58  1  0  0  0  0
  5  6  1  0  0  0  0
  5 35  1  0  0  0  0
  5 36  1  0  0  0  0
  6  7  1  0  0  0  0
  6 37  1  0  0  0  0
  6 38  1  0  0  0  0
  7  8  1  0  0  0  0
  7 27  1  0  0  0  0
  7 39  1  0  0  0  0
  8  9  1  0  0  0  0
  8 10  1  0  0  0  0
  9 40  1  0  0  0  0
  9 41  1  0  0  0  0
  9 42  1  0  0  0  0
 10 15  1  0  0  0  0
 10 11  2  0  0  0  0
 11 12  1  0  0  0  0
 12 13  2  0  0  0  0
 12 43  1  0  0  0  0
 13 14  1  0  0  0  0
 14 18  1  0  0  0  0
 14 15  2  0  0  0  0
 15 16  1  0  0  0  0
 16 17  2  0  0  0  0
 17 18  1  0  0  0  0
 17 44  1  0  0  0  0
 18 19  1  0  0  0  0
 19 20  1  0  0  0  0
 19 45  1  0  0  0  0
 19 46  1  0  0  0  0
 20 26  1  0  0  0  0
 20 21  1  0  0  0  0
 20 22  1  0  0  0  0
 21 47  1  0  0  0  0
 22 23  1  0  0  0  0
 22 48  1  0  0  0  0
 22 49  1  0  0  0  0
 23 24  1  0  0  0  0
 23 50  1  0  0  0  0
 23 51  1  0  0  0  0
 24 25  1  0  0  0  0
 25 26  1  0  0  0  0
 25 52  1  0  0  0  0
 25 53  1  0  0  0  0
 26 54  1  0  0  0  0
 26 55  1  0  0  0  0
 27 56  1  0  0  0  0
 27 57  1  0  0  0  0
M  CHG  1   4   1
M  END
> <s_m_source_file>
AV-unprocessed.smi

> <i_m_source_file_index>
242

> <i_lp_mmshare_version>
43012

> <i_f3d_flags>
0

> <s_epik_input>
W0NIM11bQ0hdKFtDSDNdKU4xW0NIMl1bQ0gyXVtDQEhdKFtDSDJdMSlOKFtDSDNdKWMobltjSF1uMiljKGMyMyluW2NIXW4zW0NIMl1DNChbT0hdKVtDSDJdW0NIMl1PW0NIMl1bQ0gyXTQ=

> <s_epik_cmdline>
J2VwaWtfcHl0aG9uJywgJy1waCcsICc3LjAnLCAnLXRuJywgJzgnLCAnLW1hJywgJzIwMCcsICctbWV0YWxfYmluZGluZycsICctaW1hZScsICc8aW5maWxlLm1hZT4nLCAnLW9tYWUnLCAnPG91dGZpbGUubWFlPic=

> <r_lp_tautomer_probability>
1

> <r_epik_Ionization_Penalty>
0.000825961

> <r_epik_Ionization_Penalty_Charging>
0.00034898

> <r_epik_Ionization_Penalty_Neutral>
0.000476981

> <r_epik_State_Penalty>
-0

> <r_epik_Charging_Adjusted_Penalty>
0.00034898

> <i_epik_Tot_Q>
1

> <i_epik_Tot_abs_Q>
1

> <r_epik_Metal_State_Penalty>
-0

> <b_epik_Metal_Only>
0

> <s_lp_Force_Field>
OPLS_2005

> <r_lp_Energy>
46.4754

> <b_lp_Chiralities_Consistent>
1

> <s_lp_Variant>
AV-unprocessed.smi:242-2

> <Gold.Version>
5.8.1

> <Gold.Id.Protein>
6NUR|6NUR_protein|mol2

> <Gold.PLP.Fitness>
48.0043

> <Gold.PLP.PLP>
-43.2850

> <Gold.PLP.part.hbond>
-3.0000

> <Gold.PLP.part.metal>
0.0000

> <Gold.PLP.part.buried>
-3.0615

> <Gold.PLP.part.nonpolar>
-38.0213

> <Gold.PLP.part.repulsive>
0.3346

> <Gold.PLP.ligand.clash>
0.0000

> <Gold.PLP.ligand.torsion>
0.5684

> <Gold.PLP.Chemscore.Hbond>
1.8120

> <Gold.PLP.Chemscore.CHOScore>
0.0000

> <Gold.PLP.Chemscore.Metal>
0.0000

> <Gold.Chemscore.Hbonds>
donor molecule, donor type, donor heavy atom, donor atom, acceptor molecule, acceptor atom, score
      L1  H    21    47       P1  7949  0.36
      P1  H  7989  7998       L1    24  0.45
      P1  H 10752 10765       L1    21  0.99

> <Gold.PLP.Chemscore.Internal.Correction>
0.4200

> <Gold.Rescore>
     Score         DG    S(hbond)    S(metal)    S(lipo)     H(rot)  DE(clash)    DE(int)     intcor
     12.27     -14.71       0.91        0.00     107.60       2.50       0.40       2.04       ----

> <Gold.Chemscore.Fitness>
12.2706

> <Gold.Chemscore.DG>
-14.7116

> <Gold.Chemscore.ZeroCoef>
-5.4800

> <Gold.Chemscore.Hbond>
0.9106

> <Gold.Chemscore.Metal>
0.0000

> <Gold.Chemscore.Lipo>
107.5997

> <Gold.Chemscore.Internal_Hbond>
0.0000

> <Gold.Chemscore.DEClash>
0.4005

> <Gold.Chemscore.DEInternal>
2.0405

> <Gold.Chemscore.Rot>
2.4996

> <Gold.Chemscore.Internal.Correction>
   9.000000E+99

> <Gold.Chemscore.Hbonds>
donor molecule, donor type, donor heavy atom, donor atom, acceptor molecule, acceptor atom, score
      L1  H    21    47       P1  7949  0.05
      P1  H  7989  7998       L1    24  0.01
      P1  H 10752 10765       L1    21  0.93

> <Gold.Chemscore.Hbond.Weighted>
-3.0414

> <Gold.Chemscore.Metal.Weighted>
-0.0000

> <Gold.Chemscore.Lipo.Weighted>
-12.5892

> <Gold.Chemscore.Internal_Hbond.Weighted>
0.0000

> <Gold.Chemscore.DEClash.Weighted>
0.4005

> <Gold.Chemscore.DEInternal.Weighted>
2.0405

> <Gold.Chemscore.Rot.Weighted>
6.3990

> <Gold.Chemscore.Internal.Correction.Weighted>
   9.000000E+99

> <Gold.Protein.RotatedTorsions>
[ 6907 6896 6895 6894 ] final  -17.99 input  -60.11 | X-H torsion
[ 7974 7965 7964 7962 ] final   79.85 input  175.53 | X-H torsion
[ 8008 7997 7996 7995 ] final   -1.08 input   59.86 | X-H torsion
[ 10167 10162 10161 10158 ] final  -45.31 input  -65.29 | X-H torsion
[ 10718 10713 10712 10709 ] final  167.61 input   66.30 | X-H torsion
[ 10763 10752 10751 10750 ] final  137.95 input  -60.55 | X-H torsion
[ 11005 11000 10999 10996 ] final  149.21 input  -57.11 | X-H torsion

> <Gold.Protein.ActiveResidues>
 VAL166  LYS551  ARG553  GLY616  TRP617  ASP618  TYR619  PRO620  LYS621  CYS622 
 ASP623  PHE694  ASN695  SER759  ASP760  ASP761  ALA762  ILE779  LEU786  VAL792 
 PHE793  MET794  SER795  GLU796  ALA797  LYS798  CYS799  TRP800  GLU811  SER814 

> <Gold.Protein.RotatedAtoms>
  151.2849  135.0725  159.9182 H   0  0  0  0  0  0  0  0  0  0  0  0  # atno 6907 bound_to 6896
  152.5327  133.9992  159.7897 H   0  0  0  0  0  0  0  0  0  0  0  0  # atno 6908 bound_to 6896
  151.0252  133.5789  159.2697 H   0  0  0  0  0  0  0  0  0  0  0  0  # atno 6909 bound_to 6896
  145.6588  139.2466  143.1934 H   0  0  0  0  0  0  0  0  0  0  0  0  # atno 7974 bound_to 7965
  154.6508  140.2568  155.7216 H   0  0  0  0  0  0  0  0  0  0  0  0  # atno 8008 bound_to 7997
  156.2574  140.2868  156.0862 H   0  0  0  0  0  0  0  0  0  0  0  0  # atno 8009 bound_to 7997
  155.1454  140.0381  157.2799 H   0  0  0  0  0  0  0  0  0  0  0  0  # atno 8010 bound_to 7997
  140.6863  143.2886  151.3621 H   0  0  0  0  0  0  0  0  0  0  0  0  # atno 10167 bound_to 10162
  157.0490  131.0308  151.2687 H   0  0  0  0  0  0  0  0  0  0  0  0  # atno 10718 bound_to 10713
  153.8815  135.3044  155.3445 H   0  0  0  0  0  0  0  0  0  0  0  0  # atno 10763 bound_to 10752
  154.7759  135.4861  153.9747 H   0  0  0  0  0  0  0  0  0  0  0  0  # atno 10764 bound_to 10752
  153.1349  135.6812  153.9216 H   0  0  0  0  0  0  0  0  0  0  0  0  # atno 10765 bound_to 10752
  140.1025  134.8974  157.1817 H   0  0  0  0  0  0  0  0  0  0  0  0  # atno 11005 bound_to 11000
  146.1142  140.7390  142.9488 LP  0  0  0  0  0  0  0  0  0  0  0  0  # atno 17320 bound_to 7965
  144.7096  140.3988  143.7091 LP  0  0  0  0  0  0  0  0  0  0  0  0  # atno 17321 bound_to 7965
  139.6224  144.0880  152.2403 LP  0  0  0  0  0  0  0  0  0  0  0  0  # atno 17342 bound_to 10162
  140.0329  144.6067  150.7473 LP  0  0  0  0  0  0  0  0  0  0  0  0  # atno 17343 bound_to 10162
  157.5045  130.7900  149.7639 LP  0  0  0  0  0  0  0  0  0  0  0  0  # atno 17370 bound_to 10713
  156.0014  130.3878  150.2593 LP  0  0  0  0  0  0  0  0  0  0  0  0  # atno 17371 bound_to 10713
  140.3200  134.2926  155.7248 LP  0  0  0  0  0  0  0  0  0  0  0  0  # atno 17394 bound_to 11000
  141.2109  133.7704  156.9898 LP  0  0  0  0  0  0  0  0  0  0  0  0  # atno 17395 bound_to 11000

$$$$
