AV-unprocessed.smi:1879|AV-procd|sdf|7632|dock1
  -GOLD-   22720 9353D 1   1.00000     0.00000
 Structure written by MMmdl.
 46 48  0  0  0  0  0  0  0  0  1 V2000
  147.5172  132.6460  154.2000 O   0  0  0  0  0  0  0  0  0  0  0  0
  147.7032  133.7533  153.6946 C   0  0  0  0  0  0  0  0  0  0  0  0
  148.6913  134.6002  154.0280 N   0  0  0  0  0  0  0  0  0  0  0  0
  149.7189  134.4098  154.9945 C   0  0  0  0  0  0  0  0  0  0  0  0
  149.8944  133.1652  155.6475 C   0  0  0  0  0  0  0  0  0  0  0  0
  150.8743  133.0420  156.6472 C   0  0  0  0  0  0  0  0  0  0  0  0
  151.6368  134.1757  156.9726 C   0  0  0  0  0  0  0  0  0  0  0  0
  151.4733  135.3705  156.3709 N   0  0  0  0  0  0  0  0  0  0  0  0
  150.5423  135.5022  155.3937 C   0  0  0  0  0  0  0  0  0  0  0  0
  150.4289  136.7763  154.7899 N   0  0  0  0  0  0  0  0  0  0  0  0
  149.2629  137.6156  155.0445 C   0  0  0  0  0  0  0  0  0  0  0  0
  149.6637  139.0065  154.5620 C   0  0  0  0  0  0  0  0  0  0  0  0
  151.1452  139.0606  154.9212 C   0  0  0  0  0  0  0  0  0  0  0  0
  151.6204  137.6177  154.7199 C   0  0  0  0  0  0  0  0  0  0  0  0
  146.9425  134.2586  152.7133 N   0  0  0  0  0  0  0  0  0  0  0  0
  145.7931  133.5913  152.1094 C   0  0  2  0  0  0  0  0  0  0  0  0
  146.1729  132.1726  151.6400 C   0  0  0  0  0  0  0  0  0  0  0  0
  144.9924  131.4735  150.9432 C   0  0  0  0  0  0  0  0  0  0  0  0
  144.4169  132.3101  149.7848 C   0  0  2  0  0  0  0  0  0  0  0  0
  145.3323  132.3410  148.7076 O   0  0  0  0  0  0  0  0  0  0  0  0
  144.0806  133.7449  150.2335 C   0  0  0  0  0  0  0  0  0  0  0  0
  145.2678  134.4315  150.9312 C   0  0  0  0  0  0  0  0  0  0  0  0
  148.7820  135.4280  153.4574 H   0  0  0  0  0  0  0  0  0  0  0  0
  149.2773  132.3106  155.4147 H   0  0  0  0  0  0  0  0  0  0  0  0
  151.0274  132.1045  157.1609 H   0  0  0  0  0  0  0  0  0  0  0  0
  152.3940  134.1247  157.7410 H   0  0  0  0  0  0  0  0  0  0  0  0
  148.3822  137.2429  154.5211 H   0  0  0  0  0  0  0  0  0  0  0  0
  149.0388  137.6536  156.1114 H   0  0  0  0  0  0  0  0  0  0  0  0
  149.5386  139.0775  153.4804 H   0  0  0  0  0  0  0  0  0  0  0  0
  149.0805  139.8024  155.0260 H   0  0  0  0  0  0  0  0  0  0  0  0
  151.7040  139.7785  154.3204 H   0  0  0  0  0  0  0  0  0  0  0  0
  151.2573  139.3405  155.9693 H   0  0  0  0  0  0  0  0  0  0  0  0
  152.3679  137.3369  155.4631 H   0  0  0  0  0  0  0  0  0  0  0  0
  152.0682  137.5101  153.7320 H   0  0  0  0  0  0  0  0  0  0  0  0
  147.1745  135.1739  152.3560 H   0  0  0  0  0  0  0  0  0  0  0  0
  144.9958  133.5156  152.8516 H   0  0  0  0  0  0  0  0  0  0  0  0
  147.0213  132.2239  150.9560 H   0  0  0  0  0  0  0  0  0  0  0  0
  146.4999  131.5702  152.4884 H   0  0  0  0  0  0  0  0  0  0  0  0
  145.2979  130.4898  150.5848 H   0  0  0  0  0  0  0  0  0  0  0  0
  144.2057  131.2970  151.6778 H   0  0  0  0  0  0  0  0  0  0  0  0
  143.5098  131.8303  149.4158 H   0  0  0  0  0  0  0  0  0  0  0  0
  145.3308  133.2101  148.3369 H   0  0  0  0  0  0  0  0  0  0  0  0
  143.7503  134.3410  149.3822 H   0  0  0  0  0  0  0  0  0  0  0  0
  143.2377  133.7114  150.9249 H   0  0  0  0  0  0  0  0  0  0  0  0
  144.9623  135.4176  151.2835 H   0  0  0  0  0  0  0  0  0  0  0  0
  146.0682  134.5979  150.2087 H   0  0  0  0  0  0  0  0  0  0  0  0
  1  2  2  0  0  0  0
  2  3  1  0  0  0  0
  2 15  1  0  0  0  0
  3  4  1  0  0  0  0
  3 23  1  0  0  0  0
  4  9  1  0  0  0  0
  4  5  2  0  0  0  0
  5  6  1  0  0  0  0
  5 24  1  0  0  0  0
  6  7  2  0  0  0  0
  6 25  1  0  0  0  0
  7  8  1  0  0  0  0
  7 26  1  0  0  0  0
  8  9  2  0  0  0  0
  9 10  1  0  0  0  0
 10 14  1  0  0  0  0
 10 11  1  0  0  0  0
 11 12  1  0  0  0  0
 11 27  1  0  0  0  0
 11 28  1  0  0  0  0
 12 13  1  0  0  0  0
 12 29  1  0  0  0  0
 12 30  1  0  0  0  0
 13 14  1  0  0  0  0
 13 31  1  0  0  0  0
 13 32  1  0  0  0  0
 14 33  1  0  0  0  0
 14 34  1  0  0  0  0
 15 16  1  0  0  0  0
 15 35  1  0  0  0  0
 16 22  1  0  0  0  0
 16 17  1  0  0  0  0
 16 36  1  0  0  0  0
 17 18  1  0  0  0  0
 17 37  1  0  0  0  0
 17 38  1  0  0  0  0
 18 19  1  0  0  0  0
 18 39  1  0  0  0  0
 18 40  1  0  0  0  0
 19 20  1  0  0  0  0
 19 21  1  0  0  0  0
 19 41  1  0  0  0  0
 20 42  1  0  0  0  0
 21 22  1  0  0  0  0
 21 43  1  0  0  0  0
 21 44  1  0  0  0  0
 22 45  1  0  0  0  0
 22 46  1  0  0  0  0
M  END
> <s_m_source_file>
AV-unprocessed.smi

> <i_m_source_file_index>
1879

> <i_lp_mmshare_version>
43012

> <i_f3d_flags>
0

> <s_epik_input>
W0NIMl0xW0NIMl1bQ0BIXShbT0hdKVtDSDJdW0NIMl1bQ0BIXTFbTkhdQyg9TylbTkhdYzJbY0hdW2NIXVtjSF1uYzJOM1tDSDJdW0NIMl1bQ0gyXVtDSDJdMw==

> <s_epik_cmdline>
J2VwaWtfcHl0aG9uJywgJy1waCcsICc3LjAnLCAnLXRuJywgJzgnLCAnLW1hJywgJzIwMCcsICctbWV0YWxfYmluZGluZycsICctaW1hZScsICc8aW5maWxlLm1hZT4nLCAnLW9tYWUnLCAnPG91dGZpbGUubWFlPic=

> <r_lp_tautomer_probability>
1

> <r_epik_Ionization_Penalty>
0.104121

> <r_epik_Ionization_Penalty_Charging>
0

> <r_epik_Ionization_Penalty_Neutral>
0.104121

> <r_epik_State_Penalty>
0.0934704

> <r_epik_Charging_Adjusted_Penalty>
0.0934704

> <i_epik_Tot_Q>
0

> <i_epik_Tot_abs_Q>
0

> <r_epik_Metal_State_Penalty>
0.0794466

> <b_epik_Metal_Only>
0

> <s_lp_Force_Field>
OPLS_2005

> <r_lp_Energy>
39.1778

> <b_lp_Chiralities_Consistent>
1

> <s_lp_Variant>
AV-unprocessed.smi:1879-2

> <Gold.Version>
5.8.1

> <Gold.Id.Protein>
6NUR|6NUR_protein|mol2

> <Gold.PLP.Fitness>
47.5388

> <Gold.PLP.PLP>
-37.2203

> <Gold.PLP.part.hbond>
-5.0000

> <Gold.PLP.part.metal>
0.0000

> <Gold.PLP.part.buried>
-1.0523

> <Gold.PLP.part.nonpolar>
-31.3396

> <Gold.PLP.part.repulsive>
0.2497

> <Gold.PLP.ligand.clash>
0.0000

> <Gold.PLP.ligand.torsion>
0.5484

> <Gold.PLP.Chemscore.Hbond>
3.6903

> <Gold.PLP.Chemscore.CHOScore>
0.0000

> <Gold.PLP.Chemscore.Metal>
0.0000

> <Gold.Chemscore.Hbonds>
donor molecule, donor type, donor heavy atom, donor atom, acceptor molecule, acceptor atom, score
      L1  H     3    23       P1  7948  1.00
      L1  H    15    35       P1  7948  0.60
      L1  H    20    42       P1  7921  0.85
      P1  H 10752 10765       L1     8  0.66

> <Gold.PLP.Chemscore.Internal.Correction>
0.3444

> <Gold.Rescore>
     Score         DG    S(hbond)    S(metal)    S(lipo)     H(rot)  DE(clash)    DE(int)     intcor
     16.11     -19.07       2.09        0.00      93.04       1.67       0.36       2.60       ----

> <Gold.Chemscore.Fitness>
16.1064

> <Gold.Chemscore.DG>
-19.0666

> <Gold.Chemscore.ZeroCoef>
-5.4800

> <Gold.Chemscore.Hbond>
2.0906

> <Gold.Chemscore.Metal>
0.0000

> <Gold.Chemscore.Lipo>
93.0356

> <Gold.Chemscore.Internal_Hbond>
0.0000

> <Gold.Chemscore.DEClash>
0.3614

> <Gold.Chemscore.DEInternal>
2.5987

> <Gold.Chemscore.Rot>
1.6723

> <Gold.Chemscore.Internal.Correction>
   9.000000E+99

> <Gold.Chemscore.Hbonds>
donor molecule, donor type, donor heavy atom, donor atom, acceptor molecule, acceptor atom, score
      L1  H     3    23       P1  7948  0.81
      L1  H    15    35       P1  7948  0.59
      L1  H    20    42       P1  7921  0.14
      P1  H 10752 10765       L1     8  0.04

> <Gold.Chemscore.Hbond.Weighted>
-6.9826

> <Gold.Chemscore.Metal.Weighted>
-0.0000

> <Gold.Chemscore.Lipo.Weighted>
-10.8852

> <Gold.Chemscore.Internal_Hbond.Weighted>
0.0000

> <Gold.Chemscore.DEClash.Weighted>
0.3614

> <Gold.Chemscore.DEInternal.Weighted>
2.5987

> <Gold.Chemscore.Rot.Weighted>
4.2812

> <Gold.Chemscore.Internal.Correction.Weighted>
   9.000000E+99

> <Gold.Protein.RotatedTorsions>
[ 6907 6896 6895 6894 ] final  178.77 input  -60.11 | X-H torsion
[ 7974 7965 7964 7962 ] final -176.61 input  175.53 | X-H torsion
[ 8008 7997 7996 7995 ] final -152.82 input   59.86 | X-H torsion
[ 10167 10162 10161 10158 ] final -137.52 input  -65.29 | X-H torsion
[ 10718 10713 10712 10709 ] final  150.97 input   66.30 | X-H torsion
[ 10763 10752 10751 10750 ] final -143.33 input  -60.55 | X-H torsion
[ 11005 11000 10999 10996 ] final  -30.62 input  -57.11 | X-H torsion

> <Gold.Protein.ActiveResidues>
 VAL166  LYS551  ARG553  GLY616  TRP617  ASP618  TYR619  PRO620  LYS621  CYS622 
 ASP623  PHE694  ASN695  SER759  ASP760  ASP761  ALA762  ILE779  LEU786  VAL792 
 PHE793  MET794  SER795  GLU796  ALA797  LYS798  CYS799  TRP800  GLU811  SER814 

> <Gold.Protein.RotatedAtoms>
  151.6825  133.3312  159.3222 H   0  0  0  0  0  0  0  0  0  0  0  0  # atno 6907 bound_to 6896
  150.7816  134.6768  159.6431 H   0  0  0  0  0  0  0  0  0  0  0  0  # atno 6908 bound_to 6896
  152.3875  134.6498  160.0172 H   0  0  0  0  0  0  0  0  0  0  0  0  # atno 6909 bound_to 6896
  144.7127  140.1144  143.6409 H   0  0  0  0  0  0  0  0  0  0  0  0  # atno 7974 bound_to 7965
  155.6611  140.0723  157.2553 H   0  0  0  0  0  0  0  0  0  0  0  0  # atno 8008 bound_to 7997
  154.4142  140.1716  156.1828 H   0  0  0  0  0  0  0  0  0  0  0  0  # atno 8009 bound_to 7997
  155.9696  140.3363  155.6567 H   0  0  0  0  0  0  0  0  0  0  0  0  # atno 8010 bound_to 7997
  139.8569  143.7127  152.2653 H   0  0  0  0  0  0  0  0  0  0  0  0  # atno 10167 bound_to 10162
  157.2766  131.0827  151.1561 H   0  0  0  0  0  0  0  0  0  0  0  0  # atno 10718 bound_to 10713
  154.8474  135.3471  154.6170 H   0  0  0  0  0  0  0  0  0  0  0  0  # atno 10763 bound_to 10752
  153.6778  135.6981  153.5131 H   0  0  0  0  0  0  0  0  0  0  0  0  # atno 10764 bound_to 10752
  153.2691  135.4298  155.0927 H   0  0  0  0  0  0  0  0  0  0  0  0  # atno 10765 bound_to 10752
  140.9399  133.7285  156.1060 H   0  0  0  0  0  0  0  0  0  0  0  0  # atno 11005 bound_to 11000
  145.9426  139.2679  143.1259 LP  0  0  0  0  0  0  0  0  0  0  0  0  # atno 17320 bound_to 7965
  145.9407  140.8981  143.0309 LP  0  0  0  0  0  0  0  0  0  0  0  0  # atno 17321 bound_to 7965
  139.7411  144.7559  151.0651 LP  0  0  0  0  0  0  0  0  0  0  0  0  # atno 17342 bound_to 10162
  140.7780  143.4971  150.9818 LP  0  0  0  0  0  0  0  0  0  0  0  0  # atno 17343 bound_to 10162
  157.3012  130.6843  149.6165 LP  0  0  0  0  0  0  0  0  0  0  0  0  # atno 17370 bound_to 10713
  155.9664  130.4391  150.5246 LP  0  0  0  0  0  0  0  0  0  0  0  0  # atno 17371 bound_to 10713
  140.7749  134.3791  157.5500 LP  0  0  0  0  0  0  0  0  0  0  0  0  # atno 17394 bound_to 11000
  139.8817  134.9045  156.2879 LP  0  0  0  0  0  0  0  0  0  0  0  0  # atno 17395 bound_to 11000

$$$$
