AV-unprocessed.smi:13|AV-procd|sdf|74|dock8
  -GOLD-   2262015203D 1   1.00000     0.00000
 Structure written by MMmdl.
 54 58  0  0  0  0  0  0  0  0  1 V2000
  152.3923  144.3844  158.0070 C   0  0  0  0  0  0  0  0  0  0  0  0
  151.2196  143.3942  157.9883 C   0  0  0  0  0  0  0  0  0  0  0  0
  150.2032  143.9001  159.0117 C   0  0  0  0  0  0  0  0  0  0  0  0
  150.6611  143.0835  156.5910 C   0  0  0  0  0  0  0  0  0  0  0  0
  151.4901  141.8913  156.6006 N   0  0  0  0  0  0  0  0  0  0  0  0
  150.9002  140.7764  155.9367 C   0  0  0  0  0  0  0  0  0  0  0  0
  151.4223  139.5275  156.0692 N   0  0  0  0  0  0  0  0  0  0  0  0
  150.8801  138.4813  155.4402 C   0  0  0  0  0  0  0  0  0  0  0  0
  149.8203  138.4535  154.6321 N   0  0  0  0  0  0  0  0  0  0  0  0
  149.2868  139.6987  154.4839 C   0  0  0  0  0  0  0  0  0  0  0  0
  149.7631  140.8969  155.0880 C   0  0  0  0  0  0  0  0  0  0  0  0
  148.9741  141.9701  154.6912 N   0  0  0  0  0  0  0  0  0  0  0  0
  148.0814  141.4370  153.9029 C   0  0  0  0  0  0  0  0  0  0  0  0
  148.1867  140.0749  153.7323 N   0  0  0  0  0  0  0  0  0  0  0  0
  147.3288  139.2258  152.9193 C   0  0  0  0  0  0  0  0  0  0  0  0
  146.2744  138.4409  153.7379 C   0  0  2  0  0  0  0  0  0  0  0  0
  145.4219  139.3614  154.3943 O   0  0  0  0  0  0  0  0  0  0  0  0
  146.9123  137.5209  154.7815 C   0  0  0  0  0  0  0  0  0  0  0  0
  146.6648  136.1223  154.2294 C   0  0  0  0  0  0  0  0  0  0  0  0
  145.4012  136.2551  153.6037 O   0  0  0  0  0  0  0  0  0  0  0  0
  145.4195  137.4807  152.8864 C   0  0  0  0  0  0  0  0  0  0  0  0
  151.5457  141.8828  158.0586 C   0  0  1  0  0  0  0  0  0  0  0  0
  152.8873  141.3719  158.5969 C   0  0  1  0  0  0  0  0  0  0  0  0
  153.0093  141.4580  160.1193 C   0  0  0  0  0  0  0  0  0  0  0  0
  154.0183  140.3725  160.4139 C   0  0  0  0  0  0  0  0  0  0  0  0
  153.6076  139.2945  159.4180 C   0  0  0  0  0  0  0  0  0  0  0  0
  153.0587  139.9871  158.3010 O   0  0  0  0  0  0  0  0  0  0  0  0
  152.0760  145.3784  157.6890 H   0  0  0  0  0  0  0  0  0  0  0  0
  153.1928  144.0764  157.3339 H   0  0  0  0  0  0  0  0  0  0  0  0
  152.8247  144.4855  159.0020 H   0  0  0  0  0  0  0  0  0  0  0  0
  149.3165  143.2663  159.0403 H   0  0  0  0  0  0  0  0  0  0  0  0
  149.8682  144.9112  158.7784 H   0  0  0  0  0  0  0  0  0  0  0  0
  150.6223  143.9132  160.0183 H   0  0  0  0  0  0  0  0  0  0  0  0
  149.5925  142.8598  156.5886 H   0  0  0  0  0  0  0  0  0  0  0  0
  150.9347  143.8035  155.8192 H   0  0  0  0  0  0  0  0  0  0  0  0
  151.3660  137.5315  155.6084 H   0  0  0  0  0  0  0  0  0  0  0  0
  147.3152  142.0288  153.4241 H   0  0  0  0  0  0  0  0  0  0  0  0
  146.8353  139.8535  152.1763 H   0  0  0  0  0  0  0  0  0  0  0  0
  147.9626  138.5357  152.3607 H   0  0  0  0  0  0  0  0  0  0  0  0
  144.9855  138.9133  155.1027 H   0  0  0  0  0  0  0  0  0  0  0  0
  147.9720  137.7189  154.9469 H   0  0  0  0  0  0  0  0  0  0  0  0
  146.4103  137.6146  155.7459 H   0  0  0  0  0  0  0  0  0  0  0  0
  147.4182  135.8532  153.4873 H   0  0  0  0  0  0  0  0  0  0  0  0
  146.6536  135.3577  155.0062 H   0  0  0  0  0  0  0  0  0  0  0  0
  144.4106  137.8472  152.6924 H   0  0  0  0  0  0  0  0  0  0  0  0
  145.8893  137.2860  151.9220 H   0  0  0  0  0  0  0  0  0  0  0  0
  150.6938  141.3472  158.4824 H   0  0  0  0  0  0  0  0  0  0  0  0
  153.7238  141.9080  158.1458 H   0  0  0  0  0  0  0  0  0  0  0  0
  153.3305  142.4378  160.4713 H   0  0  0  0  0  0  0  0  0  0  0  0
  152.0563  141.2198  160.5940 H   0  0  0  0  0  0  0  0  0  0  0  0
  155.0260  140.7269  160.1925 H   0  0  0  0  0  0  0  0  0  0  0  0
  153.9933  140.0299  161.4486 H   0  0  0  0  0  0  0  0  0  0  0  0
  154.4434  138.6603  159.1219 H   0  0  0  0  0  0  0  0  0  0  0  0
  152.8315  138.6573  159.8435 H   0  0  0  0  0  0  0  0  0  0  0  0
  1  2  1  0  0  0  0
  1 28  1  0  0  0  0
  1 29  1  0  0  0  0
  1 30  1  0  0  0  0
  2 22  1  0  0  0  0
  2  3  1  0  0  0  0
  2  4  1  0  0  0  0
  3 31  1  0  0  0  0
  3 32  1  0  0  0  0
  3 33  1  0  0  0  0
  4  5  1  0  0  0  0
  4 34  1  0  0  0  0
  4 35  1  0  0  0  0
  5  6  1  0  0  0  0
  5 22  1  0  0  0  0
  6 11  1  0  0  0  0
  6  7  2  0  0  0  0
  7  8  1  0  0  0  0
  8  9  2  0  0  0  0
  8 36  1  0  0  0  0
  9 10  1  0  0  0  0
 10 14  1  0  0  0  0
 10 11  2  0  0  0  0
 11 12  1  0  0  0  0
 12 13  2  0  0  0  0
 13 14  1  0  0  0  0
 13 37  1  0  0  0  0
 14 15  1  0  0  0  0
 15 16  1  0  0  0  0
 15 38  1  0  0  0  0
 15 39  1  0  0  0  0
 16 21  1  0  0  0  0
 16 17  1  0  0  0  0
 16 18  1  0  0  0  0
 17 40  1  0  0  0  0
 18 19  1  0  0  0  0
 18 41  1  0  0  0  0
 18 42  1  0  0  0  0
 19 20  1  0  0  0  0
 19 43  1  0  0  0  0
 19 44  1  0  0  0  0
 20 21  1  0  0  0  0
 21 45  1  0  0  0  0
 21 46  1  0  0  0  0
 22 23  1  0  0  0  0
 22 47  1  0  0  0  0
 23 27  1  0  0  0  0
 23 24  1  0  0  0  0
 23 48  1  0  0  0  0
 24 25  1  0  0  0  0
 24 49  1  0  0  0  0
 24 50  1  0  0  0  0
 25 26  1  0  0  0  0
 25 51  1  0  0  0  0
 25 52  1  0  0  0  0
 26 27  1  0  0  0  0
 26 53  1  0  0  0  0
 26 54  1  0  0  0  0
M  END
> <s_m_source_file>
AV-unprocessed.smi

> <i_m_source_file_index>
13

> <i_lp_mmshare_version>
43012

> <i_f3d_flags>
0

> <s_epik_input>
TzFbQ0gyXVtDSDJdW0NIMl1bQ0BIXTFbQ0BASF0yTihbQ0gyXUMyKFtDSDNdKVtDSDNdKWMobltjSF1uMyljKGMzNCluW2NIXW40W0NIMl1bQ0BAXTUoW09IXSlbQ0gyXVtDSDJdT1tDSDJdNQ==

> <s_epik_cmdline>
J2VwaWtfcHl0aG9uJywgJy1waCcsICc3LjAnLCAnLXRuJywgJzgnLCAnLW1hJywgJzIwMCcsICctbWV0YWxfYmluZGluZycsICctaW1hZScsICc8aW5maWxlLm1hZT4nLCAnLW9tYWUnLCAnPG91dGZpbGUubWFlPic=

> <r_lp_tautomer_probability>
1

> <r_epik_Ionization_Penalty>
0.00202764

> <r_epik_Ionization_Penalty_Charging>
0

> <r_epik_Ionization_Penalty_Neutral>
0.00202764

> <r_epik_State_Penalty>
0.00134017

> <r_epik_Charging_Adjusted_Penalty>
0.00134017

> <i_epik_Tot_Q>
0

> <i_epik_Tot_abs_Q>
0

> <r_epik_Metal_State_Penalty>
-0

> <b_epik_Metal_Only>
0

> <s_lp_Force_Field>
OPLS_2005

> <r_lp_Energy>
62.8076

> <b_lp_Chiralities_Consistent>
1

> <s_lp_Variant>
AV-unprocessed.smi:13-6

> <Gold.Version>
5.8.1

> <Gold.Id.Protein>
6NUR|6NUR_protein|mol2

> <Gold.PLP.Fitness>
40.2859

> <Gold.PLP.PLP>
-37.9525

> <Gold.PLP.part.hbond>
-2.7400

> <Gold.PLP.part.metal>
0.0000

> <Gold.PLP.part.buried>
3.3005

> <Gold.PLP.part.nonpolar>
-39.5758

> <Gold.PLP.part.repulsive>
1.8852

> <Gold.PLP.ligand.clash>
0.0000

> <Gold.PLP.ligand.torsion>
0.5293

> <Gold.PLP.Chemscore.Hbond>
0.9913

> <Gold.PLP.Chemscore.CHOScore>
0.0000

> <Gold.PLP.Chemscore.Metal>
0.0000

> <Gold.Chemscore.Hbonds>
donor molecule, donor type, donor heavy atom, donor atom, acceptor molecule, acceptor atom, score
      P1  H  7997  8008       L1    27  1.00

> <Gold.PLP.Chemscore.Internal.Correction>
0.4183

> <Gold.Rescore>
     Score         DG    S(hbond)    S(metal)    S(lipo)     H(rot)  DE(clash)    DE(int)     intcor
      9.33     -13.65       0.69        0.00     100.40       2.30       0.63       3.69       ----

> <Gold.Chemscore.Fitness>
9.3340

> <Gold.Chemscore.DG>
-13.6526

> <Gold.Chemscore.ZeroCoef>
-5.4800

> <Gold.Chemscore.Hbond>
0.6924

> <Gold.Chemscore.Metal>
0.0000

> <Gold.Chemscore.Lipo>
100.4024

> <Gold.Chemscore.Internal_Hbond>
0.0000

> <Gold.Chemscore.DEClash>
0.6314

> <Gold.Chemscore.DEInternal>
3.6873

> <Gold.Chemscore.Rot>
2.2996

> <Gold.Chemscore.Internal.Correction>
   9.000000E+99

> <Gold.Chemscore.Hbonds>
donor molecule, donor type, donor heavy atom, donor atom, acceptor molecule, acceptor atom, score
      P1  H  7997  8008       L1    27  0.07

> <Gold.Chemscore.Hbond.Weighted>
-2.3125

> <Gold.Chemscore.Metal.Weighted>
-0.0000

> <Gold.Chemscore.Lipo.Weighted>
-11.7471

> <Gold.Chemscore.Internal_Hbond.Weighted>
0.0000

> <Gold.Chemscore.DEClash.Weighted>
0.6314

> <Gold.Chemscore.DEInternal.Weighted>
3.6873

> <Gold.Chemscore.Rot.Weighted>
5.8869

> <Gold.Chemscore.Internal.Correction.Weighted>
   9.000000E+99

> <Gold.Protein.RotatedTorsions>
[ 6907 6896 6895 6894 ] final    8.96 input  -60.11 | X-H torsion
[ 7974 7965 7964 7962 ] final  -33.61 input  175.53 | X-H torsion
[ 8008 7997 7996 7995 ] final  -93.27 input   59.86 | X-H torsion
[ 10167 10162 10161 10158 ] final   14.74 input  -65.29 | X-H torsion
[ 10718 10713 10712 10709 ] final  -28.54 input   66.30 | X-H torsion
[ 10763 10752 10751 10750 ] final    3.32 input  -60.55 | X-H torsion
[ 11005 11000 10999 10996 ] final  -16.57 input  -57.11 | X-H torsion

> <Gold.Protein.ActiveResidues>
 VAL166  LYS551  ARG553  GLY616  TRP617  ASP618  TYR619  PRO620  LYS621  CYS622 
 ASP623  PHE694  ASN695  SER759  ASP760  ASP761  ALA762  ILE779  LEU786  VAL792 
 PHE793  MET794  SER795  GLU796  ALA797  LYS798  CYS799  TRP800  GLU811  SER814 

> <Gold.Protein.RotatedAtoms>
  151.7144  135.0906  160.0273 H   0  0  0  0  0  0  0  0  0  0  0  0  # atno 6907 bound_to 6896
  152.3641  133.6330  159.6046 H   0  0  0  0  0  0  0  0  0  0  0  0  # atno 6908 bound_to 6896
  150.7625  133.9292  159.3463 H   0  0  0  0  0  0  0  0  0  0  0  0  # atno 6909 bound_to 6896
  146.0897  140.5937  142.8870 H   0  0  0  0  0  0  0  0  0  0  0  0  # atno 7974 bound_to 7965
  154.7335  140.0500  157.0748 H   0  0  0  0  0  0  0  0  0  0  0  0  # atno 8008 bound_to 7997
  155.0271  140.3153  155.4753 H   0  0  0  0  0  0  0  0  0  0  0  0  # atno 8009 bound_to 7997
  156.2847  140.2156  156.5391 H   0  0  0  0  0  0  0  0  0  0  0  0  # atno 8010 bound_to 7997
  140.5915  143.8785  150.6878 H   0  0  0  0  0  0  0  0  0  0  0  0  # atno 10167 bound_to 10162
  156.4239  130.4432  149.7164 H   0  0  0  0  0  0  0  0  0  0  0  0  # atno 10718 bound_to 10713
  153.2848  135.6943  153.7350 H   0  0  0  0  0  0  0  0  0  0  0  0  # atno 10763 bound_to 10752
  153.6324  135.3408  155.3047 H   0  0  0  0  0  0  0  0  0  0  0  0  # atno 10764 bound_to 10752
  154.8506  135.4412  154.1912 H   0  0  0  0  0  0  0  0  0  0  0  0  # atno 10765 bound_to 10752
  140.8081  133.8162  155.9536 H   0  0  0  0  0  0  0  0  0  0  0  0  # atno 11005 bound_to 11000
  144.7351  140.4784  143.6910 LP  0  0  0  0  0  0  0  0  0  0  0  0  # atno 17320 bound_to 7965
  145.6063  139.1508  143.3101 LP  0  0  0  0  0  0  0  0  0  0  0  0  # atno 17321 bound_to 7965
  140.2309  143.3736  152.1566 LP  0  0  0  0  0  0  0  0  0  0  0  0  # atno 17342 bound_to 10162
  139.5231  144.7067  151.5333 LP  0  0  0  0  0  0  0  0  0  0  0  0  # atno 17343 bound_to 10162
  156.4094  130.7714  151.2727 LP  0  0  0  0  0  0  0  0  0  0  0  0  # atno 17370 bound_to 10713
  157.7508  131.0216  150.3756 LP  0  0  0  0  0  0  0  0  0  0  0  0  # atno 17371 bound_to 10713
  140.9226  134.2122  157.4916 LP  0  0  0  0  0  0  0  0  0  0  0  0  # atno 17394 bound_to 11000
  139.8716  134.9799  156.5054 LP  0  0  0  0  0  0  0  0  0  0  0  0  # atno 17395 bound_to 11000

$$$$
