AV-unprocessed.smi:1758|AV-procd|sdf|7081|dock5
  -GOLD-   22720 8303D 1   1.00000     0.00000
 Structure written by MMmdl.
 44 46  0  0  0  0  0  0  0  0  2 V2000
  151.2509  141.3501  157.4083 C   0  0  0  0  0  0  0  0  0  0  0  0
  152.0549  140.1179  156.9772 C   0  0  0  0  0  0  0  0  0  0  0  0
  151.3608  139.3524  155.9604 N   0  0  0  0  0  0  0  0  0  0  0  0
  150.9479  138.0360  156.0166 C   0  0  0  0  0  0  0  0  0  0  0  0
  150.3457  137.7865  154.8157 C   0  0  0  0  0  0  0  0  0  0  0  0
  149.7509  136.5914  154.3380 N   0  0  0  0  0  0  0  0  0  0  0  0
  149.4934  135.4732  155.0360 C   0  0  0  0  0  0  0  0  0  0  0  0
  149.7106  135.3244  156.2383 O   0  0  0  0  0  0  0  0  0  0  0  0
  148.9586  134.5253  154.2535 N   0  0  0  0  0  0  0  0  0  0  0  0
  148.5575  133.1908  154.6911 C   0  0  2  0  0  0  0  0  0  0  0  0
  149.7461  132.2963  155.0853 C   0  0  0  0  0  0  0  0  0  0  0  0
  149.3833  130.8878  154.5722 C   0  0  0  0  0  0  0  0  0  0  0  0
  148.0195  131.0117  154.0221 N   0  3  2  0  0  0  0  0  0  0  0  0
  147.6124  130.0286  152.9946 C   0  0  0  0  0  0  0  0  0  0  0  0
  146.1402  130.2772  152.6073 C   0  0  0  0  0  0  0  0  0  0  0  0
  145.8924  131.7437  152.1967 C   0  0  0  0  0  0  0  0  0  0  0  0
  146.4214  132.7188  153.2665 C   0  0  0  0  0  0  0  0  0  0  0  0
  147.8961  132.4027  153.5618 C   0  0  1  0  0  0  0  0  0  0  0  0
  150.4290  138.9982  154.0817 C   0  0  0  0  0  0  0  0  0  0  0  0
  151.0435  139.9405  154.7803 N   0  0  0  0  0  0  0  0  0  0  0  0
  151.7785  141.9044  158.1846 H   0  0  0  0  0  0  0  0  0  0  0  0
  150.2768  141.0643  157.8061 H   0  0  0  0  0  0  0  0  0  0  0  0
  151.0863  142.0276  156.5697 H   0  0  0  0  0  0  0  0  0  0  0  0
  153.0299  140.4163  156.5893 H   0  0  0  0  0  0  0  0  0  0  0  0
  152.2402  139.4706  157.8353 H   0  0  0  0  0  0  0  0  0  0  0  0
  151.1196  137.4178  156.8854 H   0  0  0  0  0  0  0  0  0  0  0  0
  149.5064  136.5852  153.3587 H   0  0  0  0  0  0  0  0  0  0  0  0
  148.8197  134.7441  153.2777 H   0  0  0  0  0  0  0  0  0  0  0  0
  147.8670  133.2369  155.5359 H   0  0  0  0  0  0  0  0  0  0  0  0
  150.6722  132.6324  154.6166 H   0  0  0  0  0  0  0  0  0  0  0  0
  149.9033  132.3079  156.1645 H   0  0  0  0  0  0  0  0  0  0  0  0
  150.0790  130.5855  153.7879 H   0  0  0  0  0  0  0  0  0  0  0  0
  149.4145  130.1360  155.3613 H   0  0  0  0  0  0  0  0  0  0  0  0
  148.2580  130.1153  152.1194 H   0  0  0  0  0  0  0  0  0  0  0  0
  147.7329  129.0181  153.3868 H   0  0  0  0  0  0  0  0  0  0  0  0
  145.8491  129.6081  151.7968 H   0  0  0  0  0  0  0  0  0  0  0  0
  145.4989  130.0295  153.4544 H   0  0  0  0  0  0  0  0  0  0  0  0
  146.3901  131.9426  151.2467 H   0  0  0  0  0  0  0  0  0  0  0  0
  144.8283  131.9117  152.0288 H   0  0  0  0  0  0  0  0  0  0  0  0
  146.3156  133.7482  152.9229 H   0  0  0  0  0  0  0  0  0  0  0  0
  145.8273  132.6290  154.1771 H   0  0  0  0  0  0  0  0  0  0  0  0
  148.4844  132.5202  152.6484 H   0  0  0  0  0  0  0  0  0  0  0  0
  150.0729  139.2217  153.0868 H   0  0  0  0  0  0  0  0  0  0  0  0
  147.3853  130.9127  154.8019 H   0  0  0  0  0  0  0  0  0  0  0  0
  1  2  1  0  0  0  0
  1 21  1  0  0  0  0
  1 22  1  0  0  0  0
  1 23  1  0  0  0  0
  2  3  1  0  0  0  0
  2 24  1  0  0  0  0
  2 25  1  0  0  0  0
  3 20  1  0  0  0  0
  3  4  1  0  0  0  0
  4  5  2  0  0  0  0
  4 26  1  0  0  0  0
  5  6  1  0  0  0  0
  5 19  1  0  0  0  0
  6  7  1  0  0  0  0
  6 27  1  0  0  0  0
  7  8  2  0  0  0  0
  7  9  1  0  0  0  0
  9 10  1  0  0  0  0
  9 28  1  0  0  0  0
 10 18  1  0  0  0  0
 10 11  1  0  0  0  0
 10 29  1  0  0  0  0
 11 12  1  0  0  0  0
 11 30  1  0  0  0  0
 11 31  1  0  0  0  0
 12 13  1  0  0  0  0
 12 32  1  0  0  0  0
 12 33  1  0  0  0  0
 13 18  1  0  0  0  0
 13 14  1  0  0  0  0
 13 44  1  0  0  0  0
 14 15  1  0  0  0  0
 14 34  1  0  0  0  0
 14 35  1  0  0  0  0
 15 16  1  0  0  0  0
 15 36  1  0  0  0  0
 15 37  1  0  0  0  0
 16 17  1  0  0  0  0
 16 38  1  0  0  0  0
 16 39  1  0  0  0  0
 17 18  1  0  0  0  0
 17 40  1  0  0  0  0
 17 41  1  0  0  0  0
 18 42  1  0  0  0  0
 19 20  2  0  0  0  0
 19 43  1  0  0  0  0
M  CHG  1  13   1
M  END
> <s_m_source_file>
AV-unprocessed.smi

> <i_m_source_file_index>
1758

> <i_lp_mmshare_version>
43012

> <i_f3d_flags>
0

> <s_epik_input>
W0NIM11bQ0gyXW4xW2NIXWMoW2NIXW4xKVtOSF1DKD1PKVtOSF1bQ0BIXShbQ0gyXVtDSDJdMilbQ0BASF0oTjIzKVtDSDJdW0NIMl1bQ0gyXVtDSDJdMw==

> <s_epik_cmdline>
J2VwaWtfcHl0aG9uJywgJy1waCcsICc3LjAnLCAnLXRuJywgJzgnLCAnLW1hJywgJzIwMCcsICctbWV0YWxfYmluZGluZycsICctaW1hZScsICc8aW5maWxlLm1hZT4nLCAnLW9tYWUnLCAnPG91dGZpbGUubWFlPic=

> <r_lp_tautomer_probability>
1

> <r_epik_Ionization_Penalty>
0.00111541

> <r_epik_Ionization_Penalty_Charging>
0.000974069

> <r_epik_Ionization_Penalty_Neutral>
0.000141346

> <r_epik_State_Penalty>
0.000633842

> <r_epik_Charging_Adjusted_Penalty>
0.00160791

> <i_epik_Tot_Q>
1

> <i_epik_Tot_abs_Q>
1

> <r_epik_Metal_State_Penalty>
-0

> <b_epik_Metal_Only>
0

> <s_lp_Force_Field>
OPLS_2005

> <r_lp_Energy>
39.1276

> <b_lp_Chiralities_Consistent>
1

> <s_lp_Variant>
AV-unprocessed.smi:1758-3

> <Gold.Version>
5.8.1

> <Gold.Id.Protein>
6NUR|6NUR_protein|mol2

> <Gold.PLP.Fitness>
42.0273

> <Gold.PLP.PLP>
-30.5494

> <Gold.PLP.part.hbond>
-3.4189

> <Gold.PLP.part.metal>
0.0000

> <Gold.PLP.part.buried>
-1.8522

> <Gold.PLP.part.nonpolar>
-25.0963

> <Gold.PLP.part.repulsive>
0.1290

> <Gold.PLP.ligand.clash>
0.0000

> <Gold.PLP.ligand.torsion>
0.0595

> <Gold.PLP.Chemscore.Hbond>
2.8620

> <Gold.PLP.Chemscore.CHOScore>
1.0000

> <Gold.PLP.Chemscore.Metal>
0.0000

> <Gold.Chemscore.Hbonds>
donor molecule, donor type, donor heavy atom, donor atom, acceptor molecule, acceptor atom, score
      L1  H     6    27       P1  7948  1.00
      L1  H     9    28       P1  7948  0.91
      P1  H  7989  7998       L1    20  0.95
      L1  C    19    43       P1  7957  1.00

> <Gold.PLP.Chemscore.Internal.Correction>
0.0110

> <Gold.Rescore>
     Score         DG    S(hbond)    S(metal)    S(lipo)     H(rot)  DE(clash)    DE(int)     intcor
     15.49     -16.72       1.78        0.00      71.14       1.19       0.05       1.18       ----

> <Gold.Chemscore.Fitness>
15.4871

> <Gold.Chemscore.DG>
-16.7178

> <Gold.Chemscore.ZeroCoef>
-5.4800

> <Gold.Chemscore.Hbond>
1.7836

> <Gold.Chemscore.Metal>
0.0000

> <Gold.Chemscore.Lipo>
71.1351

> <Gold.Chemscore.Internal_Hbond>
0.0000

> <Gold.Chemscore.DEClash>
0.0513

> <Gold.Chemscore.DEInternal>
1.1794

> <Gold.Chemscore.Rot>
1.1884

> <Gold.Chemscore.Internal.Correction>
   9.000000E+99

> <Gold.Chemscore.Hbonds>
donor molecule, donor type, donor heavy atom, donor atom, acceptor molecule, acceptor atom, score
      L1  H     6    27       P1  7948  0.69
      L1  H     9    28       P1  7948  0.21
      P1  H  7989  7998       L1    20  0.22

> <Gold.Chemscore.Hbond.Weighted>
-5.9573

> <Gold.Chemscore.Metal.Weighted>
-0.0000

> <Gold.Chemscore.Lipo.Weighted>
-8.3228

> <Gold.Chemscore.Internal_Hbond.Weighted>
0.0000

> <Gold.Chemscore.DEClash.Weighted>
0.0513

> <Gold.Chemscore.DEInternal.Weighted>
1.1794

> <Gold.Chemscore.Rot.Weighted>
3.0423

> <Gold.Chemscore.Internal.Correction.Weighted>
   9.000000E+99

> <Gold.Protein.RotatedTorsions>
[ 6907 6896 6895 6894 ] final    4.00 input  -60.11 | X-H torsion
[ 7974 7965 7964 7962 ] final  -66.84 input  175.53 | X-H torsion
[ 8008 7997 7996 7995 ] final  -10.61 input   59.86 | X-H torsion
[ 10167 10162 10161 10158 ] final   48.69 input  -65.29 | X-H torsion
[ 10718 10713 10712 10709 ] final   43.65 input   66.30 | X-H torsion
[ 10763 10752 10751 10750 ] final  147.79 input  -60.55 | X-H torsion
[ 11005 11000 10999 10996 ] final    7.29 input  -57.11 | X-H torsion

> <Gold.Protein.ActiveResidues>
 VAL166  LYS551  ARG553  GLY616  TRP617  ASP618  TYR619  PRO620  LYS621  CYS622 
 ASP623  PHE694  ASN695  SER759  ASP760  ASP761  ALA762  ILE779  LEU786  VAL792 
 PHE793  MET794  SER795  GLU796  ALA797  LYS798  CYS799  TRP800  GLU811  SER814 

> <Gold.Protein.RotatedAtoms>
  151.6342  135.1020  160.0127 H   0  0  0  0  0  0  0  0  0  0  0  0  # atno 6907 bound_to 6896
  152.4090  133.6929  159.6389 H   0  0  0  0  0  0  0  0  0  0  0  0  # atno 6908 bound_to 6896
  150.7981  133.8576  159.3263 H   0  0  0  0  0  0  0  0  0  0  0  0  # atno 6909 bound_to 6896
  145.7367  140.8972  143.0551 H   0  0  0  0  0  0  0  0  0  0  0  0  # atno 7974 bound_to 7965
  154.5539  140.2324  155.8441 H   0  0  0  0  0  0  0  0  0  0  0  0  # atno 8008 bound_to 7997
  156.1971  140.3062  155.9410 H   0  0  0  0  0  0  0  0  0  0  0  0  # atno 8009 bound_to 7997
  155.3017  140.0431  157.3020 H   0  0  0  0  0  0  0  0  0  0  0  0  # atno 8010 bound_to 7997
  140.2907  144.3050  150.6241 H   0  0  0  0  0  0  0  0  0  0  0  0  # atno 10167 bound_to 10162
  157.4182  130.7954  149.7492 H   0  0  0  0  0  0  0  0  0  0  0  0  # atno 10718 bound_to 10713
  154.0441  135.2887  155.3350 H   0  0  0  0  0  0  0  0  0  0  0  0  # atno 10763 bound_to 10752
  154.6910  135.5226  153.8396 H   0  0  0  0  0  0  0  0  0  0  0  0  # atno 10764 bound_to 10752
  153.0587  135.6605  154.0643 H   0  0  0  0  0  0  0  0  0  0  0  0  # atno 10765 bound_to 10752
  140.5499  134.0293  155.7933 H   0  0  0  0  0  0  0  0  0  0  0  0  # atno 11005 bound_to 11000
  144.6880  139.9405  143.7475 LP  0  0  0  0  0  0  0  0  0  0  0  0  # atno 17320 bound_to 7965
  146.0486  139.3489  143.0653 LP  0  0  0  0  0  0  0  0  0  0  0  0  # atno 17321 bound_to 7965
  140.5735  143.2178  151.7557 LP  0  0  0  0  0  0  0  0  0  0  0  0  # atno 17342 bound_to 10162
  139.4939  144.4183  152.0006 LP  0  0  0  0  0  0  0  0  0  0  0  0  # atno 17343 bound_to 10162
  155.9872  130.3969  150.3176 LP  0  0  0  0  0  0  0  0  0  0  0  0  # atno 17370 bound_to 10713
  157.1321  131.0274  151.2964 LP  0  0  0  0  0  0  0  0  0  0  0  0  # atno 17371 bound_to 10713
  141.1178  133.9512  157.2789 LP  0  0  0  0  0  0  0  0  0  0  0  0  # atno 17394 bound_to 11000
  139.9460  135.0184  156.8854 LP  0  0  0  0  0  0  0  0  0  0  0  0  # atno 17395 bound_to 11000

$$$$
