AV-unprocessed.smi:1260|AV-procd|sdf|5294|dock9
  -GOLD-   22720 4413D 1   1.00000     0.00000
 Structure written by MMmdl.
 37 39  0  0  0  0  0  0  0  0  2 V2000
  149.2948  132.6569  155.0745 O   0  0  0  0  0  0  0  0  0  0  0  0
  149.1415  133.7527  154.5362 C   0  0  0  0  0  0  0  0  0  0  0  0
  149.7297  135.0102  155.1735 C   0  0  0  0  0  0  0  0  0  0  0  0
  149.3905  135.0603  156.5831 N   0  0  0  0  0  0  0  0  0  0  0  0
  148.7362  135.9801  157.2950 C   0  0  0  0  0  0  0  0  0  0  0  0
  148.6035  135.6143  158.5608 N   0  0  0  0  0  0  0  0  0  0  0  0
  149.2318  134.3807  158.5999 N   0  0  0  0  0  0  0  0  0  0  0  0
  149.7008  134.0463  157.4293 N   0  0  0  0  0  0  0  0  0  0  0  0
  148.5069  133.9191  153.3657 N   0  0  0  0  0  0  0  0  0  0  0  0
  148.0207  132.8318  152.5220 C   0  0  1  0  0  0  0  0  0  0  0  0
  147.1677  131.8072  153.2818 C   0  0  0  0  0  0  0  0  0  0  0  0
  146.1429  131.2961  152.2525 C   0  0  0  0  0  0  0  0  0  0  0  0
  146.3983  132.0505  151.0050 N   0  3  1  0  0  0  0  0  0  0  0  0
  145.2486  132.2027  150.0765 C   0  0  0  0  0  0  0  0  0  0  0  0
  144.2699  133.3044  150.5166 C   0  0  0  0  0  0  0  0  0  0  0  0
  145.0091  134.6266  150.7442 C   0  0  0  0  0  0  0  0  0  0  0  0
  146.1089  134.4251  151.7909 C   0  0  0  0  0  0  0  0  0  0  0  0
  147.0963  133.2994  151.3837 C   0  0  1  0  0  0  0  0  0  0  0  0
  150.8145  135.0277  155.0572 H   0  0  0  0  0  0  0  0  0  0  0  0
  149.3348  135.9009  154.6830 H   0  0  0  0  0  0  0  0  0  0  0  0
  148.3504  136.9027  156.8868 H   0  0  0  0  0  0  0  0  0  0  0  0
  148.4234  134.8571  153.0002 H   0  0  0  0  0  0  0  0  0  0  0  0
  148.8724  132.3034  152.0881 H   0  0  0  0  0  0  0  0  0  0  0  0
  147.7771  131.0008  153.6916 H   0  0  0  0  0  0  0  0  0  0  0  0
  146.6437  132.2775  154.1154 H   0  0  0  0  0  0  0  0  0  0  0  0
  146.2494  130.2268  152.0680 H   0  0  0  0  0  0  0  0  0  0  0  0
  145.1301  131.4719  152.6165 H   0  0  0  0  0  0  0  0  0  0  0  0
  145.6461  132.4516  149.0918 H   0  0  0  0  0  0  0  0  0  0  0  0
  144.7322  131.2481  149.9693 H   0  0  0  0  0  0  0  0  0  0  0  0
  143.4979  133.4372  149.7580 H   0  0  0  0  0  0  0  0  0  0  0  0
  143.7533  133.0076  151.4300 H   0  0  0  0  0  0  0  0  0  0  0  0
  145.4441  134.9800  149.8084 H   0  0  0  0  0  0  0  0  0  0  0  0
  144.3114  135.3958  151.0768 H   0  0  0  0  0  0  0  0  0  0  0  0
  146.6448  135.3639  151.9341 H   0  0  0  0  0  0  0  0  0  0  0  0
  145.6438  134.1915  152.7495 H   0  0  0  0  0  0  0  0  0  0  0  0
  147.6863  133.6430  150.5327 H   0  0  0  0  0  0  0  0  0  0  0  0
  147.0865  131.5008  150.5104 H   0  0  0  0  0  0  0  0  0  0  0  0
  1  2  2  0  0  0  0
  2  3  1  0  0  0  0
  2  9  1  0  0  0  0
  3  4  1  0  0  0  0
  3 19  1  0  0  0  0
  3 20  1  0  0  0  0
  4  8  1  0  0  0  0
  4  5  1  0  0  0  0
  5  6  2  0  0  0  0
  5 21  1  0  0  0  0
  6  7  1  0  0  0  0
  7  8  2  0  0  0  0
  9 10  1  0  0  0  0
  9 22  1  0  0  0  0
 10 18  1  0  0  0  0
 10 11  1  0  0  0  0
 10 23  1  0  0  0  0
 11 12  1  0  0  0  0
 11 24  1  0  0  0  0
 11 25  1  0  0  0  0
 12 13  1  0  0  0  0
 12 26  1  0  0  0  0
 12 27  1  0  0  0  0
 13 18  1  0  0  0  0
 13 14  1  0  0  0  0
 13 37  1  0  0  0  0
 14 15  1  0  0  0  0
 14 28  1  0  0  0  0
 14 29  1  0  0  0  0
 15 16  1  0  0  0  0
 15 30  1  0  0  0  0
 15 31  1  0  0  0  0
 16 17  1  0  0  0  0
 16 32  1  0  0  0  0
 16 33  1  0  0  0  0
 17 18  1  0  0  0  0
 17 34  1  0  0  0  0
 17 35  1  0  0  0  0
 18 36  1  0  0  0  0
M  CHG  1  13   1
M  END
> <s_m_source_file>
AV-unprocessed.smi

> <i_m_source_file_index>
1260

> <i_lp_mmshare_version>
43012

> <i_f3d_flags>
0

> <s_epik_input>
bjFubltjSF1uMVtDSDJdQyg9TylbTkhdW0NASF0oW0NIMl1bQ0gyXTIpW0NAQEhdKE4yMylbQ0gyXVtDSDJdW0NIMl1bQ0gyXTM=

> <s_epik_cmdline>
J2VwaWtfcHl0aG9uJywgJy1waCcsICc3LjAnLCAnLXRuJywgJzgnLCAnLW1hJywgJzIwMCcsICctbWV0YWxfYmluZGluZycsICctaW1hZScsICc8aW5maWxlLm1hZT4nLCAnLW9tYWUnLCAnPG91dGZpbGUubWFlPic=

> <r_lp_tautomer_probability>
1

> <r_epik_Ionization_Penalty>
0.00234324

> <r_epik_Ionization_Penalty_Charging>
0.00233897

> <r_epik_Ionization_Penalty_Neutral>
4.26861e-06

> <r_epik_State_Penalty>
0.00161477

> <r_epik_Charging_Adjusted_Penalty>
0.00395374

> <i_epik_Tot_Q>
1

> <i_epik_Tot_abs_Q>
1

> <r_epik_Metal_State_Penalty>
-0

> <b_epik_Metal_Only>
0

> <s_lp_Force_Field>
OPLS_2005

> <r_lp_Energy>
37.4375

> <b_lp_Chiralities_Consistent>
1

> <s_lp_Variant>
AV-unprocessed.smi:1260-2

> <Gold.Version>
5.8.1

> <Gold.Id.Protein>
6NUR|6NUR_protein|mol2

> <Gold.PLP.Fitness>
37.2476

> <Gold.PLP.PLP>
-28.7613

> <Gold.PLP.part.hbond>
-3.8671

> <Gold.PLP.part.metal>
0.0000

> <Gold.PLP.part.buried>
-3.7719

> <Gold.PLP.part.nonpolar>
-21.1174

> <Gold.PLP.part.repulsive>
0.0463

> <Gold.PLP.ligand.clash>
0.0000

> <Gold.PLP.ligand.torsion>
0.2484

> <Gold.PLP.Chemscore.Hbond>
2.9920

> <Gold.PLP.Chemscore.CHOScore>
0.0000

> <Gold.PLP.Chemscore.Metal>
0.0000

> <Gold.Chemscore.Hbonds>
donor molecule, donor type, donor heavy atom, donor atom, acceptor molecule, acceptor atom, score
      L1  H     9    22       P1  7948  1.00
      L1  H    13    37       P1 10747  1.00
      P1  H  6896  6908       L1     7  1.00

> <Gold.PLP.Chemscore.Internal.Correction>
0.0072

> <Gold.Rescore>
     Score         DG    S(hbond)    S(metal)    S(lipo)     H(rot)  DE(clash)    DE(int)     intcor
     12.72     -15.53       2.42        0.00      59.97       1.98       0.12       2.69       ----

> <Gold.Chemscore.Fitness>
12.7161

> <Gold.Chemscore.DG>
-15.5290

> <Gold.Chemscore.ZeroCoef>
-5.4800

> <Gold.Chemscore.Hbond>
2.4221

> <Gold.Chemscore.Metal>
0.0000

> <Gold.Chemscore.Lipo>
59.9727

> <Gold.Chemscore.Internal_Hbond>
0.0000

> <Gold.Chemscore.DEClash>
0.1223

> <Gold.Chemscore.DEInternal>
2.6905

> <Gold.Chemscore.Rot>
1.9757

> <Gold.Chemscore.Internal.Correction>
   9.000000E+99

> <Gold.Chemscore.Hbonds>
donor molecule, donor type, donor heavy atom, donor atom, acceptor molecule, acceptor atom, score
      L1  H     9    22       P1  7948  0.57
      L1  H    13    37       P1 10747  0.91
      P1  H  6896  6908       L1     7  0.23

> <Gold.Chemscore.Hbond.Weighted>
-8.0899

> <Gold.Chemscore.Metal.Weighted>
-0.0000

> <Gold.Chemscore.Lipo.Weighted>
-7.0168

> <Gold.Chemscore.Internal_Hbond.Weighted>
0.0000

> <Gold.Chemscore.DEClash.Weighted>
0.1223

> <Gold.Chemscore.DEInternal.Weighted>
2.6905

> <Gold.Chemscore.Rot.Weighted>
5.0578

> <Gold.Chemscore.Internal.Correction.Weighted>
   9.000000E+99

> <Gold.Protein.RotatedTorsions>
[ 6907 6896 6895 6894 ] final  163.27 input  -60.11 | X-H torsion
[ 7974 7965 7964 7962 ] final  142.65 input  175.53 | X-H torsion
[ 8008 7997 7996 7995 ] final -157.60 input   59.86 | X-H torsion
[ 10167 10162 10161 10158 ] final  -94.70 input  -65.29 | X-H torsion
[ 10718 10713 10712 10709 ] final   87.25 input   66.30 | X-H torsion
[ 10763 10752 10751 10750 ] final  -53.65 input  -60.55 | X-H torsion
[ 11005 11000 10999 10996 ] final  -33.41 input  -57.11 | X-H torsion

> <Gold.Protein.ActiveResidues>
 VAL166  LYS551  ARG553  GLY616  TRP617  ASP618  TYR619  PRO620  LYS621  CYS622 
 ASP623  PHE694  ASN695  SER759  ASP760  ASP761  ALA762  ILE779  LEU786  VAL792 
 PHE793  MET794  SER795  GLU796  ALA797  LYS798  CYS799  TRP800  GLU811  SER814 

> <Gold.Protein.RotatedAtoms>
  151.9277  133.3602  159.3919 H   0  0  0  0  0  0  0  0  0  0  0  0  # atno 6907 bound_to 6896
  150.7023  134.4570  159.5372 H   0  0  0  0  0  0  0  0  0  0  0  0  # atno 6908 bound_to 6896
  152.2205  134.8418  160.0537 H   0  0  0  0  0  0  0  0  0  0  0  0  # atno 6909 bound_to 6896
  144.8989  139.5451  143.5763 H   0  0  0  0  0  0  0  0  0  0  0  0  # atno 7974 bound_to 7965
  155.7350  140.0807  157.2272 H   0  0  0  0  0  0  0  0  0  0  0  0  # atno 8008 bound_to 7997
  154.4028  140.1588  156.2606 H   0  0  0  0  0  0  0  0  0  0  0  0  # atno 8009 bound_to 7997
  155.9074  140.3406  155.6075 H   0  0  0  0  0  0  0  0  0  0  0  0  # atno 8010 bound_to 7997
  140.3118  143.3101  152.0141 H   0  0  0  0  0  0  0  0  0  0  0  0  # atno 10167 bound_to 10162
  157.6938  131.0248  150.3095 H   0  0  0  0  0  0  0  0  0  0  0  0  # atno 10718 bound_to 10713
  154.1623  135.6472  153.4989 H   0  0  0  0  0  0  0  0  0  0  0  0  # atno 10763 bound_to 10752
  153.0107  135.5363  154.6698 H   0  0  0  0  0  0  0  0  0  0  0  0  # atno 10764 bound_to 10752
  154.6015  135.2944  155.0502 H   0  0  0  0  0  0  0  0  0  0  0  0  # atno 10765 bound_to 10752
  140.9633  133.7152  156.1404 H   0  0  0  0  0  0  0  0  0  0  0  0  # atno 11005 bound_to 11000
  146.3097  139.7702  142.9029 LP  0  0  0  0  0  0  0  0  0  0  0  0  # atno 17320 bound_to 7965
  145.3651  141.0333  143.3262 LP  0  0  0  0  0  0  0  0  0  0  0  0  # atno 17321 bound_to 7965
  139.4892  144.6379  151.6938 LP  0  0  0  0  0  0  0  0  0  0  0  0  # atno 17342 bound_to 10162
  140.5562  144.0345  150.6148 LP  0  0  0  0  0  0  0  0  0  0  0  0  # atno 17343 bound_to 10162
  156.3598  130.3845  149.7260 LP  0  0  0  0  0  0  0  0  0  0  0  0  # atno 17370 bound_to 10713
  156.4710  130.7996  151.3014 LP  0  0  0  0  0  0  0  0  0  0  0  0  # atno 17371 bound_to 10713
  140.7436  134.4123  157.5551 LP  0  0  0  0  0  0  0  0  0  0  0  0  # atno 17394 bound_to 11000
  139.8885  134.8853  156.2468 LP  0  0  0  0  0  0  0  0  0  0  0  0  # atno 17395 bound_to 11000

$$$$
