AV-unprocessed.smi:730|AV-procd|sdf|3522|dock6
  -GOLD-   22720 0513D 1   1.00000     0.00000
 Structure written by MMmdl.
 40 41  0  0  0  0  0  0  0  0  1 V2000
  145.2949  135.8624  162.4213 C   0  0  0  0  0  0  0  0  0  0  0  0
  146.8060  135.5872  162.2891 C   0  0  0  0  0  0  0  0  0  0  0  0
  147.5041  136.0877  163.5674 C   0  0  0  0  0  0  0  0  0  0  0  0
  147.0128  134.0663  162.1601 C   0  0  0  0  0  0  0  0  0  0  0  0
  147.3745  136.2883  161.0870 C   0  0  0  0  0  0  0  0  0  0  0  0
  148.6199  136.3286  160.5208 C   0  0  0  0  0  0  0  0  0  0  0  0
  148.4416  137.1834  159.4012 C   0  0  0  0  0  0  0  0  0  0  0  0
  149.5237  137.4845  158.5353 N   0  0  0  0  0  0  0  0  0  0  0  0
  149.6410  138.5369  157.7079 C   0  0  0  0  0  0  0  0  0  0  0  0
  148.8028  139.4281  157.5693 O   0  0  0  0  0  0  0  0  0  0  0  0
  150.8005  138.5012  157.0354 N   0  0  0  0  0  0  0  0  0  0  0  0
  151.2386  139.5011  156.0639 C   0  0  2  0  0  0  0  0  0  0  0  0
  151.4088  140.8751  156.7394 C   0  0  0  0  0  0  0  0  0  0  0  0
  150.1366  141.6528  156.4085 C   0  0  0  0  0  0  0  0  0  0  0  0
  149.7874  141.1893  154.9983 C   0  0  0  0  0  0  0  0  0  0  0  0
  150.1614  139.7005  154.9732 C   0  0  1  0  0  0  0  0  0  0  0  0
  150.6434  139.3417  153.6945 O   0  0  0  0  0  0  0  0  0  0  0  0
  147.2007  137.6287  159.2887 N   0  0  0  0  0  0  0  0  0  0  0  0
  146.5122  137.0584  160.3649 O   0  0  0  0  0  0  0  0  0  0  0  0
  144.8732  135.3599  163.2925 H   0  0  0  0  0  0  0  0  0  0  0  0
  144.7480  135.5107  161.5455 H   0  0  0  0  0  0  0  0  0  0  0  0
  145.0923  136.9285  162.5307 H   0  0  0  0  0  0  0  0  0  0  0  0
  147.3722  137.1627  163.6948 H   0  0  0  0  0  0  0  0  0  0  0  0
  148.5766  135.8908  163.5406 H   0  0  0  0  0  0  0  0  0  0  0  0
  147.1055  135.5995  164.4572 H   0  0  0  0  0  0  0  0  0  0  0  0
  146.5996  133.5335  163.0171 H   0  0  0  0  0  0  0  0  0  0  0  0
  148.0712  133.8103  162.0974 H   0  0  0  0  0  0  0  0  0  0  0  0
  146.5279  133.6754  161.2649 H   0  0  0  0  0  0  0  0  0  0  0  0
  149.5150  135.8249  160.8544 H   0  0  0  0  0  0  0  0  0  0  0  0
  150.2901  136.8282  158.5472 H   0  0  0  0  0  0  0  0  0  0  0  0
  151.4297  137.7312  157.2097 H   0  0  0  0  0  0  0  0  0  0  0  0
  152.1879  139.1867  155.6250 H   0  0  0  0  0  0  0  0  0  0  0  0
  151.5925  140.8175  157.8132 H   0  0  0  0  0  0  0  0  0  0  0  0
  152.2641  141.3868  156.2961 H   0  0  0  0  0  0  0  0  0  0  0  0
  149.3409  141.3724  157.0998 H   0  0  0  0  0  0  0  0  0  0  0  0
  150.2749  142.7323  156.4751 H   0  0  0  0  0  0  0  0  0  0  0  0
  148.7413  141.3633  154.7448 H   0  0  0  0  0  0  0  0  0  0  0  0
  150.3958  141.7482  154.2848 H   0  0  0  0  0  0  0  0  0  0  0  0
  149.2741  139.1029  155.1895 H   0  0  0  0  0  0  0  0  0  0  0  0
  149.9762  139.5412  153.0555 H   0  0  0  0  0  0  0  0  0  0  0  0
  1  2  1  0  0  0  0
  1 20  1  0  0  0  0
  1 21  1  0  0  0  0
  1 22  1  0  0  0  0
  2  3  1  0  0  0  0
  2  4  1  0  0  0  0
  2  5  1  0  0  0  0
  3 23  1  0  0  0  0
  3 24  1  0  0  0  0
  3 25  1  0  0  0  0
  4 26  1  0  0  0  0
  4 27  1  0  0  0  0
  4 28  1  0  0  0  0
  5 19  1  0  0  0  0
  5  6  2  0  0  0  0
  6  7  1  0  0  0  0
  6 29  1  0  0  0  0
  7  8  1  0  0  0  0
  7 18  2  0  0  0  0
  8  9  1  0  0  0  0
  8 30  1  0  0  0  0
  9 10  2  0  0  0  0
  9 11  1  0  0  0  0
 11 12  1  0  0  0  0
 11 31  1  0  0  0  0
 12 16  1  0  0  0  0
 12 13  1  0  0  0  0
 12 32  1  0  0  0  0
 13 14  1  0  0  0  0
 13 33  1  0  0  0  0
 13 34  1  0  0  0  0
 14 15  1  0  0  0  0
 14 35  1  0  0  0  0
 14 36  1  0  0  0  0
 15 16  1  0  0  0  0
 15 37  1  0  0  0  0
 15 38  1  0  0  0  0
 16 17  1  0  0  0  0
 16 39  1  0  0  0  0
 17 40  1  0  0  0  0
 18 19  1  0  0  0  0
M  END
> <s_m_source_file>
AV-unprocessed.smi

> <i_m_source_file_index>
730

> <i_lp_mmshare_version>
43012

> <i_f3d_flags>
0

> <s_epik_input>
W0NIM11DKFtDSDNdKShbQ0gzXSljMVtjSF1jKG5vMSlbTkhdQyg9TylbTkhdW0NAQEhdMltDSDJdW0NIMl1bQ0gyXVtDQEhdMltPSF0=

> <s_epik_cmdline>
J2VwaWtfcHl0aG9uJywgJy1waCcsICc3LjAnLCAnLXRuJywgJzgnLCAnLW1hJywgJzIwMCcsICctbWV0YWxfYmluZGluZycsICctaW1hZScsICc8aW5maWxlLm1hZT4nLCAnLW9tYWUnLCAnPG91dGZpbGUubWFlPic=

> <r_lp_tautomer_probability>
1

> <r_epik_Ionization_Penalty>
2.23071e-05

> <r_epik_Ionization_Penalty_Charging>
0

> <r_epik_Ionization_Penalty_Neutral>
2.23071e-05

> <r_epik_State_Penalty>
-0

> <r_epik_Charging_Adjusted_Penalty>
0

> <i_epik_Tot_Q>
0

> <i_epik_Tot_abs_Q>
0

> <r_epik_Metal_State_Penalty>
-0

> <b_epik_Metal_Only>
0

> <s_lp_Force_Field>
OPLS_2005

> <r_lp_Energy>
16.5614

> <b_lp_Chiralities_Consistent>
1

> <s_lp_Variant>
AV-unprocessed.smi:730-1

> <Gold.Version>
5.8.1

> <Gold.Id.Protein>
6NUR|6NUR_protein|mol2

> <Gold.PLP.Fitness>
35.7164

> <Gold.PLP.PLP>
-30.7115

> <Gold.PLP.part.hbond>
-3.5884

> <Gold.PLP.part.metal>
0.0000

> <Gold.PLP.part.buried>
-1.9063

> <Gold.PLP.part.nonpolar>
-26.4752

> <Gold.PLP.part.repulsive>
0.1543

> <Gold.PLP.ligand.clash>
0.0000

> <Gold.PLP.ligand.torsion>
0.1406

> <Gold.PLP.Chemscore.Hbond>
1.7600

> <Gold.PLP.Chemscore.CHOScore>
0.0000

> <Gold.PLP.Chemscore.Metal>
0.0000

> <Gold.Chemscore.Hbonds>
donor molecule, donor type, donor heavy atom, donor atom, acceptor molecule, acceptor atom, score
      L1  H    17    40       P1  7957  0.90
      P1  H  7989  7998       L1    17  0.61

> <Gold.PLP.Chemscore.Internal.Correction>
0.0061

> <Gold.Rescore>
     Score         DG    S(hbond)    S(metal)    S(lipo)     H(rot)  DE(clash)    DE(int)     intcor
      9.39     -14.11       1.22        0.00      76.44       1.71       0.18       4.53       ----

> <Gold.Chemscore.Fitness>
9.3909

> <Gold.Chemscore.DG>
-14.1052

> <Gold.Chemscore.ZeroCoef>
-5.4800

> <Gold.Chemscore.Hbond>
1.2172

> <Gold.Chemscore.Metal>
0.0000

> <Gold.Chemscore.Lipo>
76.4442

> <Gold.Chemscore.Internal_Hbond>
0.0000

> <Gold.Chemscore.DEClash>
0.1819

> <Gold.Chemscore.DEInternal>
4.5324

> <Gold.Chemscore.Rot>
1.7125

> <Gold.Chemscore.Internal.Correction>
   9.000000E+99

> <Gold.Chemscore.Hbonds>
donor molecule, donor type, donor heavy atom, donor atom, acceptor molecule, acceptor atom, score
      L1  H    17    40       P1  7957  0.85
      P1  H  7989  7998       L1    17  0.01

> <Gold.Chemscore.Hbond.Weighted>
-4.0653

> <Gold.Chemscore.Metal.Weighted>
-0.0000

> <Gold.Chemscore.Lipo.Weighted>
-8.9440

> <Gold.Chemscore.Internal_Hbond.Weighted>
0.0000

> <Gold.Chemscore.DEClash.Weighted>
0.1819

> <Gold.Chemscore.DEInternal.Weighted>
4.5324

> <Gold.Chemscore.Rot.Weighted>
4.3841

> <Gold.Chemscore.Internal.Correction.Weighted>
   9.000000E+99

> <Gold.Protein.RotatedTorsions>
[ 6907 6896 6895 6894 ] final  -97.24 input  -60.11 | X-H torsion
[ 7974 7965 7964 7962 ] final   68.21 input  175.53 | X-H torsion
[ 8008 7997 7996 7995 ] final -139.66 input   59.86 | X-H torsion
[ 10167 10162 10161 10158 ] final  -32.63 input  -65.29 | X-H torsion
[ 10718 10713 10712 10709 ] final  -74.16 input   66.30 | X-H torsion
[ 10763 10752 10751 10750 ] final  113.76 input  -60.55 | X-H torsion
[ 11005 11000 10999 10996 ] final   25.39 input  -57.11 | X-H torsion

> <Gold.Protein.ActiveResidues>
 VAL166  LYS551  ARG553  GLY616  TRP617  ASP618  TYR619  PRO620  LYS621  CYS622 
 ASP623  PHE694  ASN695  SER759  ASP760  ASP761  ALA762  ILE779  LEU786  VAL792 
 PHE793  MET794  SER795  GLU796  ALA797  LYS798  CYS799  TRP800  GLU811  SER814 

> <Gold.Protein.RotatedAtoms>
  150.7011  134.1379  159.4093 H   0  0  0  0  0  0  0  0  0  0  0  0  # atno 6907 bound_to 6896
  151.9364  135.0231  160.0542 H   0  0  0  0  0  0  0  0  0  0  0  0  # atno 6908 bound_to 6896
  152.2131  133.4891  159.5158 H   0  0  0  0  0  0  0  0  0  0  0  0  # atno 6909 bound_to 6896
  145.8054  139.3004  143.1130 H   0  0  0  0  0  0  0  0  0  0  0  0  # atno 7974 bound_to 7965
  155.4486  140.0537  157.3003 H   0  0  0  0  0  0  0  0  0  0  0  0  # atno 8008 bound_to 7997
  154.4787  140.2072  155.9772 H   0  0  0  0  0  0  0  0  0  0  0  0  # atno 8009 bound_to 7997
  156.1172  140.3194  155.8161 H   0  0  0  0  0  0  0  0  0  0  0  0  # atno 8010 bound_to 7997
  140.7218  143.3680  151.1832 H   0  0  0  0  0  0  0  0  0  0  0  0  # atno 10167 bound_to 10162
  156.0253  130.4410  150.2850 H   0  0  0  0  0  0  0  0  0  0  0  0  # atno 10718 bound_to 10713
  153.4973  135.3645  155.2522 H   0  0  0  0  0  0  0  0  0  0  0  0  # atno 10763 bound_to 10752
  154.8749  135.3991  154.3519 H   0  0  0  0  0  0  0  0  0  0  0  0  # atno 10764 bound_to 10752
  153.4149  135.7079  153.6399 H   0  0  0  0  0  0  0  0  0  0  0  0  # atno 10765 bound_to 10752
  140.3484  134.2256  155.7682 H   0  0  0  0  0  0  0  0  0  0  0  0  # atno 11005 bound_to 11000
  145.9834  140.8663  143.0103 LP  0  0  0  0  0  0  0  0  0  0  0  0  # atno 17320 bound_to 7965
  144.6763  140.2113  143.7376 LP  0  0  0  0  0  0  0  0  0  0  0  0  # atno 17321 bound_to 7965
  139.7246  143.9169  152.2998 LP  0  0  0  0  0  0  0  0  0  0  0  0  # atno 17342 bound_to 10162
  139.8937  144.6951  150.8742 LP  0  0  0  0  0  0  0  0  0  0  0  0  # atno 17343 bound_to 10162
  157.0954  131.0181  151.3106 LP  0  0  0  0  0  0  0  0  0  0  0  0  # atno 17370 bound_to 10713
  157.4822  130.7771  149.7425 LP  0  0  0  0  0  0  0  0  0  0  0  0  # atno 17371 bound_to 10713
  141.2019  133.7951  157.0417 LP  0  0  0  0  0  0  0  0  0  0  0  0  # atno 17394 bound_to 11000
  140.0723  134.9695  157.1488 LP  0  0  0  0  0  0  0  0  0  0  0  0  # atno 17395 bound_to 11000

$$$$
