AV-unprocessed.smi:21|AV-procd|sdf|123|dock2
  -GOLD-   2262015303D 1   1.00000     0.00000
 Structure written by MMmdl.
 62 65  0  0  0  0  0  0  0  0  2 V2000
  145.9089  133.0737  151.3728 C   0  0  0  0  0  0  0  0  0  0  0  0
  146.1006  132.3324  152.5677 O   0  0  0  0  0  0  0  0  0  0  0  0
  147.4273  131.8502  152.7308 C   0  0  1  0  0  0  0  0  0  0  0  0
  148.3745  133.0360  152.9446 C   0  0  0  0  0  0  0  0  0  0  0  0
  148.6655  133.0325  154.4467 C   0  0  2  0  0  0  0  0  0  0  0  0
  149.9476  133.7870  154.8707 C   0  0  0  0  0  0  0  0  0  0  0  0
  149.9791  134.0957  156.2982 N   0  0  0  0  0  0  0  0  0  0  0  0
  149.9847  132.9834  157.2474 C   0  0  0  0  0  0  0  0  0  0  0  0
  150.1548  135.3699  156.7610 C   0  0  0  0  0  0  0  0  0  0  0  0
  149.7999  135.6296  158.0491 N   0  0  0  0  0  0  0  0  0  0  0  0
  149.9369  136.8496  158.5723 C   0  0  0  0  0  0  0  0  0  0  0  0
  150.4061  137.9533  157.9936 N   0  0  0  0  0  0  0  0  0  0  0  0
  150.7709  137.7152  156.7030 C   0  0  0  0  0  0  0  0  0  0  0  0
  150.6814  136.4704  156.0102 C   0  0  0  0  0  0  0  0  0  0  0  0
  151.1576  136.6402  154.7118 N   0  0  0  0  0  0  0  0  0  0  0  0
  151.5020  137.8961  154.6440 C   0  0  0  0  0  0  0  0  0  0  0  0
  151.3086  138.6144  155.7986 N   0  0  0  0  0  0  0  0  0  0  0  0
  151.6080  140.0219  156.0010 C   0  0  0  0  0  0  0  0  0  0  0  0
  150.4798  140.7845  156.7393 C   0  0  2  0  0  0  0  0  0  0  0  0
  149.2664  141.0870  155.8261 C   0  0  0  0  0  0  0  0  0  0  0  0
  149.6038  142.0040  154.8057 O   0  0  0  0  0  0  0  0  0  0  0  0
  151.0151  142.0580  157.4420 C   0  0  2  0  0  0  0  0  0  0  0  0
  152.0835  141.8076  158.4920 C   0  0  0  0  0  0  0  0  0  0  0  0
  152.0570  143.1052  159.2924 C   0  0  0  0  0  0  0  0  0  0  0  0
  150.7072  143.5530  159.2533 O   0  0  0  0  0  0  0  0  0  0  0  0
  149.9774  142.8141  158.2790 C   0  0  0  0  0  0  0  0  0  0  0  0
  148.6315  131.6002  154.8283 N   0  3  2  0  0  0  0  0  0  0  0  0
  149.9156  130.8689  154.6953 C   0  0  0  0  0  0  0  0  0  0  0  0
  147.5536  130.9999  154.0117 C   0  0  0  0  0  0  0  0  0  0  0  0
  147.7434  131.2932  151.8468 H   0  0  0  0  0  0  0  0  0  0  0  0
  147.8083  133.4880  154.9445 H   0  0  0  0  0  0  0  0  0  0  0  0
  144.8743  133.4121  151.3162 H   0  0  0  0  0  0  0  0  0  0  0  0
  146.1115  132.4712  150.4870 H   0  0  0  0  0  0  0  0  0  0  0  0
  146.5506  133.9555  151.3491 H   0  0  0  0  0  0  0  0  0  0  0  0
  149.2974  132.8669  152.3882 H   0  0  0  0  0  0  0  0  0  0  0  0
  147.9546  133.9818  152.6006 H   0  0  0  0  0  0  0  0  0  0  0  0
  150.8423  133.2314  154.5949 H   0  0  0  0  0  0  0  0  0  0  0  0
  150.0222  134.7243  154.3184 H   0  0  0  0  0  0  0  0  0  0  0  0
  149.1470  133.0647  157.9411 H   0  0  0  0  0  0  0  0  0  0  0  0
  150.9119  132.9699  157.8219 H   0  0  0  0  0  0  0  0  0  0  0  0
  149.8971  132.0241  156.7370 H   0  0  0  0  0  0  0  0  0  0  0  0
  149.6261  136.9568  159.6011 H   0  0  0  0  0  0  0  0  0  0  0  0
  151.9131  138.3357  153.7468 H   0  0  0  0  0  0  0  0  0  0  0  0
  152.5407  140.0794  156.5622 H   0  0  0  0  0  0  0  0  0  0  0  0
  151.8059  140.4816  155.0321 H   0  0  0  0  0  0  0  0  0  0  0  0
  150.1124  140.1193  157.5220 H   0  0  0  0  0  0  0  0  0  0  0  0
  148.8834  140.1764  155.3660 H   0  0  0  0  0  0  0  0  0  0  0  0
  148.4395  141.4991  156.4038 H   0  0  0  0  0  0  0  0  0  0  0  0
  149.1820  142.8294  154.9898 H   0  0  0  0  0  0  0  0  0  0  0  0
  151.4240  142.7425  156.6968 H   0  0  0  0  0  0  0  0  0  0  0  0
  151.8037  140.9686  159.1307 H   0  0  0  0  0  0  0  0  0  0  0  0
  153.0669  141.6021  158.0682 H   0  0  0  0  0  0  0  0  0  0  0  0
  152.4042  142.9717  160.3172 H   0  0  0  0  0  0  0  0  0  0  0  0
  152.6860  143.8581  158.8159 H   0  0  0  0  0  0  0  0  0  0  0  0
  149.3553  143.4742  157.6739 H   0  0  0  0  0  0  0  0  0  0  0  0
  149.3205  142.1183  158.8028 H   0  0  0  0  0  0  0  0  0  0  0  0
  150.3027  130.9253  153.6771 H   0  0  0  0  0  0  0  0  0  0  0  0
  149.7801  129.8165  154.9476 H   0  0  0  0  0  0  0  0  0  0  0  0
  150.6705  131.2632  155.3754 H   0  0  0  0  0  0  0  0  0  0  0  0
  146.6340  131.0603  154.5951 H   0  0  0  0  0  0  0  0  0  0  0  0
  147.7227  129.9447  153.7929 H   0  0  0  0  0  0  0  0  0  0  0  0
  148.3664  131.5381  155.8012 H   0  0  0  0  0  0  0  0  0  0  0  0
  1  2  1  0  0  0  0
  1 32  1  0  0  0  0
  1 33  1  0  0  0  0
  1 34  1  0  0  0  0
  2  3  1  0  0  0  0
  3 30  1  0  0  0  0
  3 29  1  0  0  0  0
  3  4  1  0  0  0  0
  4  5  1  0  0  0  0
  4 35  1  0  0  0  0
  4 36  1  0  0  0  0
  5 31  1  0  0  0  0
  5  6  1  0  0  0  0
  5 27  1  0  0  0  0
  6  7  1  0  0  0  0
  6 37  1  0  0  0  0
  6 38  1  0  0  0  0
  7  8  1  0  0  0  0
  7  9  1  0  0  0  0
  8 39  1  0  0  0  0
  8 40  1  0  0  0  0
  8 41  1  0  0  0  0
  9 14  1  0  0  0  0
  9 10  2  0  0  0  0
 10 11  1  0  0  0  0
 11 12  2  0  0  0  0
 11 42  1  0  0  0  0
 12 13  1  0  0  0  0
 13 17  1  0  0  0  0
 13 14  2  0  0  0  0
 14 15  1  0  0  0  0
 15 16  2  0  0  0  0
 16 17  1  0  0  0  0
 16 43  1  0  0  0  0
 17 18  1  0  0  0  0
 18 19  1  0  0  0  0
 18 44  1  0  0  0  0
 18 45  1  0  0  0  0
 19 20  1  0  0  0  0
 19 22  1  0  0  0  0
 19 46  1  0  0  0  0
 20 21  1  0  0  0  0
 20 47  1  0  0  0  0
 20 48  1  0  0  0  0
 21 49  1  0  0  0  0
 22 26  1  0  0  0  0
 22 23  1  0  0  0  0
 22 50  1  0  0  0  0
 23 24  1  0  0  0  0
 23 51  1  0  0  0  0
 23 52  1  0  0  0  0
 24 25  1  0  0  0  0
 24 53  1  0  0  0  0
 24 54  1  0  0  0  0
 25 26  1  0  0  0  0
 26 55  1  0  0  0  0
 26 56  1  0  0  0  0
 27 28  1  0  0  0  0
 27 29  1  0  0  0  0
 27 62  1  0  0  0  0
 28 57  1  0  0  0  0
 28 58  1  0  0  0  0
 28 59  1  0  0  0  0
 29 60  1  0  0  0  0
 29 61  1  0  0  0  0
M  CHG  1  27   1
M  END
> <s_m_source_file>
AV-unprocessed.smi

> <i_m_source_file_index>
21

> <i_lp_mmshare_version>
43012

> <i_f3d_flags>
0

> <s_epik_input>
W0NIM11PW0NASF0xW0NIMl1bQ0BIXShOKFtDSDNdKVtDSDJdMSlbQ0gyXU4oW0NIM10pYyhuW2NIXW4yKWMoYzIzKW5bY0hdbjNbQ0gyXVtDQEhdKFtDSDJdW09IXSlbQ0BASF00W0NIMl1bQ0gyXU9bQ0gyXTQ=

> <s_epik_cmdline>
J2VwaWtfcHl0aG9uJywgJy1waCcsICc3LjAnLCAnLXRuJywgJzgnLCAnLW1hJywgJzIwMCcsICctbWV0YWxfYmluZGluZycsICctaW1hZScsICc8aW5maWxlLm1hZT4nLCAnLW9tYWUnLCAnPG91dGZpbGUubWFlPic=

> <r_lp_tautomer_probability>
1

> <r_epik_Ionization_Penalty>
0.0157465

> <r_epik_Ionization_Penalty_Charging>
0.015354

> <r_epik_Ionization_Penalty_Neutral>
0.000392529

> <r_epik_State_Penalty>
0.0120612

> <r_epik_Charging_Adjusted_Penalty>
0.0274152

> <i_epik_Tot_Q>
1

> <i_epik_Tot_abs_Q>
1

> <r_epik_Metal_State_Penalty>
0.0121253

> <b_epik_Metal_Only>
0

> <s_lp_Force_Field>
OPLS_2005

> <r_lp_Energy>
63.0646

> <b_lp_Chiralities_Consistent>
1

> <s_lp_Variant>
AV-unprocessed.smi:21-3

> <Gold.Version>
5.8.1

> <Gold.Id.Protein>
6NUR|6NUR_protein|mol2

> <Gold.PLP.Fitness>
52.3449

> <Gold.PLP.PLP>
-44.3993

> <Gold.PLP.part.hbond>
-4.7762

> <Gold.PLP.part.metal>
0.0000

> <Gold.PLP.part.buried>
-4.3222

> <Gold.PLP.part.nonpolar>
-37.2160

> <Gold.PLP.part.repulsive>
0.3991

> <Gold.PLP.ligand.clash>
0.0000

> <Gold.PLP.ligand.torsion>
0.7894

> <Gold.PLP.Chemscore.Hbond>
2.8947

> <Gold.PLP.Chemscore.CHOScore>
0.0000

> <Gold.PLP.Chemscore.Metal>
0.0000

> <Gold.Chemscore.Hbonds>
donor molecule, donor type, donor heavy atom, donor atom, acceptor molecule, acceptor atom, score
      L1  H    21    49       P1  8028  1.00
      P1  H  6896  6907       L1    10  0.95
      P1  H 10752 10764       L1    15  0.94

> <Gold.PLP.Chemscore.Internal.Correction>
0.8405

> <Gold.Rescore>
     Score         DG    S(hbond)    S(metal)    S(lipo)     H(rot)  DE(clash)    DE(int)     intcor
     14.64     -16.01       2.06        0.00      98.65       3.08       0.45       0.92       ----

> <Gold.Chemscore.Fitness>
14.6436

> <Gold.Chemscore.DG>
-16.0126

> <Gold.Chemscore.ZeroCoef>
-5.4800

> <Gold.Chemscore.Hbond>
2.0552

> <Gold.Chemscore.Metal>
0.0000

> <Gold.Chemscore.Lipo>
98.6537

> <Gold.Chemscore.Internal_Hbond>
0.0000

> <Gold.Chemscore.DEClash>
0.4504

> <Gold.Chemscore.DEInternal>
0.9186

> <Gold.Chemscore.Rot>
3.0758

> <Gold.Chemscore.Internal.Correction>
   9.000000E+99

> <Gold.Chemscore.Hbonds>
donor molecule, donor type, donor heavy atom, donor atom, acceptor molecule, acceptor atom, score
      L1  H    21    49       P1  8028  0.94
      P1  H  6896  6907       L1    10  0.18
      P1  H 10752 10764       L1    15  0.32

> <Gold.Chemscore.Hbond.Weighted>
-6.8643

> <Gold.Chemscore.Metal.Weighted>
-0.0000

> <Gold.Chemscore.Lipo.Weighted>
-11.5425

> <Gold.Chemscore.Internal_Hbond.Weighted>
0.0000

> <Gold.Chemscore.DEClash.Weighted>
0.4504

> <Gold.Chemscore.DEInternal.Weighted>
0.9186

> <Gold.Chemscore.Rot.Weighted>
7.8741

> <Gold.Chemscore.Internal.Correction.Weighted>
   9.000000E+99

> <Gold.Protein.RotatedTorsions>
[ 6907 6896 6895 6894 ] final  -73.03 input  -60.11 | X-H torsion
[ 7974 7965 7964 7962 ] final  117.67 input  175.53 | X-H torsion
[ 8008 7997 7996 7995 ] final -160.60 input   59.86 | X-H torsion
[ 10167 10162 10161 10158 ] final   -5.90 input  -65.29 | X-H torsion
[ 10718 10713 10712 10709 ] final  141.90 input   66.30 | X-H torsion
[ 10763 10752 10751 10750 ] final  -68.93 input  -60.55 | X-H torsion
[ 11005 11000 10999 10996 ] final -159.63 input  -57.11 | X-H torsion

> <Gold.Protein.ActiveResidues>
 VAL166  LYS551  ARG553  GLY616  TRP617  ASP618  TYR619  PRO620  LYS621  CYS622 
 ASP623  PHE694  ASN695  SER759  ASP760  ASP761  ALA762  ILE779  LEU786  VAL792 
 PHE793  MET794  SER795  GLU796  ALA797  LYS798  CYS799  TRP800  GLU811  SER814 

> <Gold.Protein.RotatedAtoms>
  150.7146  134.5076  159.5591 H   0  0  0  0  0  0  0  0  0  0  0  0  # atno 6907 bound_to 6896
  152.2659  134.7981  160.0431 H   0  0  0  0  0  0  0  0  0  0  0  0  # atno 6908 bound_to 6896
  151.8678  133.3434  159.3761 H   0  0  0  0  0  0  0  0  0  0  0  0  # atno 6909 bound_to 6896
  145.1646  139.3136  143.4499 H   0  0  0  0  0  0  0  0  0  0  0  0  # atno 7974 bound_to 7965
  155.7798  140.0863  157.2065 H   0  0  0  0  0  0  0  0  0  0  0  0  # atno 8008 bound_to 7997
  154.3991  140.1510  156.3097 H   0  0  0  0  0  0  0  0  0  0  0  0  # atno 8009 bound_to 7997
  155.8665  140.3427  155.5794 H   0  0  0  0  0  0  0  0  0  0  0  0  # atno 8010 bound_to 7997
  140.6979  143.6255  150.8572 H   0  0  0  0  0  0  0  0  0  0  0  0  # atno 10167 bound_to 10162
  157.3867  131.0999  151.0686 H   0  0  0  0  0  0  0  0  0  0  0  0  # atno 10718 bound_to 10713
  154.3961  135.6041  153.5870 H   0  0  0  0  0  0  0  0  0  0  0  0  # atno 10763 bound_to 10752
  152.9787  135.5895  154.4240 H   0  0  0  0  0  0  0  0  0  0  0  0  # atno 10764 bound_to 10752
  154.4031  135.2843  155.2062 H   0  0  0  0  0  0  0  0  0  0  0  0  # atno 10765 bound_to 10752
  140.6405  134.4556  157.5233 H   0  0  0  0  0  0  0  0  0  0  0  0  # atno 11005 bound_to 11000
  146.3477  140.1769  142.8589 LP  0  0  0  0  0  0  0  0  0  0  0  0  # atno 17320 bound_to 7965
  145.0296  140.8860  143.5118 LP  0  0  0  0  0  0  0  0  0  0  0  0  # atno 17321 bound_to 7965
  139.9975  143.5780  152.2888 LP  0  0  0  0  0  0  0  0  0  0  0  0  # atno 17342 bound_to 10162
  139.6458  144.7658  151.2247 LP  0  0  0  0  0  0  0  0  0  0  0  0  # atno 17343 bound_to 10162
  157.1735  130.6278  149.5648 LP  0  0  0  0  0  0  0  0  0  0  0  0  # atno 17370 bound_to 10713
  155.9788  130.4777  150.6679 LP  0  0  0  0  0  0  0  0  0  0  0  0  # atno 17371 bound_to 10713
  139.9082  134.8402  156.1626 LP  0  0  0  0  0  0  0  0  0  0  0  0  # atno 17394 bound_to 11000
  141.0610  133.6841  156.1953 LP  0  0  0  0  0  0  0  0  0  0  0  0  # atno 17395 bound_to 11000

$$$$
