AV-unprocessed.smi:1741|AV-procd|sdf|7017|dock2
  -GOLD-   22720 8233D 1   1.00000     0.00000
 Structure written by MMmdl.
 38 39  0  0  0  0  0  0  0  0  1 V2000
  144.2464  132.8763  149.0925 C   0  0  0  0  0  0  0  0  0  0  0  0
  144.3707  131.7794  150.1561 C   0  0  0  0  0  0  0  0  0  0  0  0
  145.3151  132.1459  151.1931 N   0  0  0  0  0  0  0  0  0  0  0  0
  145.9701  133.3494  151.3624 C   0  0  0  0  0  0  0  0  0  0  0  0
  146.7522  133.1911  152.4713 C   0  0  0  0  0  0  0  0  0  0  0  0
  147.6302  134.1148  153.0925 N   0  0  0  0  0  0  0  0  0  0  0  0
  147.9934  134.1526  154.3848 C   0  0  0  0  0  0  0  0  0  0  0  0
  147.6025  133.3699  155.2510 O   0  0  0  0  0  0  0  0  0  0  0  0
  148.8423  135.1635  154.6187 N   0  0  0  0  0  0  0  0  0  0  0  0
  149.4138  135.5201  155.9155 C   0  0  1  0  0  0  0  0  0  0  0  0
  150.3894  134.4140  156.3468 C   0  0  0  0  0  0  0  0  0  0  0  0
  150.0918  136.9004  155.8103 C   0  0  2  0  0  0  0  0  0  0  0  0
  149.2452  137.9779  155.1311 C   0  0  0  0  0  0  0  0  0  0  0  0
  150.3052  138.9357  154.6389 C   0  0  0  0  0  0  0  0  0  0  0  0
  151.4063  137.9782  154.1947 C   0  0  0  0  0  0  0  0  0  0  0  0
  151.2706  136.8173  155.0104 O   0  0  0  0  0  0  0  0  0  0  0  0
  146.5197  131.8663  152.9231 C   0  0  0  0  0  0  0  0  0  0  0  0
  145.6519  131.2392  152.1435 N   0  0  0  0  0  0  0  0  0  0  0  0
  143.5296  132.5899  148.3227 H   0  0  0  0  0  0  0  0  0  0  0  0
  145.2035  133.0619  148.6042 H   0  0  0  0  0  0  0  0  0  0  0  0
  143.9061  133.8145  149.5317 H   0  0  0  0  0  0  0  0  0  0  0  0
  143.4015  131.5914  150.6197 H   0  0  0  0  0  0  0  0  0  0  0  0
  144.6903  130.8414  149.6996 H   0  0  0  0  0  0  0  0  0  0  0  0
  145.8211  134.1829  150.6918 H   0  0  0  0  0  0  0  0  0  0  0  0
  148.0180  134.8260  152.4899 H   0  0  0  0  0  0  0  0  0  0  0  0
  149.0984  135.7517  153.8394 H   0  0  0  0  0  0  0  0  0  0  0  0
  148.6281  135.5824  156.6707 H   0  0  0  0  0  0  0  0  0  0  0  0
  150.8000  134.6099  157.3374 H   0  0  0  0  0  0  0  0  0  0  0  0
  151.2246  134.3264  155.6511 H   0  0  0  0  0  0  0  0  0  0  0  0
  149.8890  133.4461  156.3908 H   0  0  0  0  0  0  0  0  0  0  0  0
  150.3885  137.2528  156.7999 H   0  0  0  0  0  0  0  0  0  0  0  0
  148.6968  137.5623  154.2845 H   0  0  0  0  0  0  0  0  0  0  0  0
  148.5294  138.4467  155.8070 H   0  0  0  0  0  0  0  0  0  0  0  0
  149.9581  139.5884  153.8376 H   0  0  0  0  0  0  0  0  0  0  0  0
  150.6567  139.5592  155.4621 H   0  0  0  0  0  0  0  0  0  0  0  0
  151.2616  137.6867  153.1538 H   0  0  0  0  0  0  0  0  0  0  0  0
  152.3999  138.4169  154.2888 H   0  0  0  0  0  0  0  0  0  0  0  0
  146.9443  131.3487  153.7707 H   0  0  0  0  0  0  0  0  0  0  0  0
  1  2  1  0  0  0  0
  1 19  1  0  0  0  0
  1 20  1  0  0  0  0
  1 21  1  0  0  0  0
  2  3  1  0  0  0  0
  2 22  1  0  0  0  0
  2 23  1  0  0  0  0
  3 18  1  0  0  0  0
  3  4  1  0  0  0  0
  4  5  2  0  0  0  0
  4 24  1  0  0  0  0
  5  6  1  0  0  0  0
  5 17  1  0  0  0  0
  6  7  1  0  0  0  0
  6 25  1  0  0  0  0
  7  8  2  0  0  0  0
  7  9  1  0  0  0  0
  9 10  1  0  0  0  0
  9 26  1  0  0  0  0
 10 11  1  0  0  0  0
 10 12  1  0  0  0  0
 10 27  1  0  0  0  0
 11 28  1  0  0  0  0
 11 29  1  0  0  0  0
 11 30  1  0  0  0  0
 12 16  1  0  0  0  0
 12 13  1  0  0  0  0
 12 31  1  0  0  0  0
 13 14  1  0  0  0  0
 13 32  1  0  0  0  0
 13 33  1  0  0  0  0
 14 15  1  0  0  0  0
 14 34  1  0  0  0  0
 14 35  1  0  0  0  0
 15 16  1  0  0  0  0
 15 36  1  0  0  0  0
 15 37  1  0  0  0  0
 17 18  2  0  0  0  0
 17 38  1  0  0  0  0
M  END
> <s_m_source_file>
AV-unprocessed.smi

> <i_m_source_file_index>
1741

> <i_lp_mmshare_version>
43012

> <i_f3d_flags>
0

> <s_epik_input>
W0NIM11bQ0gyXW4xW2NIXWMoW2NIXW4xKVtOSF1DKD1PKVtOSF1bQ0BIXShbQ0gzXSlbQ0BASF0yW0NIMl1bQ0gyXVtDSDJdTzI=

> <s_epik_cmdline>
J2VwaWtfcHl0aG9uJywgJy1waCcsICc3LjAnLCAnLXRuJywgJzgnLCAnLW1hJywgJzIwMCcsICctbWV0YWxfYmluZGluZycsICctaW1hZScsICc8aW5maWxlLm1hZT4nLCAnLW9tYWUnLCAnPG91dGZpbGUubWFlPic=

> <r_lp_tautomer_probability>
1

> <r_epik_Ionization_Penalty>
0.000179292

> <r_epik_Ionization_Penalty_Charging>
0

> <r_epik_Ionization_Penalty_Neutral>
0.000179292

> <r_epik_State_Penalty>
-0

> <r_epik_Charging_Adjusted_Penalty>
0

> <i_epik_Tot_Q>
0

> <i_epik_Tot_abs_Q>
0

> <r_epik_Metal_State_Penalty>
-0

> <b_epik_Metal_Only>
0

> <s_lp_Force_Field>
OPLS_2005

> <r_lp_Energy>
22.1754

> <b_lp_Chiralities_Consistent>
1

> <s_lp_Variant>
AV-unprocessed.smi:1741-2

> <Gold.Version>
5.8.1

> <Gold.Id.Protein>
6NUR|6NUR_protein|mol2

> <Gold.PLP.Fitness>
39.5851

> <Gold.PLP.PLP>
-31.3729

> <Gold.PLP.part.hbond>
-3.0000

> <Gold.PLP.part.metal>
0.0000

> <Gold.PLP.part.buried>
-3.5919

> <Gold.PLP.part.nonpolar>
-24.0737

> <Gold.PLP.part.repulsive>
0.3349

> <Gold.PLP.ligand.clash>
0.0000

> <Gold.PLP.ligand.torsion>
0.4041

> <Gold.PLP.Chemscore.Hbond>
3.0000

> <Gold.PLP.Chemscore.CHOScore>
0.0000

> <Gold.PLP.Chemscore.Metal>
0.0000

> <Gold.Chemscore.Hbonds>
donor molecule, donor type, donor heavy atom, donor atom, acceptor molecule, acceptor atom, score
      L1  H     6    25       P1  7948  1.00
      L1  H     9    26       P1  7948  1.00
      P1  H 10752 10764       L1    16  0.68

> <Gold.PLP.Chemscore.Internal.Correction>
0.0203

> <Gold.Rescore>
     Score         DG    S(hbond)    S(metal)    S(lipo)     H(rot)  DE(clash)    DE(int)     intcor
     16.12     -17.60       2.19        0.00      71.17       1.38       0.10       1.38       ----

> <Gold.Chemscore.Fitness>
16.1206

> <Gold.Chemscore.DG>
-17.6010

> <Gold.Chemscore.ZeroCoef>
-5.4800

> <Gold.Chemscore.Hbond>
2.1928

> <Gold.Chemscore.Metal>
0.0000

> <Gold.Chemscore.Lipo>
71.1738

> <Gold.Chemscore.Internal_Hbond>
0.0000

> <Gold.Chemscore.DEClash>
0.0997

> <Gold.Chemscore.DEInternal>
1.3807

> <Gold.Chemscore.Rot>
1.3790

> <Gold.Chemscore.Internal.Correction>
   9.000000E+99

> <Gold.Chemscore.Hbonds>
donor molecule, donor type, donor heavy atom, donor atom, acceptor molecule, acceptor atom, score
      L1  H     6    25       P1  7948  0.70
      L1  H     9    26       P1  7948  0.76
      P1  H 10752 10764       L1    16  0.17

> <Gold.Chemscore.Hbond.Weighted>
-7.3238

> <Gold.Chemscore.Metal.Weighted>
-0.0000

> <Gold.Chemscore.Lipo.Weighted>
-8.3273

> <Gold.Chemscore.Internal_Hbond.Weighted>
0.0000

> <Gold.Chemscore.DEClash.Weighted>
0.0997

> <Gold.Chemscore.DEInternal.Weighted>
1.3807

> <Gold.Chemscore.Rot.Weighted>
3.5302

> <Gold.Chemscore.Internal.Correction.Weighted>
   9.000000E+99

> <Gold.Protein.RotatedTorsions>
[ 6907 6896 6895 6894 ] final  -50.20 input  -60.11 | X-H torsion
[ 7974 7965 7964 7962 ] final  145.75 input  175.53 | X-H torsion
[ 8008 7997 7996 7995 ] final   79.46 input   59.86 | X-H torsion
[ 10167 10162 10161 10158 ] final   16.45 input  -65.29 | X-H torsion
[ 10718 10713 10712 10709 ] final  -41.10 input   66.30 | X-H torsion
[ 10763 10752 10751 10750 ] final  -78.42 input  -60.55 | X-H torsion
[ 11005 11000 10999 10996 ] final   12.90 input  -57.11 | X-H torsion

> <Gold.Protein.ActiveResidues>
 VAL166  LYS551  ARG553  GLY616  TRP617  ASP618  TYR619  PRO620  LYS621  CYS622 
 ASP623  PHE694  ASN695  SER759  ASP760  ASP761  ALA762  ILE779  LEU786  VAL792 
 PHE793  MET794  SER795  GLU796  ALA797  LYS798  CYS799  TRP800  GLU811  SER814 

> <Gold.Protein.RotatedAtoms>
  150.8730  134.8108  159.7168 H   0  0  0  0  0  0  0  0  0  0  0  0  # atno 6907 bound_to 6896
  152.4728  134.4916  159.9707 H   0  0  0  0  0  0  0  0  0  0  0  0  # atno 6908 bound_to 6896
  151.5002  133.3467  159.2903 H   0  0  0  0  0  0  0  0  0  0  0  0  # atno 6909 bound_to 6896
  144.8727  139.5821  143.5879 H   0  0  0  0  0  0  0  0  0  0  0  0  # atno 7974 bound_to 7965
  155.8700  140.3449  155.5815 H   0  0  0  0  0  0  0  0  0  0  0  0  # atno 8008 bound_to 7997
  155.7838  140.0862  157.2064 H   0  0  0  0  0  0  0  0  0  0  0  0  # atno 8009 bound_to 7997
  154.4017  140.1496  156.3070 H   0  0  0  0  0  0  0  0  0  0  0  0  # atno 8010 bound_to 7997
  140.5796  143.9005  150.6779 H   0  0  0  0  0  0  0  0  0  0  0  0  # atno 10167 bound_to 10162
  156.2741  130.4210  149.8407 H   0  0  0  0  0  0  0  0  0  0  0  0  # atno 10718 bound_to 10713
  154.5256  135.5730  153.6716 H   0  0  0  0  0  0  0  0  0  0  0  0  # atno 10763 bound_to 10752
  152.9927  135.6192  154.2697 H   0  0  0  0  0  0  0  0  0  0  0  0  # atno 10764 bound_to 10752
  154.2620  135.2856  155.2753 H   0  0  0  0  0  0  0  0  0  0  0  0  # atno 10765 bound_to 10752
  140.4868  134.0880  155.7762 H   0  0  0  0  0  0  0  0  0  0  0  0  # atno 11005 bound_to 11000
  146.2941  139.7226  142.9139 LP  0  0  0  0  0  0  0  0  0  0  0  0  # atno 17320 bound_to 7965
  145.4101  141.0395  143.3022 LP  0  0  0  0  0  0  0  0  0  0  0  0  # atno 17321 bound_to 7965
  140.2501  143.3599  152.1413 LP  0  0  0  0  0  0  0  0  0  0  0  0  # atno 17342 bound_to 10162
  139.5162  144.6974  151.5590 LP  0  0  0  0  0  0  0  0  0  0  0  0  # atno 17343 bound_to 10162
  156.5877  130.8493  151.3400 LP  0  0  0  0  0  0  0  0  0  0  0  0  # atno 17370 bound_to 10713
  157.7293  130.9669  150.1783 LP  0  0  0  0  0  0  0  0  0  0  0  0  # atno 17371 bound_to 10713
  141.1504  133.8979  157.2112 LP  0  0  0  0  0  0  0  0  0  0  0  0  # atno 17394 bound_to 11000
  139.9793  135.0103  156.9710 LP  0  0  0  0  0  0  0  0  0  0  0  0  # atno 17395 bound_to 11000

$$$$
