AV-unprocessed.smi:3237|AV-procd|sdf|12364|dock1
  -GOLD-   2272018223D 1   1.00000     0.00000
 Structure written by MMmdl.
 37 39  0  0  0  0  0  0  0  0  2 V2000
  150.2132  141.2351  154.8862 C   0  0  0  0  0  0  0  0  0  0  0  0
  148.9767  140.8125  154.1697 C   0  0  0  0  0  0  0  0  0  0  0  0
  148.5436  139.6061  153.6967 C   0  0  0  0  0  0  0  0  0  0  0  0
  147.2791  139.9247  153.1211 C   0  0  0  0  0  0  0  0  0  0  0  0
  146.3945  139.0193  152.4803 N   0  0  0  0  0  0  0  0  0  0  0  0
  146.1553  137.7320  152.7819 C   0  0  0  0  0  0  0  0  0  0  0  0
  146.6879  137.1001  153.6942 O   0  0  0  0  0  0  0  0  0  0  0  0
  145.2453  137.1992  151.9539 N   0  0  0  0  0  0  0  0  0  0  0  0
  144.7531  135.8282  152.0331 C   0  0  1  0  0  0  0  0  0  0  0  0
  143.5319  135.6647  152.9284 C   0  0  0  0  0  0  0  0  0  0  0  0
  142.9453  134.3305  152.4512 C   0  0  0  0  0  0  0  0  0  0  0  0
  143.3420  134.1715  151.0292 N   0  3  2  0  0  0  0  0  0  0  0  0
  143.9179  132.8441  150.7219 C   0  0  0  0  0  0  0  0  0  0  0  0
  145.4272  132.8155  150.7631 C   0  0  0  0  0  0  0  0  0  0  0  0
  144.7044  132.8113  149.4334 C   0  0  0  0  0  0  0  0  0  0  0  0
  144.2409  135.2967  150.6921 C   0  0  0  0  0  0  0  0  0  0  0  0
  146.9776  141.2052  153.2319 N   0  0  0  0  0  0  0  0  0  0  0  0
  148.0609  141.7825  153.9044 O   0  0  0  0  0  0  0  0  0  0  0  0
  150.6825  140.3868  155.3845 H   0  0  0  0  0  0  0  0  0  0  0  0
  149.9872  141.9872  155.6425 H   0  0  0  0  0  0  0  0  0  0  0  0
  150.9355  141.6609  154.1898 H   0  0  0  0  0  0  0  0  0  0  0  0
  149.0615  138.6614  153.7614 H   0  0  0  0  0  0  0  0  0  0  0  0
  145.8755  139.4037  151.7046 H   0  0  0  0  0  0  0  0  0  0  0  0
  144.8559  137.7863  151.2303 H   0  0  0  0  0  0  0  0  0  0  0  0
  145.5487  135.1769  152.4020 H   0  0  0  0  0  0  0  0  0  0  0  0
  143.7795  135.6621  153.9904 H   0  0  0  0  0  0  0  0  0  0  0  0
  142.8178  136.4702  152.7485 H   0  0  0  0  0  0  0  0  0  0  0  0
  143.3589  133.5178  153.0508 H   0  0  0  0  0  0  0  0  0  0  0  0
  141.8610  134.2980  152.5605 H   0  0  0  0  0  0  0  0  0  0  0  0
  143.3411  131.9780  151.0429 H   0  0  0  0  0  0  0  0  0  0  0  0
  145.9523  133.7253  151.0483 H   0  0  0  0  0  0  0  0  0  0  0  0
  145.9034  131.8876  151.0735 H   0  0  0  0  0  0  0  0  0  0  0  0
  144.7047  131.8810  148.8690 H   0  0  0  0  0  0  0  0  0  0  0  0
  144.7498  133.7189  148.8338 H   0  0  0  0  0  0  0  0  0  0  0  0
  143.6493  136.0588  150.1827 H   0  0  0  0  0  0  0  0  0  0  0  0
  145.0490  135.0050  150.0194 H   0  0  0  0  0  0  0  0  0  0  0  0
  142.5130  134.2754  150.4616 H   0  0  0  0  0  0  0  0  0  0  0  0
  1  2  1  0  0  0  0
  1 19  1  0  0  0  0
  1 20  1  0  0  0  0
  1 21  1  0  0  0  0
  2 18  1  0  0  0  0
  2  3  2  0  0  0  0
  3  4  1  0  0  0  0
  3 22  1  0  0  0  0
  4  5  1  0  0  0  0
  4 17  2  0  0  0  0
  5  6  1  0  0  0  0
  5 23  1  0  0  0  0
  6  7  2  0  0  0  0
  6  8  1  0  0  0  0
  8  9  1  0  0  0  0
  8 24  1  0  0  0  0
  9 16  1  0  0  0  0
  9 10  1  0  0  0  0
  9 25  1  0  0  0  0
 10 11  1  0  0  0  0
 10 26  1  0  0  0  0
 10 27  1  0  0  0  0
 11 12  1  0  0  0  0
 11 28  1  0  0  0  0
 11 29  1  0  0  0  0
 12 13  1  0  0  0  0
 12 16  1  0  0  0  0
 12 37  1  0  0  0  0
 13 15  1  0  0  0  0
 13 14  1  0  0  0  0
 13 30  1  0  0  0  0
 14 15  1  0  0  0  0
 14 31  1  0  0  0  0
 14 32  1  0  0  0  0
 15 33  1  0  0  0  0
 15 34  1  0  0  0  0
 16 35  1  0  0  0  0
 16 36  1  0  0  0  0
 17 18  1  0  0  0  0
M  CHG  1  12   1
M  END
> <s_m_source_file>
AV-unprocessed.smi

> <i_m_source_file_index>
3237

> <i_lp_mmshare_version>
43012

> <i_f3d_flags>
0

> <s_epik_input>
W0NIM11jMVtjSF1jKG5vMSlbTkhdQyg9TylbTkhdW0NAQEhdMltDSDJdW0NIMl1OKFtDSDJdMilbQ0hdM1tDSDJdW0NIMl0z

> <s_epik_cmdline>
J2VwaWtfcHl0aG9uJywgJy1waCcsICc3LjAnLCAnLXRuJywgJzgnLCAnLW1hJywgJzIwMCcsICctbWV0YWxfYmluZGluZycsICctaW1hZScsICc8aW5maWxlLm1hZT4nLCAnLW9tYWUnLCAnPG91dGZpbGUubWFlPic=

> <r_epik_Ionization_Penalty>
0.000720579

> <r_epik_Ionization_Penalty_Charging>
0.000680516

> <r_epik_Ionization_Penalty_Neutral>
4.00628e-05

> <r_epik_State_Penalty>
0.000432256

> <r_epik_Charging_Adjusted_Penalty>
0.00111277

> <i_epik_Tot_Q>
1

> <i_epik_Tot_abs_Q>
1

> <r_epik_Metal_State_Penalty>
0.0255091

> <b_epik_Metal_Only>
0

> <s_lp_Force_Field>
OPLS_2005

> <r_lp_Energy>
35.6683

> <b_lp_Chiralities_Consistent>
1

> <s_lp_Variant>
AV-unprocessed.smi:3237-2

> <Gold.Version>
5.8.1

> <Gold.Id.Protein>
6NUR|6NUR_protein|mol2

> <Gold.PLP.Fitness>
40.4591

> <Gold.PLP.PLP>
-32.6942

> <Gold.PLP.part.hbond>
-3.0894

> <Gold.PLP.part.metal>
0.0000

> <Gold.PLP.part.buried>
-4.2380

> <Gold.PLP.part.nonpolar>
-25.0709

> <Gold.PLP.part.repulsive>
0.5305

> <Gold.PLP.ligand.clash>
0.0000

> <Gold.PLP.ligand.torsion>
1.2504

> <Gold.PLP.Chemscore.Hbond>
3.0000

> <Gold.PLP.Chemscore.CHOScore>
0.0000

> <Gold.PLP.Chemscore.Metal>
0.0000

> <Gold.Chemscore.Hbonds>
donor molecule, donor type, donor heavy atom, donor atom, acceptor molecule, acceptor atom, score
      L1  H     8    24       P1 10171  1.00
      L1  H    12    37       P1 10186  2.00

> <Gold.PLP.Chemscore.Internal.Correction>
1.2656

> <Gold.Rescore>
     Score         DG    S(hbond)    S(metal)    S(lipo)     H(rot)  DE(clash)    DE(int)     intcor
     15.35     -16.86       1.99        0.00      68.11       1.26       0.27       1.23       ----

> <Gold.Chemscore.Fitness>
15.3533

> <Gold.Chemscore.DG>
-16.8567

> <Gold.Chemscore.ZeroCoef>
-5.4800

> <Gold.Chemscore.Hbond>
1.9856

> <Gold.Chemscore.Metal>
0.0000

> <Gold.Chemscore.Lipo>
68.1073

> <Gold.Chemscore.Internal_Hbond>
0.0000

> <Gold.Chemscore.DEClash>
0.2688

> <Gold.Chemscore.DEInternal>
1.2346

> <Gold.Chemscore.Rot>
1.2593

> <Gold.Chemscore.Internal.Correction>
   9.000000E+99

> <Gold.Chemscore.Hbonds>
donor molecule, donor type, donor heavy atom, donor atom, acceptor molecule, acceptor atom, score
      L1  H     8    24       P1 10171  1.00
      L1  H    12    37       P1 10186  0.65

> <Gold.Chemscore.Hbond.Weighted>
-6.6319

> <Gold.Chemscore.Metal.Weighted>
-0.0000

> <Gold.Chemscore.Lipo.Weighted>
-7.9686

> <Gold.Chemscore.Internal_Hbond.Weighted>
0.0000

> <Gold.Chemscore.DEClash.Weighted>
0.2688

> <Gold.Chemscore.DEInternal.Weighted>
1.2346

> <Gold.Chemscore.Rot.Weighted>
3.2237

> <Gold.Chemscore.Internal.Correction.Weighted>
   9.000000E+99

> <Gold.Protein.RotatedTorsions>
[ 6907 6896 6895 6894 ] final   79.33 input  -60.11 | X-H torsion
[ 7974 7965 7964 7962 ] final   37.94 input  175.53 | X-H torsion
[ 8008 7997 7996 7995 ] final  152.26 input   59.86 | X-H torsion
[ 10167 10162 10161 10158 ] final   23.47 input  -65.29 | X-H torsion
[ 10718 10713 10712 10709 ] final   61.33 input   66.30 | X-H torsion
[ 10763 10752 10751 10750 ] final  122.91 input  -60.55 | X-H torsion
[ 11005 11000 10999 10996 ] final  -27.28 input  -57.11 | X-H torsion

> <Gold.Protein.ActiveResidues>
 VAL166  LYS551  ARG553  GLY616  TRP617  ASP618  TYR619  PRO620  LYS621  CYS622 
 ASP623  PHE694  ASN695  SER759  ASP760  ASP761  ALA762  ILE779  LEU786  VAL792 
 PHE793  MET794  SER795  GLU796  ALA797  LYS798  CYS799  TRP800  GLU811  SER814 

> <Gold.Protein.RotatedAtoms>
  152.5194  134.3527  159.9256 H   0  0  0  0  0  0  0  0  0  0  0  0  # atno 6907 bound_to 6896
  151.3478  133.3931  159.2685 H   0  0  0  0  0  0  0  0  0  0  0  0  # atno 6908 bound_to 6896
  150.9751  134.9136  159.7869 H   0  0  0  0  0  0  0  0  0  0  0  0  # atno 6909 bound_to 6896
  146.1100  139.5833  142.9358 H   0  0  0  0  0  0  0  0  0  0  0  0  # atno 7974 bound_to 7965
  156.2637  140.2025  156.6306 H   0  0  0  0  0  0  0  0  0  0  0  0  # atno 8008 bound_to 7997
  154.6686  140.0552  157.0165 H   0  0  0  0  0  0  0  0  0  0  0  0  # atno 8009 bound_to 7997
  155.1170  140.3221  155.4510 H   0  0  0  0  0  0  0  0  0  0  0  0  # atno 8010 bound_to 7997
  140.5266  143.9913  150.6443 H   0  0  0  0  0  0  0  0  0  0  0  0  # atno 10167 bound_to 10162
  157.5820  130.8989  149.9448 H   0  0  0  0  0  0  0  0  0  0  0  0  # atno 10718 bound_to 10713
  153.6372  135.3386  155.3060 H   0  0  0  0  0  0  0  0  0  0  0  0  # atno 10763 bound_to 10752
  154.8567  135.4309  154.2043 H   0  0  0  0  0  0  0  0  0  0  0  0  # atno 10764 bound_to 10752
  153.2953  135.7020  153.7328 H   0  0  0  0  0  0  0  0  0  0  0  0  # atno 10765 bound_to 10752
  140.9106  133.7464  156.0665 H   0  0  0  0  0  0  0  0  0  0  0  0  # atno 11005 bound_to 11000
  145.5684  141.0397  143.2188 LP  0  0  0  0  0  0  0  0  0  0  0  0  # atno 17320 bound_to 7965
  144.7503  139.7211  143.7276 LP  0  0  0  0  0  0  0  0  0  0  0  0  # atno 17321 bound_to 7965
  140.3276  143.3097  152.0720 LP  0  0  0  0  0  0  0  0  0  0  0  0  # atno 17342 bound_to 10162
  139.4940  144.6531  151.6632 LP  0  0  0  0  0  0  0  0  0  0  0  0  # atno 17343 bound_to 10162
  156.0866  130.3667  150.0475 LP  0  0  0  0  0  0  0  0  0  0  0  0  # atno 17370 bound_to 10713
  156.8612  130.9492  151.3618 LP  0  0  0  0  0  0  0  0  0  0  0  0  # atno 17371 bound_to 10713
  140.8115  134.3393  157.5410 LP  0  0  0  0  0  0  0  0  0  0  0  0  # atno 17394 bound_to 11000
  139.8757  134.9257  156.3381 LP  0  0  0  0  0  0  0  0  0  0  0  0  # atno 17395 bound_to 11000

$$$$
