AV-unprocessed.smi:3045|AV-procd|sdf|11611|dock10
  -GOLD-   2272016593D 1   1.00000     0.00000
 Structure written by MMmdl.
 36 37  0  0  0  0  0  0  0  0  2 V2000
  153.9811  142.0951  161.4168 C   0  0  0  0  0  0  0  0  0  0  0  0
  153.1030  142.7413  160.4510 N   0  0  0  0  0  0  0  0  0  0  0  0
  153.3292  142.6059  159.0226 C   0  0  0  0  0  0  0  0  0  0  0  0
  152.1114  143.2714  158.3447 C   0  0  1  0  0  0  0  0  0  0  0  0
  151.2053  142.2477  157.6424 C   0  0  0  0  0  0  0  0  0  0  0  0
  151.5166  141.0562  157.6178 O   0  0  0  0  0  0  0  0  0  0  0  0
  150.0883  142.7258  157.0725 N   0  0  0  0  0  0  0  0  0  0  0  0
  149.0976  141.9177  156.3717 C   0  0  0  0  0  0  0  0  0  0  0  0
  149.7567  140.8677  155.4611 C   0  0  0  0  0  0  0  0  0  0  0  0
  148.7797  140.2896  154.4561 C   0  0  0  0  0  0  0  0  0  0  0  0
  147.5716  140.9615  154.1655 C   0  0  0  0  0  0  0  0  0  0  0  0
  146.6805  140.4068  153.2233 C   0  0  0  0  0  0  0  0  0  0  0  0
  147.0173  139.1909  152.5939 C   0  0  0  0  0  0  0  0  0  0  0  0
  148.1815  138.5762  152.8981 N   0  3  0  0  0  0  0  0  0  0  0  0
  149.0619  139.0754  153.7935 C   0  0  0  0  0  0  0  0  0  0  0  0
  151.3683  144.0048  159.4808 C   0  0  0  0  0  0  0  0  0  0  0  0
  152.0603  143.5228  160.7450 C   0  0  0  0  0  0  0  0  0  0  0  0
  151.6769  143.8258  161.8737 O   0  0  0  0  0  0  0  0  0  0  0  0
  154.4586  142.8371  162.0577 H   0  0  0  0  0  0  0  0  0  0  0  0
  154.7648  141.5258  160.9164 H   0  0  0  0  0  0  0  0  0  0  0  0
  153.4147  141.4091  162.0476 H   0  0  0  0  0  0  0  0  0  0  0  0
  154.2522  143.1210  158.7527 H   0  0  0  0  0  0  0  0  0  0  0  0
  153.4476  141.5550  158.7531 H   0  0  0  0  0  0  0  0  0  0  0  0
  152.4600  143.9989  157.6094 H   0  0  0  0  0  0  0  0  0  0  0  0
  149.9075  143.7174  157.1395 H   0  0  0  0  0  0  0  0  0  0  0  0
  148.4368  141.4383  157.0960 H   0  0  0  0  0  0  0  0  0  0  0  0
  148.4741  142.5859  155.7771 H   0  0  0  0  0  0  0  0  0  0  0  0
  150.6016  141.3098  154.9311 H   0  0  0  0  0  0  0  0  0  0  0  0
  150.1632  140.0484  156.0554 H   0  0  0  0  0  0  0  0  0  0  0  0
  147.3315  141.8936  154.6567 H   0  0  0  0  0  0  0  0  0  0  0  0
  145.7529  140.9075  152.9868 H   0  0  0  0  0  0  0  0  0  0  0  0
  146.3961  138.6959  151.8616 H   0  0  0  0  0  0  0  0  0  0  0  0
  149.9581  138.4925  153.9498 H   0  0  0  0  0  0  0  0  0  0  0  0
  151.4838  145.0855  159.3936 H   0  0  0  0  0  0  0  0  0  0  0  0
  150.3005  143.7834  159.5235 H   0  0  0  0  0  0  0  0  0  0  0  0
  148.4059  137.6969  152.4312 H   0  0  0  0  0  0  0  0  0  0  0  0
  1  2  1  0  0  0  0
  1 19  1  0  0  0  0
  1 20  1  0  0  0  0
  1 21  1  0  0  0  0
  2 17  1  0  0  0  0
  2  3  1  0  0  0  0
  3  4  1  0  0  0  0
  3 22  1  0  0  0  0
  3 23  1  0  0  0  0
  4  5  1  0  0  0  0
  4 16  1  0  0  0  0
  4 24  1  0  0  0  0
  5  6  2  0  0  0  0
  5  7  1  0  0  0  0
  7  8  1  0  0  0  0
  7 25  1  0  0  0  0
  8  9  1  0  0  0  0
  8 26  1  0  0  0  0
  8 27  1  0  0  0  0
  9 10  1  0  0  0  0
  9 28  1  0  0  0  0
  9 29  1  0  0  0  0
 10 15  1  0  0  0  0
 10 11  2  0  0  0  0
 11 12  1  0  0  0  0
 11 30  1  0  0  0  0
 12 13  2  0  0  0  0
 12 31  1  0  0  0  0
 13 14  1  0  0  0  0
 13 32  1  0  0  0  0
 14 15  2  0  0  0  0
 14 36  1  0  0  0  0
 15 33  1  0  0  0  0
 16 17  1  0  0  0  0
 16 34  1  0  0  0  0
 16 35  1  0  0  0  0
 17 18  2  0  0  0  0
M  CHG  1  14   1
M  END
> <s_m_source_file>
AV-unprocessed.smi

> <i_m_source_file_index>
3045

> <i_lp_mmshare_version>
43012

> <i_f3d_flags>
0

> <s_epik_input>
W0NIM11OMVtDSDJdW0NASF0oW0NIMl1DMT1PKUMoPU8pW05IXVtDSDJdW0NIMl1jMltjSF1bY0hdW2NIXW5bY0hdMg==

> <s_epik_cmdline>
J2VwaWtfcHl0aG9uJywgJy1waCcsICc3LjAnLCAnLXRuJywgJzgnLCAnLW1hJywgJzIwMCcsICctbWV0YWxfYmluZGluZycsICctaW1hZScsICc8aW5maWxlLm1hZT4nLCAnLW9tYWUnLCAnPG91dGZpbGUubWFlPic=

> <r_epik_Ionization_Penalty>
2.26523

> <r_epik_Ionization_Penalty_Charging>
2.26523

> <r_epik_Ionization_Penalty_Neutral>
2.92809e-08

> <r_epik_State_Penalty>
2.41338

> <r_epik_Charging_Adjusted_Penalty>
4.67861

> <i_epik_Tot_Q>
1

> <i_epik_Tot_abs_Q>
1

> <r_epik_Metal_State_Penalty>
2.42626

> <b_epik_Metal_Only>
0

> <s_lp_Force_Field>
OPLS_2005

> <r_lp_Energy>
17.4677

> <b_lp_Chiralities_Consistent>
1

> <s_lp_Variant>
AV-unprocessed.smi:3045-3

> <Gold.Version>
5.8.1

> <Gold.Id.Protein>
6NUR|6NUR_protein|mol2

> <Gold.PLP.Fitness>
44.6348

> <Gold.PLP.PLP>
-38.3777

> <Gold.PLP.part.hbond>
-3.0000

> <Gold.PLP.part.metal>
0.0000

> <Gold.PLP.part.buried>
1.2459

> <Gold.PLP.part.nonpolar>
-37.6598

> <Gold.PLP.part.repulsive>
1.7029

> <Gold.PLP.ligand.clash>
0.0000

> <Gold.PLP.ligand.torsion>
0.4282

> <Gold.PLP.Chemscore.Hbond>
2.3682

> <Gold.PLP.Chemscore.CHOScore>
0.0000

> <Gold.PLP.Chemscore.Metal>
0.0000

> <Gold.Chemscore.Hbonds>
donor molecule, donor type, donor heavy atom, donor atom, acceptor molecule, acceptor atom, score
      L1  H     7    25       P1  8028  0.43
      L1  H    14    36       P1  7948  2.00

> <Gold.PLP.Chemscore.Internal.Correction>
0.0090

> <Gold.Rescore>
     Score         DG    S(hbond)    S(metal)    S(lipo)     H(rot)  DE(clash)    DE(int)     intcor
     14.66     -15.34       1.68        0.00      73.80       1.71       0.49       0.19       ----

> <Gold.Chemscore.Fitness>
14.6641

> <Gold.Chemscore.DG>
-15.3382

> <Gold.Chemscore.ZeroCoef>
-5.4800

> <Gold.Chemscore.Hbond>
1.6772

> <Gold.Chemscore.Metal>
0.0000

> <Gold.Chemscore.Lipo>
73.8045

> <Gold.Chemscore.Internal_Hbond>
0.0000

> <Gold.Chemscore.DEClash>
0.4854

> <Gold.Chemscore.DEInternal>
0.1886

> <Gold.Chemscore.Rot>
1.7105

> <Gold.Chemscore.Internal.Correction>
   9.000000E+99

> <Gold.Chemscore.Hbonds>
donor molecule, donor type, donor heavy atom, donor atom, acceptor molecule, acceptor atom, score
      L1  H     7    25       P1  8028  0.38
      L1  H    14    36       P1  7948  1.00

> <Gold.Chemscore.Hbond.Weighted>
-5.6019

> <Gold.Chemscore.Metal.Weighted>
-0.0000

> <Gold.Chemscore.Lipo.Weighted>
-8.6351

> <Gold.Chemscore.Internal_Hbond.Weighted>
0.0000

> <Gold.Chemscore.DEClash.Weighted>
0.4854

> <Gold.Chemscore.DEInternal.Weighted>
0.1886

> <Gold.Chemscore.Rot.Weighted>
4.3789

> <Gold.Chemscore.Internal.Correction.Weighted>
   9.000000E+99

> <Gold.Protein.RotatedTorsions>
[ 6907 6896 6895 6894 ] final   34.70 input  -60.11 | X-H torsion
[ 7974 7965 7964 7962 ] final  -36.92 input  175.53 | X-H torsion
[ 8008 7997 7996 7995 ] final -141.63 input   59.86 | X-H torsion
[ 10167 10162 10161 10158 ] final   89.06 input  -65.29 | X-H torsion
[ 10718 10713 10712 10709 ] final  123.31 input   66.30 | X-H torsion
[ 10763 10752 10751 10750 ] final  -74.60 input  -60.55 | X-H torsion
[ 11005 11000 10999 10996 ] final  -88.74 input  -57.11 | X-H torsion

> <Gold.Protein.ActiveResidues>
 VAL166  LYS551  ARG553  GLY616  TRP617  ASP618  TYR619  PRO620  LYS621  CYS622 
 ASP623  PHE694  ASN695  SER759  ASP760  ASP761  ALA762  ILE779  LEU786  VAL792 
 PHE793  MET794  SER795  GLU796  ALA797  LYS798  CYS799  TRP800  GLU811  SER814 

> <Gold.Protein.RotatedAtoms>
  152.1060  134.9308  160.0567 H   0  0  0  0  0  0  0  0  0  0  0  0  # atno 6907 bound_to 6896
  152.0504  133.4012  159.4383 H   0  0  0  0  0  0  0  0  0  0  0  0  # atno 6908 bound_to 6896
  150.6841  134.3235  159.4840 H   0  0  0  0  0  0  0  0  0  0  0  0  # atno 6909 bound_to 6896
  146.0619  140.6336  142.8993 H   0  0  0  0  0  0  0  0  0  0  0  0  # atno 7974 bound_to 7965
  155.4810  140.0560  157.2967 H   0  0  0  0  0  0  0  0  0  0  0  0  # atno 8008 bound_to 7997
  154.4660  140.2019  156.0070 H   0  0  0  0  0  0  0  0  0  0  0  0  # atno 8009 bound_to 7997
  156.0975  140.3224  155.7901 H   0  0  0  0  0  0  0  0  0  0  0  0  # atno 8010 bound_to 7997
  139.8610  144.6544  150.9058 H   0  0  0  0  0  0  0  0  0  0  0  0  # atno 10167 bound_to 10162
  157.5674  131.1085  150.8429 H   0  0  0  0  0  0  0  0  0  0  0  0  # atno 10718 bound_to 10713
  154.4753  135.5859  153.6350 H   0  0  0  0  0  0  0  0  0  0  0  0  # atno 10763 bound_to 10752
  152.9840  135.6076  154.3315 H   0  0  0  0  0  0  0  0  0  0  0  0  # atno 10764 bound_to 10752
  154.3201  135.2844  155.2503 H   0  0  0  0  0  0  0  0  0  0  0  0  # atno 10765 bound_to 10752
  141.1597  133.7588  156.9495 H   0  0  0  0  0  0  0  0  0  0  0  0  # atno 11005 bound_to 11000
  144.7180  140.4276  143.7030 LP  0  0  0  0  0  0  0  0  0  0  0  0  # atno 17320 bound_to 7965
  145.6544  139.1570  143.2843 LP  0  0  0  0  0  0  0  0  0  0  0  0  # atno 17321 bound_to 7965
  140.7775  143.3744  151.1589 LP  0  0  0  0  0  0  0  0  0  0  0  0  # atno 17342 bound_to 10162
  139.7374  143.8978  152.3039 LP  0  0  0  0  0  0  0  0  0  0  0  0  # atno 17343 bound_to 10162
  156.8909  130.5212  149.5286 LP  0  0  0  0  0  0  0  0  0  0  0  0  # atno 17370 bound_to 10713
  156.0722  130.5752  150.9405 LP  0  0  0  0  0  0  0  0  0  0  0  0  # atno 17371 bound_to 10713
  140.1267  134.9382  157.2280 LP  0  0  0  0  0  0  0  0  0  0  0  0  # atno 17394 bound_to 11000
  140.3004  134.3138  155.7291 LP  0  0  0  0  0  0  0  0  0  0  0  0  # atno 17395 bound_to 11000

$$$$
