AV-unprocessed.smi:1554|AV-procd|sdf|6257|dock3
  -GOLD-   22720 6443D 1   1.00000     0.00000
 Structure written by MMmdl.
 49 51  0  0  0  0  0  0  0  0  3 V2000
  152.3438  143.4449  160.3000 C   0  0  0  0  0  0  0  0  0  0  0  0
  152.0194  142.5455  159.1193 C   0  0  0  0  0  0  0  0  0  0  0  0
  151.1018  143.0093  158.1501 C   0  0  0  0  0  0  0  0  0  0  0  0
  150.8279  142.1650  157.0806 C   0  0  0  0  0  0  0  0  0  0  0  0
  149.9849  142.3296  155.9800 N   0  3  0  0  0  0  0  0  0  0  0  0
  150.0483  141.2229  155.1892 C   0  0  0  0  0  0  0  0  0  0  0  0
  150.9199  140.3526  155.7684 N   0  0  0  0  0  0  0  0  0  0  0  0
  151.3444  139.0167  155.3235 C   0  0  0  0  0  0  0  0  0  0  0  0
  150.1679  138.1404  154.8487 C   0  0  1  0  0  0  0  0  0  0  0  0
  149.7744  138.5339  153.5478 O   0  0  0  0  0  0  0  0  0  0  0  0
  150.5433  136.6451  154.8211 C   0  0  0  0  0  0  0  0  0  0  0  0
  149.3927  135.7712  154.4751 N   0  3  1  0  0  0  0  0  0  0  0  0
  149.7305  134.3304  154.5565 C   0  0  0  0  0  0  0  0  0  0  0  0
  148.5288  133.4717  154.1299 C   0  0  0  0  0  0  0  0  0  0  0  0
  147.4053  133.7885  154.9422 O   0  0  0  0  0  0  0  0  0  0  0  0
  147.0084  135.1487  154.8074 C   0  0  1  0  0  0  0  0  0  0  0  0
  145.7430  135.3640  155.6450 C   0  0  0  0  0  0  0  0  0  0  0  0
  148.1668  136.0589  155.2607 C   0  0  0  0  0  0  0  0  0  0  0  0
  151.4298  140.8977  156.9537 C   0  0  0  0  0  0  0  0  0  0  0  0
  152.3349  140.4253  157.9017 C   0  0  0  0  0  0  0  0  0  0  0  0
  152.6272  141.2691  158.9970 C   0  0  0  0  0  0  0  0  0  0  0  0
  153.6121  140.7801  160.0455 C   0  0  0  0  0  0  0  0  0  0  0  0
  151.8096  144.3935  160.2378 H   0  0  0  0  0  0  0  0  0  0  0  0
  153.4110  143.6657  160.3318 H   0  0  0  0  0  0  0  0  0  0  0  0
  152.0608  142.9640  161.2365 H   0  0  0  0  0  0  0  0  0  0  0  0
  150.6347  143.9796  158.2370 H   0  0  0  0  0  0  0  0  0  0  0  0
  149.5043  141.0652  154.2691 H   0  0  0  0  0  0  0  0  0  0  0  0
  152.1055  139.1174  154.5494 H   0  0  0  0  0  0  0  0  0  0  0  0
  151.8374  138.5422  156.1729 H   0  0  0  0  0  0  0  0  0  0  0  0
  149.3256  138.3074  155.5196 H   0  0  0  0  0  0  0  0  0  0  0  0
  149.7029  137.7627  153.0061 H   0  0  0  0  0  0  0  0  0  0  0  0
  151.3441  136.5034  154.0933 H   0  0  0  0  0  0  0  0  0  0  0  0
  150.9520  136.3340  155.7838 H   0  0  0  0  0  0  0  0  0  0  0  0
  150.5826  134.1109  153.9119 H   0  0  0  0  0  0  0  0  0  0  0  0
  150.0258  134.0807  155.5768 H   0  0  0  0  0  0  0  0  0  0  0  0
  148.2896  133.6297  153.0770 H   0  0  0  0  0  0  0  0  0  0  0  0
  148.7627  132.4135  154.2473 H   0  0  0  0  0  0  0  0  0  0  0  0
  146.7699  135.3506  153.7616 H   0  0  0  0  0  0  0  0  0  0  0  0
  145.3877  136.3916  155.5634 H   0  0  0  0  0  0  0  0  0  0  0  0
  145.9262  135.1556  156.6996 H   0  0  0  0  0  0  0  0  0  0  0  0
  144.9387  134.7079  155.3113 H   0  0  0  0  0  0  0  0  0  0  0  0
  148.3701  135.9064  156.3220 H   0  0  0  0  0  0  0  0  0  0  0  0
  147.8740  137.1011  155.1393 H   0  0  0  0  0  0  0  0  0  0  0  0
  152.8021  139.4564  157.8105 H   0  0  0  0  0  0  0  0  0  0  0  0
  153.9611  139.7707  159.8254 H   0  0  0  0  0  0  0  0  0  0  0  0
  153.1468  140.7625  161.0313 H   0  0  0  0  0  0  0  0  0  0  0  0
  154.4841  141.4333  160.0848 H   0  0  0  0  0  0  0  0  0  0  0  0
  149.1746  135.9560  153.5059 H   0  0  0  0  0  0  0  0  0  0  0  0
  149.4074  143.1368  155.7811 H   0  0  0  0  0  0  0  0  0  0  0  0
  1  2  1  0  0  0  0
  1 23  1  0  0  0  0
  1 24  1  0  0  0  0
  1 25  1  0  0  0  0
  2 21  1  0  0  0  0
  2  3  2  0  0  0  0
  3  4  1  0  0  0  0
  3 26  1  0  0  0  0
  4 19  2  0  0  0  0
  4  5  1  0  0  0  0
  5  6  2  0  0  0  0
  5 49  1  0  0  0  0
  6  7  1  0  0  0  0
  6 27  1  0  0  0  0
  7  8  1  0  0  0  0
  7 19  1  0  0  0  0
  8  9  1  0  0  0  0
  8 28  1  0  0  0  0
  8 29  1  0  0  0  0
  9 10  1  0  0  0  0
  9 11  1  0  0  0  0
  9 30  1  0  0  0  0
 10 31  1  0  0  0  0
 11 12  1  0  0  0  0
 11 32  1  0  0  0  0
 11 33  1  0  0  0  0
 12 18  1  0  0  0  0
 12 13  1  0  0  0  0
 12 48  1  0  0  0  0
 13 14  1  0  0  0  0
 13 34  1  0  0  0  0
 13 35  1  0  0  0  0
 14 15  1  0  0  0  0
 14 36  1  0  0  0  0
 14 37  1  0  0  0  0
 15 16  1  0  0  0  0
 16 17  1  0  0  0  0
 16 18  1  0  0  0  0
 16 38  1  0  0  0  0
 17 39  1  0  0  0  0
 17 40  1  0  0  0  0
 17 41  1  0  0  0  0
 18 42  1  0  0  0  0
 18 43  1  0  0  0  0
 19 20  1  0  0  0  0
 20 21  2  0  0  0  0
 20 44  1  0  0  0  0
 21 22  1  0  0  0  0
 22 45  1  0  0  0  0
 22 46  1  0  0  0  0
 22 47  1  0  0  0  0
M  CHG  1   5   1
M  CHG  1  12   1
M  END
> <s_m_source_file>
AV-unprocessed.smi

> <i_m_source_file_index>
1554

> <i_lp_mmshare_version>
43012

> <i_f3d_flags>
0

> <s_epik_input>
W0NIM11jKFtjSF0xKWMoW0NIM10pW2NIXWMoYzEyKW4oW2NIXW4yKVtDSDJdW0NASF0oW09IXSlbQ0gyXU4zW0NIMl1bQ0gyXU9bQ0BASF0oW0NIM10pW0NIMl0z

> <s_epik_cmdline>
J2VwaWtfcHl0aG9uJywgJy1waCcsICc3LjAnLCAnLXRuJywgJzgnLCAnLW1hJywgJzIwMCcsICctbWV0YWxfYmluZGluZycsICctaW1hZScsICc8aW5maWxlLm1hZT4nLCAnLW9tYWUnLCAnPG91dGZpbGUubWFlPic=

> <r_epik_Ionization_Penalty>
1.8848

> <r_epik_Ionization_Penalty_Charging>
1.88479

> <r_epik_Ionization_Penalty_Neutral>
1.42224e-05

> <r_epik_State_Penalty>
1.94551

> <r_epik_Charging_Adjusted_Penalty>
3.8303

> <i_epik_Tot_Q>
2

> <i_epik_Tot_abs_Q>
2

> <r_epik_Metal_State_Penalty>
5.95849

> <b_epik_Metal_Only>
0

> <s_lp_Force_Field>
OPLS_2005

> <r_lp_Energy>
30.3036

> <b_lp_Chiralities_Consistent>
1

> <s_lp_Variant>
AV-unprocessed.smi:1554-18

> <Gold.Version>
5.8.1

> <Gold.Id.Protein>
6NUR|6NUR_protein|mol2

> <Gold.PLP.Fitness>
55.7510

> <Gold.PLP.PLP>
-41.4776

> <Gold.PLP.part.hbond>
-4.0200

> <Gold.PLP.part.metal>
0.0000

> <Gold.PLP.part.buried>
-3.7198

> <Gold.PLP.part.nonpolar>
-33.6935

> <Gold.PLP.part.repulsive>
0.2012

> <Gold.PLP.ligand.clash>
0.0000

> <Gold.PLP.ligand.torsion>
0.3901

> <Gold.PLP.Chemscore.Hbond>
5.0000

> <Gold.PLP.Chemscore.CHOScore>
0.0000

> <Gold.PLP.Chemscore.Metal>
0.0000

> <Gold.Chemscore.Hbonds>
donor molecule, donor type, donor heavy atom, donor atom, acceptor molecule, acceptor atom, score
      L1  H     5    49       P1  8028  2.00
      L1  H    10    31       P1  7948  1.00
      L1  H    12    48       P1  7948  2.00

> <Gold.PLP.Chemscore.Internal.Correction>
0.0535

> <Gold.Rescore>
     Score         DG    S(hbond)    S(metal)    S(lipo)     H(rot)  DE(clash)    DE(int)     intcor
     21.49     -21.85       2.94        0.00     102.29       2.11       0.12       0.24       ----

> <Gold.Chemscore.Fitness>
21.4870

> <Gold.Chemscore.DG>
-21.8478

> <Gold.Chemscore.ZeroCoef>
-5.4800

> <Gold.Chemscore.Hbond>
2.9362

> <Gold.Chemscore.Metal>
0.0000

> <Gold.Chemscore.Lipo>
102.2923

> <Gold.Chemscore.Internal_Hbond>
0.0000

> <Gold.Chemscore.DEClash>
0.1181

> <Gold.Chemscore.DEInternal>
0.2426

> <Gold.Chemscore.Rot>
2.1122

> <Gold.Chemscore.Internal.Correction>
   9.000000E+99

> <Gold.Chemscore.Hbonds>
donor molecule, donor type, donor heavy atom, donor atom, acceptor molecule, acceptor atom, score
      L1  H     5    49       P1  8028  1.00
      L1  H    10    31       P1  7948  0.62
      L1  H    12    48       P1  7948  0.82

> <Gold.Chemscore.Hbond.Weighted>
-9.8068

> <Gold.Chemscore.Metal.Weighted>
-0.0000

> <Gold.Chemscore.Lipo.Weighted>
-11.9682

> <Gold.Chemscore.Internal_Hbond.Weighted>
0.0000

> <Gold.Chemscore.DEClash.Weighted>
0.1181

> <Gold.Chemscore.DEInternal.Weighted>
0.2426

> <Gold.Chemscore.Rot.Weighted>
5.4073

> <Gold.Chemscore.Internal.Correction.Weighted>
   9.000000E+99

> <Gold.Protein.RotatedTorsions>
[ 6907 6896 6895 6894 ] final   97.67 input  -60.11 | X-H torsion
[ 7974 7965 7964 7962 ] final  -49.08 input  175.53 | X-H torsion
[ 8008 7997 7996 7995 ] final   22.51 input   59.86 | X-H torsion
[ 10167 10162 10161 10158 ] final    2.39 input  -65.29 | X-H torsion
[ 10718 10713 10712 10709 ] final  -60.10 input   66.30 | X-H torsion
[ 10763 10752 10751 10750 ] final   43.09 input  -60.55 | X-H torsion
[ 11005 11000 10999 10996 ] final   14.47 input  -57.11 | X-H torsion

> <Gold.Protein.ActiveResidues>
 VAL166  LYS551  ARG553  GLY616  TRP617  ASP618  TYR619  PRO620  LYS621  CYS622 
 ASP623  PHE694  ASN695  SER759  ASP760  ASP761  ALA762  ILE779  LEU786  VAL792 
 PHE793  MET794  SER795  GLU796  ALA797  LYS798  CYS799  TRP800  GLU811  SER814 

> <Gold.Protein.RotatedAtoms>
  152.5420  134.0698  159.8188 H   0  0  0  0  0  0  0  0  0  0  0  0  # atno 6907 bound_to 6896
  151.0814  133.5379  159.2627 H   0  0  0  0  0  0  0  0  0  0  0  0  # atno 6908 bound_to 6896
  151.2205  135.0525  159.9002 H   0  0  0  0  0  0  0  0  0  0  0  0  # atno 6909 bound_to 6896
  145.9444  140.7632  142.9536 H   0  0  0  0  0  0  0  0  0  0  0  0  # atno 7974 bound_to 7965
  154.9668  140.3085  155.5006 H   0  0  0  0  0  0  0  0  0  0  0  0  # atno 8008 bound_to 7997
  156.2970  140.2291  156.4696 H   0  0  0  0  0  0  0  0  0  0  0  0  # atno 8009 bound_to 7997
  154.7914  140.0439  157.1192 H   0  0  0  0  0  0  0  0  0  0  0  0  # atno 8010 bound_to 7997
  140.6637  143.7236  150.7787 H   0  0  0  0  0  0  0  0  0  0  0  0  # atno 10167 bound_to 10162
  156.1014  130.4186  150.0807 H   0  0  0  0  0  0  0  0  0  0  0  0  # atno 10718 bound_to 10713
  152.9868  135.6112  154.3054 H   0  0  0  0  0  0  0  0  0  0  0  0  # atno 10763 bound_to 10752
  154.2773  135.2778  155.2714 H   0  0  0  0  0  0  0  0  0  0  0  0  # atno 10764 bound_to 10752
  154.5069  135.5851  153.6631 H   0  0  0  0  0  0  0  0  0  0  0  0  # atno 10765 bound_to 10752
  140.4691  134.1049  155.7729 H   0  0  0  0  0  0  0  0  0  0  0  0  # atno 11005 bound_to 11000
  144.6784  140.2332  143.7353 LP  0  0  0  0  0  0  0  0  0  0  0  0  # atno 17320 bound_to 7965
  145.8256  139.2063  143.1912 LP  0  0  0  0  0  0  0  0  0  0  0  0  # atno 17321 bound_to 7965
  140.0909  143.4878  152.2479 LP  0  0  0  0  0  0  0  0  0  0  0  0  # atno 17342 bound_to 10162
  139.5879  144.7538  151.3474 LP  0  0  0  0  0  0  0  0  0  0  0  0  # atno 17343 bound_to 10162
  156.8793  130.9551  151.3601 LP  0  0  0  0  0  0  0  0  0  0  0  0  # atno 17370 bound_to 10713
  157.6185  130.8637  149.9068 LP  0  0  0  0  0  0  0  0  0  0  0  0  # atno 17371 bound_to 10713
  141.1585  133.8837  157.1912 LP  0  0  0  0  0  0  0  0  0  0  0  0  # atno 17394 bound_to 11000
  139.9896  135.0069  156.9944 LP  0  0  0  0  0  0  0  0  0  0  0  0  # atno 17395 bound_to 11000

$$$$
