AV-unprocessed.smi:255|AV-procd|sdf|1955|dock4
  -GOLD-   2262021 93D 1   1.00000     0.00000
 Structure written by MMmdl.
 44 47  0  0  0  0  0  0  0  0  1 V2000
  148.2143  137.0322  162.6900 O   0  0  0  0  0  0  0  0  0  0  0  0
  147.0152  136.8527  161.9663 C   0  0  0  0  0  0  0  0  0  0  0  0
  146.9881  135.4642  161.2996 C   0  0  2  0  0  0  0  0  0  0  0  0
  147.3303  134.3288  162.2639 C   0  0  0  0  0  0  0  0  0  0  0  0
  147.7120  133.1944  161.3156 C   0  0  1  0  0  0  0  0  0  0  0  0
  146.6128  132.5406  160.9376 F   0  0  0  0  0  0  0  0  0  0  0  0
  148.3151  133.9102  160.0992 C   0  0  0  0  0  0  0  0  0  0  0  0
  147.9888  135.3254  160.2459 N   0  0  0  0  0  0  0  0  0  0  0  0
  147.7292  135.9636  159.0837 C   0  0  0  0  0  0  0  0  0  0  0  0
  146.7316  135.5266  158.2706 N   0  0  0  0  0  0  0  0  0  0  0  0
  146.4768  136.1681  157.1261 C   0  0  0  0  0  0  0  0  0  0  0  0
  147.0882  137.2394  156.6147 N   0  0  0  0  0  0  0  0  0  0  0  0
  148.0938  137.6730  157.4287 C   0  0  0  0  0  0  0  0  0  0  0  0
  148.4763  137.0967  158.6716 C   0  0  0  0  0  0  0  0  0  0  0  0
  149.5337  137.8073  159.2241 N   0  0  0  0  0  0  0  0  0  0  0  0
  149.7643  138.7534  158.3545 C   0  0  0  0  0  0  0  0  0  0  0  0
  148.9517  138.7430  157.2420 N   0  0  0  0  0  0  0  0  0  0  0  0
  148.9880  139.6773  156.1270 C   0  0  0  0  0  0  0  0  0  0  0  0
  150.3212  139.6569  155.3424 C   0  0  2  0  0  0  0  0  0  0  0  0
  150.1374  140.3266  154.1066 O   0  0  0  0  0  0  0  0  0  0  0  0
  150.8159  138.2457  155.0524 C   0  0  0  0  0  0  0  0  0  0  0  0
  152.3258  138.4275  154.9787 C   0  0  0  0  0  0  0  0  0  0  0  0
  152.5848  139.3556  156.0181 O   0  0  0  0  0  0  0  0  0  0  0  0
  151.5180  140.2985  156.0755 C   0  0  0  0  0  0  0  0  0  0  0  0
  145.9914  135.2683  160.8997 H   0  0  0  0  0  0  0  0  0  0  0  0
  148.3877  132.4665  161.7657 H   0  0  0  0  0  0  0  0  0  0  0  0
  148.0978  136.6774  163.5581 H   0  0  0  0  0  0  0  0  0  0  0  0
  146.1510  137.0053  162.6142 H   0  0  0  0  0  0  0  0  0  0  0  0
  146.9848  137.6318  161.2042 H   0  0  0  0  0  0  0  0  0  0  0  0
  148.1907  134.6012  162.8771 H   0  0  0  0  0  0  0  0  0  0  0  0
  146.5072  134.0712  162.9314 H   0  0  0  0  0  0  0  0  0  0  0  0
  149.4009  133.8122  160.1051 H   0  0  0  0  0  0  0  0  0  0  0  0
  147.9526  133.4833  159.1625 H   0  0  0  0  0  0  0  0  0  0  0  0
  145.6667  135.7656  156.5358 H   0  0  0  0  0  0  0  0  0  0  0  0
  150.5419  139.4890  158.5000 H   0  0  0  0  0  0  0  0  0  0  0  0
  148.1583  139.4425  155.4594 H   0  0  0  0  0  0  0  0  0  0  0  0
  148.7926  140.6782  156.5141 H   0  0  0  0  0  0  0  0  0  0  0  0
  149.7149  139.7330  153.5047 H   0  0  0  0  0  0  0  0  0  0  0  0
  150.5803  137.5830  155.8862 H   0  0  0  0  0  0  0  0  0  0  0  0
  150.3906  137.8067  154.1492 H   0  0  0  0  0  0  0  0  0  0  0  0
  152.8724  137.4958  155.1256 H   0  0  0  0  0  0  0  0  0  0  0  0
  152.6234  138.8561  154.0206 H   0  0  0  0  0  0  0  0  0  0  0  0
  151.8242  141.2427  155.6222 H   0  0  0  0  0  0  0  0  0  0  0  0
  151.3038  140.4956  157.1252 H   0  0  0  0  0  0  0  0  0  0  0  0
  1  2  1  0  0  0  0
  1 27  1  0  0  0  0
  2  3  1  0  0  0  0
  2 28  1  0  0  0  0
  2 29  1  0  0  0  0
  3 25  1  0  0  0  0
  3  8  1  0  0  0  0
  3  4  1  0  0  0  0
  4  5  1  0  0  0  0
  4 30  1  0  0  0  0
  4 31  1  0  0  0  0
  5 26  1  0  0  0  0
  5  6  1  0  0  0  0
  5  7  1  0  0  0  0
  7  8  1  0  0  0  0
  7 32  1  0  0  0  0
  7 33  1  0  0  0  0
  8  9  1  0  0  0  0
  9 14  1  0  0  0  0
  9 10  2  0  0  0  0
 10 11  1  0  0  0  0
 11 12  2  0  0  0  0
 11 34  1  0  0  0  0
 12 13  1  0  0  0  0
 13 17  1  0  0  0  0
 13 14  2  0  0  0  0
 14 15  1  0  0  0  0
 15 16  2  0  0  0  0
 16 17  1  0  0  0  0
 16 35  1  0  0  0  0
 17 18  1  0  0  0  0
 18 19  1  0  0  0  0
 18 36  1  0  0  0  0
 18 37  1  0  0  0  0
 19 24  1  0  0  0  0
 19 20  1  0  0  0  0
 19 21  1  0  0  0  0
 20 38  1  0  0  0  0
 21 22  1  0  0  0  0
 21 39  1  0  0  0  0
 21 40  1  0  0  0  0
 22 23  1  0  0  0  0
 22 41  1  0  0  0  0
 22 42  1  0  0  0  0
 23 24  1  0  0  0  0
 24 43  1  0  0  0  0
 24 44  1  0  0  0  0
M  END
> <s_m_source_file>
AV-unprocessed.smi

> <i_m_source_file_index>
255

> <i_lp_mmshare_version>
43012

> <i_f3d_flags>
0

> <s_epik_input>
W09IXVtDSDJdW0NAQEhdMVtDSDJdW0NASF0oRilbQ0gyXU4xYyhuW2NIXW4yKWMoYzIzKW5bY0hdbjNbQ0gyXVtDQEBdNChbT0hdKVtDSDJdW0NIMl1PW0NIMl00

> <s_epik_cmdline>
J2VwaWtfcHl0aG9uJywgJy1waCcsICc3LjAnLCAnLXRuJywgJzgnLCAnLW1hJywgJzIwMCcsICctbWV0YWxfYmluZGluZycsICctaW1hZScsICc8aW5maWxlLm1hZT4nLCAnLW9tYWUnLCAnPG91dGZpbGUubWFlPic=

> <r_lp_tautomer_probability>
1

> <r_epik_Ionization_Penalty>
0.0058098

> <r_epik_Ionization_Penalty_Charging>
0

> <r_epik_Ionization_Penalty_Neutral>
0.0058098

> <r_epik_State_Penalty>
0.00411166

> <r_epik_Charging_Adjusted_Penalty>
0.00411166

> <i_epik_Tot_Q>
0

> <i_epik_Tot_abs_Q>
0

> <r_epik_Metal_State_Penalty>
-0

> <b_epik_Metal_Only>
0

> <s_lp_Force_Field>
OPLS_2005

> <r_lp_Energy>
53.8685

> <b_lp_Chiralities_Consistent>
1

> <s_lp_Variant>
AV-unprocessed.smi:255-7

> <Gold.Version>
5.8.1

> <Gold.Id.Protein>
6NUR|6NUR_protein|mol2

> <Gold.PLP.Fitness>
42.4071

> <Gold.PLP.PLP>
-34.0970

> <Gold.PLP.part.hbond>
-4.5376

> <Gold.PLP.part.metal>
0.0000

> <Gold.PLP.part.buried>
-4.9309

> <Gold.PLP.part.nonpolar>
-23.7433

> <Gold.PLP.part.repulsive>
0.0000

> <Gold.PLP.ligand.clash>
0.0000

> <Gold.PLP.ligand.torsion>
0.2881

> <Gold.PLP.Chemscore.Hbond>
2.9277

> <Gold.PLP.Chemscore.CHOScore>
0.0000

> <Gold.PLP.Chemscore.Metal>
0.0000

> <Gold.Chemscore.Hbonds>
donor molecule, donor type, donor heavy atom, donor atom, acceptor molecule, acceptor atom, score
      L1  H    20    38       P1  7957  0.08
      P1  H  6931  6943       L1     1  0.93
      P1  H  7989  7998       L1    20  0.88
      P1  H  7997  8008       L1    23  1.00

> <Gold.PLP.Chemscore.Internal.Correction>
0.1032

> <Gold.Rescore>
     Score         DG    S(hbond)    S(metal)    S(lipo)     H(rot)  DE(clash)    DE(int)     intcor
     13.33     -13.65       2.69        0.00      65.98       3.33       0.00       0.32       ----

> <Gold.Chemscore.Fitness>
13.3268

> <Gold.Chemscore.DG>
-13.6496

> <Gold.Chemscore.ZeroCoef>
-5.4800

> <Gold.Chemscore.Hbond>
2.6851

> <Gold.Chemscore.Metal>
0.0000

> <Gold.Chemscore.Lipo>
65.9780

> <Gold.Chemscore.Internal_Hbond>
0.0000

> <Gold.Chemscore.DEClash>
0.0000

> <Gold.Chemscore.DEInternal>
0.3228

> <Gold.Chemscore.Rot>
3.3273

> <Gold.Chemscore.Internal.Correction>
   9.000000E+99

> <Gold.Chemscore.Hbonds>
donor molecule, donor type, donor heavy atom, donor atom, acceptor molecule, acceptor atom, score
      L1  H    20    38       P1  7957  0.09
      P1  H  6931  6943       L1     1  0.54
      P1  H  7989  7998       L1    20  0.56
      P1  H  7997  8008       L1    23  0.79

> <Gold.Chemscore.Hbond.Weighted>
-8.9681

> <Gold.Chemscore.Metal.Weighted>
-0.0000

> <Gold.Chemscore.Lipo.Weighted>
-7.7194

> <Gold.Chemscore.Internal_Hbond.Weighted>
0.0000

> <Gold.Chemscore.DEClash.Weighted>
0.0000

> <Gold.Chemscore.DEInternal.Weighted>
0.3228

> <Gold.Chemscore.Rot.Weighted>
8.5179

> <Gold.Chemscore.Internal.Correction.Weighted>
   9.000000E+99

> <Gold.Protein.RotatedTorsions>
[ 6907 6896 6895 6894 ] final   13.14 input  -60.11 | X-H torsion
[ 7974 7965 7964 7962 ] final  108.60 input  175.53 | X-H torsion
[ 8008 7997 7996 7995 ] final  -22.94 input   59.86 | X-H torsion
[ 10167 10162 10161 10158 ] final  -54.11 input  -65.29 | X-H torsion
[ 10718 10713 10712 10709 ] final   21.38 input   66.30 | X-H torsion
[ 10763 10752 10751 10750 ] final  116.91 input  -60.55 | X-H torsion
[ 11005 11000 10999 10996 ] final  -76.40 input  -57.11 | X-H torsion

> <Gold.Protein.ActiveResidues>
 VAL166  LYS551  ARG553  GLY616  TRP617  ASP618  TYR619  PRO620  LYS621  CYS622 
 ASP623  PHE694  ASN695  SER759  ASP760  ASP761  ALA762  ILE779  LEU786  VAL792 
 PHE793  MET794  SER795  GLU796  ALA797  LYS798  CYS799  TRP800  GLU811  SER814 

> <Gold.Protein.RotatedAtoms>
  151.7816  135.0760  160.0374 H   0  0  0  0  0  0  0  0  0  0  0  0  # atno 6907 bound_to 6896
  152.3219  133.5859  159.5759 H   0  0  0  0  0  0  0  0  0  0  0  0  # atno 6908 bound_to 6896
  150.7374  133.9914  159.3650 H   0  0  0  0  0  0  0  0  0  0  0  0  # atno 6909 bound_to 6896
  145.2785  139.2641  143.3928 H   0  0  0  0  0  0  0  0  0  0  0  0  # atno 7974 bound_to 7965
  154.4614  140.1994  156.0234 H   0  0  0  0  0  0  0  0  0  0  0  0  # atno 8008 bound_to 7997
  156.0847  140.3266  155.7710 H   0  0  0  0  0  0  0  0  0  0  0  0  # atno 8009 bound_to 7997
  155.5054  140.0557  157.2923 H   0  0  0  0  0  0  0  0  0  0  0  0  # atno 8010 bound_to 7997
  140.6449  143.2529  151.4888 H   0  0  0  0  0  0  0  0  0  0  0  0  # atno 10167 bound_to 10162
  157.1377  130.6618  149.5971 H   0  0  0  0  0  0  0  0  0  0  0  0  # atno 10718 bound_to 10713
  153.5443  135.3552  155.2732 H   0  0  0  0  0  0  0  0  0  0  0  0  # atno 10763 bound_to 10752
  154.8714  135.4098  154.3008 H   0  0  0  0  0  0  0  0  0  0  0  0  # atno 10764 bound_to 10752
  153.3722  135.7064  153.6697 H   0  0  0  0  0  0  0  0  0  0  0  0  # atno 10765 bound_to 10752
  141.1653  133.6982  156.7664 H   0  0  0  0  0  0  0  0  0  0  0  0  # atno 11005 bound_to 11000
  146.3224  140.3247  142.8636 LP  0  0  0  0  0  0  0  0  0  0  0  0  # atno 17320 bound_to 7965
  144.9273  140.7936  143.5711 LP  0  0  0  0  0  0  0  0  0  0  0  0  # atno 17321 bound_to 7965
  139.5659  144.2044  152.1763 LP  0  0  0  0  0  0  0  0  0  0  0  0  # atno 17342 bound_to 10162
  140.1326  144.5275  150.6793 LP  0  0  0  0  0  0  0  0  0  0  0  0  # atno 17343 bound_to 10162
  155.9795  130.4789  150.6718 LP  0  0  0  0  0  0  0  0  0  0  0  0  # atno 17370 bound_to 10713
  157.4335  131.0852  151.1014 LP  0  0  0  0  0  0  0  0  0  0  0  0  # atno 17371 bound_to 10713
  140.2496  134.8550  157.3654 LP  0  0  0  0  0  0  0  0  0  0  0  0  # atno 17394 bound_to 11000
  140.1715  134.4602  155.7828 LP  0  0  0  0  0  0  0  0  0  0  0  0  # atno 17395 bound_to 11000

$$$$
