AV-unprocessed.smi:1401|AV-procd|sdf|5695|dock6
  -GOLD-   22720 5323D 1   1.00000     0.00000
 Structure written by MMmdl.
 48 50  0  0  0  0  0  0  0  0  1 V2000
  145.7368  141.5827  158.4528 C   0  0  0  0  0  0  0  0  0  0  0  0
  146.2481  141.7137  157.0435 C   0  0  0  0  0  0  0  0  0  0  0  0
  147.2647  140.9819  156.7249 N   0  0  0  0  0  0  0  0  0  0  0  0
  147.8191  141.0327  155.4607 N   0  0  0  0  0  0  0  0  0  0  0  0
  148.9949  140.1682  155.2829 C   0  0  0  0  0  0  0  0  0  0  0  0
  150.2111  140.6774  156.0671 C   0  0  0  0  0  0  0  0  0  0  0  0
  151.2858  140.8589  155.4939 O   0  0  0  0  0  0  0  0  0  0  0  0
  150.0207  140.8996  157.3770 N   0  0  0  0  0  0  0  0  0  0  0  0
  151.0448  141.3020  158.3395 C   0  0  1  0  0  0  0  0  0  0  0  0
  152.2328  140.3344  158.2287 C   0  0  0  0  0  0  0  0  0  0  0  0
  151.4537  142.7733  158.0770 C   0  0  1  0  0  0  0  0  0  0  0  0
  150.4468  143.8385  158.5732 C   0  0  0  0  0  0  0  0  0  0  0  0
  151.3382  144.8263  159.3475 C   0  0  1  0  0  0  0  0  0  0  0  0
  151.7467  144.1867  160.6867 C   0  0  0  0  0  0  0  0  0  0  0  0
  152.7652  143.1173  160.2522 C   0  0  0  0  0  0  0  0  0  0  0  0
  152.7785  143.2594  158.7160 C   0  0  2  0  0  0  0  0  0  0  0  0
  152.6421  144.7708  158.5603 C   0  0  0  0  0  0  0  0  0  0  0  0
  147.3601  141.8166  154.4420 C   0  0  0  0  0  0  0  0  0  0  0  0
  147.8789  141.8219  153.3241 O   0  0  0  0  0  0  0  0  0  0  0  0
  146.2089  142.6429  154.8105 C   0  0  0  0  0  0  0  0  0  0  0  0
  145.7075  143.4907  153.7777 C   0  0  0  0  0  0  0  0  0  0  0  0
  145.2984  144.1938  152.9541 N   0  0  0  0  0  0  0  0  0  0  0  0
  145.6605  142.6077  156.0505 C   0  0  0  0  0  0  0  0  0  0  0  0
  144.4676  143.4491  156.4826 C   0  0  0  0  0  0  0  0  0  0  0  0
  144.7316  141.1611  158.4611 H   0  0  0  0  0  0  0  0  0  0  0  0
  145.7012  142.5546  158.9451 H   0  0  0  0  0  0  0  0  0  0  0  0
  146.3725  140.9339  159.0569 H   0  0  0  0  0  0  0  0  0  0  0  0
  148.7783  139.1522  155.6180 H   0  0  0  0  0  0  0  0  0  0  0  0
  149.2359  140.0831  154.2214 H   0  0  0  0  0  0  0  0  0  0  0  0
  149.0978  140.7290  157.7494 H   0  0  0  0  0  0  0  0  0  0  0  0
  150.6426  141.2133  159.3487 H   0  0  0  0  0  0  0  0  0  0  0  0
  152.9954  140.5551  158.9756 H   0  0  0  0  0  0  0  0  0  0  0  0
  152.7023  140.3907  157.2460 H   0  0  0  0  0  0  0  0  0  0  0  0
  151.9142  139.3037  158.3879 H   0  0  0  0  0  0  0  0  0  0  0  0
  151.5560  142.8943  156.9967 H   0  0  0  0  0  0  0  0  0  0  0  0
  149.9584  144.3262  157.7287 H   0  0  0  0  0  0  0  0  0  0  0  0
  149.6644  143.4287  159.2125 H   0  0  0  0  0  0  0  0  0  0  0  0
  150.9019  145.8200  159.4526 H   0  0  0  0  0  0  0  0  0  0  0  0
  152.2169  144.9204  161.3425 H   0  0  0  0  0  0  0  0  0  0  0  0
  150.8960  143.7593  161.2188 H   0  0  0  0  0  0  0  0  0  0  0  0
  153.7494  143.3481  160.6616 H   0  0  0  0  0  0  0  0  0  0  0  0
  152.5019  142.1175  160.5947 H   0  0  0  0  0  0  0  0  0  0  0  0
  153.6694  142.8402  158.2477 H   0  0  0  0  0  0  0  0  0  0  0  0
  152.5354  145.0945  157.5233 H   0  0  0  0  0  0  0  0  0  0  0  0
  153.4540  145.3310  159.0277 H   0  0  0  0  0  0  0  0  0  0  0  0
  144.0235  143.9931  155.6495 H   0  0  0  0  0  0  0  0  0  0  0  0
  144.7727  144.1815  157.2309 H   0  0  0  0  0  0  0  0  0  0  0  0
  143.6857  142.8220  156.9123 H   0  0  0  0  0  0  0  0  0  0  0  0
  1  2  1  0  0  0  0
  1 25  1  0  0  0  0
  1 26  1  0  0  0  0
  1 27  1  0  0  0  0
  2 23  1  0  0  0  0
  2  3  2  0  0  0  0
  3  4  1  0  0  0  0
  4  5  1  0  0  0  0
  4 18  1  0  0  0  0
  5  6  1  0  0  0  0
  5 28  1  0  0  0  0
  5 29  1  0  0  0  0
  6  7  2  0  0  0  0
  6  8  1  0  0  0  0
  8  9  1  0  0  0  0
  8 30  1  0  0  0  0
  9 10  1  0  0  0  0
  9 11  1  0  0  0  0
  9 31  1  0  0  0  0
 10 32  1  0  0  0  0
 10 33  1  0  0  0  0
 10 34  1  0  0  0  0
 11 16  1  0  0  0  0
 11 12  1  0  0  0  0
 11 35  1  0  0  0  0
 12 13  1  0  0  0  0
 12 36  1  0  0  0  0
 12 37  1  0  0  0  0
 13 17  1  0  0  0  0
 13 14  1  0  0  0  0
 13 38  1  0  0  0  0
 14 15  1  0  0  0  0
 14 39  1  0  0  0  0
 14 40  1  0  0  0  0
 15 16  1  0  0  0  0
 15 41  1  0  0  0  0
 15 42  1  0  0  0  0
 16 17  1  0  0  0  0
 16 43  1  0  0  0  0
 17 44  1  0  0  0  0
 17 45  1  0  0  0  0
 18 19  2  0  0  0  0
 18 20  1  0  0  0  0
 20 21  1  0  0  0  0
 20 23  2  0  0  0  0
 21 22  3  0  0  0  0
 23 24  1  0  0  0  0
 24 46  1  0  0  0  0
 24 47  1  0  0  0  0
 24 48  1  0  0  0  0
M  END
> <s_m_source_file>
AV-unprocessed.smi

> <i_m_source_file_index>
1401

> <i_lp_mmshare_version>
43012

> <i_f3d_flags>
0

> <s_epik_input>
TiNDYyhjMVtDSDNdKWMoPU8pbihuYzFbQ0gzXSlbQ0gyXUMoPU8pW05IXVtDQEhdKFtDSDNdKVtDQEhdKFtDSDJdW0NASF0yMylbQ0BIXShbQ0gyXTMpW0NIMl1bQ0gyXTI=

> <s_epik_cmdline>
J2VwaWtfcHl0aG9uJywgJy1waCcsICc3LjAnLCAnLXRuJywgJzgnLCAnLW1hJywgJzIwMCcsICctbWV0YWxfYmluZGluZycsICctaW1hZScsICc8aW5maWxlLm1hZT4nLCAnLW9tYWUnLCAnPG91dGZpbGUubWFlPic=

> <r_lp_tautomer_probability>
1

> <r_epik_Ionization_Penalty>
2.16501e-08

> <r_epik_Ionization_Penalty_Charging>
2.29436e-11

> <r_epik_Ionization_Penalty_Neutral>
2.16271e-08

> <r_epik_State_Penalty>
-0

> <r_epik_Charging_Adjusted_Penalty>
2.29436e-11

> <i_epik_Tot_Q>
0

> <i_epik_Tot_abs_Q>
0

> <r_epik_Metal_State_Penalty>
-0

> <b_epik_Metal_Only>
0

> <s_lp_Force_Field>
OPLS_2005

> <r_lp_Energy>
66.0828

> <b_lp_Chiralities_Consistent>
1

> <s_lp_Variant>
AV-unprocessed.smi:1401-8

> <Gold.Version>
5.8.1

> <Gold.Id.Protein>
6NUR|6NUR_protein|mol2

> <Gold.PLP.Fitness>
47.0379

> <Gold.PLP.PLP>
-44.3323

> <Gold.PLP.part.hbond>
-2.6001

> <Gold.PLP.part.metal>
0.0000

> <Gold.PLP.part.buried>
-2.6449

> <Gold.PLP.part.nonpolar>
-38.9927

> <Gold.PLP.part.repulsive>
0.7550

> <Gold.PLP.ligand.clash>
0.0000

> <Gold.PLP.ligand.torsion>
0.5084

> <Gold.PLP.Chemscore.Hbond>
1.2382

> <Gold.PLP.Chemscore.CHOScore>
0.0000

> <Gold.PLP.Chemscore.Metal>
0.0000

> <Gold.Chemscore.Hbonds>
donor molecule, donor type, donor heavy atom, donor atom, acceptor molecule, acceptor atom, score
      P1  H  7989  7998       L1     7  0.70
      P1  H  8011  8017       L1    19  0.24

> <Gold.PLP.Chemscore.Internal.Correction>
0.0077

> <Gold.Rescore>
     Score         DG    S(hbond)    S(metal)    S(lipo)     H(rot)  DE(clash)    DE(int)     intcor
     14.68     -17.97       1.03        0.00     113.00       1.63       1.44       1.86       ----

> <Gold.Chemscore.Fitness>
14.6760

> <Gold.Chemscore.DG>
-17.9749

> <Gold.Chemscore.ZeroCoef>
-5.4800

> <Gold.Chemscore.Hbond>
1.0306

> <Gold.Chemscore.Metal>
0.0000

> <Gold.Chemscore.Lipo>
112.9970

> <Gold.Chemscore.Internal_Hbond>
0.0000

> <Gold.Chemscore.DEClash>
1.4382

> <Gold.Chemscore.DEInternal>
1.8607

> <Gold.Chemscore.Rot>
1.6281

> <Gold.Chemscore.Internal.Correction>
   9.000000E+99

> <Gold.Chemscore.Hbonds>
donor molecule, donor type, donor heavy atom, donor atom, acceptor molecule, acceptor atom, score
      P1  H  7989  7998       L1     7  0.67
      P1  H  8011  8017       L1    19  0.25

> <Gold.Chemscore.Hbond.Weighted>
-3.4421

> <Gold.Chemscore.Metal.Weighted>
-0.0000

> <Gold.Chemscore.Lipo.Weighted>
-13.2206

> <Gold.Chemscore.Internal_Hbond.Weighted>
0.0000

> <Gold.Chemscore.DEClash.Weighted>
1.4382

> <Gold.Chemscore.DEInternal.Weighted>
1.8607

> <Gold.Chemscore.Rot.Weighted>
4.1678

> <Gold.Chemscore.Internal.Correction.Weighted>
   9.000000E+99

> <Gold.Protein.RotatedTorsions>
[ 6907 6896 6895 6894 ] final -164.61 input  -60.11 | X-H torsion
[ 7974 7965 7964 7962 ] final  -79.93 input  175.53 | X-H torsion
[ 8008 7997 7996 7995 ] final -156.05 input   59.86 | X-H torsion
[ 10167 10162 10161 10158 ] final  112.84 input  -65.29 | X-H torsion
[ 10718 10713 10712 10709 ] final  -96.11 input   66.30 | X-H torsion
[ 10763 10752 10751 10750 ] final   98.40 input  -60.55 | X-H torsion
[ 11005 11000 10999 10996 ] final   -6.54 input  -57.11 | X-H torsion

> <Gold.Protein.ActiveResidues>
 VAL166  LYS551  ARG553  GLY616  TRP617  ASP618  TYR619  PRO620  LYS621  CYS622 
 ASP623  PHE694  ASN695  SER759  ASP760  ASP761  ALA762  ILE779  LEU786  VAL792 
 PHE793  MET794  SER795  GLU796  ALA797  LYS798  CYS799  TRP800  GLU811  SER814 

> <Gold.Protein.RotatedAtoms>
  151.4146  133.3716  159.2748 H   0  0  0  0  0  0  0  0  0  0  0  0  # atno 6907 bound_to 6896
  150.9338  134.8753  159.7579 H   0  0  0  0  0  0  0  0  0  0  0  0  # atno 6908 bound_to 6896
  152.5040  134.4093  159.9495 H   0  0  0  0  0  0  0  0  0  0  0  0  # atno 6909 bound_to 6896
  145.5667  140.9473  143.1417 H   0  0  0  0  0  0  0  0  0  0  0  0  # atno 7974 bound_to 7965
  155.7112  140.0778  157.2370 H   0  0  0  0  0  0  0  0  0  0  0  0  # atno 8008 bound_to 7997
  154.4058  140.1629  156.2352 H   0  0  0  0  0  0  0  0  0  0  0  0  # atno 8009 bound_to 7997
  155.9281  140.3393  155.6229 H   0  0  0  0  0  0  0  0  0  0  0  0  # atno 8010 bound_to 7997
  139.6506  144.7128  151.2056 H   0  0  0  0  0  0  0  0  0  0  0  0  # atno 10167 bound_to 10162
  156.0056  130.5137  150.6176 H   0  0  0  0  0  0  0  0  0  0  0  0  # atno 10718 bound_to 10713
  153.2886  135.4149  155.1146 H   0  0  0  0  0  0  0  0  0  0  0  0  # atno 10763 bound_to 10752
  154.8513  135.3513  154.6012 H   0  0  0  0  0  0  0  0  0  0  0  0  # atno 10764 bound_to 10752
  153.6434  135.7056  153.5291 H   0  0  0  0  0  0  0  0  0  0  0  0  # atno 10765 bound_to 10752
  140.7031  133.8973  155.8697 H   0  0  0  0  0  0  0  0  0  0  0  0  # atno 11005 bound_to 11000
  144.7457  139.7327  143.7293 LP  0  0  0  0  0  0  0  0  0  0  0  0  # atno 17320 bound_to 7965
  146.1813  139.5006  142.9865 LP  0  0  0  0  0  0  0  0  0  0  0  0  # atno 17321 bound_to 7965
  140.7536  143.6157  150.8562 LP  0  0  0  0  0  0  0  0  0  0  0  0  # atno 17342 bound_to 10162
  139.9804  143.5957  152.2944 LP  0  0  0  0  0  0  0  0  0  0  0  0  # atno 17343 bound_to 10162
  157.3998  131.0808  151.1319 LP  0  0  0  0  0  0  0  0  0  0  0  0  # atno 17370 bound_to 10713
  157.1984  130.6383  149.5729 LP  0  0  0  0  0  0  0  0  0  0  0  0  # atno 17371 bound_to 10713
  141.0147  134.0971  157.4184 LP  0  0  0  0  0  0  0  0  0  0  0  0  # atno 17394 bound_to 11000
  139.8891  135.0103  156.6662 LP  0  0  0  0  0  0  0  0  0  0  0  0  # atno 17395 bound_to 11000

$$$$
