AV-unprocessed.smi:2124|AV-procd|sdf|8672|dock5
  -GOLD-   2272011423D 1   1.00000     0.00000
 Structure written by MMmdl.
 46 48  0  0  0  0  0  0  0  0  2 V2000
  147.7892  135.1782  162.6205 C   0  0  0  0  0  0  0  0  0  0  0  0
  147.4787  135.3634  161.1506 C   0  0  0  0  0  0  0  0  0  0  0  0
  147.0073  134.3780  160.4871 N   0  0  0  0  0  0  0  0  0  0  0  0
  146.7020  134.5434  159.1257 C   0  0  0  0  0  0  0  0  0  0  0  0
  146.1233  133.3267  158.4247 C   0  0  0  0  0  0  0  0  0  0  0  0
  146.9041  135.7368  158.4967 C   0  0  0  0  0  0  0  0  0  0  0  0
  146.5437  135.9810  157.0298 C   0  0  0  0  0  0  0  0  0  0  0  0
  147.1513  134.9734  156.0531 C   0  0  0  0  0  0  0  0  0  0  0  0
  147.9182  134.0997  156.4576 O   0  0  0  0  0  0  0  0  0  0  0  0
  146.7589  135.0875  154.7757 N   0  0  0  0  0  0  0  0  0  0  0  0
  146.9656  134.0970  153.7257 C   0  0  2  0  0  0  0  0  0  0  0  0
  148.4676  133.8143  153.5663 C   0  0  0  0  0  0  0  0  0  0  0  0
  146.3200  134.6082  152.4157 C   0  0  1  0  0  0  0  0  0  0  0  0
  146.4553  133.6518  151.2102 C   0  0  0  0  0  0  0  0  0  0  0  0
  145.0113  133.5563  150.6809 C   0  0  1  0  0  0  0  0  0  0  0  0
  144.1758  132.6932  151.6446 C   0  0  0  0  0  0  0  0  0  0  0  0
  144.0021  133.6178  152.8632 C   0  0  0  0  0  0  0  0  0  0  0  0
  144.7923  134.8761  152.4504 C   0  0  2  0  0  0  0  0  0  0  0  0
  144.4707  134.9536  150.9621 C   0  0  0  0  0  0  0  0  0  0  0  0
  147.4514  136.8471  159.2971 C   0  0  0  0  0  0  0  0  0  0  0  0
  147.6395  137.9488  158.7831 O   0  0  0  0  0  0  0  0  0  0  0  0
  147.7205  136.6071  160.6118 N   0  5  0  0  0  0  0  0  0  0  0  0
  148.0496  134.1407  162.8333 H   0  0  0  0  0  0  0  0  0  0  0  0
  146.9213  135.4468  163.2226 H   0  0  0  0  0  0  0  0  0  0  0  0
  148.6281  135.8061  162.9234 H   0  0  0  0  0  0  0  0  0  0  0  0
  145.1326  133.5467  158.0273 H   0  0  0  0  0  0  0  0  0  0  0  0
  146.0268  132.4844  159.1109 H   0  0  0  0  0  0  0  0  0  0  0  0
  146.7676  133.0161  157.6024 H   0  0  0  0  0  0  0  0  0  0  0  0
  145.4629  135.9977  156.8870 H   0  0  0  0  0  0  0  0  0  0  0  0
  146.8772  136.9805  156.7500 H   0  0  0  0  0  0  0  0  0  0  0  0
  146.1456  135.8577  154.5487 H   0  0  0  0  0  0  0  0  0  0  0  0
  146.4773  133.1637  154.0108 H   0  0  0  0  0  0  0  0  0  0  0  0
  148.6485  133.0622  152.7982 H   0  0  0  0  0  0  0  0  0  0  0  0
  148.8971  133.4414  154.4966 H   0  0  0  0  0  0  0  0  0  0  0  0
  149.0140  134.7152  153.2853 H   0  0  0  0  0  0  0  0  0  0  0  0
  146.8023  135.5528  152.1561 H   0  0  0  0  0  0  0  0  0  0  0  0
  147.1206  134.0784  150.4587 H   0  0  0  0  0  0  0  0  0  0  0  0
  146.8506  132.6725  151.4828 H   0  0  0  0  0  0  0  0  0  0  0  0
  144.9469  133.2359  149.6406 H   0  0  0  0  0  0  0  0  0  0  0  0
  143.2063  132.4483  151.2093 H   0  0  0  0  0  0  0  0  0  0  0  0
  144.6742  131.7575  151.9004 H   0  0  0  0  0  0  0  0  0  0  0  0
  142.9491  133.8625  153.0085 H   0  0  0  0  0  0  0  0  0  0  0  0
  144.3579  133.1680  153.7892 H   0  0  0  0  0  0  0  0  0  0  0  0
  144.5156  135.7672  153.0153 H   0  0  0  0  0  0  0  0  0  0  0  0
  145.0146  135.7429  150.4401 H   0  0  0  0  0  0  0  0  0  0  0  0
  143.4041  135.0570  150.7543 H   0  0  0  0  0  0  0  0  0  0  0  0
  1  2  1  0  0  0  0
  1 23  1  0  0  0  0
  1 24  1  0  0  0  0
  1 25  1  0  0  0  0
  2 22  1  0  0  0  0
  2  3  2  0  0  0  0
  3  4  1  0  0  0  0
  4  5  1  0  0  0  0
  4  6  2  0  0  0  0
  5 26  1  0  0  0  0
  5 27  1  0  0  0  0
  5 28  1  0  0  0  0
  6  7  1  0  0  0  0
  6 20  1  0  0  0  0
  7  8  1  0  0  0  0
  7 29  1  0  0  0  0
  7 30  1  0  0  0  0
  8  9  2  0  0  0  0
  8 10  1  0  0  0  0
 10 11  1  0  0  0  0
 10 31  1  0  0  0  0
 11 12  1  0  0  0  0
 11 13  1  0  0  0  0
 11 32  1  0  0  0  0
 12 33  1  0  0  0  0
 12 34  1  0  0  0  0
 12 35  1  0  0  0  0
 13 18  1  0  0  0  0
 13 14  1  0  0  0  0
 13 36  1  0  0  0  0
 14 15  1  0  0  0  0
 14 37  1  0  0  0  0
 14 38  1  0  0  0  0
 15 19  1  0  0  0  0
 15 16  1  0  0  0  0
 15 39  1  0  0  0  0
 16 17  1  0  0  0  0
 16 40  1  0  0  0  0
 16 41  1  0  0  0  0
 17 18  1  0  0  0  0
 17 42  1  0  0  0  0
 17 43  1  0  0  0  0
 18 19  1  0  0  0  0
 18 44  1  0  0  0  0
 19 45  1  0  0  0  0
 19 46  1  0  0  0  0
 20 21  2  0  0  0  0
 20 22  1  0  0  0  0
M  CHG  1  22  -1
M  END
> <s_m_source_file>
AV-unprocessed.smi

> <i_m_source_file_index>
2124

> <i_lp_mmshare_version>
43012

> <i_f3d_flags>
0

> <s_epik_input>
W0NIM11jMW5jKFtDSDNdKWMoYyg9TylbbkhdMSlbQ0gyXUMoPU8pW05IXVtDQEhdKFtDSDNdKVtDQEhdKFtDSDJdW0NASF0yMylbQ0BIXShbQ0gyXTMpW0NIMl1bQ0gyXTI=

> <s_epik_cmdline>
J2VwaWtfcHl0aG9uJywgJy1waCcsICc3LjAnLCAnLXRuJywgJzgnLCAnLW1hJywgJzIwMCcsICctbWV0YWxfYmluZGluZycsICctaW1hZScsICc8aW5maWxlLm1hZT4nLCAnLW9tYWUnLCAnPG91dGZpbGUubWFlPic=

> <r_lp_tautomer_probability>
0.839158

> <r_epik_Ionization_Penalty>
6.63797

> <r_epik_Ionization_Penalty_Charging>
7.48558e-08

> <r_epik_Ionization_Penalty_Neutral>
6.63797

> <r_epik_State_Penalty>
4.49496

> <r_epik_Charging_Adjusted_Penalty>
4.49496

> <i_epik_Tot_Q>
-1

> <i_epik_Tot_abs_Q>
1

> <r_epik_Metal_State_Penalty>
0.841241

> <b_epik_Metal_Only>
1

> <s_lp_Force_Field>
OPLS_2005

> <r_lp_Energy>
53.1649

> <b_lp_Chiralities_Consistent>
1

> <s_lp_Variant>
AV-unprocessed.smi:2124-23

> <Gold.Version>
5.8.1

> <Gold.Id.Protein>
6NUR|6NUR_protein|mol2

> <Gold.PLP.Fitness>
34.8819

> <Gold.PLP.PLP>
-26.7162

> <Gold.PLP.part.hbond>
-2.1718

> <Gold.PLP.part.metal>
0.0000

> <Gold.PLP.part.buried>
-2.7487

> <Gold.PLP.part.nonpolar>
-21.4110

> <Gold.PLP.part.repulsive>
0.0000

> <Gold.PLP.ligand.clash>
0.0000

> <Gold.PLP.ligand.torsion>
0.0817

> <Gold.PLP.Chemscore.Hbond>
2.7637

> <Gold.PLP.Chemscore.CHOScore>
0.0000

> <Gold.PLP.Chemscore.Metal>
0.0000

> <Gold.Chemscore.Hbonds>
donor molecule, donor type, donor heavy atom, donor atom, acceptor molecule, acceptor atom, score
      P1  H  6934  6947       L1    21  0.01

> <Gold.PLP.Chemscore.Internal.Correction>
0.0380

> <Gold.Rescore>
     Score         DG    S(hbond)    S(metal)    S(lipo)     H(rot)  DE(clash)    DE(int)     intcor
      9.47     -10.63       0.88        0.00      53.98       1.61       0.05       1.12       ----

> <Gold.Chemscore.Fitness>
9.4658

> <Gold.Chemscore.DG>
-10.6340

> <Gold.Chemscore.ZeroCoef>
-5.4800

> <Gold.Chemscore.Hbond>
0.8825

> <Gold.Chemscore.Metal>
0.0000

> <Gold.Chemscore.Lipo>
53.9768

> <Gold.Chemscore.Internal_Hbond>
0.0000

> <Gold.Chemscore.DEClash>
0.0456

> <Gold.Chemscore.DEInternal>
1.1225

> <Gold.Chemscore.Rot>
1.6051

> <Gold.Chemscore.Internal.Correction>
   9.000000E+99

> <Gold.Chemscore.Hbonds>
donor molecule, donor type, donor heavy atom, donor atom, acceptor molecule, acceptor atom, score
      P1  H  6931  6943       L1    22  0.03

> <Gold.Chemscore.Hbond.Weighted>
-2.9477

> <Gold.Chemscore.Metal.Weighted>
-0.0000

> <Gold.Chemscore.Lipo.Weighted>
-6.3153

> <Gold.Chemscore.Internal_Hbond.Weighted>
0.0000

> <Gold.Chemscore.DEClash.Weighted>
0.0456

> <Gold.Chemscore.DEInternal.Weighted>
1.1225

> <Gold.Chemscore.Rot.Weighted>
4.1090

> <Gold.Chemscore.Internal.Correction.Weighted>
   9.000000E+99

> <Gold.Protein.RotatedTorsions>
[ 6907 6896 6895 6894 ] final   21.40 input  -60.11 | X-H torsion
[ 7974 7965 7964 7962 ] final -154.38 input  175.53 | X-H torsion
[ 8008 7997 7996 7995 ] final  -73.08 input   59.86 | X-H torsion
[ 10167 10162 10161 10158 ] final   -4.84 input  -65.29 | X-H torsion
[ 10718 10713 10712 10709 ] final  157.01 input   66.30 | X-H torsion
[ 10763 10752 10751 10750 ] final   -8.33 input  -60.55 | X-H torsion
[ 11005 11000 10999 10996 ] final   66.17 input  -57.11 | X-H torsion

> <Gold.Protein.ActiveResidues>
 VAL166  LYS551  ARG553  GLY616  TRP617  ASP618  TYR619  PRO620  LYS621  CYS622 
 ASP623  PHE694  ASN695  SER759  ASP760  ASP761  ALA762  ILE779  LEU786  VAL792 
 PHE793  MET794  SER795  GLU796  ALA797  LYS798  CYS799  TRP800  GLU811  SER814 

> <Gold.Protein.RotatedAtoms>
  151.9113  135.0338  160.0514 H   0  0  0  0  0  0  0  0  0  0  0  0  # atno 6907 bound_to 6896
  152.2277  133.5029  159.5206 H   0  0  0  0  0  0  0  0  0  0  0  0  # atno 6908 bound_to 6896
  150.7017  134.1175  159.4065 H   0  0  0  0  0  0  0  0  0  0  0  0  # atno 6909 bound_to 6896
  144.7692  140.4396  143.5919 H   0  0  0  0  0  0  0  0  0  0  0  0  # atno 7974 bound_to 7965
  154.5218  140.0785  156.8185 H   0  0  0  0  0  0  0  0  0  0  0  0  # atno 8008 bound_to 7997
  155.3560  140.3415  155.4222 H   0  0  0  0  0  0  0  0  0  0  0  0  # atno 8009 bound_to 7997
  156.1689  140.1613  156.8469 H   0  0  0  0  0  0  0  0  0  0  0  0  # atno 8010 bound_to 7997
  140.6942  143.6377  150.8464 H   0  0  0  0  0  0  0  0  0  0  0  0  # atno 10167 bound_to 10162
  157.1972  131.0668  151.2046 H   0  0  0  0  0  0  0  0  0  0  0  0  # atno 10718 bound_to 10713
  153.4389  135.7013  153.6182 H   0  0  0  0  0  0  0  0  0  0  0  0  # atno 10763 bound_to 10752
  153.4565  135.3746  155.2314 H   0  0  0  0  0  0  0  0  0  0  0  0  # atno 10764 bound_to 10752
  154.8727  135.4009  154.3784 H   0  0  0  0  0  0  0  0  0  0  0  0  # atno 10765 bound_to 10752
  139.9848  134.6685  156.0195 H   0  0  0  0  0  0  0  0  0  0  0  0  # atno 11005 bound_to 11000
  145.6375  139.1545  143.2934 LP  0  0  0  0  0  0  0  0  0  0  0  0  # atno 17320 bound_to 7965
  146.1825  140.6474  142.9182 LP  0  0  0  0  0  0  0  0  0  0  0  0  # atno 17321 bound_to 7965
  140.0093  143.5660  152.2845 LP  0  0  0  0  0  0  0  0  0  0  0  0  # atno 17342 bound_to 10162
  139.6378  144.7652  151.2402 LP  0  0  0  0  0  0  0  0  0  0  0  0  # atno 17343 bound_to 10162
  157.3803  130.7227  149.6625 LP  0  0  0  0  0  0  0  0  0  0  0  0  # atno 17370 bound_to 10713
  155.9704  130.4174  150.4279 LP  0  0  0  0  0  0  0  0  0  0  0  0  # atno 17371 bound_to 10713
  141.1515  133.6548  156.4028 LP  0  0  0  0  0  0  0  0  0  0  0  0  # atno 17394 bound_to 11000
  140.5024  134.6473  157.5253 LP  0  0  0  0  0  0  0  0  0  0  0  0  # atno 17395 bound_to 11000

$$$$
