AV-unprocessed.smi:3164|AV-procd|sdf|12084|dock2
  -GOLD-   2272017513D 1   1.00000     0.00000
 Structure written by MMmdl.
 39 40  0  0  0  0  0  0  0  0  2 V2000
  153.3578  142.0485  160.7882 C   0  0  0  0  0  0  0  0  0  0  0  0
  152.9058  142.5541  159.5007 N   0  0  0  0  0  0  0  0  0  0  0  0
  152.5649  143.9690  159.5698 C   0  0  0  0  0  0  0  0  0  0  0  0
  152.0737  144.5013  158.2132 C   0  0  0  0  0  0  0  0  0  0  0  0
  150.9724  143.7167  157.7639 O   0  0  0  0  0  0  0  0  0  0  0  0
  151.2866  142.3326  157.6283 C   0  0  2  0  0  0  0  0  0  0  0  0
  150.0300  141.6128  157.1165 C   0  0  0  0  0  0  0  0  0  0  0  0
  149.5311  142.2188  155.8660 N   0  3  0  0  0  0  0  0  0  0  0  0
  148.2936  141.6005  155.3487 C   0  0  0  0  0  0  0  0  0  0  0  0
  148.5835  140.6404  154.1839 C   0  0  0  0  0  0  0  0  0  0  0  0
  149.7740  139.7340  154.4443 C   0  0  0  0  0  0  0  0  0  0  0  0
  149.6550  138.3327  154.3226 C   0  0  0  0  0  0  0  0  0  0  0  0
  150.7892  137.5384  154.5810 C   0  0  0  0  0  0  0  0  0  0  0  0
  151.9908  138.1723  154.9515 C   0  0  0  0  0  0  0  0  0  0  0  0
  152.0060  139.5781  155.0463 C   0  0  0  0  0  0  0  0  0  0  0  0
  150.9239  140.3487  154.8012 N   0  0  0  0  0  0  0  0  0  0  0  0
  151.7662  141.8002  158.9957 C   0  0  0  0  0  0  0  0  0  0  0  0
  154.2320  142.6009  161.1344 H   0  0  0  0  0  0  0  0  0  0  0  0
  153.6378  140.9973  160.7145 H   0  0  0  0  0  0  0  0  0  0  0  0
  152.5769  142.1399  161.5447 H   0  0  0  0  0  0  0  0  0  0  0  0
  151.7879  144.1263  160.3197 H   0  0  0  0  0  0  0  0  0  0  0  0
  153.4327  144.5447  159.8938 H   0  0  0  0  0  0  0  0  0  0  0  0
  151.7579  145.5406  158.3051 H   0  0  0  0  0  0  0  0  0  0  0  0
  152.8753  144.4735  157.4735 H   0  0  0  0  0  0  0  0  0  0  0  0
  152.0836  142.2305  156.8888 H   0  0  0  0  0  0  0  0  0  0  0  0
  150.2347  140.5524  156.9616 H   0  0  0  0  0  0  0  0  0  0  0  0
  149.2425  141.6793  157.8684 H   0  0  0  0  0  0  0  0  0  0  0  0
  149.3499  143.1982  156.0357 H   0  0  0  0  0  0  0  0  0  0  0  0
  147.8036  141.0571  156.1572 H   0  0  0  0  0  0  0  0  0  0  0  0
  147.6046  142.3825  155.0263 H   0  0  0  0  0  0  0  0  0  0  0  0
  147.7023  140.0323  153.9749 H   0  0  0  0  0  0  0  0  0  0  0  0
  148.7752  141.2149  153.2766 H   0  0  0  0  0  0  0  0  0  0  0  0
  148.7200  137.8739  154.0362 H   0  0  0  0  0  0  0  0  0  0  0  0
  150.7383  136.4628  154.4967 H   0  0  0  0  0  0  0  0  0  0  0  0
  152.8805  137.5952  155.1564 H   0  0  0  0  0  0  0  0  0  0  0  0
  152.9103  140.0974  155.3274 H   0  0  0  0  0  0  0  0  0  0  0  0
  152.0375  140.7478  158.9053 H   0  0  0  0  0  0  0  0  0  0  0  0
  150.9455  141.8499  159.7133 H   0  0  0  0  0  0  0  0  0  0  0  0
  150.2492  142.1404  155.1602 H   0  0  0  0  0  0  0  0  0  0  0  0
  1  2  1  0  0  0  0
  1 18  1  0  0  0  0
  1 19  1  0  0  0  0
  1 20  1  0  0  0  0
  2 17  1  0  0  0  0
  2  3  1  0  0  0  0
  3  4  1  0  0  0  0
  3 21  1  0  0  0  0
  3 22  1  0  0  0  0
  4  5  1  0  0  0  0
  4 23  1  0  0  0  0
  4 24  1  0  0  0  0
  5  6  1  0  0  0  0
  6  7  1  0  0  0  0
  6 17  1  0  0  0  0
  6 25  1  0  0  0  0
  7  8  1  0  0  0  0
  7 26  1  0  0  0  0
  7 27  1  0  0  0  0
  8  9  1  0  0  0  0
  8 28  1  0  0  0  0
  8 39  1  0  0  0  0
  9 10  1  0  0  0  0
  9 29  1  0  0  0  0
  9 30  1  0  0  0  0
 10 11  1  0  0  0  0
 10 31  1  0  0  0  0
 10 32  1  0  0  0  0
 11 16  1  0  0  0  0
 11 12  2  0  0  0  0
 12 13  1  0  0  0  0
 12 33  1  0  0  0  0
 13 14  2  0  0  0  0
 13 34  1  0  0  0  0
 14 15  1  0  0  0  0
 14 35  1  0  0  0  0
 15 16  2  0  0  0  0
 15 36  1  0  0  0  0
 17 37  1  0  0  0  0
 17 38  1  0  0  0  0
M  CHG  1   8   1
M  END
> <s_m_source_file>
AV-unprocessed.smi

> <i_m_source_file_index>
3164

> <i_lp_mmshare_version>
43012

> <i_f3d_flags>
0

> <s_epik_input>
W0NIM11OMVtDSDJdW0NIMl1PW0NASF0oW0NIMl0xKVtDSDJdW05IXVtDSDJdW0NIMl1jMltjSF1bY0hdW2NIXVtjSF1uMg==

> <s_epik_cmdline>
J2VwaWtfcHl0aG9uJywgJy1waCcsICc3LjAnLCAnLXRuJywgJzgnLCAnLW1hJywgJzIwMCcsICctbWV0YWxfYmluZGluZycsICctaW1hZScsICc8aW5maWxlLm1hZT4nLCAnLW9tYWUnLCAnPG91dGZpbGUubWFlPic=

> <r_epik_Ionization_Penalty>
0.584284

> <r_epik_Ionization_Penalty_Charging>
0.00270218

> <r_epik_Ionization_Penalty_Neutral>
0.581582

> <r_epik_State_Penalty>
0.593163

> <r_epik_Charging_Adjusted_Penalty>
0.595865

> <i_epik_Tot_Q>
1

> <i_epik_Tot_abs_Q>
1

> <r_epik_Metal_State_Penalty>
0.593163

> <b_epik_Metal_Only>
0

> <s_lp_Force_Field>
OPLS_2005

> <r_lp_Energy>
23.4824

> <b_lp_Chiralities_Consistent>
1

> <s_lp_Variant>
AV-unprocessed.smi:3164-6

> <Gold.Version>
5.8.1

> <Gold.Id.Protein>
6NUR|6NUR_protein|mol2

> <Gold.PLP.Fitness>
48.3489

> <Gold.PLP.PLP>
-40.1305

> <Gold.PLP.part.hbond>
-2.0000

> <Gold.PLP.part.metal>
0.0000

> <Gold.PLP.part.buried>
-3.3510

> <Gold.PLP.part.nonpolar>
-35.7977

> <Gold.PLP.part.repulsive>
0.7607

> <Gold.PLP.ligand.clash>
0.0000

> <Gold.PLP.ligand.torsion>
0.4108

> <Gold.PLP.Chemscore.Hbond>
3.0000

> <Gold.PLP.Chemscore.CHOScore>
0.0000

> <Gold.PLP.Chemscore.Metal>
0.0000

> <Gold.Chemscore.Hbonds>
donor molecule, donor type, donor heavy atom, donor atom, acceptor molecule, acceptor atom, score
      L1  H     8    28       P1  8028  2.00
      P1  H  7989  7998       L1    16  0.45

> <Gold.PLP.Chemscore.Internal.Correction>
0.0401

> <Gold.Rescore>
     Score         DG    S(hbond)    S(metal)    S(lipo)     H(rot)  DE(clash)    DE(int)     intcor
     15.79     -19.17       1.62        0.00     105.12       1.57       0.07       3.32       ----

> <Gold.Chemscore.Fitness>
15.7891

> <Gold.Chemscore.DG>
-19.1723

> <Gold.Chemscore.ZeroCoef>
-5.4800

> <Gold.Chemscore.Hbond>
1.6226

> <Gold.Chemscore.Metal>
0.0000

> <Gold.Chemscore.Lipo>
105.1170

> <Gold.Chemscore.Internal_Hbond>
0.0000

> <Gold.Chemscore.DEClash>
0.0677

> <Gold.Chemscore.DEInternal>
3.3156

> <Gold.Chemscore.Rot>
1.5726

> <Gold.Chemscore.Internal.Correction>
   9.000000E+99

> <Gold.Chemscore.Hbonds>
donor molecule, donor type, donor heavy atom, donor atom, acceptor molecule, acceptor atom, score
      L1  H     8    28       P1  8028  0.98
      P1  H  7989  7998       L1    16  0.01

> <Gold.Chemscore.Hbond.Weighted>
-5.4195

> <Gold.Chemscore.Metal.Weighted>
-0.0000

> <Gold.Chemscore.Lipo.Weighted>
-12.2987

> <Gold.Chemscore.Internal_Hbond.Weighted>
0.0000

> <Gold.Chemscore.DEClash.Weighted>
0.0677

> <Gold.Chemscore.DEInternal.Weighted>
3.3156

> <Gold.Chemscore.Rot.Weighted>
4.0259

> <Gold.Chemscore.Internal.Correction.Weighted>
   9.000000E+99

> <Gold.Protein.RotatedTorsions>
[ 6907 6896 6895 6894 ] final  -98.69 input  -60.11 | X-H torsion
[ 7974 7965 7964 7962 ] final   68.58 input  175.53 | X-H torsion
[ 8008 7997 7996 7995 ] final  130.77 input   59.86 | X-H torsion
[ 10167 10162 10161 10158 ] final  -67.80 input  -65.29 | X-H torsion
[ 10718 10713 10712 10709 ] final -139.75 input   66.30 | X-H torsion
[ 10763 10752 10751 10750 ] final    6.83 input  -60.55 | X-H torsion
[ 11005 11000 10999 10996 ] final   30.79 input  -57.11 | X-H torsion

> <Gold.Protein.ActiveResidues>
 VAL166  LYS551  ARG553  GLY616  TRP617  ASP618  TYR619  PRO620  LYS621  CYS622 
 ASP623  PHE694  ASN695  SER759  ASP760  ASP761  ALA762  ILE779  LEU786  VAL792 
 PHE793  MET794  SER795  GLU796  ALA797  LYS798  CYS799  TRP800  GLU811  SER814 

> <Gold.Protein.RotatedAtoms>
  150.7055  134.1156  159.4015 H   0  0  0  0  0  0  0  0  0  0  0  0  # atno 6907 bound_to 6896
  151.9142  135.0323  160.0526 H   0  0  0  0  0  0  0  0  0  0  0  0  # atno 6908 bound_to 6896
  152.2310  133.5023  159.5252 H   0  0  0  0  0  0  0  0  0  0  0  0  # atno 6909 bound_to 6896
  145.8008  139.2981  143.1156 H   0  0  0  0  0  0  0  0  0  0  0  0  # atno 7974 bound_to 7965
  156.2960  140.2588  156.2817 H   0  0  0  0  0  0  0  0  0  0  0  0  # atno 8008 bound_to 7997
  154.9596  140.0393  157.2202 H   0  0  0  0  0  0  0  0  0  0  0  0  # atno 8009 bound_to 7997
  154.7959  140.2820  155.5961 H   0  0  0  0  0  0  0  0  0  0  0  0  # atno 8010 bound_to 7997
  140.5556  143.2312  151.6828 H   0  0  0  0  0  0  0  0  0  0  0  0  # atno 10167 bound_to 10162
  156.3144  130.7499  151.1583 H   0  0  0  0  0  0  0  0  0  0  0  0  # atno 10718 bound_to 10713
  153.2432  135.6906  153.7759 H   0  0  0  0  0  0  0  0  0  0  0  0  # atno 10763 bound_to 10752
  153.6881  135.3317  155.3196 H   0  0  0  0  0  0  0  0  0  0  0  0  # atno 10764 bound_to 10752
  154.8364  135.4538  154.1362 H   0  0  0  0  0  0  0  0  0  0  0  0  # atno 10765 bound_to 10752
  140.2907  134.2867  155.7777 H   0  0  0  0  0  0  0  0  0  0  0  0  # atno 11005 bound_to 11000
  145.9880  140.8627  143.0081 LP  0  0  0  0  0  0  0  0  0  0  0  0  # atno 17320 bound_to 7965
  144.6769  140.2174  143.7370 LP  0  0  0  0  0  0  0  0  0  0  0  0  # atno 17321 bound_to 7965
  139.5046  144.3747  152.0435 LP  0  0  0  0  0  0  0  0  0  0  0  0  # atno 17342 bound_to 10162
  140.2868  144.3798  150.6101 LP  0  0  0  0  0  0  0  0  0  0  0  0  # atno 17343 bound_to 10162
  157.7398  131.0524  150.5207 LP  0  0  0  0  0  0  0  0  0  0  0  0  # atno 17370 bound_to 10713
  156.5351  130.4194  149.6182 LP  0  0  0  0  0  0  0  0  0  0  0  0  # atno 17371 bound_to 10713
  141.2147  133.7583  156.9620 LP  0  0  0  0  0  0  0  0  0  0  0  0  # atno 17394 bound_to 11000
  140.1198  134.9424  157.2187 LP  0  0  0  0  0  0  0  0  0  0  0  0  # atno 17395 bound_to 11000

$$$$
