AV-unprocessed.smi:3255|AV-procd|sdf|12459|dock4
  -GOLD-   2272018353D 1   1.00000     0.00000
 Structure written by MMmdl.
 39 40  0  0  0  0  0  0  0  0  2 V2000
  146.9491  141.7718  154.1806 C   0  0  0  0  0  0  0  0  0  0  0  0
  148.1539  140.9512  153.6982 C   0  0  2  0  0  0  0  0  0  0  0  0
  147.6704  139.8202  152.9071 N   0  0  0  0  0  0  0  0  0  0  0  0
  146.8927  138.8275  153.3615 C   0  0  0  0  0  0  0  0  0  0  0  0
  146.4944  138.7362  154.5230 O   0  0  0  0  0  0  0  0  0  0  0  0
  146.5752  137.9581  152.3917 N   0  0  0  0  0  0  0  0  0  0  0  0
  145.7095  136.7939  152.5600 C   0  0  0  0  0  0  0  0  0  0  0  0
  145.5030  136.0225  151.2414 C   0  0  0  0  0  0  0  0  0  0  0  0
  144.7286  134.7882  151.4092 N   0  0  0  0  0  0  0  0  0  0  0  0
  144.5351  133.7960  150.4826 C   0  0  0  0  0  0  0  0  0  0  0  0
  143.7348  132.8554  151.0781 C   0  0  0  0  0  0  0  0  0  0  0  0
  143.4821  133.3080  152.3451 N   0  3  0  0  0  0  0  0  0  0  0  0
  144.0933  134.4798  152.5472 C   0  0  0  0  0  0  0  0  0  0  0  0
  149.0204  140.4605  154.8771 C   0  0  1  0  0  0  0  0  0  0  0  0
  150.0815  139.4200  154.5205 C   0  0  0  0  0  0  0  0  0  0  0  0
  151.0480  139.5311  155.6815 C   0  0  0  0  0  0  0  0  0  0  0  0
  150.9018  140.9878  156.1300 C   0  0  0  0  0  0  0  0  0  0  0  0
  149.8067  141.5248  155.3934 O   0  0  0  0  0  0  0  0  0  0  0  0
  147.2705  142.6472  154.7454 H   0  0  0  0  0  0  0  0  0  0  0  0
  146.2976  141.1815  154.8260 H   0  0  0  0  0  0  0  0  0  0  0  0
  146.3530  142.1265  153.3392 H   0  0  0  0  0  0  0  0  0  0  0  0
  148.7638  141.6035  153.0711 H   0  0  0  0  0  0  0  0  0  0  0  0
  147.9418  139.8027  151.9349 H   0  0  0  0  0  0  0  0  0  0  0  0
  146.9529  138.1159  151.4686 H   0  0  0  0  0  0  0  0  0  0  0  0
  146.1860  136.1357  153.2870 H   0  0  0  0  0  0  0  0  0  0  0  0
  144.7509  137.0792  152.9969 H   0  0  0  0  0  0  0  0  0  0  0  0
  144.9948  136.6477  150.5060 H   0  0  0  0  0  0  0  0  0  0  0  0
  146.4672  135.7487  150.8116 H   0  0  0  0  0  0  0  0  0  0  0  0
  144.9611  133.8361  149.4905 H   0  0  0  0  0  0  0  0  0  0  0  0
  143.3358  131.9237  150.7043 H   0  0  0  0  0  0  0  0  0  0  0  0
  144.0649  135.0683  153.4468 H   0  0  0  0  0  0  0  0  0  0  0  0
  148.3880  140.0734  155.6785 H   0  0  0  0  0  0  0  0  0  0  0  0
  149.6722  138.4162  154.4076 H   0  0  0  0  0  0  0  0  0  0  0  0
  150.5842  139.6921  153.5912 H   0  0  0  0  0  0  0  0  0  0  0  0
  150.7446  138.8619  156.4876 H   0  0  0  0  0  0  0  0  0  0  0  0
  152.0698  139.2770  155.3983 H   0  0  0  0  0  0  0  0  0  0  0  0
  150.7003  141.0481  157.2000 H   0  0  0  0  0  0  0  0  0  0  0  0
  151.8009  141.5680  155.9211 H   0  0  0  0  0  0  0  0  0  0  0  0
  142.9119  132.8291  153.0308 H   0  0  0  0  0  0  0  0  0  0  0  0
  1  2  1  0  0  0  0
  1 19  1  0  0  0  0
  1 20  1  0  0  0  0
  1 21  1  0  0  0  0
  2  3  1  0  0  0  0
  2 14  1  0  0  0  0
  2 22  1  0  0  0  0
  3  4  1  0  0  0  0
  3 23  1  0  0  0  0
  4  5  2  0  0  0  0
  4  6  1  0  0  0  0
  6  7  1  0  0  0  0
  6 24  1  0  0  0  0
  7  8  1  0  0  0  0
  7 25  1  0  0  0  0
  7 26  1  0  0  0  0
  8  9  1  0  0  0  0
  8 27  1  0  0  0  0
  8 28  1  0  0  0  0
  9 13  1  0  0  0  0
  9 10  1  0  0  0  0
 10 11  2  0  0  0  0
 10 29  1  0  0  0  0
 11 12  1  0  0  0  0
 11 30  1  0  0  0  0
 12 13  2  0  0  0  0
 12 39  1  0  0  0  0
 13 31  1  0  0  0  0
 14 18  1  0  0  0  0
 14 15  1  0  0  0  0
 14 32  1  0  0  0  0
 15 16  1  0  0  0  0
 15 33  1  0  0  0  0
 15 34  1  0  0  0  0
 16 17  1  0  0  0  0
 16 35  1  0  0  0  0
 16 36  1  0  0  0  0
 17 18  1  0  0  0  0
 17 37  1  0  0  0  0
 17 38  1  0  0  0  0
M  CHG  1  12   1
M  END
> <s_m_source_file>
AV-unprocessed.smi

> <i_m_source_file_index>
3255

> <i_lp_mmshare_version>
43012

> <i_f3d_flags>
0

> <s_epik_input>
TzFbQ0gyXVtDSDJdW0NIMl1bQ0BIXTFbQ0BIXShbQ0gzXSlbTkhdQyg9TylbTkhdW0NIMl1bQ0gyXW4yW2NIXVtjSF1uW2NIXTI=

> <s_epik_cmdline>
J2VwaWtfcHl0aG9uJywgJy1waCcsICc3LjAnLCAnLXRuJywgJzgnLCAnLW1hJywgJzIwMCcsICctbWV0YWxfYmluZGluZycsICctaW1hZScsICc8aW5maWxlLm1hZT4nLCAnLW9tYWUnLCAnPG91dGZpbGUubWFlPic=

> <r_lp_tautomer_probability>
1

> <r_epik_Ionization_Penalty>
0.256241

> <r_epik_Ionization_Penalty_Charging>
0

> <r_epik_Ionization_Penalty_Neutral>
0.256241

> <r_epik_State_Penalty>
0.247735

> <r_epik_Charging_Adjusted_Penalty>
0.247735

> <i_epik_Tot_Q>
1

> <i_epik_Tot_abs_Q>
1

> <r_epik_Metal_State_Penalty>
0.537184

> <b_epik_Metal_Only>
0

> <s_lp_Force_Field>
OPLS_2005

> <r_lp_Energy>
17.3031

> <b_lp_Chiralities_Consistent>
1

> <s_lp_Variant>
AV-unprocessed.smi:3255-3

> <Gold.Version>
5.8.1

> <Gold.Id.Protein>
6NUR|6NUR_protein|mol2

> <Gold.PLP.Fitness>
46.0569

> <Gold.PLP.PLP>
-35.9191

> <Gold.PLP.part.hbond>
-3.4944

> <Gold.PLP.part.metal>
0.0000

> <Gold.PLP.part.buried>
-3.5331

> <Gold.PLP.part.nonpolar>
-30.3032

> <Gold.PLP.part.repulsive>
0.3747

> <Gold.PLP.ligand.clash>
0.0000

> <Gold.PLP.ligand.torsion>
0.3111

> <Gold.PLP.Chemscore.Hbond>
2.5600

> <Gold.PLP.Chemscore.CHOScore>
1.0000

> <Gold.PLP.Chemscore.Metal>
0.0000

> <Gold.Chemscore.Hbonds>
donor molecule, donor type, donor heavy atom, donor atom, acceptor molecule, acceptor atom, score
      L1  H     3    23       P1  7957  0.64
      L1  H    12    39       P1 10957  1.92
      L1  C    10    29       P1  7921  1.00

> <Gold.PLP.Chemscore.Internal.Correction>
0.0800

> <Gold.Rescore>
     Score         DG    S(hbond)    S(metal)    S(lipo)     H(rot)  DE(clash)    DE(int)     intcor
     11.26     -12.70       1.64        0.00      64.40       2.26       0.19       1.25       ----

> <Gold.Chemscore.Fitness>
11.2644

> <Gold.Chemscore.DG>
-12.7035

> <Gold.Chemscore.ZeroCoef>
-5.4800

> <Gold.Chemscore.Hbond>
1.6419

> <Gold.Chemscore.Metal>
0.0000

> <Gold.Chemscore.Lipo>
64.4048

> <Gold.Chemscore.Internal_Hbond>
0.0000

> <Gold.Chemscore.DEClash>
0.1906

> <Gold.Chemscore.DEInternal>
1.2485

> <Gold.Chemscore.Rot>
2.2640

> <Gold.Chemscore.Internal.Correction>
   9.000000E+99

> <Gold.Chemscore.Hbonds>
donor molecule, donor type, donor heavy atom, donor atom, acceptor molecule, acceptor atom, score
      L1  H     3    23       P1  7957  0.64
      L1  H    12    39       P1 10957  0.31

> <Gold.Chemscore.Hbond.Weighted>
-5.4839

> <Gold.Chemscore.Metal.Weighted>
-0.0000

> <Gold.Chemscore.Lipo.Weighted>
-7.5354

> <Gold.Chemscore.Internal_Hbond.Weighted>
0.0000

> <Gold.Chemscore.DEClash.Weighted>
0.1906

> <Gold.Chemscore.DEInternal.Weighted>
1.2485

> <Gold.Chemscore.Rot.Weighted>
5.7958

> <Gold.Chemscore.Internal.Correction.Weighted>
   9.000000E+99

> <Gold.Protein.RotatedTorsions>
[ 6907 6896 6895 6894 ] final  -38.37 input  -60.11 | X-H torsion
[ 7974 7965 7964 7962 ] final -141.76 input  175.53 | X-H torsion
[ 8008 7997 7996 7995 ] final   26.67 input   59.86 | X-H torsion
[ 10167 10162 10161 10158 ] final  172.13 input  -65.29 | X-H torsion
[ 10718 10713 10712 10709 ] final -163.91 input   66.30 | X-H torsion
[ 10763 10752 10751 10750 ] final    1.37 input  -60.55 | X-H torsion
[ 11005 11000 10999 10996 ] final  105.57 input  -57.11 | X-H torsion

> <Gold.Protein.ActiveResidues>
 VAL166  LYS551  ARG553  GLY616  TRP617  ASP618  TYR619  PRO620  LYS621  CYS622 
 ASP623  PHE694  ASN695  SER759  ASP760  ASP761  ALA762  ILE779  LEU786  VAL792 
 PHE793  MET794  SER795  GLU796  ALA797  LYS798  CYS799  TRP800  GLU811  SER814 

> <Gold.Protein.RotatedAtoms>
  151.0033  134.9339  159.7965 H   0  0  0  0  0  0  0  0  0  0  0  0  # atno 6907 bound_to 6896
  152.5283  134.3126  159.9129 H   0  0  0  0  0  0  0  0  0  0  0  0  # atno 6908 bound_to 6896
  151.3131  133.4030  159.2683 H   0  0  0  0  0  0  0  0  0  0  0  0  # atno 6909 bound_to 6896
  144.8495  140.6041  143.5399 H   0  0  0  0  0  0  0  0  0  0  0  0  # atno 7974 bound_to 7965
  155.0309  140.3158  155.4758 H   0  0  0  0  0  0  0  0  0  0  0  0  # atno 8008 bound_to 7997
  156.2874  140.2180  156.5373 H   0  0  0  0  0  0  0  0  0  0  0  0  # atno 8009 bound_to 7997
  154.7371  140.0476  157.0766 H   0  0  0  0  0  0  0  0  0  0  0  0  # atno 8010 bound_to 7997
  139.5067  144.3408  152.0020 H   0  0  0  0  0  0  0  0  0  0  0  0  # atno 10167 bound_to 10162
  156.6315  130.8931  151.2978 H   0  0  0  0  0  0  0  0  0  0  0  0  # atno 10718 bound_to 10713
  153.3089  135.6961  153.7133 H   0  0  0  0  0  0  0  0  0  0  0  0  # atno 10763 bound_to 10752
  153.6018  135.3460  155.2949 H   0  0  0  0  0  0  0  0  0  0  0  0  # atno 10764 bound_to 10752
  154.8570  135.4342  154.2222 H   0  0  0  0  0  0  0  0  0  0  0  0  # atno 10765 bound_to 10752
  139.8803  134.9340  156.5534 H   0  0  0  0  0  0  0  0  0  0  0  0  # atno 11005 bound_to 11000
  145.4529  139.1521  143.3908 LP  0  0  0  0  0  0  0  0  0  0  0  0  # atno 17320 bound_to 7965
  146.2773  140.4656  142.8790 LP  0  0  0  0  0  0  0  0  0  0  0  0  # atno 17321 bound_to 7965
  140.2846  144.3822  150.6108 LP  0  0  0  0  0  0  0  0  0  0  0  0  # atno 17342 bound_to 10162
  140.5993  143.2167  151.7104 LP  0  0  0  0  0  0  0  0  0  0  0  0  # atno 17343 bound_to 10162
  157.7198  130.9544  150.1396 LP  0  0  0  0  0  0  0  0  0  0  0  0  # atno 17370 bound_to 10713
  156.2231  130.3675  149.8532 LP  0  0  0  0  0  0  0  0  0  0  0  0  # atno 17371 bound_to 10713
  140.8223  133.8344  155.8907 LP  0  0  0  0  0  0  0  0  0  0  0  0  # atno 17394 bound_to 11000
  140.9406  134.1905  157.4800 LP  0  0  0  0  0  0  0  0  0  0  0  0  # atno 17395 bound_to 11000

$$$$
