AV-unprocessed.smi:170|AV-procd|sdf|1410|dock7
  -GOLD-   2262019173D 1   1.00000     0.00000
 Structure written by MMmdl.
 57 61  0  0  0  0  0  0  0  0  1 V2000
  146.4826  135.1274  152.7590 O   0  0  0  0  0  0  0  0  0  0  0  0
  146.6311  133.7209  152.7030 C   0  0  2  0  0  0  0  0  0  0  0  0
  148.1011  133.3160  152.9271 C   0  0  0  0  0  0  0  0  0  0  0  0
  148.3822  133.0137  154.3192 N   0  0  0  0  0  0  0  0  0  0  0  0
  149.6244  132.8796  154.8961 C   0  0  0  0  0  0  0  0  0  0  0  0
  149.6170  132.5943  156.1695 N   0  0  0  0  0  0  0  0  0  0  0  0
  148.2671  132.5224  156.4941 C   0  0  0  0  0  0  0  0  0  0  0  0
  147.5404  132.2426  157.6869 C   0  0  0  0  0  0  0  0  0  0  0  0
  148.0951  131.9388  158.8822 N   0  0  0  0  0  0  0  0  0  0  0  0
  148.2460  130.4963  159.0306 C   0  0  0  0  0  0  0  0  0  0  0  0
  149.0488  130.1747  160.2982 C   0  0  0  0  0  0  0  0  0  0  0  0
  148.3999  130.7616  161.4184 O   0  0  0  0  0  0  0  0  0  0  0  0
  148.3334  132.1798  161.3136 C   0  0  0  0  0  0  0  0  0  0  0  0
  147.5193  132.5918  160.0648 C   0  0  1  0  0  0  0  0  0  0  0  0
  147.4480  134.1345  159.9133 C   0  0  0  0  0  0  0  0  0  0  0  0
  146.5845  134.8368  160.9640 C   0  0  0  0  0  0  0  0  0  0  0  0
  146.8561  136.3151  161.2949 C   0  0  0  0  0  0  0  0  0  0  0  0
  147.6480  135.8521  162.5191 C   0  0  0  0  0  0  0  0  0  0  0  0
  146.8622  134.5410  162.4470 C   0  0  0  0  0  0  0  0  0  0  0  0
  146.1864  132.2770  157.6301 N   0  0  0  0  0  0  0  0  0  0  0  0
  145.5729  132.5493  156.4745 C   0  0  0  0  0  0  0  0  0  0  0  0
  146.1141  132.8148  155.2833 N   0  0  0  0  0  0  0  0  0  0  0  0
  147.4769  132.7926  155.3417 C   0  0  0  0  0  0  0  0  0  0  0  0
  146.0535  133.1740  151.3823 C   0  0  1  0  0  0  0  0  0  0  0  0
  145.9720  131.6429  151.2588 C   0  0  0  0  0  0  0  0  0  0  0  0
  144.5506  131.3894  150.7814 C   0  0  0  0  0  0  0  0  0  0  0  0
  144.1004  132.7516  150.2670 C   0  0  0  0  0  0  0  0  0  0  0  0
  144.7332  133.6541  151.1582 O   0  0  0  0  0  0  0  0  0  0  0  0
  147.1239  135.5169  152.1841 H   0  0  0  0  0  0  0  0  0  0  0  0
  146.0347  133.3153  153.5210 H   0  0  0  0  0  0  0  0  0  0  0  0
  148.3452  132.4365  152.3303 H   0  0  0  0  0  0  0  0  0  0  0  0
  148.7738  134.1097  152.6001 H   0  0  0  0  0  0  0  0  0  0  0  0
  150.5417  132.9972  154.3378 H   0  0  0  0  0  0  0  0  0  0  0  0
  147.2616  130.0290  159.0866 H   0  0  0  0  0  0  0  0  0  0  0  0
  148.7514  130.0796  158.1582 H   0  0  0  0  0  0  0  0  0  0  0  0
  149.1065  129.0961  160.4444 H   0  0  0  0  0  0  0  0  0  0  0  0
  150.0727  130.5433  160.2177 H   0  0  0  0  0  0  0  0  0  0  0  0
  147.8643  132.5551  162.2223 H   0  0  0  0  0  0  0  0  0  0  0  0
  149.3412  132.5973  161.2796 H   0  0  0  0  0  0  0  0  0  0  0  0
  146.5099  132.2049  160.1976 H   0  0  0  0  0  0  0  0  0  0  0  0
  148.4591  134.5423  159.9393 H   0  0  0  0  0  0  0  0  0  0  0  0
  147.0592  134.3960  158.9294 H   0  0  0  0  0  0  0  0  0  0  0  0
  145.5230  134.6901  160.7632 H   0  0  0  0  0  0  0  0  0  0  0  0
  147.4486  136.8600  160.5599 H   0  0  0  0  0  0  0  0  0  0  0  0
  145.9499  136.8612  161.5623 H   0  0  0  0  0  0  0  0  0  0  0  0
  148.7114  135.7218  162.3101 H   0  0  0  0  0  0  0  0  0  0  0  0
  147.4797  136.4387  163.4223 H   0  0  0  0  0  0  0  0  0  0  0  0
  145.9593  134.5574  163.0594 H   0  0  0  0  0  0  0  0  0  0  0  0
  147.4573  133.6464  162.6336 H   0  0  0  0  0  0  0  0  0  0  0  0
  144.4933  132.5514  156.5084 H   0  0  0  0  0  0  0  0  0  0  0  0
  146.6630  133.5471  150.5572 H   0  0  0  0  0  0  0  0  0  0  0  0
  146.6995  131.2853  150.5293 H   0  0  0  0  0  0  0  0  0  0  0  0
  146.1673  131.1210  152.1959 H   0  0  0  0  0  0  0  0  0  0  0  0
  144.4865  130.6084  150.0235 H   0  0  0  0  0  0  0  0  0  0  0  0
  143.9271  131.0927  151.6256 H   0  0  0  0  0  0  0  0  0  0  0  0
  144.4601  132.9249  149.2517 H   0  0  0  0  0  0  0  0  0  0  0  0
  143.0169  132.8695  150.2753 H   0  0  0  0  0  0  0  0  0  0  0  0
  1  2  1  0  0  0  0
  1 29  1  0  0  0  0
  2  3  1  0  0  0  0
  2 24  1  0  0  0  0
  2 30  1  0  0  0  0
  3  4  1  0  0  0  0
  3 31  1  0  0  0  0
  3 32  1  0  0  0  0
  4 23  1  0  0  0  0
  4  5  1  0  0  0  0
  5  6  2  0  0  0  0
  5 33  1  0  0  0  0
  6  7  1  0  0  0  0
  7 23  2  0  0  0  0
  7  8  1  0  0  0  0
  8  9  1  0  0  0  0
  8 20  2  0  0  0  0
  9 14  1  0  0  0  0
  9 10  1  0  0  0  0
 10 11  1  0  0  0  0
 10 34  1  0  0  0  0
 10 35  1  0  0  0  0
 11 12  1  0  0  0  0
 11 36  1  0  0  0  0
 11 37  1  0  0  0  0
 12 13  1  0  0  0  0
 13 14  1  0  0  0  0
 13 38  1  0  0  0  0
 13 39  1  0  0  0  0
 14 15  1  0  0  0  0
 14 40  1  0  0  0  0
 15 16  1  0  0  0  0
 15 41  1  0  0  0  0
 15 42  1  0  0  0  0
 16 19  1  0  0  0  0
 16 17  1  0  0  0  0
 16 43  1  0  0  0  0
 17 18  1  0  0  0  0
 17 44  1  0  0  0  0
 17 45  1  0  0  0  0
 18 19  1  0  0  0  0
 18 46  1  0  0  0  0
 18 47  1  0  0  0  0
 19 48  1  0  0  0  0
 19 49  1  0  0  0  0
 20 21  1  0  0  0  0
 21 22  2  0  0  0  0
 21 50  1  0  0  0  0
 22 23  1  0  0  0  0
 24 28  1  0  0  0  0
 24 25  1  0  0  0  0
 24 51  1  0  0  0  0
 25 26  1  0  0  0  0
 25 52  1  0  0  0  0
 25 53  1  0  0  0  0
 26 27  1  0  0  0  0
 26 54  1  0  0  0  0
 26 55  1  0  0  0  0
 27 28  1  0  0  0  0
 27 56  1  0  0  0  0
 27 57  1  0  0  0  0
M  END
> <s_m_source_file>
AV-unprocessed.smi

> <i_m_source_file_index>
170

> <i_lp_mmshare_version>
43012

> <i_f3d_flags>
0

> <s_epik_input>
TzFbQ0gyXVtDSDJdW0NIMl1bQ0BIXTFbQ0BIXShbT0hdKVtDSDJdbihbY0hdbjIpYyhjMjMpbltjSF1uYzNONFtDSDJdW0NIMl1PW0NIMl1bQ0BIXTRbQ0gyXVtDSF01W0NIMl1bQ0gyXVtDSDJdNQ==

> <s_epik_cmdline>
J2VwaWtfcHl0aG9uJywgJy1waCcsICc3LjAnLCAnLXRuJywgJzgnLCAnLW1hJywgJzIwMCcsICctbWV0YWxfYmluZGluZycsICctaW1hZScsICc8aW5maWxlLm1hZT4nLCAnLW9tYWUnLCAnPG91dGZpbGUubWFlPic=

> <r_lp_tautomer_probability>
1

> <r_epik_Ionization_Penalty>
4.98275e-05

> <r_epik_Ionization_Penalty_Charging>
0

> <r_epik_Ionization_Penalty_Neutral>
4.98275e-05

> <r_epik_State_Penalty>
-0

> <r_epik_Charging_Adjusted_Penalty>
0

> <i_epik_Tot_Q>
0

> <i_epik_Tot_abs_Q>
0

> <r_epik_Metal_State_Penalty>
-0

> <b_epik_Metal_Only>
0

> <s_lp_Force_Field>
OPLS_2005

> <r_lp_Energy>
54.4618

> <b_lp_Chiralities_Consistent>
1

> <s_lp_Variant>
AV-unprocessed.smi:170-5

> <Gold.Version>
5.8.1

> <Gold.Id.Protein>
6NUR|6NUR_protein|mol2

> <Gold.PLP.Fitness>
42.3584

> <Gold.PLP.PLP>
-39.4776

> <Gold.PLP.part.hbond>
-1.0000

> <Gold.PLP.part.metal>
0.0000

> <Gold.PLP.part.buried>
-5.8979

> <Gold.PLP.part.nonpolar>
-32.8172

> <Gold.PLP.part.repulsive>
0.2618

> <Gold.PLP.ligand.clash>
0.0000

> <Gold.PLP.ligand.torsion>
1.4939

> <Gold.PLP.Chemscore.Hbond>
1.0000

> <Gold.PLP.Chemscore.CHOScore>
0.8486

> <Gold.PLP.Chemscore.Metal>
0.0000

> <Gold.Chemscore.Hbonds>
donor molecule, donor type, donor heavy atom, donor atom, acceptor molecule, acceptor atom, score
      L1  H     1    29       P1  7948  1.00
      L1  C    21    50       P1 10957  0.85

> <Gold.PLP.Chemscore.Internal.Correction>
0.3230

> <Gold.Rescore>
     Score         DG    S(hbond)    S(metal)    S(lipo)     H(rot)  DE(clash)    DE(int)     intcor
     10.99     -13.94       1.00        0.00     101.07       2.61       0.09       2.86       ----

> <Gold.Chemscore.Fitness>
10.9877

> <Gold.Chemscore.DG>
-13.9360

> <Gold.Chemscore.ZeroCoef>
-5.4800

> <Gold.Chemscore.Hbond>
0.9951

> <Gold.Chemscore.Metal>
0.0000

> <Gold.Chemscore.Lipo>
101.0705

> <Gold.Chemscore.Internal_Hbond>
0.0000

> <Gold.Chemscore.DEClash>
0.0901

> <Gold.Chemscore.DEInternal>
2.8582

> <Gold.Chemscore.Rot>
2.6144

> <Gold.Chemscore.Internal.Correction>
   9.000000E+99

> <Gold.Chemscore.Hbonds>
donor molecule, donor type, donor heavy atom, donor atom, acceptor molecule, acceptor atom, score
      L1  H     1    29       P1  7948  0.94

> <Gold.Chemscore.Hbond.Weighted>
-3.3237

> <Gold.Chemscore.Metal.Weighted>
-0.0000

> <Gold.Chemscore.Lipo.Weighted>
-11.8253

> <Gold.Chemscore.Internal_Hbond.Weighted>
0.0000

> <Gold.Chemscore.DEClash.Weighted>
0.0901

> <Gold.Chemscore.DEInternal.Weighted>
2.8582

> <Gold.Chemscore.Rot.Weighted>
6.6929

> <Gold.Chemscore.Internal.Correction.Weighted>
   9.000000E+99

> <Gold.Protein.RotatedTorsions>
[ 6907 6896 6895 6894 ] final  -41.30 input  -60.11 | X-H torsion
[ 7974 7965 7964 7962 ] final   81.88 input  175.53 | X-H torsion
[ 8008 7997 7996 7995 ] final   24.65 input   59.86 | X-H torsion
[ 10167 10162 10161 10158 ] final   61.43 input  -65.29 | X-H torsion
[ 10718 10713 10712 10709 ] final -138.35 input   66.30 | X-H torsion
[ 10763 10752 10751 10750 ] final   -7.00 input  -60.55 | X-H torsion
[ 11005 11000 10999 10996 ] final  -61.75 input  -57.11 | X-H torsion

> <Gold.Protein.ActiveResidues>
 VAL166  LYS551  ARG553  GLY616  TRP617  ASP618  TYR619  PRO620  LYS621  CYS622 
 ASP623  PHE694  ASN695  SER759  ASP760  ASP761  ALA762  ILE779  LEU786  VAL792 
 PHE793  MET794  SER795  GLU796  ALA797  LYS798  CYS799  TRP800  GLU811  SER814 

> <Gold.Protein.RotatedAtoms>
  150.9684  134.9061  159.7772 H   0  0  0  0  0  0  0  0  0  0  0  0  # atno 6907 bound_to 6896
  152.5181  134.3575  159.9283 H   0  0  0  0  0  0  0  0  0  0  0  0  # atno 6908 bound_to 6896
  151.3585  133.3857  159.2722 H   0  0  0  0  0  0  0  0  0  0  0  0  # atno 6909 bound_to 6896
  145.6324  139.2407  143.2077 H   0  0  0  0  0  0  0  0  0  0  0  0  # atno 7974 bound_to 7965
  154.9996  140.3123  155.4872 H   0  0  0  0  0  0  0  0  0  0  0  0  # atno 8008 bound_to 7997
  156.2927  140.2234  156.5046 H   0  0  0  0  0  0  0  0  0  0  0  0  # atno 8009 bound_to 7997
  154.7630  140.0458  157.0977 H   0  0  0  0  0  0  0  0  0  0  0  0  # atno 8010 bound_to 7997
  140.1548  144.4427  150.6740 H   0  0  0  0  0  0  0  0  0  0  0  0  # atno 10167 bound_to 10162
  156.2983  130.7414  151.1459 H   0  0  0  0  0  0  0  0  0  0  0  0  # atno 10718 bound_to 10713
  153.4202  135.7010  153.6299 H   0  0  0  0  0  0  0  0  0  0  0  0  # atno 10763 bound_to 10752
  153.4757  135.3705  155.2415 H   0  0  0  0  0  0  0  0  0  0  0  0  # atno 10764 bound_to 10752
  154.8721  135.4053  154.3569 H   0  0  0  0  0  0  0  0  0  0  0  0  # atno 10765 bound_to 10752
  141.1336  133.6633  156.5423 H   0  0  0  0  0  0  0  0  0  0  0  0  # atno 11005 bound_to 11000
  146.1346  140.7139  142.9396 LP  0  0  0  0  0  0  0  0  0  0  0  0  # atno 17320 bound_to 7965
  144.7189  140.4304  143.7023 LP  0  0  0  0  0  0  0  0  0  0  0  0  # atno 17321 bound_to 7965
  140.6680  143.2275  151.5696 LP  0  0  0  0  0  0  0  0  0  0  0  0  # atno 17342 bound_to 10162
  139.5408  144.2652  152.1347 LP  0  0  0  0  0  0  0  0  0  0  0  0  # atno 17343 bound_to 10162
  157.7361  131.0565  150.5432 LP  0  0  0  0  0  0  0  0  0  0  0  0  # atno 17370 bound_to 10713
  156.5556  130.4242  149.6087 LP  0  0  0  0  0  0  0  0  0  0  0  0  # atno 17371 bound_to 10713
  140.4129  134.7256  157.4846 LP  0  0  0  0  0  0  0  0  0  0  0  0  # atno 17394 bound_to 11000
  140.0414  134.6262  155.8976 LP  0  0  0  0  0  0  0  0  0  0  0  0  # atno 17395 bound_to 11000

$$$$
