AV-unprocessed.smi:1750|AV-procd|sdf|7052|dock3
  -GOLD-   22720 8263D 1   1.00000     0.00000
 Structure written by MMmdl.
 36 37  0  0  0  0  0  0  0  0  1 V2000
  152.3374  142.9193  158.6533 C   0  0  0  0  0  0  0  0  0  0  0  0
  151.6030  141.8065  157.8978 C   0  0  0  0  0  0  0  0  0  0  0  0
  151.0250  142.2864  156.5592 C   0  0  0  0  0  0  0  0  0  0  0  0
  150.5823  141.1578  155.6888 C   0  0  0  0  0  0  0  0  0  0  0  0
  151.4364  140.2706  155.1623 N   0  0  0  0  0  0  0  0  0  0  0  0
  150.7975  139.3302  154.3651 N   0  0  0  0  0  0  0  0  0  0  0  0
  149.4802  139.5439  154.2993 C   0  0  0  0  0  0  0  0  0  0  0  0
  148.6981  138.6584  153.5166 N   0  0  0  0  0  0  0  0  0  0  0  0
  147.3662  138.6654  153.3454 C   0  0  0  0  0  0  0  0  0  0  0  0
  146.5891  139.4799  153.8430 O   0  0  0  0  0  0  0  0  0  0  0  0
  146.9745  137.6593  152.5506 N   0  0  0  0  0  0  0  0  0  0  0  0
  145.5928  137.3693  152.1840 C   0  0  0  0  0  0  0  0  0  0  0  0
  145.4816  136.0423  151.4148 C   0  0  2  0  0  0  0  0  0  0  0  0
  144.0575  135.4976  151.3276 C   0  0  0  0  0  0  0  0  0  0  0  0
  144.2597  134.0037  151.1259 C   0  0  0  0  0  0  0  0  0  0  0  0
  145.7200  133.7671  151.5228 C   0  0  0  0  0  0  0  0  0  0  0  0
  146.1556  134.9935  152.0920 O   0  0  0  0  0  0  0  0  0  0  0  0
  148.9016  140.9320  155.2207 S   0  0  0  0  0  0  0  0  0  0  0  0
  152.7348  142.5496  159.5988 H   0  0  0  0  0  0  0  0  0  0  0  0
  151.6693  143.7519  158.8756 H   0  0  0  0  0  0  0  0  0  0  0  0
  153.1734  143.3058  158.0697 H   0  0  0  0  0  0  0  0  0  0  0  0
  152.2908  140.9783  157.7231 H   0  0  0  0  0  0  0  0  0  0  0  0
  150.8003  141.4152  158.5241 H   0  0  0  0  0  0  0  0  0  0  0  0
  150.1769  142.9502  156.7325 H   0  0  0  0  0  0  0  0  0  0  0  0
  151.7707  142.8689  156.0171 H   0  0  0  0  0  0  0  0  0  0  0  0
  149.2118  137.9330  153.0384 H   0  0  0  0  0  0  0  0  0  0  0  0
  147.6814  137.0389  152.1841 H   0  0  0  0  0  0  0  0  0  0  0  0
  144.9478  137.3637  153.0645 H   0  0  0  0  0  0  0  0  0  0  0  0
  145.2434  138.1859  151.5519 H   0  0  0  0  0  0  0  0  0  0  0  0
  145.8987  136.1460  150.4109 H   0  0  0  0  0  0  0  0  0  0  0  0
  143.5308  135.6692  152.2675 H   0  0  0  0  0  0  0  0  0  0  0  0
  143.4779  135.9601  150.5282 H   0  0  0  0  0  0  0  0  0  0  0  0
  143.5722  133.4291  151.7476 H   0  0  0  0  0  0  0  0  0  0  0  0
  144.0937  133.7156  150.0871 H   0  0  0  0  0  0  0  0  0  0  0  0
  145.8347  132.9455  152.2302 H   0  0  0  0  0  0  0  0  0  0  0  0
  146.3259  133.5457  150.6430 H   0  0  0  0  0  0  0  0  0  0  0  0
  1  2  1  0  0  0  0
  1 19  1  0  0  0  0
  1 20  1  0  0  0  0
  1 21  1  0  0  0  0
  2  3  1  0  0  0  0
  2 22  1  0  0  0  0
  2 23  1  0  0  0  0
  3  4  1  0  0  0  0
  3 24  1  0  0  0  0
  3 25  1  0  0  0  0
  4 18  1  0  0  0  0
  4  5  2  0  0  0  0
  5  6  1  0  0  0  0
  6  7  2  0  0  0  0
  7  8  1  0  0  0  0
  7 18  1  0  0  0  0
  8  9  1  0  0  0  0
  8 26  1  0  0  0  0
  9 10  2  0  0  0  0
  9 11  1  0  0  0  0
 11 12  1  0  0  0  0
 11 27  1  0  0  0  0
 12 13  1  0  0  0  0
 12 28  1  0  0  0  0
 12 29  1  0  0  0  0
 13 17  1  0  0  0  0
 13 14  1  0  0  0  0
 13 30  1  0  0  0  0
 14 15  1  0  0  0  0
 14 31  1  0  0  0  0
 14 32  1  0  0  0  0
 15 16  1  0  0  0  0
 15 33  1  0  0  0  0
 15 34  1  0  0  0  0
 16 17  1  0  0  0  0
 16 35  1  0  0  0  0
 16 36  1  0  0  0  0
M  END
> <s_m_source_file>
AV-unprocessed.smi

> <i_m_source_file_index>
1750

> <i_lp_mmshare_version>
43012

> <i_f3d_flags>
0

> <s_epik_input>
W0NIM11bQ0gyXVtDSDJdYzFubmMoczEpW05IXUMoPU8pW05IXVtDSDJdW0NAQEhdMltDSDJdW0NIMl1bQ0gyXU8y

> <s_epik_cmdline>
J2VwaWtfcHl0aG9uJywgJy1waCcsICc3LjAnLCAnLXRuJywgJzgnLCAnLW1hJywgJzIwMCcsICctbWV0YWxfYmluZGluZycsICctaW1hZScsICc8aW5maWxlLm1hZT4nLCAnLW9tYWUnLCAnPG91dGZpbGUubWFlPic=

> <r_lp_tautomer_probability>
1

> <r_epik_Ionization_Penalty>
0.000503051

> <r_epik_Ionization_Penalty_Charging>
0

> <r_epik_Ionization_Penalty_Neutral>
0.000503051

> <r_epik_State_Penalty>
-0

> <r_epik_Charging_Adjusted_Penalty>
0

> <i_epik_Tot_Q>
0

> <i_epik_Tot_abs_Q>
0

> <r_epik_Metal_State_Penalty>
0.219912

> <b_epik_Metal_Only>
0

> <s_lp_Force_Field>
OPLS_2005

> <r_lp_Energy>
10.1721

> <b_lp_Chiralities_Consistent>
1

> <s_lp_Variant>
AV-unprocessed.smi:1750-1

> <Gold.Version>
5.8.1

> <Gold.Id.Protein>
6NUR|6NUR_protein|mol2

> <Gold.PLP.Fitness>
38.4245

> <Gold.PLP.PLP>
-33.2260

> <Gold.PLP.part.hbond>
-4.9882

> <Gold.PLP.part.metal>
0.0000

> <Gold.PLP.part.buried>
-4.6048

> <Gold.PLP.part.nonpolar>
-24.9808

> <Gold.PLP.part.repulsive>
1.0288

> <Gold.PLP.ligand.clash>
0.0000

> <Gold.PLP.ligand.torsion>
0.1772

> <Gold.PLP.Chemscore.Hbond>
1.8437

> <Gold.PLP.Chemscore.CHOScore>
0.0000

> <Gold.PLP.Chemscore.Metal>
0.0000

> <Gold.Chemscore.Hbonds>
donor molecule, donor type, donor heavy atom, donor atom, acceptor molecule, acceptor atom, score
      L1  H     8    26       P1  7948  0.81
      L1  H    11    27       P1  7948  0.99

> <Gold.PLP.Chemscore.Internal.Correction>
0.0219

> <Gold.Rescore>
     Score         DG    S(hbond)    S(metal)    S(lipo)     H(rot)  DE(clash)    DE(int)     intcor
     14.44     -15.33       1.87        0.00      66.41       1.63       0.04       0.85       ----

> <Gold.Chemscore.Fitness>
14.4393

> <Gold.Chemscore.DG>
-15.3269

> <Gold.Chemscore.ZeroCoef>
-5.4800

> <Gold.Chemscore.Hbond>
1.8720

> <Gold.Chemscore.Metal>
0.0000

> <Gold.Chemscore.Lipo>
66.4103

> <Gold.Chemscore.Internal_Hbond>
0.0000

> <Gold.Chemscore.DEClash>
0.0380

> <Gold.Chemscore.DEInternal>
0.8496

> <Gold.Chemscore.Rot>
1.6311

> <Gold.Chemscore.Internal.Correction>
   9.000000E+99

> <Gold.Chemscore.Hbonds>
donor molecule, donor type, donor heavy atom, donor atom, acceptor molecule, acceptor atom, score
      L1  H     8    26       P1  7948  0.77
      L1  H    11    27       P1  7948  0.92

> <Gold.Chemscore.Hbond.Weighted>
-6.2526

> <Gold.Chemscore.Metal.Weighted>
-0.0000

> <Gold.Chemscore.Lipo.Weighted>
-7.7700

> <Gold.Chemscore.Internal_Hbond.Weighted>
0.0000

> <Gold.Chemscore.DEClash.Weighted>
0.0380

> <Gold.Chemscore.DEInternal.Weighted>
0.8496

> <Gold.Chemscore.Rot.Weighted>
4.1757

> <Gold.Chemscore.Internal.Correction.Weighted>
   9.000000E+99

> <Gold.Protein.RotatedTorsions>
[ 6907 6896 6895 6894 ] final -139.96 input  -60.11 | X-H torsion
[ 7974 7965 7964 7962 ] final  126.59 input  175.53 | X-H torsion
[ 8008 7997 7996 7995 ] final  -64.16 input   59.86 | X-H torsion
[ 10167 10162 10161 10158 ] final   85.78 input  -65.29 | X-H torsion
[ 10718 10713 10712 10709 ] final  -52.93 input   66.30 | X-H torsion
[ 10763 10752 10751 10750 ] final   75.32 input  -60.55 | X-H torsion
[ 11005 11000 10999 10996 ] final -103.80 input  -57.11 | X-H torsion

> <Gold.Protein.ActiveResidues>
 VAL166  LYS551  ARG553  GLY616  TRP617  ASP618  TYR619  PRO620  LYS621  CYS622 
 ASP623  PHE694  ASN695  SER759  ASP760  ASP761  ALA762  ILE779  LEU786  VAL792 
 PHE793  MET794  SER795  GLU796  ALA797  LYS798  CYS799  TRP800  GLU811  SER814 

> <Gold.Protein.RotatedAtoms>
  151.0545  133.5596  159.2639 H   0  0  0  0  0  0  0  0  0  0  0  0  # atno 6907 bound_to 6896
  151.2594  135.0648  159.9102 H   0  0  0  0  0  0  0  0  0  0  0  0  # atno 6908 bound_to 6896
  152.5387  134.0293  159.8071 H   0  0  0  0  0  0  0  0  0  0  0  0  # atno 6909 bound_to 6896
  145.0601  139.3812  143.5010 H   0  0  0  0  0  0  0  0  0  0  0  0  # atno 7974 bound_to 7965
  154.4596  140.0959  156.6855 H   0  0  0  0  0  0  0  0  0  0  0  0  # atno 8008 bound_to 7997
  155.5035  140.3474  155.4357 H   0  0  0  0  0  0  0  0  0  0  0  0  # atno 8009 bound_to 7997
  156.0844  140.1381  156.9660 H   0  0  0  0  0  0  0  0  0  0  0  0  # atno 8010 bound_to 7997
  139.8943  144.6367  150.8705 H   0  0  0  0  0  0  0  0  0  0  0  0  # atno 10167 bound_to 10162
  156.1579  130.4150  149.9840 H   0  0  0  0  0  0  0  0  0  0  0  0  # atno 10718 bound_to 10713
  153.0647  135.4993  154.8172 H   0  0  0  0  0  0  0  0  0  0  0  0  # atno 10763 bound_to 10752
  154.6935  135.2988  154.9447 H   0  0  0  0  0  0  0  0  0  0  0  0  # atno 10764 bound_to 10752
  154.0194  135.6744  153.4824 H   0  0  0  0  0  0  0  0  0  0  0  0  # atno 10765 bound_to 10752
  141.1130  133.8670  157.1531 H   0  0  0  0  0  0  0  0  0  0  0  0  # atno 11005 bound_to 11000
  146.3524  140.0294  142.8652 LP  0  0  0  0  0  0  0  0  0  0  0  0  # atno 17320 bound_to 7965
  145.1420  140.9576  143.4483 LP  0  0  0  0  0  0  0  0  0  0  0  0  # atno 17321 bound_to 7965
  140.7720  143.3486  151.2060 LP  0  0  0  0  0  0  0  0  0  0  0  0  # atno 17342 bound_to 10162
  139.7082  143.9420  152.2936 LP  0  0  0  0  0  0  0  0  0  0  0  0  # atno 17343 bound_to 10162
  156.7678  130.9175  151.3643 LP  0  0  0  0  0  0  0  0  0  0  0  0  # atno 17370 bound_to 10713
  157.6709  130.9050  150.0039 LP  0  0  0  0  0  0  0  0  0  0  0  0  # atno 17371 bound_to 10713
  140.0034  135.0018  157.0240 LP  0  0  0  0  0  0  0  0  0  0  0  0  # atno 17394 bound_to 11000
  140.4724  134.1372  155.7205 LP  0  0  0  0  0  0  0  0  0  0  0  0  # atno 17395 bound_to 11000

$$$$
