AV-unprocessed.smi:2078|AV-procd|sdf|8474|dock7
  -GOLD-   2272011173D 1   1.00000     0.00000
 Structure written by MMmdl.
 41 42  0  0  0  0  0  0  0  0  3 V2000
  150.1700  141.0403  155.8394 C   0  0  0  0  0  0  0  0  0  0  0  0
  150.6192  139.7105  155.3392 C   0  0  0  0  0  0  0  0  0  0  0  0
  149.9976  138.4985  155.2310 C   0  0  0  0  0  0  0  0  0  0  0  0
  151.0056  137.6692  154.6710 C   0  0  0  0  0  0  0  0  0  0  0  0
  150.7503  136.2982  154.4039 N   0  0  0  0  0  0  0  0  0  0  0  0
  149.9448  135.4487  155.0663 C   0  0  0  0  0  0  0  0  0  0  0  0
  149.3388  135.8220  156.0781 O   0  0  0  0  0  0  0  0  0  0  0  0
  149.8966  134.2182  154.4839 N   0  5  0  0  0  0  0  0  0  0  0  0
  148.6684  133.4862  154.1578 C   0  0  0  0  0  0  0  0  0  0  0  0
  147.4493  134.4335  154.1684 C   0  0  0  0  0  0  0  0  0  0  0  0
  146.8449  134.5787  152.8169 N   0  3  2  0  0  0  0  0  0  0  0  0
  145.6857  135.5086  152.7696 C   0  0  0  0  0  0  0  0  0  0  0  0
  145.2546  135.7640  151.3172 C   0  0  0  0  0  0  0  0  0  0  0  0
  144.9339  134.4453  150.6006 C   0  0  0  0  0  0  0  0  0  0  0  0
  146.1300  133.4813  150.6919 C   0  0  2  0  0  0  0  0  0  0  0  0
  145.8283  132.1430  150.0036 C   0  0  0  0  0  0  0  0  0  0  0  0
  146.5429  133.2796  152.1636 C   0  0  0  0  0  0  0  0  0  0  0  0
  152.1421  138.3172  154.4610 N   0  0  0  0  0  0  0  0  0  0  0  0
  151.8997  139.6285  154.8866 O   0  0  0  0  0  0  0  0  0  0  0  0
  149.1522  140.9877  156.2260 H   0  0  0  0  0  0  0  0  0  0  0  0
  150.1903  141.7806  155.0394 H   0  0  0  0  0  0  0  0  0  0  0  0
  150.8190  141.3904  156.6423 H   0  0  0  0  0  0  0  0  0  0  0  0
  148.9842  138.2477  155.5068 H   0  0  0  0  0  0  0  0  0  0  0  0
  151.2273  135.9147  153.6013 H   0  0  0  0  0  0  0  0  0  0  0  0
  148.7417  133.0333  153.1693 H   0  0  0  0  0  0  0  0  0  0  0  0
  148.4838  132.6553  154.8400 H   0  0  0  0  0  0  0  0  0  0  0  0
  146.7150  134.0462  154.8766 H   0  0  0  0  0  0  0  0  0  0  0  0
  147.7382  135.4126  154.5535 H   0  0  0  0  0  0  0  0  0  0  0  0
  144.8570  135.0905  153.3429 H   0  0  0  0  0  0  0  0  0  0  0  0
  145.9500  136.4573  153.2382 H   0  0  0  0  0  0  0  0  0  0  0  0
  144.3855  136.4220  151.2951 H   0  0  0  0  0  0  0  0  0  0  0  0
  146.0525  136.2857  150.7863 H   0  0  0  0  0  0  0  0  0  0  0  0
  144.0516  133.9886  151.0514 H   0  0  0  0  0  0  0  0  0  0  0  0
  144.6849  134.6419  149.5572 H   0  0  0  0  0  0  0  0  0  0  0  0
  146.9718  133.9377  150.1677 H   0  0  0  0  0  0  0  0  0  0  0  0
  144.9953  131.6285  150.4838 H   0  0  0  0  0  0  0  0  0  0  0  0
  146.6937  131.4805  150.0385 H   0  0  0  0  0  0  0  0  0  0  0  0
  145.5693  132.2905  148.9548 H   0  0  0  0  0  0  0  0  0  0  0  0
  147.4292  132.6444  152.2013 H   0  0  0  0  0  0  0  0  0  0  0  0
  145.7567  132.7659  152.7191 H   0  0  0  0  0  0  0  0  0  0  0  0
  147.5739  134.9999  152.2564 H   0  0  0  0  0  0  0  0  0  0  0  0
  1  2  1  0  0  0  0
  1 20  1  0  0  0  0
  1 21  1  0  0  0  0
  1 22  1  0  0  0  0
  2 19  1  0  0  0  0
  2  3  2  0  0  0  0
  3  4  1  0  0  0  0
  3 23  1  0  0  0  0
  4  5  1  0  0  0  0
  4 18  2  0  0  0  0
  5  6  1  0  0  0  0
  5 24  1  0  0  0  0
  6  7  2  0  0  0  0
  6  8  1  0  0  0  0
  8  9  1  0  0  0  0
  9 10  1  0  0  0  0
  9 25  1  0  0  0  0
  9 26  1  0  0  0  0
 10 11  1  0  0  0  0
 10 27  1  0  0  0  0
 10 28  1  0  0  0  0
 11 17  1  0  0  0  0
 11 12  1  0  0  0  0
 11 41  1  0  0  0  0
 12 13  1  0  0  0  0
 12 29  1  0  0  0  0
 12 30  1  0  0  0  0
 13 14  1  0  0  0  0
 13 31  1  0  0  0  0
 13 32  1  0  0  0  0
 14 15  1  0  0  0  0
 14 33  1  0  0  0  0
 14 34  1  0  0  0  0
 15 16  1  0  0  0  0
 15 17  1  0  0  0  0
 15 35  1  0  0  0  0
 16 36  1  0  0  0  0
 16 37  1  0  0  0  0
 16 38  1  0  0  0  0
 17 39  1  0  0  0  0
 17 40  1  0  0  0  0
 18 19  1  0  0  0  0
M  CHG  1   8  -1
M  CHG  1  11   1
M  END
> <s_m_source_file>
AV-unprocessed.smi

> <i_m_source_file_index>
2078

> <i_lp_mmshare_version>
43012

> <i_f3d_flags>
0

> <s_epik_input>
W0NIM11jMVtjSF1jKG5vMSlbTkhdQyg9TylbTkhdW0NIMl1bQ0gyXU4yW0NIMl1bQ0gyXVtDSDJdW0NAQEhdKFtDSDNdKVtDSDJdMg==

> <s_epik_cmdline>
J2VwaWtfcHl0aG9uJywgJy1waCcsICc3LjAnLCAnLXRuJywgJzgnLCAnLW1hJywgJzIwMCcsICctbWV0YWxfYmluZGluZycsICctaW1hZScsICc8aW5maWxlLm1hZT4nLCAnLW9tYWUnLCAnPG91dGZpbGUubWFlPic=

> <r_epik_Ionization_Penalty>
6.76934

> <r_epik_Ionization_Penalty_Charging>
6.76934

> <r_epik_Ionization_Penalty_Neutral>
5.77849e-06

> <r_epik_State_Penalty>
6.79457

> <r_epik_Charging_Adjusted_Penalty>
13.5639

> <i_epik_Tot_Q>
0

> <i_epik_Tot_abs_Q>
2

> <r_epik_Metal_State_Penalty>
2.72837

> <b_epik_Metal_Only>
1

> <s_lp_Force_Field>
OPLS_2005

> <r_lp_Energy>
9.58201

> <b_lp_Chiralities_Consistent>
1

> <s_lp_Variant>
AV-unprocessed.smi:2078-12

> <Gold.Version>
5.8.1

> <Gold.Id.Protein>
6NUR|6NUR_protein|mol2

> <Gold.PLP.Fitness>
42.4250

> <Gold.PLP.PLP>
-33.0253

> <Gold.PLP.part.hbond>
-4.0000

> <Gold.PLP.part.metal>
0.0000

> <Gold.PLP.part.buried>
-3.3944

> <Gold.PLP.part.nonpolar>
-26.2291

> <Gold.PLP.part.repulsive>
0.4698

> <Gold.PLP.ligand.clash>
0.0000

> <Gold.PLP.ligand.torsion>
1.1442

> <Gold.PLP.Chemscore.Hbond>
3.8800

> <Gold.PLP.Chemscore.CHOScore>
0.0000

> <Gold.PLP.Chemscore.Metal>
0.0000

> <Gold.Chemscore.Hbonds>
donor molecule, donor type, donor heavy atom, donor atom, acceptor molecule, acceptor atom, score
      L1  H     5    24       P1  7949  0.66
      L1  H    11    41       P1  7948  2.00
      P1  H  7989  7998       L1    19  0.73

> <Gold.PLP.Chemscore.Internal.Correction>
0.0481

> <Gold.Rescore>
     Score         DG    S(hbond)    S(metal)    S(lipo)     H(rot)  DE(clash)    DE(int)     intcor
     11.67     -15.28       1.81        0.00      65.97       1.54       0.21       3.41       ----

> <Gold.Chemscore.Fitness>
11.6674

> <Gold.Chemscore.DG>
-15.2822

> <Gold.Chemscore.ZeroCoef>
-5.4800

> <Gold.Chemscore.Hbond>
1.8051

> <Gold.Chemscore.Metal>
0.0000

> <Gold.Chemscore.Lipo>
65.9654

> <Gold.Chemscore.Internal_Hbond>
0.0000

> <Gold.Chemscore.DEClash>
0.2089

> <Gold.Chemscore.DEInternal>
3.4059

> <Gold.Chemscore.Rot>
1.5409

> <Gold.Chemscore.Internal.Correction>
   9.000000E+99

> <Gold.Chemscore.Hbonds>
donor molecule, donor type, donor heavy atom, donor atom, acceptor molecule, acceptor atom, score
      L1  H     5    24       P1  7949  0.29
      L1  H    11    41       P1  7948  0.95
      P1  H  7989  7998       L1    19  0.08

> <Gold.Chemscore.Hbond.Weighted>
-6.0289

> <Gold.Chemscore.Metal.Weighted>
-0.0000

> <Gold.Chemscore.Lipo.Weighted>
-7.7180

> <Gold.Chemscore.Internal_Hbond.Weighted>
0.0000

> <Gold.Chemscore.DEClash.Weighted>
0.2089

> <Gold.Chemscore.DEInternal.Weighted>
3.4059

> <Gold.Chemscore.Rot.Weighted>
3.9446

> <Gold.Chemscore.Internal.Correction.Weighted>
   9.000000E+99

> <Gold.Protein.RotatedTorsions>
[ 6907 6896 6895 6894 ] final  -13.03 input  -60.11 | X-H torsion
[ 7974 7965 7964 7962 ] final  114.90 input  175.53 | X-H torsion
[ 8008 7997 7996 7995 ] final -123.93 input   59.86 | X-H torsion
[ 10167 10162 10161 10158 ] final  106.20 input  -65.29 | X-H torsion
[ 10718 10713 10712 10709 ] final  122.10 input   66.30 | X-H torsion
[ 10763 10752 10751 10750 ] final  -44.37 input  -60.55 | X-H torsion
[ 11005 11000 10999 10996 ] final   38.86 input  -57.11 | X-H torsion

> <Gold.Protein.ActiveResidues>
 VAL166  LYS551  ARG553  GLY616  TRP617  ASP618  TYR619  PRO620  LYS621  CYS622 
 ASP623  PHE694  ASN695  SER759  ASP760  ASP761  ALA762  ILE779  LEU786  VAL792 
 PHE793  MET794  SER795  GLU796  ALA797  LYS798  CYS799  TRP800  GLU811  SER814 

> <Gold.Protein.RotatedAtoms>
  151.3612  135.0904  159.9434 H   0  0  0  0  0  0  0  0  0  0  0  0  # atno 6907 bound_to 6896
  152.5161  133.9256  159.7566 H   0  0  0  0  0  0  0  0  0  0  0  0  # atno 6908 bound_to 6896
  150.9651  133.6349  159.2777 H   0  0  0  0  0  0  0  0  0  0  0  0  # atno 6909 bound_to 6896
  145.1987  139.2963  143.4330 H   0  0  0  0  0  0  0  0  0  0  0  0  # atno 7974 bound_to 7965
  155.1886  140.0412  157.2896 H   0  0  0  0  0  0  0  0  0  0  0  0  # atno 8008 bound_to 7997
  154.6154  140.2487  155.7588 H   0  0  0  0  0  0  0  0  0  0  0  0  # atno 8009 bound_to 7997
  156.2403  140.2906  156.0436 H   0  0  0  0  0  0  0  0  0  0  0  0  # atno 8010 bound_to 7997
  139.7029  144.7091  151.1155 H   0  0  0  0  0  0  0  0  0  0  0  0  # atno 10167 bound_to 10162
  157.5768  131.1078  150.8264 H   0  0  0  0  0  0  0  0  0  0  0  0  # atno 10718 bound_to 10713
  154.0109  135.6681  153.4765 H   0  0  0  0  0  0  0  0  0  0  0  0  # atno 10763 bound_to 10752
  153.0621  135.5022  154.8113 H   0  0  0  0  0  0  0  0  0  0  0  0  # atno 10764 bound_to 10752
  154.6996  135.3076  154.9325 H   0  0  0  0  0  0  0  0  0  0  0  0  # atno 10765 bound_to 10752
  140.2085  134.3784  155.8060 H   0  0  0  0  0  0  0  0  0  0  0  0  # atno 11005 bound_to 11000
  146.3422  140.2224  142.8591 LP  0  0  0  0  0  0  0  0  0  0  0  0  # atno 17320 bound_to 7965
  144.9969  140.8597  143.5305 LP  0  0  0  0  0  0  0  0  0  0  0  0  # atno 17321 bound_to 7965
  140.7714  143.5399  150.9325 LP  0  0  0  0  0  0  0  0  0  0  0  0  # atno 17342 bound_to 10162
  139.9081  143.6754  152.3120 LP  0  0  0  0  0  0  0  0  0  0  0  0  # atno 17343 bound_to 10162
  156.8721  130.5149  149.5296 LP  0  0  0  0  0  0  0  0  0  0  0  0  # atno 17370 bound_to 10713
  156.0813  130.5822  150.9567 LP  0  0  0  0  0  0  0  0  0  0  0  0  # atno 17371 bound_to 10713
  141.2226  133.7130  156.8378 LP  0  0  0  0  0  0  0  0  0  0  0  0  # atno 17394 bound_to 11000
  140.1977  134.8920  157.3133 LP  0  0  0  0  0  0  0  0  0  0  0  0  # atno 17395 bound_to 11000

$$$$
