AV-unprocessed.smi:630|AV-procd|sdf|3119|dock3
  -GOLD-   22720 0 43D 1   1.00000     0.00000
 Structure written by MMmdl.
 37 38  0  0  0  0  0  0  0  0  1 V2000
  148.4910  134.1995  153.7929 N   0  0  0  0  0  0  0  0  0  0  0  0
  147.3936  133.4594  153.9731 C   0  0  0  0  0  0  0  0  0  0  0  0
  147.2725  132.7004  154.9339 O   0  0  0  0  0  0  0  0  0  0  0  0
  146.2646  133.6048  152.9313 C   0  0  2  0  0  0  0  0  0  0  0  0
  146.6996  133.0644  151.5468 C   0  0  0  0  0  0  0  0  0  0  0  0
  145.5675  132.3082  150.8266 C   0  0  0  0  0  0  0  0  0  0  0  0
  144.4419  133.1995  150.2774 C   0  0  0  0  0  0  0  0  0  0  0  0
  143.7797  134.1287  151.3112 C   0  0  0  0  0  0  0  0  0  0  0  0
  144.6844  135.3060  151.7131 C   0  0  0  0  0  0  0  0  0  0  0  0
  145.6611  135.0410  152.8836 C   0  0  2  0  0  0  0  0  0  0  0  0
  146.6928  136.0823  152.8781 N   0  0  0  0  0  0  0  0  0  0  0  0
  146.5700  137.3069  153.4100 C   0  0  0  0  0  0  0  0  0  0  0  0
  145.5458  137.7084  153.9626 O   0  0  0  0  0  0  0  0  0  0  0  0
  147.6994  138.0168  153.2573 N   0  0  0  0  0  0  0  0  0  0  0  0
  147.9509  139.3467  153.6756 C   0  0  0  0  0  0  0  0  0  0  0  0
  149.1718  139.6671  154.1081 N   0  0  0  0  0  0  0  0  0  0  0  0
  149.2604  141.0113  154.4812 C   0  0  0  0  0  0  0  0  0  0  0  0
  148.0864  141.7059  154.3258 C   0  0  0  0  0  0  0  0  0  0  0  0
  146.8120  140.6955  153.6991 S   0  0  0  0  0  0  0  0  0  0  0  0
  149.2546  134.1303  154.4500 H   0  0  0  0  0  0  0  0  0  0  0  0
  148.5564  134.8216  153.0004 H   0  0  0  0  0  0  0  0  0  0  0  0
  145.4705  132.9463  153.2877 H   0  0  0  0  0  0  0  0  0  0  0  0
  147.0850  133.8677  150.9178 H   0  0  0  0  0  0  0  0  0  0  0  0
  147.5271  132.3622  151.6616 H   0  0  0  0  0  0  0  0  0  0  0  0
  145.9963  131.7527  149.9920 H   0  0  0  0  0  0  0  0  0  0  0  0
  145.1464  131.5534  151.4918 H   0  0  0  0  0  0  0  0  0  0  0  0
  144.8217  133.7926  149.4446 H   0  0  0  0  0  0  0  0  0  0  0  0
  143.6755  132.5529  149.8490 H   0  0  0  0  0  0  0  0  0  0  0  0
  142.8806  134.5406  150.8518 H   0  0  0  0  0  0  0  0  0  0  0  0
  143.4369  133.5742  152.1853 H   0  0  0  0  0  0  0  0  0  0  0  0
  145.2343  135.6447  150.8335 H   0  0  0  0  0  0  0  0  0  0  0  0
  144.0501  136.1490  151.9908 H   0  0  0  0  0  0  0  0  0  0  0  0
  145.0880  135.1450  153.8075 H   0  0  0  0  0  0  0  0  0  0  0  0
  147.5740  135.8395  152.4490 H   0  0  0  0  0  0  0  0  0  0  0  0
  148.4638  137.5566  152.7852 H   0  0  0  0  0  0  0  0  0  0  0  0
  150.2016  141.3923  154.8489 H   0  0  0  0  0  0  0  0  0  0  0  0
  147.8945  142.7465  154.5410 H   0  0  0  0  0  0  0  0  0  0  0  0
  1  2  1  0  0  0  0
  1 20  1  0  0  0  0
  1 21  1  0  0  0  0
  2  3  2  0  0  0  0
  2  4  1  0  0  0  0
  4 10  1  0  0  0  0
  4  5  1  0  0  0  0
  4 22  1  0  0  0  0
  5  6  1  0  0  0  0
  5 23  1  0  0  0  0
  5 24  1  0  0  0  0
  6  7  1  0  0  0  0
  6 25  1  0  0  0  0
  6 26  1  0  0  0  0
  7  8  1  0  0  0  0
  7 27  1  0  0  0  0
  7 28  1  0  0  0  0
  8  9  1  0  0  0  0
  8 29  1  0  0  0  0
  8 30  1  0  0  0  0
  9 10  1  0  0  0  0
  9 31  1  0  0  0  0
  9 32  1  0  0  0  0
 10 11  1  0  0  0  0
 10 33  1  0  0  0  0
 11 12  1  0  0  0  0
 11 34  1  0  0  0  0
 12 13  2  0  0  0  0
 12 14  1  0  0  0  0
 14 15  1  0  0  0  0
 14 35  1  0  0  0  0
 15 19  1  0  0  0  0
 15 16  2  0  0  0  0
 16 17  1  0  0  0  0
 17 18  2  0  0  0  0
 17 36  1  0  0  0  0
 18 19  1  0  0  0  0
 18 37  1  0  0  0  0
M  END
> <s_m_source_file>
AV-unprocessed.smi

> <i_m_source_file_index>
630

> <i_lp_mmshare_version>
43012

> <i_f3d_flags>
0

> <s_epik_input>
W05IMl1DKD1PKVtDQEBIXTFbQ0gyXVtDSDJdW0NIMl1bQ0gyXVtDSDJdW0NASF0xW05IXUMoPU8pW05IXWMybltjSF1bY0hdczI=

> <s_epik_cmdline>
J2VwaWtfcHl0aG9uJywgJy1waCcsICc3LjAnLCAnLXRuJywgJzgnLCAnLW1hJywgJzIwMCcsICctbWV0YWxfYmluZGluZycsICctaW1hZScsICc8aW5maWxlLm1hZT4nLCAnLW9tYWUnLCAnPG91dGZpbGUubWFlPic=

> <r_lp_tautomer_probability>
0.999

> <r_epik_Ionization_Penalty>
0.000342689

> <r_epik_Ionization_Penalty_Charging>
0

> <r_epik_Ionization_Penalty_Neutral>
0.000342689

> <r_epik_State_Penalty>
0.000177984

> <r_epik_Charging_Adjusted_Penalty>
0.000177984

> <i_epik_Tot_Q>
0

> <i_epik_Tot_abs_Q>
0

> <r_epik_Metal_State_Penalty>
0.00743087

> <b_epik_Metal_Only>
0

> <s_lp_Force_Field>
OPLS_2005

> <r_lp_Energy>
11.6017

> <b_lp_Chiralities_Consistent>
1

> <s_lp_Variant>
AV-unprocessed.smi:630-3

> <Gold.Version>
5.8.1

> <Gold.Id.Protein>
6NUR|6NUR_protein|mol2

> <Gold.PLP.Fitness>
38.8904

> <Gold.PLP.PLP>
-28.1838

> <Gold.PLP.part.hbond>
-2.8245

> <Gold.PLP.part.metal>
0.0000

> <Gold.PLP.part.buried>
-3.3022

> <Gold.PLP.part.nonpolar>
-23.1369

> <Gold.PLP.part.repulsive>
1.0920

> <Gold.PLP.ligand.clash>
0.0000

> <Gold.PLP.ligand.torsion>
0.6526

> <Gold.PLP.Chemscore.Hbond>
2.9600

> <Gold.PLP.Chemscore.CHOScore>
1.0000

> <Gold.PLP.Chemscore.Metal>
0.0000

> <Gold.Chemscore.Hbonds>
donor molecule, donor type, donor heavy atom, donor atom, acceptor molecule, acceptor atom, score
      L1  H     1    21       P1  7948  1.00
      L1  H    11    34       P1  7948  1.00
      L1  H    14    35       P1  7948  0.96
      L1  C    18    37       P1  8028  1.00

> <Gold.PLP.Chemscore.Internal.Correction>
0.1320

> <Gold.Rescore>
     Score         DG    S(hbond)    S(metal)    S(lipo)     H(rot)  DE(clash)    DE(int)     intcor
     15.94     -18.23       2.84        0.00      61.11       1.52       0.05       2.23       ----

> <Gold.Chemscore.Fitness>
15.9392

> <Gold.Chemscore.DG>
-18.2276

> <Gold.Chemscore.ZeroCoef>
-5.4800

> <Gold.Chemscore.Hbond>
2.8397

> <Gold.Chemscore.Metal>
0.0000

> <Gold.Chemscore.Lipo>
61.1129

> <Gold.Chemscore.Internal_Hbond>
0.0000

> <Gold.Chemscore.DEClash>
0.0537

> <Gold.Chemscore.DEInternal>
2.2346

> <Gold.Chemscore.Rot>
1.5184

> <Gold.Chemscore.Internal.Correction>
   9.000000E+99

> <Gold.Chemscore.Hbonds>
donor molecule, donor type, donor heavy atom, donor atom, acceptor molecule, acceptor atom, score
      L1  H     1    21       P1  7948  0.45
      L1  H    11    34       P1  7948  0.90
      L1  H    14    35       P1  7948  0.92

> <Gold.Chemscore.Hbond.Weighted>
-9.4845

> <Gold.Chemscore.Metal.Weighted>
-0.0000

> <Gold.Chemscore.Lipo.Weighted>
-7.1502

> <Gold.Chemscore.Internal_Hbond.Weighted>
0.0000

> <Gold.Chemscore.DEClash.Weighted>
0.0537

> <Gold.Chemscore.DEInternal.Weighted>
2.2346

> <Gold.Chemscore.Rot.Weighted>
3.8872

> <Gold.Chemscore.Internal.Correction.Weighted>
   9.000000E+99

> <Gold.Protein.RotatedTorsions>
[ 6907 6896 6895 6894 ] final   82.12 input  -60.11 | X-H torsion
[ 7974 7965 7964 7962 ] final  170.49 input  175.53 | X-H torsion
[ 8008 7997 7996 7995 ] final  -70.58 input   59.86 | X-H torsion
[ 10167 10162 10161 10158 ] final -167.27 input  -65.29 | X-H torsion
[ 10718 10713 10712 10709 ] final  144.26 input   66.30 | X-H torsion
[ 10763 10752 10751 10750 ] final   33.86 input  -60.55 | X-H torsion
[ 11005 11000 10999 10996 ] final   45.09 input  -57.11 | X-H torsion

> <Gold.Protein.ActiveResidues>
 VAL166  LYS551  ARG553  GLY616  TRP617  ASP618  TYR619  PRO620  LYS621  CYS622 
 ASP623  PHE694  ASN695  SER759  ASP760  ASP761  ALA762  ILE779  LEU786  VAL792 
 PHE793  MET794  SER795  GLU796  ALA797  LYS798  CYS799  TRP800  GLU811  SER814 

> <Gold.Protein.RotatedAtoms>
  152.5289  134.3099  159.9109 H   0  0  0  0  0  0  0  0  0  0  0  0  # atno 6907 bound_to 6896
  151.3049  133.4099  159.2650 H   0  0  0  0  0  0  0  0  0  0  0  0  # atno 6908 bound_to 6896
  151.0088  134.9396  159.8052 H   0  0  0  0  0  0  0  0  0  0  0  0  # atno 6909 bound_to 6896
  144.7322  139.9210  143.6420 H   0  0  0  0  0  0  0  0  0  0  0  0  # atno 7974 bound_to 7965
  154.5023  140.0831  156.7823 H   0  0  0  0  0  0  0  0  0  0  0  0  # atno 8008 bound_to 7997
  155.3974  140.3435  155.4237 H   0  0  0  0  0  0  0  0  0  0  0  0  # atno 8009 bound_to 7997
  156.1472  140.1547  156.8816 H   0  0  0  0  0  0  0  0  0  0  0  0  # atno 8010 bound_to 7997
  139.6060  144.0911  152.1794 H   0  0  0  0  0  0  0  0  0  0  0  0  # atno 10167 bound_to 10162
  157.3592  131.0962  151.0930 H   0  0  0  0  0  0  0  0  0  0  0  0  # atno 10718 bound_to 10713
  153.0192  135.6376  154.1577 H   0  0  0  0  0  0  0  0  0  0  0  0  # atno 10763 bound_to 10752
  154.1313  135.2840  155.3186 H   0  0  0  0  0  0  0  0  0  0  0  0  # atno 10764 bound_to 10752
  154.6192  135.5530  153.7618 H   0  0  0  0  0  0  0  0  0  0  0  0  # atno 10765 bound_to 10752
  140.1491  134.4484  155.8394 H   0  0  0  0  0  0  0  0  0  0  0  0  # atno 11005 bound_to 11000
  146.0929  139.3920  143.0394 LP  0  0  0  0  0  0  0  0  0  0  0  0  # atno 17320 bound_to 7965
  145.7685  140.9906  143.1162 LP  0  0  0  0  0  0  0  0  0  0  0  0  # atno 17321 bound_to 7965
  140.0519  144.5926  150.7330 LP  0  0  0  0  0  0  0  0  0  0  0  0  # atno 17342 bound_to 10162
  140.7285  143.2663  151.4035 LP  0  0  0  0  0  0  0  0  0  0  0  0  # atno 17343 bound_to 10162
  157.2077  130.6423  149.5762 LP  0  0  0  0  0  0  0  0  0  0  0  0  # atno 17370 bound_to 10713
  155.9734  130.4670  150.6310 LP  0  0  0  0  0  0  0  0  0  0  0  0  # atno 17371 bound_to 10713
  141.2196  133.6865  156.7389 LP  0  0  0  0  0  0  0  0  0  0  0  0  # atno 17394 bound_to 11000
  140.2627  134.8454  157.3773 LP  0  0  0  0  0  0  0  0  0  0  0  0  # atno 17395 bound_to 11000

$$$$
