AV-unprocessed.smi:874|AV-procd|sdf|4017|dock1
  -GOLD-   22720 1503D 1   1.00000     0.00000
 Structure written by MMmdl.
 39 41  0  0  0  0  0  0  0  0  1 V2000
  153.9733  140.0202  160.7368 C   0  0  0  0  0  0  0  0  0  0  0  0
  153.1607  140.8636  159.8684 N   0  0  0  0  0  0  0  0  0  0  0  0
  152.7710  140.5929  158.6011 C   0  0  0  0  0  0  0  0  0  0  0  0
  153.0476  139.5785  157.9610 O   0  0  0  0  0  0  0  0  0  0  0  0
  152.0246  141.6343  158.1579 N   0  0  0  0  0  0  0  0  0  0  0  0
  151.4086  141.7723  156.8348 C   0  0  0  0  0  0  0  0  0  0  0  0
  149.9153  141.3474  156.7694 C   0  0  0  0  0  0  0  0  0  0  0  0
  149.8481  139.9995  157.1977 O   0  0  0  0  0  0  0  0  0  0  0  0
  149.1029  142.1828  157.7892 C   0  0  0  0  0  0  0  0  0  0  0  0
  147.5938  141.8814  157.7587 C   0  0  0  0  0  0  0  0  0  0  0  0
  147.0218  142.0532  156.3454 C   0  0  0  0  0  0  0  0  0  0  0  0
  147.7750  141.1709  155.3411 C   0  0  0  0  0  0  0  0  0  0  0  0
  149.2863  141.4623  155.3567 C   0  0  0  0  0  0  0  0  0  0  0  0
  151.9620  142.6106  159.1642 C   0  0  0  0  0  0  0  0  0  0  0  0
  151.3432  143.8728  159.1961 C   0  0  0  0  0  0  0  0  0  0  0  0
  151.4709  144.6273  160.3858 C   0  0  0  0  0  0  0  0  0  0  0  0
  152.1993  144.1207  161.4935 C   0  0  0  0  0  0  0  0  0  0  0  0
  152.8165  142.8493  161.4340 C   0  0  0  0  0  0  0  0  0  0  0  0
  152.6727  142.1218  160.2402 C   0  0  0  0  0  0  0  0  0  0  0  0
  154.1749  139.0454  160.2908 H   0  0  0  0  0  0  0  0  0  0  0  0
  153.4634  139.8546  161.6863 H   0  0  0  0  0  0  0  0  0  0  0  0
  154.9293  140.5026  160.9415 H   0  0  0  0  0  0  0  0  0  0  0  0
  151.5317  142.7962  156.4789 H   0  0  0  0  0  0  0  0  0  0  0  0
  151.9840  141.1615  156.1372 H   0  0  0  0  0  0  0  0  0  0  0  0
  149.7060  139.9903  158.1320 H   0  0  0  0  0  0  0  0  0  0  0  0
  149.4875  142.0258  158.7981 H   0  0  0  0  0  0  0  0  0  0  0  0
  149.2439  143.2437  157.5773 H   0  0  0  0  0  0  0  0  0  0  0  0
  147.4102  140.8646  158.1080 H   0  0  0  0  0  0  0  0  0  0  0  0
  147.0716  142.5413  158.4517 H   0  0  0  0  0  0  0  0  0  0  0  0
  145.9606  141.8024  156.3400 H   0  0  0  0  0  0  0  0  0  0  0  0
  147.0951  143.0989  156.0433 H   0  0  0  0  0  0  0  0  0  0  0  0
  147.5986  140.1199  155.5731 H   0  0  0  0  0  0  0  0  0  0  0  0
  147.3795  141.3326  154.3380 H   0  0  0  0  0  0  0  0  0  0  0  0
  149.4494  142.4703  154.9736 H   0  0  0  0  0  0  0  0  0  0  0  0
  149.7816  140.7858  154.6594 H   0  0  0  0  0  0  0  0  0  0  0  0
  150.7916  144.2561  158.3506 H   0  0  0  0  0  0  0  0  0  0  0  0
  151.0086  145.6013  160.4513 H   0  0  0  0  0  0  0  0  0  0  0  0
  152.2853  144.7140  162.3919 H   0  0  0  0  0  0  0  0  0  0  0  0
  153.3760  142.4580  162.2708 H   0  0  0  0  0  0  0  0  0  0  0  0
  1  2  1  0  0  0  0
  1 20  1  0  0  0  0
  1 21  1  0  0  0  0
  1 22  1  0  0  0  0
  2 19  1  0  0  0  0
  2  3  1  0  0  0  0
  3  4  2  0  0  0  0
  3  5  1  0  0  0  0
  5  6  1  0  0  0  0
  5 14  1  0  0  0  0
  6  7  1  0  0  0  0
  6 23  1  0  0  0  0
  6 24  1  0  0  0  0
  7 13  1  0  0  0  0
  7  8  1  0  0  0  0
  7  9  1  0  0  0  0
  8 25  1  0  0  0  0
  9 10  1  0  0  0  0
  9 26  1  0  0  0  0
  9 27  1  0  0  0  0
 10 11  1  0  0  0  0
 10 28  1  0  0  0  0
 10 29  1  0  0  0  0
 11 12  1  0  0  0  0
 11 30  1  0  0  0  0
 11 31  1  0  0  0  0
 12 13  1  0  0  0  0
 12 32  1  0  0  0  0
 12 33  1  0  0  0  0
 13 34  1  0  0  0  0
 13 35  1  0  0  0  0
 14 19  2  0  0  0  0
 14 15  1  0  0  0  0
 15 16  2  0  0  0  0
 15 36  1  0  0  0  0
 16 17  1  0  0  0  0
 16 37  1  0  0  0  0
 17 18  2  0  0  0  0
 17 38  1  0  0  0  0
 18 19  1  0  0  0  0
 18 39  1  0  0  0  0
M  END
> <s_m_source_file>
AV-unprocessed.smi

> <i_m_source_file_index>
874

> <i_lp_mmshare_version>
43012

> <i_f3d_flags>
0

> <s_epik_input>
W2NIXTFbY0hdW2NIXVtjSF1jKGMxMiluKFtDSDNdKWMoPU8pbjJbQ0gyXUMzKFtPSF0pW0NIMl1bQ0gyXVtDSDJdW0NIMl1bQ0gyXTM=

> <s_epik_cmdline>
J2VwaWtfcHl0aG9uJywgJy1waCcsICc3LjAnLCAnLXRuJywgJzgnLCAnLW1hJywgJzIwMCcsICctbWV0YWxfYmluZGluZycsICctaW1hZScsICc8aW5maWxlLm1hZT4nLCAnLW9tYWUnLCAnPG91dGZpbGUubWFlPic=

> <r_lp_tautomer_probability>
1

> <r_epik_Ionization_Penalty>
4.84563e-08

> <r_epik_Ionization_Penalty_Charging>
4.2068e-09

> <r_epik_Ionization_Penalty_Neutral>
4.42495e-08

> <r_epik_State_Penalty>
-0

> <r_epik_Charging_Adjusted_Penalty>
4.2068e-09

> <i_epik_Tot_Q>
0

> <i_epik_Tot_abs_Q>
0

> <r_epik_Metal_State_Penalty>
-0

> <b_epik_Metal_Only>
0

> <s_lp_Force_Field>
OPLS_2005

> <r_lp_Energy>
48.1274

> <b_lp_Chiralities_Consistent>
1

> <s_lp_Variant>
AV-unprocessed.smi:874-1

> <Gold.Version>
5.8.1

> <Gold.Id.Protein>
6NUR|6NUR_protein|mol2

> <Gold.PLP.Fitness>
42.7175

> <Gold.PLP.PLP>
-40.3715

> <Gold.PLP.part.hbond>
-1.0000

> <Gold.PLP.part.metal>
0.0000

> <Gold.PLP.part.buried>
-6.0891

> <Gold.PLP.part.nonpolar>
-33.3008

> <Gold.PLP.part.repulsive>
0.0000

> <Gold.PLP.ligand.clash>
0.0000

> <Gold.PLP.ligand.torsion>
0.3470

> <Gold.PLP.Chemscore.Hbond>
1.0000

> <Gold.PLP.Chemscore.CHOScore>
0.0000

> <Gold.PLP.Chemscore.Metal>
0.0000

> <Gold.Chemscore.Hbonds>
donor molecule, donor type, donor heavy atom, donor atom, acceptor molecule, acceptor atom, score
      P1  H  7997  8008       L1     4  1.00

> <Gold.PLP.Chemscore.Internal.Correction>
0.0401

> <Gold.Rescore>
     Score         DG    S(hbond)    S(metal)    S(lipo)     H(rot)  DE(clash)    DE(int)     intcor
     16.31     -17.16       0.89        0.00     108.91       1.58       0.52       0.33       ----

> <Gold.Chemscore.Fitness>
16.3093

> <Gold.Chemscore.DG>
-17.1570

> <Gold.Chemscore.ZeroCoef>
-5.4800

> <Gold.Chemscore.Hbond>
0.8886

> <Gold.Chemscore.Metal>
0.0000

> <Gold.Chemscore.Lipo>
108.9128

> <Gold.Chemscore.Internal_Hbond>
0.0000

> <Gold.Chemscore.DEClash>
0.5154

> <Gold.Chemscore.DEInternal>
0.3323

> <Gold.Chemscore.Rot>
1.5757

> <Gold.Chemscore.Internal.Correction>
   9.000000E+99

> <Gold.Chemscore.Hbonds>
donor molecule, donor type, donor heavy atom, donor atom, acceptor molecule, acceptor atom, score
      P1  H  7997  8008       L1     4  0.38

> <Gold.Chemscore.Hbond.Weighted>
-2.9681

> <Gold.Chemscore.Metal.Weighted>
-0.0000

> <Gold.Chemscore.Lipo.Weighted>
-12.7428

> <Gold.Chemscore.Internal_Hbond.Weighted>
0.0000

> <Gold.Chemscore.DEClash.Weighted>
0.5154

> <Gold.Chemscore.DEInternal.Weighted>
0.3323

> <Gold.Chemscore.Rot.Weighted>
4.0338

> <Gold.Chemscore.Internal.Correction.Weighted>
   9.000000E+99

> <Gold.Protein.RotatedTorsions>
[ 6907 6896 6895 6894 ] final  149.13 input  -60.11 | X-H torsion
[ 7974 7965 7964 7962 ] final -153.71 input  175.53 | X-H torsion
[ 8008 7997 7996 7995 ] final  -95.89 input   59.86 | X-H torsion
[ 10167 10162 10161 10158 ] final -102.28 input  -65.29 | X-H torsion
[ 10718 10713 10712 10709 ] final   76.15 input   66.30 | X-H torsion
[ 10763 10752 10751 10750 ] final   21.30 input  -60.55 | X-H torsion
[ 11005 11000 10999 10996 ] final  162.35 input  -57.11 | X-H torsion

> <Gold.Protein.ActiveResidues>
 VAL166  LYS551  ARG553  GLY616  TRP617  ASP618  TYR619  PRO620  LYS621  CYS622 
 ASP623  PHE694  ASN695  SER759  ASP760  ASP761  ALA762  ILE779  LEU786  VAL792 
 PHE793  MET794  SER795  GLU796  ALA797  LYS798  CYS799  TRP800  GLU811  SER814 

> <Gold.Protein.RotatedAtoms>
  152.1321  133.4414  159.4725 H   0  0  0  0  0  0  0  0  0  0  0  0  # atno 6907 bound_to 6896
  150.6879  134.2408  159.4481 H   0  0  0  0  0  0  0  0  0  0  0  0  # atno 6908 bound_to 6896
  152.0292  134.9777  160.0623 H   0  0  0  0  0  0  0  0  0  0  0  0  # atno 6909 bound_to 6896
  144.7727  140.4488  143.5896 H   0  0  0  0  0  0  0  0  0  0  0  0  # atno 7974 bound_to 7965
  154.7673  140.0476  157.1022 H   0  0  0  0  0  0  0  0  0  0  0  0  # atno 8008 bound_to 7997
  154.9864  140.3108  155.4905 H   0  0  0  0  0  0  0  0  0  0  0  0  # atno 8009 bound_to 7997
  156.2915  140.2226  156.4966 H   0  0  0  0  0  0  0  0  0  0  0  0  # atno 8010 bound_to 7997
  140.2323  143.3598  152.0876 H   0  0  0  0  0  0  0  0  0  0  0  0  # atno 10167 bound_to 10162
  157.6662  130.9761  150.1456 H   0  0  0  0  0  0  0  0  0  0  0  0  # atno 10718 bound_to 10713
  153.1006  135.6671  153.9680 H   0  0  0  0  0  0  0  0  0  0  0  0  # atno 10763 bound_to 10752
  153.9251  135.3010  155.3448 H   0  0  0  0  0  0  0  0  0  0  0  0  # atno 10764 bound_to 10752
  154.7427  135.5072  153.9225 H   0  0  0  0  0  0  0  0  0  0  0  0  # atno 10765 bound_to 10752
  140.2248  134.8168  157.3258 H   0  0  0  0  0  0  0  0  0  0  0  0  # atno 11005 bound_to 11000
  145.6277  139.1532  143.2986 LP  0  0  0  0  0  0  0  0  0  0  0  0  # atno 17320 bound_to 7965
  146.1884  140.6383  142.9157 LP  0  0  0  0  0  0  0  0  0  0  0  0  # atno 17321 bound_to 7965
  139.5106  144.6886  151.5820 LP  0  0  0  0  0  0  0  0  0  0  0  0  # atno 17342 bound_to 10162
  140.6176  143.9320  150.6500 LP  0  0  0  0  0  0  0  0  0  0  0  0  # atno 17343 bound_to 10162
  156.2268  130.3678  149.8491 LP  0  0  0  0  0  0  0  0  0  0  0  0  # atno 17370 bound_to 10713
  156.6329  130.8673  151.3499 LP  0  0  0  0  0  0  0  0  0  0  0  0  # atno 17371 bound_to 10713
  140.1811  134.4488  155.7771 LP  0  0  0  0  0  0  0  0  0  0  0  0  # atno 17394 bound_to 11000
  141.2221  133.6984  156.7870 LP  0  0  0  0  0  0  0  0  0  0  0  0  # atno 17395 bound_to 11000

$$$$
