AV-unprocessed.smi:1889|AV-procd|sdf|7661|dock2
  -GOLD-   22720 9393D 1   1.00000     0.00000
 Structure written by MMmdl.
 35 36  0  0  0  0  0  0  0  0  2 V2000
  149.4430  132.6840  154.8203 C   0  0  0  0  0  0  0  0  0  0  0  0
  150.3705  133.8005  155.3122 C   0  0  0  0  0  0  0  0  0  0  0  0
  149.9517  135.1843  154.7957 C   0  0  0  0  0  0  0  0  0  0  0  0
  150.8540  136.2725  155.2738 C   0  0  0  0  0  0  0  0  0  0  0  0
  151.9653  136.0373  155.9765 N   0  0  0  0  0  0  0  0  0  0  0  0
  152.6199  137.2091  156.3275 N   0  0  0  0  0  0  0  0  0  0  0  0
  151.9924  138.3118  155.8945 C   0  0  0  0  0  0  0  0  0  0  0  0
  152.4583  139.5484  156.1359 N   0  5  0  0  0  0  0  0  0  0  0  0
  151.6124  140.6037  156.1209 C   0  0  0  0  0  0  0  0  0  0  0  0
  150.7349  140.8233  155.2828 O   0  0  0  0  0  0  0  0  0  0  0  0
  151.7903  141.4516  157.1445 N   0  0  0  0  0  0  0  0  0  0  0  0
  151.0247  142.6680  157.4040 C   0  0  0  0  0  0  0  0  0  0  0  0
  151.7556  143.6096  158.3800 C   0  0  2  0  0  0  0  0  0  0  0  0
  151.8072  143.1381  159.8206 C   0  0  0  0  0  0  0  0  0  0  0  0
  152.1158  144.4312  160.5697 C   0  0  0  0  0  0  0  0  0  0  0  0
  151.5504  145.4822  159.7905 O   0  0  0  0  0  0  0  0  0  0  0  0
  151.0777  144.9683  158.5492 C   0  0  0  0  0  0  0  0  0  0  0  0
  150.5017  137.9729  155.0156 S   0  0  0  0  0  0  0  0  0  0  0  0
  149.7656  131.7153  155.2023 H   0  0  0  0  0  0  0  0  0  0  0  0
  149.4381  132.6277  153.7314 H   0  0  0  0  0  0  0  0  0  0  0  0
  148.4179  132.8485  155.1533 H   0  0  0  0  0  0  0  0  0  0  0  0
  150.3782  133.8056  156.4028 H   0  0  0  0  0  0  0  0  0  0  0  0
  151.3920  133.5857  154.9964 H   0  0  0  0  0  0  0  0  0  0  0  0
  149.9421  135.1908  153.7049 H   0  0  0  0  0  0  0  0  0  0  0  0
  148.9353  135.4121  155.1178 H   0  0  0  0  0  0  0  0  0  0  0  0
  152.5220  141.2282  157.8033 H   0  0  0  0  0  0  0  0  0  0  0  0
  150.8836  143.1757  156.4497 H   0  0  0  0  0  0  0  0  0  0  0  0
  150.0246  142.4301  157.7703 H   0  0  0  0  0  0  0  0  0  0  0  0
  152.7762  143.7735  158.0296 H   0  0  0  0  0  0  0  0  0  0  0  0
  150.8343  142.7522  160.1288 H   0  0  0  0  0  0  0  0  0  0  0  0
  152.5522  142.3607  159.9935 H   0  0  0  0  0  0  0  0  0  0  0  0
  151.7156  144.4279  161.5838 H   0  0  0  0  0  0  0  0  0  0  0  0
  153.1936  144.5878  160.6316 H   0  0  0  0  0  0  0  0  0  0  0  0
  151.2960  145.6503  157.7272 H   0  0  0  0  0  0  0  0  0  0  0  0
  149.9946  144.8540  158.6146 H   0  0  0  0  0  0  0  0  0  0  0  0
  1  2  1  0  0  0  0
  1 19  1  0  0  0  0
  1 20  1  0  0  0  0
  1 21  1  0  0  0  0
  2  3  1  0  0  0  0
  2 22  1  0  0  0  0
  2 23  1  0  0  0  0
  3  4  1  0  0  0  0
  3 24  1  0  0  0  0
  3 25  1  0  0  0  0
  4 18  1  0  0  0  0
  4  5  2  0  0  0  0
  5  6  1  0  0  0  0
  6  7  2  0  0  0  0
  7  8  1  0  0  0  0
  7 18  1  0  0  0  0
  8  9  1  0  0  0  0
  9 10  2  0  0  0  0
  9 11  1  0  0  0  0
 11 12  1  0  0  0  0
 11 26  1  0  0  0  0
 12 13  1  0  0  0  0
 12 27  1  0  0  0  0
 12 28  1  0  0  0  0
 13 17  1  0  0  0  0
 13 14  1  0  0  0  0
 13 29  1  0  0  0  0
 14 15  1  0  0  0  0
 14 30  1  0  0  0  0
 14 31  1  0  0  0  0
 15 16  1  0  0  0  0
 15 32  1  0  0  0  0
 15 33  1  0  0  0  0
 16 17  1  0  0  0  0
 17 34  1  0  0  0  0
 17 35  1  0  0  0  0
M  CHG  1   8  -1
M  END
> <s_m_source_file>
AV-unprocessed.smi

> <i_m_source_file_index>
1889

> <i_lp_mmshare_version>
43012

> <i_f3d_flags>
0

> <s_epik_input>
W0NIM11bQ0gyXVtDSDJdYzFubmMoczEpW05IXUMoPU8pW05IXVtDSDJdW0NAQEhdMltDSDJdW0NIMl1PW0NIMl0y

> <s_epik_cmdline>
J2VwaWtfcHl0aG9uJywgJy1waCcsICc3LjAnLCAnLXRuJywgJzgnLCAnLW1hJywgJzIwMCcsICctbWV0YWxfYmluZGluZycsICctaW1hZScsICc8aW5maWxlLm1hZT4nLCAnLW9tYWUnLCAnPG91dGZpbGUubWFlPic=

> <r_lp_tautomer_probability>
1

> <r_epik_Ionization_Penalty>
4.29669

> <r_epik_Ionization_Penalty_Charging>
4.28522

> <r_epik_Ionization_Penalty_Neutral>
0.0114689

> <r_epik_State_Penalty>
4.28479

> <r_epik_Charging_Adjusted_Penalty>
8.57002

> <i_epik_Tot_Q>
-1

> <i_epik_Tot_abs_Q>
1

> <r_epik_Metal_State_Penalty>
0.72177

> <b_epik_Metal_Only>
1

> <s_lp_Force_Field>
OPLS_2005

> <r_lp_Energy>
11.5011

> <b_lp_Chiralities_Consistent>
1

> <s_lp_Variant>
AV-unprocessed.smi:1889-3

> <Gold.Version>
5.8.1

> <Gold.Id.Protein>
6NUR|6NUR_protein|mol2

> <Gold.PLP.Fitness>
44.1090

> <Gold.PLP.PLP>
-33.9324

> <Gold.PLP.part.hbond>
-3.9831

> <Gold.PLP.part.metal>
0.0000

> <Gold.PLP.part.buried>
-3.0202

> <Gold.PLP.part.nonpolar>
-26.4520

> <Gold.PLP.part.repulsive>
0.3546

> <Gold.PLP.ligand.clash>
0.0000

> <Gold.PLP.ligand.torsion>
0.6948

> <Gold.PLP.Chemscore.Hbond>
3.8160

> <Gold.PLP.Chemscore.CHOScore>
0.0000

> <Gold.PLP.Chemscore.Metal>
0.0000

> <Gold.Chemscore.Hbonds>
donor molecule, donor type, donor heavy atom, donor atom, acceptor molecule, acceptor atom, score
      P1  H  7989  7998       L1    10  0.82
      P1  H  7997  8008       L1     8  2.00
      P1  H 10752 10763       L1     5  0.90

> <Gold.PLP.Chemscore.Internal.Correction>
0.1181

> <Gold.Rescore>
     Score         DG    S(hbond)    S(metal)    S(lipo)     H(rot)  DE(clash)    DE(int)     intcor
     15.03     -17.64       2.04        0.00      80.59       1.59       0.77       1.84       ----

> <Gold.Chemscore.Fitness>
15.0266

> <Gold.Chemscore.DG>
-17.6359

> <Gold.Chemscore.ZeroCoef>
-5.4800

> <Gold.Chemscore.Hbond>
2.0367

> <Gold.Chemscore.Metal>
0.0000

> <Gold.Chemscore.Lipo>
80.5937

> <Gold.Chemscore.Internal_Hbond>
0.0000

> <Gold.Chemscore.DEClash>
0.7735

> <Gold.Chemscore.DEInternal>
1.8359

> <Gold.Chemscore.Rot>
1.5922

> <Gold.Chemscore.Internal.Correction>
   9.000000E+99

> <Gold.Chemscore.Hbonds>
donor molecule, donor type, donor heavy atom, donor atom, acceptor molecule, acceptor atom, score
      P1  H  7989  7998       L1    10  0.48
      P1  H  7997  8008       L1     8  0.77
      P1  H 10752 10763       L1     5  0.04

> <Gold.Chemscore.Hbond.Weighted>
-6.8026

> <Gold.Chemscore.Metal.Weighted>
-0.0000

> <Gold.Chemscore.Lipo.Weighted>
-9.4295

> <Gold.Chemscore.Internal_Hbond.Weighted>
0.0000

> <Gold.Chemscore.DEClash.Weighted>
0.7735

> <Gold.Chemscore.DEInternal.Weighted>
1.8359

> <Gold.Chemscore.Rot.Weighted>
4.0761

> <Gold.Chemscore.Internal.Correction.Weighted>
   9.000000E+99

> <Gold.Protein.RotatedTorsions>
[ 6907 6896 6895 6894 ] final  -80.61 input  -60.11 | X-H torsion
[ 7974 7965 7964 7962 ] final   19.05 input  175.53 | X-H torsion
[ 8008 7997 7996 7995 ] final  -39.32 input   59.86 | X-H torsion
[ 10167 10162 10161 10158 ] final   66.97 input  -65.29 | X-H torsion
[ 10718 10713 10712 10709 ] final  -53.16 input   66.30 | X-H torsion
[ 10763 10752 10751 10750 ] final   68.72 input  -60.55 | X-H torsion
[ 11005 11000 10999 10996 ] final  111.50 input  -57.11 | X-H torsion

> <Gold.Protein.ActiveResidues>
 VAL166  LYS551  ARG553  GLY616  TRP617  ASP618  TYR619  PRO620  LYS621  CYS622 
 ASP623  PHE694  ASN695  SER759  ASP760  ASP761  ALA762  ILE779  LEU786  VAL792 
 PHE793  MET794  SER795  GLU796  ALA797  LYS798  CYS799  TRP800  GLU811  SER814 

> <Gold.Protein.RotatedAtoms>
  150.6926  134.3943  159.5090 H   0  0  0  0  0  0  0  0  0  0  0  0  # atno 6907 bound_to 6896
  152.1726  134.8818  160.0542 H   0  0  0  0  0  0  0  0  0  0  0  0  # atno 6908 bound_to 6896
  151.9839  133.3732  159.4155 H   0  0  0  0  0  0  0  0  0  0  0  0  # atno 6909 bound_to 6896
  146.2163  139.8369  142.8649 H   0  0  0  0  0  0  0  0  0  0  0  0  # atno 7974 bound_to 7965
  154.4024  140.1554  156.2844 H   0  0  0  0  0  0  0  0  0  0  0  0  # atno 8008 bound_to 7997
  155.8841  140.3442  155.5886 H   0  0  0  0  0  0  0  0  0  0  0  0  # atno 8009 bound_to 7997
  155.7634  140.0820  157.2134 H   0  0  0  0  0  0  0  0  0  0  0  0  # atno 8010 bound_to 7997
  140.0947  144.4957  150.7076 H   0  0  0  0  0  0  0  0  0  0  0  0  # atno 10167 bound_to 10162
  156.1559  130.4150  149.9870 H   0  0  0  0  0  0  0  0  0  0  0  0  # atno 10718 bound_to 10713
  153.0249  135.5237  154.7177 H   0  0  0  0  0  0  0  0  0  0  0  0  # atno 10763 bound_to 10752
  154.6242  135.2892  155.0294 H   0  0  0  0  0  0  0  0  0  0  0  0  # atno 10764 bound_to 10752
  154.1270  135.6599  153.4967 H   0  0  0  0  0  0  0  0  0  0  0  0  # atno 10765 bound_to 10752
  139.8905  134.9509  156.6442 H   0  0  0  0  0  0  0  0  0  0  0  0  # atno 11005 bound_to 11000
  145.2939  141.0175  143.3647 LP  0  0  0  0  0  0  0  0  0  0  0  0  # atno 17320 bound_to 7965
  144.9056  139.4593  143.6611 LP  0  0  0  0  0  0  0  0  0  0  0  0  # atno 17321 bound_to 7965
  140.7010  143.2435  151.4864 LP  0  0  0  0  0  0  0  0  0  0  0  0  # atno 17342 bound_to 10162
  139.5705  144.1940  152.1829 LP  0  0  0  0  0  0  0  0  0  0  0  0  # atno 17343 bound_to 10162
  156.7714  130.9188  151.3644 LP  0  0  0  0  0  0  0  0  0  0  0  0  # atno 17370 bound_to 10713
  157.6694  130.9037  150.0006 LP  0  0  0  0  0  0  0  0  0  0  0  0  # atno 17371 bound_to 10713
  140.7570  133.8849  155.8389 LP  0  0  0  0  0  0  0  0  0  0  0  0  # atno 17394 bound_to 11000
  140.9954  134.1223  157.4369 LP  0  0  0  0  0  0  0  0  0  0  0  0  # atno 17395 bound_to 11000

$$$$
