AV-unprocessed.smi:2483|AV-procd|sdf|9785|dock2
  -GOLD-   2272013423D 1   1.00000     0.00000
 Structure written by MMmdl.
 37 38  0  0  0  0  0  0  0  0  1 V2000
  147.5474  139.2244  155.6996 C   0  0  0  0  0  0  0  0  0  0  0  0
  148.7669  139.9010  155.2759 N   0  0  0  0  0  0  0  0  0  0  0  0
  148.6357  140.8079  154.1438 C   0  0  0  0  0  0  0  0  0  0  0  0
  149.9343  139.1127  155.2254 C   0  0  0  0  0  0  0  0  0  0  0  0
  149.9192  138.0054  154.4438 N   0  0  0  0  0  0  0  0  0  0  0  0
  151.0334  137.2750  154.3856 C   0  0  0  0  0  0  0  0  0  0  0  0
  152.1771  137.5141  155.0271 N   0  0  0  0  0  0  0  0  0  0  0  0
  152.2146  138.6100  155.8132 C   0  0  0  0  0  0  0  0  0  0  0  0
  151.1003  139.4748  155.9503 C   0  0  0  0  0  0  0  0  0  0  0  0
  151.0892  140.6099  156.8086 N   0  0  0  0  0  0  0  0  0  0  0  0
  151.9612  140.9239  157.7803 C   0  0  0  0  0  0  0  0  0  0  0  0
  152.9404  140.2496  158.0984 O   0  0  0  0  0  0  0  0  0  0  0  0
  151.6400  142.0931  158.3562 N   0  0  0  0  0  0  0  0  0  0  0  0
  152.3646  142.7741  159.4382 C   0  0  0  0  0  0  0  0  0  0  0  0
  152.9089  141.7502  160.4357 C   0  0  0  0  0  0  0  0  0  0  0  0
  153.3055  143.8720  158.8914 C   0  0  0  0  0  0  0  0  0  0  0  0
  152.1552  144.8771  158.9852 C   0  0  0  0  0  0  0  0  0  0  0  0
  151.4933  143.9236  159.9834 C   0  0  0  0  0  0  0  0  0  0  0  0
  147.7307  138.6041  156.5776 H   0  0  0  0  0  0  0  0  0  0  0  0
  147.1557  138.5918  154.9024 H   0  0  0  0  0  0  0  0  0  0  0  0
  146.7821  139.9557  155.9606 H   0  0  0  0  0  0  0  0  0  0  0  0
  149.5109  141.4476  154.0340 H   0  0  0  0  0  0  0  0  0  0  0  0
  147.7668  141.4537  154.2732 H   0  0  0  0  0  0  0  0  0  0  0  0
  148.5059  140.2453  153.2186 H   0  0  0  0  0  0  0  0  0  0  0  0
  151.0046  136.3971  153.7574 H   0  0  0  0  0  0  0  0  0  0  0  0
  153.1382  138.7648  156.3492 H   0  0  0  0  0  0  0  0  0  0  0  0
  150.3843  141.3018  156.5996 H   0  0  0  0  0  0  0  0  0  0  0  0
  150.8167  142.5653  158.0123 H   0  0  0  0  0  0  0  0  0  0  0  0
  153.3550  142.2412  161.3007 H   0  0  0  0  0  0  0  0  0  0  0  0
  153.6813  141.1215  159.9929 H   0  0  0  0  0  0  0  0  0  0  0  0
  152.1197  141.0951  160.8062 H   0  0  0  0  0  0  0  0  0  0  0  0
  154.1160  144.1085  159.5829 H   0  0  0  0  0  0  0  0  0  0  0  0
  153.6886  143.7193  157.8820 H   0  0  0  0  0  0  0  0  0  0  0  0
  152.4302  145.8494  159.3948 H   0  0  0  0  0  0  0  0  0  0  0  0
  151.5968  144.9709  158.0526 H   0  0  0  0  0  0  0  0  0  0  0  0
  150.4176  143.8005  159.8503 H   0  0  0  0  0  0  0  0  0  0  0  0
  151.7327  144.1795  161.0169 H   0  0  0  0  0  0  0  0  0  0  0  0
  1  2  1  0  0  0  0
  1 19  1  0  0  0  0
  1 20  1  0  0  0  0
  1 21  1  0  0  0  0
  2  3  1  0  0  0  0
  2  4  1  0  0  0  0
  3 22  1  0  0  0  0
  3 23  1  0  0  0  0
  3 24  1  0  0  0  0
  4  9  1  0  0  0  0
  4  5  2  0  0  0  0
  5  6  1  0  0  0  0
  6  7  2  0  0  0  0
  6 25  1  0  0  0  0
  7  8  1  0  0  0  0
  8  9  2  0  0  0  0
  8 26  1  0  0  0  0
  9 10  1  0  0  0  0
 10 11  1  0  0  0  0
 10 27  1  0  0  0  0
 11 12  2  0  0  0  0
 11 13  1  0  0  0  0
 13 14  1  0  0  0  0
 13 28  1  0  0  0  0
 14 18  1  0  0  0  0
 14 15  1  0  0  0  0
 14 16  1  0  0  0  0
 15 29  1  0  0  0  0
 15 30  1  0  0  0  0
 15 31  1  0  0  0  0
 16 17  1  0  0  0  0
 16 32  1  0  0  0  0
 16 33  1  0  0  0  0
 17 18  1  0  0  0  0
 17 34  1  0  0  0  0
 17 35  1  0  0  0  0
 18 36  1  0  0  0  0
 18 37  1  0  0  0  0
M  END
> <s_m_source_file>
AV-unprocessed.smi

> <i_m_source_file_index>
2483

> <i_lp_mmshare_version>
43012

> <i_f3d_flags>
0

> <s_epik_input>
W0NIM11OKFtDSDNdKWMxbltjSF1uW2NIXWMxW05IXUMoPU8pW05IXUMyKFtDSDNdKVtDSDJdW0NIMl1bQ0gyXTI=

> <s_epik_cmdline>
J2VwaWtfcHl0aG9uJywgJy1waCcsICc3LjAnLCAnLXRuJywgJzgnLCAnLW1hJywgJzIwMCcsICctbWV0YWxfYmluZGluZycsICctaW1hZScsICc8aW5maWxlLm1hZT4nLCAnLW9tYWUnLCAnPG91dGZpbGUubWFlPic=

> <r_lp_tautomer_probability>
1

> <r_epik_Ionization_Penalty>
0.0189547

> <r_epik_Ionization_Penalty_Charging>
0

> <r_epik_Ionization_Penalty_Neutral>
0.0189547

> <r_epik_State_Penalty>
0.0144869

> <r_epik_Charging_Adjusted_Penalty>
0.0144869

> <i_epik_Tot_Q>
0

> <i_epik_Tot_abs_Q>
0

> <r_epik_Metal_State_Penalty>
0.0140538

> <b_epik_Metal_Only>
0

> <s_lp_Force_Field>
OPLS_2005

> <r_lp_Energy>
16.2772

> <b_lp_Chiralities_Consistent>
1

> <s_lp_Variant>
AV-unprocessed.smi:2483-1

> <Gold.Version>
5.8.1

> <Gold.Id.Protein>
6NUR|6NUR_protein|mol2

> <Gold.PLP.Fitness>
39.6182

> <Gold.PLP.PLP>
-33.1185

> <Gold.PLP.part.hbond>
-2.0000

> <Gold.PLP.part.metal>
0.0000

> <Gold.PLP.part.buried>
-3.3374

> <Gold.PLP.part.nonpolar>
-28.4276

> <Gold.PLP.part.repulsive>
0.4902

> <Gold.PLP.ligand.clash>
0.0000

> <Gold.PLP.ligand.torsion>
0.7482

> <Gold.PLP.Chemscore.Hbond>
1.4683

> <Gold.PLP.Chemscore.CHOScore>
0.9891

> <Gold.PLP.Chemscore.Metal>
0.0000

> <Gold.Chemscore.Hbonds>
donor molecule, donor type, donor heavy atom, donor atom, acceptor molecule, acceptor atom, score
      P1  H  7997  8010       L1    12  0.94
      P1  H 10752 10765       L1     7  0.46
      L1  C     6    25       P1  7949  1.00

> <Gold.PLP.Chemscore.Internal.Correction>
0.6237

> <Gold.Rescore>
     Score         DG    S(hbond)    S(metal)    S(lipo)     H(rot)  DE(clash)    DE(int)     intcor
     12.96     -17.02       1.46        0.00      84.40       1.26       0.56       3.50       ----

> <Gold.Chemscore.Fitness>
12.9571

> <Gold.Chemscore.DG>
-17.0202

> <Gold.Chemscore.ZeroCoef>
-5.4800

> <Gold.Chemscore.Hbond>
1.4615

> <Gold.Chemscore.Metal>
0.0000

> <Gold.Chemscore.Lipo>
84.4035

> <Gold.Chemscore.Internal_Hbond>
0.0000

> <Gold.Chemscore.DEClash>
0.5634

> <Gold.Chemscore.DEInternal>
3.4996

> <Gold.Chemscore.Rot>
1.2564

> <Gold.Chemscore.Internal.Correction>
   9.000000E+99

> <Gold.Chemscore.Hbonds>
donor molecule, donor type, donor heavy atom, donor atom, acceptor molecule, acceptor atom, score
      P1  H  7997  8010       L1    12  0.90
      P1  H 10752 10765       L1     7  0.07

> <Gold.Chemscore.Hbond.Weighted>
-4.8814

> <Gold.Chemscore.Metal.Weighted>
-0.0000

> <Gold.Chemscore.Lipo.Weighted>
-9.8752

> <Gold.Chemscore.Internal_Hbond.Weighted>
0.0000

> <Gold.Chemscore.DEClash.Weighted>
0.5634

> <Gold.Chemscore.DEInternal.Weighted>
3.4996

> <Gold.Chemscore.Rot.Weighted>
3.2165

> <Gold.Chemscore.Internal.Correction.Weighted>
   9.000000E+99

> <Gold.Protein.RotatedTorsions>
[ 6907 6896 6895 6894 ] final    7.76 input  -60.11 | X-H torsion
[ 7974 7965 7964 7962 ] final  -75.55 input  175.53 | X-H torsion
[ 8008 7997 7996 7995 ] final   40.37 input   59.86 | X-H torsion
[ 10167 10162 10161 10158 ] final   42.13 input  -65.29 | X-H torsion
[ 10718 10713 10712 10709 ] final  -14.54 input   66.30 | X-H torsion
[ 10763 10752 10751 10750 ] final -171.07 input  -60.55 | X-H torsion
[ 11005 11000 10999 10996 ] final   32.54 input  -57.11 | X-H torsion

> <Gold.Protein.ActiveResidues>
 VAL166  LYS551  ARG553  GLY616  TRP617  ASP618  TYR619  PRO620  LYS621  CYS622 
 ASP623  PHE694  ASN695  SER759  ASP760  ASP761  ALA762  ILE779  LEU786  VAL792 
 PHE793  MET794  SER795  GLU796  ALA797  LYS798  CYS799  TRP800  GLU811  SER814 

> <Gold.Protein.RotatedAtoms>
  151.6951  135.0940  160.0240 H   0  0  0  0  0  0  0  0  0  0  0  0  # atno 6907 bound_to 6896
  152.3755  133.6471  159.6128 H   0  0  0  0  0  0  0  0  0  0  0  0  # atno 6908 bound_to 6896
  150.7705  133.9117  159.3413 H   0  0  0  0  0  0  0  0  0  0  0  0  # atno 6909 bound_to 6896
  145.6245  140.9354  143.1120 H   0  0  0  0  0  0  0  0  0  0  0  0  # atno 7974 bound_to 7965
  155.2521  140.3353  155.4281 H   0  0  0  0  0  0  0  0  0  0  0  0  # atno 8008 bound_to 7997
  156.2211  140.1809  156.7518 H   0  0  0  0  0  0  0  0  0  0  0  0  # atno 8009 bound_to 7997
  154.5827  140.0651  156.9112 H   0  0  0  0  0  0  0  0  0  0  0  0  # atno 8010 bound_to 7997
  140.3575  144.2271  150.6140 H   0  0  0  0  0  0  0  0  0  0  0  0  # atno 10167 bound_to 10162
  156.6145  130.4858  149.6188 H   0  0  0  0  0  0  0  0  0  0  0  0  # atno 10718 bound_to 10713
  154.6345  135.2891  155.0177 H   0  0  0  0  0  0  0  0  0  0  0  0  # atno 10763 bound_to 10752
  154.1325  135.6531  153.4929 H   0  0  0  0  0  0  0  0  0  0  0  0  # atno 10764 bound_to 10752
  153.0296  135.5314  154.7186 H   0  0  0  0  0  0  0  0  0  0  0  0  # atno 10765 bound_to 10752
  140.2724  134.3066  155.7824 H   0  0  0  0  0  0  0  0  0  0  0  0  # atno 11005 bound_to 11000
  144.7218  139.8006  143.7379 LP  0  0  0  0  0  0  0  0  0  0  0  0  # atno 17320 bound_to 7965
  146.1405  139.4461  143.0112 LP  0  0  0  0  0  0  0  0  0  0  0  0  # atno 17321 bound_to 7965
  140.5159  143.2278  151.8463 LP  0  0  0  0  0  0  0  0  0  0  0  0  # atno 17342 bound_to 10162
  139.4818  144.4894  151.9204 LP  0  0  0  0  0  0  0  0  0  0  0  0  # atno 17343 bound_to 10162
  156.2362  130.6824  151.1512 LP  0  0  0  0  0  0  0  0  0  0  0  0  # atno 17370 bound_to 10713
  157.7245  131.0659  150.5992 LP  0  0  0  0  0  0  0  0  0  0  0  0  # atno 17371 bound_to 10713
  141.2175  133.7475  156.9355 LP  0  0  0  0  0  0  0  0  0  0  0  0  # atno 17394 bound_to 11000
  140.1360  134.9325  157.2402 LP  0  0  0  0  0  0  0  0  0  0  0  0  # atno 17395 bound_to 11000

$$$$
