AV-unprocessed.smi:869|AV-procd|sdf|4006|dock3
  -GOLD-   22720 1493D 1   1.00000     0.00000
 Structure written by MMmdl.
 47 49  0  0  0  0  0  0  0  0  2 V2000
  148.0463  141.2359  153.8996 C   0  0  0  0  0  0  0  0  0  0  0  0
  148.6012  141.5844  155.1558 O   0  0  0  0  0  0  0  0  0  0  0  0
  149.9349  141.1256  155.3073 C   0  0  0  0  0  0  0  0  0  0  0  0
  150.6196  141.7761  156.4645 C   0  0  0  0  0  0  0  0  0  0  0  0
  150.6572  143.1134  156.7259 N   0  3  0  0  0  0  0  0  0  0  0  0
  151.3851  143.3479  157.8928 C   0  0  0  0  0  0  0  0  0  0  0  0
  151.6933  144.5333  158.5531 C   0  0  0  0  0  0  0  0  0  0  0  0
  152.4618  144.4203  159.7305 C   0  0  0  0  0  0  0  0  0  0  0  0
  152.8929  143.1656  160.2085 C   0  0  0  0  0  0  0  0  0  0  0  0
  152.5738  141.9705  159.5302 C   0  0  0  0  0  0  0  0  0  0  0  0
  151.8140  142.0915  158.3672 C   0  0  0  0  0  0  0  0  0  0  0  0
  151.3183  141.1522  157.4566 N   0  0  0  0  0  0  0  0  0  0  0  0
  151.5949  139.7239  157.6771 C   0  0  0  0  0  0  0  0  0  0  0  0
  150.3733  138.8250  157.3993 C   0  0  1  0  0  0  0  0  0  0  0  0
  150.8113  137.6465  156.7520 O   0  0  0  0  0  0  0  0  0  0  0  0
  149.6448  138.4323  158.6941 C   0  0  0  0  0  0  0  0  0  0  0  0
  148.7893  137.3305  158.4201 O   0  0  0  0  0  0  0  0  0  0  0  0
  148.2411  136.6478  159.4849 C   0  0  0  0  0  0  0  0  0  0  0  0
  147.6366  135.4052  159.2043 C   0  0  0  0  0  0  0  0  0  0  0  0
  147.0469  134.6413  160.2297 C   0  0  0  0  0  0  0  0  0  0  0  0
  147.0557  135.1137  161.5569 C   0  0  0  0  0  0  0  0  0  0  0  0
  146.4167  134.2995  162.6630 C   0  0  0  0  0  0  0  0  0  0  0  0
  147.6572  136.3535  161.8493 C   0  0  0  0  0  0  0  0  0  0  0  0
  148.2473  137.1169  160.8231 C   0  0  0  0  0  0  0  0  0  0  0  0
  147.0249  141.6104  153.8337 H   0  0  0  0  0  0  0  0  0  0  0  0
  148.0168  140.1537  153.7676 H   0  0  0  0  0  0  0  0  0  0  0  0
  148.6184  141.6734  153.0806 H   0  0  0  0  0  0  0  0  0  0  0  0
  149.9417  140.0455  155.4587 H   0  0  0  0  0  0  0  0  0  0  0  0
  150.5043  141.3352  154.4008 H   0  0  0  0  0  0  0  0  0  0  0  0
  151.3641  145.4953  158.1889 H   0  0  0  0  0  0  0  0  0  0  0  0
  152.7254  145.3138  160.2777 H   0  0  0  0  0  0  0  0  0  0  0  0
  153.4802  143.1187  161.1141 H   0  0  0  0  0  0  0  0  0  0  0  0
  152.9069  141.0139  159.9049 H   0  0  0  0  0  0  0  0  0  0  0  0
  152.4273  139.4411  157.0317 H   0  0  0  0  0  0  0  0  0  0  0  0
  151.9472  139.5985  158.7016 H   0  0  0  0  0  0  0  0  0  0  0  0
  149.6831  139.3519  156.7397 H   0  0  0  0  0  0  0  0  0  0  0  0
  151.7354  137.5400  156.9204 H   0  0  0  0  0  0  0  0  0  0  0  0
  150.3578  138.2027  159.4883 H   0  0  0  0  0  0  0  0  0  0  0  0
  149.0307  139.2704  159.0278 H   0  0  0  0  0  0  0  0  0  0  0  0
  147.6236  135.0332  158.1903 H   0  0  0  0  0  0  0  0  0  0  0  0
  146.5874  133.6928  159.9925 H   0  0  0  0  0  0  0  0  0  0  0  0
  145.4147  134.6734  162.8736 H   0  0  0  0  0  0  0  0  0  0  0  0
  147.0068  134.3624  163.5778 H   0  0  0  0  0  0  0  0  0  0  0  0
  146.3390  133.2485  162.3828 H   0  0  0  0  0  0  0  0  0  0  0  0
  147.6664  136.7247  162.8638 H   0  0  0  0  0  0  0  0  0  0  0  0
  148.6965  138.0613  161.0897 H   0  0  0  0  0  0  0  0  0  0  0  0
  150.2128  143.8111  156.1428 H   0  0  0  0  0  0  0  0  0  0  0  0
  1  2  1  0  0  0  0
  1 25  1  0  0  0  0
  1 26  1  0  0  0  0
  1 27  1  0  0  0  0
  2  3  1  0  0  0  0
  3  4  1  0  0  0  0
  3 28  1  0  0  0  0
  3 29  1  0  0  0  0
  4 12  1  0  0  0  0
  4  5  2  0  0  0  0
  5  6  1  0  0  0  0
  5 47  1  0  0  0  0
  6 11  2  0  0  0  0
  6  7  1  0  0  0  0
  7  8  2  0  0  0  0
  7 30  1  0  0  0  0
  8  9  1  0  0  0  0
  8 31  1  0  0  0  0
  9 10  2  0  0  0  0
  9 32  1  0  0  0  0
 10 11  1  0  0  0  0
 10 33  1  0  0  0  0
 11 12  1  0  0  0  0
 12 13  1  0  0  0  0
 13 14  1  0  0  0  0
 13 34  1  0  0  0  0
 13 35  1  0  0  0  0
 14 15  1  0  0  0  0
 14 16  1  0  0  0  0
 14 36  1  0  0  0  0
 15 37  1  0  0  0  0
 16 17  1  0  0  0  0
 16 38  1  0  0  0  0
 16 39  1  0  0  0  0
 17 18  1  0  0  0  0
 18 24  1  0  0  0  0
 18 19  2  0  0  0  0
 19 20  1  0  0  0  0
 19 40  1  0  0  0  0
 20 21  2  0  0  0  0
 20 41  1  0  0  0  0
 21 22  1  0  0  0  0
 21 23  1  0  0  0  0
 22 42  1  0  0  0  0
 22 43  1  0  0  0  0
 22 44  1  0  0  0  0
 23 24  2  0  0  0  0
 23 45  1  0  0  0  0
 24 46  1  0  0  0  0
M  CHG  1   5   1
M  END
> <s_m_source_file>
AV-unprocessed.smi

> <i_m_source_file_index>
869

> <i_lp_mmshare_version>
43012

> <i_f3d_flags>
0

> <s_epik_input>
W2NIXTFbY0hdW2NIXVtjSF1jKGMxMiluKGMobjIpW0NIMl1PW0NIM10pW0NIMl1bQ0BIXShbT0hdKVtDSDJdT2MzW2NIXVtjSF1jKFtDSDNdKVtjSF1bY0hdMw==

> <s_epik_cmdline>
J2VwaWtfcHl0aG9uJywgJy1waCcsICc3LjAnLCAnLXRuJywgJzgnLCAnLW1hJywgJzIwMCcsICctbWV0YWxfYmluZGluZycsICctaW1hZScsICc8aW5maWxlLm1hZT4nLCAnLW9tYWUnLCAnPG91dGZpbGUubWFlPic=

> <r_lp_tautomer_probability>
1

> <r_epik_Ionization_Penalty>
1.5538

> <r_epik_Ionization_Penalty_Charging>
1.5538

> <r_epik_Ionization_Penalty_Neutral>
2.3993e-06

> <r_epik_State_Penalty>
1.64824

> <r_epik_Charging_Adjusted_Penalty>
3.20204

> <i_epik_Tot_Q>
1

> <i_epik_Tot_abs_Q>
1

> <r_epik_Metal_State_Penalty>
5.70315

> <b_epik_Metal_Only>
0

> <s_lp_Force_Field>
OPLS_2005

> <r_lp_Energy>
19.236

> <b_lp_Chiralities_Consistent>
1

> <s_lp_Variant>
AV-unprocessed.smi:869-4

> <Gold.Version>
5.8.1

> <Gold.Id.Protein>
6NUR|6NUR_protein|mol2

> <Gold.PLP.Fitness>
52.7552

> <Gold.PLP.PLP>
-49.1346

> <Gold.PLP.part.hbond>
-1.0000

> <Gold.PLP.part.metal>
0.0000

> <Gold.PLP.part.buried>
-2.6412

> <Gold.PLP.part.nonpolar>
-44.9326

> <Gold.PLP.part.repulsive>
0.1711

> <Gold.PLP.ligand.clash>
0.0000

> <Gold.PLP.ligand.torsion>
1.2804

> <Gold.PLP.Chemscore.Hbond>
2.0000

> <Gold.PLP.Chemscore.CHOScore>
0.0000

> <Gold.PLP.Chemscore.Metal>
0.0000

> <Gold.Chemscore.Hbonds>
donor molecule, donor type, donor heavy atom, donor atom, acceptor molecule, acceptor atom, score
      L1  H     5    47       P1  8028  2.00

> <Gold.PLP.Chemscore.Internal.Correction>
0.1814

> <Gold.Rescore>
     Score         DG    S(hbond)    S(metal)    S(lipo)     H(rot)  DE(clash)    DE(int)     intcor
     16.52     -18.15       1.00        0.00     133.35       2.45       0.44       1.18       ----

> <Gold.Chemscore.Fitness>
16.5226

> <Gold.Chemscore.DG>
-18.1510

> <Gold.Chemscore.ZeroCoef>
-5.4800

> <Gold.Chemscore.Hbond>
0.9999

> <Gold.Chemscore.Metal>
0.0000

> <Gold.Chemscore.Lipo>
133.3479

> <Gold.Chemscore.Internal_Hbond>
0.0000

> <Gold.Chemscore.DEClash>
0.4435

> <Gold.Chemscore.DEInternal>
1.1849

> <Gold.Chemscore.Rot>
2.4494

> <Gold.Chemscore.Internal.Correction>
   9.000000E+99

> <Gold.Chemscore.Hbonds>
donor molecule, donor type, donor heavy atom, donor atom, acceptor molecule, acceptor atom, score
      L1  H     5    47       P1  8028  0.97

> <Gold.Chemscore.Hbond.Weighted>
-3.3397

> <Gold.Chemscore.Metal.Weighted>
-0.0000

> <Gold.Chemscore.Lipo.Weighted>
-15.6017

> <Gold.Chemscore.Internal_Hbond.Weighted>
0.0000

> <Gold.Chemscore.DEClash.Weighted>
0.4435

> <Gold.Chemscore.DEInternal.Weighted>
1.1849

> <Gold.Chemscore.Rot.Weighted>
6.2704

> <Gold.Chemscore.Internal.Correction.Weighted>
   9.000000E+99

> <Gold.Protein.RotatedTorsions>
[ 6907 6896 6895 6894 ] final   92.35 input  -60.11 | X-H torsion
[ 7974 7965 7964 7962 ] final  151.62 input  175.53 | X-H torsion
[ 8008 7997 7996 7995 ] final -133.05 input   59.86 | X-H torsion
[ 10167 10162 10161 10158 ] final   65.01 input  -65.29 | X-H torsion
[ 10718 10713 10712 10709 ] final  150.23 input   66.30 | X-H torsion
[ 10763 10752 10751 10750 ] final -173.80 input  -60.55 | X-H torsion
[ 11005 11000 10999 10996 ] final  -97.29 input  -57.11 | X-H torsion

> <Gold.Protein.ActiveResidues>
 VAL166  LYS551  ARG553  GLY616  TRP617  ASP618  TYR619  PRO620  LYS621  CYS622 
 ASP623  PHE694  ASN695  SER759  ASP760  ASP761  ALA762  ILE779  LEU786  VAL792 
 PHE793  MET794  SER795  GLU796  ALA797  LYS798  CYS799  TRP800  GLU811  SER814 

> <Gold.Protein.RotatedAtoms>
  152.5452  134.1516  159.8520 H   0  0  0  0  0  0  0  0  0  0  0  0  # atno 6907 bound_to 6896
  151.1542  133.4880  159.2602 H   0  0  0  0  0  0  0  0  0  0  0  0  # atno 6908 bound_to 6896
  151.1440  135.0204  159.8693 H   0  0  0  0  0  0  0  0  0  0  0  0  # atno 6909 bound_to 6896
  144.8279  139.6562  143.6072 H   0  0  0  0  0  0  0  0  0  0  0  0  # atno 7974 bound_to 7965
  155.3391  140.0471  157.3044 H   0  0  0  0  0  0  0  0  0  0  0  0  # atno 8008 bound_to 7997
  154.5287  140.2249  155.8808 H   0  0  0  0  0  0  0  0  0  0  0  0  # atno 8009 bound_to 7997
  156.1766  140.3083  155.9077 H   0  0  0  0  0  0  0  0  0  0  0  0  # atno 8010 bound_to 7997
  140.1160  144.4775  150.6949 H   0  0  0  0  0  0  0  0  0  0  0  0  # atno 10167 bound_to 10162
  157.2861  131.0844  151.1496 H   0  0  0  0  0  0  0  0  0  0  0  0  # atno 10718 bound_to 10713
  154.6036  135.2857  155.0508 H   0  0  0  0  0  0  0  0  0  0  0  0  # atno 10763 bound_to 10752
  154.1764  135.6464  153.5026 H   0  0  0  0  0  0  0  0  0  0  0  0  # atno 10764 bound_to 10752
  153.0166  135.5413  154.6764 H   0  0  0  0  0  0  0  0  0  0  0  0  # atno 10765 bound_to 10752
  141.1384  133.8160  157.0687 H   0  0  0  0  0  0  0  0  0  0  0  0  # atno 11005 bound_to 11000
  146.2584  139.6353  142.9379 LP  0  0  0  0  0  0  0  0  0  0  0  0  # atno 17320 bound_to 7965
  145.4959  141.0438  143.2567 LP  0  0  0  0  0  0  0  0  0  0  0  0  # atno 17321 bound_to 7965
  140.6899  143.2370  151.5159 LP  0  0  0  0  0  0  0  0  0  0  0  0  # atno 17342 bound_to 10162
  139.5594  144.2195  152.1666 LP  0  0  0  0  0  0  0  0  0  0  0  0  # atno 17343 bound_to 10162
  157.2911  130.6797  149.6115 LP  0  0  0  0  0  0  0  0  0  0  0  0  # atno 17370 bound_to 10713
  155.9665  130.4420  150.5365 LP  0  0  0  0  0  0  0  0  0  0  0  0  # atno 17371 bound_to 10713
  140.0525  134.9798  157.1162 LP  0  0  0  0  0  0  0  0  0  0  0  0  # atno 17394 bound_to 11000
  140.3968  134.2125  155.7164 LP  0  0  0  0  0  0  0  0  0  0  0  0  # atno 17395 bound_to 11000

$$$$
