AV-unprocessed.smi:2638|AV-procd|sdf|10263|dock3
  -GOLD-   2272014273D 1   1.00000     0.00000
 Structure written by MMmdl.
 43 44  0  0  0  0  0  0  0  0  1 V2000
  150.2036  140.7071  156.8385 O   0  0  0  0  0  0  0  0  0  0  0  0
  150.1049  141.8708  156.4501 C   0  0  0  0  0  0  0  0  0  0  0  0
  150.7015  142.9322  157.0204 N   0  0  0  0  0  0  0  0  0  0  0  0
  151.5406  142.9661  158.1661 C   0  0  0  0  0  0  0  0  0  0  0  0
  151.6415  144.1396  158.9580 C   0  0  0  0  0  0  0  0  0  0  0  0
  152.4628  144.1327  160.1019 C   0  0  0  0  0  0  0  0  0  0  0  0
  153.1521  142.9537  160.4359 C   0  0  0  0  0  0  0  0  0  0  0  0
  152.9796  141.8295  159.6084 C   0  0  0  0  0  0  0  0  0  0  0  0
  152.1934  141.8322  158.5110 N   0  0  0  0  0  0  0  0  0  0  0  0
  149.3625  142.2461  155.3950 N   0  0  0  0  0  0  0  0  0  0  0  0
  148.5658  141.3828  154.5136 C   0  0  1  0  0  0  0  0  0  0  0  0
  149.2030  139.9744  154.3812 C   0  0  0  0  0  0  0  0  0  0  0  0
  148.1916  138.8519  154.0890 C   0  0  0  0  0  0  0  0  0  0  0  0
  147.9386  138.7850  152.7024 O   0  0  0  0  0  0  0  0  0  0  0  0
  147.0556  141.3728  154.9047 C   0  0  0  0  0  0  0  0  0  0  0  0
  146.3325  142.6846  154.5109 C   0  0  0  0  0  0  0  0  0  0  0  0
  144.8494  142.6824  154.9168 C   0  0  0  0  0  0  0  0  0  0  0  0
  144.6794  142.4185  156.4178 C   0  0  0  0  0  0  0  0  0  0  0  0
  145.3637  141.1052  156.8151 C   0  0  0  0  0  0  0  0  0  0  0  0
  146.8480  141.1095  156.4186 C   0  0  0  0  0  0  0  0  0  0  0  0
  150.4447  143.8352  156.6502 H   0  0  0  0  0  0  0  0  0  0  0  0
  151.0950  145.0384  158.7158 H   0  0  0  0  0  0  0  0  0  0  0  0
  152.5566  145.0161  160.7162 H   0  0  0  0  0  0  0  0  0  0  0  0
  153.7902  142.9100  161.3060 H   0  0  0  0  0  0  0  0  0  0  0  0
  153.4839  140.9017  159.8345 H   0  0  0  0  0  0  0  0  0  0  0  0
  149.3467  143.2307  155.1730 H   0  0  0  0  0  0  0  0  0  0  0  0
  148.6356  141.8510  153.5310 H   0  0  0  0  0  0  0  0  0  0  0  0
  149.9731  139.9826  153.6088 H   0  0  0  0  0  0  0  0  0  0  0  0
  149.7120  139.7170  155.3091 H   0  0  0  0  0  0  0  0  0  0  0  0
  148.5791  137.8895  154.4245 H   0  0  0  0  0  0  0  0  0  0  0  0
  147.2464  139.0232  154.6045 H   0  0  0  0  0  0  0  0  0  0  0  0
  148.5428  138.1700  152.3154 H   0  0  0  0  0  0  0  0  0  0  0  0
  146.5686  140.5628  154.3602 H   0  0  0  0  0  0  0  0  0  0  0  0
  146.8349  143.5351  154.9735 H   0  0  0  0  0  0  0  0  0  0  0  0
  146.3803  142.8442  153.4347 H   0  0  0  0  0  0  0  0  0  0  0  0
  144.3918  143.6366  154.6542 H   0  0  0  0  0  0  0  0  0  0  0  0
  144.3168  141.9188  154.3484 H   0  0  0  0  0  0  0  0  0  0  0  0
  145.1080  143.2440  156.9875 H   0  0  0  0  0  0  0  0  0  0  0  0
  143.6201  142.3808  156.6735 H   0  0  0  0  0  0  0  0  0  0  0  0
  145.2674  140.9472  157.8896 H   0  0  0  0  0  0  0  0  0  0  0  0
  144.8590  140.2670  156.3329 H   0  0  0  0  0  0  0  0  0  0  0  0
  147.2786  140.1515  156.7093 H   0  0  0  0  0  0  0  0  0  0  0  0
  147.3742  141.8696  156.9975 H   0  0  0  0  0  0  0  0  0  0  0  0
  1  2  2  0  0  0  0
  2  3  1  0  0  0  0
  2 10  1  0  0  0  0
  3  4  1  0  0  0  0
  3 21  1  0  0  0  0
  4  9  1  0  0  0  0
  4  5  2  0  0  0  0
  5  6  1  0  0  0  0
  5 22  1  0  0  0  0
  6  7  2  0  0  0  0
  6 23  1  0  0  0  0
  7  8  1  0  0  0  0
  7 24  1  0  0  0  0
  8  9  2  0  0  0  0
  8 25  1  0  0  0  0
 10 11  1  0  0  0  0
 10 26  1  0  0  0  0
 11 12  1  0  0  0  0
 11 15  1  0  0  0  0
 11 27  1  0  0  0  0
 12 13  1  0  0  0  0
 12 28  1  0  0  0  0
 12 29  1  0  0  0  0
 13 14  1  0  0  0  0
 13 30  1  0  0  0  0
 13 31  1  0  0  0  0
 14 32  1  0  0  0  0
 15 20  1  0  0  0  0
 15 16  1  0  0  0  0
 15 33  1  0  0  0  0
 16 17  1  0  0  0  0
 16 34  1  0  0  0  0
 16 35  1  0  0  0  0
 17 18  1  0  0  0  0
 17 36  1  0  0  0  0
 17 37  1  0  0  0  0
 18 19  1  0  0  0  0
 18 38  1  0  0  0  0
 18 39  1  0  0  0  0
 19 20  1  0  0  0  0
 19 40  1  0  0  0  0
 19 41  1  0  0  0  0
 20 42  1  0  0  0  0
 20 43  1  0  0  0  0
M  END
> <s_m_source_file>
AV-unprocessed.smi

> <i_m_source_file_index>
2638

> <i_lp_mmshare_version>
43012

> <i_f3d_flags>
0

> <s_epik_input>
bjFbY0hdW2NIXVtjSF1bY0hdYzFbTkhdQyg9TylbTkhdW0NASF0oW0NIMl1bQ0gyXVtPSF0pW0NIXTJbQ0gyXVtDSDJdW0NIMl1bQ0gyXVtDSDJdMg==

> <s_epik_cmdline>
J2VwaWtfcHl0aG9uJywgJy1waCcsICc3LjAnLCAnLXRuJywgJzgnLCAnLW1hJywgJzIwMCcsICctbWV0YWxfYmluZGluZycsICctaW1hZScsICc8aW5maWxlLm1hZT4nLCAnLW9tYWUnLCAnPG91dGZpbGUubWFlPic=

> <r_lp_tautomer_probability>
1

> <r_epik_Ionization_Penalty>
5.22449e-05

> <r_epik_Ionization_Penalty_Charging>
0

> <r_epik_Ionization_Penalty_Neutral>
5.22449e-05

> <r_epik_State_Penalty>
-0

> <r_epik_Charging_Adjusted_Penalty>
0

> <i_epik_Tot_Q>
0

> <i_epik_Tot_abs_Q>
0

> <r_epik_Metal_State_Penalty>
-0

> <b_epik_Metal_Only>
0

> <s_lp_Force_Field>
OPLS_2005

> <r_lp_Energy>
21.512

> <b_lp_Chiralities_Consistent>
1

> <s_lp_Variant>
AV-unprocessed.smi:2638-2

> <Gold.Version>
5.8.1

> <Gold.Id.Protein>
6NUR|6NUR_protein|mol2

> <Gold.PLP.Fitness>
47.2199

> <Gold.PLP.PLP>
-43.3036

> <Gold.PLP.part.hbond>
-3.9386

> <Gold.PLP.part.metal>
0.0000

> <Gold.PLP.part.buried>
-5.7066

> <Gold.PLP.part.nonpolar>
-34.9807

> <Gold.PLP.part.repulsive>
0.2748

> <Gold.PLP.ligand.clash>
0.0000

> <Gold.PLP.ligand.torsion>
1.2870

> <Gold.PLP.Chemscore.Hbond>
2.1184

> <Gold.PLP.Chemscore.CHOScore>
0.0000

> <Gold.PLP.Chemscore.Metal>
0.0000

> <Gold.Chemscore.Hbonds>
donor molecule, donor type, donor heavy atom, donor atom, acceptor molecule, acceptor atom, score
      L1  H     3    21       P1  8028  0.81
      L1  H    10    26       P1  8028  0.94
      L1  H    14    32       P1  7948  0.98

> <Gold.PLP.Chemscore.Internal.Correction>
0.1352

> <Gold.Rescore>
     Score         DG    S(hbond)    S(metal)    S(lipo)     H(rot)  DE(clash)    DE(int)     intcor
     14.18     -18.51       2.68        0.00      85.02       2.30       0.03       4.29       ----

> <Gold.Chemscore.Fitness>
14.1849

> <Gold.Chemscore.DG>
-18.5060

> <Gold.Chemscore.ZeroCoef>
-5.4800

> <Gold.Chemscore.Hbond>
2.6823

> <Gold.Chemscore.Metal>
0.0000

> <Gold.Chemscore.Lipo>
85.0241

> <Gold.Chemscore.Internal_Hbond>
0.0000

> <Gold.Chemscore.DEClash>
0.0299

> <Gold.Chemscore.DEInternal>
4.2912

> <Gold.Chemscore.Rot>
2.2972

> <Gold.Chemscore.Internal.Correction>
   9.000000E+99

> <Gold.Chemscore.Hbonds>
donor molecule, donor type, donor heavy atom, donor atom, acceptor molecule, acceptor atom, score
      L1  H     3    21       P1  8028  0.73
      L1  H    10    26       P1  8028  0.90
      L1  H    14    32       P1  7948  0.90

> <Gold.Chemscore.Hbond.Weighted>
-8.9589

> <Gold.Chemscore.Metal.Weighted>
-0.0000

> <Gold.Chemscore.Lipo.Weighted>
-9.9478

> <Gold.Chemscore.Internal_Hbond.Weighted>
0.0000

> <Gold.Chemscore.DEClash.Weighted>
0.0299

> <Gold.Chemscore.DEInternal.Weighted>
4.2912

> <Gold.Chemscore.Rot.Weighted>
5.8807

> <Gold.Chemscore.Internal.Correction.Weighted>
   9.000000E+99

> <Gold.Protein.RotatedTorsions>
[ 6907 6896 6895 6894 ] final   45.29 input  -60.11 | X-H torsion
[ 7974 7965 7964 7962 ] final  123.20 input  175.53 | X-H torsion
[ 8008 7997 7996 7995 ] final  116.50 input   59.86 | X-H torsion
[ 10167 10162 10161 10158 ] final -139.18 input  -65.29 | X-H torsion
[ 10718 10713 10712 10709 ] final  -85.17 input   66.30 | X-H torsion
[ 10763 10752 10751 10750 ] final   23.73 input  -60.55 | X-H torsion
[ 11005 11000 10999 10996 ] final  149.10 input  -57.11 | X-H torsion

> <Gold.Protein.ActiveResidues>
 VAL166  LYS551  ARG553  GLY616  TRP617  ASP618  TYR619  PRO620  LYS621  CYS622 
 ASP623  PHE694  ASN695  SER759  ASP760  ASP761  ALA762  ILE779  LEU786  VAL792 
 PHE793  MET794  SER795  GLU796  ALA797  LYS798  CYS799  TRP800  GLU811  SER814 

> <Gold.Protein.RotatedAtoms>
  152.2427  134.8212  160.0457 H   0  0  0  0  0  0  0  0  0  0  0  0  # atno 6907 bound_to 6896
  151.8921  133.3513  159.3810 H   0  0  0  0  0  0  0  0  0  0  0  0  # atno 6908 bound_to 6896
  150.7059  134.4840  159.5528 H   0  0  0  0  0  0  0  0  0  0  0  0  # atno 6909 bound_to 6896
  145.0987  139.3534  143.4823 H   0  0  0  0  0  0  0  0  0  0  0  0  # atno 7974 bound_to 7965
  156.2443  140.2916  156.0533 H   0  0  0  0  0  0  0  0  0  0  0  0  # atno 8008 bound_to 7997
  155.1857  140.0405  157.2908 H   0  0  0  0  0  0  0  0  0  0  0  0  # atno 8009 bound_to 7997
  154.6229  140.2480  155.7534 H   0  0  0  0  0  0  0  0  0  0  0  0  # atno 8010 bound_to 7997
  139.8405  143.7328  152.2663 H   0  0  0  0  0  0  0  0  0  0  0  0  # atno 10167 bound_to 10162
  155.9999  130.4722  150.4521 H   0  0  0  0  0  0  0  0  0  0  0  0  # atno 10718 bound_to 10713
  153.0817  135.6621  154.0032 H   0  0  0  0  0  0  0  0  0  0  0  0  # atno 10763 bound_to 10752
  153.9653  135.2970  155.3432 H   0  0  0  0  0  0  0  0  0  0  0  0  # atno 10764 bound_to 10752
  154.7217  135.5162  153.8894 H   0  0  0  0  0  0  0  0  0  0  0  0  # atno 10765 bound_to 10752
  140.1016  134.8980  157.1804 H   0  0  0  0  0  0  0  0  0  0  0  0  # atno 11005 bound_to 11000
  146.3530  140.0855  142.8615 LP  0  0  0  0  0  0  0  0  0  0  0  0  # atno 17320 bound_to 7965
  145.0980  140.9328  143.4729 LP  0  0  0  0  0  0  0  0  0  0  0  0  # atno 17321 bound_to 7965
  139.7564  144.7519  151.0429 LP  0  0  0  0  0  0  0  0  0  0  0  0  # atno 17342 bound_to 10162
  140.7798  143.4801  151.0030 LP  0  0  0  0  0  0  0  0  0  0  0  0  # atno 17343 bound_to 10162
  157.2553  131.0555  151.2354 LP  0  0  0  0  0  0  0  0  0  0  0  0  # atno 17370 bound_to 10713
  157.3488  130.7071  149.6427 LP  0  0  0  0  0  0  0  0  0  0  0  0  # atno 17371 bound_to 10713
  140.3213  134.2913  155.7246 LP  0  0  0  0  0  0  0  0  0  0  0  0  # atno 17394 bound_to 11000
  141.2107  133.7711  156.9914 LP  0  0  0  0  0  0  0  0  0  0  0  0  # atno 17395 bound_to 11000

$$$$
