AV-unprocessed.smi:7|AV-procd|sdf|44|dock7
  -GOLD-   2262015163D 1   1.00000     0.00000
 Structure written by MMmdl.
 45 48  0  0  0  0  0  0  0  0  1 V2000
  149.7655  138.4676  153.9648 O   0  0  0  0  0  0  0  0  0  0  0  0
  150.3058  138.6076  155.0625 C   0  0  0  0  0  0  0  0  0  0  0  0
  150.5764  139.9403  155.6500 C   0  0  0  0  0  0  0  0  0  0  0  0
  150.3343  141.2180  155.1471 N   0  0  0  0  0  0  0  0  0  0  0  0
  150.7942  142.0087  156.1160 C   0  0  0  0  0  0  0  0  0  0  0  0
  151.2987  141.3408  157.1705 N   0  0  0  0  0  0  0  0  0  0  0  0
  151.8154  142.0388  158.2867 C   0  0  0  0  0  0  0  0  0  0  0  0
  152.7300  141.4170  159.1666 C   0  0  0  0  0  0  0  0  0  0  0  0
  153.2340  142.1213  160.2777 C   0  0  0  0  0  0  0  0  0  0  0  0
  152.8265  143.4480  160.5159 C   0  0  0  0  0  0  0  0  0  0  0  0
  151.9134  144.0707  159.6433 C   0  0  0  0  0  0  0  0  0  0  0  0
  151.4081  143.3680  158.5320 C   0  0  0  0  0  0  0  0  0  0  0  0
  151.1613  139.9896  156.8856 C   0  0  0  0  0  0  0  0  0  0  0  0
  151.5514  138.9455  157.6929 N   0  0  0  0  0  0  0  0  0  0  0  0
  151.3077  137.7838  157.1442 C   0  0  0  0  0  0  0  0  0  0  0  0
  150.7180  137.5777  155.8597 N   0  0  0  0  0  0  0  0  0  0  0  0
  150.5536  136.1813  155.4296 C   0  0  0  0  0  0  0  0  0  0  0  0
  149.0805  135.7105  155.5396 C   0  0  1  0  0  0  0  0  0  0  0  0
  148.3485  136.3499  154.5103 O   0  0  0  0  0  0  0  0  0  0  0  0
  148.9148  134.1711  155.4129 C   0  0  0  0  0  0  0  0  0  0  0  0
  147.5872  133.8508  155.7952 O   0  0  0  0  0  0  0  0  0  0  0  0
  149.1118  133.6147  153.9930 C   0  0  0  0  0  0  0  0  0  0  0  0
  149.3607  132.1145  154.1831 C   0  0  0  0  0  0  0  0  0  0  0  0
  149.9682  131.9558  155.5853 C   0  0  0  0  0  0  0  0  0  0  0  0
  149.8816  133.3307  156.2655 C   0  0  0  0  0  0  0  0  0  0  0  0
  150.7524  143.0866  156.0519 H   0  0  0  0  0  0  0  0  0  0  0  0
  153.0448  140.3975  158.9983 H   0  0  0  0  0  0  0  0  0  0  0  0
  153.9324  141.6426  160.9483 H   0  0  0  0  0  0  0  0  0  0  0  0
  153.2131  143.9876  161.3683 H   0  0  0  0  0  0  0  0  0  0  0  0
  151.6003  145.0882  159.8259 H   0  0  0  0  0  0  0  0  0  0  0  0
  150.7108  143.8549  157.8663 H   0  0  0  0  0  0  0  0  0  0  0  0
  151.5513  136.8570  157.6668 H   0  0  0  0  0  0  0  0  0  0  0  0
  150.9369  136.0286  154.4184 H   0  0  0  0  0  0  0  0  0  0  0  0
  151.2012  135.5521  156.0424 H   0  0  0  0  0  0  0  0  0  0  0  0
  148.6521  136.0245  156.4931 H   0  0  0  0  0  0  0  0  0  0  0  0
  148.6801  136.0526  153.6763 H   0  0  0  0  0  0  0  0  0  0  0  0
  147.6237  133.2060  156.4849 H   0  0  0  0  0  0  0  0  0  0  0  0
  148.2689  133.8202  153.3316 H   0  0  0  0  0  0  0  0  0  0  0  0
  149.9961  134.0523  153.5288 H   0  0  0  0  0  0  0  0  0  0  0  0
  148.4138  131.5754  154.1326 H   0  0  0  0  0  0  0  0  0  0  0  0
  150.0072  131.7077  153.4047 H   0  0  0  0  0  0  0  0  0  0  0  0
  149.4118  131.2089  156.1526 H   0  0  0  0  0  0  0  0  0  0  0  0
  151.0037  131.6177  155.5333 H   0  0  0  0  0  0  0  0  0  0  0  0
  150.8741  133.7827  156.2598 H   0  0  0  0  0  0  0  0  0  0  0  0
  149.5738  133.2584  157.3095 H   0  0  0  0  0  0  0  0  0  0  0  0
  1  2  2  0  0  0  0
  2 16  1  0  0  0  0
  2  3  1  0  0  0  0
  3 13  2  0  0  0  0
  3  4  1  0  0  0  0
  4  5  2  0  0  0  0
  5  6  1  0  0  0  0
  5 26  1  0  0  0  0
  6  7  1  0  0  0  0
  6 13  1  0  0  0  0
  7 12  1  0  0  0  0
  7  8  2  0  0  0  0
  8  9  1  0  0  0  0
  8 27  1  0  0  0  0
  9 10  2  0  0  0  0
  9 28  1  0  0  0  0
 10 11  1  0  0  0  0
 10 29  1  0  0  0  0
 11 12  2  0  0  0  0
 11 30  1  0  0  0  0
 12 31  1  0  0  0  0
 13 14  1  0  0  0  0
 14 15  2  0  0  0  0
 15 16  1  0  0  0  0
 15 32  1  0  0  0  0
 16 17  1  0  0  0  0
 17 18  1  0  0  0  0
 17 33  1  0  0  0  0
 17 34  1  0  0  0  0
 18 19  1  0  0  0  0
 18 20  1  0  0  0  0
 18 35  1  0  0  0  0
 19 36  1  0  0  0  0
 20 25  1  0  0  0  0
 20 21  1  0  0  0  0
 20 22  1  0  0  0  0
 21 37  1  0  0  0  0
 22 23  1  0  0  0  0
 22 38  1  0  0  0  0
 22 39  1  0  0  0  0
 23 24  1  0  0  0  0
 23 40  1  0  0  0  0
 23 41  1  0  0  0  0
 24 25  1  0  0  0  0
 24 42  1  0  0  0  0
 24 43  1  0  0  0  0
 25 44  1  0  0  0  0
 25 45  1  0  0  0  0
M  END
> <s_m_source_file>
AV-unprocessed.smi

> <i_m_source_file_index>
7

> <i_lp_mmshare_version>
43012

> <i_f3d_flags>
0

> <s_epik_input>
W0NIMl0xW0NIMl1bQ0gyXVtDSDJdQzEoW09IXSlbQ0BASF0oW09IXSlbQ0gyXW4oYzI9TylbY0hdbmMoYzIzKW4oW2NIXW4zKS1jNFtjSF1bY0hdW2NIXVtjSF1bY0hdNA==

> <s_epik_cmdline>
J2VwaWtfcHl0aG9uJywgJy1waCcsICc3LjAnLCAnLXRuJywgJzgnLCAnLW1hJywgJzIwMCcsICctbWV0YWxfYmluZGluZycsICctaW1hZScsICc8aW5maWxlLm1hZT4nLCAnLW9tYWUnLCAnPG91dGZpbGUubWFlPic=

> <r_lp_tautomer_probability>
1

> <r_epik_Ionization_Penalty>
0.000116694

> <r_epik_Ionization_Penalty_Charging>
6.60428e-09

> <r_epik_Ionization_Penalty_Neutral>
0.000116688

> <r_epik_State_Penalty>
-0

> <r_epik_Charging_Adjusted_Penalty>
6.60428e-09

> <i_epik_Tot_Q>
0

> <i_epik_Tot_abs_Q>
0

> <r_epik_Metal_State_Penalty>
-0

> <b_epik_Metal_Only>
0

> <s_lp_Force_Field>
OPLS_2005

> <r_lp_Energy>
52.8935

> <b_lp_Chiralities_Consistent>
1

> <s_lp_Variant>
AV-unprocessed.smi:7-2

> <Gold.Version>
5.8.1

> <Gold.Id.Protein>
6NUR|6NUR_protein|mol2

> <Gold.PLP.Fitness>
49.4306

> <Gold.PLP.PLP>
-43.7053

> <Gold.PLP.part.hbond>
-2.0000

> <Gold.PLP.part.metal>
0.0000

> <Gold.PLP.part.buried>
-5.7110

> <Gold.PLP.part.nonpolar>
-36.5160

> <Gold.PLP.part.repulsive>
0.3706

> <Gold.PLP.ligand.clash>
0.0000

> <Gold.PLP.ligand.torsion>
0.7142

> <Gold.PLP.Chemscore.Hbond>
1.3853

> <Gold.PLP.Chemscore.CHOScore>
0.9951

> <Gold.PLP.Chemscore.Metal>
0.0000

> <Gold.Chemscore.Hbonds>
donor molecule, donor type, donor heavy atom, donor atom, acceptor molecule, acceptor atom, score
      L1  H    19    36       P1  7948  1.00
      P1  H  7989  7998       L1     4  0.29
      L1  C     5    26       P1  8028  1.00

> <Gold.PLP.Chemscore.Internal.Correction>
0.0123

> <Gold.Rescore>
     Score         DG    S(hbond)    S(metal)    S(lipo)     H(rot)  DE(clash)    DE(int)     intcor
     13.02     -13.74       1.00        0.00     102.91       2.79       0.02       0.70       ----

> <Gold.Chemscore.Fitness>
13.0199

> <Gold.Chemscore.DG>
-13.7431

> <Gold.Chemscore.ZeroCoef>
-5.4800

> <Gold.Chemscore.Hbond>
1.0044

> <Gold.Chemscore.Metal>
0.0000

> <Gold.Chemscore.Lipo>
102.9112

> <Gold.Chemscore.Internal_Hbond>
0.0000

> <Gold.Chemscore.DEClash>
0.0223

> <Gold.Chemscore.DEInternal>
0.7009

> <Gold.Chemscore.Rot>
2.7860

> <Gold.Chemscore.Internal.Correction>
   9.000000E+99

> <Gold.Chemscore.Hbonds>
donor molecule, donor type, donor heavy atom, donor atom, acceptor molecule, acceptor atom, score
      L1  H    19    36       P1  7948  0.97
      P1  H  7989  7998       L1     4  0.02

> <Gold.Chemscore.Hbond.Weighted>
-3.3546

> <Gold.Chemscore.Metal.Weighted>
-0.0000

> <Gold.Chemscore.Lipo.Weighted>
-12.0406

> <Gold.Chemscore.Internal_Hbond.Weighted>
0.0000

> <Gold.Chemscore.DEClash.Weighted>
0.0223

> <Gold.Chemscore.DEInternal.Weighted>
0.7009

> <Gold.Chemscore.Rot.Weighted>
7.1322

> <Gold.Chemscore.Internal.Correction.Weighted>
   9.000000E+99

> <Gold.Protein.RotatedTorsions>
[ 6907 6896 6895 6894 ] final -128.22 input  -60.11 | X-H torsion
[ 7974 7965 7964 7962 ] final    6.90 input  175.53 | X-H torsion
[ 8008 7997 7996 7995 ] final   96.13 input   59.86 | X-H torsion
[ 10167 10162 10161 10158 ] final   41.63 input  -65.29 | X-H torsion
[ 10718 10713 10712 10709 ] final  167.41 input   66.30 | X-H torsion
[ 10763 10752 10751 10750 ] final  144.18 input  -60.55 | X-H torsion
[ 11005 11000 10999 10996 ] final  -51.49 input  -57.11 | X-H torsion

> <Gold.Protein.ActiveResidues>
 VAL166  LYS551  ARG553  GLY616  TRP617  ASP618  TYR619  PRO620  LYS621  CYS622 
 ASP623  PHE694  ASN695  SER759  ASP760  ASP761  ALA762  ILE779  LEU786  VAL792 
 PHE793  MET794  SER795  GLU796  ALA797  LYS798  CYS799  TRP800  GLU811  SER814 

> <Gold.Protein.RotatedAtoms>
  150.9156  133.6943  159.2843 H   0  0  0  0  0  0  0  0  0  0  0  0  # atno 6907 bound_to 6896
  151.4415  135.1019  159.9681 H   0  0  0  0  0  0  0  0  0  0  0  0  # atno 6908 bound_to 6896
  152.4953  133.8563  159.7282 H   0  0  0  0  0  0  0  0  0  0  0  0  # atno 6909 bound_to 6896
  146.2431  140.0164  142.8402 H   0  0  0  0  0  0  0  0  0  0  0  0  # atno 7974 bound_to 7965
  156.0763  140.3277  155.7638 H   0  0  0  0  0  0  0  0  0  0  0  0  # atno 8008 bound_to 7997
  155.5225  140.0586  157.2921 H   0  0  0  0  0  0  0  0  0  0  0  0  # atno 8009 bound_to 7997
  154.4557  140.1941  156.0403 H   0  0  0  0  0  0  0  0  0  0  0  0  # atno 8010 bound_to 7997
  140.3624  144.2211  150.6137 H   0  0  0  0  0  0  0  0  0  0  0  0  # atno 10167 bound_to 10162
  157.0519  131.0316  151.2678 H   0  0  0  0  0  0  0  0  0  0  0  0  # atno 10718 bound_to 10713
  153.9847  135.2938  155.3417 H   0  0  0  0  0  0  0  0  0  0  0  0  # atno 10763 bound_to 10752
  154.7249  135.5093  153.8873 H   0  0  0  0  0  0  0  0  0  0  0  0  # atno 10764 bound_to 10752
  153.0838  135.6687  154.0106 H   0  0  0  0  0  0  0  0  0  0  0  0  # atno 10765 bound_to 10752
  141.0873  133.6639  156.3884 H   0  0  0  0  0  0  0  0  0  0  0  0  # atno 11005 bound_to 11000
  145.1281  140.9502  143.4560 LP  0  0  0  0  0  0  0  0  0  0  0  0  # atno 17320 bound_to 7965
  145.0415  139.3256  143.5974 LP  0  0  0  0  0  0  0  0  0  0  0  0  # atno 17321 bound_to 7965
  140.5113  143.2290  151.8530 LP  0  0  0  0  0  0  0  0  0  0  0  0  # atno 17342 bound_to 10162
  139.4812  144.4946  151.9141 LP  0  0  0  0  0  0  0  0  0  0  0  0  # atno 17343 bound_to 10162
  157.5023  130.7887  149.7618 LP  0  0  0  0  0  0  0  0  0  0  0  0  # atno 17370 bound_to 10713
  156.0005  130.3883  150.2625 LP  0  0  0  0  0  0  0  0  0  0  0  0  # atno 17371 bound_to 10713
  140.5332  134.6192  157.5357 LP  0  0  0  0  0  0  0  0  0  0  0  0  # atno 17394 bound_to 11000
  139.9694  134.7319  156.0073 LP  0  0  0  0  0  0  0  0  0  0  0  0  # atno 17395 bound_to 11000

$$$$
