AV-unprocessed.smi:1703|AV-procd|sdf|6872|dock3
  -GOLD-   22720 8 73D 1   1.00000     0.00000
 Structure written by MMmdl.
 49 51  0  0  0  0  0  0  0  0  2 V2000
  147.8456  135.6465  161.8736 C   0  0  0  0  0  0  0  0  0  0  0  0
  147.6052  136.7163  160.8032 C   0  0  1  0  0  0  0  0  0  0  0  0
  148.8466  136.9436  159.9223 C   0  0  0  0  0  0  0  0  0  0  0  0
  148.5923  137.9039  158.8555 N   0  0  0  0  0  0  0  0  0  0  0  0
  149.8019  138.1337  158.0634 C   0  0  0  0  0  0  0  0  0  0  0  0
  150.9648  138.8160  158.8104 C   0  0  1  0  0  0  0  0  0  0  0  0
  151.6903  137.8227  159.5075 O   0  0  0  0  0  0  0  0  0  0  0  0
  151.9050  139.5532  157.8370 C   0  0  0  0  0  0  0  0  0  0  0  0
  151.4639  140.9275  157.5438 N   0  0  0  0  0  0  0  0  0  0  0  0
  150.6058  141.3902  156.5886 C   0  0  0  0  0  0  0  0  0  0  0  0
  149.8706  140.5824  155.5698 C   0  0  0  0  0  0  0  0  0  0  0  0
  150.7408  139.9160  154.6821 O   0  0  0  0  0  0  0  0  0  0  0  0
  150.5282  142.7427  156.7364 N   0  3  0  0  0  0  0  0  0  0  0  0
  151.3410  143.1507  157.7942 C   0  0  0  0  0  0  0  0  0  0  0  0
  151.5853  144.4164  158.3182 C   0  0  0  0  0  0  0  0  0  0  0  0
  152.4709  144.4878  159.4134 C   0  0  0  0  0  0  0  0  0  0  0  0
  153.0734  143.3298  159.9463 C   0  0  0  0  0  0  0  0  0  0  0  0
  152.8193  142.0523  159.4051 C   0  0  0  0  0  0  0  0  0  0  0  0
  151.9443  141.9897  158.3203 C   0  0  0  0  0  0  0  0  0  0  0  0
  147.4697  137.4269  158.0486 C   0  0  0  0  0  0  0  0  0  0  0  0
  146.2068  137.1490  158.8885 C   0  0  2  0  0  0  0  0  0  0  0  0
  145.4910  138.4289  159.3532 C   0  0  0  0  0  0  0  0  0  0  0  0
  146.5183  136.2882  159.9849 O   0  0  0  0  0  0  0  0  0  0  0  0
  148.6643  135.9302  162.5353 H   0  0  0  0  0  0  0  0  0  0  0  0
  148.0967  134.6863  161.4223 H   0  0  0  0  0  0  0  0  0  0  0  0
  146.9562  135.5037  162.4878 H   0  0  0  0  0  0  0  0  0  0  0  0
  147.3379  137.6475  161.3036 H   0  0  0  0  0  0  0  0  0  0  0  0
  149.6672  137.2969  160.5480 H   0  0  0  0  0  0  0  0  0  0  0  0
  149.1695  135.9933  159.4940 H   0  0  0  0  0  0  0  0  0  0  0  0
  150.1662  137.1805  157.6771 H   0  0  0  0  0  0  0  0  0  0  0  0
  149.5425  138.7263  157.1847 H   0  0  0  0  0  0  0  0  0  0  0  0
  150.5894  139.5369  159.5344 H   0  0  0  0  0  0  0  0  0  0  0  0
  152.2245  138.2504  160.1602 H   0  0  0  0  0  0  0  0  0  0  0  0
  152.9281  139.5730  158.2127 H   0  0  0  0  0  0  0  0  0  0  0  0
  151.9475  139.0183  156.8882 H   0  0  0  0  0  0  0  0  0  0  0  0
  149.2480  139.8434  156.0750 H   0  0  0  0  0  0  0  0  0  0  0  0
  149.2011  141.2275  155.0009 H   0  0  0  0  0  0  0  0  0  0  0  0
  150.7577  138.9984  154.9087 H   0  0  0  0  0  0  0  0  0  0  0  0
  151.1220  145.3044  157.9139 H   0  0  0  0  0  0  0  0  0  0  0  0
  152.6904  145.4491  159.8549 H   0  0  0  0  0  0  0  0  0  0  0  0
  153.7436  143.4217  160.7888 H   0  0  0  0  0  0  0  0  0  0  0  0
  153.2815  141.1723  159.8270 H   0  0  0  0  0  0  0  0  0  0  0  0
  147.2184  138.1459  157.2704 H   0  0  0  0  0  0  0  0  0  0  0  0
  147.7590  136.5081  157.5360 H   0  0  0  0  0  0  0  0  0  0  0  0
  145.5024  136.6016  158.2616 H   0  0  0  0  0  0  0  0  0  0  0  0
  145.1546  139.0161  158.4985 H   0  0  0  0  0  0  0  0  0  0  0  0
  146.1404  139.0680  159.9509 H   0  0  0  0  0  0  0  0  0  0  0  0
  144.6137  138.1879  159.9536 H   0  0  0  0  0  0  0  0  0  0  0  0
  149.9549  143.3408  156.1555 H   0  0  0  0  0  0  0  0  0  0  0  0
  1  2  1  0  0  0  0
  1 24  1  0  0  0  0
  1 25  1  0  0  0  0
  1 26  1  0  0  0  0
  2 23  1  0  0  0  0
  2  3  1  0  0  0  0
  2 27  1  0  0  0  0
  3  4  1  0  0  0  0
  3 28  1  0  0  0  0
  3 29  1  0  0  0  0
  4  5  1  0  0  0  0
  4 20  1  0  0  0  0
  5  6  1  0  0  0  0
  5 30  1  0  0  0  0
  5 31  1  0  0  0  0
  6  7  1  0  0  0  0
  6  8  1  0  0  0  0
  6 32  1  0  0  0  0
  7 33  1  0  0  0  0
  8  9  1  0  0  0  0
  8 34  1  0  0  0  0
  8 35  1  0  0  0  0
  9 19  1  0  0  0  0
  9 10  1  0  0  0  0
 10 11  1  0  0  0  0
 10 13  2  0  0  0  0
 11 12  1  0  0  0  0
 11 36  1  0  0  0  0
 11 37  1  0  0  0  0
 12 38  1  0  0  0  0
 13 14  1  0  0  0  0
 13 49  1  0  0  0  0
 14 19  2  0  0  0  0
 14 15  1  0  0  0  0
 15 16  2  0  0  0  0
 15 39  1  0  0  0  0
 16 17  1  0  0  0  0
 16 40  1  0  0  0  0
 17 18  2  0  0  0  0
 17 41  1  0  0  0  0
 18 19  1  0  0  0  0
 18 42  1  0  0  0  0
 20 21  1  0  0  0  0
 20 43  1  0  0  0  0
 20 44  1  0  0  0  0
 21 22  1  0  0  0  0
 21 23  1  0  0  0  0
 21 45  1  0  0  0  0
 22 46  1  0  0  0  0
 22 47  1  0  0  0  0
 22 48  1  0  0  0  0
M  CHG  1  13   1
M  END
> <s_m_source_file>
AV-unprocessed.smi

> <i_m_source_file_index>
1703

> <i_lp_mmshare_version>
43012

> <i_f3d_flags>
0

> <s_epik_input>
W0NIM11bQ0BASF0xW0NIMl1OKFtDSDJdW0NASF0oTzEpW0NIM10pW0NIMl1bQ0BIXShbT0hdKVtDSDJdbihjKG4yKVtDSDJdW09IXSljKGMyMylbY0hdW2NIXVtjSF1bY0hdMw==

> <s_epik_cmdline>
J2VwaWtfcHl0aG9uJywgJy1waCcsICc3LjAnLCAnLXRuJywgJzgnLCAnLW1hJywgJzIwMCcsICctbWV0YWxfYmluZGluZycsICctaW1hZScsICc8aW5maWxlLm1hZT4nLCAnLW9tYWUnLCAnPG91dGZpbGUubWFlPic=

> <r_epik_Ionization_Penalty>
1.7682

> <r_epik_Ionization_Penalty_Charging>
1.55298

> <r_epik_Ionization_Penalty_Neutral>
0.215215

> <r_epik_State_Penalty>
1.83821

> <r_epik_Charging_Adjusted_Penalty>
3.39119

> <i_epik_Tot_Q>
1

> <i_epik_Tot_abs_Q>
1

> <r_epik_Metal_State_Penalty>
5.89206

> <b_epik_Metal_Only>
0

> <s_lp_Force_Field>
OPLS_2005

> <r_lp_Energy>
35.5587

> <b_lp_Chiralities_Consistent>
1

> <s_lp_Variant>
AV-unprocessed.smi:1703-20

> <Gold.Version>
5.8.1

> <Gold.Id.Protein>
6NUR|6NUR_protein|mol2

> <Gold.PLP.Fitness>
48.6911

> <Gold.PLP.PLP>
-41.6044

> <Gold.PLP.part.hbond>
-2.0000

> <Gold.PLP.part.metal>
0.0000

> <Gold.PLP.part.buried>
-7.1994

> <Gold.PLP.part.nonpolar>
-33.9800

> <Gold.PLP.part.repulsive>
0.0572

> <Gold.PLP.ligand.clash>
0.0000

> <Gold.PLP.ligand.torsion>
0.9718

> <Gold.PLP.Chemscore.Hbond>
3.0000

> <Gold.PLP.Chemscore.CHOScore>
0.0000

> <Gold.PLP.Chemscore.Metal>
0.0000

> <Gold.Chemscore.Hbonds>
donor molecule, donor type, donor heavy atom, donor atom, acceptor molecule, acceptor atom, score
      L1  H    13    49       P1  8028  2.00
      P1  H  7989  7998       L1    12  1.00

> <Gold.PLP.Chemscore.Internal.Correction>
0.0304

> <Gold.Rescore>
     Score         DG    S(hbond)    S(metal)    S(lipo)     H(rot)  DE(clash)    DE(int)     intcor
     16.24     -17.33       1.98        0.00     109.52       2.96       0.05       1.04       ----

> <Gold.Chemscore.Fitness>
16.2367

> <Gold.Chemscore.DG>
-17.3287

> <Gold.Chemscore.ZeroCoef>
-5.4800

> <Gold.Chemscore.Hbond>
1.9765

> <Gold.Chemscore.Metal>
0.0000

> <Gold.Chemscore.Lipo>
109.5154

> <Gold.Chemscore.Internal_Hbond>
0.0000

> <Gold.Chemscore.DEClash>
0.0504

> <Gold.Chemscore.DEInternal>
1.0415

> <Gold.Chemscore.Rot>
2.9555

> <Gold.Chemscore.Internal.Correction>
   9.000000E+99

> <Gold.Chemscore.Hbonds>
donor molecule, donor type, donor heavy atom, donor atom, acceptor molecule, acceptor atom, score
      L1  H    13    49       P1  8028  1.00
      P1  H  7989  7998       L1    12  0.97

> <Gold.Chemscore.Hbond.Weighted>
-6.6014

> <Gold.Chemscore.Metal.Weighted>
-0.0000

> <Gold.Chemscore.Lipo.Weighted>
-12.8133

> <Gold.Chemscore.Internal_Hbond.Weighted>
0.0000

> <Gold.Chemscore.DEClash.Weighted>
0.0504

> <Gold.Chemscore.DEInternal.Weighted>
1.0415

> <Gold.Chemscore.Rot.Weighted>
7.5660

> <Gold.Chemscore.Internal.Correction.Weighted>
   9.000000E+99

> <Gold.Protein.RotatedTorsions>
[ 6907 6896 6895 6894 ] final -170.72 input  -60.11 | X-H torsion
[ 7974 7965 7964 7962 ] final   51.90 input  175.53 | X-H torsion
[ 8008 7997 7996 7995 ] final  101.60 input   59.86 | X-H torsion
[ 10167 10162 10161 10158 ] final  -77.93 input  -65.29 | X-H torsion
[ 10718 10713 10712 10709 ] final  118.27 input   66.30 | X-H torsion
[ 10763 10752 10751 10750 ] final   66.78 input  -60.55 | X-H torsion
[ 11005 11000 10999 10996 ] final   32.78 input  -57.11 | X-H torsion

> <Gold.Protein.ActiveResidues>
 VAL166  LYS551  ARG553  GLY616  TRP617  ASP618  TYR619  PRO620  LYS621  CYS622 
 ASP623  PHE694  ASN695  SER759  ASP760  ASP761  ALA762  ILE779  LEU786  VAL792 
 PHE793  MET794  SER795  GLU796  ALA797  LYS798  CYS799  TRP800  GLU811  SER814 

> <Gold.Protein.RotatedAtoms>
  151.5122  133.3482  159.2886 H   0  0  0  0  0  0  0  0  0  0  0  0  # atno 6907 bound_to 6896
  150.8705  134.8080  159.7162 H   0  0  0  0  0  0  0  0  0  0  0  0  # atno 6908 bound_to 6896
  152.4695  134.5005  159.9775 H   0  0  0  0  0  0  0  0  0  0  0  0  # atno 6909 bound_to 6896
  145.9868  139.4297  143.0098 H   0  0  0  0  0  0  0  0  0  0  0  0  # atno 7974 bound_to 7965
  156.1314  140.3195  155.8355 H   0  0  0  0  0  0  0  0  0  0  0  0  # atno 8008 bound_to 7997
  155.4324  140.0519  157.3034 H   0  0  0  0  0  0  0  0  0  0  0  0  # atno 8009 bound_to 7997
  154.4903  140.2089  155.9577 H   0  0  0  0  0  0  0  0  0  0  0  0  # atno 8010 bound_to 7997
  140.4727  143.2422  151.8180 H   0  0  0  0  0  0  0  0  0  0  0  0  # atno 10167 bound_to 10162
  157.6042  131.1046  150.7732 H   0  0  0  0  0  0  0  0  0  0  0  0  # atno 10718 bound_to 10713
  153.0155  135.5308  154.6877 H   0  0  0  0  0  0  0  0  0  0  0  0  # atno 10763 bound_to 10752
  154.6020  135.2869  155.0527 H   0  0  0  0  0  0  0  0  0  0  0  0  # atno 10764 bound_to 10752
  154.1581  135.6552  153.5032 H   0  0  0  0  0  0  0  0  0  0  0  0  # atno 10765 bound_to 10752
  140.2699  134.3094  155.7831 H   0  0  0  0  0  0  0  0  0  0  0  0  # atno 11005 bound_to 11000
  145.7689  140.9904  143.1160 LP  0  0  0  0  0  0  0  0  0  0  0  0  # atno 17320 bound_to 7965
  144.6877  139.9423  143.7475 LP  0  0  0  0  0  0  0  0  0  0  0  0  # atno 17321 bound_to 7965
  139.4821  144.4872  151.9232 LP  0  0  0  0  0  0  0  0  0  0  0  0  # atno 17342 bound_to 10162
  140.3957  144.2558  150.5896 LP  0  0  0  0  0  0  0  0  0  0  0  0  # atno 17343 bound_to 10162
  156.8124  130.4957  149.5354 LP  0  0  0  0  0  0  0  0  0  0  0  0  # atno 17370 bound_to 10713
  156.1123  130.6049  151.0066 LP  0  0  0  0  0  0  0  0  0  0  0  0  # atno 17371 bound_to 10713
  141.2179  133.7460  156.9319 LP  0  0  0  0  0  0  0  0  0  0  0  0  # atno 17394 bound_to 11000
  140.1383  134.9310  157.2432 LP  0  0  0  0  0  0  0  0  0  0  0  0  # atno 17395 bound_to 11000

$$$$
