AV-unprocessed.smi:1550|AV-procd|sdf|6226|dock9
  -GOLD-   22720 6403D 1   1.00000     0.00000
 Structure written by MMmdl.
 43 44  0  0  0  0  0  0  0  0  1 V2000
  148.1204  138.8805  157.3655 C   0  0  0  0  0  0  0  0  0  0  0  0
  149.3058  138.4633  158.2483 C   0  0  2  0  0  0  0  0  0  0  0  0
  150.4755  138.4882  157.4347 O   0  0  0  0  0  0  0  0  0  0  0  0
  151.6761  138.8710  158.0966 C   0  0  0  0  0  0  0  0  0  0  0  0
  151.4982  140.2888  158.6541 C   0  0  1  0  0  0  0  0  0  0  0  0
  152.7964  140.8239  159.2900 C   0  0  0  0  0  0  0  0  0  0  0  0
  152.6126  142.2740  159.7524 C   0  0  0  0  0  0  0  0  0  0  0  0
  152.0884  143.1241  158.5902 C   0  0  0  0  0  0  0  0  0  0  0  0
  150.8373  142.4761  157.9766 C   0  0  0  0  0  0  0  0  0  0  0  0
  151.1323  141.1429  157.5719 O   0  0  0  0  0  0  0  0  0  0  0  0
  149.0965  137.0581  158.8358 C   0  0  0  0  0  0  0  0  0  0  0  0
  149.6651  136.0949  158.3216 O   0  0  0  0  0  0  0  0  0  0  0  0
  148.2769  136.9926  159.9034 N   0  0  0  0  0  0  0  0  0  0  0  0
  147.9410  135.8814  160.6935 C   0  0  0  0  0  0  0  0  0  0  0  0
  148.1164  134.5872  160.3192 C   0  0  0  0  0  0  0  0  0  0  0  0
  147.7638  133.4781  161.1896 C   0  0  0  0  0  0  0  0  0  0  0  0
  148.0221  132.0353  160.7835 C   0  0  0  0  0  0  0  0  0  0  0  0
  148.5269  131.9613  159.5512 F   0  0  0  0  0  0  0  0  0  0  0  0
  148.8927  131.4768  161.6232 F   0  0  0  0  0  0  0  0  0  0  0  0
  146.8967  131.3213  160.8182 F   0  0  0  0  0  0  0  0  0  0  0  0
  147.2793  133.7990  162.4036 C   0  0  0  0  0  0  0  0  0  0  0  0
  147.0957  135.1270  162.7958 N   0  0  0  0  0  0  0  0  0  0  0  0
  147.3989  136.1957  162.0256 C   0  0  0  0  0  0  0  0  0  0  0  0
  147.2186  137.3375  162.4475 O   0  0  0  0  0  0  0  0  0  0  0  0
  146.7194  135.2844  163.7196 H   0  0  0  0  0  0  0  0  0  0  0  0
  147.1852  138.8702  157.9265 H   0  0  0  0  0  0  0  0  0  0  0  0
  148.0050  138.2166  156.5079 H   0  0  0  0  0  0  0  0  0  0  0  0
  148.2623  139.8908  156.9812 H   0  0  0  0  0  0  0  0  0  0  0  0
  149.4096  139.1945  159.0527 H   0  0  0  0  0  0  0  0  0  0  0  0
  151.8666  138.1727  158.9130 H   0  0  0  0  0  0  0  0  0  0  0  0
  152.5396  138.8393  157.4311 H   0  0  0  0  0  0  0  0  0  0  0  0
  150.7037  140.2795  159.4025 H   0  0  0  0  0  0  0  0  0  0  0  0
  153.0913  140.1994  160.1337 H   0  0  0  0  0  0  0  0  0  0  0  0
  153.6092  140.7736  158.5641 H   0  0  0  0  0  0  0  0  0  0  0  0
  151.9051  142.3089  160.5819 H   0  0  0  0  0  0  0  0  0  0  0  0
  153.5543  142.6778  160.1248 H   0  0  0  0  0  0  0  0  0  0  0  0
  151.8629  144.1346  158.9316 H   0  0  0  0  0  0  0  0  0  0  0  0
  152.8612  143.2161  157.8259 H   0  0  0  0  0  0  0  0  0  0  0  0
  150.0083  142.4773  158.6860 H   0  0  0  0  0  0  0  0  0  0  0  0
  150.5108  143.0435  157.1052 H   0  0  0  0  0  0  0  0  0  0  0  0
  147.8095  137.8499  160.1615 H   0  0  0  0  0  0  0  0  0  0  0  0
  148.5451  134.3429  159.3606 H   0  0  0  0  0  0  0  0  0  0  0  0
  147.0056  133.0779  163.1595 H   0  0  0  0  0  0  0  0  0  0  0  0
  1  2  1  0  0  0  0
  1 26  1  0  0  0  0
  1 27  1  0  0  0  0
  1 28  1  0  0  0  0
  2  3  1  0  0  0  0
  2 11  1  0  0  0  0
  2 29  1  0  0  0  0
  3  4  1  0  0  0  0
  4  5  1  0  0  0  0
  4 30  1  0  0  0  0
  4 31  1  0  0  0  0
  5 10  1  0  0  0  0
  5  6  1  0  0  0  0
  5 32  1  0  0  0  0
  6  7  1  0  0  0  0
  6 33  1  0  0  0  0
  6 34  1  0  0  0  0
  7  8  1  0  0  0  0
  7 35  1  0  0  0  0
  7 36  1  0  0  0  0
  8  9  1  0  0  0  0
  8 37  1  0  0  0  0
  8 38  1  0  0  0  0
  9 10  1  0  0  0  0
  9 39  1  0  0  0  0
  9 40  1  0  0  0  0
 11 12  2  0  0  0  0
 11 13  1  0  0  0  0
 13 14  1  0  0  0  0
 13 41  1  0  0  0  0
 14 23  1  0  0  0  0
 14 15  2  0  0  0  0
 15 16  1  0  0  0  0
 15 42  1  0  0  0  0
 16 17  1  0  0  0  0
 16 21  2  0  0  0  0
 17 18  1  0  0  0  0
 17 19  1  0  0  0  0
 17 20  1  0  0  0  0
 21 22  1  0  0  0  0
 21 43  1  0  0  0  0
 22 25  1  0  0  0  0
 22 23  1  0  0  0  0
 23 24  2  0  0  0  0
M  END
> <s_m_source_file>
AV-unprocessed.smi

> <i_m_source_file_index>
1550

> <i_lp_mmshare_version>
43012

> <i_f3d_flags>
0

> <s_epik_input>
TzFbQ0gyXVtDSDJdW0NIMl1bQ0gyXVtDQEhdMVtDSDJdT1tDQEBIXShbQ0gzXSlDKD1PKVtOSF1jMltjSF1jKEMoRikoRilGKVtjSF1bbkhdYzI9Tw==

> <s_epik_cmdline>
J2VwaWtfcHl0aG9uJywgJy1waCcsICc3LjAnLCAnLXRuJywgJzgnLCAnLW1hJywgJzIwMCcsICctbWV0YWxfYmluZGluZycsICctaW1hZScsICc8aW5maWxlLm1hZT4nLCAnLW9tYWUnLCAnPG91dGZpbGUubWFlPic=

> <r_lp_tautomer_probability>
0.999

> <r_epik_Ionization_Penalty>
0.00891333

> <r_epik_Ionization_Penalty_Charging>
0.00891323

> <r_epik_Ionization_Penalty_Neutral>
1.00146e-07

> <r_epik_State_Penalty>
0.00674197

> <r_epik_Charging_Adjusted_Penalty>
0.0156552

> <i_epik_Tot_Q>
0

> <i_epik_Tot_abs_Q>
0

> <r_epik_Metal_State_Penalty>
0.321024

> <b_epik_Metal_Only>
0

> <s_lp_Force_Field>
OPLS_2005

> <r_lp_Energy>
25.8894

> <b_lp_Chiralities_Consistent>
1

> <s_lp_Variant>
AV-unprocessed.smi:1550-3

> <Gold.Version>
5.8.1

> <Gold.Id.Protein>
6NUR|6NUR_protein|mol2

> <Gold.PLP.Fitness>
46.9285

> <Gold.PLP.PLP>
-42.2615

> <Gold.PLP.part.hbond>
-3.0000

> <Gold.PLP.part.metal>
0.0000

> <Gold.PLP.part.buried>
-6.2253

> <Gold.PLP.part.nonpolar>
-32.8870

> <Gold.PLP.part.repulsive>
0.4489

> <Gold.PLP.ligand.clash>
0.0000

> <Gold.PLP.ligand.torsion>
1.0689

> <Gold.PLP.Chemscore.Hbond>
2.2320

> <Gold.PLP.Chemscore.CHOScore>
0.0000

> <Gold.PLP.Chemscore.Metal>
0.0000

> <Gold.Chemscore.Hbonds>
donor molecule, donor type, donor heavy atom, donor atom, acceptor molecule, acceptor atom, score
      P1  H  6896  6909       L1    12  0.65
      P1  H  6931  6943       L1    24  0.61
      P1  H  6934  6947       L1    24  0.25

> <Gold.PLP.Chemscore.Internal.Correction>
0.1088

> <Gold.Rescore>
     Score         DG    S(hbond)    S(metal)    S(lipo)     H(rot)  DE(clash)    DE(int)     intcor
     15.20     -17.61       1.96        0.00      88.32       1.86       0.09       2.32       ----

> <Gold.Chemscore.Fitness>
15.1965

> <Gold.Chemscore.DG>
-17.6081

> <Gold.Chemscore.ZeroCoef>
-5.4800

> <Gold.Chemscore.Hbond>
1.9607

> <Gold.Chemscore.Metal>
0.0000

> <Gold.Chemscore.Lipo>
88.3200

> <Gold.Chemscore.Internal_Hbond>
0.0000

> <Gold.Chemscore.DEClash>
0.0869

> <Gold.Chemscore.DEInternal>
2.3247

> <Gold.Chemscore.Rot>
1.8571

> <Gold.Chemscore.Internal.Correction>
   9.000000E+99

> <Gold.Chemscore.Hbonds>
donor molecule, donor type, donor heavy atom, donor atom, acceptor molecule, acceptor atom, score
      P1  H  6896  6909       L1    12  0.62
      P1  H  6931  6943       L1    24  0.20
      P1  H  6934  6947       L1    24  0.25

> <Gold.Chemscore.Hbond.Weighted>
-6.5487

> <Gold.Chemscore.Metal.Weighted>
-0.0000

> <Gold.Chemscore.Lipo.Weighted>
-10.3334

> <Gold.Chemscore.Internal_Hbond.Weighted>
0.0000

> <Gold.Chemscore.DEClash.Weighted>
0.0869

> <Gold.Chemscore.DEInternal.Weighted>
2.3247

> <Gold.Chemscore.Rot.Weighted>
4.7541

> <Gold.Chemscore.Internal.Correction.Weighted>
   9.000000E+99

> <Gold.Protein.RotatedTorsions>
[ 6907 6896 6895 6894 ] final   55.89 input  -60.11 | X-H torsion
[ 7974 7965 7964 7962 ] final  117.15 input  175.53 | X-H torsion
[ 8008 7997 7996 7995 ] final  -84.14 input   59.86 | X-H torsion
[ 10167 10162 10161 10158 ] final -168.49 input  -65.29 | X-H torsion
[ 10718 10713 10712 10709 ] final  122.46 input   66.30 | X-H torsion
[ 10763 10752 10751 10750 ] final  -24.61 input  -60.55 | X-H torsion
[ 11005 11000 10999 10996 ] final  -35.27 input  -57.11 | X-H torsion

> <Gold.Protein.ActiveResidues>
 VAL166  LYS551  ARG553  GLY616  TRP617  ASP618  TYR619  PRO620  LYS621  CYS622 
 ASP623  PHE694  ASN695  SER759  ASP760  ASP761  ALA762  ILE779  LEU786  VAL792 
 PHE793  MET794  SER795  GLU796  ALA797  LYS798  CYS799  TRP800  GLU811  SER814 

> <Gold.Protein.RotatedAtoms>
  152.3583  134.6908  160.0214 H   0  0  0  0  0  0  0  0  0  0  0  0  # atno 6907 bound_to 6896
  151.7239  133.3310  159.3330 H   0  0  0  0  0  0  0  0  0  0  0  0  # atno 6908 bound_to 6896
  150.7587  134.6357  159.6255 H   0  0  0  0  0  0  0  0  0  0  0  0  # atno 6909 bound_to 6896
  145.1709  139.3102  143.4468 H   0  0  0  0  0  0  0  0  0  0  0  0  # atno 7974 bound_to 7965
  154.6266  140.0609  156.9680 H   0  0  0  0  0  0  0  0  0  0  0  0  # atno 8008 bound_to 7997
  155.1733  140.3293  155.4370 H   0  0  0  0  0  0  0  0  0  0  0  0  # atno 8009 bound_to 7997
  156.2460  140.1910  156.6834 H   0  0  0  0  0  0  0  0  0  0  0  0  # atno 8010 bound_to 7997
  139.5982  144.1067  152.1713 H   0  0  0  0  0  0  0  0  0  0  0  0  # atno 10167 bound_to 10162
  157.5740  131.1081  150.8314 H   0  0  0  0  0  0  0  0  0  0  0  0  # atno 10718 bound_to 10713
  153.6865  135.6964  153.5102 H   0  0  0  0  0  0  0  0  0  0  0  0  # atno 10763 bound_to 10752
  153.2445  135.4295  155.0732 H   0  0  0  0  0  0  0  0  0  0  0  0  # atno 10764 bound_to 10752
  154.8385  135.3516  154.6407 H   0  0  0  0  0  0  0  0  0  0  0  0  # atno 10765 bound_to 10752
  140.9783  133.7070  156.1640 H   0  0  0  0  0  0  0  0  0  0  0  0  # atno 11005 bound_to 11000
  146.3468  140.1854  142.8589 LP  0  0  0  0  0  0  0  0  0  0  0  0  # atno 17320 bound_to 7965
  145.0234  140.8812  143.5153 LP  0  0  0  0  0  0  0  0  0  0  0  0  # atno 17321 bound_to 7965
  140.0657  144.5820  150.7229 LP  0  0  0  0  0  0  0  0  0  0  0  0  # atno 17342 bound_to 10162
  140.7228  143.2606  151.4220 LP  0  0  0  0  0  0  0  0  0  0  0  0  # atno 17343 bound_to 10162
  156.8778  130.5168  149.5293 LP  0  0  0  0  0  0  0  0  0  0  0  0  # atno 17370 bound_to 10713
  156.0785  130.5801  150.9518 LP  0  0  0  0  0  0  0  0  0  0  0  0  # atno 17371 bound_to 10713
  140.7225  134.4343  157.5573 LP  0  0  0  0  0  0  0  0  0  0  0  0  # atno 17394 bound_to 11000
  139.8939  134.8718  156.2199 LP  0  0  0  0  0  0  0  0  0  0  0  0  # atno 17395 bound_to 11000

$$$$
