AV-unprocessed.smi:1927|AV-procd|sdf|7797|dock4
  -GOLD-   22720 9543D 1   1.00000     0.00000
 Structure written by MMmdl.
 34 35  0  0  0  0  0  0  0  0  1 V2000
  147.9191  133.0923  152.1623 C   0  0  0  0  0  0  0  0  0  0  0  0
  146.4711  133.1023  151.6990 C   0  0  0  0  0  0  0  0  0  0  0  0
  145.8646  131.8920  151.3008 C   0  0  0  0  0  0  0  0  0  0  0  0
  144.5264  131.9038  150.8724 C   0  0  0  0  0  0  0  0  0  0  0  0
  143.8467  133.1338  150.8600 C   0  0  0  0  0  0  0  0  0  0  0  0
  144.4183  134.2952  151.2391 N   0  0  0  0  0  0  0  0  0  0  0  0
  145.7093  134.3011  151.6560 C   0  0  0  0  0  0  0  0  0  0  0  0
  146.3762  135.4868  152.0758 N   0  0  0  0  0  0  0  0  0  0  0  0
  145.9034  136.4919  152.8337 C   0  0  0  0  0  0  0  0  0  0  0  0
  144.7602  136.5695  153.2847 O   0  0  0  0  0  0  0  0  0  0  0  0
  146.8459  137.4235  153.0394 N   0  0  0  0  0  0  0  0  0  0  0  0
  146.6753  138.6475  153.8160 C   0  0  0  0  0  0  0  0  0  0  0  0
  147.7862  139.6717  153.5198 C   0  0  1  0  0  0  0  0  0  0  0  0
  147.6973  140.9659  154.3057 C   0  0  0  0  0  0  0  0  0  0  0  0
  149.1176  141.5119  154.1851 C   0  0  0  0  0  0  0  0  0  0  0  0
  149.9672  140.3757  154.0483 O   0  0  0  0  0  0  0  0  0  0  0  0
  149.1836  139.1946  153.9121 C   0  0  0  0  0  0  0  0  0  0  0  0
  148.3407  132.0872  152.1276 H   0  0  0  0  0  0  0  0  0  0  0  0
  147.9944  133.4525  153.1888 H   0  0  0  0  0  0  0  0  0  0  0  0
  148.5282  133.7328  151.5238 H   0  0  0  0  0  0  0  0  0  0  0  0
  146.4159  130.9633  151.3222 H   0  0  0  0  0  0  0  0  0  0  0  0
  144.0337  130.9944  150.5617 H   0  0  0  0  0  0  0  0  0  0  0  0
  142.8171  133.1877  150.5388 H   0  0  0  0  0  0  0  0  0  0  0  0
  147.3334  135.5734  151.7688 H   0  0  0  0  0  0  0  0  0  0  0  0
  147.7557  137.2743  152.6280 H   0  0  0  0  0  0  0  0  0  0  0  0
  145.6904  139.0861  153.6462 H   0  0  0  0  0  0  0  0  0  0  0  0
  146.7069  138.3743  154.8709 H   0  0  0  0  0  0  0  0  0  0  0  0
  147.7889  139.9083  152.4541 H   0  0  0  0  0  0  0  0  0  0  0  0
  146.9456  141.6550  153.9194 H   0  0  0  0  0  0  0  0  0  0  0  0
  147.4643  140.7599  155.3516 H   0  0  0  0  0  0  0  0  0  0  0  0
  149.2151  142.1252  153.2886 H   0  0  0  0  0  0  0  0  0  0  0  0
  149.4020  142.1202  155.0441 H   0  0  0  0  0  0  0  0  0  0  0  0
  149.1614  138.6825  154.8752 H   0  0  0  0  0  0  0  0  0  0  0  0
  149.6148  138.5138  153.1777 H   0  0  0  0  0  0  0  0  0  0  0  0
  1  2  1  0  0  0  0
  1 18  1  0  0  0  0
  1 19  1  0  0  0  0
  1 20  1  0  0  0  0
  2  7  1  0  0  0  0
  2  3  2  0  0  0  0
  3  4  1  0  0  0  0
  3 21  1  0  0  0  0
  4  5  2  0  0  0  0
  4 22  1  0  0  0  0
  5  6  1  0  0  0  0
  5 23  1  0  0  0  0
  6  7  2  0  0  0  0
  7  8  1  0  0  0  0
  8  9  1  0  0  0  0
  8 24  1  0  0  0  0
  9 10  2  0  0  0  0
  9 11  1  0  0  0  0
 11 12  1  0  0  0  0
 11 25  1  0  0  0  0
 12 13  1  0  0  0  0
 12 26  1  0  0  0  0
 12 27  1  0  0  0  0
 13 17  1  0  0  0  0
 13 14  1  0  0  0  0
 13 28  1  0  0  0  0
 14 15  1  0  0  0  0
 14 29  1  0  0  0  0
 14 30  1  0  0  0  0
 15 16  1  0  0  0  0
 15 31  1  0  0  0  0
 15 32  1  0  0  0  0
 16 17  1  0  0  0  0
 17 33  1  0  0  0  0
 17 34  1  0  0  0  0
M  END
> <s_m_source_file>
AV-unprocessed.smi

> <i_m_source_file_index>
1927

> <i_lp_mmshare_version>
43012

> <i_f3d_flags>
0

> <s_epik_input>
W0NIM11jMVtjSF1bY0hdW2NIXW5jMVtOSF1DKD1PKVtOSF1bQ0gyXVtDQEBIXTJbQ0gyXVtDSDJdT1tDSDJdMg==

> <s_epik_cmdline>
J2VwaWtfcHl0aG9uJywgJy1waCcsICc3LjAnLCAnLXRuJywgJzgnLCAnLW1hJywgJzIwMCcsICctbWV0YWxfYmluZGluZycsICctaW1hZScsICc8aW5maWxlLm1hZT4nLCAnLW9tYWUnLCAnPG91dGZpbGUubWFlPic=

> <r_lp_tautomer_probability>
1

> <r_epik_Ionization_Penalty>
5.84082e-05

> <r_epik_Ionization_Penalty_Charging>
0

> <r_epik_Ionization_Penalty_Neutral>
5.84082e-05

> <r_epik_State_Penalty>
-0

> <r_epik_Charging_Adjusted_Penalty>
0

> <i_epik_Tot_Q>
0

> <i_epik_Tot_abs_Q>
0

> <r_epik_Metal_State_Penalty>
-0

> <b_epik_Metal_Only>
0

> <s_lp_Force_Field>
OPLS_2005

> <r_lp_Energy>
21.9437

> <b_lp_Chiralities_Consistent>
1

> <s_lp_Variant>
AV-unprocessed.smi:1927-2

> <Gold.Version>
5.8.1

> <Gold.Id.Protein>
6NUR|6NUR_protein|mol2

> <Gold.PLP.Fitness>
40.4262

> <Gold.PLP.PLP>
-29.3709

> <Gold.PLP.part.hbond>
-3.0000

> <Gold.PLP.part.metal>
0.0000

> <Gold.PLP.part.buried>
-2.1952

> <Gold.PLP.part.nonpolar>
-23.6844

> <Gold.PLP.part.repulsive>
0.4442

> <Gold.PLP.ligand.clash>
0.0000

> <Gold.PLP.ligand.torsion>
0.4390

> <Gold.PLP.Chemscore.Hbond>
2.9760

> <Gold.PLP.Chemscore.CHOScore>
1.0000

> <Gold.PLP.Chemscore.Metal>
0.0000

> <Gold.Chemscore.Hbonds>
donor molecule, donor type, donor heavy atom, donor atom, acceptor molecule, acceptor atom, score
      L1  H     8    24       P1  7948  1.00
      L1  H    11    25       P1  7948  1.00
      P1  H  7989  7998       L1    16  0.78
      L1  C     5    23       P1 10186  1.00

> <Gold.PLP.Chemscore.Internal.Correction>
0.0054

> <Gold.Rescore>
     Score         DG    S(hbond)    S(metal)    S(lipo)     H(rot)  DE(clash)    DE(int)     intcor
     17.16     -18.64       2.62        0.00      64.65       1.23       0.05       1.43       ----

> <Gold.Chemscore.Fitness>
17.1611

> <Gold.Chemscore.DG>
-18.6357

> <Gold.Chemscore.ZeroCoef>
-5.4800

> <Gold.Chemscore.Hbond>
2.6196

> <Gold.Chemscore.Metal>
0.0000

> <Gold.Chemscore.Lipo>
64.6546

> <Gold.Chemscore.Internal_Hbond>
0.0000

> <Gold.Chemscore.DEClash>
0.0459

> <Gold.Chemscore.DEInternal>
1.4286

> <Gold.Chemscore.Rot>
1.2337

> <Gold.Chemscore.Internal.Correction>
   9.000000E+99

> <Gold.Chemscore.Hbonds>
donor molecule, donor type, donor heavy atom, donor atom, acceptor molecule, acceptor atom, score
      L1  H     8    24       P1  7948  0.98
      L1  H    11    25       P1  7948  0.96
      P1  H  7989  7998       L1    16  0.58

> <Gold.Chemscore.Hbond.Weighted>
-8.7493

> <Gold.Chemscore.Metal.Weighted>
-0.0000

> <Gold.Chemscore.Lipo.Weighted>
-7.5646

> <Gold.Chemscore.Internal_Hbond.Weighted>
0.0000

> <Gold.Chemscore.DEClash.Weighted>
0.0459

> <Gold.Chemscore.DEInternal.Weighted>
1.4286

> <Gold.Chemscore.Rot.Weighted>
3.1582

> <Gold.Chemscore.Internal.Correction.Weighted>
   9.000000E+99

> <Gold.Protein.RotatedTorsions>
[ 6907 6896 6895 6894 ] final  -33.51 input  -60.11 | X-H torsion
[ 7974 7965 7964 7962 ] final -118.60 input  175.53 | X-H torsion
[ 8008 7997 7996 7995 ] final   -5.36 input   59.86 | X-H torsion
[ 10167 10162 10161 10158 ] final -144.41 input  -65.29 | X-H torsion
[ 10718 10713 10712 10709 ] final -147.08 input   66.30 | X-H torsion
[ 10763 10752 10751 10750 ] final    2.58 input  -60.55 | X-H torsion
[ 11005 11000 10999 10996 ] final -100.37 input  -57.11 | X-H torsion

> <Gold.Protein.ActiveResidues>
 VAL166  LYS551  ARG553  GLY616  TRP617  ASP618  TYR619  PRO620  LYS621  CYS622 
 ASP623  PHE694  ASN695  SER759  ASP760  ASP761  ALA762  ILE779  LEU786  VAL792 
 PHE793  MET794  SER795  GLU796  ALA797  LYS798  CYS799  TRP800  GLU811  SER814 

> <Gold.Protein.RotatedAtoms>
  151.0646  134.9759  159.8277 H   0  0  0  0  0  0  0  0  0  0  0  0  # atno 6907 bound_to 6896
  152.5400  134.2374  159.8859 H   0  0  0  0  0  0  0  0  0  0  0  0  # atno 6908 bound_to 6896
  151.2396  133.4363  159.2640 H   0  0  0  0  0  0  0  0  0  0  0  0  # atno 6909 bound_to 6896
  145.0720  140.8366  143.4090 H   0  0  0  0  0  0  0  0  0  0  0  0  # atno 7974 bound_to 7965
  154.6047  140.2460  155.7746 H   0  0  0  0  0  0  0  0  0  0  0  0  # atno 8008 bound_to 7997
  156.2333  140.2959  156.0198 H   0  0  0  0  0  0  0  0  0  0  0  0  # atno 8009 bound_to 7997
  155.2152  140.0398  157.2930 H   0  0  0  0  0  0  0  0  0  0  0  0  # atno 8010 bound_to 7997
  139.7902  143.7977  152.2649 H   0  0  0  0  0  0  0  0  0  0  0  0  # atno 10167 bound_to 10162
  156.4029  130.7943  151.2155 H   0  0  0  0  0  0  0  0  0  0  0  0  # atno 10718 bound_to 10713
  153.2938  135.6950  153.7267 H   0  0  0  0  0  0  0  0  0  0  0  0  # atno 10763 bound_to 10752
  153.6208  135.3427  155.3011 H   0  0  0  0  0  0  0  0  0  0  0  0  # atno 10764 bound_to 10752
  154.8531  135.4385  154.2029 H   0  0  0  0  0  0  0  0  0  0  0  0  # atno 10765 bound_to 10752
  141.1273  133.8394  157.1094 H   0  0  0  0  0  0  0  0  0  0  0  0  # atno 11005 bound_to 11000
  145.1281  139.2650  143.5554 LP  0  0  0  0  0  0  0  0  0  0  0  0  # atno 17320 bound_to 7965
  146.3529  140.0924  142.8612 LP  0  0  0  0  0  0  0  0  0  0  0  0  # atno 17321 bound_to 7965
  139.8066  144.7353  150.9753 LP  0  0  0  0  0  0  0  0  0  0  0  0  # atno 17342 bound_to 10162
  140.7820  143.4292  151.0721 LP  0  0  0  0  0  0  0  0  0  0  0  0  # atno 17343 bound_to 10162
  157.7504  131.0281  150.4034 LP  0  0  0  0  0  0  0  0  0  0  0  0  # atno 17370 bound_to 10713
  156.4317  130.3973  149.6756 LP  0  0  0  0  0  0  0  0  0  0  0  0  # atno 17371 bound_to 10713
  140.0284  134.9913  157.0732 LP  0  0  0  0  0  0  0  0  0  0  0  0  # atno 17394 bound_to 11000
  140.4324  134.1766  155.7169 LP  0  0  0  0  0  0  0  0  0  0  0  0  # atno 17395 bound_to 11000

$$$$
