AV-unprocessed.smi:290|AV-procd|sdf|2234|dock7
  -GOLD-   2262022103D 1   1.00000     0.00000
 Structure written by MMmdl.
 59 62  0  0  0  0  0  0  0  0  2 V2000
  152.5449  141.0438  158.5984 C   0  0  0  0  0  0  0  0  0  0  0  0
  151.9028  142.3834  158.9907 C   0  0  1  0  0  0  0  0  0  0  0  0
  152.8773  143.1474  159.6955 O   0  0  0  0  0  0  0  0  0  0  0  0
  152.5967  144.5222  159.5048 C   0  0  0  0  0  0  0  0  0  0  0  0
  152.2261  144.5743  158.0307 C   0  0  0  0  0  0  0  0  0  0  0  0
  151.4121  143.2971  157.8311 C   0  0  2  0  0  0  0  0  0  0  0  0
  150.0510  143.6084  158.0769 O   0  0  0  0  0  0  0  0  0  0  0  0
  151.5214  142.7119  156.3984 C   0  0  0  0  0  0  0  0  0  0  0  0
  150.8027  141.4575  156.2285 N   0  0  0  0  0  0  0  0  0  0  0  0
  149.4400  141.2775  156.2699 C   0  0  0  0  0  0  0  0  0  0  0  0
  149.0381  140.0495  156.0934 N   0  0  0  0  0  0  0  0  0  0  0  0
  150.2082  139.3219  155.8988 C   0  0  0  0  0  0  0  0  0  0  0  0
  150.5123  137.9473  155.6566 C   0  0  0  0  0  0  0  0  0  0  0  0
  149.6037  136.9419  155.5380 N   0  0  0  0  0  0  0  0  0  0  0  0
  148.1877  137.2522  155.4288 C   0  0  0  0  0  0  0  0  0  0  0  0
  147.6247  136.1931  154.4906 C   0  0  0  0  0  0  0  0  0  0  0  0
  148.5222  134.9662  154.7204 C   0  0  1  0  0  0  0  0  0  0  0  0
  148.4917  134.0327  153.5528 N   0  3  1  0  0  0  0  0  0  0  0  0
  149.6398  133.0967  153.4759 C   0  0  0  0  0  0  0  0  0  0  0  0
  147.1972  133.3109  153.4159 C   0  0  0  0  0  0  0  0  0  0  0  0
  147.2811  132.1809  152.3767 C   0  0  0  0  0  0  0  0  0  0  0  0
  147.5048  132.7266  151.0938 O   0  0  0  0  0  0  0  0  0  0  0  0
  149.9023  135.6113  155.0151 C   0  0  2  0  0  0  0  0  0  0  0  0
  150.7454  134.8173  156.0370 C   0  0  0  0  0  0  0  0  0  0  0  0
  151.8246  137.6162  155.5327 N   0  0  0  0  0  0  0  0  0  0  0  0
  152.7758  138.5484  155.6295 C   0  0  0  0  0  0  0  0  0  0  0  0
  152.6396  139.8561  155.8485 N   0  0  0  0  0  0  0  0  0  0  0  0
  151.3279  140.2010  155.9814 C   0  0  0  0  0  0  0  0  0  0  0  0
  148.1759  134.4400  155.6120 H   0  0  0  0  0  0  0  0  0  0  0  0
  150.4394  135.7279  154.0749 H   0  0  0  0  0  0  0  0  0  0  0  0
  151.8415  140.4078  158.0606 H   0  0  0  0  0  0  0  0  0  0  0  0
  152.8638  140.4972  159.4862 H   0  0  0  0  0  0  0  0  0  0  0  0
  153.4254  141.1881  157.9722 H   0  0  0  0  0  0  0  0  0  0  0  0
  151.0847  142.1801  159.6846 H   0  0  0  0  0  0  0  0  0  0  0  0
  151.7576  144.8217  160.1347 H   0  0  0  0  0  0  0  0  0  0  0  0
  153.4560  145.1473  159.7473 H   0  0  0  0  0  0  0  0  0  0  0  0
  151.6961  145.4864  157.7529 H   0  0  0  0  0  0  0  0  0  0  0  0
  153.1427  144.5308  157.4413 H   0  0  0  0  0  0  0  0  0  0  0  0
  149.7553  144.2114  157.4120 H   0  0  0  0  0  0  0  0  0  0  0  0
  151.1237  143.4168  155.6681 H   0  0  0  0  0  0  0  0  0  0  0  0
  152.5660  142.5467  156.1313 H   0  0  0  0  0  0  0  0  0  0  0  0
  148.7483  142.0895  156.4425 H   0  0  0  0  0  0  0  0  0  0  0  0
  147.7335  137.1771  156.4173 H   0  0  0  0  0  0  0  0  0  0  0  0
  148.0026  138.2551  155.0413 H   0  0  0  0  0  0  0  0  0  0  0  0
  146.5680  136.0081  154.6831 H   0  0  0  0  0  0  0  0  0  0  0  0
  147.7214  136.5388  153.4601 H   0  0  0  0  0  0  0  0  0  0  0  0
  149.7057  132.4855  154.3769 H   0  0  0  0  0  0  0  0  0  0  0  0
  150.5805  133.6290  153.3401 H   0  0  0  0  0  0  0  0  0  0  0  0
  149.5430  132.4227  152.6252 H   0  0  0  0  0  0  0  0  0  0  0  0
  146.8999  132.9101  154.3863 H   0  0  0  0  0  0  0  0  0  0  0  0
  146.3901  133.9809  153.1230 H   0  0  0  0  0  0  0  0  0  0  0  0
  148.0676  131.4646  152.6127 H   0  0  0  0  0  0  0  0  0  0  0  0
  146.3423  131.6270  152.3542 H   0  0  0  0  0  0  0  0  0  0  0  0
  148.1397  132.1898  150.6433 H   0  0  0  0  0  0  0  0  0  0  0  0
  151.0092  133.8241  155.6808 H   0  0  0  0  0  0  0  0  0  0  0  0
  150.2060  134.6941  156.9766 H   0  0  0  0  0  0  0  0  0  0  0  0
  151.6807  135.3252  156.2700 H   0  0  0  0  0  0  0  0  0  0  0  0
  153.7904  138.1962  155.5151 H   0  0  0  0  0  0  0  0  0  0  0  0
  148.5596  134.6265  152.7380 H   0  0  0  0  0  0  0  0  0  0  0  0
  1  2  1  0  0  0  0
  1 31  1  0  0  0  0
  1 32  1  0  0  0  0
  1 33  1  0  0  0  0
  2  6  1  0  0  0  0
  2  3  1  0  0  0  0
  2 34  1  0  0  0  0
  3  4  1  0  0  0  0
  4  5  1  0  0  0  0
  4 35  1  0  0  0  0
  4 36  1  0  0  0  0
  5  6  1  0  0  0  0
  5 37  1  0  0  0  0
  5 38  1  0  0  0  0
  6  7  1  0  0  0  0
  6  8  1  0  0  0  0
  7 39  1  0  0  0  0
  8  9  1  0  0  0  0
  8 40  1  0  0  0  0
  8 41  1  0  0  0  0
  9 28  1  0  0  0  0
  9 10  1  0  0  0  0
 10 11  2  0  0  0  0
 10 42  1  0  0  0  0
 11 12  1  0  0  0  0
 12 28  2  0  0  0  0
 12 13  1  0  0  0  0
 13 14  1  0  0  0  0
 13 25  2  0  0  0  0
 14 23  1  0  0  0  0
 14 15  1  0  0  0  0
 15 16  1  0  0  0  0
 15 43  1  0  0  0  0
 15 44  1  0  0  0  0
 16 17  1  0  0  0  0
 16 45  1  0  0  0  0
 16 46  1  0  0  0  0
 17 29  1  0  0  0  0
 17 18  1  0  0  0  0
 17 23  1  0  0  0  0
 18 19  1  0  0  0  0
 18 20  1  0  0  0  0
 18 59  1  0  0  0  0
 19 47  1  0  0  0  0
 19 48  1  0  0  0  0
 19 49  1  0  0  0  0
 20 21  1  0  0  0  0
 20 50  1  0  0  0  0
 20 51  1  0  0  0  0
 21 22  1  0  0  0  0
 21 52  1  0  0  0  0
 21 53  1  0  0  0  0
 22 54  1  0  0  0  0
 23 30  1  0  0  0  0
 23 24  1  0  0  0  0
 24 55  1  0  0  0  0
 24 56  1  0  0  0  0
 24 57  1  0  0  0  0
 25 26  1  0  0  0  0
 26 27  2  0  0  0  0
 26 58  1  0  0  0  0
 27 28  1  0  0  0  0
M  CHG  1  18   1
M  END
> <s_m_source_file>
AV-unprocessed.smi

> <i_m_source_file_index>
290

> <i_lp_mmshare_version>
43012

> <i_f3d_flags>
0

> <s_epik_input>
W0NIMl0xW0NIMl1PW0NAQEhdKFtDSDNdKVtDQEBdMShbT0hdKVtDSDJdbihbY0hdbjIpYyhjMjMpbltjSF1uYzNONFtDSDJdW0NIMl1bQ0BIXShbQ0BIXTRbQ0gzXSlOKFtDSDNdKVtDSDJdW0NIMl1bT0hd

> <s_epik_cmdline>
J2VwaWtfcHl0aG9uJywgJy1waCcsICc3LjAnLCAnLXRuJywgJzgnLCAnLW1hJywgJzIwMCcsICctbWV0YWxfYmluZGluZycsICctaW1hZScsICc8aW5maWxlLm1hZT4nLCAnLW9tYWUnLCAnPG91dGZpbGUubWFlPic=

> <r_lp_tautomer_probability>
1

> <r_epik_Ionization_Penalty>
0.0036983

> <r_epik_Ionization_Penalty_Charging>
0.0032725

> <r_epik_Ionization_Penalty_Neutral>
0.000425798

> <r_epik_State_Penalty>
-0

> <r_epik_Charging_Adjusted_Penalty>
0.0032725

> <i_epik_Tot_Q>
1

> <i_epik_Tot_abs_Q>
1

> <r_epik_Metal_State_Penalty>
-0

> <b_epik_Metal_Only>
0

> <s_lp_Force_Field>
OPLS_2005

> <r_lp_Energy>
60.3603

> <b_lp_Chiralities_Consistent>
1

> <s_lp_Variant>
AV-unprocessed.smi:290-20

> <Gold.Version>
5.8.1

> <Gold.Id.Protein>
6NUR|6NUR_protein|mol2

> <Gold.PLP.Fitness>
59.4724

> <Gold.PLP.PLP>
-42.1682

> <Gold.PLP.part.hbond>
-4.7901

> <Gold.PLP.part.metal>
0.0000

> <Gold.PLP.part.buried>
-4.7968

> <Gold.PLP.part.nonpolar>
-31.5926

> <Gold.PLP.part.repulsive>
0.0658

> <Gold.PLP.ligand.clash>
0.0000

> <Gold.PLP.ligand.torsion>
0.4595

> <Gold.PLP.Chemscore.Hbond>
4.9500

> <Gold.PLP.Chemscore.CHOScore>
0.9948

> <Gold.PLP.Chemscore.Metal>
0.0000

> <Gold.Chemscore.Hbonds>
donor molecule, donor type, donor heavy atom, donor atom, acceptor molecule, acceptor atom, score
      L1  H     7    39       P1  8028  1.00
      L1  H    18    59       P1  7948  1.70
      L1  H    22    54       P1 10747  1.00
      P1  H  7997  8009       L1    27  0.80
      L1  C    10    42       P1  8028  0.47

> <Gold.PLP.Chemscore.Internal.Correction>
0.3889

> <Gold.Rescore>
     Score         DG    S(hbond)    S(metal)    S(lipo)     H(rot)  DE(clash)    DE(int)     intcor
     14.29     -19.77       3.45        0.00      97.07       3.35       1.85       3.62       ----

> <Gold.Chemscore.Fitness>
14.2929

> <Gold.Chemscore.DG>
-19.7689

> <Gold.Chemscore.ZeroCoef>
-5.4800

> <Gold.Chemscore.Hbond>
3.4469

> <Gold.Chemscore.Metal>
0.0000

> <Gold.Chemscore.Lipo>
97.0675

> <Gold.Chemscore.Internal_Hbond>
0.0000

> <Gold.Chemscore.DEClash>
1.8541

> <Gold.Chemscore.DEInternal>
3.6219

> <Gold.Chemscore.Rot>
3.3518

> <Gold.Chemscore.Internal.Correction>
   9.000000E+99

> <Gold.Chemscore.Hbonds>
donor molecule, donor type, donor heavy atom, donor atom, acceptor molecule, acceptor atom, score
      L1  H     7    39       P1  8028  0.33
      L1  H    18    59       P1  7948  0.14
      L1  H    22    54       P1 10747  0.98
      P1  H  7997  8009       L1    27  0.12
      P1  H 10752 10765       L1    25  0.01

> <Gold.Chemscore.Hbond.Weighted>
-11.5126

> <Gold.Chemscore.Metal.Weighted>
-0.0000

> <Gold.Chemscore.Lipo.Weighted>
-11.3569

> <Gold.Chemscore.Internal_Hbond.Weighted>
0.0000

> <Gold.Chemscore.DEClash.Weighted>
1.8541

> <Gold.Chemscore.DEInternal.Weighted>
3.6219

> <Gold.Chemscore.Rot.Weighted>
8.5806

> <Gold.Chemscore.Internal.Correction.Weighted>
   9.000000E+99

> <Gold.Protein.RotatedTorsions>
[ 6907 6896 6895 6894 ] final   94.22 input  -60.11 | X-H torsion
[ 7974 7965 7964 7962 ] final   20.74 input  175.53 | X-H torsion
[ 8008 7997 7996 7995 ] final -160.54 input   59.86 | X-H torsion
[ 10167 10162 10161 10158 ] final  -31.80 input  -65.29 | X-H torsion
[ 10718 10713 10712 10709 ] final  -30.48 input   66.30 | X-H torsion
[ 10763 10752 10751 10750 ] final -171.81 input  -60.55 | X-H torsion
[ 11005 11000 10999 10996 ] final -101.63 input  -57.11 | X-H torsion

> <Gold.Protein.ActiveResidues>
 VAL166  LYS551  ARG553  GLY616  TRP617  ASP618  TYR619  PRO620  LYS621  CYS622 
 ASP623  PHE694  ASN695  SER759  ASP760  ASP761  ALA762  ILE779  LEU786  VAL792 
 PHE793  MET794  SER795  GLU796  ALA797  LYS798  CYS799  TRP800  GLU811  SER814 

> <Gold.Protein.RotatedAtoms>
  152.5450  134.1227  159.8405 H   0  0  0  0  0  0  0  0  0  0  0  0  # atno 6907 bound_to 6896
  151.1281  133.5049  159.2607 H   0  0  0  0  0  0  0  0  0  0  0  0  # atno 6908 bound_to 6896
  151.1705  135.0325  159.8804 H   0  0  0  0  0  0  0  0  0  0  0  0  # atno 6909 bound_to 6896
  146.2099  139.8126  142.8697 H   0  0  0  0  0  0  0  0  0  0  0  0  # atno 7974 bound_to 7965
  155.7789  140.0862  157.2069 H   0  0  0  0  0  0  0  0  0  0  0  0  # atno 8008 bound_to 7997
  154.3991  140.1511  156.3087 H   0  0  0  0  0  0  0  0  0  0  0  0  # atno 8009 bound_to 7997
  155.8673  140.3427  155.5799 H   0  0  0  0  0  0  0  0  0  0  0  0  # atno 8010 bound_to 7997
  140.7231  143.3743  151.1719 H   0  0  0  0  0  0  0  0  0  0  0  0  # atno 10167 bound_to 10162
  156.3993  130.4387  149.7335 H   0  0  0  0  0  0  0  0  0  0  0  0  # atno 10718 bound_to 10713
  154.6263  135.2881  155.0268 H   0  0  0  0  0  0  0  0  0  0  0  0  # atno 10763 bound_to 10752
  154.1445  135.6513  153.4953 H   0  0  0  0  0  0  0  0  0  0  0  0  # atno 10764 bound_to 10752
  153.0259  135.5341  154.7073 H   0  0  0  0  0  0  0  0  0  0  0  0  # atno 10765 bound_to 10752
  141.1223  133.8493  157.1256 H   0  0  0  0  0  0  0  0  0  0  0  0  # atno 11005 bound_to 11000
  145.3180  141.0237  143.3516 LP  0  0  0  0  0  0  0  0  0  0  0  0  # atno 17320 bound_to 7965
  144.8887  139.4804  143.6688 LP  0  0  0  0  0  0  0  0  0  0  0  0  # atno 17321 bound_to 7965
  139.7320  143.9058  152.3022 LP  0  0  0  0  0  0  0  0  0  0  0  0  # atno 17342 bound_to 10162
  139.8850  144.6997  150.8835 LP  0  0  0  0  0  0  0  0  0  0  0  0  # atno 17343 bound_to 10162
  156.4358  130.7837  151.2857 LP  0  0  0  0  0  0  0  0  0  0  0  0  # atno 17370 bound_to 10713
  157.7503  131.0140  150.3447 LP  0  0  0  0  0  0  0  0  0  0  0  0  # atno 17371 bound_to 10713
  140.0190  134.9954  157.0554 LP  0  0  0  0  0  0  0  0  0  0  0  0  # atno 17394 bound_to 11000
  140.4471  134.1621  155.7178 LP  0  0  0  0  0  0  0  0  0  0  0  0  # atno 17395 bound_to 11000

$$$$
