AV-unprocessed.smi:1809|AV-procd|sdf|7326|dock3
  -GOLD-   22720 8583D 1   1.00000     0.00000
 Structure written by MMmdl.
 39 41  0  0  0  0  0  0  0  0  3 V2000
  148.6480  140.9069  154.5196 C   0  0  0  0  0  0  0  0  0  0  0  0
  149.6255  139.7818  154.5190 C   0  0  0  0  0  0  0  0  0  0  0  0
  150.9461  139.9726  154.4764 N   0  0  0  0  0  0  0  0  0  0  0  0
  151.6475  138.7755  154.4824 N   0  0  0  0  0  0  0  0  0  0  0  0
  150.8503  137.6986  154.5203 C   0  0  0  0  0  0  0  0  0  0  0  0
  151.3354  136.4459  154.5375 N   0  5  0  0  0  0  0  0  0  0  0  0
  150.6675  135.4696  155.1912 C   0  0  0  0  0  0  0  0  0  0  0  0
  150.9881  134.9566  156.2659 O   0  0  0  0  0  0  0  0  0  0  0  0
  149.5616  135.0556  154.5569 N   0  0  0  0  0  0  0  0  0  0  0  0
  148.6640  134.0001  155.0130 C   0  0  0  0  0  0  0  0  0  0  0  0
  147.6702  133.5918  153.9124 C   0  0  1  0  0  0  0  0  0  0  0  0
  148.3821  132.9859  152.6883 C   0  0  0  0  0  0  0  0  0  0  0  0
  147.4169  132.4767  151.6861 N   0  3  2  0  0  0  0  0  0  0  0  0
  146.8140  133.4815  150.7822 C   0  0  0  0  0  0  0  0  0  0  0  0
  145.4022  132.9725  150.4501 C   0  0  0  0  0  0  0  0  0  0  0  0
  145.2965  131.5990  151.1199 C   0  0  0  0  0  0  0  0  0  0  0  0
  146.3246  131.6566  152.2505 C   0  0  2  0  0  0  0  0  0  0  0  0
  145.7449  132.2924  153.5350 C   0  0  0  0  0  0  0  0  0  0  0  0
  146.7901  132.6071  154.4430 O   0  0  0  0  0  0  0  0  0  0  0  0
  149.1329  138.0975  154.5723 S   0  0  0  0  0  0  0  0  0  0  0  0
  148.4742  141.2488  153.4994 H   0  0  0  0  0  0  0  0  0  0  0  0
  149.0303  141.7402  155.1096 H   0  0  0  0  0  0  0  0  0  0  0  0
  147.6993  140.5833  154.9482 H   0  0  0  0  0  0  0  0  0  0  0  0
  149.3343  135.5039  153.6814 H   0  0  0  0  0  0  0  0  0  0  0  0
  149.2486  133.1379  155.3380 H   0  0  0  0  0  0  0  0  0  0  0  0
  148.1278  134.3583  155.8920 H   0  0  0  0  0  0  0  0  0  0  0  0
  147.0993  134.4697  153.6056 H   0  0  0  0  0  0  0  0  0  0  0  0
  149.0509  133.7117  152.2238 H   0  0  0  0  0  0  0  0  0  0  0  0
  149.0029  132.1485  153.0095 H   0  0  0  0  0  0  0  0  0  0  0  0
  146.7568  134.4609  151.2588 H   0  0  0  0  0  0  0  0  0  0  0  0
  147.4289  133.5846  149.8876 H   0  0  0  0  0  0  0  0  0  0  0  0
  144.6585  133.6507  150.8705 H   0  0  0  0  0  0  0  0  0  0  0  0
  145.2236  132.9163  149.3759 H   0  0  0  0  0  0  0  0  0  0  0  0
  144.2877  131.3707  151.4658 H   0  0  0  0  0  0  0  0  0  0  0  0
  145.5834  130.8245  150.4070 H   0  0  0  0  0  0  0  0  0  0  0  0
  146.7056  130.6619  152.4854 H   0  0  0  0  0  0  0  0  0  0  0  0
  145.1699  133.1931  153.3145 H   0  0  0  0  0  0  0  0  0  0  0  0
  145.0577  131.5967  154.0169 H   0  0  0  0  0  0  0  0  0  0  0  0
  147.9341  131.8599  151.0759 H   0  0  0  0  0  0  0  0  0  0  0  0
  1  2  1  0  0  0  0
  1 21  1  0  0  0  0
  1 22  1  0  0  0  0
  1 23  1  0  0  0  0
  2 20  1  0  0  0  0
  2  3  2  0  0  0  0
  3  4  1  0  0  0  0
  4  5  2  0  0  0  0
  5  6  1  0  0  0  0
  5 20  1  0  0  0  0
  6  7  1  0  0  0  0
  7  8  2  0  0  0  0
  7  9  1  0  0  0  0
  9 10  1  0  0  0  0
  9 24  1  0  0  0  0
 10 11  1  0  0  0  0
 10 25  1  0  0  0  0
 10 26  1  0  0  0  0
 11 19  1  0  0  0  0
 11 12  1  0  0  0  0
 11 27  1  0  0  0  0
 12 13  1  0  0  0  0
 12 28  1  0  0  0  0
 12 29  1  0  0  0  0
 13 17  1  0  0  0  0
 13 14  1  0  0  0  0
 13 39  1  0  0  0  0
 14 15  1  0  0  0  0
 14 30  1  0  0  0  0
 14 31  1  0  0  0  0
 15 16  1  0  0  0  0
 15 32  1  0  0  0  0
 15 33  1  0  0  0  0
 16 17  1  0  0  0  0
 16 34  1  0  0  0  0
 16 35  1  0  0  0  0
 17 18  1  0  0  0  0
 17 36  1  0  0  0  0
 18 19  1  0  0  0  0
 18 37  1  0  0  0  0
 18 38  1  0  0  0  0
M  CHG  1   6  -1
M  CHG  1  13   1
M  END
> <s_m_source_file>
AV-unprocessed.smi

> <i_m_source_file_index>
1809

> <i_lp_mmshare_version>
43012

> <i_f3d_flags>
0

> <s_epik_input>
W0NIM11jMW5uYyhzMSlbTkhdQyg9TylbTkhdW0NIMl1bQ0BIXShbQ0gyXTIpT1tDSDJdW0NAQEhdKE4yMylbQ0gyXVtDSDJdW0NIMl0z

> <s_epik_cmdline>
J2VwaWtfcHl0aG9uJywgJy1waCcsICc3LjAnLCAnLXRuJywgJzgnLCAnLW1hJywgJzIwMCcsICctbWV0YWxfYmluZGluZycsICctaW1hZScsICc8aW5maWxlLm1hZT4nLCAnLW9tYWUnLCAnPG91dGZpbGUubWFlPic=

> <r_lp_tautomer_probability>
1

> <r_epik_Ionization_Penalty>
3.2601

> <r_epik_Ionization_Penalty_Charging>
3.1406

> <r_epik_Ionization_Penalty_Neutral>
0.119497

> <r_epik_State_Penalty>
3.08894

> <r_epik_Charging_Adjusted_Penalty>
6.22954

> <i_epik_Tot_Q>
0

> <i_epik_Tot_abs_Q>
2

> <r_epik_Metal_State_Penalty>
0.510807

> <b_epik_Metal_Only>
1

> <s_lp_Force_Field>
OPLS_2005

> <r_lp_Energy>
28.762

> <b_lp_Chiralities_Consistent>
1

> <s_lp_Variant>
AV-unprocessed.smi:1809-18

> <Gold.Version>
5.8.1

> <Gold.Id.Protein>
6NUR|6NUR_protein|mol2

> <Gold.PLP.Fitness>
44.0219

> <Gold.PLP.PLP>
-30.9643

> <Gold.PLP.part.hbond>
-4.3608

> <Gold.PLP.part.metal>
0.0000

> <Gold.PLP.part.buried>
-6.6099

> <Gold.PLP.part.nonpolar>
-22.3641

> <Gold.PLP.part.repulsive>
0.6677

> <Gold.PLP.ligand.clash>
0.0000

> <Gold.PLP.ligand.torsion>
0.9634

> <Gold.PLP.Chemscore.Hbond>
4.9913

> <Gold.PLP.Chemscore.CHOScore>
0.0000

> <Gold.PLP.Chemscore.Metal>
0.0000

> <Gold.Chemscore.Hbonds>
donor molecule, donor type, donor heavy atom, donor atom, acceptor molecule, acceptor atom, score
      L1  H     9    24       P1  7948  1.00
      L1  H    13    39       P1 10747  1.00
      P1  H  7989  7998       L1     3  0.91
      P1  H 10752 10765       L1     6  1.90

> <Gold.PLP.Chemscore.Internal.Correction>
0.0105

> <Gold.Rescore>
     Score         DG    S(hbond)    S(metal)    S(lipo)     H(rot)  DE(clash)    DE(int)     intcor
     19.95     -20.97       3.18        0.00      70.71       1.32       0.16       0.86       ----

> <Gold.Chemscore.Fitness>
19.9471

> <Gold.Chemscore.DG>
-20.9715

> <Gold.Chemscore.ZeroCoef>
-5.4800

> <Gold.Chemscore.Hbond>
3.1765

> <Gold.Chemscore.Metal>
0.0000

> <Gold.Chemscore.Lipo>
70.7091

> <Gold.Chemscore.Internal_Hbond>
0.0000

> <Gold.Chemscore.DEClash>
0.1611

> <Gold.Chemscore.DEInternal>
0.8632

> <Gold.Chemscore.Rot>
1.3246

> <Gold.Chemscore.Internal.Correction>
   9.000000E+99

> <Gold.Chemscore.Hbonds>
donor molecule, donor type, donor heavy atom, donor atom, acceptor molecule, acceptor atom, score
      L1  H     9    24       P1  7948  0.39
      L1  H    13    39       P1 10747  1.00
      P1  H  7989  7998       L1     3  0.52
      P1  H 10752 10765       L1     6  0.22

> <Gold.Chemscore.Hbond.Weighted>
-10.6095

> <Gold.Chemscore.Metal.Weighted>
-0.0000

> <Gold.Chemscore.Lipo.Weighted>
-8.2730

> <Gold.Chemscore.Internal_Hbond.Weighted>
0.0000

> <Gold.Chemscore.DEClash.Weighted>
0.1611

> <Gold.Chemscore.DEInternal.Weighted>
0.8632

> <Gold.Chemscore.Rot.Weighted>
3.3910

> <Gold.Chemscore.Internal.Correction.Weighted>
   9.000000E+99

> <Gold.Protein.RotatedTorsions>
[ 6907 6896 6895 6894 ] final -118.41 input  -60.11 | X-H torsion
[ 7974 7965 7964 7962 ] final -106.46 input  175.53 | X-H torsion
[ 8008 7997 7996 7995 ] final -145.58 input   59.86 | X-H torsion
[ 10167 10162 10161 10158 ] final   79.66 input  -65.29 | X-H torsion
[ 10718 10713 10712 10709 ] final  -64.98 input   66.30 | X-H torsion
[ 10763 10752 10751 10750 ] final  166.31 input  -60.55 | X-H torsion
[ 11005 11000 10999 10996 ] final  -93.92 input  -57.11 | X-H torsion

> <Gold.Protein.ActiveResidues>
 VAL166  LYS551  ARG553  GLY616  TRP617  ASP618  TYR619  PRO620  LYS621  CYS622 
 ASP623  PHE694  ASN695  SER759  ASP760  ASP761  ALA762  ILE779  LEU786  VAL792 
 PHE793  MET794  SER795  GLU796  ALA797  LYS798  CYS799  TRP800  GLU811  SER814 

> <Gold.Protein.RotatedAtoms>
  150.8218  133.8240  159.3135 H   0  0  0  0  0  0  0  0  0  0  0  0  # atno 6907 bound_to 6896
  151.5996  135.1046  160.0067 H   0  0  0  0  0  0  0  0  0  0  0  0  # atno 6908 bound_to 6896
  152.4306  133.7230  159.6601 H   0  0  0  0  0  0  0  0  0  0  0  0  # atno 6909 bound_to 6896
  145.2176  140.9121  143.3278 H   0  0  0  0  0  0  0  0  0  0  0  0  # atno 7974 bound_to 7965
  155.5455  140.0612  157.2861 H   0  0  0  0  0  0  0  0  0  0  0  0  # atno 8008 bound_to 7997
  154.4438  140.1911  156.0678 H   0  0  0  0  0  0  0  0  0  0  0  0  # atno 8009 bound_to 7997
  156.0554  140.3279  155.7403 H   0  0  0  0  0  0  0  0  0  0  0  0  # atno 8010 bound_to 7997
  139.9580  144.5980  150.8098 H   0  0  0  0  0  0  0  0  0  0  0  0  # atno 10167 bound_to 10162
  156.0697  130.4241  150.1498 H   0  0  0  0  0  0  0  0  0  0  0  0  # atno 10718 bound_to 10713
  154.3371  135.2754  155.2442 H   0  0  0  0  0  0  0  0  0  0  0  0  # atno 10763 bound_to 10752
  154.4729  135.5878  153.6337 H   0  0  0  0  0  0  0  0  0  0  0  0  # atno 10764 bound_to 10752
  152.9861  135.6092  154.3569 H   0  0  0  0  0  0  0  0  0  0  0  0  # atno 10765 bound_to 10752
  141.1484  133.7920  157.0226 H   0  0  0  0  0  0  0  0  0  0  0  0  # atno 11005 bound_to 11000
  144.9796  139.3797  143.6268 LP  0  0  0  0  0  0  0  0  0  0  0  0  # atno 17320 bound_to 7965
  146.3383  139.8931  142.8806 LP  0  0  0  0  0  0  0  0  0  0  0  0  # atno 17321 bound_to 7965
  140.7562  143.3061  151.2958 LP  0  0  0  0  0  0  0  0  0  0  0  0  # atno 17342 bound_to 10162
  139.6576  144.0248  152.2670 LP  0  0  0  0  0  0  0  0  0  0  0  0  # atno 17343 bound_to 10162
  156.9551  130.9787  151.3490 LP  0  0  0  0  0  0  0  0  0  0  0  0  # atno 17370 bound_to 10713
  157.5760  130.8343  149.8456 LP  0  0  0  0  0  0  0  0  0  0  0  0  # atno 17371 bound_to 10713
  140.0806  134.9650  157.1618 LP  0  0  0  0  0  0  0  0  0  0  0  0  # atno 17394 bound_to 11000
  140.3582  134.2523  155.7190 LP  0  0  0  0  0  0  0  0  0  0  0  0  # atno 17395 bound_to 11000

$$$$
