AV-unprocessed.smi:221|AV-procd|sdf|1698|dock1
  -GOLD-   2262020153D 1   1.00000     0.00000
 Structure written by MMmdl.
 50 53  0  0  0  0  0  0  0  0  1 V2000
  157.0693  137.4436  159.9431 N   0  0  0  0  0  0  0  0  0  0  0  0
  157.2698  137.6078  161.2527 C   0  0  0  0  0  0  0  0  0  0  0  0
  158.3924  137.7773  161.7258 O   0  0  0  0  0  0  0  0  0  0  0  0
  156.0235  137.5958  162.1497 C   0  0  2  0  0  0  0  0  0  0  0  0
  156.0693  136.4599  163.1804 C   0  0  0  0  0  0  0  0  0  0  0  0
  154.5983  136.2383  163.5133 C   0  0  1  0  0  0  0  0  0  0  0  0
  154.1998  137.1476  164.4043 F   0  0  0  0  0  0  0  0  0  0  0  0
  153.8972  136.4909  162.1774 C   0  0  0  0  0  0  0  0  0  0  0  0
  154.7963  137.3347  161.3932 N   0  0  0  0  0  0  0  0  0  0  0  0
  154.2319  138.4126  160.8036 C   0  0  0  0  0  0  0  0  0  0  0  0
  154.7417  139.6532  161.0232 N   0  0  0  0  0  0  0  0  0  0  0  0
  154.1857  140.7155  160.4323 C   0  0  0  0  0  0  0  0  0  0  0  0
  153.1388  140.7581  159.6050 N   0  0  0  0  0  0  0  0  0  0  0  0
  152.6277  139.5122  159.3861 C   0  0  0  0  0  0  0  0  0  0  0  0
  153.1114  138.2954  159.9413 C   0  0  0  0  0  0  0  0  0  0  0  0
  152.3447  137.2269  159.4945 N   0  0  0  0  0  0  0  0  0  0  0  0
  151.4544  137.7813  158.7176 C   0  0  0  0  0  0  0  0  0  0  0  0
  151.5457  139.1504  158.6027 N   0  0  0  0  0  0  0  0  0  0  0  0
  150.6818  140.0129  157.8155 C   0  0  0  0  0  0  0  0  0  0  0  0
  151.4489  141.1481  157.0927 C   0  0  1  0  0  0  0  0  0  0  0  0
  150.9027  141.4307  155.6715 C   0  0  0  0  0  0  0  0  0  0  0  0
  150.9109  140.2647  154.8733 O   0  0  0  0  0  0  0  0  0  0  0  0
  151.5190  142.4322  157.9572 C   0  0  1  0  0  0  0  0  0  0  0  0
  152.2817  143.5859  157.3300 C   0  0  0  0  0  0  0  0  0  0  0  0
  151.7912  144.7730  158.1505 C   0  0  0  0  0  0  0  0  0  0  0  0
  150.4363  144.4790  158.4696 O   0  0  0  0  0  0  0  0  0  0  0  0
  150.1657  143.1022  158.2221 C   0  0  0  0  0  0  0  0  0  0  0  0
  155.9433  138.5499  162.6752 H   0  0  0  0  0  0  0  0  0  0  0  0
  154.3901  135.2534  163.9320 H   0  0  0  0  0  0  0  0  0  0  0  0
  157.8579  137.4428  159.3126 H   0  0  0  0  0  0  0  0  0  0  0  0
  156.1325  137.3197  159.5874 H   0  0  0  0  0  0  0  0  0  0  0  0
  156.4831  135.5503  162.7407 H   0  0  0  0  0  0  0  0  0  0  0  0
  156.6666  136.7087  164.0581 H   0  0  0  0  0  0  0  0  0  0  0  0
  153.7783  135.5513  161.6370 H   0  0  0  0  0  0  0  0  0  0  0  0
  152.8985  136.9096  162.3162 H   0  0  0  0  0  0  0  0  0  0  0  0
  154.6460  141.6671  160.6532 H   0  0  0  0  0  0  0  0  0  0  0  0
  150.6967  137.2039  158.2078 H   0  0  0  0  0  0  0  0  0  0  0  0
  150.1417  139.4010  157.0920 H   0  0  0  0  0  0  0  0  0  0  0  0
  149.9309  140.4262  158.4892 H   0  0  0  0  0  0  0  0  0  0  0  0
  152.4731  140.7964  156.9598 H   0  0  0  0  0  0  0  0  0  0  0  0
  149.8835  141.8138  155.7161 H   0  0  0  0  0  0  0  0  0  0  0  0
  151.4888  142.2015  155.1710 H   0  0  0  0  0  0  0  0  0  0  0  0
  150.7477  139.5179  155.4289 H   0  0  0  0  0  0  0  0  0  0  0  0
  151.9851  142.2009  158.9167 H   0  0  0  0  0  0  0  0  0  0  0  0
  153.3642  143.4659  157.3802 H   0  0  0  0  0  0  0  0  0  0  0  0
  151.9976  143.7102  156.2839 H   0  0  0  0  0  0  0  0  0  0  0  0
  152.3572  144.8522  159.0795 H   0  0  0  0  0  0  0  0  0  0  0  0
  151.8819  145.7189  157.6161 H   0  0  0  0  0  0  0  0  0  0  0  0
  149.5215  143.0366  157.3443 H   0  0  0  0  0  0  0  0  0  0  0  0
  149.6367  142.6510  159.0616 H   0  0  0  0  0  0  0  0  0  0  0  0
  1  2  1  0  0  0  0
  1 30  1  0  0  0  0
  1 31  1  0  0  0  0
  2  3  2  0  0  0  0
  2  4  1  0  0  0  0
  4 28  1  0  0  0  0
  4  9  1  0  0  0  0
  4  5  1  0  0  0  0
  5  6  1  0  0  0  0
  5 32  1  0  0  0  0
  5 33  1  0  0  0  0
  6 29  1  0  0  0  0
  6  7  1  0  0  0  0
  6  8  1  0  0  0  0
  8  9  1  0  0  0  0
  8 34  1  0  0  0  0
  8 35  1  0  0  0  0
  9 10  1  0  0  0  0
 10 15  1  0  0  0  0
 10 11  2  0  0  0  0
 11 12  1  0  0  0  0
 12 13  2  0  0  0  0
 12 36  1  0  0  0  0
 13 14  1  0  0  0  0
 14 18  1  0  0  0  0
 14 15  2  0  0  0  0
 15 16  1  0  0  0  0
 16 17  2  0  0  0  0
 17 18  1  0  0  0  0
 17 37  1  0  0  0  0
 18 19  1  0  0  0  0
 19 20  1  0  0  0  0
 19 38  1  0  0  0  0
 19 39  1  0  0  0  0
 20 21  1  0  0  0  0
 20 23  1  0  0  0  0
 20 40  1  0  0  0  0
 21 22  1  0  0  0  0
 21 41  1  0  0  0  0
 21 42  1  0  0  0  0
 22 43  1  0  0  0  0
 23 27  1  0  0  0  0
 23 24  1  0  0  0  0
 23 44  1  0  0  0  0
 24 25  1  0  0  0  0
 24 45  1  0  0  0  0
 24 46  1  0  0  0  0
 25 26  1  0  0  0  0
 25 47  1  0  0  0  0
 25 48  1  0  0  0  0
 26 27  1  0  0  0  0
 27 49  1  0  0  0  0
 27 50  1  0  0  0  0
M  END
> <s_m_source_file>
AV-unprocessed.smi

> <i_m_source_file_index>
221

> <i_lp_mmshare_version>
43012

> <i_f3d_flags>
0

> <s_epik_input>
W05IMl1DKD1PKVtDQEBIXTFbQ0gyXVtDQEBIXShGKVtDSDJdTjFjKG5bY0hdbjIpYyhjMjMpbltjSF1uM1tDSDJdW0NASF0oW0NIMl1bT0hdKVtDQEBIXTRbQ0gyXVtDSDJdT1tDSDJdNA==

> <s_epik_cmdline>
J2VwaWtfcHl0aG9uJywgJy1waCcsICc3LjAnLCAnLXRuJywgJzgnLCAnLW1hJywgJzIwMCcsICctbWV0YWxfYmluZGluZycsICctaW1hZScsICc8aW5maWxlLm1hZT4nLCAnLW9tYWUnLCAnPG91dGZpbGUubWFlPic=

> <r_lp_tautomer_probability>
1

> <r_epik_Ionization_Penalty>
0.000818822

> <r_epik_Ionization_Penalty_Charging>
0

> <r_epik_Ionization_Penalty_Neutral>
0.000818822

> <r_epik_State_Penalty>
0.000440551

> <r_epik_Charging_Adjusted_Penalty>
0.000440551

> <i_epik_Tot_Q>
0

> <i_epik_Tot_abs_Q>
0

> <r_epik_Metal_State_Penalty>
-0

> <b_epik_Metal_Only>
0

> <s_lp_Force_Field>
OPLS_2005

> <r_lp_Energy>
50.4935

> <b_lp_Chiralities_Consistent>
1

> <s_lp_Variant>
AV-unprocessed.smi:221-13

> <Gold.Version>
5.8.1

> <Gold.Id.Protein>
6NUR|6NUR_protein|mol2

> <Gold.PLP.Fitness>
43.8063

> <Gold.PLP.PLP>
-40.0739

> <Gold.PLP.part.hbond>
-1.5946

> <Gold.PLP.part.metal>
0.0000

> <Gold.PLP.part.buried>
-7.8067

> <Gold.PLP.part.nonpolar>
-31.1118

> <Gold.PLP.part.repulsive>
0.2028

> <Gold.PLP.ligand.clash>
0.0000

> <Gold.PLP.ligand.torsion>
0.8462

> <Gold.PLP.Chemscore.Hbond>
1.6175

> <Gold.PLP.Chemscore.CHOScore>
0.0000

> <Gold.PLP.Chemscore.Metal>
0.0000

> <Gold.Chemscore.Hbonds>
donor molecule, donor type, donor heavy atom, donor atom, acceptor molecule, acceptor atom, score
      P1  H  6896  6908       L1    16  0.52
      P1  H  7989  7998       L1    22  0.95

> <Gold.PLP.Chemscore.Internal.Correction>
0.5723

> <Gold.Rescore>
     Score         DG    S(hbond)    S(metal)    S(lipo)     H(rot)  DE(clash)    DE(int)     intcor
      8.53     -11.87       1.75        0.00      86.20       3.72       1.28       2.06       ----

> <Gold.Chemscore.Fitness>
8.5303

> <Gold.Chemscore.DG>
-11.8730

> <Gold.Chemscore.ZeroCoef>
-5.4800

> <Gold.Chemscore.Hbond>
1.7458

> <Gold.Chemscore.Metal>
0.0000

> <Gold.Chemscore.Lipo>
86.2018

> <Gold.Chemscore.Internal_Hbond>
0.0000

> <Gold.Chemscore.DEClash>
1.2845

> <Gold.Chemscore.DEInternal>
2.0582

> <Gold.Chemscore.Rot>
3.7202

> <Gold.Chemscore.Internal.Correction>
   9.000000E+99

> <Gold.Chemscore.Hbonds>
donor molecule, donor type, donor heavy atom, donor atom, acceptor molecule, acceptor atom, score
      P1  H  6896  6908       L1    16  0.39
      P1  H  7989  7998       L1    22  0.21

> <Gold.Chemscore.Hbond.Weighted>
-5.8311

> <Gold.Chemscore.Metal.Weighted>
-0.0000

> <Gold.Chemscore.Lipo.Weighted>
-10.0856

> <Gold.Chemscore.Internal_Hbond.Weighted>
0.0000

> <Gold.Chemscore.DEClash.Weighted>
1.2845

> <Gold.Chemscore.DEInternal.Weighted>
2.0582

> <Gold.Chemscore.Rot.Weighted>
9.5237

> <Gold.Chemscore.Internal.Correction.Weighted>
   9.000000E+99

> <Gold.Protein.RotatedTorsions>
[ 6907 6896 6895 6894 ] final -112.83 input  -60.11 | X-H torsion
[ 7974 7965 7964 7962 ] final  -55.59 input  175.53 | X-H torsion
[ 8008 7997 7996 7995 ] final  157.23 input   59.86 | X-H torsion
[ 10167 10162 10161 10158 ] final   86.29 input  -65.29 | X-H torsion
[ 10718 10713 10712 10709 ] final  143.14 input   66.30 | X-H torsion
[ 10763 10752 10751 10750 ] final  179.78 input  -60.55 | X-H torsion
[ 11005 11000 10999 10996 ] final  134.37 input  -57.11 | X-H torsion

> <Gold.Protein.ActiveResidues>
 VAL166  LYS551  ARG553  GLY616  TRP617  ASP618  TYR619  PRO620  LYS621  CYS622 
 ASP623  PHE694  ASN695  SER759  ASP760  ASP761  ALA762  ILE779  LEU786  VAL792 
 PHE793  MET794  SER795  GLU796  ALA797  LYS798  CYS799  TRP800  GLU811  SER814 

> <Gold.Protein.RotatedAtoms>
  150.7786  133.9033  159.3347 H   0  0  0  0  0  0  0  0  0  0  0  0  # atno 6907 bound_to 6896
  151.6901  135.0946  160.0241 H   0  0  0  0  0  0  0  0  0  0  0  0  # atno 6908 bound_to 6896
  152.3830  133.6534  159.6212 H   0  0  0  0  0  0  0  0  0  0  0  0  # atno 6909 bound_to 6896
  145.8724  140.8206  142.9881 H   0  0  0  0  0  0  0  0  0  0  0  0  # atno 7974 bound_to 7965
  156.2376  140.1891  156.7077 H   0  0  0  0  0  0  0  0  0  0  0  0  # atno 8008 bound_to 7997
  154.6135  140.0618  156.9552 H   0  0  0  0  0  0  0  0  0  0  0  0  # atno 8009 bound_to 7997
  155.1977  140.3289  155.4351 H   0  0  0  0  0  0  0  0  0  0  0  0  # atno 8010 bound_to 7997
  139.8890  144.6396  150.8760 H   0  0  0  0  0  0  0  0  0  0  0  0  # atno 10167 bound_to 10162
  157.3724  131.0981  151.0815 H   0  0  0  0  0  0  0  0  0  0  0  0  # atno 10718 bound_to 10713
  154.5250  135.2796  155.1229 H   0  0  0  0  0  0  0  0  0  0  0  0  # atno 10763 bound_to 10752
  154.2772  135.6292  153.5336 H   0  0  0  0  0  0  0  0  0  0  0  0  # atno 10764 bound_to 10752
  152.9945  135.5642  154.5749 H   0  0  0  0  0  0  0  0  0  0  0  0  # atno 10765 bound_to 10752
  139.9910  134.9515  156.9857 H   0  0  0  0  0  0  0  0  0  0  0  0  # atno 11005 bound_to 11000
  144.6726  140.1259  143.7447 LP  0  0  0  0  0  0  0  0  0  0  0  0  # atno 17320 bound_to 7965
  145.9121  139.2493  143.1431 LP  0  0  0  0  0  0  0  0  0  0  0  0  # atno 17321 bound_to 7965
  140.7730  143.3525  151.1986 LP  0  0  0  0  0  0  0  0  0  0  0  0  # atno 17342 bound_to 10162
  139.7127  143.9351  152.2954 LP  0  0  0  0  0  0  0  0  0  0  0  0  # atno 17343 bound_to 10162
  157.1914  130.6354  149.5706 LP  0  0  0  0  0  0  0  0  0  0  0  0  # atno 17370 bound_to 10713
  155.9758  130.4721  150.6486 LP  0  0  0  0  0  0  0  0  0  0  0  0  # atno 17371 bound_to 10713
  140.4908  134.1195  155.7232 LP  0  0  0  0  0  0  0  0  0  0  0  0  # atno 17394 bound_to 11000
  141.1566  133.8871  157.1961 LP  0  0  0  0  0  0  0  0  0  0  0  0  # atno 17395 bound_to 11000

$$$$
