AV-unprocessed.smi:1553|AV-procd|sdf|6239|dock8
  -GOLD-   22720 6423D 1   1.00000     0.00000
 Structure written by MMmdl.
 37 38  0  0  0  0  0  0  0  0  1 V2000
  153.2298  142.5789  162.3699 C   0  0  0  0  0  0  0  0  0  0  0  0
  152.6246  143.3820  161.2700 C   0  0  0  0  0  0  0  0  0  0  0  0
  152.2883  142.8725  160.0822 N   0  0  0  0  0  0  0  0  0  0  0  0
  151.7386  143.8280  159.2220 C   0  0  0  0  0  0  0  0  0  0  0  0
  151.3079  143.4321  157.8425 C   0  0  0  0  0  0  0  0  0  0  0  0
  150.0657  142.5261  157.8603 C   0  0  0  0  0  0  0  0  0  0  0  0
  149.6479  142.1616  156.5116 N   0  0  0  0  0  0  0  0  0  0  0  0
  149.6132  140.9104  156.0221 C   0  0  0  0  0  0  0  0  0  0  0  0
  149.9894  139.9380  156.6765 O   0  0  0  0  0  0  0  0  0  0  0  0
  149.2450  140.8526  154.7177 N   0  0  0  0  0  0  0  0  0  0  0  0
  148.2228  141.7595  154.1732 C   0  0  0  0  0  0  0  0  0  0  0  0
  146.8627  141.0351  154.2081 C   0  0  0  0  0  0  0  0  0  0  0  0
  146.9387  139.8241  153.4595 O   0  0  0  0  0  0  0  0  0  0  0  0
  147.9554  138.9362  153.9201 C   0  0  0  0  0  0  0  0  0  0  0  0
  149.3203  139.6512  153.8623 C   0  0  2  0  0  0  0  0  0  0  0  0
  150.5020  138.7001  154.1462 C   0  0  0  0  0  0  0  0  0  0  0  0
  151.6671  145.0802  159.7795 C   0  0  0  0  0  0  0  0  0  0  0  0
  152.2853  145.1026  161.4084 S   0  0  0  0  0  0  0  0  0  0  0  0
  153.1409  141.5124  162.1602 H   0  0  0  0  0  0  0  0  0  0  0  0
  152.7227  142.7924  163.3109 H   0  0  0  0  0  0  0  0  0  0  0  0
  154.2856  142.8283  162.4752 H   0  0  0  0  0  0  0  0  0  0  0  0
  151.1031  144.3260  157.2516 H   0  0  0  0  0  0  0  0  0  0  0  0
  152.1241  142.9189  157.3323 H   0  0  0  0  0  0  0  0  0  0  0  0
  150.2859  141.6071  158.4041 H   0  0  0  0  0  0  0  0  0  0  0  0
  149.2433  143.0104  158.3901 H   0  0  0  0  0  0  0  0  0  0  0  0
  149.3665  142.9153  155.9015 H   0  0  0  0  0  0  0  0  0  0  0  0
  148.1446  142.7011  154.7177 H   0  0  0  0  0  0  0  0  0  0  0  0
  148.4793  142.0328  153.1487 H   0  0  0  0  0  0  0  0  0  0  0  0
  146.5641  140.8177  155.2349 H   0  0  0  0  0  0  0  0  0  0  0  0
  146.0867  141.6677  153.7772 H   0  0  0  0  0  0  0  0  0  0  0  0
  147.7289  138.5972  154.9324 H   0  0  0  0  0  0  0  0  0  0  0  0
  147.9596  138.0539  153.2798 H   0  0  0  0  0  0  0  0  0  0  0  0
  149.4712  139.9980  152.8386 H   0  0  0  0  0  0  0  0  0  0  0  0
  150.5993  137.9664  153.3457 H   0  0  0  0  0  0  0  0  0  0  0  0
  150.3729  138.1376  155.0704 H   0  0  0  0  0  0  0  0  0  0  0  0
  151.4453  139.2441  154.2042 H   0  0  0  0  0  0  0  0  0  0  0  0
  151.2912  145.9883  159.3320 H   0  0  0  0  0  0  0  0  0  0  0  0
  1  2  1  0  0  0  0
  1 19  1  0  0  0  0
  1 20  1  0  0  0  0
  1 21  1  0  0  0  0
  2 18  1  0  0  0  0
  2  3  2  0  0  0  0
  3  4  1  0  0  0  0
  4  5  1  0  0  0  0
  4 17  2  0  0  0  0
  5  6  1  0  0  0  0
  5 22  1  0  0  0  0
  5 23  1  0  0  0  0
  6  7  1  0  0  0  0
  6 24  1  0  0  0  0
  6 25  1  0  0  0  0
  7  8  1  0  0  0  0
  7 26  1  0  0  0  0
  8  9  2  0  0  0  0
  8 10  1  0  0  0  0
 10 15  1  0  0  0  0
 10 11  1  0  0  0  0
 11 12  1  0  0  0  0
 11 27  1  0  0  0  0
 11 28  1  0  0  0  0
 12 13  1  0  0  0  0
 12 29  1  0  0  0  0
 12 30  1  0  0  0  0
 13 14  1  0  0  0  0
 14 15  1  0  0  0  0
 14 31  1  0  0  0  0
 14 32  1  0  0  0  0
 15 16  1  0  0  0  0
 15 33  1  0  0  0  0
 16 34  1  0  0  0  0
 16 35  1  0  0  0  0
 16 36  1  0  0  0  0
 17 18  1  0  0  0  0
 17 37  1  0  0  0  0
M  END
> <s_m_source_file>
AV-unprocessed.smi

> <i_m_source_file_index>
1553

> <i_lp_mmshare_version>
43012

> <i_f3d_flags>
0

> <s_epik_input>
W0NIM11jMW5jKFtjSF1zMSlbQ0gyXVtDSDJdW05IXUMoPU8pTjJbQ0gyXVtDSDJdT1tDSDJdW0NASF0yW0NIM10=

> <s_epik_cmdline>
J2VwaWtfcHl0aG9uJywgJy1waCcsICc3LjAnLCAnLXRuJywgJzgnLCAnLW1hJywgJzIwMCcsICctbWV0YWxfYmluZGluZycsICctaW1hZScsICc8aW5maWxlLm1hZT4nLCAnLW9tYWUnLCAnPG91dGZpbGUubWFlPic=

> <r_epik_Ionization_Penalty>
0.0020768

> <r_epik_Ionization_Penalty_Charging>
0

> <r_epik_Ionization_Penalty_Neutral>
0.0020768

> <r_epik_State_Penalty>
0.00139904

> <r_epik_Charging_Adjusted_Penalty>
0.00139904

> <i_epik_Tot_Q>
0

> <i_epik_Tot_abs_Q>
0

> <r_epik_Metal_State_Penalty>
-0

> <b_epik_Metal_Only>
0

> <s_lp_Force_Field>
OPLS_2005

> <r_lp_Energy>
26.8806

> <b_lp_Chiralities_Consistent>
1

> <s_lp_Variant>
AV-unprocessed.smi:1553-2

> <Gold.Version>
5.8.1

> <Gold.Id.Protein>
6NUR|6NUR_protein|mol2

> <Gold.PLP.Fitness>
39.8206

> <Gold.PLP.PLP>
-37.2432

> <Gold.PLP.part.hbond>
-1.0000

> <Gold.PLP.part.metal>
0.0000

> <Gold.PLP.part.buried>
-0.3478

> <Gold.PLP.part.nonpolar>
-36.2119

> <Gold.PLP.part.repulsive>
0.2621

> <Gold.PLP.ligand.clash>
0.0000

> <Gold.PLP.ligand.torsion>
0.3375

> <Gold.PLP.Chemscore.Hbond>
0.9440

> <Gold.PLP.Chemscore.CHOScore>
0.0000

> <Gold.PLP.Chemscore.Metal>
0.0000

> <Gold.Chemscore.Hbonds>
donor molecule, donor type, donor heavy atom, donor atom, acceptor molecule, acceptor atom, score
      L1  H     7    26       P1  8028  1.00

> <Gold.PLP.Chemscore.Internal.Correction>
0.4205

> <Gold.Rescore>
     Score         DG    S(hbond)    S(metal)    S(lipo)     H(rot)  DE(clash)    DE(int)     intcor
     14.17     -18.13       0.94        0.00     110.40       1.33       2.37       1.59       ----

> <Gold.Chemscore.Fitness>
14.1682

> <Gold.Chemscore.DG>
-18.1341

> <Gold.Chemscore.ZeroCoef>
-5.4800

> <Gold.Chemscore.Hbond>
0.9427

> <Gold.Chemscore.Metal>
0.0000

> <Gold.Chemscore.Lipo>
110.3982

> <Gold.Chemscore.Internal_Hbond>
0.0000

> <Gold.Chemscore.DEClash>
2.3719

> <Gold.Chemscore.DEInternal>
1.5940

> <Gold.Chemscore.Rot>
1.3325

> <Gold.Chemscore.Internal.Correction>
   9.000000E+99

> <Gold.Chemscore.Hbonds>
donor molecule, donor type, donor heavy atom, donor atom, acceptor molecule, acceptor atom, score
      L1  H     7    26       P1  8028  0.94

> <Gold.Chemscore.Hbond.Weighted>
-3.1486

> <Gold.Chemscore.Metal.Weighted>
-0.0000

> <Gold.Chemscore.Lipo.Weighted>
-12.9166

> <Gold.Chemscore.Internal_Hbond.Weighted>
0.0000

> <Gold.Chemscore.DEClash.Weighted>
2.3719

> <Gold.Chemscore.DEInternal.Weighted>
1.5940

> <Gold.Chemscore.Rot.Weighted>
3.4111

> <Gold.Chemscore.Internal.Correction.Weighted>
   9.000000E+99

> <Gold.Protein.RotatedTorsions>
[ 6907 6896 6895 6894 ] final  111.21 input  -60.11 | X-H torsion
[ 7974 7965 7964 7962 ] final -119.07 input  175.53 | X-H torsion
[ 8008 7997 7996 7995 ] final -150.04 input   59.86 | X-H torsion
[ 10167 10162 10161 10158 ] final   58.66 input  -65.29 | X-H torsion
[ 10718 10713 10712 10709 ] final -130.41 input   66.30 | X-H torsion
[ 10763 10752 10751 10750 ] final  114.77 input  -60.55 | X-H torsion
[ 11005 11000 10999 10996 ] final   49.90 input  -57.11 | X-H torsion

> <Gold.Protein.ActiveResidues>
 VAL166  LYS551  ARG553  GLY616  TRP617  ASP618  TYR619  PRO620  LYS621  CYS622 
 ASP623  PHE694  ASN695  SER759  ASP760  ASP761  ALA762  ILE779  LEU786  VAL792 
 PHE793  MET794  SER795  GLU796  ALA797  LYS798  CYS799  TRP800  GLU811  SER814 

> <Gold.Protein.RotatedAtoms>
  152.4981  133.8690  159.7288 H   0  0  0  0  0  0  0  0  0  0  0  0  # atno 6907 bound_to 6896
  150.9182  133.6904  159.2845 H   0  0  0  0  0  0  0  0  0  0  0  0  # atno 6908 bound_to 6896
  151.4290  135.1011  159.9689 H   0  0  0  0  0  0  0  0  0  0  0  0  # atno 6909 bound_to 6896
  145.0667  140.8329  143.4120 H   0  0  0  0  0  0  0  0  0  0  0  0  # atno 7974 bound_to 7965
  155.6173  140.0678  157.2688 H   0  0  0  0  0  0  0  0  0  0  0  0  # atno 8008 bound_to 7997
  154.4238  140.1791  156.1383 H   0  0  0  0  0  0  0  0  0  0  0  0  # atno 8009 bound_to 7997
  156.0038  140.3333  155.6875 H   0  0  0  0  0  0  0  0  0  0  0  0  # atno 8010 bound_to 7997
  140.1848  144.4145  150.6598 H   0  0  0  0  0  0  0  0  0  0  0  0  # atno 10167 bound_to 10162
  156.2142  130.6938  151.0684 H   0  0  0  0  0  0  0  0  0  0  0  0  # atno 10718 bound_to 10713
  153.5122  135.3615  155.2592 H   0  0  0  0  0  0  0  0  0  0  0  0  # atno 10763 bound_to 10752
  154.8741  135.4025  154.3355 H   0  0  0  0  0  0  0  0  0  0  0  0  # atno 10764 bound_to 10752
  153.4011  135.7075  153.6492 H   0  0  0  0  0  0  0  0  0  0  0  0  # atno 10765 bound_to 10752
  140.1063  134.5013  155.8717 H   0  0  0  0  0  0  0  0  0  0  0  0  # atno 11005 bound_to 11000
  145.1343  139.2612  143.5523 LP  0  0  0  0  0  0  0  0  0  0  0  0  # atno 17320 bound_to 7965
  146.3527  140.1002  142.8608 LP  0  0  0  0  0  0  0  0  0  0  0  0  # atno 17321 bound_to 7965
  140.6495  143.2221  151.6109 LP  0  0  0  0  0  0  0  0  0  0  0  0  # atno 17342 bound_to 10162
  139.5280  144.2999  152.1082 LP  0  0  0  0  0  0  0  0  0  0  0  0  # atno 17343 bound_to 10162
  157.7054  131.0758  150.6682 LP  0  0  0  0  0  0  0  0  0  0  0  0  # atno 17370 bound_to 10713
  156.6743  130.4548  149.5647 LP  0  0  0  0  0  0  0  0  0  0  0  0  # atno 17371 bound_to 10713
  141.2119  133.6712  156.6618 LP  0  0  0  0  0  0  0  0  0  0  0  0  # atno 17394 bound_to 11000
  140.3151  134.8054  157.4207 LP  0  0  0  0  0  0  0  0  0  0  0  0  # atno 17395 bound_to 11000

$$$$
