AV-unprocessed.smi:1598|AV-procd|sdf|6422|dock3
  -GOLD-   22720 7 63D 1   1.00000     0.00000
 Structure written by MMmdl.
 39 39  0  0  0  0  0  0  0  0  1 V2000
  155.9681  139.4020  159.5894 C   0  0  0  0  0  0  0  0  0  0  0  0
  154.7025  139.9447  159.2563 O   0  0  0  0  0  0  0  0  0  0  0  0
  154.1383  140.6983  160.3168 C   0  0  0  0  0  0  0  0  0  0  0  0
  152.7699  141.2482  159.8851 C   0  0  1  0  0  0  0  0  0  0  0  0
  152.5195  142.6656  160.4269 C   0  0  0  0  0  0  0  0  0  0  0  0
  152.6983  141.2506  158.4280 N   0  0  0  0  0  0  0  0  0  0  0  0
  151.6282  140.9051  157.6913 C   0  0  0  0  0  0  0  0  0  0  0  0
  150.5618  140.5487  158.1906 O   0  0  0  0  0  0  0  0  0  0  0  0
  151.7514  140.9666  156.1565 C   0  0  0  0  0  0  0  0  0  0  0  0
  150.6351  140.3368  155.4025 N   0  0  0  0  0  0  0  0  0  0  0  0
  150.7672  138.9997  154.9113 C   0  0  0  0  0  0  0  0  0  0  0  0
  152.0432  138.2035  155.2219 C   0  0  0  0  0  0  0  0  0  0  0  0
  151.9703  136.9660  154.7296 F   0  0  0  0  0  0  0  0  0  0  0  0
  153.1086  138.7794  154.6644 F   0  0  0  0  0  0  0  0  0  0  0  0
  152.2469  138.0773  156.5328 F   0  0  0  0  0  0  0  0  0  0  0  0
  149.7604  138.4404  154.2151 C   0  0  0  0  0  0  0  0  0  0  0  0
  148.5585  139.1841  153.9571 C   0  0  0  0  0  0  0  0  0  0  0  0
  148.4149  140.4469  154.4188 C   0  0  0  0  0  0  0  0  0  0  0  0
  147.1943  141.2515  154.1821 C   0  0  0  0  0  0  0  0  0  0  0  0
  146.2136  140.5923  153.5522 N   0  0  0  0  0  0  0  0  0  0  0  0
  147.0068  142.4251  154.5022 O   0  0  0  0  0  0  0  0  0  0  0  0
  149.5022  141.0937  155.1977 C   0  0  0  0  0  0  0  0  0  0  0  0
  149.4315  142.2370  155.6586 O   0  0  0  0  0  0  0  0  0  0  0  0
  156.3580  138.8369  158.7430 H   0  0  0  0  0  0  0  0  0  0  0  0
  155.8945  138.7244  160.4411 H   0  0  0  0  0  0  0  0  0  0  0  0
  156.6849  140.1888  159.8275 H   0  0  0  0  0  0  0  0  0  0  0  0
  154.0346  140.0785  161.2092 H   0  0  0  0  0  0  0  0  0  0  0  0
  154.8079  141.5230  160.5685 H   0  0  0  0  0  0  0  0  0  0  0  0
  152.0007  140.5790  160.2752 H   0  0  0  0  0  0  0  0  0  0  0  0
  152.5579  142.6831  161.5161 H   0  0  0  0  0  0  0  0  0  0  0  0
  151.5374  143.0346  160.1296 H   0  0  0  0  0  0  0  0  0  0  0  0
  153.2656  143.3694  160.0567 H   0  0  0  0  0  0  0  0  0  0  0  0
  153.5347  141.5314  157.9376 H   0  0  0  0  0  0  0  0  0  0  0  0
  151.8508  142.0169  155.8754 H   0  0  0  0  0  0  0  0  0  0  0  0
  152.7211  140.5621  155.8827 H   0  0  0  0  0  0  0  0  0  0  0  0
  149.8341  137.4288  153.8441 H   0  0  0  0  0  0  0  0  0  0  0  0
  147.7869  138.6903  153.3852 H   0  0  0  0  0  0  0  0  0  0  0  0
  145.3416  141.0568  153.3460 H   0  0  0  0  0  0  0  0  0  0  0  0
  146.3523  139.6283  153.2854 H   0  0  0  0  0  0  0  0  0  0  0  0
  1  2  1  0  0  0  0
  1 24  1  0  0  0  0
  1 25  1  0  0  0  0
  1 26  1  0  0  0  0
  2  3  1  0  0  0  0
  3  4  1  0  0  0  0
  3 27  1  0  0  0  0
  3 28  1  0  0  0  0
  4  5  1  0  0  0  0
  4  6  1  0  0  0  0
  4 29  1  0  0  0  0
  5 30  1  0  0  0  0
  5 31  1  0  0  0  0
  5 32  1  0  0  0  0
  6  7  1  0  0  0  0
  6 33  1  0  0  0  0
  7  8  2  0  0  0  0
  7  9  1  0  0  0  0
  9 10  1  0  0  0  0
  9 34  1  0  0  0  0
  9 35  1  0  0  0  0
 10 22  1  0  0  0  0
 10 11  1  0  0  0  0
 11 12  1  0  0  0  0
 11 16  2  0  0  0  0
 12 13  1  0  0  0  0
 12 14  1  0  0  0  0
 12 15  1  0  0  0  0
 16 17  1  0  0  0  0
 16 36  1  0  0  0  0
 17 18  2  0  0  0  0
 17 37  1  0  0  0  0
 18 19  1  0  0  0  0
 18 22  1  0  0  0  0
 19 20  1  0  0  0  0
 19 21  2  0  0  0  0
 20 38  1  0  0  0  0
 20 39  1  0  0  0  0
 22 23  2  0  0  0  0
M  END
> <s_m_source_file>
AV-unprocessed.smi

> <i_m_source_file_index>
1598

> <i_lp_mmshare_version>
43012

> <i_f3d_flags>
0

> <s_epik_input>
W0NIM11PW0NIMl1bQ0BIXShbQ0gzXSlbTkhdQyg9TylbQ0gyXW4xYyhDKEYpKEYpRilbY0hdW2NIXWMoYzE9TylDKD1PKVtOSDJd

> <s_epik_cmdline>
J2VwaWtfcHl0aG9uJywgJy1waCcsICc3LjAnLCAnLXRuJywgJzgnLCAnLW1hJywgJzIwMCcsICctbWV0YWxfYmluZGluZycsICctaW1hZScsICc8aW5maWxlLm1hZT4nLCAnLW9tYWUnLCAnPG91dGZpbGUubWFlPic=

> <r_lp_tautomer_probability>
1

> <r_epik_Ionization_Penalty>
2.07884e-06

> <r_epik_Ionization_Penalty_Charging>
8.00383e-10

> <r_epik_Ionization_Penalty_Neutral>
2.07804e-06

> <r_epik_State_Penalty>
-0

> <r_epik_Charging_Adjusted_Penalty>
8.00383e-10

> <i_epik_Tot_Q>
0

> <i_epik_Tot_abs_Q>
0

> <r_epik_Metal_State_Penalty>
-0

> <b_epik_Metal_Only>
0

> <s_lp_Force_Field>
OPLS_2005

> <r_lp_Energy>
25.2492

> <b_lp_Chiralities_Consistent>
1

> <s_lp_Variant>
AV-unprocessed.smi:1598-2

> <Gold.Version>
5.8.1

> <Gold.Id.Protein>
6NUR|6NUR_protein|mol2

> <Gold.PLP.Fitness>
36.5977

> <Gold.PLP.PLP>
-33.9505

> <Gold.PLP.part.hbond>
-2.0000

> <Gold.PLP.part.metal>
0.0000

> <Gold.PLP.part.buried>
-0.1757

> <Gold.PLP.part.nonpolar>
-36.3099

> <Gold.PLP.part.repulsive>
4.2749

> <Gold.PLP.ligand.clash>
3.8809

> <Gold.PLP.ligand.torsion>
1.2901

> <Gold.PLP.Chemscore.Hbond>
1.6480

> <Gold.PLP.Chemscore.CHOScore>
0.0000

> <Gold.PLP.Chemscore.Metal>
0.0000

> <Gold.Chemscore.Hbonds>
donor molecule, donor type, donor heavy atom, donor atom, acceptor molecule, acceptor atom, score
      L1  H    20    38       P1 10175  0.69
      P1  H  7997  8008       L1     2  0.91

> <Gold.PLP.Chemscore.Internal.Correction>
4.1644

> <Gold.Rescore>
     Score         DG    S(hbond)    S(metal)    S(lipo)     H(rot)  DE(clash)    DE(int)     intcor
      4.99     -11.54       1.05        0.00      75.00       2.43       2.28       4.27       ----

> <Gold.Chemscore.Fitness>
4.9854

> <Gold.Chemscore.DG>
-11.5356

> <Gold.Chemscore.ZeroCoef>
-5.4800

> <Gold.Chemscore.Hbond>
1.0476

> <Gold.Chemscore.Metal>
0.0000

> <Gold.Chemscore.Lipo>
74.9967

> <Gold.Chemscore.Internal_Hbond>
0.0000

> <Gold.Chemscore.DEClash>
2.2770

> <Gold.Chemscore.DEInternal>
4.2732

> <Gold.Chemscore.Rot>
2.4289

> <Gold.Chemscore.Internal.Correction>
   9.000000E+99

> <Gold.Chemscore.Hbonds>
donor molecule, donor type, donor heavy atom, donor atom, acceptor molecule, acceptor atom, score
      L1  H    20    38       P1 10175  0.30
      P1  H  7997  8008       L1     2  0.19

> <Gold.Chemscore.Hbond.Weighted>
-3.4990

> <Gold.Chemscore.Metal.Weighted>
-0.0000

> <Gold.Chemscore.Lipo.Weighted>
-8.7746

> <Gold.Chemscore.Internal_Hbond.Weighted>
0.0000

> <Gold.Chemscore.DEClash.Weighted>
2.2770

> <Gold.Chemscore.DEInternal.Weighted>
4.2732

> <Gold.Chemscore.Rot.Weighted>
6.2180

> <Gold.Chemscore.Internal.Correction.Weighted>
   9.000000E+99

> <Gold.Protein.RotatedTorsions>
[ 6907 6896 6895 6894 ] final   72.88 input  -60.11 | X-H torsion
[ 7974 7965 7964 7962 ] final  -71.97 input  175.53 | X-H torsion
[ 8008 7997 7996 7995 ] final -108.17 input   59.86 | X-H torsion
[ 10167 10162 10161 10158 ] final  119.18 input  -65.29 | X-H torsion
[ 10718 10713 10712 10709 ] final  -82.64 input   66.30 | X-H torsion
[ 10763 10752 10751 10750 ] final   11.70 input  -60.55 | X-H torsion
[ 11005 11000 10999 10996 ] final  -32.77 input  -57.11 | X-H torsion

> <Gold.Protein.ActiveResidues>
 VAL166  LYS551  ARG553  GLY616  TRP617  ASP618  TYR619  PRO620  LYS621  CYS622 
 ASP623  PHE694  ASN695  SER759  ASP760  ASP761  ALA762  ILE779  LEU786  VAL792 
 PHE793  MET794  SER795  GLU796  ALA797  LYS798  CYS799  TRP800  GLU811  SER814 

> <Gold.Protein.RotatedAtoms>
  152.4893  134.4505  159.9572 H   0  0  0  0  0  0  0  0  0  0  0  0  # atno 6907 bound_to 6896
  151.4495  133.3615  159.2801 H   0  0  0  0  0  0  0  0  0  0  0  0  # atno 6908 bound_to 6896
  150.9031  134.8469  159.7434 H   0  0  0  0  0  0  0  0  0  0  0  0  # atno 6909 bound_to 6896
  145.6711  140.9220  143.0882 H   0  0  0  0  0  0  0  0  0  0  0  0  # atno 7974 bound_to 7965
  154.9403  140.0403  157.2093 H   0  0  0  0  0  0  0  0  0  0  0  0  # atno 8008 bound_to 7997
  154.8075  140.2862  155.5855 H   0  0  0  0  0  0  0  0  0  0  0  0  # atno 8009 bound_to 7997
  156.2968  140.2543  156.2956 H   0  0  0  0  0  0  0  0  0  0  0  0  # atno 8010 bound_to 7997
  139.6063  144.7070  151.2946 H   0  0  0  0  0  0  0  0  0  0  0  0  # atno 10167 bound_to 10162
  156.0030  130.4640  150.4136 H   0  0  0  0  0  0  0  0  0  0  0  0  # atno 10718 bound_to 10713
  153.1899  135.6840  153.8366 H   0  0  0  0  0  0  0  0  0  0  0  0  # atno 10763 bound_to 10752
  153.7669  135.3201  155.3347 H   0  0  0  0  0  0  0  0  0  0  0  0  # atno 10764 bound_to 10752
  154.8111  135.4717  154.0616 H   0  0  0  0  0  0  0  0  0  0  0  0  # atno 10765 bound_to 10752
  140.9580  133.7181  156.1324 H   0  0  0  0  0  0  0  0  0  0  0  0  # atno 11005 bound_to 11000
  144.7056  139.8574  143.7431 LP  0  0  0  0  0  0  0  0  0  0  0  0  # atno 17320 bound_to 7965
  146.1044  139.4043  143.0326 LP  0  0  0  0  0  0  0  0  0  0  0  0  # atno 17321 bound_to 7965
  140.7287  143.6928  150.7908 LP  0  0  0  0  0  0  0  0  0  0  0  0  # atno 17342 bound_to 10162
  140.0514  143.5246  152.2671 LP  0  0  0  0  0  0  0  0  0  0  0  0  # atno 17343 bound_to 10162
  157.2197  131.0479  151.2553 LP  0  0  0  0  0  0  0  0  0  0  0  0  # atno 17370 bound_to 10713
  157.3812  130.7232  149.6631 LP  0  0  0  0  0  0  0  0  0  0  0  0  # atno 17371 bound_to 10713
  140.7508  134.4047  157.5541 LP  0  0  0  0  0  0  0  0  0  0  0  0  # atno 17394 bound_to 11000
  139.8868  134.8898  156.2561 LP  0  0  0  0  0  0  0  0  0  0  0  0  # atno 17395 bound_to 11000

$$$$
