AV-unprocessed.smi:34|AV-procd|sdf|217|dock7
  -GOLD-   2262015533D 1   1.00000     0.00000
 Structure written by MMmdl.
 55 59  0  0  0  0  0  0  0  0  1 V2000
  152.4533  140.1467  156.9954 O   0  0  0  0  0  0  0  0  0  0  0  0
  151.6466  141.0751  157.0547 C   0  0  0  0  0  0  0  0  0  0  0  0
  150.4638  141.1254  156.2130 N   0  0  0  0  0  0  0  0  0  0  0  0
  150.0264  140.1974  155.3293 C   0  0  0  0  0  0  0  0  0  0  0  0
  150.8748  139.4612  154.5642 N   0  0  0  0  0  0  0  0  0  0  0  0
  150.3939  138.5596  153.7037 C   0  0  0  0  0  0  0  0  0  0  0  0
  149.1222  138.2419  153.4542 N   0  0  0  0  0  0  0  0  0  0  0  0
  148.2627  138.9738  154.2190 C   0  0  0  0  0  0  0  0  0  0  0  0
  148.6353  139.9621  155.1728 C   0  0  0  0  0  0  0  0  0  0  0  0
  147.4985  140.4982  155.7628 N   0  0  0  0  0  0  0  0  0  0  0  0
  146.5142  139.8601  155.1885 C   0  0  0  0  0  0  0  0  0  0  0  0
  146.8833  138.9303  154.2416 N   0  0  0  0  0  0  0  0  0  0  0  0
  145.9806  138.0586  153.4299 C   0  0  2  0  0  0  0  0  0  0  0  0
  145.5217  137.0211  154.2453 O   0  0  0  0  0  0  0  0  0  0  0  0
  145.5335  135.7817  153.5321 C   0  0  2  0  0  0  0  0  0  0  0  0
  146.5401  134.8267  154.1894 C   0  0  0  0  0  0  0  0  0  0  0  0
  146.3167  133.5067  153.7203 O   0  0  0  0  0  0  0  0  0  0  0  0
  147.1654  132.5175  154.0630 C   0  0  0  0  0  0  0  0  0  0  0  0
  147.9577  132.5940  155.0043 O   0  0  0  0  0  0  0  0  0  0  0  0
  147.0476  131.3197  153.1819 C   0  0  0  0  0  0  0  0  0  0  0  0
  146.0750  131.3081  152.1549 C   0  0  0  0  0  0  0  0  0  0  0  0
  145.9386  130.1905  151.3084 C   0  0  0  0  0  0  0  0  0  0  0  0
  146.7729  129.0705  151.4791 C   0  0  0  0  0  0  0  0  0  0  0  0
  147.7440  129.0694  152.4973 C   0  0  0  0  0  0  0  0  0  0  0  0
  147.8822  130.1863  153.3446 C   0  0  0  0  0  0  0  0  0  0  0  0
  145.8983  136.1448  152.0895 C   0  0  1  0  0  0  0  0  0  0  0  0
  144.7615  136.4071  151.4380 F   0  0  0  0  0  0  0  0  0  0  0  0
  146.7254  137.4071  152.2654 C   0  0  1  0  0  0  0  0  0  0  0  0
  146.7187  138.1776  151.0804 O   0  0  0  0  0  0  0  0  0  0  0  0
  151.8747  142.2618  157.9456 C   0  0  0  0  0  0  0  0  0  0  0  0
  151.2771  143.5041  157.6342 C   0  0  0  0  0  0  0  0  0  0  0  0
  151.5001  144.6282  158.4527 C   0  0  0  0  0  0  0  0  0  0  0  0
  152.3273  144.5218  159.5866 C   0  0  0  0  0  0  0  0  0  0  0  0
  152.9353  143.2912  159.8987 C   0  0  0  0  0  0  0  0  0  0  0  0
  152.7140  142.1665  159.0801 C   0  0  0  0  0  0  0  0  0  0  0  0
  149.8879  141.9489  156.3101 H   0  0  0  0  0  0  0  0  0  0  0  0
  151.1328  138.0164  153.1332 H   0  0  0  0  0  0  0  0  0  0  0  0
  145.4819  140.0554  155.4398 H   0  0  0  0  0  0  0  0  0  0  0  0
  145.1465  138.6907  153.1212 H   0  0  0  0  0  0  0  0  0  0  0  0
  144.5373  135.3399  153.5852 H   0  0  0  0  0  0  0  0  0  0  0  0
  147.5631  135.1330  153.9702 H   0  0  0  0  0  0  0  0  0  0  0  0
  146.4148  134.8441  155.2728 H   0  0  0  0  0  0  0  0  0  0  0  0
  145.4227  132.1564  152.0049 H   0  0  0  0  0  0  0  0  0  0  0  0
  145.1923  130.1931  150.5276 H   0  0  0  0  0  0  0  0  0  0  0  0
  146.6682  128.2136  150.8299 H   0  0  0  0  0  0  0  0  0  0  0  0
  148.3848  128.2101  152.6298 H   0  0  0  0  0  0  0  0  0  0  0  0
  148.6373  130.1521  154.1163 H   0  0  0  0  0  0  0  0  0  0  0  0
  146.4144  135.3515  151.5474 H   0  0  0  0  0  0  0  0  0  0  0  0
  147.7453  137.1562  152.5586 H   0  0  0  0  0  0  0  0  0  0  0  0
  145.8391  138.1873  150.7348 H   0  0  0  0  0  0  0  0  0  0  0  0
  150.6400  143.6029  156.7668 H   0  0  0  0  0  0  0  0  0  0  0  0
  151.0363  145.5728  158.2097 H   0  0  0  0  0  0  0  0  0  0  0  0
  152.4983  145.3840  160.2143 H   0  0  0  0  0  0  0  0  0  0  0  0
  153.5755  143.2108  160.7649 H   0  0  0  0  0  0  0  0  0  0  0  0
  153.1990  141.2348  159.3326 H   0  0  0  0  0  0  0  0  0  0  0  0
  1  2  2  0  0  0  0
  2  3  1  0  0  0  0
  2 30  1  0  0  0  0
  3  4  1  0  0  0  0
  3 36  1  0  0  0  0
  4  9  1  0  0  0  0
  4  5  2  0  0  0  0
  5  6  1  0  0  0  0
  6  7  2  0  0  0  0
  6 37  1  0  0  0  0
  7  8  1  0  0  0  0
  8 12  1  0  0  0  0
  8  9  2  0  0  0  0
  9 10  1  0  0  0  0
 10 11  2  0  0  0  0
 11 12  1  0  0  0  0
 11 38  1  0  0  0  0
 12 13  1  0  0  0  0
 13 28  1  0  0  0  0
 13 14  1  0  0  0  0
 13 39  1  0  0  0  0
 14 15  1  0  0  0  0
 15 16  1  0  0  0  0
 15 26  1  0  0  0  0
 15 40  1  0  0  0  0
 16 17  1  0  0  0  0
 16 41  1  0  0  0  0
 16 42  1  0  0  0  0
 17 18  1  0  0  0  0
 18 19  2  0  0  0  0
 18 20  1  0  0  0  0
 20 25  1  0  0  0  0
 20 21  2  0  0  0  0
 21 22  1  0  0  0  0
 21 43  1  0  0  0  0
 22 23  2  0  0  0  0
 22 44  1  0  0  0  0
 23 24  1  0  0  0  0
 23 45  1  0  0  0  0
 24 25  2  0  0  0  0
 24 46  1  0  0  0  0
 25 47  1  0  0  0  0
 26 27  1  0  0  0  0
 26 28  1  0  0  0  0
 26 48  1  0  0  0  0
 28 29  1  0  0  0  0
 28 49  1  0  0  0  0
 29 50  1  0  0  0  0
 30 35  1  0  0  0  0
 30 31  2  0  0  0  0
 31 32  1  0  0  0  0
 31 51  1  0  0  0  0
 32 33  2  0  0  0  0
 32 52  1  0  0  0  0
 33 34  1  0  0  0  0
 33 53  1  0  0  0  0
 34 35  2  0  0  0  0
 34 54  1  0  0  0  0
 35 55  1  0  0  0  0
M  END
> <s_m_source_file>
AV-unprocessed.smi

> <i_m_source_file_index>
34

> <i_lp_mmshare_version>
43012

> <i_f3d_flags>
0

> <s_epik_input>
W2NIXTFbY0hdW2NIXVtjSF1bY0hdYzFDKD1PKVtOSF1jKG5bY0hdbjIpYyhjMjMpbltjSF1uM1tDQEBIXTRPW0NASF0oW0NAQEhdKEYpW0NASF00W09IXSlbQ0gyXU9DKD1PKWM1W2NIXVtjSF1bY0hdW2NIXVtjSF01

> <s_epik_cmdline>
J2VwaWtfcHl0aG9uJywgJy1waCcsICc3LjAnLCAnLXRuJywgJzgnLCAnLW1hJywgJzIwMCcsICctbWV0YWxfYmluZGluZycsICctaW1hZScsICc8aW5maWxlLm1hZT4nLCAnLW9tYWUnLCAnPG91dGZpbGUubWFlPic=

> <r_lp_tautomer_probability>
1

> <r_epik_Ionization_Penalty>
0.00257489

> <r_epik_Ionization_Penalty_Charging>
0

> <r_epik_Ionization_Penalty_Neutral>
0.00257489

> <r_epik_State_Penalty>
0.00519398

> <r_epik_Charging_Adjusted_Penalty>
0.00519398

> <i_epik_Tot_Q>
0

> <i_epik_Tot_abs_Q>
0

> <r_epik_Metal_State_Penalty>
0.335891

> <b_epik_Metal_Only>
0

> <s_epik_Chemistry_Notes>
This compound has an ester and may undergo hydrolysis at high or low pH. This compound contains an acetal/aminal-like group ( X-CH(R)-Y where X, Y are N, S, or O) that may be acid/base labile, releasing an aldehyde.

> <s_lp_Force_Field>
OPLS_2005

> <r_lp_Energy>
51.1648

> <b_lp_Chiralities_Consistent>
1

> <s_lp_Variant>
AV-unprocessed.smi:34-3

> <Gold.Version>
5.8.1

> <Gold.Id.Protein>
6NUR|6NUR_protein|mol2

> <Gold.PLP.Fitness>
56.1666

> <Gold.PLP.PLP>
-45.0631

> <Gold.PLP.part.hbond>
-4.5379

> <Gold.PLP.part.metal>
0.0000

> <Gold.PLP.part.buried>
-2.4068

> <Gold.PLP.part.nonpolar>
-43.0988

> <Gold.PLP.part.repulsive>
4.5083

> <Gold.PLP.ligand.clash>
0.0000

> <Gold.PLP.ligand.torsion>
1.2525

> <Gold.PLP.Chemscore.Hbond>
3.7475

> <Gold.PLP.Chemscore.CHOScore>
0.7125

> <Gold.PLP.Chemscore.Metal>
0.0000

> <Gold.Chemscore.Hbonds>
donor molecule, donor type, donor heavy atom, donor atom, acceptor molecule, acceptor atom, score
      L1  H    29    50       P1 10171  0.59
      P1  H  7954  7966       L1    29  1.00
      P1  H  7989  7998       L1     5  1.00
      P1  H  7997  8010       L1     1  1.00
      L1  C     6    37       P1  7949  0.81

> <Gold.PLP.Chemscore.Internal.Correction>
0.2285

> <Gold.Rescore>
     Score         DG    S(hbond)    S(metal)    S(lipo)     H(rot)  DE(clash)    DE(int)     intcor
     14.27     -22.33       2.58        0.00     130.03       2.72       4.36       3.70       ----

> <Gold.Chemscore.Fitness>
14.2729

> <Gold.Chemscore.DG>
-22.3317

> <Gold.Chemscore.ZeroCoef>
-5.4800

> <Gold.Chemscore.Hbond>
2.5763

> <Gold.Chemscore.Metal>
0.0000

> <Gold.Chemscore.Lipo>
130.0330

> <Gold.Chemscore.Internal_Hbond>
0.0000

> <Gold.Chemscore.DEClash>
4.3586

> <Gold.Chemscore.DEInternal>
3.7002

> <Gold.Chemscore.Rot>
2.7215

> <Gold.Chemscore.Internal.Correction>
   9.000000E+99

> <Gold.Chemscore.Hbonds>
donor molecule, donor type, donor heavy atom, donor atom, acceptor molecule, acceptor atom, score
      L1  H    29    50       P1 10171  0.58
      P1  H  7954  7966       L1    29  0.89
      P1  H  7989  7998       L1     5  0.14
      P1  H  7997  8010       L1     1  0.97

> <Gold.Chemscore.Hbond.Weighted>
-8.6049

> <Gold.Chemscore.Metal.Weighted>
-0.0000

> <Gold.Chemscore.Lipo.Weighted>
-15.2139

> <Gold.Chemscore.Internal_Hbond.Weighted>
0.0000

> <Gold.Chemscore.DEClash.Weighted>
4.3586

> <Gold.Chemscore.DEInternal.Weighted>
3.7002

> <Gold.Chemscore.Rot.Weighted>
6.9670

> <Gold.Chemscore.Internal.Correction.Weighted>
   9.000000E+99

> <Gold.Protein.RotatedTorsions>
[ 6907 6896 6895 6894 ] final  106.35 input  -60.11 | X-H torsion
[ 7974 7965 7964 7962 ] final  -64.32 input  175.53 | X-H torsion
[ 8008 7997 7996 7995 ] final   63.45 input   59.86 | X-H torsion
[ 10167 10162 10161 10158 ] final -105.26 input  -65.29 | X-H torsion
[ 10718 10713 10712 10709 ] final  -16.86 input   66.30 | X-H torsion
[ 10763 10752 10751 10750 ] final   47.49 input  -60.55 | X-H torsion
[ 11005 11000 10999 10996 ] final   34.60 input  -57.11 | X-H torsion

> <Gold.Protein.ActiveResidues>
 VAL166  LYS551  ARG553  GLY616  TRP617  ASP618  TYR619  PRO620  LYS621  CYS622 
 ASP623  PHE694  ASN695  SER759  ASP760  ASP761  ALA762  ILE779  LEU786  VAL792 
 PHE793  MET794  SER795  GLU796  ALA797  LYS798  CYS799  TRP800  GLU811  SER814 

> <Gold.Protein.RotatedAtoms>
  152.5197  133.9395  159.7619 H   0  0  0  0  0  0  0  0  0  0  0  0  # atno 6907 bound_to 6896
  150.9728  133.6318  159.2742 H   0  0  0  0  0  0  0  0  0  0  0  0  # atno 6908 bound_to 6896
  151.3523  135.0892  159.9460 H   0  0  0  0  0  0  0  0  0  0  0  0  # atno 6909 bound_to 6896
  145.7682  140.8826  143.0394 H   0  0  0  0  0  0  0  0  0  0  0  0  # atno 7974 bound_to 7965
  155.6304  140.3496  155.4681 H   0  0  0  0  0  0  0  0  0  0  0  0  # atno 8008 bound_to 7997
  156.0008  140.1213  157.0573 H   0  0  0  0  0  0  0  0  0  0  0  0  # atno 8009 bound_to 7997
  154.4248  140.1101  156.5680 H   0  0  0  0  0  0  0  0  0  0  0  0  # atno 8010 bound_to 7997
  140.2004  143.3823  152.1134 H   0  0  0  0  0  0  0  0  0  0  0  0  # atno 10167 bound_to 10162
  156.5817  130.4776  149.6317 H   0  0  0  0  0  0  0  0  0  0  0  0  # atno 10718 bound_to 10713
  152.9799  135.5974  154.3771 H   0  0  0  0  0  0  0  0  0  0  0  0  # atno 10763 bound_to 10752
  154.3439  135.2767  155.2410 H   0  0  0  0  0  0  0  0  0  0  0  0  # atno 10764 bound_to 10752
  154.4479  135.5997  153.6227 H   0  0  0  0  0  0  0  0  0  0  0  0  # atno 10765 bound_to 10752
  140.2512  134.3301  155.7890 H   0  0  0  0  0  0  0  0  0  0  0  0  # atno 11005 bound_to 11000
  144.6817  139.9818  143.7483 LP  0  0  0  0  0  0  0  0  0  0  0  0  # atno 17320 bound_to 7965
  146.0196  139.3240  143.0820 LP  0  0  0  0  0  0  0  0  0  0  0  0  # atno 17321 bound_to 7965
  139.5219  144.7052  151.5374 LP  0  0  0  0  0  0  0  0  0  0  0  0  # atno 17342 bound_to 10162
  140.6394  143.8919  150.6678 LP  0  0  0  0  0  0  0  0  0  0  0  0  # atno 17343 bound_to 10162
  156.2626  130.6971  151.1744 LP  0  0  0  0  0  0  0  0  0  0  0  0  # atno 17370 bound_to 10713
  157.7325  131.0599  150.5626 LP  0  0  0  0  0  0  0  0  0  0  0  0  # atno 17371 bound_to 10713
  141.2201  133.7354  156.9040 LP  0  0  0  0  0  0  0  0  0  0  0  0  # atno 17394 bound_to 11000
  140.1556  134.9200  157.2649 LP  0  0  0  0  0  0  0  0  0  0  0  0  # atno 17395 bound_to 11000

$$$$
