AV-unprocessed.smi:2751|AV-procd|sdf|10601|dock6
  -GOLD-   2272015 53D 1   1.00000     0.00000
 Structure written by MMmdl.
 34 35  0  0  0  0  0  0  0  0  1 V2000
  153.3668  138.8048  157.7776 O   0  0  0  0  0  0  0  0  0  0  0  0
  152.4383  139.6165  157.8470 C   0  0  0  0  0  0  0  0  0  0  0  0
  152.3952  140.5507  158.8089 N   0  0  0  0  0  0  0  0  0  0  0  0
  153.3948  140.7367  159.8552 C   0  0  0  0  0  0  0  0  0  0  0  0
  153.0097  141.8783  160.8118 C   0  0  0  0  0  0  0  0  0  0  0  0
  152.9061  143.2395  160.1057 C   0  0  2  0  0  0  0  0  0  0  0  0
  152.0966  144.2576  160.9326 C   0  0  0  0  0  0  0  0  0  0  0  0
  151.9449  145.5773  160.1673 C   0  0  0  0  0  0  0  0  0  0  0  0
  151.3721  145.3029  158.7731 C   0  0  0  0  0  0  0  0  0  0  0  0
  152.2091  144.2335  158.0538 C   0  0  0  0  0  0  0  0  0  0  0  0
  152.2666  143.0501  158.8446 O   0  0  0  0  0  0  0  0  0  0  0  0
  151.3350  139.7400  157.0141 N   0  0  0  0  0  0  0  0  0  0  0  0
  151.2759  139.0649  155.9067 C   0  0  0  0  0  0  0  0  0  0  0  0
  152.1431  138.1621  155.2970 N   0  0  0  0  0  0  0  0  0  0  0  0
  151.5761  137.7523  154.1228 C   0  0  0  0  0  0  0  0  0  0  0  0
  150.4037  138.3664  153.9955 C   0  0  0  0  0  0  0  0  0  0  0  0
  150.1926  139.1751  155.0717 O   0  0  0  0  0  0  0  0  0  0  0  0
  151.6101  141.1861  158.8123 H   0  0  0  0  0  0  0  0  0  0  0  0
  153.5396  139.8060  160.4064 H   0  0  0  0  0  0  0  0  0  0  0  0
  154.3464  140.9600  159.3723 H   0  0  0  0  0  0  0  0  0  0  0  0
  152.0626  141.6464  161.3009 H   0  0  0  0  0  0  0  0  0  0  0  0
  153.7551  141.9475  161.6050 H   0  0  0  0  0  0  0  0  0  0  0  0
  153.9134  143.6275  159.9428 H   0  0  0  0  0  0  0  0  0  0  0  0
  151.1092  143.8503  161.1542 H   0  0  0  0  0  0  0  0  0  0  0  0
  152.5822  144.4388  161.8919 H   0  0  0  0  0  0  0  0  0  0  0  0
  151.3002  146.2642  160.7159 H   0  0  0  0  0  0  0  0  0  0  0  0
  152.9174  146.0629  160.0763 H   0  0  0  0  0  0  0  0  0  0  0  0
  150.3409  144.9589  158.8620 H   0  0  0  0  0  0  0  0  0  0  0  0
  151.3470  146.2220  158.1870 H   0  0  0  0  0  0  0  0  0  0  0  0
  151.7600  143.9915  157.0903 H   0  0  0  0  0  0  0  0  0  0  0  0
  153.2175  144.5984  157.8520 H   0  0  0  0  0  0  0  0  0  0  0  0
  153.0416  137.8393  155.6265 H   0  0  0  0  0  0  0  0  0  0  0  0
  152.0872  137.0454  153.4859 H   0  0  0  0  0  0  0  0  0  0  0  0
  149.6391  138.3365  153.2334 H   0  0  0  0  0  0  0  0  0  0  0  0
  1  2  2  0  0  0  0
  2 12  1  0  0  0  0
  2  3  1  0  0  0  0
  3  4  1  0  0  0  0
  3 18  1  0  0  0  0
  4  5  1  0  0  0  0
  4 19  1  0  0  0  0
  4 20  1  0  0  0  0
  5  6  1  0  0  0  0
  5 21  1  0  0  0  0
  5 22  1  0  0  0  0
  6 11  1  0  0  0  0
  6  7  1  0  0  0  0
  6 23  1  0  0  0  0
  7  8  1  0  0  0  0
  7 24  1  0  0  0  0
  7 25  1  0  0  0  0
  8  9  1  0  0  0  0
  8 26  1  0  0  0  0
  8 27  1  0  0  0  0
  9 10  1  0  0  0  0
  9 28  1  0  0  0  0
  9 29  1  0  0  0  0
 10 11  1  0  0  0  0
 10 30  1  0  0  0  0
 10 31  1  0  0  0  0
 12 13  2  0  0  0  0
 13 17  1  0  0  0  0
 13 14  1  0  0  0  0
 14 32  1  0  0  0  0
 14 15  1  0  0  0  0
 15 33  1  0  0  0  0
 15 16  2  0  0  0  0
 16 34  1  0  0  0  0
 16 17  1  0  0  0  0
M  END
> <s_m_source_file>
AV-unprocessed.smi

> <i_m_source_file_index>
2751

> <i_lp_mmshare_version>
43012

> <i_f3d_flags>
0

> <s_epik_input>
bzFbY0hdW2NIXW5jMVtOSF1DKD1PKVtOSF1bQ0gyXVtDSDJdW0NAQEhdMltDSDJdW0NIMl1bQ0gyXVtDSDJdTzI=

> <s_epik_cmdline>
J2VwaWtfcHl0aG9uJywgJy1waCcsICc3LjAnLCAnLXRuJywgJzgnLCAnLW1hJywgJzIwMCcsICctbWV0YWxfYmluZGluZycsICctaW1hZScsICc8aW5maWxlLm1hZT4nLCAnLW9tYWUnLCAnPG91dGZpbGUubWFlPic=

> <r_lp_tautomer_probability>
0.107061

> <r_epik_Ionization_Penalty>
1.421

> <r_epik_Ionization_Penalty_Charging>
1.42064

> <r_epik_Ionization_Penalty_Neutral>
0.0003614

> <r_epik_State_Penalty>
2.61489

> <r_epik_Charging_Adjusted_Penalty>
4.03553

> <i_epik_Tot_Q>
0

> <i_epik_Tot_abs_Q>
0

> <r_epik_Metal_State_Penalty>
3.57288

> <b_epik_Metal_Only>
0

> <s_lp_Force_Field>
OPLS_2005

> <r_lp_Energy>
32.5826

> <b_lp_Chiralities_Consistent>
1

> <s_lp_Variant>
AV-unprocessed.smi:2751-7

> <Gold.Version>
5.8.1

> <Gold.Id.Protein>
6NUR|6NUR_protein|mol2

> <Gold.PLP.Fitness>
48.5474

> <Gold.PLP.PLP>
-38.9364

> <Gold.PLP.part.hbond>
-1.0000

> <Gold.PLP.part.metal>
0.0000

> <Gold.PLP.part.buried>
-5.0386

> <Gold.PLP.part.nonpolar>
-33.0846

> <Gold.PLP.part.repulsive>
0.3685

> <Gold.PLP.ligand.clash>
0.0000

> <Gold.PLP.ligand.torsion>
0.1918

> <Gold.PLP.Chemscore.Hbond>
1.0000

> <Gold.PLP.Chemscore.CHOScore>
2.3260

> <Gold.PLP.Chemscore.Metal>
0.0000

> <Gold.Chemscore.Hbonds>
donor molecule, donor type, donor heavy atom, donor atom, acceptor molecule, acceptor atom, score
      P1  H  7997  8010       L1     1  0.95
      L1  C    15    33       P1  7949  0.93
      L1  C    16    34       P1  7948  0.83
      L1  C    16    34       P1  7957  0.56

> <Gold.PLP.Chemscore.Internal.Correction>
0.0166

> <Gold.Rescore>
     Score         DG    S(hbond)    S(metal)    S(lipo)     H(rot)  DE(clash)    DE(int)     intcor
     13.72     -15.64       0.84        0.00      98.50       1.63       0.13       1.79       ----

> <Gold.Chemscore.Fitness>
13.7192

> <Gold.Chemscore.DG>
-15.6434

> <Gold.Chemscore.ZeroCoef>
-5.4800

> <Gold.Chemscore.Hbond>
0.8441

> <Gold.Chemscore.Metal>
0.0000

> <Gold.Chemscore.Lipo>
98.4972

> <Gold.Chemscore.Internal_Hbond>
0.0000

> <Gold.Chemscore.DEClash>
0.1296

> <Gold.Chemscore.DEInternal>
1.7947

> <Gold.Chemscore.Rot>
1.6328

> <Gold.Chemscore.Internal.Correction>
   9.000000E+99

> <Gold.Chemscore.Hbonds>
donor molecule, donor type, donor heavy atom, donor atom, acceptor molecule, acceptor atom, score
      P1  H  7997  8010       L1     1  0.20

> <Gold.Chemscore.Hbond.Weighted>
-2.8192

> <Gold.Chemscore.Metal.Weighted>
-0.0000

> <Gold.Chemscore.Lipo.Weighted>
-11.5242

> <Gold.Chemscore.Internal_Hbond.Weighted>
0.0000

> <Gold.Chemscore.DEClash.Weighted>
0.1296

> <Gold.Chemscore.DEInternal.Weighted>
1.7947

> <Gold.Chemscore.Rot.Weighted>
4.1799

> <Gold.Chemscore.Internal.Correction.Weighted>
   9.000000E+99

> <Gold.Protein.RotatedTorsions>
[ 6907 6896 6895 6894 ] final  -55.97 input  -60.11 | X-H torsion
[ 7974 7965 7964 7962 ] final  -47.00 input  175.53 | X-H torsion
[ 8008 7997 7996 7995 ] final   18.60 input   59.86 | X-H torsion
[ 10167 10162 10161 10158 ] final -102.65 input  -65.29 | X-H torsion
[ 10718 10713 10712 10709 ] final   74.80 input   66.30 | X-H torsion
[ 10763 10752 10751 10750 ] final  -13.57 input  -60.55 | X-H torsion
[ 11005 11000 10999 10996 ] final   22.82 input  -57.11 | X-H torsion

> <Gold.Protein.ActiveResidues>
 VAL166  LYS551  ARG553  GLY616  TRP617  ASP618  TYR619  PRO620  LYS621  CYS622 
 ASP623  PHE694  ASN695  SER759  ASP760  ASP761  ALA762  ILE779  LEU786  VAL792 
 PHE793  MET794  SER795  GLU796  ALA797  LYS798  CYS799  TRP800  GLU811  SER814 

> <Gold.Protein.RotatedAtoms>
  150.8207  134.7413  159.6769 H   0  0  0  0  0  0  0  0  0  0  0  0  # atno 6907 bound_to 6896
  152.4323  134.5751  159.9942 H   0  0  0  0  0  0  0  0  0  0  0  0  # atno 6908 bound_to 6896
  151.5936  133.3326  159.3069 H   0  0  0  0  0  0  0  0  0  0  0  0  # atno 6909 bound_to 6896
  145.9661  140.7431  142.9433 H   0  0  0  0  0  0  0  0  0  0  0  0  # atno 7974 bound_to 7965
  154.9085  140.3010  155.5279 H   0  0  0  0  0  0  0  0  0  0  0  0  # atno 8008 bound_to 7997
  156.3016  140.2393  156.4056 H   0  0  0  0  0  0  0  0  0  0  0  0  # atno 8009 bound_to 7997
  154.8450  140.0412  157.1555 H   0  0  0  0  0  0  0  0  0  0  0  0  # atno 8010 bound_to 7997
  140.2284  143.3624  152.0908 H   0  0  0  0  0  0  0  0  0  0  0  0  # atno 10167 bound_to 10162
  157.6608  130.9695  150.1263 H   0  0  0  0  0  0  0  0  0  0  0  0  # atno 10718 bound_to 10713
  153.5152  135.7016  153.5760 H   0  0  0  0  0  0  0  0  0  0  0  0  # atno 10763 bound_to 10752
  153.3833  135.3914  155.1872 H   0  0  0  0  0  0  0  0  0  0  0  0  # atno 10764 bound_to 10752
  154.8699  135.3840  154.4636 H   0  0  0  0  0  0  0  0  0  0  0  0  # atno 10765 bound_to 10752
  140.3764  134.1968  155.7665 H   0  0  0  0  0  0  0  0  0  0  0  0  # atno 11005 bound_to 11000
  144.6826  140.2671  143.7311 LP  0  0  0  0  0  0  0  0  0  0  0  0  # atno 17320 bound_to 7965
  145.7972  139.1950  143.2069 LP  0  0  0  0  0  0  0  0  0  0  0  0  # atno 17321 bound_to 7965
  139.5118  144.6907  151.5766 LP  0  0  0  0  0  0  0  0  0  0  0  0  # atno 17342 bound_to 10162
  140.6203  143.9271  150.6521 LP  0  0  0  0  0  0  0  0  0  0  0  0  # atno 17343 bound_to 10162
  156.2121  130.3667  149.8657 LP  0  0  0  0  0  0  0  0  0  0  0  0  # atno 17370 bound_to 10713
  156.6533  130.8752  151.3535 LP  0  0  0  0  0  0  0  0  0  0  0  0  # atno 17371 bound_to 10713
  141.1938  133.8143  157.0784 LP  0  0  0  0  0  0  0  0  0  0  0  0  # atno 17394 bound_to 11000
  140.0512  134.9804  157.1140 LP  0  0  0  0  0  0  0  0  0  0  0  0  # atno 17395 bound_to 11000

$$$$
