AV-unprocessed.smi:2061|AV-procd|sdf|8380|dock9
  -GOLD-   2272011 63D 1   1.00000     0.00000
 Structure written by MMmdl.
 45 46  0  0  0  0  0  0  0  0  3 V2000
  137.4678  137.1964  154.6306 C   0  0  0  0  0  0  0  0  0  0  0  0
  138.9256  137.2077  154.3197 C   0  0  0  0  0  0  0  0  0  0  0  0
  139.7278  138.0999  153.6665 C   0  0  0  0  0  0  0  0  0  0  0  0
  141.0122  137.4947  153.7382 C   0  0  0  0  0  0  0  0  0  0  0  0
  142.1471  137.9941  153.2244 N   0  5  0  0  0  0  0  0  0  0  0  0
  143.2240  137.1948  153.0501 C   0  0  0  0  0  0  0  0  0  0  0  0
  143.2501  135.9665  153.1580 O   0  0  0  0  0  0  0  0  0  0  0  0
  144.3452  137.8610  152.7395 N   0  0  0  0  0  0  0  0  0  0  0  0
  145.6593  137.2617  152.5241 C   0  0  0  0  0  0  0  0  0  0  0  0
  146.1213  136.3666  153.7065 C   0  0  2  0  0  0  0  0  0  0  0  0
  146.9256  137.2101  154.7263 C   0  0  0  0  0  0  0  0  0  0  0  0
  146.8738  135.1707  153.2025 N   0  3  1  0  0  0  0  0  0  0  0  0
  147.4785  134.3113  154.2581 C   0  0  0  0  0  0  0  0  0  0  0  0
  148.2529  133.1286  153.6450 C   0  0  1  0  0  0  0  0  0  0  0  0
  148.8031  132.1820  154.7179 C   0  0  0  0  0  0  0  0  0  0  0  0
  147.3867  132.3809  152.8027 O   0  0  0  0  0  0  0  0  0  0  0  0
  146.8908  133.1573  151.7211 C   0  0  1  0  0  0  0  0  0  0  0  0
  146.0593  132.2386  150.8186 C   0  0  0  0  0  0  0  0  0  0  0  0
  146.0608  134.3246  152.2861 C   0  0  0  0  0  0  0  0  0  0  0  0
  140.9881  136.3286  154.3618 N   0  0  0  0  0  0  0  0  0  0  0  0
  139.6545  136.1404  154.7443 O   0  0  0  0  0  0  0  0  0  0  0  0
  136.8879  136.9296  153.7472 H   0  0  0  0  0  0  0  0  0  0  0  0
  137.1377  138.1786  154.9690 H   0  0  0  0  0  0  0  0  0  0  0  0
  137.2394  136.4756  155.4161 H   0  0  0  0  0  0  0  0  0  0  0  0
  139.4434  139.0382  153.2142 H   0  0  0  0  0  0  0  0  0  0  0  0
  144.2789  138.8650  152.6553 H   0  0  0  0  0  0  0  0  0  0  0  0
  145.6202  136.7177  151.5817 H   0  0  0  0  0  0  0  0  0  0  0  0
  146.3737  138.0716  152.3745 H   0  0  0  0  0  0  0  0  0  0  0  0
  145.2409  135.9948  154.2329 H   0  0  0  0  0  0  0  0  0  0  0  0
  146.3747  138.0944  155.0456 H   0  0  0  0  0  0  0  0  0  0  0  0
  147.8716  137.5508  154.3040 H   0  0  0  0  0  0  0  0  0  0  0  0
  147.1369  136.6555  155.6403 H   0  0  0  0  0  0  0  0  0  0  0  0
  148.1838  134.8804  154.8627 H   0  0  0  0  0  0  0  0  0  0  0  0
  146.6933  133.9478  154.9233 H   0  0  0  0  0  0  0  0  0  0  0  0
  149.0903  133.5050  153.0545 H   0  0  0  0  0  0  0  0  0  0  0  0
  149.4886  132.7023  155.3872 H   0  0  0  0  0  0  0  0  0  0  0  0
  149.3472  131.3532  154.2641 H   0  0  0  0  0  0  0  0  0  0  0  0
  147.9997  131.7606  155.3231 H   0  0  0  0  0  0  0  0  0  0  0  0
  147.7286  133.5467  151.1397 H   0  0  0  0  0  0  0  0  0  0  0  0
  145.6623  132.7833  149.9617 H   0  0  0  0  0  0  0  0  0  0  0  0
  145.2172  131.8083  151.3614 H   0  0  0  0  0  0  0  0  0  0  0  0
  146.6643  131.4159  150.4368 H   0  0  0  0  0  0  0  0  0  0  0  0
  145.1932  133.9392  152.8245 H   0  0  0  0  0  0  0  0  0  0  0  0
  145.6776  134.9052  151.4497 H   0  0  0  0  0  0  0  0  0  0  0  0
  147.6469  135.5319  152.6624 H   0  0  0  0  0  0  0  0  0  0  0  0
  1  2  1  0  0  0  0
  1 22  1  0  0  0  0
  1 23  1  0  0  0  0
  1 24  1  0  0  0  0
  2 21  1  0  0  0  0
  2  3  2  0  0  0  0
  3  4  1  0  0  0  0
  3 25  1  0  0  0  0
  4  5  1  0  0  0  0
  4 20  2  0  0  0  0
  5  6  1  0  0  0  0
  6  7  2  0  0  0  0
  6  8  1  0  0  0  0
  8  9  1  0  0  0  0
  8 26  1  0  0  0  0
  9 10  1  0  0  0  0
  9 27  1  0  0  0  0
  9 28  1  0  0  0  0
 10 11  1  0  0  0  0
 10 12  1  0  0  0  0
 10 29  1  0  0  0  0
 11 30  1  0  0  0  0
 11 31  1  0  0  0  0
 11 32  1  0  0  0  0
 12 19  1  0  0  0  0
 12 13  1  0  0  0  0
 12 45  1  0  0  0  0
 13 14  1  0  0  0  0
 13 33  1  0  0  0  0
 13 34  1  0  0  0  0
 14 15  1  0  0  0  0
 14 16  1  0  0  0  0
 14 35  1  0  0  0  0
 15 36  1  0  0  0  0
 15 37  1  0  0  0  0
 15 38  1  0  0  0  0
 16 17  1  0  0  0  0
 17 18  1  0  0  0  0
 17 19  1  0  0  0  0
 17 39  1  0  0  0  0
 18 40  1  0  0  0  0
 18 41  1  0  0  0  0
 18 42  1  0  0  0  0
 19 43  1  0  0  0  0
 19 44  1  0  0  0  0
 20 21  1  0  0  0  0
M  CHG  1   5  -1
M  CHG  1  12   1
M  END
> <s_m_source_file>
AV-unprocessed.smi

> <i_m_source_file_index>
2061

> <i_lp_mmshare_version>
43012

> <i_f3d_flags>
0

> <s_epik_input>
W0NIM11jMVtjSF1jKG5vMSlbTkhdQyg9TylbTkhdW0NIMl1bQ0BIXShbQ0gzXSlOMltDSDJdW0NAQEhdKFtDSDNdKU9bQ0BASF0oW0NIM10pW0NIMl0y

> <s_epik_cmdline>
J2VwaWtfcHl0aG9uJywgJy1waCcsICc3LjAnLCAnLXRuJywgJzgnLCAnLW1hJywgJzIwMCcsICctbWV0YWxfYmluZGluZycsICctaW1hZScsICc8aW5maWxlLm1hZT4nLCAnLW9tYWUnLCAnPG91dGZpbGUubWFlPic=

> <r_epik_Ionization_Penalty>
6.73511

> <r_epik_Ionization_Penalty_Charging>
6.73502

> <r_epik_Ionization_Penalty_Neutral>
9.50841e-05

> <r_epik_State_Penalty>
6.93549

> <r_epik_Charging_Adjusted_Penalty>
13.6705

> <i_epik_Tot_Q>
0

> <i_epik_Tot_abs_Q>
2

> <r_epik_Metal_State_Penalty>
2.87211

> <b_epik_Metal_Only>
1

> <s_lp_Force_Field>
OPLS_2005

> <r_lp_Energy>
7.84015

> <b_lp_Chiralities_Consistent>
1

> <s_lp_Variant>
AV-unprocessed.smi:2061-21

> <Gold.Version>
5.8.1

> <Gold.Id.Protein>
6NUR|6NUR_protein|mol2

> <Gold.PLP.Fitness>
45.5644

> <Gold.PLP.PLP>
-34.6387

> <Gold.PLP.part.hbond>
-4.1785

> <Gold.PLP.part.metal>
0.0000

> <Gold.PLP.part.buried>
-6.6771

> <Gold.PLP.part.nonpolar>
-25.4950

> <Gold.PLP.part.repulsive>
2.2954

> <Gold.PLP.ligand.clash>
0.0000

> <Gold.PLP.ligand.torsion>
0.5848

> <Gold.PLP.Chemscore.Hbond>
4.0000

> <Gold.PLP.Chemscore.CHOScore>
0.0000

> <Gold.PLP.Chemscore.Metal>
0.0000

> <Gold.Chemscore.Hbonds>
donor molecule, donor type, donor heavy atom, donor atom, acceptor molecule, acceptor atom, score
      L1  H     8    26       P1 10175  1.00
      L1  H    12    45       P1  7948  2.00
      P1  H 11000 11005       L1    21  0.95

> <Gold.PLP.Chemscore.Internal.Correction>
0.0954

> <Gold.Rescore>
     Score         DG    S(hbond)    S(metal)    S(lipo)     H(rot)  DE(clash)    DE(int)     intcor
     16.11     -18.52       2.67        0.00      69.11       1.56       0.12       2.28       ----

> <Gold.Chemscore.Fitness>
16.1116

> <Gold.Chemscore.DG>
-18.5174

> <Gold.Chemscore.ZeroCoef>
-5.4800

> <Gold.Chemscore.Hbond>
2.6743

> <Gold.Chemscore.Metal>
0.0000

> <Gold.Chemscore.Lipo>
69.1104

> <Gold.Chemscore.Internal_Hbond>
0.0000

> <Gold.Chemscore.DEClash>
0.1223

> <Gold.Chemscore.DEInternal>
2.2835

> <Gold.Chemscore.Rot>
1.5550

> <Gold.Chemscore.Internal.Correction>
   9.000000E+99

> <Gold.Chemscore.Hbonds>
donor molecule, donor type, donor heavy atom, donor atom, acceptor molecule, acceptor atom, score
      L1  H     8    26       P1 10175  1.00
      L1  H    12    45       P1  7948  1.00
      P1  H 11000 11005       L1    21  0.21

> <Gold.Chemscore.Hbond.Weighted>
-8.9323

> <Gold.Chemscore.Metal.Weighted>
-0.0000

> <Gold.Chemscore.Lipo.Weighted>
-8.0859

> <Gold.Chemscore.Internal_Hbond.Weighted>
0.0000

> <Gold.Chemscore.DEClash.Weighted>
0.1223

> <Gold.Chemscore.DEInternal.Weighted>
2.2835

> <Gold.Chemscore.Rot.Weighted>
3.9809

> <Gold.Chemscore.Internal.Correction.Weighted>
   9.000000E+99

> <Gold.Protein.RotatedTorsions>
[ 6907 6896 6895 6894 ] final  -95.49 input  -60.11 | X-H torsion
[ 7974 7965 7964 7962 ] final   91.91 input  175.53 | X-H torsion
[ 8008 7997 7996 7995 ] final  148.00 input   59.86 | X-H torsion
[ 10167 10162 10161 10158 ] final  147.13 input  -65.29 | X-H torsion
[ 10718 10713 10712 10709 ] final   10.04 input   66.30 | X-H torsion
[ 10763 10752 10751 10750 ] final -147.64 input  -60.55 | X-H torsion
[ 11005 11000 10999 10996 ] final   78.11 input  -57.11 | X-H torsion

> <Gold.Protein.ActiveResidues>
 VAL166  LYS551  ARG553  GLY616  TRP617  ASP618  TYR619  PRO620  LYS621  CYS622 
 ASP623  PHE694  ASN695  SER759  ASP760  ASP761  ALA762  ILE779  LEU786  VAL792 
 PHE793  MET794  SER795  GLU796  ALA797  LYS798  CYS799  TRP800  GLU811  SER814 

> <Gold.Protein.RotatedAtoms>
  150.6965  134.1649  159.4189 H   0  0  0  0  0  0  0  0  0  0  0  0  # atno 6907 bound_to 6896
  151.9628  135.0112  160.0558 H   0  0  0  0  0  0  0  0  0  0  0  0  # atno 6908 bound_to 6896
  152.1911  133.4739  159.5045 H   0  0  0  0  0  0  0  0  0  0  0  0  # atno 6909 bound_to 6896
  145.4994  139.2276  143.2786 H   0  0  0  0  0  0  0  0  0  0  0  0  # atno 7974 bound_to 7965
  156.2806  140.2140  156.5627 H   0  0  0  0  0  0  0  0  0  0  0  0  # atno 8008 bound_to 7997
  154.7199  140.0504  157.0653 H   0  0  0  0  0  0  0  0  0  0  0  0  # atno 8009 bound_to 7997
  155.0492  140.3154  155.4701 H   0  0  0  0  0  0  0  0  0  0  0  0  # atno 8010 bound_to 7997
  139.4895  144.5778  151.6931 H   0  0  0  0  0  0  0  0  0  0  0  0  # atno 10167 bound_to 10162
  156.9751  130.5984  149.5672 H   0  0  0  0  0  0  0  0  0  0  0  0  # atno 10718 bound_to 10713
  154.8275  135.3355  154.6849 H   0  0  0  0  0  0  0  0  0  0  0  0  # atno 10763 bound_to 10752
  153.7473  135.6941  153.4958 H   0  0  0  0  0  0  0  0  0  0  0  0  # atno 10764 bound_to 10752
  153.2201  135.4452  155.0430 H   0  0  0  0  0  0  0  0  0  0  0  0  # atno 10765 bound_to 10752
  139.9226  134.7737  156.1608 H   0  0  0  0  0  0  0  0  0  0  0  0  # atno 11005 bound_to 11000
  146.2235  140.5793  142.9006 LP  0  0  0  0  0  0  0  0  0  0  0  0  # atno 17320 bound_to 7965
  144.7789  140.5798  143.6619 LP  0  0  0  0  0  0  0  0  0  0  0  0  # atno 17321 bound_to 7965
  140.5378  144.0628  150.6077 LP  0  0  0  0  0  0  0  0  0  0  0  0  # atno 17342 bound_to 10162
  140.3640  143.2892  152.0352 LP  0  0  0  0  0  0  0  0  0  0  0  0  # atno 17343 bound_to 10162
  156.0267  130.5360  150.8425 LP  0  0  0  0  0  0  0  0  0  0  0  0  # atno 17370 bound_to 10713
  157.5565  131.0945  150.9621 LP  0  0  0  0  0  0  0  0  0  0  0  0  # atno 17371 bound_to 10713
  141.0759  133.6775  156.2236 LP  0  0  0  0  0  0  0  0  0  0  0  0  # atno 17394 bound_to 11000
  140.6429  134.5147  157.5571 LP  0  0  0  0  0  0  0  0  0  0  0  0  # atno 17395 bound_to 11000

$$$$
