AV-unprocessed.smi:1180|AV-procd|sdf|4963|dock7
  -GOLD-   22720 3553D 1   1.00000     0.00000
 Structure written by MMmdl.
 38 39  0  0  0  0  0  0  0  0  1 V2000
  150.8136  142.7950  157.6189 C   0  0  0  0  0  0  0  0  0  0  0  0
  150.9395  141.5526  156.7638 C   0  0  0  0  0  0  0  0  0  0  0  0
  149.8595  141.3459  155.9219 N   0  0  0  0  0  0  0  0  0  0  0  0
  149.8873  140.2402  155.0904 C   0  0  0  0  0  0  0  0  0  0  0  0
  148.6696  140.1002  154.1936 C   0  0  0  0  0  0  0  0  0  0  0  0
  150.9373  139.3795  155.1020 C   0  0  0  0  0  0  0  0  0  0  0  0
  151.0185  138.1478  154.2028 C   0  0  0  0  0  0  0  0  0  0  0  0
  151.0154  136.8051  154.9340 C   0  0  0  0  0  0  0  0  0  0  0  0
  151.7813  136.6143  155.8779 O   0  0  0  0  0  0  0  0  0  0  0  0
  150.1488  135.8849  154.4837 N   0  0  0  0  0  0  0  0  0  0  0  0
  149.9846  134.5377  155.0199 C   0  0  0  0  0  0  0  0  0  0  0  0
  148.9271  133.7331  154.2409 C   0  0  1  0  0  0  0  0  0  0  0  0
  149.3286  132.2975  153.9707 C   0  0  0  0  0  0  0  0  0  0  0  0
  147.9881  131.6515  153.6329 C   0  0  0  0  0  0  0  0  0  0  0  0
  147.0095  132.3702  154.3782 O   0  0  0  0  0  0  0  0  0  0  0  0
  147.5967  133.5264  154.9674 C   0  0  0  0  0  0  0  0  0  0  0  0
  152.0573  139.6456  156.0358 C   0  0  0  0  0  0  0  0  0  0  0  0
  153.0266  138.8910  156.1078 O   0  0  0  0  0  0  0  0  0  0  0  0
  151.9846  140.7871  156.8504 N   0  0  0  0  0  0  0  0  0  0  0  0
  149.0616  141.9634  155.8781 H   0  0  0  0  0  0  0  0  0  0  0  0
  151.6878  142.9184  158.2594 H   0  0  0  0  0  0  0  0  0  0  0  0
  149.9312  142.7303  158.2561 H   0  0  0  0  0  0  0  0  0  0  0  0
  150.7235  143.6818  156.9904 H   0  0  0  0  0  0  0  0  0  0  0  0
  148.1605  139.1556  154.3835 H   0  0  0  0  0  0  0  0  0  0  0  0
  148.9621  140.1313  153.1440 H   0  0  0  0  0  0  0  0  0  0  0  0
  147.9522  140.9043  154.3626 H   0  0  0  0  0  0  0  0  0  0  0  0
  151.8964  138.2108  153.5578 H   0  0  0  0  0  0  0  0  0  0  0  0
  150.1759  138.1503  153.5117 H   0  0  0  0  0  0  0  0  0  0  0  0
  149.5609  136.1359  153.7020 H   0  0  0  0  0  0  0  0  0  0  0  0
  150.9495  134.0360  154.9440 H   0  0  0  0  0  0  0  0  0  0  0  0
  149.7415  134.5689  156.0835 H   0  0  0  0  0  0  0  0  0  0  0  0
  148.7322  134.2217  153.2845 H   0  0  0  0  0  0  0  0  0  0  0  0
  150.0601  132.1995  153.1681 H   0  0  0  0  0  0  0  0  0  0  0  0
  149.7456  131.8421  154.8700 H   0  0  0  0  0  0  0  0  0  0  0  0
  147.7669  131.7668  152.5711 H   0  0  0  0  0  0  0  0  0  0  0  0
  147.9680  130.5874  153.8694 H   0  0  0  0  0  0  0  0  0  0  0  0
  147.7623  133.3241  156.0264 H   0  0  0  0  0  0  0  0  0  0  0  0
  146.9368  134.3906  154.8875 H   0  0  0  0  0  0  0  0  0  0  0  0
  1 21  1  0  0  0  0
  1 22  1  0  0  0  0
  1 23  1  0  0  0  0
  1  2  1  0  0  0  0
  2  3  1  0  0  0  0
  2 19  2  0  0  0  0
  3  4  1  0  0  0  0
  3 20  1  0  0  0  0
  4  6  2  0  0  0  0
  4  5  1  0  0  0  0
  5 24  1  0  0  0  0
  5 25  1  0  0  0  0
  5 26  1  0  0  0  0
  6 17  1  0  0  0  0
  6  7  1  0  0  0  0
  7  8  1  0  0  0  0
  7 27  1  0  0  0  0
  7 28  1  0  0  0  0
  8  9  2  0  0  0  0
  8 10  1  0  0  0  0
 10 11  1  0  0  0  0
 10 29  1  0  0  0  0
 11 12  1  0  0  0  0
 11 30  1  0  0  0  0
 11 31  1  0  0  0  0
 12 16  1  0  0  0  0
 12 13  1  0  0  0  0
 12 32  1  0  0  0  0
 13 14  1  0  0  0  0
 13 33  1  0  0  0  0
 13 34  1  0  0  0  0
 14 15  1  0  0  0  0
 14 35  1  0  0  0  0
 14 36  1  0  0  0  0
 15 16  1  0  0  0  0
 16 37  1  0  0  0  0
 16 38  1  0  0  0  0
 17 18  2  0  0  0  0
 17 19  1  0  0  0  0
M  END
> <s_m_source_file>
AV-unprocessed.smi

> <i_m_source_file_index>
1180

> <i_lp_mmshare_version>
43012

> <i_f3d_flags>
0

> <s_epik_input>
W0NIM11jMW5jKFtDSDNdKWMoYyg9TylbbkhdMSlbQ0gyXUMoPU8pW05IXVtDSDJdW0NAQEhdMltDSDJdW0NIMl1PW0NIMl0y

> <s_epik_cmdline>
J2VwaWtfcHl0aG9uJywgJy1waCcsICc3LjAnLCAnLXRuJywgJzgnLCAnLW1hJywgJzIwMCcsICctbWV0YWxfYmluZGluZycsICctaW1hZScsICc8aW5maWxlLm1hZT4nLCAnLW9tYWUnLCAnPG91dGZpbGUubWFlPic=

> <r_lp_tautomer_probability>
0.156392

> <r_epik_Ionization_Penalty>
0.014237

> <r_epik_Ionization_Penalty_Charging>
0.0141173

> <r_epik_Ionization_Penalty_Neutral>
0.000119724

> <r_epik_State_Penalty>
1.52876

> <r_epik_Charging_Adjusted_Penalty>
1.54288

> <i_epik_Tot_Q>
0

> <i_epik_Tot_abs_Q>
0

> <r_epik_Metal_State_Penalty>
1.70686

> <b_epik_Metal_Only>
0

> <s_lp_Force_Field>
OPLS_2005

> <r_lp_Energy>
23.3722

> <b_lp_Chiralities_Consistent>
1

> <s_lp_Variant>
AV-unprocessed.smi:1180-4

> <Gold.Version>
5.8.1

> <Gold.Id.Protein>
6NUR|6NUR_protein|mol2

> <Gold.PLP.Fitness>
40.9529

> <Gold.PLP.PLP>
-33.4505

> <Gold.PLP.part.hbond>
-4.1865

> <Gold.PLP.part.metal>
0.0000

> <Gold.PLP.part.buried>
-0.1238

> <Gold.PLP.part.nonpolar>
-28.9623

> <Gold.PLP.part.repulsive>
0.2722

> <Gold.PLP.ligand.clash>
0.0000

> <Gold.PLP.ligand.torsion>
0.7545

> <Gold.PLP.Chemscore.Hbond>
3.0000

> <Gold.PLP.Chemscore.CHOScore>
0.0000

> <Gold.PLP.Chemscore.Metal>
0.0000

> <Gold.Chemscore.Hbonds>
donor molecule, donor type, donor heavy atom, donor atom, acceptor molecule, acceptor atom, score
      L1  H    10    29       P1  7948  1.00
      P1  H  7997  8010       L1    18  1.00
      P1  H 10752 10765       L1     9  0.75

> <Gold.PLP.Chemscore.Internal.Correction>
0.0114

> <Gold.Rescore>
     Score         DG    S(hbond)    S(metal)    S(lipo)     H(rot)  DE(clash)    DE(int)     intcor
     13.45     -15.61       2.43        0.00      56.75       1.81       0.02       2.14       ----

> <Gold.Chemscore.Fitness>
13.4488

> <Gold.Chemscore.DG>
-15.6111

> <Gold.Chemscore.ZeroCoef>
-5.4800

> <Gold.Chemscore.Hbond>
2.4297

> <Gold.Chemscore.Metal>
0.0000

> <Gold.Chemscore.Lipo>
56.7549

> <Gold.Chemscore.Internal_Hbond>
0.0000

> <Gold.Chemscore.DEClash>
0.0208

> <Gold.Chemscore.DEInternal>
2.1414

> <Gold.Chemscore.Rot>
1.8065

> <Gold.Chemscore.Internal.Correction>
   9.000000E+99

> <Gold.Chemscore.Hbonds>
donor molecule, donor type, donor heavy atom, donor atom, acceptor molecule, acceptor atom, score
      L1  H    10    29       P1  7948  0.49
      P1  H  7997  8010       L1    18  0.29
      P1  H 10752 10765       L1     9  0.09

> <Gold.Chemscore.Hbond.Weighted>
-8.1153

> <Gold.Chemscore.Metal.Weighted>
-0.0000

> <Gold.Chemscore.Lipo.Weighted>
-6.6403

> <Gold.Chemscore.Internal_Hbond.Weighted>
0.0000

> <Gold.Chemscore.DEClash.Weighted>
0.0208

> <Gold.Chemscore.DEInternal.Weighted>
2.1414

> <Gold.Chemscore.Rot.Weighted>
4.6246

> <Gold.Chemscore.Internal.Correction.Weighted>
   9.000000E+99

> <Gold.Protein.RotatedTorsions>
[ 6907 6896 6895 6894 ] final -137.77 input  -60.11 | X-H torsion
[ 7974 7965 7964 7962 ] final  169.67 input  175.53 | X-H torsion
[ 8008 7997 7996 7995 ] final   67.33 input   59.86 | X-H torsion
[ 10167 10162 10161 10158 ] final  128.25 input  -65.29 | X-H torsion
[ 10718 10713 10712 10709 ] final  158.34 input   66.30 | X-H torsion
[ 10763 10752 10751 10750 ] final -163.63 input  -60.55 | X-H torsion
[ 11005 11000 10999 10996 ] final   -6.42 input  -57.11 | X-H torsion

> <Gold.Protein.ActiveResidues>
 VAL166  LYS551  ARG553  GLY616  TRP617  ASP618  TYR619  PRO620  LYS621  CYS622 
 ASP623  PHE694  ASN695  SER759  ASP760  ASP761  ALA762  ILE779  LEU786  VAL792 
 PHE793  MET794  SER795  GLU796  ALA797  LYS798  CYS799  TRP800  GLU811  SER814 

> <Gold.Protein.RotatedAtoms>
  151.0266  133.5828  159.2665 H   0  0  0  0  0  0  0  0  0  0  0  0  # atno 6907 bound_to 6896
  151.2925  135.0745  159.9219 H   0  0  0  0  0  0  0  0  0  0  0  0  # atno 6908 bound_to 6896
  152.5335  133.9962  159.7928 H   0  0  0  0  0  0  0  0  0  0  0  0  # atno 6909 bound_to 6896
  144.7347  139.9089  143.6414 H   0  0  0  0  0  0  0  0  0  0  0  0  # atno 7974 bound_to 7965
  155.6911  140.3496  155.4894 H   0  0  0  0  0  0  0  0  0  0  0  0  # atno 8008 bound_to 7997
  155.9523  140.1121  157.0989 H   0  0  0  0  0  0  0  0  0  0  0  0  # atno 8009 bound_to 7997
  154.4124  140.1192  156.5055 H   0  0  0  0  0  0  0  0  0  0  0  0  # atno 8010 bound_to 7997
  139.5536  144.6832  151.4248 H   0  0  0  0  0  0  0  0  0  0  0  0  # atno 10167 bound_to 10162
  157.1791  131.0628  151.2141 H   0  0  0  0  0  0  0  0  0  0  0  0  # atno 10718 bound_to 10713
  154.7105  135.3005  154.9205 H   0  0  0  0  0  0  0  0  0  0  0  0  # atno 10763 bound_to 10752
  154.0108  135.6695  153.4769 H   0  0  0  0  0  0  0  0  0  0  0  0  # atno 10764 bound_to 10752
  153.0751  135.5039  154.8300 H   0  0  0  0  0  0  0  0  0  0  0  0  # atno 10765 bound_to 10752
  140.7018  133.8983  155.8689 H   0  0  0  0  0  0  0  0  0  0  0  0  # atno 11005 bound_to 11000
  146.1016  139.4012  143.0343 LP  0  0  0  0  0  0  0  0  0  0  0  0  # atno 17320 bound_to 7965
  145.7570  140.9950  143.1220 LP  0  0  0  0  0  0  0  0  0  0  0  0  # atno 17321 bound_to 7965
  140.6805  143.8093  150.7114 LP  0  0  0  0  0  0  0  0  0  0  0  0  # atno 17342 bound_to 10162
  140.1545  143.4329  152.2109 LP  0  0  0  0  0  0  0  0  0  0  0  0  # atno 17343 bound_to 10162
  157.3969  130.7312  149.6738 LP  0  0  0  0  0  0  0  0  0  0  0  0  # atno 17370 bound_to 10713
  155.9727  130.4131  150.4066 LP  0  0  0  0  0  0  0  0  0  0  0  0  # atno 17371 bound_to 10713
  141.0157  134.0959  157.4174 LP  0  0  0  0  0  0  0  0  0  0  0  0  # atno 17394 bound_to 11000
  139.8895  135.0105  156.6680 LP  0  0  0  0  0  0  0  0  0  0  0  0  # atno 17395 bound_to 11000

$$$$
