AV-unprocessed.smi:773|AV-procd|sdf|3689|dock3
  -GOLD-   22720 1103D 1   1.00000     0.00000
 Structure written by MMmdl.
 39 40  0  0  0  0  0  0  0  0  1 V2000
  153.6692  138.5304  154.6713 C   0  0  0  0  0  0  0  0  0  0  0  0
  152.3094  137.9136  154.8291 C   0  0  0  0  0  0  0  0  0  0  0  0
  152.2110  136.6322  155.1396 N   0  0  0  0  0  0  0  0  0  0  0  0
  150.8419  136.3579  155.2053 O   0  0  0  0  0  0  0  0  0  0  0  0
  150.1614  137.4999  154.9332 C   0  0  0  0  0  0  0  0  0  0  0  0
  148.6734  137.4016  154.9363 C   0  0  0  0  0  0  0  0  0  0  0  0
  151.0315  138.5279  154.6901 C   0  0  0  0  0  0  0  0  0  0  0  0
  150.7264  139.9645  154.3423 C   0  0  0  0  0  0  0  0  0  0  0  0
  149.6244  140.5883  155.2265 C   0  0  2  0  0  0  0  0  0  0  0  0
  148.3581  140.8983  154.4165 C   0  0  0  0  0  0  0  0  0  0  0  0
  150.0921  141.8126  155.8775 N   0  0  0  0  0  0  0  0  0  0  0  0
  151.1403  141.9075  156.7095 C   0  0  0  0  0  0  0  0  0  0  0  0
  151.8444  140.9564  157.0501 O   0  0  0  0  0  0  0  0  0  0  0  0
  151.3406  143.1682  157.1136 N   0  0  0  0  0  0  0  0  0  0  0  0
  152.4225  143.5809  157.9981 C   0  0  0  0  0  0  0  0  0  0  0  0
  152.4422  142.8286  159.3367 C   0  0  0  0  0  0  0  0  0  0  0  0
  152.7678  144.1738  159.9986 C   0  0  0  0  0  0  0  0  0  0  0  0
  152.0932  144.8484  158.7968 C   0  0  0  0  0  0  0  0  0  0  0  0
  153.6430  139.3733  153.9810 H   0  0  0  0  0  0  0  0  0  0  0  0
  154.3900  137.8112  154.2809 H   0  0  0  0  0  0  0  0  0  0  0  0
  154.0449  138.8950  155.6274 H   0  0  0  0  0  0  0  0  0  0  0  0
  148.2133  138.3891  154.9598 H   0  0  0  0  0  0  0  0  0  0  0  0
  148.3226  136.8460  155.8059 H   0  0  0  0  0  0  0  0  0  0  0  0
  148.3223  136.8882  154.0411 H   0  0  0  0  0  0  0  0  0  0  0  0
  151.6296  140.5705  154.4208 H   0  0  0  0  0  0  0  0  0  0  0  0
  150.4244  140.0412  153.2974 H   0  0  0  0  0  0  0  0  0  0  0  0
  149.3483  139.8577  155.9885 H   0  0  0  0  0  0  0  0  0  0  0  0
  147.9622  139.9966  153.9483 H   0  0  0  0  0  0  0  0  0  0  0  0
  148.5579  141.6229  153.6264 H   0  0  0  0  0  0  0  0  0  0  0  0
  147.5740  141.3084  155.0538 H   0  0  0  0  0  0  0  0  0  0  0  0
  149.5841  142.6579  155.6623 H   0  0  0  0  0  0  0  0  0  0  0  0
  150.7146  143.8879  156.7830 H   0  0  0  0  0  0  0  0  0  0  0  0
  153.4065  143.6310  157.5259 H   0  0  0  0  0  0  0  0  0  0  0  0
  151.4672  142.4375  159.6344 H   0  0  0  0  0  0  0  0  0  0  0  0
  153.2250  142.0746  159.4245 H   0  0  0  0  0  0  0  0  0  0  0  0
  152.2748  144.3446  160.9560 H   0  0  0  0  0  0  0  0  0  0  0  0
  153.8396  144.3727  160.0521 H   0  0  0  0  0  0  0  0  0  0  0  0
  152.5899  145.7524  158.4432 H   0  0  0  0  0  0  0  0  0  0  0  0
  151.0235  145.0058  158.9489 H   0  0  0  0  0  0  0  0  0  0  0  0
  1  2  1  0  0  0  0
  1 19  1  0  0  0  0
  1 20  1  0  0  0  0
  1 21  1  0  0  0  0
  2  7  1  0  0  0  0
  2  3  2  0  0  0  0
  3  4  1  0  0  0  0
  4  5  1  0  0  0  0
  5  6  1  0  0  0  0
  5  7  2  0  0  0  0
  6 22  1  0  0  0  0
  6 23  1  0  0  0  0
  6 24  1  0  0  0  0
  7  8  1  0  0  0  0
  8  9  1  0  0  0  0
  8 25  1  0  0  0  0
  8 26  1  0  0  0  0
  9 10  1  0  0  0  0
  9 11  1  0  0  0  0
  9 27  1  0  0  0  0
 10 28  1  0  0  0  0
 10 29  1  0  0  0  0
 10 30  1  0  0  0  0
 11 12  1  0  0  0  0
 11 31  1  0  0  0  0
 12 13  2  0  0  0  0
 12 14  1  0  0  0  0
 14 15  1  0  0  0  0
 14 32  1  0  0  0  0
 15 18  1  0  0  0  0
 15 16  1  0  0  0  0
 15 33  1  0  0  0  0
 16 17  1  0  0  0  0
 16 34  1  0  0  0  0
 16 35  1  0  0  0  0
 17 18  1  0  0  0  0
 17 36  1  0  0  0  0
 17 37  1  0  0  0  0
 18 38  1  0  0  0  0
 18 39  1  0  0  0  0
M  END
> <s_m_source_file>
AV-unprocessed.smi

> <i_m_source_file_index>
773

> <i_lp_mmshare_version>
43012

> <i_f3d_flags>
0

> <s_epik_input>
W0NIM11jMW5vYyhbQ0gzXSljMVtDSDJdW0NASF0oW0NIM10pW05IXUMoPU8pW05IXVtDSF0yW0NIMl1bQ0gyXVtDSDJdMg==

> <s_epik_cmdline>
J2VwaWtfcHl0aG9uJywgJy1waCcsICc3LjAnLCAnLXRuJywgJzgnLCAnLW1hJywgJzIwMCcsICctbWV0YWxfYmluZGluZycsICctaW1hZScsICc8aW5maWxlLm1hZT4nLCAnLW9tYWUnLCAnPG91dGZpbGUubWFlPic=

> <r_lp_tautomer_probability>
1

> <r_epik_Ionization_Penalty>
6.63278e-05

> <r_epik_Ionization_Penalty_Charging>
0

> <r_epik_Ionization_Penalty_Neutral>
6.63278e-05

> <r_epik_State_Penalty>
-0

> <r_epik_Charging_Adjusted_Penalty>
0

> <i_epik_Tot_Q>
0

> <i_epik_Tot_abs_Q>
0

> <r_epik_Metal_State_Penalty>
-0

> <b_epik_Metal_Only>
0

> <s_lp_Force_Field>
OPLS_2005

> <r_lp_Energy>
7.52074

> <b_lp_Chiralities_Consistent>
1

> <s_lp_Variant>
AV-unprocessed.smi:773-1

> <Gold.Version>
5.8.1

> <Gold.Id.Protein>
6NUR|6NUR_protein|mol2

> <Gold.PLP.Fitness>
45.3652

> <Gold.PLP.PLP>
-38.3229

> <Gold.PLP.part.hbond>
-3.0000

> <Gold.PLP.part.metal>
0.0000

> <Gold.PLP.part.buried>
-2.7166

> <Gold.PLP.part.nonpolar>
-33.7691

> <Gold.PLP.part.repulsive>
0.3986

> <Gold.PLP.ligand.clash>
0.0000

> <Gold.PLP.ligand.torsion>
1.1084

> <Gold.PLP.Chemscore.Hbond>
3.0000

> <Gold.PLP.Chemscore.CHOScore>
0.0000

> <Gold.PLP.Chemscore.Metal>
0.0000

> <Gold.Chemscore.Hbonds>
donor molecule, donor type, donor heavy atom, donor atom, acceptor molecule, acceptor atom, score
      L1  H    11    31       P1  8028  0.63
      L1  H    14    32       P1  8028  0.37
      P1  H 10752 10765       L1     3  0.60

> <Gold.PLP.Chemscore.Internal.Correction>
0.2590

> <Gold.Rescore>
     Score         DG    S(hbond)    S(metal)    S(lipo)     H(rot)  DE(clash)    DE(int)     intcor
     19.49     -22.85       2.92        0.00      99.33       1.56       0.85       2.52       ----

> <Gold.Chemscore.Fitness>
19.4898

> <Gold.Chemscore.DG>
-22.8547

> <Gold.Chemscore.ZeroCoef>
-5.4800

> <Gold.Chemscore.Hbond>
2.9200

> <Gold.Chemscore.Metal>
0.0000

> <Gold.Chemscore.Lipo>
99.3323

> <Gold.Chemscore.Internal_Hbond>
0.0000

> <Gold.Chemscore.DEClash>
0.8474

> <Gold.Chemscore.DEInternal>
2.5175

> <Gold.Chemscore.Rot>
1.5625

> <Gold.Chemscore.Internal.Correction>
   9.000000E+99

> <Gold.Chemscore.Hbonds>
donor molecule, donor type, donor heavy atom, donor atom, acceptor molecule, acceptor atom, score
      L1  H    11    31       P1  8028  0.65
      L1  H    14    32       P1  8028  0.37
      P1  H 10752 10765       L1     3  0.54

> <Gold.Chemscore.Hbond.Weighted>
-9.7529

> <Gold.Chemscore.Metal.Weighted>
-0.0000

> <Gold.Chemscore.Lipo.Weighted>
-11.6219

> <Gold.Chemscore.Internal_Hbond.Weighted>
0.0000

> <Gold.Chemscore.DEClash.Weighted>
0.8474

> <Gold.Chemscore.DEInternal.Weighted>
2.5175

> <Gold.Chemscore.Rot.Weighted>
4.0000

> <Gold.Chemscore.Internal.Correction.Weighted>
   9.000000E+99

> <Gold.Protein.RotatedTorsions>
[ 6907 6896 6895 6894 ] final  -50.21 input  -60.11 | X-H torsion
[ 7974 7965 7964 7962 ] final   39.67 input  175.53 | X-H torsion
[ 8008 7997 7996 7995 ] final   73.88 input   59.86 | X-H torsion
[ 10167 10162 10161 10158 ] final  118.75 input  -65.29 | X-H torsion
[ 10718 10713 10712 10709 ] final -160.71 input   66.30 | X-H torsion
[ 10763 10752 10751 10750 ] final -163.44 input  -60.55 | X-H torsion
[ 11005 11000 10999 10996 ] final  -37.04 input  -57.11 | X-H torsion

> <Gold.Protein.ActiveResidues>
 VAL166  LYS551  ARG553  GLY616  TRP617  ASP618  TYR619  PRO620  LYS621  CYS622 
 ASP623  PHE694  ASN695  SER759  ASP760  ASP761  ALA762  ILE779  LEU786  VAL792 
 PHE793  MET794  SER795  GLU796  ALA797  LYS798  CYS799  TRP800  GLU811  SER814 

> <Gold.Protein.RotatedAtoms>
  150.8729  134.8107  159.7168 H   0  0  0  0  0  0  0  0  0  0  0  0  # atno 6907 bound_to 6896
  152.4727  134.4917  159.9707 H   0  0  0  0  0  0  0  0  0  0  0  0  # atno 6908 bound_to 6896
  151.5003  133.3467  159.2903 H   0  0  0  0  0  0  0  0  0  0  0  0  # atno 6909 bound_to 6896
  146.0965  139.5623  142.9442 H   0  0  0  0  0  0  0  0  0  0  0  0  # atno 7974 bound_to 7965
  155.7901  140.3479  155.5345 H   0  0  0  0  0  0  0  0  0  0  0  0  # atno 8008 bound_to 7997
  155.8642  140.0976  157.1614 H   0  0  0  0  0  0  0  0  0  0  0  0  # atno 8009 bound_to 7997
  154.4013  140.1353  156.3985 H   0  0  0  0  0  0  0  0  0  0  0  0  # atno 8010 bound_to 7997
  139.6091  144.7077  151.2886 H   0  0  0  0  0  0  0  0  0  0  0  0  # atno 10167 bound_to 10162
  156.5859  130.8749  151.2877 H   0  0  0  0  0  0  0  0  0  0  0  0  # atno 10718 bound_to 10713
  154.7122  135.3008  154.9180 H   0  0  0  0  0  0  0  0  0  0  0  0  # atno 10763 bound_to 10752
  154.0078  135.6698  153.4767 H   0  0  0  0  0  0  0  0  0  0  0  0  # atno 10764 bound_to 10752
  153.0764  135.5032  154.8327 H   0  0  0  0  0  0  0  0  0  0  0  0  # atno 10765 bound_to 10752
  140.9921  133.6999  156.1869 H   0  0  0  0  0  0  0  0  0  0  0  0  # atno 11005 bound_to 11000
  145.5937  141.0366  143.2056 LP  0  0  0  0  0  0  0  0  0  0  0  0  # atno 17320 bound_to 7965
  144.7400  139.7477  143.7314 LP  0  0  0  0  0  0  0  0  0  0  0  0  # atno 17321 bound_to 7965
  140.7306  143.6875  150.7949 LP  0  0  0  0  0  0  0  0  0  0  0  0  # atno 17342 bound_to 10162
  140.0466  143.5292  152.2693 LP  0  0  0  0  0  0  0  0  0  0  0  0  # atno 17343 bound_to 10162
  157.7315  130.9701  150.1884 LP  0  0  0  0  0  0  0  0  0  0  0  0  # atno 17370 bound_to 10713
  156.2591  130.3709  149.8150 LP  0  0  0  0  0  0  0  0  0  0  0  0  # atno 17371 bound_to 10713
  140.7023  134.4551  157.5585 LP  0  0  0  0  0  0  0  0  0  0  0  0  # atno 17394 bound_to 11000
  139.8997  134.8584  156.1948 LP  0  0  0  0  0  0  0  0  0  0  0  0  # atno 17395 bound_to 11000

$$$$
