AV-unprocessed.smi:3181|AV-procd|sdf|12140|dock2
  -GOLD-   2272017583D 1   1.00000     0.00000
 Structure written by MMmdl.
 42 43  0  0  0  0  0  0  0  0  2 V2000
  145.6019  135.7745  151.8446 C   0  0  0  0  0  0  0  0  0  0  0  0
  146.1777  134.4719  152.4241 C   0  0  1  0  0  0  0  0  0  0  0  0
  146.7143  133.5196  151.3340 C   0  0  0  0  0  0  0  0  0  0  0  0
  145.6552  132.8866  150.5706 N   0  0  0  0  0  0  0  0  0  0  0  0
  145.7094  131.9317  149.6405 C   0  0  0  0  0  0  0  0  0  0  0  0
  144.5247  131.5936  149.1517 N   0  0  0  0  0  0  0  0  0  0  0  0
  143.7301  132.4415  149.8703 C   0  0  0  0  0  0  0  0  0  0  0  0
  144.3587  133.2386  150.7349 N   0  0  0  0  0  0  0  0  0  0  0  0
  147.2537  134.7958  153.3884 N   0  3  0  0  0  0  0  0  0  0  0  0
  148.0251  133.6471  153.9229 C   0  0  2  0  0  0  0  0  0  0  0  0
  147.2549  132.9675  155.0673 C   0  0  0  0  0  0  0  0  0  0  0  0
  147.2241  133.8344  156.3362 C   0  0  0  0  0  0  0  0  0  0  0  0
  148.6380  134.2309  156.8082 C   0  0  2  0  0  0  0  0  0  0  0  0
  148.5413  135.0909  158.0809 C   0  0  0  0  0  0  0  0  0  0  0  0
  149.4217  134.9289  155.6656 C   0  0  1  0  0  0  0  0  0  0  0  0
  150.8629  135.2945  156.0626 C   0  0  0  0  0  0  0  0  0  0  0  0
  149.4375  134.0460  154.3987 C   0  0  0  0  0  0  0  0  0  0  0  0
  144.7521  135.5813  151.1895 H   0  0  0  0  0  0  0  0  0  0  0  0
  146.3503  136.3179  151.2668 H   0  0  0  0  0  0  0  0  0  0  0  0
  145.2505  136.4342  152.6387 H   0  0  0  0  0  0  0  0  0  0  0  0
  145.3646  133.9701  152.9512 H   0  0  0  0  0  0  0  0  0  0  0  0
  147.3682  134.0604  150.6477 H   0  0  0  0  0  0  0  0  0  0  0  0
  147.3205  132.7288  151.7759 H   0  0  0  0  0  0  0  0  0  0  0  0
  146.6323  131.4728  149.3174 H   0  0  0  0  0  0  0  0  0  0  0  0
  142.6568  132.4722  149.7532 H   0  0  0  0  0  0  0  0  0  0  0  0
  147.8910  135.4542  152.9632 H   0  0  0  0  0  0  0  0  0  0  0  0
  148.1198  132.9207  153.1143 H   0  0  0  0  0  0  0  0  0  0  0  0
  146.2384  132.7288  154.7515 H   0  0  0  0  0  0  0  0  0  0  0  0
  147.7297  132.0135  155.3015 H   0  0  0  0  0  0  0  0  0  0  0  0
  146.6322  134.7321  156.1520 H   0  0  0  0  0  0  0  0  0  0  0  0
  146.7088  133.2898  157.1284 H   0  0  0  0  0  0  0  0  0  0  0  0
  149.1677  133.3142  157.0723 H   0  0  0  0  0  0  0  0  0  0  0  0
  148.0850  136.0592  157.8726 H   0  0  0  0  0  0  0  0  0  0  0  0
  149.5203  135.2690  158.5251 H   0  0  0  0  0  0  0  0  0  0  0  0
  147.9358  134.5970  158.8414 H   0  0  0  0  0  0  0  0  0  0  0  0
  148.9079  135.8596  155.4218 H   0  0  0  0  0  0  0  0  0  0  0  0
  151.4166  134.4182  156.4012 H   0  0  0  0  0  0  0  0  0  0  0  0
  150.8874  136.0361  156.8605 H   0  0  0  0  0  0  0  0  0  0  0  0
  151.4047  135.7220  155.2184 H   0  0  0  0  0  0  0  0  0  0  0  0
  150.0003  133.1363  154.6131 H   0  0  0  0  0  0  0  0  0  0  0  0
  149.9857  134.5410  153.5972 H   0  0  0  0  0  0  0  0  0  0  0  0
  146.8159  135.2493  154.1777 H   0  0  0  0  0  0  0  0  0  0  0  0
  1  2  1  0  0  0  0
  1 18  1  0  0  0  0
  1 19  1  0  0  0  0
  1 20  1  0  0  0  0
  2  3  1  0  0  0  0
  2  9  1  0  0  0  0
  2 21  1  0  0  0  0
  3  4  1  0  0  0  0
  3 22  1  0  0  0  0
  3 23  1  0  0  0  0
  4  8  1  0  0  0  0
  4  5  1  0  0  0  0
  5  6  2  0  0  0  0
  5 24  1  0  0  0  0
  6  7  1  0  0  0  0
  7  8  2  0  0  0  0
  7 25  1  0  0  0  0
  9 10  1  0  0  0  0
  9 26  1  0  0  0  0
  9 42  1  0  0  0  0
 10 17  1  0  0  0  0
 10 11  1  0  0  0  0
 10 27  1  0  0  0  0
 11 12  1  0  0  0  0
 11 28  1  0  0  0  0
 11 29  1  0  0  0  0
 12 13  1  0  0  0  0
 12 30  1  0  0  0  0
 12 31  1  0  0  0  0
 13 14  1  0  0  0  0
 13 15  1  0  0  0  0
 13 32  1  0  0  0  0
 14 33  1  0  0  0  0
 14 34  1  0  0  0  0
 14 35  1  0  0  0  0
 15 16  1  0  0  0  0
 15 17  1  0  0  0  0
 15 36  1  0  0  0  0
 16 37  1  0  0  0  0
 16 38  1  0  0  0  0
 16 39  1  0  0  0  0
 17 40  1  0  0  0  0
 17 41  1  0  0  0  0
M  CHG  1   9   1
M  END
> <s_m_source_file>
AV-unprocessed.smi

> <i_m_source_file_index>
3181

> <i_lp_mmshare_version>
43012

> <i_f3d_flags>
0

> <s_epik_input>
bjFbY0hdbltjSF1uMVtDSDJdW0NAQEhdKFtDSDNdKVtOSF1bQ0BASF0yW0NIMl1bQ0gyXVtDQEBIXShbQ0gzXSlbQ0BASF0oW0NIM10pW0NIMl0y

> <s_epik_cmdline>
J2VwaWtfcHl0aG9uJywgJy1waCcsICc3LjAnLCAnLXRuJywgJzgnLCAnLW1hJywgJzIwMCcsICctbWV0YWxfYmluZGluZycsICctaW1hZScsICc8aW5maWxlLm1hZT4nLCAnLW9tYWUnLCAnPG91dGZpbGUubWFlPic=

> <r_lp_tautomer_probability>
1

> <r_epik_Ionization_Penalty>
0.000617007

> <r_epik_Ionization_Penalty_Charging>
0.000616215

> <r_epik_Ionization_Penalty_Neutral>
7.92544e-07

> <r_epik_State_Penalty>
0.000388807

> <r_epik_Charging_Adjusted_Penalty>
0.00100502

> <i_epik_Tot_Q>
1

> <i_epik_Tot_abs_Q>
1

> <r_epik_Metal_State_Penalty>
-0

> <b_epik_Metal_Only>
0

> <s_lp_Force_Field>
OPLS_2005

> <r_lp_Energy>
23.1218

> <b_lp_Chiralities_Consistent>
1

> <s_lp_Variant>
AV-unprocessed.smi:3181-6

> <Gold.Version>
5.8.1

> <Gold.Id.Protein>
6NUR|6NUR_protein|mol2

> <Gold.PLP.Fitness>
37.8915

> <Gold.PLP.PLP>
-25.6743

> <Gold.PLP.part.hbond>
-2.0000

> <Gold.PLP.part.metal>
0.0000

> <Gold.PLP.part.buried>
-3.6043

> <Gold.PLP.part.nonpolar>
-21.9686

> <Gold.PLP.part.repulsive>
0.3330

> <Gold.PLP.ligand.clash>
0.0000

> <Gold.PLP.ligand.torsion>
0.4215

> <Gold.PLP.Chemscore.Hbond>
2.3680

> <Gold.PLP.Chemscore.CHOScore>
1.9762

> <Gold.PLP.Chemscore.Metal>
0.0000

> <Gold.Chemscore.Hbonds>
donor molecule, donor type, donor heavy atom, donor atom, acceptor molecule, acceptor atom, score
      L1  H     9    26       P1  7948  2.00
      P1  H 10785 10796       L1     6  0.37
      L1  C     5    24       P1 10747  0.88
      L1  C     7    25       P1 10186  0.94
      L1  C     7    25       P1 10952  0.31

> <Gold.PLP.Chemscore.Internal.Correction>
0.0275

> <Gold.Rescore>
     Score         DG    S(hbond)    S(metal)    S(lipo)     H(rot)  DE(clash)    DE(int)     intcor
      8.81     -10.30       1.51        0.00      44.29       2.11       0.04       1.45       ----

> <Gold.Chemscore.Fitness>
8.8142

> <Gold.Chemscore.DG>
-10.3041

> <Gold.Chemscore.ZeroCoef>
-5.4800

> <Gold.Chemscore.Hbond>
1.5096

> <Gold.Chemscore.Metal>
0.0000

> <Gold.Chemscore.Lipo>
44.2948

> <Gold.Chemscore.Internal_Hbond>
0.0000

> <Gold.Chemscore.DEClash>
0.0351

> <Gold.Chemscore.DEInternal>
1.4548

> <Gold.Chemscore.Rot>
2.1095

> <Gold.Chemscore.Internal.Correction>
   9.000000E+99

> <Gold.Chemscore.Hbonds>
donor molecule, donor type, donor heavy atom, donor atom, acceptor molecule, acceptor atom, score
      L1  H     9    26       P1  7948  1.00
      P1  H 10785 10796       L1     6  0.10

> <Gold.Chemscore.Hbond.Weighted>
-5.0419

> <Gold.Chemscore.Metal.Weighted>
-0.0000

> <Gold.Chemscore.Lipo.Weighted>
-5.1825

> <Gold.Chemscore.Internal_Hbond.Weighted>
0.0000

> <Gold.Chemscore.DEClash.Weighted>
0.0351

> <Gold.Chemscore.DEInternal.Weighted>
1.4548

> <Gold.Chemscore.Rot.Weighted>
5.4003

> <Gold.Chemscore.Internal.Correction.Weighted>
   9.000000E+99

> <Gold.Protein.RotatedTorsions>
[ 6907 6896 6895 6894 ] final   92.61 input  -60.11 | X-H torsion
[ 7974 7965 7964 7962 ] final   92.62 input  175.53 | X-H torsion
[ 8008 7997 7996 7995 ] final  -14.62 input   59.86 | X-H torsion
[ 10167 10162 10161 10158 ] final -115.97 input  -65.29 | X-H torsion
[ 10718 10713 10712 10709 ] final   -5.67 input   66.30 | X-H torsion
[ 10763 10752 10751 10750 ] final   81.78 input  -60.55 | X-H torsion
[ 11005 11000 10999 10996 ] final    1.24 input  -57.11 | X-H torsion

> <Gold.Protein.ActiveResidues>
 VAL166  LYS551  ARG553  GLY616  TRP617  ASP618  TYR619  PRO620  LYS621  CYS622 
 ASP623  PHE694  ASN695  SER759  ASP760  ASP761  ALA762  ILE779  LEU786  VAL792 
 PHE793  MET794  SER795  GLU796  ALA797  LYS798  CYS799  TRP800  GLU811  SER814 

> <Gold.Protein.RotatedAtoms>
  152.5453  134.1475  159.8504 H   0  0  0  0  0  0  0  0  0  0  0  0  # atno 6907 bound_to 6896
  151.1505  133.4903  159.2603 H   0  0  0  0  0  0  0  0  0  0  0  0  # atno 6908 bound_to 6896
  151.1477  135.0222  159.8709 H   0  0  0  0  0  0  0  0  0  0  0  0  # atno 6909 bound_to 6896
  145.4899  139.2276  143.2836 H   0  0  0  0  0  0  0  0  0  0  0  0  # atno 7974 bound_to 7965
  154.5195  140.2218  155.9002 H   0  0  0  0  0  0  0  0  0  0  0  0  # atno 8008 bound_to 7997
  156.1646  140.3135  155.8831 H   0  0  0  0  0  0  0  0  0  0  0  0  # atno 8009 bound_to 7997
  155.3683  140.0465  157.3036 H   0  0  0  0  0  0  0  0  0  0  0  0  # atno 8010 bound_to 7997
  140.0843  143.4758  152.1907 H   0  0  0  0  0  0  0  0  0  0  0  0  # atno 10167 bound_to 10162
  156.7432  130.5216  149.5819 H   0  0  0  0  0  0  0  0  0  0  0  0  # atno 10718 bound_to 10713
  153.1146  135.4753  154.9093 H   0  0  0  0  0  0  0  0  0  0  0  0  # atno 10763 bound_to 10752
  154.7515  135.3107  154.8551 H   0  0  0  0  0  0  0  0  0  0  0  0  # atno 10764 bound_to 10752
  153.9131  135.6863  153.4804 H   0  0  0  0  0  0  0  0  0  0  0  0  # atno 10765 bound_to 10752
  140.6176  133.9691  155.8208 H   0  0  0  0  0  0  0  0  0  0  0  0  # atno 11005 bound_to 11000
  146.2290  140.5692  142.8983 LP  0  0  0  0  0  0  0  0  0  0  0  0  # atno 17320 bound_to 7965
  144.7840  140.5898  143.6586 LP  0  0  0  0  0  0  0  0  0  0  0  0  # atno 17321 bound_to 7965
  139.5761  144.7488  151.3761 LP  0  0  0  0  0  0  0  0  0  0  0  0  # atno 17342 bound_to 10162
  140.7061  143.7509  150.7485 LP  0  0  0  0  0  0  0  0  0  0  0  0  # atno 17343 bound_to 10162
  156.1450  130.6271  151.0519 LP  0  0  0  0  0  0  0  0  0  0  0  0  # atno 17370 bound_to 10713
  157.6809  131.0838  150.7371 LP  0  0  0  0  0  0  0  0  0  0  0  0  # atno 17371 bound_to 10713
  141.0765  134.0127  157.3450 LP  0  0  0  0  0  0  0  0  0  0  0  0  # atno 17394 bound_to 11000
  139.9166  135.0197  156.7906 LP  0  0  0  0  0  0  0  0  0  0  0  0  # atno 17395 bound_to 11000

$$$$
