AV-unprocessed.smi:1965|AV-procd|sdf|7934|dock1
  -GOLD-   2272010103D 1   1.00000     0.00000
 Structure written by MMmdl.
 37 39  0  0  0  0  0  0  0  0  2 V2000
  147.6968  138.8302  153.7352 O   0  0  0  0  0  0  0  0  0  0  0  0
  146.8504  139.5311  153.1836 C   0  0  0  0  0  0  0  0  0  0  0  0
  145.9161  138.9879  152.3744 N   0  0  0  0  0  0  0  0  0  0  0  0
  145.6711  137.6394  151.9822 C   0  0  0  0  0  0  0  0  0  0  0  0
  146.2795  137.0036  150.9726 N   0  0  0  0  0  0  0  0  0  0  0  0
  145.8354  135.6862  150.8328 C   0  0  0  0  0  0  0  0  0  0  0  0
  144.8823  135.3291  151.7532 C   0  0  0  0  0  0  0  0  0  0  0  0
  144.5024  136.6411  152.8361 S   0  0  0  0  0  0  0  0  0  0  0  0
  146.7991  140.8637  153.3425 N   0  0  0  0  0  0  0  0  0  0  0  0
  147.7128  141.6591  154.1557 C   0  0  2  0  0  0  0  0  0  0  0  0
  149.1600  141.1374  154.1113 C   0  0  0  0  0  0  0  0  0  0  0  0
  149.7045  141.3191  155.5419 C   0  0  0  0  0  0  0  0  0  0  0  0
  148.6305  142.0058  156.2845 N   0  3  2  0  0  0  0  0  0  0  0  0
  148.6134  141.8375  157.7539 C   0  0  0  0  0  0  0  0  0  0  0  0
  147.4783  142.6939  158.3501 C   0  0  0  0  0  0  0  0  0  0  0  0
  146.1224  142.3932  157.6794 C   0  0  0  0  0  0  0  0  0  0  0  0
  146.2260  142.4916  156.1450 C   0  0  0  0  0  0  0  0  0  0  0  0
  147.3712  141.5936  155.6463 C   0  0  1  0  0  0  0  0  0  0  0  0
  145.2603  139.6539  151.9923 H   0  0  0  0  0  0  0  0  0  0  0  0
  146.2530  135.0706  150.0499 H   0  0  0  0  0  0  0  0  0  0  0  0
  144.3828  134.3775  151.8595 H   0  0  0  0  0  0  0  0  0  0  0  0
  146.0696  141.3631  152.8534 H   0  0  0  0  0  0  0  0  0  0  0  0
  147.7135  142.7005  153.8265 H   0  0  0  0  0  0  0  0  0  0  0  0
  149.1958  140.0822  153.8353 H   0  0  0  0  0  0  0  0  0  0  0  0
  149.7519  141.6869  153.3786 H   0  0  0  0  0  0  0  0  0  0  0  0
  149.9077  140.3454  155.9904 H   0  0  0  0  0  0  0  0  0  0  0  0
  150.6252  141.9025  155.5664 H   0  0  0  0  0  0  0  0  0  0  0  0
  148.4723  140.7853  158.0063 H   0  0  0  0  0  0  0  0  0  0  0  0
  149.5741  142.1439  158.1691 H   0  0  0  0  0  0  0  0  0  0  0  0
  147.4085  142.5261  159.4251 H   0  0  0  0  0  0  0  0  0  0  0  0
  147.7168  143.7502  158.2187 H   0  0  0  0  0  0  0  0  0  0  0  0
  145.7965  141.3897  157.9563 H   0  0  0  0  0  0  0  0  0  0  0  0
  145.3595  143.0791  158.0491 H   0  0  0  0  0  0  0  0  0  0  0  0
  145.2813  142.1920  155.6908 H   0  0  0  0  0  0  0  0  0  0  0  0
  146.4024  143.5266  155.8491 H   0  0  0  0  0  0  0  0  0  0  0  0
  147.1655  140.5562  155.9213 H   0  0  0  0  0  0  0  0  0  0  0  0
  148.7356  142.9922  156.0950 H   0  0  0  0  0  0  0  0  0  0  0  0
  1  2  2  0  0  0  0
  2  3  1  0  0  0  0
  2  9  1  0  0  0  0
  3  4  1  0  0  0  0
  3 19  1  0  0  0  0
  4  8  1  0  0  0  0
  4  5  2  0  0  0  0
  5  6  1  0  0  0  0
  6  7  2  0  0  0  0
  6 20  1  0  0  0  0
  7  8  1  0  0  0  0
  7 21  1  0  0  0  0
  9 10  1  0  0  0  0
  9 22  1  0  0  0  0
 10 18  1  0  0  0  0
 10 11  1  0  0  0  0
 10 23  1  0  0  0  0
 11 12  1  0  0  0  0
 11 24  1  0  0  0  0
 11 25  1  0  0  0  0
 12 13  1  0  0  0  0
 12 26  1  0  0  0  0
 12 27  1  0  0  0  0
 13 18  1  0  0  0  0
 13 14  1  0  0  0  0
 13 37  1  0  0  0  0
 14 15  1  0  0  0  0
 14 28  1  0  0  0  0
 14 29  1  0  0  0  0
 15 16  1  0  0  0  0
 15 30  1  0  0  0  0
 15 31  1  0  0  0  0
 16 17  1  0  0  0  0
 16 32  1  0  0  0  0
 16 33  1  0  0  0  0
 17 18  1  0  0  0  0
 17 34  1  0  0  0  0
 17 35  1  0  0  0  0
 18 36  1  0  0  0  0
M  CHG  1  13   1
M  END
> <s_m_source_file>
AV-unprocessed.smi

> <i_m_source_file_index>
1965

> <i_lp_mmshare_version>
43012

> <i_f3d_flags>
0

> <s_epik_input>
czFbY0hdW2NIXW5jMVtOSF1DKD1PKVtOSF1bQ0BIXShbQ0gyXVtDSDJdMilbQ0BASF0oTjIzKVtDSDJdW0NIMl1bQ0gyXVtDSDJdMw==

> <s_epik_cmdline>
J2VwaWtfcHl0aG9uJywgJy1waCcsICc3LjAnLCAnLXRuJywgJzgnLCAnLW1hJywgJzIwMCcsICctbWV0YWxfYmluZGluZycsICctaW1hZScsICc8aW5maWxlLm1hZT4nLCAnLW9tYWUnLCAnPG91dGZpbGUubWFlPic=

> <r_lp_tautomer_probability>
1

> <r_epik_Ionization_Penalty>
0.00125962

> <r_epik_Ionization_Penalty_Charging>
0.00107044

> <r_epik_Ionization_Penalty_Neutral>
0.000189176

> <r_epik_State_Penalty>
-0

> <r_epik_Charging_Adjusted_Penalty>
0.00107044

> <i_epik_Tot_Q>
1

> <i_epik_Tot_abs_Q>
1

> <r_epik_Metal_State_Penalty>
0.0179285

> <b_epik_Metal_Only>
0

> <s_lp_Force_Field>
OPLS_2005

> <r_lp_Energy>
35.2759

> <b_lp_Chiralities_Consistent>
1

> <s_lp_Variant>
AV-unprocessed.smi:1965-3

> <Gold.Version>
5.8.1

> <Gold.Id.Protein>
6NUR|6NUR_protein|mol2

> <Gold.PLP.Fitness>
36.3277

> <Gold.PLP.PLP>
-25.9329

> <Gold.PLP.part.hbond>
-2.8225

> <Gold.PLP.part.metal>
0.0000

> <Gold.PLP.part.buried>
-1.5668

> <Gold.PLP.part.nonpolar>
-22.9865

> <Gold.PLP.part.repulsive>
2.3994

> <Gold.PLP.ligand.clash>
0.0000

> <Gold.PLP.ligand.torsion>
1.0439

> <Gold.PLP.Chemscore.Hbond>
3.1578

> <Gold.PLP.Chemscore.CHOScore>
1.0000

> <Gold.PLP.Chemscore.Metal>
0.0000

> <Gold.Chemscore.Hbonds>
donor molecule, donor type, donor heavy atom, donor atom, acceptor molecule, acceptor atom, score
      L1  H     3    19       P1 10175  0.80
      L1  H    13    37       P1  8028  2.00
      P1  H  7954  7966       L1     5  0.26
      L1  C     6    20       P1  7921  1.00

> <Gold.PLP.Chemscore.Internal.Correction>
0.0095

> <Gold.Rescore>
     Score         DG    S(hbond)    S(metal)    S(lipo)     H(rot)  DE(clash)    DE(int)     intcor
     12.73     -17.14       2.50        0.00      50.03       1.00       1.90       2.51       ----

> <Gold.Chemscore.Fitness>
12.7266

> <Gold.Chemscore.DG>
-17.1364

> <Gold.Chemscore.ZeroCoef>
-5.4800

> <Gold.Chemscore.Hbond>
2.5038

> <Gold.Chemscore.Metal>
0.0000

> <Gold.Chemscore.Lipo>
50.0302

> <Gold.Chemscore.Internal_Hbond>
0.0000

> <Gold.Chemscore.DEClash>
1.8964

> <Gold.Chemscore.DEInternal>
2.5134

> <Gold.Chemscore.Rot>
1.0000

> <Gold.Chemscore.Internal.Correction>
   9.000000E+99

> <Gold.Chemscore.Hbonds>
donor molecule, donor type, donor heavy atom, donor atom, acceptor molecule, acceptor atom, score
      L1  H     3    19       P1 10175  0.72
      L1  H    13    37       P1  8028  1.00
      P1  H  7954  7966       L1     5  0.24

> <Gold.Chemscore.Hbond.Weighted>
-8.3628

> <Gold.Chemscore.Metal.Weighted>
-0.0000

> <Gold.Chemscore.Lipo.Weighted>
-5.8535

> <Gold.Chemscore.Internal_Hbond.Weighted>
0.0000

> <Gold.Chemscore.DEClash.Weighted>
1.8964

> <Gold.Chemscore.DEInternal.Weighted>
2.5134

> <Gold.Chemscore.Rot.Weighted>
2.5600

> <Gold.Chemscore.Internal.Correction.Weighted>
   9.000000E+99

> <Gold.Protein.RotatedTorsions>
[ 6907 6896 6895 6894 ] final  -17.71 input  -60.11 | X-H torsion
[ 7974 7965 7964 7962 ] final  173.91 input  175.53 | X-H torsion
[ 8008 7997 7996 7995 ] final -130.60 input   59.86 | X-H torsion
[ 10167 10162 10161 10158 ] final  -71.61 input  -65.29 | X-H torsion
[ 10718 10713 10712 10709 ] final -100.95 input   66.30 | X-H torsion
[ 10763 10752 10751 10750 ] final  138.23 input  -60.55 | X-H torsion
[ 11005 11000 10999 10996 ] final -125.90 input  -57.11 | X-H torsion

> <Gold.Protein.ActiveResidues>
 VAL166  LYS551  ARG553  GLY616  TRP617  ASP618  TYR619  PRO620  LYS621  CYS622 
 ASP623  PHE694  ASN695  SER759  ASP760  ASP761  ALA762  ILE779  LEU786  VAL792 
 PHE793  MET794  SER795  GLU796  ALA797  LYS798  CYS799  TRP800  GLU811  SER814 

> <Gold.Protein.RotatedAtoms>
  151.2892  135.0737  159.9197 H   0  0  0  0  0  0  0  0  0  0  0  0  # atno 6907 bound_to 6896
  152.5319  133.9949  159.7878 H   0  0  0  0  0  0  0  0  0  0  0  0  # atno 6908 bound_to 6896
  151.0216  133.5820  159.2701 H   0  0  0  0  0  0  0  0  0  0  0  0  # atno 6909 bound_to 6896
  144.7233  139.9718  143.6437 H   0  0  0  0  0  0  0  0  0  0  0  0  # atno 7974 bound_to 7965
  155.2984  140.0451  157.3028 H   0  0  0  0  0  0  0  0  0  0  0  0  # atno 8008 bound_to 7997
  154.5500  140.2314  155.8467 H   0  0  0  0  0  0  0  0  0  0  0  0  # atno 8009 bound_to 7997
  156.1959  140.3038  155.9432 H   0  0  0  0  0  0  0  0  0  0  0  0  # atno 8010 bound_to 7997
  140.5259  143.2326  151.7348 H   0  0  0  0  0  0  0  0  0  0  0  0  # atno 10167 bound_to 10162
  156.0179  130.5351  150.6892 H   0  0  0  0  0  0  0  0  0  0  0  0  # atno 10718 bound_to 10713
  153.8861  135.3038  155.3446 H   0  0  0  0  0  0  0  0  0  0  0  0  # atno 10763 bound_to 10752
  154.7738  135.4872  153.9706 H   0  0  0  0  0  0  0  0  0  0  0  0  # atno 10764 bound_to 10752
  153.1324  135.6806  153.9255 H   0  0  0  0  0  0  0  0  0  0  0  0  # atno 10765 bound_to 10752
  140.9725  134.0786  157.3854 H   0  0  0  0  0  0  0  0  0  0  0  0  # atno 11005 bound_to 11000
  146.0557  139.3554  143.0612 LP  0  0  0  0  0  0  0  0  0  0  0  0  # atno 17320 bound_to 7965
  145.8158  140.9704  143.0925 LP  0  0  0  0  0  0  0  0  0  0  0  0  # atno 17321 bound_to 7965
  139.4938  144.4186  152.0002 LP  0  0  0  0  0  0  0  0  0  0  0  0  # atno 17342 bound_to 10162
  140.3285  144.3344  150.5993 LP  0  0  0  0  0  0  0  0  0  0  0  0  # atno 17343 bound_to 10162
  157.4577  131.0879  151.0779 LP  0  0  0  0  0  0  0  0  0  0  0  0  # atno 17370 bound_to 10713
  157.1276  130.6088  149.5521 LP  0  0  0  0  0  0  0  0  0  0  0  0  # atno 17371 bound_to 10713
  139.8918  135.0120  156.6809 LP  0  0  0  0  0  0  0  0  0  0  0  0  # atno 17394 bound_to 11000
  140.7308  133.9061  155.8210 LP  0  0  0  0  0  0  0  0  0  0  0  0  # atno 17395 bound_to 11000

$$$$
