AV-unprocessed.smi:2135|AV-procd|sdf|8699|dock4
  -GOLD-   2272011453D 1   1.00000     0.00000
 Structure written by MMmdl.
 42 43  0  0  0  0  0  0  0  0  1 V2000
  151.1532  140.5560  157.3573 C   0  0  0  0  0  0  0  0  0  0  0  0
  150.5046  139.4752  156.0175 S   0  0  0  0  0  0  0  0  0  0  0  0
  151.2885  139.7337  154.7999 O   0  0  0  0  0  0  0  0  0  0  0  0
  150.4053  138.1053  156.5435 O   0  0  0  0  0  0  0  0  0  0  0  0
  148.8872  140.0569  155.7440 N   0  0  0  0  0  0  0  0  0  0  0  0
  148.6712  141.4271  155.2369 C   0  0  0  0  0  0  0  0  0  0  0  0
  148.3454  141.4309  153.7330 C   0  0  0  0  0  0  0  0  0  0  0  0
  147.1705  140.4982  153.4167 C   0  0  0  0  0  0  0  0  0  0  0  0
  147.4842  139.0776  153.9196 C   0  0  2  0  0  0  0  0  0  0  0  0
  146.3239  138.1159  153.6314 C   0  0  0  0  0  0  0  0  0  0  0  0
  145.1983  138.3499  154.0727 O   0  0  0  0  0  0  0  0  0  0  0  0
  146.6133  137.0323  152.8944 N   0  0  0  0  0  0  0  0  0  0  0  0
  145.6634  135.9864  152.5362 C   0  0  0  0  0  0  0  0  0  0  0  0
  146.3776  134.6678  152.1973 C   0  0  0  0  0  0  0  0  0  0  0  0
  145.4372  133.6533  151.5784 C   0  0  0  0  0  0  0  0  0  0  0  0
  144.0477  133.8878  151.5290 C   0  0  0  0  0  0  0  0  0  0  0  0
  143.2158  132.9119  150.9473 C   0  0  0  0  0  0  0  0  0  0  0  0
  143.8110  131.7399  150.4389 C   0  0  0  0  0  0  0  0  0  0  0  0
  145.1402  131.5049  150.4813 N   0  0  0  0  0  0  0  0  0  0  0  0
  145.9310  132.4461  151.0402 C   0  0  0  0  0  0  0  0  0  0  0  0
  147.8014  139.1056  155.4308 C   0  0  0  0  0  0  0  0  0  0  0  0
  152.1687  140.2461  157.6028 H   0  0  0  0  0  0  0  0  0  0  0  0
  150.5308  140.4596  158.2451 H   0  0  0  0  0  0  0  0  0  0  0  0
  151.1723  141.5917  157.0238 H   0  0  0  0  0  0  0  0  0  0  0  0
  147.8424  141.8709  155.7897 H   0  0  0  0  0  0  0  0  0  0  0  0
  149.5430  142.0491  155.4383 H   0  0  0  0  0  0  0  0  0  0  0  0
  148.1080  142.4453  153.4116 H   0  0  0  0  0  0  0  0  0  0  0  0
  149.2190  141.1271  153.1579 H   0  0  0  0  0  0  0  0  0  0  0  0
  146.2651  140.8815  153.8899 H   0  0  0  0  0  0  0  0  0  0  0  0
  146.9836  140.4903  152.3421 H   0  0  0  0  0  0  0  0  0  0  0  0
  148.3613  138.7162  153.3828 H   0  0  0  0  0  0  0  0  0  0  0  0
  147.5626  136.9169  152.5705 H   0  0  0  0  0  0  0  0  0  0  0  0
  144.9469  135.8391  153.3462 H   0  0  0  0  0  0  0  0  0  0  0  0
  145.0917  136.3312  151.6741 H   0  0  0  0  0  0  0  0  0  0  0  0
  147.2048  134.8550  151.5112 H   0  0  0  0  0  0  0  0  0  0  0  0
  146.8166  134.2316  153.0955 H   0  0  0  0  0  0  0  0  0  0  0  0
  143.6248  134.7971  151.9305 H   0  0  0  0  0  0  0  0  0  0  0  0
  142.1471  133.0576  150.8924 H   0  0  0  0  0  0  0  0  0  0  0  0
  143.2027  130.9702  149.9872 H   0  0  0  0  0  0  0  0  0  0  0  0
  146.9887  132.2276  151.0615 H   0  0  0  0  0  0  0  0  0  0  0  0
  148.0639  138.1086  155.7849 H   0  0  0  0  0  0  0  0  0  0  0  0
  146.9164  139.4050  155.9945 H   0  0  0  0  0  0  0  0  0  0  0  0
  1  2  1  0  0  0  0
  1 22  1  0  0  0  0
  1 23  1  0  0  0  0
  1 24  1  0  0  0  0
  2  3  2  0  0  0  0
  2  4  2  0  0  0  0
  2  5  1  0  0  0  0
  5 21  1  0  0  0  0
  5  6  1  0  0  0  0
  6  7  1  0  0  0  0
  6 25  1  0  0  0  0
  6 26  1  0  0  0  0
  7  8  1  0  0  0  0
  7 27  1  0  0  0  0
  7 28  1  0  0  0  0
  8  9  1  0  0  0  0
  8 29  1  0  0  0  0
  8 30  1  0  0  0  0
  9 10  1  0  0  0  0
  9 21  1  0  0  0  0
  9 31  1  0  0  0  0
 10 11  2  0  0  0  0
 10 12  1  0  0  0  0
 12 13  1  0  0  0  0
 12 32  1  0  0  0  0
 13 14  1  0  0  0  0
 13 33  1  0  0  0  0
 13 34  1  0  0  0  0
 14 15  1  0  0  0  0
 14 35  1  0  0  0  0
 14 36  1  0  0  0  0
 15 20  1  0  0  0  0
 15 16  2  0  0  0  0
 16 17  1  0  0  0  0
 16 37  1  0  0  0  0
 17 18  2  0  0  0  0
 17 38  1  0  0  0  0
 18 19  1  0  0  0  0
 18 39  1  0  0  0  0
 19 20  2  0  0  0  0
 20 40  1  0  0  0  0
 21 41  1  0  0  0  0
 21 42  1  0  0  0  0
M  END
> <s_m_source_file>
AV-unprocessed.smi

> <i_m_source_file_index>
2135

> <i_lp_mmshare_version>
43012

> <i_f3d_flags>
0

> <s_epik_input>
W0NIM11TKD1PKSg9TylOMVtDSDJdW0NIMl1bQ0gyXVtDQEhdKFtDSDJdMSlDKD1PKVtOSF1bQ0gyXVtDSDJdYzJbY0hdW2NIXVtjSF1uW2NIXTI=

> <s_epik_cmdline>
J2VwaWtfcHl0aG9uJywgJy1waCcsICc3LjAnLCAnLXRuJywgJzgnLCAnLW1hJywgJzIwMCcsICctbWV0YWxfYmluZGluZycsICctaW1hZScsICc8aW5maWxlLm1hZT4nLCAnLW9tYWUnLCAnPG91dGZpbGUubWFlPic=

> <r_epik_Ionization_Penalty>
0.0134582

> <r_epik_Ionization_Penalty_Charging>
0

> <r_epik_Ionization_Penalty_Neutral>
0.0134582

> <r_epik_State_Penalty>
0.010475

> <r_epik_Charging_Adjusted_Penalty>
0.010475

> <i_epik_Tot_Q>
0

> <i_epik_Tot_abs_Q>
0

> <r_epik_Metal_State_Penalty>
0.0102416

> <b_epik_Metal_Only>
0

> <s_lp_Force_Field>
OPLS_2005

> <r_lp_Energy>
-1.59051

> <b_lp_Chiralities_Consistent>
1

> <s_lp_Variant>
AV-unprocessed.smi:2135-2

> <Gold.Version>
5.8.1

> <Gold.Id.Protein>
6NUR|6NUR_protein|mol2

> <Gold.PLP.Fitness>
40.5719

> <Gold.PLP.PLP>
-29.2836

> <Gold.PLP.part.hbond>
-2.0000

> <Gold.PLP.part.metal>
0.0000

> <Gold.PLP.part.buried>
-2.1573

> <Gold.PLP.part.nonpolar>
-25.4263

> <Gold.PLP.part.repulsive>
0.3173

> <Gold.PLP.ligand.clash>
0.0000

> <Gold.PLP.ligand.torsion>
1.3933

> <Gold.PLP.Chemscore.Hbond>
2.0000

> <Gold.PLP.Chemscore.CHOScore>
1.9968

> <Gold.PLP.Chemscore.Metal>
0.0000

> <Gold.Chemscore.Hbonds>
donor molecule, donor type, donor heavy atom, donor atom, acceptor molecule, acceptor atom, score
      L1  H    12    32       P1  7948  1.00
      P1  H  7989  7998       L1     3  1.00
      L1  C    18    39       P1 10952  1.00
      L1  C    20    40       P1 10747  0.98

> <Gold.PLP.Chemscore.Internal.Correction>
2.0843

> <Gold.Rescore>
     Score         DG    S(hbond)    S(metal)    S(lipo)     H(rot)  DE(clash)    DE(int)     intcor
     15.36     -17.23       2.00        0.00      77.62       1.56       0.52       1.35       ----

> <Gold.Chemscore.Fitness>
15.3613

> <Gold.Chemscore.DG>
-17.2259

> <Gold.Chemscore.ZeroCoef>
-5.4800

> <Gold.Chemscore.Hbond>
1.9967

> <Gold.Chemscore.Metal>
0.0000

> <Gold.Chemscore.Lipo>
77.6186

> <Gold.Chemscore.Internal_Hbond>
0.0000

> <Gold.Chemscore.DEClash>
0.5169

> <Gold.Chemscore.DEInternal>
1.3477

> <Gold.Chemscore.Rot>
1.5643

> <Gold.Chemscore.Internal.Correction>
   9.000000E+99

> <Gold.Chemscore.Hbonds>
donor molecule, donor type, donor heavy atom, donor atom, acceptor molecule, acceptor atom, score
      L1  H    12    32       P1  7948  1.00
      P1  H  7989  7998       L1     3  1.00

> <Gold.Chemscore.Hbond.Weighted>
-6.6691

> <Gold.Chemscore.Metal.Weighted>
-0.0000

> <Gold.Chemscore.Lipo.Weighted>
-9.0814

> <Gold.Chemscore.Internal_Hbond.Weighted>
0.0000

> <Gold.Chemscore.DEClash.Weighted>
0.5169

> <Gold.Chemscore.DEInternal.Weighted>
1.3477

> <Gold.Chemscore.Rot.Weighted>
4.0046

> <Gold.Chemscore.Internal.Correction.Weighted>
   9.000000E+99

> <Gold.Protein.RotatedTorsions>
[ 6907 6896 6895 6894 ] final -116.45 input  -60.11 | X-H torsion
[ 7974 7965 7964 7962 ] final -129.56 input  175.53 | X-H torsion
[ 8008 7997 7996 7995 ] final  173.26 input   59.86 | X-H torsion
[ 10167 10162 10161 10158 ] final  -40.25 input  -65.29 | X-H torsion
[ 10718 10713 10712 10709 ] final  -96.76 input   66.30 | X-H torsion
[ 10763 10752 10751 10750 ] final -148.16 input  -60.55 | X-H torsion
[ 11005 11000 10999 10996 ] final   16.80 input  -57.11 | X-H torsion

> <Gold.Protein.ActiveResidues>
 VAL166  LYS551  ARG553  GLY616  TRP617  ASP618  TYR619  PRO620  LYS621  CYS622 
 ASP623  PHE694  ASN695  SER759  ASP760  ASP761  ALA762  ILE779  LEU786  VAL792 
 PHE793  MET794  SER795  GLU796  ALA797  LYS798  CYS799  TRP800  GLU811  SER814 

> <Gold.Protein.RotatedAtoms>
  150.8057  133.8515  159.3206 H   0  0  0  0  0  0  0  0  0  0  0  0  # atno 6907 bound_to 6896
  151.6314  135.1020  160.0132 H   0  0  0  0  0  0  0  0  0  0  0  0  # atno 6908 bound_to 6896
  152.4147  133.6980  159.6464 H   0  0  0  0  0  0  0  0  0  0  0  0  # atno 6909 bound_to 6896
  144.9559  140.7395  143.4759 H   0  0  0  0  0  0  0  0  0  0  0  0  # atno 7974 bound_to 7965
  156.1093  140.1465  156.9360 H   0  0  0  0  0  0  0  0  0  0  0  0  # atno 8008 bound_to 7997
  154.4756  140.0895  156.7297 H   0  0  0  0  0  0  0  0  0  0  0  0  # atno 8009 bound_to 7997
  155.4624  140.3439  155.4316 H   0  0  0  0  0  0  0  0  0  0  0  0  # atno 8010 bound_to 7997
  140.7040  143.3165  151.2897 H   0  0  0  0  0  0  0  0  0  0  0  0  # atno 10167 bound_to 10162
  156.0069  130.5165  150.6274 H   0  0  0  0  0  0  0  0  0  0  0  0  # atno 10718 bound_to 10713
  154.8248  135.3341  154.6930 H   0  0  0  0  0  0  0  0  0  0  0  0  # atno 10763 bound_to 10752
  153.7558  135.6936  153.4940 H   0  0  0  0  0  0  0  0  0  0  0  0  # atno 10764 bound_to 10752
  153.2145  135.4470  155.0368 H   0  0  0  0  0  0  0  0  0  0  0  0  # atno 10765 bound_to 10752
  140.4431  134.1301  155.7693 H   0  0  0  0  0  0  0  0  0  0  0  0  # atno 11005 bound_to 11000
  145.2772  139.1932  143.4810 LP  0  0  0  0  0  0  0  0  0  0  0  0  # atno 17320 bound_to 7965
  146.3337  140.2728  142.8606 LP  0  0  0  0  0  0  0  0  0  0  0  0  # atno 17321 bound_to 7965
  139.6605  144.0198  152.2689 LP  0  0  0  0  0  0  0  0  0  0  0  0  # atno 17342 bound_to 10162
  139.9763  144.6459  150.7942 LP  0  0  0  0  0  0  0  0  0  0  0  0  # atno 17343 bound_to 10162
  157.4078  131.0819  151.1249 LP  0  0  0  0  0  0  0  0  0  0  0  0  # atno 17370 bound_to 10713
  157.1890  130.6343  149.5698 LP  0  0  0  0  0  0  0  0  0  0  0  0  # atno 17371 bound_to 10713
  141.1697  133.8633  157.1609 LP  0  0  0  0  0  0  0  0  0  0  0  0  # atno 17394 bound_to 11000
  140.0056  135.0010  157.0286 LP  0  0  0  0  0  0  0  0  0  0  0  0  # atno 17395 bound_to 11000

$$$$
