AV-unprocessed.smi:662|AV-procd|sdf|3245|dock1
  -GOLD-   22720 0193D 1   1.00000     0.00000
 Structure written by MMmdl.
 33 34  0  0  0  0  0  0  0  0  1 V2000
  151.1720  139.0937  154.3273 O   0  0  0  0  0  0  0  0  0  0  0  0
  150.7748  138.3892  155.2563 C   0  0  0  0  0  0  0  0  0  0  0  0
  150.9400  138.7142  156.5476 N   0  0  0  0  0  0  0  0  0  0  0  0
  151.6092  139.9166  157.0297 C   0  0  0  0  0  0  0  0  0  0  0  0
  152.3826  139.6523  158.3320 C   0  0  0  0  0  0  0  0  0  0  0  0
  152.6200  140.8983  159.1165 C   0  0  0  0  0  0  0  0  0  0  0  0
  152.2036  142.1060  158.7270 N   0  0  0  0  0  0  0  0  0  0  0  0
  152.5747  143.1202  159.6168 C   0  0  0  0  0  0  0  0  0  0  0  0
  152.1720  144.5396  159.3398 C   0  0  0  0  0  0  0  0  0  0  0  0
  150.8539  144.6527  159.1749 F   0  0  0  0  0  0  0  0  0  0  0  0
  152.5212  145.3436  160.3439 F   0  0  0  0  0  0  0  0  0  0  0  0
  152.7559  144.9960  158.2323 F   0  0  0  0  0  0  0  0  0  0  0  0
  153.2981  142.6552  160.6883 C   0  0  0  0  0  0  0  0  0  0  0  0
  153.5380  140.9313  160.6166 S   0  0  0  0  0  0  0  0  0  0  0  0
  150.0529  137.0661  154.9739 C   0  0  2  0  0  0  0  0  0  0  0  0
  149.4481  136.4382  156.2404 C   0  0  0  0  0  0  0  0  0  0  0  0
  149.9300  134.9930  156.2062 C   0  0  0  0  0  0  0  0  0  0  0  0
  150.3669  134.7832  154.7579 C   0  0  0  0  0  0  0  0  0  0  0  0
  150.9543  136.0617  154.3949 N   0  0  0  0  0  0  0  0  0  0  0  0
  150.5798  138.0804  157.2461 H   0  0  0  0  0  0  0  0  0  0  0  0
  152.2773  140.3051  156.2591 H   0  0  0  0  0  0  0  0  0  0  0  0
  150.8503  140.6815  157.1971 H   0  0  0  0  0  0  0  0  0  0  0  0
  151.8369  138.9432  158.9561 H   0  0  0  0  0  0  0  0  0  0  0  0
  153.3493  139.1963  158.1155 H   0  0  0  0  0  0  0  0  0  0  0  0
  153.7049  143.2219  161.5128 H   0  0  0  0  0  0  0  0  0  0  0  0
  149.2476  137.2396  154.2573 H   0  0  0  0  0  0  0  0  0  0  0  0
  149.7591  136.9295  157.1641 H   0  0  0  0  0  0  0  0  0  0  0  0
  148.3593  136.4830  156.1972 H   0  0  0  0  0  0  0  0  0  0  0  0
  150.7864  134.8723  156.8713 H   0  0  0  0  0  0  0  0  0  0  0  0
  149.1613  134.2861  156.5198 H   0  0  0  0  0  0  0  0  0  0  0  0
  151.0788  133.9653  154.6445 H   0  0  0  0  0  0  0  0  0  0  0  0
  149.5057  134.5822  154.1186 H   0  0  0  0  0  0  0  0  0  0  0  0
  151.0598  136.1560  153.3949 H   0  0  0  0  0  0  0  0  0  0  0  0
  1  2  2  0  0  0  0
  2  3  1  0  0  0  0
  2 15  1  0  0  0  0
  3  4  1  0  0  0  0
  3 20  1  0  0  0  0
  4  5  1  0  0  0  0
  4 21  1  0  0  0  0
  4 22  1  0  0  0  0
  5  6  1  0  0  0  0
  5 23  1  0  0  0  0
  5 24  1  0  0  0  0
  6 14  1  0  0  0  0
  6  7  2  0  0  0  0
  7  8  1  0  0  0  0
  8  9  1  0  0  0  0
  8 13  2  0  0  0  0
  9 10  1  0  0  0  0
  9 11  1  0  0  0  0
  9 12  1  0  0  0  0
 13 14  1  0  0  0  0
 13 25  1  0  0  0  0
 15 19  1  0  0  0  0
 15 16  1  0  0  0  0
 15 26  1  0  0  0  0
 16 17  1  0  0  0  0
 16 27  1  0  0  0  0
 16 28  1  0  0  0  0
 17 18  1  0  0  0  0
 17 29  1  0  0  0  0
 17 30  1  0  0  0  0
 18 19  1  0  0  0  0
 18 31  1  0  0  0  0
 18 32  1  0  0  0  0
 19 33  1  0  0  0  0
M  END
> <s_m_source_file>
AV-unprocessed.smi

> <i_m_source_file_index>
662

> <i_lp_mmshare_version>
43012

> <i_f3d_flags>
0

> <s_epik_input>
W05IXTFbQ0gyXVtDSDJdW0NIMl1bQ0BIXTFDKD1PKVtOSF1bQ0gyXVtDSDJdYzJuYyhDKEYpKEYpRilbY0hdczI=

> <s_epik_cmdline>
J2VwaWtfcHl0aG9uJywgJy1waCcsICc3LjAnLCAnLXRuJywgJzgnLCAnLW1hJywgJzIwMCcsICctbWV0YWxfYmluZGluZycsICctaW1hZScsICc8aW5maWxlLm1hZT4nLCAnLW9tYWUnLCAnPG91dGZpbGUubWFlPic=

> <r_epik_Ionization_Penalty>
1.64272

> <r_epik_Ionization_Penalty_Charging>
0

> <r_epik_Ionization_Penalty_Neutral>
1.64272

> <r_epik_State_Penalty>
1.74416

> <r_epik_Charging_Adjusted_Penalty>
1.74416

> <i_epik_Tot_Q>
0

> <i_epik_Tot_abs_Q>
0

> <r_epik_Metal_State_Penalty>
1.74416

> <b_epik_Metal_Only>
0

> <s_lp_Force_Field>
OPLS_2005

> <r_lp_Energy>
16.594

> <b_lp_Chiralities_Consistent>
1

> <s_lp_Variant>
AV-unprocessed.smi:662-3

> <Gold.Version>
5.8.1

> <Gold.Id.Protein>
6NUR|6NUR_protein|mol2

> <Gold.PLP.Fitness>
46.4842

> <Gold.PLP.PLP>
-40.3324

> <Gold.PLP.part.hbond>
-3.5392

> <Gold.PLP.part.metal>
0.0000

> <Gold.PLP.part.buried>
-6.2380

> <Gold.PLP.part.nonpolar>
-30.8324

> <Gold.PLP.part.repulsive>
0.1700

> <Gold.PLP.ligand.clash>
0.4142

> <Gold.PLP.ligand.torsion>
0.5077

> <Gold.PLP.Chemscore.Hbond>
2.5070

> <Gold.PLP.Chemscore.CHOScore>
0.0000

> <Gold.PLP.Chemscore.Metal>
0.0000

> <Gold.Chemscore.Hbonds>
donor molecule, donor type, donor heavy atom, donor atom, acceptor molecule, acceptor atom, score
      L1  H    19    33       P1  7949  1.00
      P1  H  7989  7998       L1     1  1.00
      P1  H 10752 10763       L1    19  0.51

> <Gold.PLP.Chemscore.Internal.Correction>
0.0604

> <Gold.Rescore>
     Score         DG    S(hbond)    S(metal)    S(lipo)     H(rot)  DE(clash)    DE(int)     intcor
     15.08     -15.78       1.73        0.00      80.54       1.91       0.15       0.54       ----

> <Gold.Chemscore.Fitness>
15.0834

> <Gold.Chemscore.DG>
-15.7817

> <Gold.Chemscore.ZeroCoef>
-5.4800

> <Gold.Chemscore.Hbond>
1.7267

> <Gold.Chemscore.Metal>
0.0000

> <Gold.Chemscore.Lipo>
80.5382

> <Gold.Chemscore.Internal_Hbond>
0.0000

> <Gold.Chemscore.DEClash>
0.1543

> <Gold.Chemscore.DEInternal>
0.5440

> <Gold.Chemscore.Rot>
1.9095

> <Gold.Chemscore.Internal.Correction>
   9.000000E+99

> <Gold.Chemscore.Hbonds>
donor molecule, donor type, donor heavy atom, donor atom, acceptor molecule, acceptor atom, score
      L1  H    19    33       P1  7949  0.26
      P1  H  7989  7998       L1     1  0.96
      P1  H 10752 10763       L1    19  0.01

> <Gold.Chemscore.Hbond.Weighted>
-5.7670

> <Gold.Chemscore.Metal.Weighted>
-0.0000

> <Gold.Chemscore.Lipo.Weighted>
-9.4230

> <Gold.Chemscore.Internal_Hbond.Weighted>
0.0000

> <Gold.Chemscore.DEClash.Weighted>
0.1543

> <Gold.Chemscore.DEInternal.Weighted>
0.5440

> <Gold.Chemscore.Rot.Weighted>
4.8883

> <Gold.Chemscore.Internal.Correction.Weighted>
   9.000000E+99

> <Gold.Protein.RotatedTorsions>
[ 6907 6896 6895 6894 ] final   13.95 input  -60.11 | X-H torsion
[ 7974 7965 7964 7962 ] final -170.84 input  175.53 | X-H torsion
[ 8008 7997 7996 7995 ] final   86.86 input   59.86 | X-H torsion
[ 10167 10162 10161 10158 ] final -150.49 input  -65.29 | X-H torsion
[ 10718 10713 10712 10709 ] final -113.39 input   66.30 | X-H torsion
[ 10763 10752 10751 10750 ] final   60.82 input  -60.55 | X-H torsion
[ 11005 11000 10999 10996 ] final  -26.80 input  -57.11 | X-H torsion

> <Gold.Protein.ActiveResidues>
 VAL166  LYS551  ARG553  GLY616  TRP617  ASP618  TYR619  PRO620  LYS621  CYS622 
 ASP623  PHE694  ASN695  SER759  ASP760  ASP761  ALA762  ILE779  LEU786  VAL792 
 PHE793  MET794  SER795  GLU796  ALA797  LYS798  CYS799  TRP800  GLU811  SER814 

> <Gold.Protein.RotatedAtoms>
  151.7945  135.0726  160.0391 H   0  0  0  0  0  0  0  0  0  0  0  0  # atno 6907 bound_to 6896
  152.3133  133.5771  159.5703 H   0  0  0  0  0  0  0  0  0  0  0  0  # atno 6908 bound_to 6896
  150.7331  134.0036  159.3688 H   0  0  0  0  0  0  0  0  0  0  0  0  # atno 6909 bound_to 6896
  144.7164  140.2011  143.6338 H   0  0  0  0  0  0  0  0  0  0  0  0  # atno 7974 bound_to 7965
  155.9682  140.3388  155.6551 H   0  0  0  0  0  0  0  0  0  0  0  0  # atno 8008 bound_to 7997
  155.6710  140.0727  157.2538 H   0  0  0  0  0  0  0  0  0  0  0  0  # atno 8009 bound_to 7997
  154.4159  140.1691  156.1866 H   0  0  0  0  0  0  0  0  0  0  0  0  # atno 8010 bound_to 7997
  139.7349  143.8750  152.2546 H   0  0  0  0  0  0  0  0  0  0  0  0  # atno 10167 bound_to 10162
  156.0763  130.5970  150.8635 H   0  0  0  0  0  0  0  0  0  0  0  0  # atno 10718 bound_to 10713
  152.9932  135.5523  154.5934 H   0  0  0  0  0  0  0  0  0  0  0  0  # atno 10763 bound_to 10752
  154.5291  135.2812  155.1198 H   0  0  0  0  0  0  0  0  0  0  0  0  # atno 10764 bound_to 10752
  154.2520  135.6397  153.5296 H   0  0  0  0  0  0  0  0  0  0  0  0  # atno 10765 bound_to 10752
  140.9062  133.7491  156.0609 H   0  0  0  0  0  0  0  0  0  0  0  0  # atno 11005 bound_to 11000
  145.8679  139.2256  143.1678 LP  0  0  0  0  0  0  0  0  0  0  0  0  # atno 17320 bound_to 7965
  146.0112  140.8433  142.9970 LP  0  0  0  0  0  0  0  0  0  0  0  0  # atno 17321 bound_to 7965
  139.8684  144.7081  150.9016 LP  0  0  0  0  0  0  0  0  0  0  0  0  # atno 17342 bound_to 10162
  140.7777  143.3758  151.1565 LP  0  0  0  0  0  0  0  0  0  0  0  0  # atno 17343 bound_to 10162
  157.5860  131.0945  150.9195 LP  0  0  0  0  0  0  0  0  0  0  0  0  # atno 17370 bound_to 10713
  156.9381  130.5374  149.5280 LP  0  0  0  0  0  0  0  0  0  0  0  0  # atno 17371 bound_to 10713
  140.8168  134.3336  157.5394 LP  0  0  0  0  0  0  0  0  0  0  0  0  # atno 17394 bound_to 11000
  139.8750  134.9286  156.3455 LP  0  0  0  0  0  0  0  0  0  0  0  0  # atno 17395 bound_to 11000

$$$$
