AV-unprocessed.smi:1047|AV-procd|sdf|4570|dock2
  -GOLD-   22720 3 23D 1   1.00000     0.00000
 Structure written by MMmdl.
 56 58  0  0  0  0  0  0  0  0  2 V2000
  144.0186  133.6708  150.3853 C   0  0  0  0  0  0  0  0  0  0  0  0
  144.8677  134.6217  151.2409 C   0  0  0  0  0  0  0  0  0  0  0  0
  145.6442  133.9739  152.2972 N   0  0  0  0  0  0  0  0  0  0  0  0
  146.7505  133.1779  151.7710 C   0  0  0  0  0  0  0  0  0  0  0  0
  147.5758  132.5308  152.8961 C   0  0  0  0  0  0  0  0  0  0  0  0
  148.0396  133.5379  153.7897 O   0  0  0  0  0  0  0  0  0  0  0  0
  146.9821  134.2972  154.3706 C   0  0  1  0  0  0  0  0  0  0  0  0
  147.6004  135.3358  155.3160 C   0  0  0  0  0  0  0  0  0  0  0  0
  148.6041  136.1616  154.6159 N   0  3  0  0  0  0  0  0  0  0  0  0
  149.9979  135.8646  155.0017 C   0  0  0  0  0  0  0  0  0  0  0  0
  150.7026  137.1019  155.5933 C   0  0  1  0  0  0  0  0  0  0  0  0
  151.9089  136.6984  156.2107 O   0  0  0  0  0  0  0  0  0  0  0  0
  151.0626  138.1679  154.5389 C   0  0  0  0  0  0  0  0  0  0  0  0
  150.8045  139.5209  154.9973 N   0  0  0  0  0  0  0  0  0  0  0  0
  150.0059  140.4340  154.4121 C   0  0  0  0  0  0  0  0  0  0  0  0
  149.9122  141.6246  154.9966 N   0  0  0  0  0  0  0  0  0  0  0  0
  150.7415  141.4638  156.0933 C   0  0  0  0  0  0  0  0  0  0  0  0
  151.0820  142.3650  157.1255 C   0  0  0  0  0  0  0  0  0  0  0  0
  151.9670  141.9830  158.1587 C   0  0  0  0  0  0  0  0  0  0  0  0
  152.3036  142.9844  159.2499 C   0  0  0  0  0  0  0  0  0  0  0  0
  152.5275  140.6804  158.1687 C   0  0  0  0  0  0  0  0  0  0  0  0
  153.4815  140.2485  159.2682 C   0  0  0  0  0  0  0  0  0  0  0  0
  152.1966  139.7668  157.1463 C   0  0  0  0  0  0  0  0  0  0  0  0
  151.3142  140.1587  156.1238 C   0  0  0  0  0  0  0  0  0  0  0  0
  146.1723  134.9569  153.2367 C   0  0  0  0  0  0  0  0  0  0  0  0
  143.3967  134.2351  149.6904 H   0  0  0  0  0  0  0  0  0  0  0  0
  143.3560  133.0675  151.0064 H   0  0  0  0  0  0  0  0  0  0  0  0
  144.6341  132.9955  149.7914 H   0  0  0  0  0  0  0  0  0  0  0  0
  145.5293  135.1998  150.5942 H   0  0  0  0  0  0  0  0  0  0  0  0
  144.1885  135.3438  151.6960 H   0  0  0  0  0  0  0  0  0  0  0  0
  146.3745  132.3904  151.1184 H   0  0  0  0  0  0  0  0  0  0  0  0
  147.4019  133.8058  151.1610 H   0  0  0  0  0  0  0  0  0  0  0  0
  146.9783  131.7986  153.4414 H   0  0  0  0  0  0  0  0  0  0  0  0
  148.4323  131.9997  152.4808 H   0  0  0  0  0  0  0  0  0  0  0  0
  146.3296  133.6333  154.9411 H   0  0  0  0  0  0  0  0  0  0  0  0
  146.8226  135.9759  155.7347 H   0  0  0  0  0  0  0  0  0  0  0  0
  148.0865  134.8309  156.1520 H   0  0  0  0  0  0  0  0  0  0  0  0
  148.5052  136.0172  153.6212 H   0  0  0  0  0  0  0  0  0  0  0  0
  150.0184  135.0381  155.7137 H   0  0  0  0  0  0  0  0  0  0  0  0
  150.5185  135.5258  154.1058 H   0  0  0  0  0  0  0  0  0  0  0  0
  150.0674  137.5580  156.3540 H   0  0  0  0  0  0  0  0  0  0  0  0
  152.0616  137.2379  156.9710 H   0  0  0  0  0  0  0  0  0  0  0  0
  152.1191  138.0964  154.2756 H   0  0  0  0  0  0  0  0  0  0  0  0
  150.5023  137.9998  153.6180 H   0  0  0  0  0  0  0  0  0  0  0  0
  149.4659  140.2130  153.5028 H   0  0  0  0  0  0  0  0  0  0  0  0
  150.6552  143.3573  157.1179 H   0  0  0  0  0  0  0  0  0  0  0  0
  152.0395  142.5861  160.2300 H   0  0  0  0  0  0  0  0  0  0  0  0
  151.7607  143.9202  159.1133 H   0  0  0  0  0  0  0  0  0  0  0  0
  153.3699  143.2120  159.2438 H   0  0  0  0  0  0  0  0  0  0  0  0
  153.8419  139.2321  159.1062 H   0  0  0  0  0  0  0  0  0  0  0  0
  152.9831  140.2767  160.2373 H   0  0  0  0  0  0  0  0  0  0  0  0
  154.3486  140.9082  159.3046 H   0  0  0  0  0  0  0  0  0  0  0  0
  152.6161  138.7717  157.1435 H   0  0  0  0  0  0  0  0  0  0  0  0
  146.8041  135.6715  152.7062 H   0  0  0  0  0  0  0  0  0  0  0  0
  145.3505  135.5299  153.6682 H   0  0  0  0  0  0  0  0  0  0  0  0
  148.4146  137.1320  154.8230 H   0  0  0  0  0  0  0  0  0  0  0  0
  1  2  1  0  0  0  0
  1 26  1  0  0  0  0
  1 27  1  0  0  0  0
  1 28  1  0  0  0  0
  2  3  1  0  0  0  0
  2 29  1  0  0  0  0
  2 30  1  0  0  0  0
  3 25  1  0  0  0  0
  3  4  1  0  0  0  0
  4  5  1  0  0  0  0
  4 31  1  0  0  0  0
  4 32  1  0  0  0  0
  5  6  1  0  0  0  0
  5 33  1  0  0  0  0
  5 34  1  0  0  0  0
  6  7  1  0  0  0  0
  7  8  1  0  0  0  0
  7 25  1  0  0  0  0
  7 35  1  0  0  0  0
  8  9  1  0  0  0  0
  8 36  1  0  0  0  0
  8 37  1  0  0  0  0
  9 10  1  0  0  0  0
  9 38  1  0  0  0  0
  9 56  1  0  0  0  0
 10 11  1  0  0  0  0
 10 39  1  0  0  0  0
 10 40  1  0  0  0  0
 11 12  1  0  0  0  0
 11 13  1  0  0  0  0
 11 41  1  0  0  0  0
 12 42  1  0  0  0  0
 13 14  1  0  0  0  0
 13 43  1  0  0  0  0
 13 44  1  0  0  0  0
 14 24  1  0  0  0  0
 14 15  1  0  0  0  0
 15 16  2  0  0  0  0
 15 45  1  0  0  0  0
 16 17  1  0  0  0  0
 17 24  2  0  0  0  0
 17 18  1  0  0  0  0
 18 19  2  0  0  0  0
 18 46  1  0  0  0  0
 19 20  1  0  0  0  0
 19 21  1  0  0  0  0
 20 47  1  0  0  0  0
 20 48  1  0  0  0  0
 20 49  1  0  0  0  0
 21 22  1  0  0  0  0
 21 23  2  0  0  0  0
 22 50  1  0  0  0  0
 22 51  1  0  0  0  0
 22 52  1  0  0  0  0
 23 24  1  0  0  0  0
 23 53  1  0  0  0  0
 25 54  1  0  0  0  0
 25 55  1  0  0  0  0
M  CHG  1   9   1
M  END
> <s_m_source_file>
AV-unprocessed.smi

> <i_m_source_file_index>
1047

> <i_lp_mmshare_version>
43012

> <i_f3d_flags>
0

> <s_epik_input>
W0NIM11bQ0gyXU4xW0NIMl1bQ0gyXU9bQ0BIXShbQ0gyXTEpW0NIMl1bTkhdW0NIMl1bQ0BIXShbT0hdKVtDSDJdbihbY0hdbjIpYyhjMjMpW2NIXWMoW0NIM10pYyhbY0hdMylbQ0gzXQ==

> <s_epik_cmdline>
J2VwaWtfcHl0aG9uJywgJy1waCcsICc3LjAnLCAnLXRuJywgJzgnLCAnLW1hJywgJzIwMCcsICctbWV0YWxfYmluZGluZycsICctaW1hZScsICc8aW5maWxlLm1hZT4nLCAnLW9tYWUnLCAnPG91dGZpbGUubWFlPic=

> <r_epik_Ionization_Penalty>
0.692425

> <r_epik_Ionization_Penalty_Charging>
0.0243549

> <r_epik_Ionization_Penalty_Neutral>
0.66807

> <r_epik_State_Penalty>
0.592789

> <r_epik_Charging_Adjusted_Penalty>
0.617144

> <i_epik_Tot_Q>
1

> <i_epik_Tot_abs_Q>
1

> <r_epik_Metal_State_Penalty>
0.508021

> <b_epik_Metal_Only>
0

> <s_lp_Force_Field>
OPLS_2005

> <r_lp_Energy>
31.2277

> <b_lp_Chiralities_Consistent>
1

> <s_lp_Variant>
AV-unprocessed.smi:1047-11

> <Gold.Version>
5.8.1

> <Gold.Id.Protein>
6NUR|6NUR_protein|mol2

> <Gold.PLP.Fitness>
51.6887

> <Gold.PLP.PLP>
-42.4453

> <Gold.PLP.part.hbond>
-2.5994

> <Gold.PLP.part.metal>
0.0000

> <Gold.PLP.part.buried>
-2.2823

> <Gold.PLP.part.nonpolar>
-37.8171

> <Gold.PLP.part.repulsive>
0.3652

> <Gold.PLP.ligand.clash>
0.0000

> <Gold.PLP.ligand.torsion>
1.4670

> <Gold.PLP.Chemscore.Hbond>
3.0000

> <Gold.PLP.Chemscore.CHOScore>
1.0000

> <Gold.PLP.Chemscore.Metal>
0.0000

> <Gold.Chemscore.Hbonds>
donor molecule, donor type, donor heavy atom, donor atom, acceptor molecule, acceptor atom, score
      L1  H     9    38       P1  7948  2.00
      P1  H 10752 10764       L1    12  0.86
      L1  C    15    45       P1  7957  1.00

> <Gold.PLP.Chemscore.Internal.Correction>
0.1775

> <Gold.Rescore>
     Score         DG    S(hbond)    S(metal)    S(lipo)     H(rot)  DE(clash)    DE(int)     intcor
     16.89     -18.36       1.95        0.00     111.31       2.60       0.07       1.40       ----

> <Gold.Chemscore.Fitness>
16.8919

> <Gold.Chemscore.DG>
-18.3598

> <Gold.Chemscore.ZeroCoef>
-5.4800

> <Gold.Chemscore.Hbond>
1.9534

> <Gold.Chemscore.Metal>
0.0000

> <Gold.Chemscore.Lipo>
111.3148

> <Gold.Chemscore.Internal_Hbond>
0.0000

> <Gold.Chemscore.DEClash>
0.0709

> <Gold.Chemscore.DEInternal>
1.3969

> <Gold.Chemscore.Rot>
2.6049

> <Gold.Chemscore.Internal.Correction>
   9.000000E+99

> <Gold.Chemscore.Hbonds>
donor molecule, donor type, donor heavy atom, donor atom, acceptor molecule, acceptor atom, score
      L1  H     9    38       P1  7948  0.98
      P1  H 10752 10764       L1    12  0.71

> <Gold.Chemscore.Hbond.Weighted>
-6.5244

> <Gold.Chemscore.Metal.Weighted>
-0.0000

> <Gold.Chemscore.Lipo.Weighted>
-13.0238

> <Gold.Chemscore.Internal_Hbond.Weighted>
0.0000

> <Gold.Chemscore.DEClash.Weighted>
0.0709

> <Gold.Chemscore.DEInternal.Weighted>
1.3969

> <Gold.Chemscore.Rot.Weighted>
6.6685

> <Gold.Chemscore.Internal.Correction.Weighted>
   9.000000E+99

> <Gold.Protein.RotatedTorsions>
[ 6907 6896 6895 6894 ] final  -35.96 input  -60.11 | X-H torsion
[ 7974 7965 7964 7962 ] final  102.70 input  175.53 | X-H torsion
[ 8008 7997 7996 7995 ] final  138.98 input   59.86 | X-H torsion
[ 10167 10162 10161 10158 ] final -114.84 input  -65.29 | X-H torsion
[ 10718 10713 10712 10709 ] final  101.66 input   66.30 | X-H torsion
[ 10763 10752 10751 10750 ] final  -35.95 input  -60.55 | X-H torsion
[ 11005 11000 10999 10996 ] final -179.07 input  -57.11 | X-H torsion

> <Gold.Protein.ActiveResidues>
 VAL166  LYS551  ARG553  GLY616  TRP617  ASP618  TYR619  PRO620  LYS621  CYS622 
 ASP623  PHE694  ASN695  SER759  ASP760  ASP761  ALA762  ILE779  LEU786  VAL792 
 PHE793  MET794  SER795  GLU796  ALA797  LYS798  CYS799  TRP800  GLU811  SER814 

> <Gold.Protein.RotatedAtoms>
  151.0332  134.9554  159.8121 H   0  0  0  0  0  0  0  0  0  0  0  0  # atno 6907 bound_to 6896
  152.5349  134.2754  159.8997 H   0  0  0  0  0  0  0  0  0  0  0  0  # atno 6908 bound_to 6896
  151.2764  133.4188  159.2658 H   0  0  0  0  0  0  0  0  0  0  0  0  # atno 6909 bound_to 6896
  145.3557  139.2429  143.3534 H   0  0  0  0  0  0  0  0  0  0  0  0  # atno 7974 bound_to 7965
  156.2993  140.2379  156.4162 H   0  0  0  0  0  0  0  0  0  0  0  0  # atno 8008 bound_to 7997
  154.8396  140.0429  157.1552 H   0  0  0  0  0  0  0  0  0  0  0  0  # atno 8009 bound_to 7997
  154.9117  140.2991  155.5266 H   0  0  0  0  0  0  0  0  0  0  0  0  # atno 8010 bound_to 7997
  140.0966  143.4651  152.1838 H   0  0  0  0  0  0  0  0  0  0  0  0  # atno 10167 bound_to 10162
  157.6823  131.0732  150.5286 H   0  0  0  0  0  0  0  0  0  0  0  0  # atno 10718 bound_to 10713
  153.8717  135.6830  153.4774 H   0  0  0  0  0  0  0  0  0  0  0  0  # atno 10763 bound_to 10752
  153.1283  135.4709  154.9306 H   0  0  0  0  0  0  0  0  0  0  0  0  # atno 10764 bound_to 10752
  154.7711  135.3239  154.8138 H   0  0  0  0  0  0  0  0  0  0  0  0  # atno 10765 bound_to 10752
  140.4228  134.6590  157.4672 H   0  0  0  0  0  0  0  0  0  0  0  0  # atno 11005 bound_to 11000
  146.2949  140.4181  142.8725 LP  0  0  0  0  0  0  0  0  0  0  0  0  # atno 17320 bound_to 7965
  144.8684  140.7238  143.6062 LP  0  0  0  0  0  0  0  0  0  0  0  0  # atno 17321 bound_to 7965
  139.5695  144.7454  151.3931 LP  0  0  0  0  0  0  0  0  0  0  0  0  # atno 17342 bound_to 10162
  140.7000  143.7654  150.7388 LP  0  0  0  0  0  0  0  0  0  0  0  0  # atno 17343 bound_to 10162
  156.5596  130.4252  149.6069 LP  0  0  0  0  0  0  0  0  0  0  0  0  # atno 17370 bound_to 10713
  156.2832  130.7082  151.1912 LP  0  0  0  0  0  0  0  0  0  0  0  0  # atno 17371 bound_to 10713
  140.0188  134.6578  155.9269 LP  0  0  0  0  0  0  0  0  0  0  0  0  # atno 17394 bound_to 11000
  141.1777  133.6542  156.4895 LP  0  0  0  0  0  0  0  0  0  0  0  0  # atno 17395 bound_to 11000

$$$$
