AV-unprocessed.smi:107|AV-procd|sdf|1025|dock1
  -GOLD-   2262018 23D 1   1.00000     0.00000
 Structure written by MMmdl.
 30 31  0  0  0  0  0  0  0  0  2 V2000
  149.8936  137.0277  159.3913 C   0  0  0  0  0  0  0  0  0  0  0  0
  150.6429  137.2827  158.0949 C   0  0  0  0  0  0  0  0  0  0  0  0
  150.9330  138.5301  157.6625 C   0  0  0  0  0  0  0  0  0  0  0  0
  151.6192  138.7646  156.4804 N   0  0  0  0  0  0  0  0  0  0  0  0
  151.8733  140.1665  155.9469 C   0  0  2  0  0  0  0  0  0  0  0  0
  151.7066  141.2898  156.9770 C   0  0  0  0  0  0  0  0  0  0  0  0
  150.2775  141.7386  156.7324 C   0  0  1  0  0  0  0  0  0  0  0  0
  150.1058  143.0917  157.1019 O   0  0  0  0  0  0  0  0  0  0  0  0
  150.1176  141.5224  155.2242 C   0  0  2  0  0  0  0  0  0  0  0  0
  148.6728  141.2125  154.8033 C   0  0  0  0  0  0  0  0  0  0  0  0
  147.8534  142.3451  155.0007 O   0  0  0  0  0  0  0  0  0  0  0  0
  150.9533  140.4052  154.9231 O   0  0  0  0  0  0  0  0  0  0  0  0
  151.9744  137.6590  155.6599 C   0  0  0  0  0  0  0  0  0  0  0  0
  152.5226  137.8874  154.5812 O   0  0  0  0  0  0  0  0  0  0  0  0
  151.6988  136.3964  156.0946 N   0  5  0  0  0  0  0  0  0  0  0  0
  151.0612  136.1433  157.2722 C   0  0  0  0  0  0  0  0  0  0  0  0
  150.8274  134.9982  157.6574 O   0  0  0  0  0  0  0  0  0  0  0  0
  149.6472  137.9611  159.8982 H   0  0  0  0  0  0  0  0  0  0  0  0
  150.4987  136.4253  160.0696 H   0  0  0  0  0  0  0  0  0  0  0  0
  148.9629  136.4951  159.1943 H   0  0  0  0  0  0  0  0  0  0  0  0
  150.6090  139.3532  158.2765 H   0  0  0  0  0  0  0  0  0  0  0  0
  152.8946  140.1463  155.5634 H   0  0  0  0  0  0  0  0  0  0  0  0
  151.9360  140.9821  157.9970 H   0  0  0  0  0  0  0  0  0  0  0  0
  152.4018  142.0862  156.7064 H   0  0  0  0  0  0  0  0  0  0  0  0
  149.5728  141.1178  157.2848 H   0  0  0  0  0  0  0  0  0  0  0  0
  149.6915  143.5472  156.3849 H   0  0  0  0  0  0  0  0  0  0  0  0
  150.5067  142.3923  154.6913 H   0  0  0  0  0  0  0  0  0  0  0  0
  148.6266  140.8838  153.7646 H   0  0  0  0  0  0  0  0  0  0  0  0
  148.2671  140.4073  155.4163 H   0  0  0  0  0  0  0  0  0  0  0  0
  148.3630  143.1196  154.8192 H   0  0  0  0  0  0  0  0  0  0  0  0
  1  2  1  0  0  0  0
  1 18  1  0  0  0  0
  1 19  1  0  0  0  0
  1 20  1  0  0  0  0
  2 16  1  0  0  0  0
  2  3  2  0  0  0  0
  3  4  1  0  0  0  0
  3 21  1  0  0  0  0
  4  5  1  0  0  0  0
  4 13  1  0  0  0  0
  5 12  1  0  0  0  0
  5  6  1  0  0  0  0
  5 22  1  0  0  0  0
  6  7  1  0  0  0  0
  6 23  1  0  0  0  0
  6 24  1  0  0  0  0
  7  8  1  0  0  0  0
  7  9  1  0  0  0  0
  7 25  1  0  0  0  0
  8 26  1  0  0  0  0
  9 10  1  0  0  0  0
  9 12  1  0  0  0  0
  9 27  1  0  0  0  0
 10 11  1  0  0  0  0
 10 28  1  0  0  0  0
 10 29  1  0  0  0  0
 11 30  1  0  0  0  0
 13 14  2  0  0  0  0
 13 15  1  0  0  0  0
 15 16  1  0  0  0  0
 16 17  2  0  0  0  0
M  CHG  1  15  -1
M  END
> <s_m_source_file>
AV-unprocessed.smi

> <i_m_source_file_index>
107

> <i_lp_mmshare_version>
43012

> <i_f3d_flags>
0

> <s_epik_input>
Tz1jMVtuSF1jKD1PKW4oW2NIXWMxW0NIM10pW0NAQEhdMltDSDJdW0NAQEhdKFtPSF0pW0NASF0oTzIpW0NIMl1bT0hd

> <s_epik_cmdline>
J2VwaWtfcHl0aG9uJywgJy1waCcsICc3LjAnLCAnLXRuJywgJzgnLCAnLW1hJywgJzIwMCcsICctbWV0YWxfYmluZGluZycsICctaW1hZScsICc8aW5maWxlLm1hZT4nLCAnLW9tYWUnLCAnPG91dGZpbGUubWFlPic=

> <r_lp_tautomer_probability>
0.999537

> <r_epik_Ionization_Penalty>
3.66603

> <r_epik_Ionization_Penalty_Charging>
1.09773e-07

> <r_epik_Ionization_Penalty_Neutral>
3.66603

> <r_epik_State_Penalty>
3.66562

> <r_epik_Charging_Adjusted_Penalty>
3.66562

> <i_epik_Tot_Q>
-1

> <i_epik_Tot_abs_Q>
1

> <r_epik_Metal_State_Penalty>
0.234536

> <b_epik_Metal_Only>
1

> <s_epik_Chemistry_Notes>
This compound contains an acetal/aminal-like group ( X-CH(R)-Y where X, Y are N, S, or O) that may be acid/base labile, releasing an aldehyde.

> <s_lp_Force_Field>
OPLS_2005

> <r_lp_Energy>
34.2807

> <b_lp_Chiralities_Consistent>
1

> <s_lp_Variant>
AV-unprocessed.smi:107-13

> <Gold.Version>
5.8.1

> <Gold.Id.Protein>
6NUR|6NUR_protein|mol2

> <Gold.PLP.Fitness>
41.0578

> <Gold.PLP.PLP>
-25.6545

> <Gold.PLP.part.hbond>
-5.7870

> <Gold.PLP.part.metal>
0.0000

> <Gold.PLP.part.buried>
-5.1105

> <Gold.PLP.part.nonpolar>
-15.8526

> <Gold.PLP.part.repulsive>
0.1484

> <Gold.PLP.ligand.clash>
0.0000

> <Gold.PLP.ligand.torsion>
0.3778

> <Gold.PLP.Chemscore.Hbond>
5.3690

> <Gold.PLP.Chemscore.CHOScore>
0.0000

> <Gold.PLP.Chemscore.Metal>
0.0000

> <Gold.Chemscore.Hbonds>
donor molecule, donor type, donor heavy atom, donor atom, acceptor molecule, acceptor atom, score
      L1  H     8    26       P1  8028  1.00
      L1  H    11    30       P1  8028  0.80
      P1  H  6896  6907       L1    17  0.32
      P1  H  7989  7998       L1    12  1.00
      P1  H 10752 10763       L1    15  1.70

> <Gold.PLP.Chemscore.Internal.Correction>
0.0520

> <Gold.Rescore>
     Score         DG    S(hbond)    S(metal)    S(lipo)     H(rot)  DE(clash)    DE(int)     intcor
     14.34     -15.02       3.62        0.00      37.04       2.69       0.01       0.67       ----

> <Gold.Chemscore.Fitness>
14.3440

> <Gold.Chemscore.DG>
-15.0245

> <Gold.Chemscore.ZeroCoef>
-5.4800

> <Gold.Chemscore.Hbond>
3.6197

> <Gold.Chemscore.Metal>
0.0000

> <Gold.Chemscore.Lipo>
37.0411

> <Gold.Chemscore.Internal_Hbond>
0.0000

> <Gold.Chemscore.DEClash>
0.0126

> <Gold.Chemscore.DEInternal>
0.6679

> <Gold.Chemscore.Rot>
2.6871

> <Gold.Chemscore.Internal.Correction>
   9.000000E+99

> <Gold.Chemscore.Hbonds>
donor molecule, donor type, donor heavy atom, donor atom, acceptor molecule, acceptor atom, score
      L1  H     8    26       P1  8028  0.97
      L1  H    11    30       P1  8028  0.79
      P1  H  6896  6907       L1    17  0.32
      P1  H  7989  7998       L1    12  0.26
      P1  H 10752 10763       L1    15  0.14

> <Gold.Chemscore.Hbond.Weighted>
-12.0897

> <Gold.Chemscore.Metal.Weighted>
-0.0000

> <Gold.Chemscore.Lipo.Weighted>
-4.3338

> <Gold.Chemscore.Internal_Hbond.Weighted>
0.0000

> <Gold.Chemscore.DEClash.Weighted>
0.0126

> <Gold.Chemscore.DEInternal.Weighted>
0.6679

> <Gold.Chemscore.Rot.Weighted>
6.8791

> <Gold.Chemscore.Internal.Correction.Weighted>
   9.000000E+99

> <Gold.Protein.RotatedTorsions>
[ 6907 6896 6895 6894 ] final -104.44 input  -60.11 | X-H torsion
[ 7974 7965 7964 7962 ] final  -30.03 input  175.53 | X-H torsion
[ 8008 7997 7996 7995 ] final   92.65 input   59.86 | X-H torsion
[ 10167 10162 10161 10158 ] final  -58.56 input  -65.29 | X-H torsion
[ 10718 10713 10712 10709 ] final   86.66 input   66.30 | X-H torsion
[ 10763 10752 10751 10750 ] final   92.34 input  -60.55 | X-H torsion
[ 11005 11000 10999 10996 ] final -116.52 input  -57.11 | X-H torsion

> <Gold.Protein.ActiveResidues>
 VAL166  LYS551  ARG553  GLY616  TRP617  ASP618  TYR619  PRO620  LYS621  CYS622 
 ASP623  PHE694  ASN695  SER759  ASP760  ASP761  ALA762  ILE779  LEU786  VAL792 
 PHE793  MET794  SER795  GLU796  ALA797  LYS798  CYS799  TRP800  GLU811  SER814 

> <Gold.Protein.RotatedAtoms>
  150.7287  134.0277  159.3722 H   0  0  0  0  0  0  0  0  0  0  0  0  # atno 6907 bound_to 6896
  151.8244  135.0639  160.0438 H   0  0  0  0  0  0  0  0  0  0  0  0  # atno 6908 bound_to 6896
  152.2980  133.5590  159.5636 H   0  0  0  0  0  0  0  0  0  0  0  0  # atno 6909 bound_to 6896
  146.1173  140.5488  142.8751 H   0  0  0  0  0  0  0  0  0  0  0  0  # atno 7974 bound_to 7965
  156.0377  140.3323  155.7209 H   0  0  0  0  0  0  0  0  0  0  0  0  # atno 8008 bound_to 7997
  155.5790  140.0635  157.2805 H   0  0  0  0  0  0  0  0  0  0  0  0  # atno 8009 bound_to 7997
  154.4380  140.1847  156.0945 H   0  0  0  0  0  0  0  0  0  0  0  0  # atno 8010 bound_to 7997
  140.6189  143.2412  151.5528 H   0  0  0  0  0  0  0  0  0  0  0  0  # atno 10167 bound_to 10162
  157.6931  131.0224  150.3007 H   0  0  0  0  0  0  0  0  0  0  0  0  # atno 10718 bound_to 10713
  153.2181  135.4365  155.0458 H   0  0  0  0  0  0  0  0  0  0  0  0  # atno 10763 bound_to 10752
  154.8236  135.3349  154.6968 H   0  0  0  0  0  0  0  0  0  0  0  0  # atno 10764 bound_to 10752
  153.7401  135.7005  153.5025 H   0  0  0  0  0  0  0  0  0  0  0  0  # atno 10765 bound_to 10752
  141.0417  133.9826  157.2984 H   0  0  0  0  0  0  0  0  0  0  0  0  # atno 11005 bound_to 11000
  144.7565  140.5319  143.6765 LP  0  0  0  0  0  0  0  0  0  0  0  0  # atno 17320 bound_to 7965
  145.5539  139.1477  143.3379 LP  0  0  0  0  0  0  0  0  0  0  0  0  # atno 17321 bound_to 7965
  139.5422  144.2617  152.1373 LP  0  0  0  0  0  0  0  0  0  0  0  0  # atno 17342 bound_to 10162
  140.1832  144.4824  150.6517 LP  0  0  0  0  0  0  0  0  0  0  0  0  # atno 17343 bound_to 10162
  156.3523  130.3833  149.7319 LP  0  0  0  0  0  0  0  0  0  0  0  0  # atno 17370 bound_to 10713
  156.4792  130.8033  151.3048 LP  0  0  0  0  0  0  0  0  0  0  0  0  # atno 17371 bound_to 10713
  139.9280  135.0201  156.8303 LP  0  0  0  0  0  0  0  0  0  0  0  0  # atno 17394 bound_to 11000
  140.6223  133.9983  155.7624 LP  0  0  0  0  0  0  0  0  0  0  0  0  # atno 17395 bound_to 11000

$$$$
