AV-unprocessed.smi:3284|AV-procd|sdf|12573|dock8
  -GOLD-   2272018493D 1   1.00000     0.00000
 Structure written by MMmdl.
 44 45  0  0  0  0  0  0  0  0  2 V2000
  152.4185  144.6938  157.7908 C   0  0  0  0  0  0  0  0  0  0  0  0
  152.2988  144.3417  159.2643 C   0  0  0  0  0  0  0  0  0  0  0  0
  151.6301  145.1641  160.0951 C   0  0  0  0  0  0  0  0  0  0  0  0
  151.5122  144.9569  161.5874 C   0  0  0  0  0  0  0  0  0  0  0  0
  152.6194  144.0345  162.1027 C   0  0  0  0  0  0  0  0  0  0  0  0
  152.7196  142.7515  161.2616 C   0  0  2  0  0  0  0  0  0  0  0  0
  153.7842  141.8205  161.8742 C   0  0  0  0  0  0  0  0  0  0  0  0
  152.9830  143.0481  159.7522 C   0  0  1  0  0  0  0  0  0  0  0  0
  152.6074  141.8096  158.8959 C   0  0  0  0  0  0  0  0  0  0  0  0
  151.1840  141.7885  158.5004 N   0  3  0  0  0  0  0  0  0  0  0  0
  150.8136  140.6382  157.6540 C   0  0  0  0  0  0  0  0  0  0  0  0
  151.8289  140.4328  156.5225 C   0  0  0  0  0  0  0  0  0  0  0  0
  151.3521  139.4416  155.5070 C   0  0  0  0  0  0  0  0  0  0  0  0
  151.9996  138.3164  155.2208 N   0  0  0  0  0  0  0  0  0  0  0  0
  151.2400  137.7131  154.2239 C   0  0  0  0  0  0  0  0  0  0  0  0
  150.1555  138.5058  153.9353 C   0  0  0  0  0  0  0  0  0  0  0  0
  150.2427  139.6176  154.7628 N   0  0  0  0  0  0  0  0  0  0  0  0
  149.3111  140.7285  154.7959 C   0  0  0  0  0  0  0  0  0  0  0  0
  153.4590  144.6443  157.4690 H   0  0  0  0  0  0  0  0  0  0  0  0
  152.0618  145.7058  157.5954 H   0  0  0  0  0  0  0  0  0  0  0  0
  151.8232  144.0169  157.1781 H   0  0  0  0  0  0  0  0  0  0  0  0
  151.1461  146.0478  159.7051 H   0  0  0  0  0  0  0  0  0  0  0  0
  151.5756  145.9230  162.0885 H   0  0  0  0  0  0  0  0  0  0  0  0
  150.5272  144.5444  161.8075 H   0  0  0  0  0  0  0  0  0  0  0  0
  153.5739  144.5625  162.0780 H   0  0  0  0  0  0  0  0  0  0  0  0
  152.4285  143.7917  163.1486 H   0  0  0  0  0  0  0  0  0  0  0  0
  151.7547  142.2480  161.3426 H   0  0  0  0  0  0  0  0  0  0  0  0
  154.7788  142.2633  161.8121 H   0  0  0  0  0  0  0  0  0  0  0  0
  153.8235  140.8499  161.3820 H   0  0  0  0  0  0  0  0  0  0  0  0
  153.5759  141.6309  162.9276 H   0  0  0  0  0  0  0  0  0  0  0  0
  154.0536  143.2277  159.6420 H   0  0  0  0  0  0  0  0  0  0  0  0
  153.1909  141.7778  157.9773 H   0  0  0  0  0  0  0  0  0  0  0  0
  152.8490  140.8968  159.4424 H   0  0  0  0  0  0  0  0  0  0  0  0
  150.6223  141.7625  159.3396 H   0  0  0  0  0  0  0  0  0  0  0  0
  150.7560  139.7411  158.2720 H   0  0  0  0  0  0  0  0  0  0  0  0
  149.8204  140.8066  157.2353 H   0  0  0  0  0  0  0  0  0  0  0  0
  152.0131  141.3807  156.0151 H   0  0  0  0  0  0  0  0  0  0  0  0
  152.7902  140.1126  156.9254 H   0  0  0  0  0  0  0  0  0  0  0  0
  151.5309  136.7659  153.7941 H   0  0  0  0  0  0  0  0  0  0  0  0
  149.3522  138.3746  153.2252 H   0  0  0  0  0  0  0  0  0  0  0  0
  148.6006  140.6472  153.9727 H   0  0  0  0  0  0  0  0  0  0  0  0
  149.8507  141.6709  154.7007 H   0  0  0  0  0  0  0  0  0  0  0  0
  148.7622  140.7203  155.7377 H   0  0  0  0  0  0  0  0  0  0  0  0
  150.9767  142.6404  157.9990 H   0  0  0  0  0  0  0  0  0  0  0  0
  1  2  1  0  0  0  0
  1 19  1  0  0  0  0
  1 20  1  0  0  0  0
  1 21  1  0  0  0  0
  2  8  1  0  0  0  0
  2  3  2  0  0  0  0
  3  4  1  0  0  0  0
  3 22  1  0  0  0  0
  4  5  1  0  0  0  0
  4 23  1  0  0  0  0
  4 24  1  0  0  0  0
  5  6  1  0  0  0  0
  5 25  1  0  0  0  0
  5 26  1  0  0  0  0
  6  7  1  0  0  0  0
  6  8  1  0  0  0  0
  6 27  1  0  0  0  0
  7 28  1  0  0  0  0
  7 29  1  0  0  0  0
  7 30  1  0  0  0  0
  8  9  1  0  0  0  0
  8 31  1  0  0  0  0
  9 10  1  0  0  0  0
  9 32  1  0  0  0  0
  9 33  1  0  0  0  0
 10 11  1  0  0  0  0
 10 34  1  0  0  0  0
 10 44  1  0  0  0  0
 11 12  1  0  0  0  0
 11 35  1  0  0  0  0
 11 36  1  0  0  0  0
 12 13  1  0  0  0  0
 12 37  1  0  0  0  0
 12 38  1  0  0  0  0
 13 17  1  0  0  0  0
 13 14  2  0  0  0  0
 14 15  1  0  0  0  0
 15 16  2  0  0  0  0
 15 39  1  0  0  0  0
 16 17  1  0  0  0  0
 16 40  1  0  0  0  0
 17 18  1  0  0  0  0
 18 41  1  0  0  0  0
 18 42  1  0  0  0  0
 18 43  1  0  0  0  0
M  CHG  1  10   1
M  END
> <s_m_source_file>
AV-unprocessed.smi

> <i_m_source_file_index>
3284

> <i_lp_mmshare_version>
43012

> <i_f3d_flags>
0

> <s_epik_input>
W0NIM11DMT1bQ0hdW0NIMl1bQ0gyXVtDQEBIXShbQ0gzXSlbQ0BIXTFbQ0gyXVtOSF1bQ0gyXVtDSDJdYzJuW2NIXVtjSF1uMltDSDNd

> <s_epik_cmdline>
J2VwaWtfcHl0aG9uJywgJy1waCcsICc3LjAnLCAnLXRuJywgJzgnLCAnLW1hJywgJzIwMCcsICctbWV0YWxfYmluZGluZycsICctaW1hZScsICc8aW5maWxlLm1hZT4nLCAnLW9tYWUnLCAnPG91dGZpbGUubWFlPic=

> <r_lp_tautomer_probability>
1

> <r_epik_Ionization_Penalty>
0.150779

> <r_epik_Ionization_Penalty_Charging>
0.150779

> <r_epik_Ionization_Penalty_Neutral>
1.39452e-13

> <r_epik_State_Penalty>
0.349447

> <r_epik_Charging_Adjusted_Penalty>
0.500226

> <i_epik_Tot_Q>
1

> <i_epik_Tot_abs_Q>
1

> <r_epik_Metal_State_Penalty>
0.000470967

> <b_epik_Metal_Only>
0

> <s_lp_Force_Field>
OPLS_2005

> <r_lp_Energy>
12.7039

> <b_lp_Chiralities_Consistent>
1

> <s_lp_Variant>
AV-unprocessed.smi:3284-2

> <Gold.Version>
5.8.1

> <Gold.Id.Protein>
6NUR|6NUR_protein|mol2

> <Gold.PLP.Fitness>
53.6137

> <Gold.PLP.PLP>
-46.5965

> <Gold.PLP.part.hbond>
0.0000

> <Gold.PLP.part.metal>
0.0000

> <Gold.PLP.part.buried>
2.1312

> <Gold.PLP.part.nonpolar>
-47.5902

> <Gold.PLP.part.repulsive>
0.1121

> <Gold.PLP.ligand.clash>
0.0000

> <Gold.PLP.ligand.torsion>
0.3324

> <Gold.PLP.Chemscore.Hbond>
0.0000

> <Gold.PLP.Chemscore.CHOScore>
2.5421

> <Gold.PLP.Chemscore.Metal>
0.0000

> <Gold.Chemscore.Hbonds>
donor molecule, donor type, donor heavy atom, donor atom, acceptor molecule, acceptor atom, score
      L1  C    15    39       P1  7949  0.96
      L1  C    16    40       P1  7948  0.87
      L1  C    16    40       P1  7957  0.44

> <Gold.PLP.Chemscore.Internal.Correction>
0.0557

> <Gold.Rescore>
     Score         DG    S(hbond)    S(metal)    S(lipo)     H(rot)  DE(clash)    DE(int)     intcor
     16.03     -17.97       0.00        0.00     141.99       1.61       1.55       0.39       ----

> <Gold.Chemscore.Fitness>
16.0328

> <Gold.Chemscore.DG>
-17.9698

> <Gold.Chemscore.ZeroCoef>
-5.4800

> <Gold.Chemscore.Hbond>
0.0000

> <Gold.Chemscore.Metal>
0.0000

> <Gold.Chemscore.Lipo>
141.9900

> <Gold.Chemscore.Internal_Hbond>
0.0000

> <Gold.Chemscore.DEClash>
1.5501

> <Gold.Chemscore.DEInternal>
0.3869

> <Gold.Chemscore.Rot>
1.6105

> <Gold.Chemscore.Internal.Correction>
   9.000000E+99

> <Gold.Chemscore.Hbond.Weighted>
-0.0000

> <Gold.Chemscore.Metal.Weighted>
-0.0000

> <Gold.Chemscore.Lipo.Weighted>
-16.6128

> <Gold.Chemscore.Internal_Hbond.Weighted>
0.0000

> <Gold.Chemscore.DEClash.Weighted>
1.5501

> <Gold.Chemscore.DEInternal.Weighted>
0.3869

> <Gold.Chemscore.Rot.Weighted>
4.1230

> <Gold.Chemscore.Internal.Correction.Weighted>
   9.000000E+99

> <Gold.Protein.RotatedTorsions>
[ 6907 6896 6895 6894 ] final  150.55 input  -60.11 | X-H torsion
[ 7974 7965 7964 7962 ] final   23.07 input  175.53 | X-H torsion
[ 8008 7997 7996 7995 ] final -170.63 input   59.86 | X-H torsion
[ 10167 10162 10161 10158 ] final  -83.73 input  -65.29 | X-H torsion
[ 10718 10713 10712 10709 ] final -173.75 input   66.30 | X-H torsion
[ 10763 10752 10751 10750 ] final -116.86 input  -60.55 | X-H torsion
[ 11005 11000 10999 10996 ] final  152.28 input  -57.11 | X-H torsion

> <Gold.Protein.ActiveResidues>
 VAL166  LYS551  ARG553  GLY616  TRP617  ASP618  TYR619  PRO620  LYS621  CYS622 
 ASP623  PHE694  ASN695  SER759  ASP760  ASP761  ALA762  ILE779  LEU786  VAL792 
 PHE793  MET794  SER795  GLU796  ALA797  LYS798  CYS799  TRP800  GLU811  SER814 

> <Gold.Protein.RotatedAtoms>
  152.1129  133.4311  159.4639 H   0  0  0  0  0  0  0  0  0  0  0  0  # atno 6907 bound_to 6896
  150.6868  134.2626  159.4565 H   0  0  0  0  0  0  0  0  0  0  0  0  # atno 6908 bound_to 6896
  152.0497  134.9661  160.0625 H   0  0  0  0  0  0  0  0  0  0  0  0  # atno 6909 bound_to 6896
  146.2001  139.7797  142.8768 H   0  0  0  0  0  0  0  0  0  0  0  0  # atno 7974 bound_to 7965
  155.9209  140.1074  157.1208 H   0  0  0  0  0  0  0  0  0  0  0  0  # atno 8008 bound_to 7997
  154.4054  140.1256  156.4743 H   0  0  0  0  0  0  0  0  0  0  0  0  # atno 8009 bound_to 7997
  155.7197  140.3470  155.5013 H   0  0  0  0  0  0  0  0  0  0  0  0  # atno 8010 bound_to 7997
  140.4199  143.2589  151.8904 H   0  0  0  0  0  0  0  0  0  0  0  0  # atno 10167 bound_to 10162
  156.7750  130.9462  151.3120 H   0  0  0  0  0  0  0  0  0  0  0  0  # atno 10718 bound_to 10713
  154.8535  135.4330  154.1888 H   0  0  0  0  0  0  0  0  0  0  0  0  # atno 10763 bound_to 10752
  153.2961  135.6965  153.7252 H   0  0  0  0  0  0  0  0  0  0  0  0  # atno 10764 bound_to 10752
  153.6400  135.3469  155.3043 H   0  0  0  0  0  0  0  0  0  0  0  0  # atno 10765 bound_to 10752
  140.1294  134.8812  157.2182 H   0  0  0  0  0  0  0  0  0  0  0  0  # atno 11005 bound_to 11000
  145.3513  141.0308  143.3337 LP  0  0  0  0  0  0  0  0  0  0  0  0  # atno 17320 bound_to 7965
  144.8664  139.5101  143.6788 LP  0  0  0  0  0  0  0  0  0  0  0  0  # atno 17321 bound_to 7965
  139.4782  144.5448  151.8474 LP  0  0  0  0  0  0  0  0  0  0  0  0  # atno 17342 bound_to 10162
  140.4545  144.1808  150.5900 LP  0  0  0  0  0  0  0  0  0  0  0  0  # atno 17343 bound_to 10162
  157.6673  130.9019  149.9961 LP  0  0  0  0  0  0  0  0  0  0  0  0  # atno 17370 bound_to 10713
  156.1254  130.3644  149.9818 LP  0  0  0  0  0  0  0  0  0  0  0  0  # atno 17371 bound_to 10713
  140.2862  134.3293  155.7328 LP  0  0  0  0  0  0  0  0  0  0  0  0  # atno 17394 bound_to 11000
  141.2167  133.7507  156.9437 LP  0  0  0  0  0  0  0  0  0  0  0  0  # atno 17395 bound_to 11000

$$$$
