AV-unprocessed.smi:2032|AV-procd|sdf|8234|dock3
  -GOLD-   2272010503D 1   1.00000     0.00000
 Structure written by MMmdl.
 42 43  0  0  0  0  0  0  0  0  1 V2000
  154.3620  141.3071  160.9058 C   0  0  0  0  0  0  0  0  0  0  0  0
  153.6320  142.0601  159.7885 C   0  0  1  0  0  0  0  0  0  0  0  0
  152.7560  141.1246  158.9335 C   0  0  0  0  0  0  0  0  0  0  0  0
  151.9885  141.8369  157.9057 N   0  0  0  0  0  0  0  0  0  0  0  0
  151.1230  140.9343  157.1105 C   0  0  1  0  0  0  0  0  0  0  0  0
  150.1415  141.7034  156.1899 C   0  0  0  0  0  0  0  0  0  0  0  0
  151.9206  139.9143  156.2467 C   0  0  0  0  0  0  0  0  0  0  0  0
  151.1820  138.6852  155.9691 N   0  0  0  0  0  0  0  0  0  0  0  0
  151.7381  137.5203  155.6055 C   0  0  0  0  0  0  0  0  0  0  0  0
  152.9519  137.3600  155.4741 O   0  0  0  0  0  0  0  0  0  0  0  0
  150.8029  136.5745  155.4090 N   0  0  0  0  0  0  0  0  0  0  0  0
  150.9890  135.2275  155.0009 C   0  0  0  0  0  0  0  0  0  0  0  0
  151.7274  134.3317  155.6665 N   0  0  0  0  0  0  0  0  0  0  0  0
  151.7365  133.0858  155.0340 C   0  0  0  0  0  0  0  0  0  0  0  0
  150.9946  133.0506  153.8796 C   0  0  0  0  0  0  0  0  0  0  0  0
  150.2487  134.5894  153.5402 S   0  0  0  0  0  0  0  0  0  0  0  0
  151.2252  142.8990  158.5704 C   0  0  0  0  0  0  0  0  0  0  0  0
  152.1050  143.8307  159.4255 C   0  0  1  0  0  0  0  0  0  0  0  0
  151.2768  144.8808  160.1734 C   0  0  0  0  0  0  0  0  0  0  0  0
  152.8099  143.0545  160.3855 O   0  0  0  0  0  0  0  0  0  0  0  0
  155.0221  140.5417  160.4970 H   0  0  0  0  0  0  0  0  0  0  0  0
  153.6567  140.8174  161.5778 H   0  0  0  0  0  0  0  0  0  0  0  0
  154.9713  141.9880  161.5005 H   0  0  0  0  0  0  0  0  0  0  0  0
  154.3739  142.5472  159.1534 H   0  0  0  0  0  0  0  0  0  0  0  0
  153.4267  140.3995  158.4780 H   0  0  0  0  0  0  0  0  0  0  0  0
  152.0763  140.5673  159.5804 H   0  0  0  0  0  0  0  0  0  0  0  0
  150.5154  140.3575  157.8094 H   0  0  0  0  0  0  0  0  0  0  0  0
  149.5468  141.0373  155.5659 H   0  0  0  0  0  0  0  0  0  0  0  0
  150.6756  142.3834  155.5256 H   0  0  0  0  0  0  0  0  0  0  0  0
  149.4144  142.2854  156.7546 H   0  0  0  0  0  0  0  0  0  0  0  0
  152.1944  140.3689  155.2942 H   0  0  0  0  0  0  0  0  0  0  0  0
  152.8531  139.6134  156.7216 H   0  0  0  0  0  0  0  0  0  0  0  0
  150.1773  138.7290  156.0561 H   0  0  0  0  0  0  0  0  0  0  0  0
  149.8444  136.8538  155.5564 H   0  0  0  0  0  0  0  0  0  0  0  0
  152.3000  132.2770  155.4752 H   0  0  0  0  0  0  0  0  0  0  0  0
  150.8423  132.2162  153.2114 H   0  0  0  0  0  0  0  0  0  0  0  0
  150.7220  143.5240  157.8348 H   0  0  0  0  0  0  0  0  0  0  0  0
  150.4481  142.4571  159.1960 H   0  0  0  0  0  0  0  0  0  0  0  0
  152.8246  144.3440  158.7854 H   0  0  0  0  0  0  0  0  0  0  0  0
  150.7205  145.5098  159.4780 H   0  0  0  0  0  0  0  0  0  0  0  0
  151.9179  145.5307  160.7692 H   0  0  0  0  0  0  0  0  0  0  0  0
  150.5600  144.4113  160.8477 H   0  0  0  0  0  0  0  0  0  0  0  0
  1  2  1  0  0  0  0
  1 21  1  0  0  0  0
  1 22  1  0  0  0  0
  1 23  1  0  0  0  0
  2 20  1  0  0  0  0
  2  3  1  0  0  0  0
  2 24  1  0  0  0  0
  3  4  1  0  0  0  0
  3 25  1  0  0  0  0
  3 26  1  0  0  0  0
  4  5  1  0  0  0  0
  4 17  1  0  0  0  0
  5  6  1  0  0  0  0
  5  7  1  0  0  0  0
  5 27  1  0  0  0  0
  6 28  1  0  0  0  0
  6 29  1  0  0  0  0
  6 30  1  0  0  0  0
  7  8  1  0  0  0  0
  7 31  1  0  0  0  0
  7 32  1  0  0  0  0
  8  9  1  0  0  0  0
  8 33  1  0  0  0  0
  9 10  2  0  0  0  0
  9 11  1  0  0  0  0
 11 12  1  0  0  0  0
 11 34  1  0  0  0  0
 12 16  1  0  0  0  0
 12 13  2  0  0  0  0
 13 14  1  0  0  0  0
 14 15  2  0  0  0  0
 14 35  1  0  0  0  0
 15 16  1  0  0  0  0
 15 36  1  0  0  0  0
 17 18  1  0  0  0  0
 17 37  1  0  0  0  0
 17 38  1  0  0  0  0
 18 19  1  0  0  0  0
 18 20  1  0  0  0  0
 18 39  1  0  0  0  0
 19 40  1  0  0  0  0
 19 41  1  0  0  0  0
 19 42  1  0  0  0  0
M  END
> <s_m_source_file>
AV-unprocessed.smi

> <i_m_source_file_index>
2032

> <i_lp_mmshare_version>
43012

> <i_f3d_flags>
0

> <s_epik_input>
W0NIM11bQ0BASF0xW0NIMl1OKFtDSDJdW0NASF0oTzEpW0NIM10pW0NASF0oW0NIM10pW0NIMl1bTkhdQyg9TylbTkhdYzJuW2NIXVtjSF1zMg==

> <s_epik_cmdline>
J2VwaWtfcHl0aG9uJywgJy1waCcsICc3LjAnLCAnLXRuJywgJzgnLCAnLW1hJywgJzIwMCcsICctbWV0YWxfYmluZGluZycsICctaW1hZScsICc8aW5maWxlLm1hZT4nLCAnLW9tYWUnLCAnPG91dGZpbGUubWFlPic=

> <r_lp_tautomer_probability>
0.999

> <r_epik_Ionization_Penalty>
0.219202

> <r_epik_Ionization_Penalty_Charging>
0

> <r_epik_Ionization_Penalty_Neutral>
0.219202

> <r_epik_State_Penalty>
0.209349

> <r_epik_Charging_Adjusted_Penalty>
0.209349

> <i_epik_Tot_Q>
0

> <i_epik_Tot_abs_Q>
0

> <r_epik_Metal_State_Penalty>
0.247737

> <b_epik_Metal_Only>
0

> <s_lp_Force_Field>
OPLS_2005

> <r_lp_Energy>
24.906

> <b_lp_Chiralities_Consistent>
1

> <s_lp_Variant>
AV-unprocessed.smi:2032-4

> <Gold.Version>
5.8.1

> <Gold.Id.Protein>
6NUR|6NUR_protein|mol2

> <Gold.PLP.Fitness>
39.5196

> <Gold.PLP.PLP>
-38.6153

> <Gold.PLP.part.hbond>
-1.5516

> <Gold.PLP.part.metal>
0.0000

> <Gold.PLP.part.buried>
-5.1156

> <Gold.PLP.part.nonpolar>
-32.0167

> <Gold.PLP.part.repulsive>
0.1161

> <Gold.PLP.ligand.clash>
0.0000

> <Gold.PLP.ligand.torsion>
1.0279

> <Gold.PLP.Chemscore.Hbond>
0.9760

> <Gold.PLP.Chemscore.CHOScore>
0.0000

> <Gold.PLP.Chemscore.Metal>
0.0000

> <Gold.Chemscore.Hbonds>
donor molecule, donor type, donor heavy atom, donor atom, acceptor molecule, acceptor atom, score
      P1  H 10752 10763       L1    10  0.37

> <Gold.PLP.Chemscore.Internal.Correction>
0.0322

> <Gold.Rescore>
     Score         DG    S(hbond)    S(metal)    S(lipo)     H(rot)  DE(clash)    DE(int)     intcor
     15.01     -15.98       0.96        0.00      96.77       1.57       0.12       0.84       ----

> <Gold.Chemscore.Fitness>
15.0131

> <Gold.Chemscore.DG>
-15.9790

> <Gold.Chemscore.ZeroCoef>
-5.4800

> <Gold.Chemscore.Hbond>
0.9606

> <Gold.Chemscore.Metal>
0.0000

> <Gold.Chemscore.Lipo>
96.7742

> <Gold.Chemscore.Internal_Hbond>
0.0000

> <Gold.Chemscore.DEClash>
0.1214

> <Gold.Chemscore.DEInternal>
0.8444

> <Gold.Chemscore.Rot>
1.5750

> <Gold.Chemscore.Internal.Correction>
   9.000000E+99

> <Gold.Chemscore.Hbonds>
donor molecule, donor type, donor heavy atom, donor atom, acceptor molecule, acceptor atom, score
      P1  H 10752 10763       L1    10  0.25

> <Gold.Chemscore.Hbond.Weighted>
-3.2083

> <Gold.Chemscore.Metal.Weighted>
-0.0000

> <Gold.Chemscore.Lipo.Weighted>
-11.3226

> <Gold.Chemscore.Internal_Hbond.Weighted>
0.0000

> <Gold.Chemscore.DEClash.Weighted>
0.1214

> <Gold.Chemscore.DEInternal.Weighted>
0.8444

> <Gold.Chemscore.Rot.Weighted>
4.0319

> <Gold.Chemscore.Internal.Correction.Weighted>
   9.000000E+99

> <Gold.Protein.RotatedTorsions>
[ 6907 6896 6895 6894 ] final  -69.04 input  -60.11 | X-H torsion
[ 7974 7965 7964 7962 ] final   59.11 input  175.53 | X-H torsion
[ 8008 7997 7996 7995 ] final  -71.60 input   59.86 | X-H torsion
[ 10167 10162 10161 10158 ] final  -11.60 input  -65.29 | X-H torsion
[ 10718 10713 10712 10709 ] final  161.32 input   66.30 | X-H torsion
[ 10763 10752 10751 10750 ] final   97.70 input  -60.55 | X-H torsion
[ 11005 11000 10999 10996 ] final  -21.64 input  -57.11 | X-H torsion

> <Gold.Protein.ActiveResidues>
 VAL166  LYS551  ARG553  GLY616  TRP617  ASP618  TYR619  PRO620  LYS621  CYS622 
 ASP623  PHE694  ASN695  SER759  ASP760  ASP761  ALA762  ILE779  LEU786  VAL792 
 PHE793  MET794  SER795  GLU796  ALA797  LYS798  CYS799  TRP800  GLU811  SER814 

> <Gold.Protein.RotatedAtoms>
  150.7325  134.5653  159.5862 H   0  0  0  0  0  0  0  0  0  0  0  0  # atno 6907 bound_to 6896
  152.3106  134.7499  160.0346 H   0  0  0  0  0  0  0  0  0  0  0  0  # atno 6908 bound_to 6896
  151.8048  133.3339  159.3574 H   0  0  0  0  0  0  0  0  0  0  0  0  # atno 6909 bound_to 6896
  145.9107  139.3652  143.0537 H   0  0  0  0  0  0  0  0  0  0  0  0  # atno 7974 bound_to 7965
  154.5101  140.0812  156.7972 H   0  0  0  0  0  0  0  0  0  0  0  0  # atno 8008 bound_to 7997
  155.3805  140.3427  155.4228 H   0  0  0  0  0  0  0  0  0  0  0  0  # atno 8009 bound_to 7997
  156.1562  140.1574  156.8675 H   0  0  0  0  0  0  0  0  0  0  0  0  # atno 8010 bound_to 7997
  140.7142  143.5623  150.9183 H   0  0  0  0  0  0  0  0  0  0  0  0  # atno 10167 bound_to 10162
  157.1381  131.0533  151.2340 H   0  0  0  0  0  0  0  0  0  0  0  0  # atno 10718 bound_to 10713
  153.2801  135.4174  155.1071 H   0  0  0  0  0  0  0  0  0  0  0  0  # atno 10763 bound_to 10752
  154.8486  135.3493  154.6123 H   0  0  0  0  0  0  0  0  0  0  0  0  # atno 10764 bound_to 10752
  153.6544  135.7051  153.5256 H   0  0  0  0  0  0  0  0  0  0  0  0  # atno 10765 bound_to 10752
  140.8581  133.7808  156.0042 H   0  0  0  0  0  0  0  0  0  0  0  0  # atno 11005 bound_to 11000
  145.8675  140.9439  143.0668 LP  0  0  0  0  0  0  0  0  0  0  0  0  # atno 17320 bound_to 7965
  144.6743  140.0611  143.7476 LP  0  0  0  0  0  0  0  0  0  0  0  0  # atno 17321 bound_to 7965
  139.9348  143.6451  152.3068 LP  0  0  0  0  0  0  0  0  0  0  0  0  # atno 17342 bound_to 10162
  139.6914  144.7646  151.1431 LP  0  0  0  0  0  0  0  0  0  0  0  0  # atno 17343 bound_to 10162
  157.4332  130.7502  149.7007 LP  0  0  0  0  0  0  0  0  0  0  0  0  # atno 17370 bound_to 10713
  155.9794  130.4040  150.3590 LP  0  0  0  0  0  0  0  0  0  0  0  0  # atno 17371 bound_to 10713
  140.8714  134.2721  157.5188 LP  0  0  0  0  0  0  0  0  0  0  0  0  # atno 17394 bound_to 11000
  139.8706  134.9569  156.4253 LP  0  0  0  0  0  0  0  0  0  0  0  0  # atno 17395 bound_to 11000

$$$$
