AV-unprocessed.smi:1501|AV-procd|sdf|6066|dock5
  -GOLD-   22720 6183D 1   1.00000     0.00000
 Structure written by MMmdl.
 48 49  0  0  0  0  0  0  0  0  2 V2000
  150.3051  139.0373  154.4209 C   0  0  0  0  0  0  0  0  0  0  0  0
  150.5505  138.9635  155.9174 C   0  0  0  0  0  0  0  0  0  0  0  0
  150.9939  140.1477  156.5239 N   0  0  0  0  0  0  0  0  0  0  0  0
  151.2355  140.1783  157.7999 C   0  0  0  0  0  0  0  0  0  0  0  0
  151.6784  141.3387  158.4406 N   0  0  0  0  0  0  0  0  0  0  0  0
  152.7859  141.2948  159.3984 C   0  0  0  0  0  0  0  0  0  0  0  0
  152.7444  142.4959  160.3578 C   0  0  0  0  0  0  0  0  0  0  0  0
  152.7390  143.7063  159.6128 O   0  0  0  0  0  0  0  0  0  0  0  0
  151.5917  143.7933  158.7789 C   0  0  0  0  0  0  0  0  0  0  0  0
  151.5963  142.6352  157.7673 C   0  0  0  0  0  0  0  0  0  0  0  0
  151.0623  139.0708  158.6155 N   0  5  0  0  0  0  0  0  0  0  0  0
  150.6265  137.8881  158.0957 C   0  0  0  0  0  0  0  0  0  0  0  0
  150.4540  136.8914  158.7964 O   0  0  0  0  0  0  0  0  0  0  0  0
  150.3549  137.8306  156.6488 C   0  0  0  0  0  0  0  0  0  0  0  0
  149.8905  136.5105  156.0373 C   0  0  0  0  0  0  0  0  0  0  0  0
  150.8581  135.3540  156.3537 C   0  0  0  0  0  0  0  0  0  0  0  0
  150.2365  133.9700  156.1430 C   0  0  0  0  0  0  0  0  0  0  0  0
  150.0760  133.2009  157.0914 O   0  0  0  0  0  0  0  0  0  0  0  0
  149.8984  133.6594  154.8823 N   0  0  0  0  0  0  0  0  0  0  0  0
  149.3094  132.3924  154.4605 C   0  0  0  0  0  0  0  0  0  0  0  0
  147.8828  132.5586  153.8950 C   0  0  0  0  0  0  0  0  0  0  0  0
  147.2608  131.1906  153.5790 C   0  0  0  0  0  0  0  0  0  0  0  0
  147.8485  133.4712  152.6571 C   0  0  0  0  0  0  0  0  0  0  0  0
  149.3079  138.6713  154.1757 H   0  0  0  0  0  0  0  0  0  0  0  0
  151.0389  138.4344  153.8858 H   0  0  0  0  0  0  0  0  0  0  0  0
  150.3832  140.0630  154.0584 H   0  0  0  0  0  0  0  0  0  0  0  0
  152.7741  140.3756  159.9845 H   0  0  0  0  0  0  0  0  0  0  0  0
  153.7241  141.2975  158.8424 H   0  0  0  0  0  0  0  0  0  0  0  0
  151.8657  142.4469  161.0027 H   0  0  0  0  0  0  0  0  0  0  0  0
  153.6184  142.4852  161.0091 H   0  0  0  0  0  0  0  0  0  0  0  0
  150.6840  143.7761  159.3847 H   0  0  0  0  0  0  0  0  0  0  0  0
  151.6055  144.7486  158.2545 H   0  0  0  0  0  0  0  0  0  0  0  0
  152.4436  142.7351  157.0881 H   0  0  0  0  0  0  0  0  0  0  0  0
  150.6918  142.6916  157.1601 H   0  0  0  0  0  0  0  0  0  0  0  0
  148.8914  136.2734  156.4026 H   0  0  0  0  0  0  0  0  0  0  0  0
  149.7772  136.6242  154.9578 H   0  0  0  0  0  0  0  0  0  0  0  0
  151.7504  135.4441  155.7321 H   0  0  0  0  0  0  0  0  0  0  0  0
  151.1919  135.4216  157.3894 H   0  0  0  0  0  0  0  0  0  0  0  0
  150.0632  134.3497  154.1640 H   0  0  0  0  0  0  0  0  0  0  0  0
  149.9600  131.9532  153.7037 H   0  0  0  0  0  0  0  0  0  0  0  0
  149.3064  131.6949  155.3000 H   0  0  0  0  0  0  0  0  0  0  0  0
  147.2633  133.0224  154.6640 H   0  0  0  0  0  0  0  0  0  0  0  0
  147.8309  130.6621  152.8141 H   0  0  0  0  0  0  0  0  0  0  0  0
  146.2374  131.2972  153.2181 H   0  0  0  0  0  0  0  0  0  0  0  0
  147.2302  130.5586  154.4671 H   0  0  0  0  0  0  0  0  0  0  0  0
  148.4686  133.0716  151.8541 H   0  0  0  0  0  0  0  0  0  0  0  0
  148.2077  134.4743  152.8885 H   0  0  0  0  0  0  0  0  0  0  0  0
  146.8330  133.5728  152.2731 H   0  0  0  0  0  0  0  0  0  0  0  0
  1  2  1  0  0  0  0
  1 24  1  0  0  0  0
  1 25  1  0  0  0  0
  1 26  1  0  0  0  0
  2 14  2  0  0  0  0
  2  3  1  0  0  0  0
  3  4  2  0  0  0  0
  4  5  1  0  0  0  0
  4 11  1  0  0  0  0
  5 10  1  0  0  0  0
  5  6  1  0  0  0  0
  6  7  1  0  0  0  0
  6 27  1  0  0  0  0
  6 28  1  0  0  0  0
  7  8  1  0  0  0  0
  7 29  1  0  0  0  0
  7 30  1  0  0  0  0
  8  9  1  0  0  0  0
  9 10  1  0  0  0  0
  9 31  1  0  0  0  0
  9 32  1  0  0  0  0
 10 33  1  0  0  0  0
 10 34  1  0  0  0  0
 11 12  1  0  0  0  0
 12 13  2  0  0  0  0
 12 14  1  0  0  0  0
 14 15  1  0  0  0  0
 15 16  1  0  0  0  0
 15 35  1  0  0  0  0
 15 36  1  0  0  0  0
 16 17  1  0  0  0  0
 16 37  1  0  0  0  0
 16 38  1  0  0  0  0
 17 18  2  0  0  0  0
 17 19  1  0  0  0  0
 19 20  1  0  0  0  0
 19 39  1  0  0  0  0
 20 21  1  0  0  0  0
 20 40  1  0  0  0  0
 20 41  1  0  0  0  0
 21 22  1  0  0  0  0
 21 23  1  0  0  0  0
 21 42  1  0  0  0  0
 22 43  1  0  0  0  0
 22 44  1  0  0  0  0
 22 45  1  0  0  0  0
 23 46  1  0  0  0  0
 23 47  1  0  0  0  0
 23 48  1  0  0  0  0
M  CHG  1  11  -1
M  END
> <s_m_source_file>
AV-unprocessed.smi

> <i_m_source_file_index>
1501

> <i_lp_mmshare_version>
43012

> <i_f3d_flags>
0

> <s_epik_input>
W0NIMl0xW0NIMl1PW0NIMl1bQ0gyXU4xYyhuYzJbQ0gzXSlbbkhdYyg9TyljMltDSDJdW0NIMl1DKD1PKVtOSF1bQ0gyXVtDSF0oW0NIM10pW0NIM10=

> <s_epik_cmdline>
J2VwaWtfcHl0aG9uJywgJy1waCcsICc3LjAnLCAnLXRuJywgJzgnLCAnLW1hJywgJzIwMCcsICctbWV0YWxfYmluZGluZycsICctaW1hZScsICc8aW5maWxlLm1hZT4nLCAnLW9tYWUnLCAnPG91dGZpbGUubWFlPic=

> <r_lp_tautomer_probability>
1

> <r_epik_Ionization_Penalty>
5.04715

> <r_epik_Ionization_Penalty_Charging>
9.89309e-08

> <r_epik_Ionization_Penalty_Neutral>
5.04715

> <r_epik_State_Penalty>
2.57778

> <r_epik_Charging_Adjusted_Penalty>
2.57778

> <i_epik_Tot_Q>
-1

> <i_epik_Tot_abs_Q>
1

> <r_epik_Metal_State_Penalty>
0.1232

> <b_epik_Metal_Only>
0

> <s_lp_Force_Field>
OPLS_2005

> <r_lp_Energy>
25.0321

> <b_lp_Chiralities_Consistent>
1

> <s_lp_Variant>
AV-unprocessed.smi:1501-3

> <Gold.Version>
5.8.1

> <Gold.Id.Protein>
6NUR|6NUR_protein|mol2

> <Gold.PLP.Fitness>
42.5422

> <Gold.PLP.PLP>
-37.3541

> <Gold.PLP.part.hbond>
-2.0000

> <Gold.PLP.part.metal>
0.0000

> <Gold.PLP.part.buried>
-5.7545

> <Gold.PLP.part.nonpolar>
-29.6043

> <Gold.PLP.part.repulsive>
0.0596

> <Gold.PLP.ligand.clash>
0.0000

> <Gold.PLP.ligand.torsion>
0.5633

> <Gold.PLP.Chemscore.Hbond>
2.0000

> <Gold.PLP.Chemscore.CHOScore>
0.0000

> <Gold.PLP.Chemscore.Metal>
0.0000

> <Gold.Chemscore.Hbonds>
donor molecule, donor type, donor heavy atom, donor atom, acceptor molecule, acceptor atom, score
      P1  H  6896  6907       L1    13  0.59
      P1  H  6896  6909       L1    18  0.16

> <Gold.PLP.Chemscore.Internal.Correction>
0.3148

> <Gold.Rescore>
     Score         DG    S(hbond)    S(metal)    S(lipo)     H(rot)  DE(clash)    DE(int)     intcor
     15.51     -17.51       1.96        0.00      85.95       1.79       0.00       2.00       ----

> <Gold.Chemscore.Fitness>
15.5109

> <Gold.Chemscore.DG>
-17.5109

> <Gold.Chemscore.ZeroCoef>
-5.4800

> <Gold.Chemscore.Hbond>
1.9612

> <Gold.Chemscore.Metal>
0.0000

> <Gold.Chemscore.Lipo>
85.9537

> <Gold.Chemscore.Internal_Hbond>
0.0000

> <Gold.Chemscore.DEClash>
0.0000

> <Gold.Chemscore.DEInternal>
2.0000

> <Gold.Chemscore.Rot>
1.7875

> <Gold.Chemscore.Internal.Correction>
   9.000000E+99

> <Gold.Chemscore.Hbonds>
donor molecule, donor type, donor heavy atom, donor atom, acceptor molecule, acceptor atom, score
      P1  H  6896  6907       L1    13  0.58
      P1  H  6896  6909       L1    18  0.17

> <Gold.Chemscore.Hbond.Weighted>
-6.5504

> <Gold.Chemscore.Metal.Weighted>
-0.0000

> <Gold.Chemscore.Lipo.Weighted>
-10.0566

> <Gold.Chemscore.Internal_Hbond.Weighted>
0.0000

> <Gold.Chemscore.DEClash.Weighted>
0.0000

> <Gold.Chemscore.DEInternal.Weighted>
2.0000

> <Gold.Chemscore.Rot.Weighted>
4.5760

> <Gold.Chemscore.Internal.Correction.Weighted>
   9.000000E+99

> <Gold.Protein.RotatedTorsions>
[ 6907 6896 6895 6894 ] final  -26.05 input  -60.11 | X-H torsion
[ 7974 7965 7964 7962 ] final   63.55 input  175.53 | X-H torsion
[ 8008 7997 7996 7995 ] final   35.87 input   59.86 | X-H torsion
[ 10167 10162 10161 10158 ] final    9.57 input  -65.29 | X-H torsion
[ 10718 10713 10712 10709 ] final  121.07 input   66.30 | X-H torsion
[ 10763 10752 10751 10750 ] final  -11.23 input  -60.55 | X-H torsion
[ 11005 11000 10999 10996 ] final  -23.58 input  -57.11 | X-H torsion

> <Gold.Protein.ActiveResidues>
 VAL166  LYS551  ARG553  GLY616  TRP617  ASP618  TYR619  PRO620  LYS621  CYS622 
 ASP623  PHE694  ASN695  SER759  ASP760  ASP761  ALA762  ILE779  LEU786  VAL792 
 PHE793  MET794  SER795  GLU796  ALA797  LYS798  CYS799  TRP800  GLU811  SER814 

> <Gold.Protein.RotatedAtoms>
  151.1664  135.0297  159.8732 H   0  0  0  0  0  0  0  0  0  0  0  0  # atno 6907 bound_to 6896
  152.5450  134.1220  159.8413 H   0  0  0  0  0  0  0  0  0  0  0  0  # atno 6908 bound_to 6896
  151.1321  133.4983  159.2631 H   0  0  0  0  0  0  0  0  0  0  0  0  # atno 6909 bound_to 6896
  145.8606  139.3312  143.0821 H   0  0  0  0  0  0  0  0  0  0  0  0  # atno 7974 bound_to 7965
  155.1782  140.3297  155.4380 H   0  0  0  0  0  0  0  0  0  0  0  0  # atno 8008 bound_to 7997
  156.2486  140.1931  156.6831 H   0  0  0  0  0  0  0  0  0  0  0  0  # atno 8009 bound_to 7997
  154.6290  140.0585  156.9695 H   0  0  0  0  0  0  0  0  0  0  0  0  # atno 8010 bound_to 7997
  140.6247  143.8128  150.7218 H   0  0  0  0  0  0  0  0  0  0  0  0  # atno 10167 bound_to 10162
  157.5844  131.1071  150.8123 H   0  0  0  0  0  0  0  0  0  0  0  0  # atno 10718 bound_to 10713
  153.4807  135.7017  153.5940 H   0  0  0  0  0  0  0  0  0  0  0  0  # atno 10763 bound_to 10752
  153.4154  135.3838  155.2077 H   0  0  0  0  0  0  0  0  0  0  0  0  # atno 10764 bound_to 10752
  154.8721  135.3915  154.4256 H   0  0  0  0  0  0  0  0  0  0  0  0  # atno 10765 bound_to 10752
  140.8765  133.7684  156.0249 H   0  0  0  0  0  0  0  0  0  0  0  0  # atno 11005 bound_to 11000
  145.9253  140.9087  143.0384 LP  0  0  0  0  0  0  0  0  0  0  0  0  # atno 17320 bound_to 7965
  144.6726  140.1344  143.7441 LP  0  0  0  0  0  0  0  0  0  0  0  0  # atno 17321 bound_to 7965
  140.1726  143.4182  152.1990 LP  0  0  0  0  0  0  0  0  0  0  0  0  # atno 17342 bound_to 10162
  139.5469  144.7306  151.4555 LP  0  0  0  0  0  0  0  0  0  0  0  0  # atno 17343 bound_to 10162
  156.8561  130.5097  149.5307 LP  0  0  0  0  0  0  0  0  0  0  0  0  # atno 17370 bound_to 10713
  156.0892  130.5882  150.9703 LP  0  0  0  0  0  0  0  0  0  0  0  0  # atno 17371 bound_to 10713
  140.8512  134.2952  157.5274 LP  0  0  0  0  0  0  0  0  0  0  0  0  # atno 17394 bound_to 11000
  139.8716  134.9469  156.3950 LP  0  0  0  0  0  0  0  0  0  0  0  0  # atno 17395 bound_to 11000

$$$$
