AV-unprocessed.smi:21|AV-procd|sdf|131|dock10
  -GOLD-   2262015323D 1   1.00000     0.00000
 Structure written by MMmdl.
 62 65  0  0  0  0  0  0  0  0  2 V2000
  145.5061  133.0063  150.3930 C   0  0  0  0  0  0  0  0  0  0  0  0
  145.8136  133.4258  151.7132 O   0  0  0  0  0  0  0  0  0  0  0  0
  144.9093  134.3920  152.2333 C   0  0  1  0  0  0  0  0  0  0  0  0
  145.1925  134.5819  153.7180 C   0  0  0  0  0  0  0  0  0  0  0  0
  146.3959  135.5318  153.7462 C   0  0  2  0  0  0  0  0  0  0  0  0
  146.5459  136.3169  155.0747 C   0  0  0  0  0  0  0  0  0  0  0  0
  147.9113  136.3022  155.5991 N   0  0  0  0  0  0  0  0  0  0  0  0
  148.5855  135.0094  155.7169 C   0  0  0  0  0  0  0  0  0  0  0  0
  148.6565  137.4463  155.6715 C   0  0  0  0  0  0  0  0  0  0  0  0
  148.6910  138.2568  154.5784 N   0  0  0  0  0  0  0  0  0  0  0  0
  149.3858  139.3964  154.5838 C   0  0  0  0  0  0  0  0  0  0  0  0
  150.1161  139.9193  155.5669 N   0  0  0  0  0  0  0  0  0  0  0  0
  150.1029  139.1182  156.6688 C   0  0  0  0  0  0  0  0  0  0  0  0
  149.4111  137.8779  156.8091 C   0  0  0  0  0  0  0  0  0  0  0  0
  149.6500  137.3668  158.0825 N   0  0  0  0  0  0  0  0  0  0  0  0
  150.4232  138.2470  158.6547 C   0  0  0  0  0  0  0  0  0  0  0  0
  150.7566  139.3257  157.8710 N   0  0  0  0  0  0  0  0  0  0  0  0
  151.5827  140.4571  158.2572 C   0  0  0  0  0  0  0  0  0  0  0  0
  150.7896  141.7283  158.6593 C   0  0  2  0  0  0  0  0  0  0  0  0
  149.9585  142.1828  157.4340 C   0  0  0  0  0  0  0  0  0  0  0  0
  150.7801  142.6212  156.3719 O   0  0  0  0  0  0  0  0  0  0  0  0
  151.7073  142.8668  159.2018 C   0  0  1  0  0  0  0  0  0  0  0  0
  151.0310  144.2148  159.3986 C   0  0  0  0  0  0  0  0  0  0  0  0
  152.0098  144.9385  160.3110 C   0  0  0  0  0  0  0  0  0  0  0  0
  152.4772  143.9329  161.1963 O   0  0  0  0  0  0  0  0  0  0  0  0
  152.2930  142.6490  160.6066 C   0  0  0  0  0  0  0  0  0  0  0  0
  146.2860  136.3582  152.5091 N   0  3  2  0  0  0  0  0  0  0  0  0
  146.1796  137.8279  152.6689 C   0  0  0  0  0  0  0  0  0  0  0  0
  145.2093  135.7842  151.6680 C   0  0  0  0  0  0  0  0  0  0  0  0
  143.8752  134.0847  152.0681 H   0  0  0  0  0  0  0  0  0  0  0  0
  147.2892  134.9257  153.5939 H   0  0  0  0  0  0  0  0  0  0  0  0
  146.2506  132.2840  150.0586 H   0  0  0  0  0  0  0  0  0  0  0  0
  145.5101  133.8391  149.6900 H   0  0  0  0  0  0  0  0  0  0  0  0
  144.5300  132.5217  150.3534 H   0  0  0  0  0  0  0  0  0  0  0  0
  144.3318  135.0559  154.1921 H   0  0  0  0  0  0  0  0  0  0  0  0
  145.3817  133.6417  154.2371 H   0  0  0  0  0  0  0  0  0  0  0  0
  146.2168  137.3489  154.9733 H   0  0  0  0  0  0  0  0  0  0  0  0
  145.8834  135.8852  155.8253 H   0  0  0  0  0  0  0  0  0  0  0  0
  149.1181  134.9377  156.6659 H   0  0  0  0  0  0  0  0  0  0  0  0
  149.3015  134.8709  154.9061 H   0  0  0  0  0  0  0  0  0  0  0  0
  147.8756  134.1832  155.6776 H   0  0  0  0  0  0  0  0  0  0  0  0
  149.3500  139.9715  153.6702 H   0  0  0  0  0  0  0  0  0  0  0  0
  150.7782  138.1303  159.6685 H   0  0  0  0  0  0  0  0  0  0  0  0
  152.2444  140.1573  159.0704 H   0  0  0  0  0  0  0  0  0  0  0  0
  152.2294  140.6702  157.4054 H   0  0  0  0  0  0  0  0  0  0  0  0
  150.0850  141.4444  159.4426 H   0  0  0  0  0  0  0  0  0  0  0  0
  149.3023  141.3830  157.0889 H   0  0  0  0  0  0  0  0  0  0  0  0
  149.3159  143.0256  157.6900 H   0  0  0  0  0  0  0  0  0  0  0  0
  150.3252  143.3029  155.9012 H   0  0  0  0  0  0  0  0  0  0  0  0
  152.5358  143.0122  158.5065 H   0  0  0  0  0  0  0  0  0  0  0  0
  150.8624  144.7534  158.4658 H   0  0  0  0  0  0  0  0  0  0  0  0
  150.0729  144.0928  159.9060 H   0  0  0  0  0  0  0  0  0  0  0  0
  152.8527  145.3258  159.7371 H   0  0  0  0  0  0  0  0  0  0  0  0
  151.5518  145.7681  160.8499 H   0  0  0  0  0  0  0  0  0  0  0  0
  151.6058  142.0857  161.2384 H   0  0  0  0  0  0  0  0  0  0  0  0
  153.2427  142.1165  160.5776 H   0  0  0  0  0  0  0  0  0  0  0  0
  145.2971  138.1037  153.2472 H   0  0  0  0  0  0  0  0  0  0  0  0
  146.1020  138.3049  151.6915 H   0  0  0  0  0  0  0  0  0  0  0  0
  147.0642  138.2371  153.1566 H   0  0  0  0  0  0  0  0  0  0  0  0
  145.4891  135.7778  150.6149 H   0  0  0  0  0  0  0  0  0  0  0  0
  144.3112  136.3975  151.7608 H   0  0  0  0  0  0  0  0  0  0  0  0
  147.1485  136.1962  152.0084 H   0  0  0  0  0  0  0  0  0  0  0  0
  1  2  1  0  0  0  0
  1 32  1  0  0  0  0
  1 33  1  0  0  0  0
  1 34  1  0  0  0  0
  2  3  1  0  0  0  0
  3 30  1  0  0  0  0
  3 29  1  0  0  0  0
  3  4  1  0  0  0  0
  4  5  1  0  0  0  0
  4 35  1  0  0  0  0
  4 36  1  0  0  0  0
  5 31  1  0  0  0  0
  5  6  1  0  0  0  0
  5 27  1  0  0  0  0
  6  7  1  0  0  0  0
  6 37  1  0  0  0  0
  6 38  1  0  0  0  0
  7  8  1  0  0  0  0
  7  9  1  0  0  0  0
  8 39  1  0  0  0  0
  8 40  1  0  0  0  0
  8 41  1  0  0  0  0
  9 14  1  0  0  0  0
  9 10  2  0  0  0  0
 10 11  1  0  0  0  0
 11 12  2  0  0  0  0
 11 42  1  0  0  0  0
 12 13  1  0  0  0  0
 13 17  1  0  0  0  0
 13 14  2  0  0  0  0
 14 15  1  0  0  0  0
 15 16  2  0  0  0  0
 16 17  1  0  0  0  0
 16 43  1  0  0  0  0
 17 18  1  0  0  0  0
 18 19  1  0  0  0  0
 18 44  1  0  0  0  0
 18 45  1  0  0  0  0
 19 20  1  0  0  0  0
 19 22  1  0  0  0  0
 19 46  1  0  0  0  0
 20 21  1  0  0  0  0
 20 47  1  0  0  0  0
 20 48  1  0  0  0  0
 21 49  1  0  0  0  0
 22 26  1  0  0  0  0
 22 23  1  0  0  0  0
 22 50  1  0  0  0  0
 23 24  1  0  0  0  0
 23 51  1  0  0  0  0
 23 52  1  0  0  0  0
 24 25  1  0  0  0  0
 24 53  1  0  0  0  0
 24 54  1  0  0  0  0
 25 26  1  0  0  0  0
 26 55  1  0  0  0  0
 26 56  1  0  0  0  0
 27 28  1  0  0  0  0
 27 29  1  0  0  0  0
 27 62  1  0  0  0  0
 28 57  1  0  0  0  0
 28 58  1  0  0  0  0
 28 59  1  0  0  0  0
 29 60  1  0  0  0  0
 29 61  1  0  0  0  0
M  CHG  1  27   1
M  END
> <s_m_source_file>
AV-unprocessed.smi

> <i_m_source_file_index>
21

> <i_lp_mmshare_version>
43012

> <i_f3d_flags>
0

> <s_epik_input>
W0NIM11PW0NASF0xW0NIMl1bQ0BIXShOKFtDSDNdKVtDSDJdMSlbQ0gyXU4oW0NIM10pYyhuW2NIXW4yKWMoYzIzKW5bY0hdbjNbQ0gyXVtDQEhdKFtDSDJdW09IXSlbQ0BASF00W0NIMl1bQ0gyXU9bQ0gyXTQ=

> <s_epik_cmdline>
J2VwaWtfcHl0aG9uJywgJy1waCcsICc3LjAnLCAnLXRuJywgJzgnLCAnLW1hJywgJzIwMCcsICctbWV0YWxfYmluZGluZycsICctaW1hZScsICc8aW5maWxlLm1hZT4nLCAnLW9tYWUnLCAnPG91dGZpbGUubWFlPic=

> <r_lp_tautomer_probability>
1

> <r_epik_Ionization_Penalty>
0.0157465

> <r_epik_Ionization_Penalty_Charging>
0.015354

> <r_epik_Ionization_Penalty_Neutral>
0.000392529

> <r_epik_State_Penalty>
0.0120612

> <r_epik_Charging_Adjusted_Penalty>
0.0274152

> <i_epik_Tot_Q>
1

> <i_epik_Tot_abs_Q>
1

> <r_epik_Metal_State_Penalty>
0.0121253

> <b_epik_Metal_Only>
0

> <s_lp_Force_Field>
OPLS_2005

> <r_lp_Energy>
62.3844

> <b_lp_Chiralities_Consistent>
1

> <s_lp_Variant>
AV-unprocessed.smi:21-11

> <Gold.Version>
5.8.1

> <Gold.Id.Protein>
6NUR|6NUR_protein|mol2

> <Gold.PLP.Fitness>
45.9523

> <Gold.PLP.PLP>
-37.6924

> <Gold.PLP.part.hbond>
-2.0000

> <Gold.PLP.part.metal>
0.0000

> <Gold.PLP.part.buried>
-3.3212

> <Gold.PLP.part.nonpolar>
-31.2287

> <Gold.PLP.part.repulsive>
0.4979

> <Gold.PLP.ligand.clash>
0.0000

> <Gold.PLP.ligand.torsion>
2.2461

> <Gold.PLP.Chemscore.Hbond>
2.9840

> <Gold.PLP.Chemscore.CHOScore>
1.0000

> <Gold.PLP.Chemscore.Metal>
0.0000

> <Gold.Chemscore.Hbonds>
donor molecule, donor type, donor heavy atom, donor atom, acceptor molecule, acceptor atom, score
      L1  H    21    49       P1  8028  1.00
      L1  H    27    62       P1  7948  2.00
      L1  C    11    42       P1  7957  1.00

> <Gold.PLP.Chemscore.Internal.Correction>
0.8001

> <Gold.Rescore>
     Score         DG    S(hbond)    S(metal)    S(lipo)     H(rot)  DE(clash)    DE(int)     intcor
     12.48     -14.89       1.94        0.00      92.23       3.08       0.01       2.40       ----

> <Gold.Chemscore.Fitness>
12.4761

> <Gold.Chemscore.DG>
-14.8879

> <Gold.Chemscore.ZeroCoef>
-5.4800

> <Gold.Chemscore.Hbond>
1.9434

> <Gold.Chemscore.Metal>
0.0000

> <Gold.Chemscore.Lipo>
92.2318

> <Gold.Chemscore.Internal_Hbond>
0.0000

> <Gold.Chemscore.DEClash>
0.0121

> <Gold.Chemscore.DEInternal>
2.3997

> <Gold.Chemscore.Rot>
3.0758

> <Gold.Chemscore.Internal.Correction>
   9.000000E+99

> <Gold.Chemscore.Hbonds>
donor molecule, donor type, donor heavy atom, donor atom, acceptor molecule, acceptor atom, score
      L1  H    21    49       P1  8028  0.92
      L1  H    27    62       P1  7948  0.98

> <Gold.Chemscore.Hbond.Weighted>
-6.4909

> <Gold.Chemscore.Metal.Weighted>
-0.0000

> <Gold.Chemscore.Lipo.Weighted>
-10.7911

> <Gold.Chemscore.Internal_Hbond.Weighted>
0.0000

> <Gold.Chemscore.DEClash.Weighted>
0.0121

> <Gold.Chemscore.DEInternal.Weighted>
2.3997

> <Gold.Chemscore.Rot.Weighted>
7.8741

> <Gold.Chemscore.Internal.Correction.Weighted>
   9.000000E+99

> <Gold.Protein.RotatedTorsions>
[ 6907 6896 6895 6894 ] final   92.01 input  -60.11 | X-H torsion
[ 7974 7965 7964 7962 ] final -162.10 input  175.53 | X-H torsion
[ 8008 7997 7996 7995 ] final -130.13 input   59.86 | X-H torsion
[ 10167 10162 10161 10158 ] final -112.68 input  -65.29 | X-H torsion
[ 10718 10713 10712 10709 ] final   -9.44 input   66.30 | X-H torsion
[ 10763 10752 10751 10750 ] final  169.93 input  -60.55 | X-H torsion
[ 11005 11000 10999 10996 ] final -111.48 input  -57.11 | X-H torsion

> <Gold.Protein.ActiveResidues>
 VAL166  LYS551  ARG553  GLY616  TRP617  ASP618  TYR619  PRO620  LYS621  CYS622 
 ASP623  PHE694  ASN695  SER759  ASP760  ASP761  ALA762  ILE779  LEU786  VAL792 
 PHE793  MET794  SER795  GLU796  ALA797  LYS798  CYS799  TRP800  GLU811  SER814 

> <Gold.Protein.RotatedAtoms>
  152.5452  134.1567  159.8540 H   0  0  0  0  0  0  0  0  0  0  0  0  # atno 6907 bound_to 6896
  151.1589  133.4851  159.2602 H   0  0  0  0  0  0  0  0  0  0  0  0  # atno 6908 bound_to 6896
  151.1393  135.0182  159.8673 H   0  0  0  0  0  0  0  0  0  0  0  0  # atno 6909 bound_to 6896
  144.7369  140.3302  143.6154 H   0  0  0  0  0  0  0  0  0  0  0  0  # atno 7974 bound_to 7965
  155.2907  140.0448  157.3023 H   0  0  0  0  0  0  0  0  0  0  0  0  # atno 8008 bound_to 7997
  154.5543  140.2327  155.8403 H   0  0  0  0  0  0  0  0  0  0  0  0  # atno 8009 bound_to 7997
  156.1993  140.3030  155.9501 H   0  0  0  0  0  0  0  0  0  0  0  0  # atno 8010 bound_to 7997
  140.1201  143.4451  152.1696 H   0  0  0  0  0  0  0  0  0  0  0  0  # atno 10167 bound_to 10162
  156.6881  130.5057  149.5951 H   0  0  0  0  0  0  0  0  0  0  0  0  # atno 10718 bound_to 10713
  154.3903  135.2754  155.2158 H   0  0  0  0  0  0  0  0  0  0  0  0  # atno 10763 bound_to 10752
  154.4227  135.5996  153.6023 H   0  0  0  0  0  0  0  0  0  0  0  0  # atno 10764 bound_to 10752
  152.9832  135.5976  154.4157 H   0  0  0  0  0  0  0  0  0  0  0  0  # atno 10765 bound_to 10752
  141.0731  133.9346  157.2444 H   0  0  0  0  0  0  0  0  0  0  0  0  # atno 11005 bound_to 11000
  145.7480  139.1784  143.2338 LP  0  0  0  0  0  0  0  0  0  0  0  0  # atno 17320 bound_to 7965
  146.1083  140.7460  142.9515 LP  0  0  0  0  0  0  0  0  0  0  0  0  # atno 17321 bound_to 7965
  139.5573  144.7382  151.4256 LP  0  0  0  0  0  0  0  0  0  0  0  0  # atno 17342 bound_to 10162
  140.6877  143.7935  150.7209 LP  0  0  0  0  0  0  0  0  0  0  0  0  # atno 17343 bound_to 10162
  156.1818  130.6504  151.0960 LP  0  0  0  0  0  0  0  0  0  0  0  0  # atno 17370 bound_to 10713
  157.7019  131.0772  150.6792 LP  0  0  0  0  0  0  0  0  0  0  0  0  # atno 17371 bound_to 10713
  139.9544  135.0168  156.9086 LP  0  0  0  0  0  0  0  0  0  0  0  0  # atno 17394 bound_to 11000
  140.5630  134.0516  155.7405 LP  0  0  0  0  0  0  0  0  0  0  0  0  # atno 17395 bound_to 11000

$$$$
