AV-unprocessed.smi:454|AV-procd|sdf|2613|dock3
  -GOLD-   2262023 13D 1   1.00000     0.00000
 Structure written by MMmdl.
 44 45  0  0  0  0  0  0  0  0  2 V2000
  152.6407  144.7537  158.1276 C   0  0  0  0  0  0  0  0  0  0  0  0
  151.9323  143.9557  159.0587 O   0  0  0  0  0  0  0  0  0  0  0  0
  152.7861  143.3171  159.9939 C   0  0  0  0  0  0  0  0  0  0  0  0
  152.9416  141.8310  159.6355 C   0  0  0  0  0  0  0  0  0  0  0  0
  151.9568  141.3870  158.6551 N   0  0  0  0  0  0  0  0  0  0  0  0
  151.8454  140.0329  158.3075 C   0  0  0  0  0  0  0  0  0  0  0  0
  150.7871  139.2799  158.8620 C   0  0  0  0  0  0  0  0  0  0  0  0
  150.6545  137.9239  158.5041 C   0  0  0  0  0  0  0  0  0  0  0  0
  151.5915  137.3773  157.6069 C   0  0  0  0  0  0  0  0  0  0  0  0
  151.4583  135.6834  157.0592 S   0  0  0  0  0  0  0  0  0  0  0  0
  152.8108  135.1055  157.0791 O   0  0  0  0  0  0  0  0  0  0  0  0
  150.3592  135.0200  157.7775 O   0  0  0  0  0  0  0  0  0  0  0  0
  150.9832  135.8693  155.3985 N   0  0  0  0  0  0  0  0  0  0  0  0
  150.0497  134.8833  154.8274 C   0  0  0  0  0  0  0  0  0  0  0  0
  148.5968  135.2949  155.1223 C   0  0  0  0  0  0  0  0  0  0  0  0
  148.3216  136.6456  154.5767 N   0  3  0  0  0  0  0  0  0  0  0  0
  146.9057  137.0428  154.7290 C   0  0  0  0  0  0  0  0  0  0  0  0
  149.2572  137.6423  155.1500 C   0  0  0  0  0  0  0  0  0  0  0  0
  150.7219  137.2316  154.8969 C   0  0  0  0  0  0  0  0  0  0  0  0
  152.6241  138.1968  157.1127 C   0  0  0  0  0  0  0  0  0  0  0  0
  152.7526  139.4955  157.4559 N   0  0  0  0  0  0  0  0  0  0  0  0
  151.9385  145.2176  157.4353 H   0  0  0  0  0  0  0  0  0  0  0  0
  153.3408  144.1531  157.5453 H   0  0  0  0  0  0  0  0  0  0  0  0
  153.1933  145.5489  158.6300 H   0  0  0  0  0  0  0  0  0  0  0  0
  153.7654  143.7967  159.9611 H   0  0  0  0  0  0  0  0  0  0  0  0
  152.4050  143.4294  161.0105 H   0  0  0  0  0  0  0  0  0  0  0  0
  153.9589  141.6110  159.3103 H   0  0  0  0  0  0  0  0  0  0  0  0
  152.7793  141.2356  160.5340 H   0  0  0  0  0  0  0  0  0  0  0  0
  151.5977  142.0756  158.0101 H   0  0  0  0  0  0  0  0  0  0  0  0
  150.0812  139.7334  159.5426 H   0  0  0  0  0  0  0  0  0  0  0  0
  149.8472  137.3287  158.9038 H   0  0  0  0  0  0  0  0  0  0  0  0
  150.2105  134.8265  153.7499 H   0  0  0  0  0  0  0  0  0  0  0  0
  150.2586  133.8892  155.2220 H   0  0  0  0  0  0  0  0  0  0  0  0
  147.9160  134.5738  154.6690 H   0  0  0  0  0  0  0  0  0  0  0  0
  148.4066  135.2803  156.1969 H   0  0  0  0  0  0  0  0  0  0  0  0
  146.6255  137.0993  155.7818 H   0  0  0  0  0  0  0  0  0  0  0  0
  146.2497  136.3231  154.2382 H   0  0  0  0  0  0  0  0  0  0  0  0
  146.7286  138.0184  154.2748 H   0  0  0  0  0  0  0  0  0  0  0  0
  149.0717  138.6162  154.6955 H   0  0  0  0  0  0  0  0  0  0  0  0
  149.0645  137.7560  156.2172 H   0  0  0  0  0  0  0  0  0  0  0  0
  151.4046  137.9398  155.3672 H   0  0  0  0  0  0  0  0  0  0  0  0
  150.9359  137.2585  153.8277 H   0  0  0  0  0  0  0  0  0  0  0  0
  153.3554  137.8078  156.4196 H   0  0  0  0  0  0  0  0  0  0  0  0
  148.5087  136.6049  153.5849 H   0  0  0  0  0  0  0  0  0  0  0  0
  1  2  1  0  0  0  0
  1 22  1  0  0  0  0
  1 23  1  0  0  0  0
  1 24  1  0  0  0  0
  2  3  1  0  0  0  0
  3  4  1  0  0  0  0
  3 25  1  0  0  0  0
  3 26  1  0  0  0  0
  4  5  1  0  0  0  0
  4 27  1  0  0  0  0
  4 28  1  0  0  0  0
  5  6  1  0  0  0  0
  5 29  1  0  0  0  0
  6 21  1  0  0  0  0
  6  7  2  0  0  0  0
  7  8  1  0  0  0  0
  7 30  1  0  0  0  0
  8  9  2  0  0  0  0
  8 31  1  0  0  0  0
  9 10  1  0  0  0  0
  9 20  1  0  0  0  0
 10 11  2  0  0  0  0
 10 12  2  0  0  0  0
 10 13  1  0  0  0  0
 13 19  1  0  0  0  0
 13 14  1  0  0  0  0
 14 15  1  0  0  0  0
 14 32  1  0  0  0  0
 14 33  1  0  0  0  0
 15 16  1  0  0  0  0
 15 34  1  0  0  0  0
 15 35  1  0  0  0  0
 16 17  1  0  0  0  0
 16 18  1  0  0  0  0
 16 44  1  0  0  0  0
 17 36  1  0  0  0  0
 17 37  1  0  0  0  0
 17 38  1  0  0  0  0
 18 19  1  0  0  0  0
 18 39  1  0  0  0  0
 18 40  1  0  0  0  0
 19 41  1  0  0  0  0
 19 42  1  0  0  0  0
 20 21  2  0  0  0  0
 20 43  1  0  0  0  0
M  CHG  1  16   1
M  END
> <s_m_source_file>
AV-unprocessed.smi

> <i_m_source_file_index>
454

> <i_lp_mmshare_version>
43012

> <i_f3d_flags>
0

> <s_epik_input>
W0NIM11PW0NIMl1bQ0gyXVtOSF1jMVtjSF1bY0hdYyhbY0hdbjEpUyg9TykoPU8pTjJbQ0gyXVtDSDJdTihbQ0gzXSlbQ0gyXVtDSDJdMg==

> <s_epik_cmdline>
J2VwaWtfcHl0aG9uJywgJy1waCcsICc3LjAnLCAnLXRuJywgJzgnLCAnLW1hJywgJzIwMCcsICctbWV0YWxfYmluZGluZycsICctaW1hZScsICc8aW5maWxlLm1hZT4nLCAnLW9tYWUnLCAnPG91dGZpbGUubWFlPic=

> <r_lp_tautomer_probability>
1

> <r_epik_Ionization_Penalty>
1.23801

> <r_epik_Ionization_Penalty_Charging>
1.23786

> <r_epik_Ionization_Penalty_Neutral>
0.00015121

> <r_epik_State_Penalty>
1.30655

> <r_epik_Charging_Adjusted_Penalty>
2.54442

> <i_epik_Tot_Q>
1

> <i_epik_Tot_abs_Q>
1

> <r_epik_Metal_State_Penalty>
1.30672

> <b_epik_Metal_Only>
0

> <s_lp_Force_Field>
OPLS_2005

> <r_lp_Energy>
1.84277

> <b_lp_Chiralities_Consistent>
1

> <s_lp_Variant>
AV-unprocessed.smi:454-2

> <Gold.Version>
5.8.1

> <Gold.Id.Protein>
6NUR|6NUR_protein|mol2

> <Gold.PLP.Fitness>
42.2867

> <Gold.PLP.PLP>
-31.7621

> <Gold.PLP.part.hbond>
-5.0243

> <Gold.PLP.part.metal>
0.0000

> <Gold.PLP.part.buried>
-5.3060

> <Gold.PLP.part.nonpolar>
-22.4876

> <Gold.PLP.part.repulsive>
0.2318

> <Gold.PLP.ligand.clash>
0.0000

> <Gold.PLP.ligand.torsion>
2.9302

> <Gold.PLP.Chemscore.Hbond>
4.5617

> <Gold.PLP.Chemscore.CHOScore>
0.0000

> <Gold.PLP.Chemscore.Metal>
0.0000

> <Gold.Chemscore.Hbonds>
donor molecule, donor type, donor heavy atom, donor atom, acceptor molecule, acceptor atom, score
      L1  H    16    44       P1  7948  2.00
      P1  H  6896  6909       L1    12  0.58
      P1  H  7997  8010       L1    21  1.00
      P1  H 10752 10763       L1    13  0.54
      P1  H 10752 10764       L1    11  0.02

> <Gold.PLP.Chemscore.Internal.Correction>
2.6998

> <Gold.Rescore>
     Score         DG    S(hbond)    S(metal)    S(lipo)     H(rot)  DE(clash)    DE(int)     intcor
     16.54     -19.57       2.86        0.00      74.98       1.65       0.00       3.04       ----

> <Gold.Chemscore.Fitness>
16.5358

> <Gold.Chemscore.DG>
-19.5727

> <Gold.Chemscore.ZeroCoef>
-5.4800

> <Gold.Chemscore.Hbond>
2.8569

> <Gold.Chemscore.Metal>
0.0000

> <Gold.Chemscore.Lipo>
74.9771

> <Gold.Chemscore.Internal_Hbond>
0.0000

> <Gold.Chemscore.DEClash>
0.0009

> <Gold.Chemscore.DEInternal>
3.0359

> <Gold.Chemscore.Rot>
1.6491

> <Gold.Chemscore.Internal.Correction>
   9.000000E+99

> <Gold.Chemscore.Hbonds>
donor molecule, donor type, donor heavy atom, donor atom, acceptor molecule, acceptor atom, score
      L1  H    16    44       P1  7948  1.00
      P1  H  6896  6909       L1    12  0.57
      P1  H  7997  8010       L1    21  0.48
      P1  H 10752 10763       L1    13  0.01
      P1  H 10752 10764       L1    11  0.03

> <Gold.Chemscore.Hbond.Weighted>
-9.5421

> <Gold.Chemscore.Metal.Weighted>
-0.0000

> <Gold.Chemscore.Lipo.Weighted>
-8.7723

> <Gold.Chemscore.Internal_Hbond.Weighted>
0.0000

> <Gold.Chemscore.DEClash.Weighted>
0.0009

> <Gold.Chemscore.DEInternal.Weighted>
3.0359

> <Gold.Chemscore.Rot.Weighted>
4.2218

> <Gold.Chemscore.Internal.Correction.Weighted>
   9.000000E+99

> <Gold.Protein.RotatedTorsions>
[ 6907 6896 6895 6894 ] final   20.00 input  -60.11 | X-H torsion
[ 7974 7965 7964 7962 ] final -136.77 input  175.53 | X-H torsion
[ 8008 7997 7996 7995 ] final   70.10 input   59.86 | X-H torsion
[ 10167 10162 10161 10158 ] final -121.44 input  -65.29 | X-H torsion
[ 10718 10713 10712 10709 ] final   89.99 input   66.30 | X-H torsion
[ 10763 10752 10751 10750 ] final   50.74 input  -60.55 | X-H torsion
[ 11005 11000 10999 10996 ] final -166.93 input  -57.11 | X-H torsion

> <Gold.Protein.ActiveResidues>
 VAL166  LYS551  ARG553  GLY616  TRP617  ASP618  TYR619  PRO620  LYS621  CYS622 
 ASP623  PHE694  ASN695  SER759  ASP760  ASP761  ALA762  ILE779  LEU786  VAL792 
 PHE793  MET794  SER795  GLU796  ALA797  LYS798  CYS799  TRP800  GLU811  SER814 

> <Gold.Protein.RotatedAtoms>
  151.8896  135.0422  160.0496 H   0  0  0  0  0  0  0  0  0  0  0  0  # atno 6907 bound_to 6896
  152.2447  133.5160  159.5299 H   0  0  0  0  0  0  0  0  0  0  0  0  # atno 6908 bound_to 6896
  150.7064  134.0958  159.3990 H   0  0  0  0  0  0  0  0  0  0  0  0  # atno 6909 bound_to 6896
  144.8898  140.6626  143.5152 H   0  0  0  0  0  0  0  0  0  0  0  0  # atno 7974 bound_to 7965
  155.7337  140.3491  155.5071 H   0  0  0  0  0  0  0  0  0  0  0  0  # atno 8008 bound_to 7997
  155.9159  140.1058  157.1266 H   0  0  0  0  0  0  0  0  0  0  0  0  # atno 8009 bound_to 7997
  154.4062  140.1259  156.4603 H   0  0  0  0  0  0  0  0  0  0  0  0  # atno 8010 bound_to 7997
  140.0250  143.5305  152.2203 H   0  0  0  0  0  0  0  0  0  0  0  0  # atno 10167 bound_to 10162
  157.6957  131.0354  150.3509 H   0  0  0  0  0  0  0  0  0  0  0  0  # atno 10718 bound_to 10713
  152.9784  135.5869  154.4302 H   0  0  0  0  0  0  0  0  0  0  0  0  # atno 10763 bound_to 10752
  154.3916  135.2768  155.2153 H   0  0  0  0  0  0  0  0  0  0  0  0  # atno 10764 bound_to 10752
  154.4023  135.6100  153.5958 H   0  0  0  0  0  0  0  0  0  0  0  0  # atno 10765 bound_to 10752
  140.5590  134.5352  157.5139 H   0  0  0  0  0  0  0  0  0  0  0  0  # atno 11005 bound_to 11000
  145.3803  139.1638  143.4284 LP  0  0  0  0  0  0  0  0  0  0  0  0  # atno 17320 bound_to 7965
  146.3047  140.3883  142.8691 LP  0  0  0  0  0  0  0  0  0  0  0  0  # atno 17321 bound_to 7965
  139.6114  144.7609  151.2944 LP  0  0  0  0  0  0  0  0  0  0  0  0  # atno 17342 bound_to 10162
  140.7326  143.6818  150.7994 LP  0  0  0  0  0  0  0  0  0  0  0  0  # atno 17343 bound_to 10162
  156.3957  130.3906  149.6996 LP  0  0  0  0  0  0  0  0  0  0  0  0  # atno 17370 bound_to 10713
  156.4331  130.7824  151.2845 LP  0  0  0  0  0  0  0  0  0  0  0  0  # atno 17371 bound_to 10713
  139.9417  134.7774  156.0661 LP  0  0  0  0  0  0  0  0  0  0  0  0  # atno 17394 bound_to 11000
  141.1126  133.6638  156.3016 LP  0  0  0  0  0  0  0  0  0  0  0  0  # atno 17395 bound_to 11000

$$$$
