AV-unprocessed.smi:102|AV-procd|sdf|963|dock6
  -GOLD-   2262017503D 1   1.00000     0.00000
 Structure written by MMmdl.
 43 44  0  0  0  0  0  0  0  0  2 V2000
  147.3938  135.6887  162.6260 C   0  0  0  0  0  0  0  0  0  0  0  0
  146.9538  135.7774  161.1709 C   0  0  0  0  0  0  0  0  0  0  0  0
  145.9080  136.3402  160.8469 O   0  0  0  0  0  0  0  0  0  0  0  0
  147.8201  135.1815  160.3400 O   0  0  0  0  0  0  0  0  0  0  0  0
  147.5831  135.1934  158.9408 C   0  0  0  0  0  0  0  0  0  0  0  0
  148.5242  134.2178  158.2143 C   0  0  2  0  0  0  0  0  0  0  0  0
  149.7412  134.8798  157.8727 O   0  0  0  0  0  0  0  0  0  0  0  0
  149.9264  134.8862  156.4867 C   0  0  2  0  0  0  0  0  0  0  0  0
  150.3733  136.2609  156.0463 N   0  0  0  0  0  0  0  0  0  0  0  0
  149.5184  137.0950  155.3458 C   0  0  0  0  0  0  0  0  0  0  0  0
  149.9203  138.3076  154.9151 C   0  0  0  0  0  0  0  0  0  0  0  0
  149.0667  139.0926  154.2354 F   0  0  0  0  0  0  0  0  0  0  0  0
  151.2838  138.7568  155.1898 C   0  0  0  0  0  0  0  0  0  0  0  0
  151.6454  139.8640  154.7943 O   0  0  0  0  0  0  0  0  0  0  0  0
  152.1047  137.9147  155.8819 N   0  5  0  0  0  0  0  0  0  0  0  0
  151.7035  136.6836  156.3153 C   0  0  0  0  0  0  0  0  0  0  0  0
  152.4434  135.9139  156.9281 O   0  0  0  0  0  0  0  0  0  0  0  0
  148.5851  134.5270  155.8458 C   0  0  1  0  0  0  0  0  0  0  0  0
  148.7657  133.8723  154.5966 O   0  0  0  0  0  0  0  0  0  0  0  0
  147.7026  133.5579  153.8410 C   0  0  0  0  0  0  0  0  0  0  0  0
  148.1007  132.8891  152.5325 C   0  0  0  0  0  0  0  0  0  0  0  0
  146.5227  133.7610  154.1283 O   0  0  0  0  0  0  0  0  0  0  0  0
  147.9511  133.6430  156.9104 C   0  0  1  0  0  0  0  0  0  0  0  0
  148.3731  132.2900  156.7573 O   0  0  0  0  0  0  0  0  0  0  0  0
  148.0905  131.3783  157.7036 C   0  0  0  0  0  0  0  0  0  0  0  0
  148.5951  129.9889  157.3377 C   0  0  0  0  0  0  0  0  0  0  0  0
  147.5014  131.5910  158.7634 O   0  0  0  0  0  0  0  0  0  0  0  0
  147.7518  134.6844  162.8551 H   0  0  0  0  0  0  0  0  0  0  0  0
  146.5601  135.9167  163.2906 H   0  0  0  0  0  0  0  0  0  0  0  0
  148.1984  136.3978  162.8220 H   0  0  0  0  0  0  0  0  0  0  0  0
  146.5468  134.9265  158.7286 H   0  0  0  0  0  0  0  0  0  0  0  0
  147.7399  136.2059  158.5672 H   0  0  0  0  0  0  0  0  0  0  0  0
  148.7655  133.4157  158.9127 H   0  0  0  0  0  0  0  0  0  0  0  0
  150.7321  134.1895  156.2488 H   0  0  0  0  0  0  0  0  0  0  0  0
  148.5083  136.7827  155.1331 H   0  0  0  0  0  0  0  0  0  0  0  0
  148.0092  135.4473  155.7348 H   0  0  0  0  0  0  0  0  0  0  0  0
  148.7813  133.5310  151.9725 H   0  0  0  0  0  0  0  0  0  0  0  0
  147.2219  132.6969  151.9165 H   0  0  0  0  0  0  0  0  0  0  0  0
  148.6008  131.9407  152.7291 H   0  0  0  0  0  0  0  0  0  0  0  0
  146.8628  133.7094  156.8671 H   0  0  0  0  0  0  0  0  0  0  0  0
  148.2181  129.6956  156.3580 H   0  0  0  0  0  0  0  0  0  0  0  0
  148.2620  129.2542  158.0710 H   0  0  0  0  0  0  0  0  0  0  0  0
  149.6847  129.9785  157.3077 H   0  0  0  0  0  0  0  0  0  0  0  0
  1  2  1  0  0  0  0
  1 28  1  0  0  0  0
  1 29  1  0  0  0  0
  1 30  1  0  0  0  0
  2  3  2  0  0  0  0
  2  4  1  0  0  0  0
  4  5  1  0  0  0  0
  5  6  1  0  0  0  0
  5 31  1  0  0  0  0
  5 32  1  0  0  0  0
  6 23  1  0  0  0  0
  6  7  1  0  0  0  0
  6 33  1  0  0  0  0
  7  8  1  0  0  0  0
  8  9  1  0  0  0  0
  8 18  1  0  0  0  0
  8 34  1  0  0  0  0
  9 16  1  0  0  0  0
  9 10  1  0  0  0  0
 10 11  2  0  0  0  0
 10 35  1  0  0  0  0
 11 12  1  0  0  0  0
 11 13  1  0  0  0  0
 13 14  2  0  0  0  0
 13 15  1  0  0  0  0
 15 16  1  0  0  0  0
 16 17  2  0  0  0  0
 18 19  1  0  0  0  0
 18 23  1  0  0  0  0
 18 36  1  0  0  0  0
 19 20  1  0  0  0  0
 20 21  1  0  0  0  0
 20 22  2  0  0  0  0
 21 37  1  0  0  0  0
 21 38  1  0  0  0  0
 21 39  1  0  0  0  0
 23 24  1  0  0  0  0
 23 40  1  0  0  0  0
 24 25  1  0  0  0  0
 25 26  1  0  0  0  0
 25 27  2  0  0  0  0
 26 41  1  0  0  0  0
 26 42  1  0  0  0  0
 26 43  1  0  0  0  0
M  CHG  1  15  -1
M  END
> <s_m_source_file>
AV-unprocessed.smi

> <i_m_source_file_index>
102

> <i_lp_mmshare_version>
43012

> <i_f3d_flags>
0

> <s_epik_input>
W0NIM11DKD1PKU9bQ0gyXVtDQEBIXTFPW0NASF0oW0NAQEhdKE9DKD1PKVtDSDNdKVtDQEhdMU9DKD1PKVtDSDNdKW4yW2NIXWMoRiljKD1PKVtuSF1jMj1P

> <s_epik_cmdline>
J2VwaWtfcHl0aG9uJywgJy1waCcsICc3LjAnLCAnLXRuJywgJzgnLCAnLW1hJywgJzIwMCcsICctbWV0YWxfYmluZGluZycsICctaW1hZScsICc8aW5maWxlLm1hZT4nLCAnLW9tYWUnLCAnPG91dGZpbGUubWFlPic=

> <r_epik_Ionization_Penalty>
1.40304

> <r_epik_Ionization_Penalty_Charging>
1.43915e-08

> <r_epik_Ionization_Penalty_Neutral>
1.40304

> <r_epik_State_Penalty>
1.48536

> <r_epik_Charging_Adjusted_Penalty>
1.48536

> <i_epik_Tot_Q>
-1

> <i_epik_Tot_abs_Q>
1

> <r_epik_Metal_State_Penalty>
0.00663881

> <b_epik_Metal_Only>
0

> <s_epik_Chemistry_Notes>
This compound has an ester and may undergo hydrolysis at high or low pH. This compound contains an acetal/aminal-like group ( X-CH(R)-Y where X, Y are N, S, or O) that may be acid/base labile, releasing an aldehyde.

> <s_lp_Force_Field>
OPLS_2005

> <r_lp_Energy>
27.0192

> <b_lp_Chiralities_Consistent>
1

> <s_lp_Variant>
AV-unprocessed.smi:102-19

> <Gold.Version>
5.8.1

> <Gold.Id.Protein>
6NUR|6NUR_protein|mol2

> <Gold.PLP.Fitness>
34.8029

> <Gold.PLP.PLP>
-28.1703

> <Gold.PLP.part.hbond>
-2.8849

> <Gold.PLP.part.metal>
0.0000

> <Gold.PLP.part.buried>
-4.8504

> <Gold.PLP.part.nonpolar>
-21.4781

> <Gold.PLP.part.repulsive>
0.2490

> <Gold.PLP.ligand.clash>
0.0000

> <Gold.PLP.ligand.torsion>
0.6943

> <Gold.PLP.Chemscore.Hbond>
2.6384

> <Gold.PLP.Chemscore.CHOScore>
0.0000

> <Gold.PLP.Chemscore.Metal>
0.0000

> <Gold.Chemscore.Hbonds>
donor molecule, donor type, donor heavy atom, donor atom, acceptor molecule, acceptor atom, score
      P1  H  6896  6907       L1     7  0.78
      P1  H  7989  7998       L1    14  1.00
      P1  H 10752 10765       L1    17  0.84

> <Gold.PLP.Chemscore.Internal.Correction>
0.1059

> <Gold.Rescore>
     Score         DG    S(hbond)    S(metal)    S(lipo)     H(rot)  DE(clash)    DE(int)     intcor
      4.58      -5.68       1.96        0.00      33.23       4.00       0.03       1.07       ----

> <Gold.Chemscore.Fitness>
4.5764

> <Gold.Chemscore.DG>
-5.6755

> <Gold.Chemscore.ZeroCoef>
-5.4800

> <Gold.Chemscore.Hbond>
1.9565

> <Gold.Chemscore.Metal>
0.0000

> <Gold.Chemscore.Lipo>
33.2327

> <Gold.Chemscore.Internal_Hbond>
0.0000

> <Gold.Chemscore.DEClash>
0.0270

> <Gold.Chemscore.DEInternal>
1.0721

> <Gold.Chemscore.Rot>
3.9951

> <Gold.Chemscore.Internal.Correction>
   9.000000E+99

> <Gold.Chemscore.Hbonds>
donor molecule, donor type, donor heavy atom, donor atom, acceptor molecule, acceptor atom, score
      P1  H  6896  6907       L1     7  0.13
      P1  H  7989  7998       L1    14  0.98
      P1  H 10752 10765       L1    17  0.18

> <Gold.Chemscore.Hbond.Weighted>
-6.5347

> <Gold.Chemscore.Metal.Weighted>
-0.0000

> <Gold.Chemscore.Lipo.Weighted>
-3.8882

> <Gold.Chemscore.Internal_Hbond.Weighted>
0.0000

> <Gold.Chemscore.DEClash.Weighted>
0.0270

> <Gold.Chemscore.DEInternal.Weighted>
1.0721

> <Gold.Chemscore.Rot.Weighted>
10.2274

> <Gold.Chemscore.Internal.Correction.Weighted>
   9.000000E+99

> <Gold.Protein.RotatedTorsions>
[ 6907 6896 6895 6894 ] final  -73.37 input  -60.11 | X-H torsion
[ 7974 7965 7964 7962 ] final  139.27 input  175.53 | X-H torsion
[ 8008 7997 7996 7995 ] final -105.80 input   59.86 | X-H torsion
[ 10167 10162 10161 10158 ] final -178.04 input  -65.29 | X-H torsion
[ 10718 10713 10712 10709 ] final  177.94 input   66.30 | X-H torsion
[ 10763 10752 10751 10750 ] final -110.39 input  -60.55 | X-H torsion
[ 11005 11000 10999 10996 ] final  -89.44 input  -57.11 | X-H torsion

> <Gold.Protein.ActiveResidues>
 VAL166  LYS551  ARG553  GLY616  TRP617  ASP618  TYR619  PRO620  LYS621  CYS622 
 ASP623  PHE694  ASN695  SER759  ASP760  ASP761  ALA762  ILE779  LEU786  VAL792 
 PHE793  MET794  SER795  GLU796  ALA797  LYS798  CYS799  TRP800  GLU811  SER814 

> <Gold.Protein.RotatedAtoms>
  150.7133  134.5026  159.5568 H   0  0  0  0  0  0  0  0  0  0  0  0  # atno 6907 bound_to 6896
  152.2620  134.8021  160.0438 H   0  0  0  0  0  0  0  0  0  0  0  0  # atno 6908 bound_to 6896
  151.8731  133.3444  159.3778 H   0  0  0  0  0  0  0  0  0  0  0  0  # atno 6909 bound_to 6896
  144.9294  139.5066  143.5625 H   0  0  0  0  0  0  0  0  0  0  0  0  # atno 7974 bound_to 7965
  154.9051  140.0411  157.1915 H   0  0  0  0  0  0  0  0  0  0  0  0  # atno 8008 bound_to 7997
  154.8404  140.2913  155.5642 H   0  0  0  0  0  0  0  0  0  0  0  0  # atno 8009 bound_to 7997
  156.2992  140.2484  156.3345 H   0  0  0  0  0  0  0  0  0  0  0  0  # atno 8010 bound_to 7997
  139.5451  144.2258  152.0972 H   0  0  0  0  0  0  0  0  0  0  0  0  # atno 10167 bound_to 10162
  156.8979  130.9869  151.3040 H   0  0  0  0  0  0  0  0  0  0  0  0  # atno 10718 bound_to 10713
  154.8245  135.4566  154.0877 H   0  0  0  0  0  0  0  0  0  0  0  0  # atno 10763 bound_to 10752
  153.2203  135.6893  153.8014 H   0  0  0  0  0  0  0  0  0  0  0  0  # atno 10764 bound_to 10752
  153.7434  135.3309  155.3285 H   0  0  0  0  0  0  0  0  0  0  0  0  # atno 10765 bound_to 10752
  141.1584  133.7630  156.9594 H   0  0  0  0  0  0  0  0  0  0  0  0  # atno 11005 bound_to 11000
  146.3240  139.8233  142.8922 LP  0  0  0  0  0  0  0  0  0  0  0  0  # atno 17320 bound_to 7965
  145.3166  141.0233  143.3524 LP  0  0  0  0  0  0  0  0  0  0  0  0  # atno 17321 bound_to 7965
  140.1743  144.4906  150.6562 LP  0  0  0  0  0  0  0  0  0  0  0  0  # atno 17342 bound_to 10162
  140.6696  143.2280  151.5658 LP  0  0  0  0  0  0  0  0  0  0  0  0  # atno 17343 bound_to 10162
  157.6044  130.8536  149.8852 LP  0  0  0  0  0  0  0  0  0  0  0  0  # atno 17370 bound_to 10713
  156.0596  130.3702  150.1011 LP  0  0  0  0  0  0  0  0  0  0  0  0  # atno 17371 bound_to 10713
  140.1203  134.9421  157.2193 LP  0  0  0  0  0  0  0  0  0  0  0  0  # atno 17394 bound_to 11000
  140.3081  134.3055  155.7273 LP  0  0  0  0  0  0  0  0  0  0  0  0  # atno 17395 bound_to 11000

$$$$
