AV-unprocessed.smi:1120|AV-procd|sdf|4819|dock2
  -GOLD-   22720 3373D 1   1.00000     0.00000
 Structure written by MMmdl.
 48 49  0  0  0  0  0  0  0  0  1 V2000
  150.9523  130.6692  153.9972 C   0  0  0  0  0  0  0  0  0  0  0  0
  149.8541  131.6425  154.4482 C   0  0  2  0  0  0  0  0  0  0  0  0
  149.2955  132.4495  153.2625 C   0  0  0  0  0  0  0  0  0  0  0  0
  148.1791  133.4130  153.6996 C   0  0  0  0  0  0  0  0  0  0  0  0
  148.6115  134.3327  154.8576 C   0  0  2  0  0  0  0  0  0  0  0  0
  149.5031  135.3931  154.3787 N   0  0  0  0  0  0  0  0  0  0  0  0
  150.3239  136.4768  155.4434 S   0  0  0  0  0  0  0  0  0  0  0  0
  149.4245  136.7079  156.5837 O   0  0  0  0  0  0  0  0  0  0  0  0
  151.6835  135.9579  155.6618 O   0  0  0  0  0  0  0  0  0  0  0  0
  150.3931  138.0400  154.4555 C   0  0  0  0  0  0  0  0  0  0  0  0
  150.8351  139.2229  155.3167 C   0  0  0  0  0  0  0  0  0  0  0  0
  150.5612  140.3726  154.9739 O   0  0  0  0  0  0  0  0  0  0  0  0
  151.5261  138.9285  156.4290 N   0  0  0  0  0  0  0  0  0  0  0  0
  152.0385  139.9080  157.3801 C   0  0  0  0  0  0  0  0  0  0  0  0
  150.9118  140.5131  158.2337 C   0  0  0  0  0  0  0  0  0  0  0  0
  151.2795  141.8745  158.7924 C   0  0  0  0  0  0  0  0  0  0  0  0
  151.1868  143.0317  157.9903 C   0  0  0  0  0  0  0  0  0  0  0  0
  151.5420  144.2712  158.5570 C   0  0  0  0  0  0  0  0  0  0  0  0
  151.9751  144.3057  159.8967 C   0  0  0  0  0  0  0  0  0  0  0  0
  152.0342  143.0934  160.6126 C   0  0  0  0  0  0  0  0  0  0  0  0
  151.6958  141.8996  160.0788 N   0  0  0  0  0  0  0  0  0  0  0  0
  149.2629  133.5591  156.0193 C   0  0  0  0  0  0  0  0  0  0  0  0
  150.3632  132.5954  155.5447 C   0  0  0  0  0  0  0  0  0  0  0  0
  151.8027  131.2007  153.5692 H   0  0  0  0  0  0  0  0  0  0  0  0
  150.5778  129.9773  153.2425 H   0  0  0  0  0  0  0  0  0  0  0  0
  151.3183  130.0750  154.8350 H   0  0  0  0  0  0  0  0  0  0  0  0
  149.0404  131.0484  154.8667 H   0  0  0  0  0  0  0  0  0  0  0  0
  150.0995  133.0158  152.7905 H   0  0  0  0  0  0  0  0  0  0  0  0
  148.9100  131.7725  152.4994 H   0  0  0  0  0  0  0  0  0  0  0  0
  147.8358  134.0026  152.8487 H   0  0  0  0  0  0  0  0  0  0  0  0
  147.3195  132.8250  154.0231 H   0  0  0  0  0  0  0  0  0  0  0  0
  147.7163  134.8170  155.2471 H   0  0  0  0  0  0  0  0  0  0  0  0
  149.4048  135.6924  153.4086 H   0  0  0  0  0  0  0  0  0  0  0  0
  151.0502  137.8900  153.5986 H   0  0  0  0  0  0  0  0  0  0  0  0
  149.3915  138.2382  154.0735 H   0  0  0  0  0  0  0  0  0  0  0  0
  151.7098  137.9567  156.6328 H   0  0  0  0  0  0  0  0  0  0  0  0
  152.7630  139.4058  158.0219 H   0  0  0  0  0  0  0  0  0  0  0  0
  152.5830  140.6939  156.8537 H   0  0  0  0  0  0  0  0  0  0  0  0
  149.9981  140.6034  157.6446 H   0  0  0  0  0  0  0  0  0  0  0  0
  150.6754  139.8483  159.0646 H   0  0  0  0  0  0  0  0  0  0  0  0
  150.8523  142.9728  156.9649 H   0  0  0  0  0  0  0  0  0  0  0  0
  151.4834  145.1787  157.9745 H   0  0  0  0  0  0  0  0  0  0  0  0
  152.2554  145.2381  160.3640 H   0  0  0  0  0  0  0  0  0  0  0  0
  152.3617  143.0820  161.6416 H   0  0  0  0  0  0  0  0  0  0  0  0
  149.6592  134.2508  156.7636 H   0  0  0  0  0  0  0  0  0  0  0  0
  148.4930  132.9785  156.5283 H   0  0  0  0  0  0  0  0  0  0  0  0
  150.7328  132.0216  156.3951 H   0  0  0  0  0  0  0  0  0  0  0  0
  151.2122  133.1682  155.1696 H   0  0  0  0  0  0  0  0  0  0  0  0
  1  2  1  0  0  0  0
  1 24  1  0  0  0  0
  1 25  1  0  0  0  0
  1 26  1  0  0  0  0
  2 23  1  0  0  0  0
  2  3  1  0  0  0  0
  2 27  1  0  0  0  0
  3  4  1  0  0  0  0
  3 28  1  0  0  0  0
  3 29  1  0  0  0  0
  4  5  1  0  0  0  0
  4 30  1  0  0  0  0
  4 31  1  0  0  0  0
  5  6  1  0  0  0  0
  5 22  1  0  0  0  0
  5 32  1  0  0  0  0
  6  7  1  0  0  0  0
  6 33  1  0  0  0  0
  7  8  2  0  0  0  0
  7  9  2  0  0  0  0
  7 10  1  0  0  0  0
 10 11  1  0  0  0  0
 10 34  1  0  0  0  0
 10 35  1  0  0  0  0
 11 12  2  0  0  0  0
 11 13  1  0  0  0  0
 13 14  1  0  0  0  0
 13 36  1  0  0  0  0
 14 15  1  0  0  0  0
 14 37  1  0  0  0  0
 14 38  1  0  0  0  0
 15 16  1  0  0  0  0
 15 39  1  0  0  0  0
 15 40  1  0  0  0  0
 16 21  1  0  0  0  0
 16 17  2  0  0  0  0
 17 18  1  0  0  0  0
 17 41  1  0  0  0  0
 18 19  2  0  0  0  0
 18 42  1  0  0  0  0
 19 20  1  0  0  0  0
 19 43  1  0  0  0  0
 20 21  2  0  0  0  0
 20 44  1  0  0  0  0
 22 23  1  0  0  0  0
 22 45  1  0  0  0  0
 22 46  1  0  0  0  0
 23 47  1  0  0  0  0
 23 48  1  0  0  0  0
M  END
> <s_m_source_file>
AV-unprocessed.smi

> <i_m_source_file_index>
1120

> <i_lp_mmshare_version>
43012

> <i_f3d_flags>
0

> <s_epik_input>
W0NIM11bQ0BASF0xW0NIMl1bQ0gyXVtDQEhdKFtDSDJdW0NIMl0xKVtOSF1TKD1PKSg9TylbQ0gyXUMoPU8pW05IXVtDSDJdW0NIMl1jMltjSF1bY0hdW2NIXVtjSF1uMg==

> <s_epik_cmdline>
J2VwaWtfcHl0aG9uJywgJy1waCcsICc3LjAnLCAnLXRuJywgJzgnLCAnLW1hJywgJzIwMCcsICctbWV0YWxfYmluZGluZycsICctaW1hZScsICc8aW5maWxlLm1hZT4nLCAnLW9tYWUnLCAnPG91dGZpbGUubWFlPic=

> <r_epik_Ionization_Penalty>
0.0216068

> <r_epik_Ionization_Penalty_Charging>
0

> <r_epik_Ionization_Penalty_Neutral>
0.0216068

> <r_epik_State_Penalty>
0.01735

> <r_epik_Charging_Adjusted_Penalty>
0.01735

> <i_epik_Tot_Q>
0

> <i_epik_Tot_abs_Q>
0

> <r_epik_Metal_State_Penalty>
0.0535325

> <b_epik_Metal_Only>
0

> <s_lp_Force_Field>
OPLS_2005

> <r_lp_Energy>
6.87343

> <b_lp_Chiralities_Consistent>
1

> <s_lp_Variant>
AV-unprocessed.smi:1120-2

> <Gold.Version>
5.8.1

> <Gold.Id.Protein>
6NUR|6NUR_protein|mol2

> <Gold.PLP.Fitness>
50.8898

> <Gold.PLP.PLP>
-44.0882

> <Gold.PLP.part.hbond>
-2.9461

> <Gold.PLP.part.metal>
0.0000

> <Gold.PLP.part.buried>
-6.0401

> <Gold.PLP.part.nonpolar>
-35.2720

> <Gold.PLP.part.repulsive>
0.2491

> <Gold.PLP.ligand.clash>
0.0000

> <Gold.PLP.ligand.torsion>
1.6824

> <Gold.PLP.Chemscore.Hbond>
3.0000

> <Gold.PLP.Chemscore.CHOScore>
0.0000

> <Gold.PLP.Chemscore.Metal>
0.0000

> <Gold.Chemscore.Hbonds>
donor molecule, donor type, donor heavy atom, donor atom, acceptor molecule, acceptor atom, score
      L1  H     6    33       P1  7948  1.00
      P1  H  7989  7998       L1    12  1.00
      P1  H 10752 10764       L1     9  1.00

> <Gold.PLP.Chemscore.Internal.Correction>
1.1664

> <Gold.Rescore>
     Score         DG    S(hbond)    S(metal)    S(lipo)     H(rot)  DE(clash)    DE(int)     intcor
     20.57     -22.17       2.86        0.00     102.96       1.92       0.01       1.59       ----

> <Gold.Chemscore.Fitness>
20.5661

> <Gold.Chemscore.DG>
-22.1654

> <Gold.Chemscore.ZeroCoef>
-5.4800

> <Gold.Chemscore.Hbond>
2.8638

> <Gold.Chemscore.Metal>
0.0000

> <Gold.Chemscore.Lipo>
102.9552

> <Gold.Chemscore.Internal_Hbond>
0.0000

> <Gold.Chemscore.DEClash>
0.0108

> <Gold.Chemscore.DEInternal>
1.5884

> <Gold.Chemscore.Rot>
1.9241

> <Gold.Chemscore.Internal.Correction>
   9.000000E+99

> <Gold.Chemscore.Hbonds>
donor molecule, donor type, donor heavy atom, donor atom, acceptor molecule, acceptor atom, score
      L1  H     6    33       P1  7948  0.30
      P1  H  7989  7998       L1    12  0.73
      P1  H 10752 10764       L1     9  0.99

> <Gold.Chemscore.Hbond.Weighted>
-9.5652

> <Gold.Chemscore.Metal.Weighted>
-0.0000

> <Gold.Chemscore.Lipo.Weighted>
-12.0458

> <Gold.Chemscore.Internal_Hbond.Weighted>
0.0000

> <Gold.Chemscore.DEClash.Weighted>
0.0108

> <Gold.Chemscore.DEInternal.Weighted>
1.5884

> <Gold.Chemscore.Rot.Weighted>
4.9256

> <Gold.Chemscore.Internal.Correction.Weighted>
   9.000000E+99

> <Gold.Protein.RotatedTorsions>
[ 6907 6896 6895 6894 ] final  -88.83 input  -60.11 | X-H torsion
[ 7974 7965 7964 7962 ] final   54.92 input  175.53 | X-H torsion
[ 8008 7997 7996 7995 ] final  114.78 input   59.86 | X-H torsion
[ 10167 10162 10161 10158 ] final   99.86 input  -65.29 | X-H torsion
[ 10718 10713 10712 10709 ] final   59.53 input   66.30 | X-H torsion
[ 10763 10752 10751 10750 ] final  -51.92 input  -60.55 | X-H torsion
[ 11005 11000 10999 10996 ] final -173.60 input  -57.11 | X-H torsion

> <Gold.Protein.ActiveResidues>
 VAL166  LYS551  ARG553  GLY616  TRP617  ASP618  TYR619  PRO620  LYS621  CYS622 
 ASP623  PHE694  ASN695  SER759  ASP760  ASP761  ALA762  ILE779  LEU786  VAL792 
 PHE793  MET794  SER795  GLU796  ALA797  LYS798  CYS799  TRP800  GLU811  SER814 

> <Gold.Protein.RotatedAtoms>
  150.6870  134.2681  159.4576 H   0  0  0  0  0  0  0  0  0  0  0  0  # atno 6907 bound_to 6896
  152.0605  134.9594  160.0584 H   0  0  0  0  0  0  0  0  0  0  0  0  # atno 6908 bound_to 6896
  152.1023  133.4222  159.4630 H   0  0  0  0  0  0  0  0  0  0  0  0  # atno 6909 bound_to 6896
  145.9558  139.4013  143.0278 H   0  0  0  0  0  0  0  0  0  0  0  0  # atno 7974 bound_to 7965
  156.2342  140.2952  156.0268 H   0  0  0  0  0  0  0  0  0  0  0  0  # atno 8008 bound_to 7997
  155.2139  140.0413  157.2955 H   0  0  0  0  0  0  0  0  0  0  0  0  # atno 8009 bound_to 7997
  154.6049  140.2436  155.7751 H   0  0  0  0  0  0  0  0  0  0  0  0  # atno 8010 bound_to 7997
  139.7579  144.6963  151.0335 H   0  0  0  0  0  0  0  0  0  0  0  0  # atno 10167 bound_to 10162
  157.5683  130.8887  149.9223 H   0  0  0  0  0  0  0  0  0  0  0  0  # atno 10718 bound_to 10713
  154.1344  135.6515  153.4929 H   0  0  0  0  0  0  0  0  0  0  0  0  # atno 10763 bound_to 10752
  153.0185  135.5300  154.6968 H   0  0  0  0  0  0  0  0  0  0  0  0  # atno 10764 bound_to 10752
  154.6212  135.2965  155.0294 H   0  0  0  0  0  0  0  0  0  0  0  0  # atno 10765 bound_to 10752
  140.4839  134.6049  157.4930 H   0  0  0  0  0  0  0  0  0  0  0  0  # atno 11005 bound_to 11000
  145.8108  140.9726  143.0949 LP  0  0  0  0  0  0  0  0  0  0  0  0  # atno 17320 bound_to 7965
  144.6805  139.9919  143.7484 LP  0  0  0  0  0  0  0  0  0  0  0  0  # atno 17321 bound_to 7965
  140.7804  143.4731  151.0119 LP  0  0  0  0  0  0  0  0  0  0  0  0  # atno 17342 bound_to 10162
  139.8418  143.7554  152.3180 LP  0  0  0  0  0  0  0  0  0  0  0  0  # atno 17343 bound_to 10162
  156.0729  130.3682  150.0737 LP  0  0  0  0  0  0  0  0  0  0  0  0  # atno 17370 bound_to 10713
  156.8893  130.9583  151.3590 LP  0  0  0  0  0  0  0  0  0  0  0  0  # atno 17371 bound_to 10713
  139.9810  134.7138  155.9860 LP  0  0  0  0  0  0  0  0  0  0  0  0  # atno 17394 bound_to 11000
  141.1517  133.6547  156.4035 LP  0  0  0  0  0  0  0  0  0  0  0  0  # atno 17395 bound_to 11000

$$$$
