AV-unprocessed.smi:1406|AV-procd|sdf|5717|dock6
  -GOLD-   22720 5353D 1   1.00000     0.00000
 Structure written by MMmdl.
 41 43  0  0  0  0  0  0  0  0  2 V2000
  150.6171  137.6114  158.5096 C   0  0  0  0  0  0  0  0  0  0  0  0
  149.6822  137.3947  157.3022 C   0  0  2  0  0  0  0  0  0  0  0  0
  149.5200  135.9120  156.9306 C   0  0  0  0  0  0  0  0  0  0  0  0
  150.0605  135.0306  157.5995 O   0  0  0  0  0  0  0  0  0  0  0  0
  148.7583  135.6485  155.8563 N   0  0  0  0  0  0  0  0  0  0  0  0
  148.5010  134.3176  155.3097 C   0  0  2  0  0  0  0  0  0  0  0  0
  149.7235  133.7167  154.5906 C   0  0  0  0  0  0  0  0  0  0  0  0
  149.1400  133.0130  153.3610 C   0  0  0  0  0  0  0  0  0  0  0  0
  147.9996  133.8660  153.0073 N   0  3  1  0  0  0  0  0  0  0  0  0
  147.0341  133.3775  152.0024 C   0  0  0  0  0  0  0  0  0  0  0  0
  146.0548  134.5242  151.6715 C   0  0  0  0  0  0  0  0  0  0  0  0
  145.4100  135.1293  152.9398 C   0  0  0  0  0  0  0  0  0  0  0  0
  146.4671  135.4969  154.0039 C   0  0  0  0  0  0  0  0  0  0  0  0
  147.3557  134.2685  154.2697 C   0  0  2  0  0  0  0  0  0  0  0  0
  150.1028  138.1655  156.1387 N   0  0  0  0  0  0  0  0  0  0  0  0
  151.1380  138.9943  155.9868 C   0  0  0  0  0  0  0  0  0  0  0  0
  151.1985  139.5677  154.7934 N   0  0  0  0  0  0  0  0  0  0  0  0
  150.0882  139.0168  154.2191 C   0  0  0  0  0  0  0  0  0  0  0  0
  149.3900  138.1785  154.9846 N   0  0  0  0  0  0  0  0  0  0  0  0
  150.2564  137.0743  159.3874 H   0  0  0  0  0  0  0  0  0  0  0  0
  150.6705  138.6679  158.7739 H   0  0  0  0  0  0  0  0  0  0  0  0
  151.6337  137.2707  158.3083 H   0  0  0  0  0  0  0  0  0  0  0  0
  148.6958  137.7628  157.5901 H   0  0  0  0  0  0  0  0  0  0  0  0
  148.3499  136.4307  155.3654 H   0  0  0  0  0  0  0  0  0  0  0  0
  148.2416  133.6475  156.1322 H   0  0  0  0  0  0  0  0  0  0  0  0
  150.3980  134.5095  154.2631 H   0  0  0  0  0  0  0  0  0  0  0  0
  150.2954  133.0400  155.2263 H   0  0  0  0  0  0  0  0  0  0  0  0
  149.8568  132.9283  152.5437 H   0  0  0  0  0  0  0  0  0  0  0  0
  148.7874  132.0135  153.6202 H   0  0  0  0  0  0  0  0  0  0  0  0
  147.5644  133.0645  151.1025 H   0  0  0  0  0  0  0  0  0  0  0  0
  146.5007  132.5058  152.3850 H   0  0  0  0  0  0  0  0  0  0  0  0
  146.5925  135.3098  151.1389 H   0  0  0  0  0  0  0  0  0  0  0  0
  145.2800  134.1695  150.9911 H   0  0  0  0  0  0  0  0  0  0  0  0
  144.8208  136.0088  152.6780 H   0  0  0  0  0  0  0  0  0  0  0  0
  144.7104  134.4075  153.3634 H   0  0  0  0  0  0  0  0  0  0  0  0
  147.0710  136.3371  153.6585 H   0  0  0  0  0  0  0  0  0  0  0  0
  145.9685  135.8168  154.9192 H   0  0  0  0  0  0  0  0  0  0  0  0
  146.7029  133.4491  154.5790 H   0  0  0  0  0  0  0  0  0  0  0  0
  151.8606  139.1855  156.7668 H   0  0  0  0  0  0  0  0  0  0  0  0
  149.7818  139.2451  153.2088 H   0  0  0  0  0  0  0  0  0  0  0  0
  148.4061  134.7075  152.6242 H   0  0  0  0  0  0  0  0  0  0  0  0
  1  2  1  0  0  0  0
  1 20  1  0  0  0  0
  1 21  1  0  0  0  0
  1 22  1  0  0  0  0
  2  3  1  0  0  0  0
  2 15  1  0  0  0  0
  2 23  1  0  0  0  0
  3  4  2  0  0  0  0
  3  5  1  0  0  0  0
  5  6  1  0  0  0  0
  5 24  1  0  0  0  0
  6 14  1  0  0  0  0
  6  7  1  0  0  0  0
  6 25  1  0  0  0  0
  7  8  1  0  0  0  0
  7 26  1  0  0  0  0
  7 27  1  0  0  0  0
  8  9  1  0  0  0  0
  8 28  1  0  0  0  0
  8 29  1  0  0  0  0
  9 14  1  0  0  0  0
  9 10  1  0  0  0  0
  9 41  1  0  0  0  0
 10 11  1  0  0  0  0
 10 30  1  0  0  0  0
 10 31  1  0  0  0  0
 11 12  1  0  0  0  0
 11 32  1  0  0  0  0
 11 33  1  0  0  0  0
 12 13  1  0  0  0  0
 12 34  1  0  0  0  0
 12 35  1  0  0  0  0
 13 14  1  0  0  0  0
 13 36  1  0  0  0  0
 13 37  1  0  0  0  0
 14 38  1  0  0  0  0
 15 19  1  0  0  0  0
 15 16  1  0  0  0  0
 16 17  2  0  0  0  0
 16 39  1  0  0  0  0
 17 18  1  0  0  0  0
 18 19  2  0  0  0  0
 18 40  1  0  0  0  0
M  CHG  1   9   1
M  END
> <s_m_source_file>
AV-unprocessed.smi

> <i_m_source_file_index>
1406

> <i_lp_mmshare_version>
43012

> <i_f3d_flags>
0

> <s_epik_input>
bjFbY0hdbltjSF1uMVtDQEhdKFtDSDNdKUMoPU8pW05IXVtDQEhdKFtDSDJdW0NIMl0yKVtDQEBIXShOMjMpW0NIMl1bQ0gyXVtDSDJdW0NIMl0z

> <s_epik_cmdline>
J2VwaWtfcHl0aG9uJywgJy1waCcsICc3LjAnLCAnLXRuJywgJzgnLCAnLW1hJywgJzIwMCcsICctbWV0YWxfYmluZGluZycsICctaW1hZScsICc8aW5maWxlLm1hZT4nLCAnLW9tYWUnLCAnPG91dGZpbGUubWFlPic=

> <r_lp_tautomer_probability>
1

> <r_epik_Ionization_Penalty>
0.00197066

> <r_epik_Ionization_Penalty_Charging>
0.00196223

> <r_epik_Ionization_Penalty_Neutral>
8.43107e-06

> <r_epik_State_Penalty>
0.00133866

> <r_epik_Charging_Adjusted_Penalty>
0.00330089

> <i_epik_Tot_Q>
1

> <i_epik_Tot_abs_Q>
1

> <r_epik_Metal_State_Penalty>
-0

> <b_epik_Metal_Only>
0

> <s_lp_Force_Field>
OPLS_2005

> <r_lp_Energy>
47.4686

> <b_lp_Chiralities_Consistent>
1

> <s_lp_Variant>
AV-unprocessed.smi:1406-9

> <Gold.Version>
5.8.1

> <Gold.Id.Protein>
6NUR|6NUR_protein|mol2

> <Gold.PLP.Fitness>
36.9865

> <Gold.PLP.PLP>
-23.1013

> <Gold.PLP.part.hbond>
-3.0000

> <Gold.PLP.part.metal>
0.0000

> <Gold.PLP.part.buried>
-4.2303

> <Gold.PLP.part.nonpolar>
-16.5841

> <Gold.PLP.part.repulsive>
0.1953

> <Gold.PLP.ligand.clash>
0.0000

> <Gold.PLP.ligand.torsion>
0.2577

> <Gold.PLP.Chemscore.Hbond>
3.7680

> <Gold.PLP.Chemscore.CHOScore>
1.0000

> <Gold.PLP.Chemscore.Metal>
0.0000

> <Gold.Chemscore.Hbonds>
donor molecule, donor type, donor heavy atom, donor atom, acceptor molecule, acceptor atom, score
      L1  H     9    41       P1  7948  2.00
      P1  H  6896  6907       L1     4  0.78
      P1  H  7989  7998       L1    17  1.00
      L1  C    18    40       P1  7957  1.00

> <Gold.PLP.Chemscore.Internal.Correction>
0.0966

> <Gold.Rescore>
     Score         DG    S(hbond)    S(metal)    S(lipo)     H(rot)  DE(clash)    DE(int)     intcor
     11.44     -13.42       2.64        0.00      33.70       1.89       0.00       1.98       ----

> <Gold.Chemscore.Fitness>
11.4396

> <Gold.Chemscore.DG>
-13.4191

> <Gold.Chemscore.ZeroCoef>
-5.4800

> <Gold.Chemscore.Hbond>
2.6426

> <Gold.Chemscore.Metal>
0.0000

> <Gold.Chemscore.Lipo>
33.6956

> <Gold.Chemscore.Internal_Hbond>
0.0000

> <Gold.Chemscore.DEClash>
0.0000

> <Gold.Chemscore.DEInternal>
1.9795

> <Gold.Chemscore.Rot>
1.8865

> <Gold.Chemscore.Internal.Correction>
   9.000000E+99

> <Gold.Chemscore.Hbonds>
donor molecule, donor type, donor heavy atom, donor atom, acceptor molecule, acceptor atom, score
      L1  H     9    41       P1  7948  0.26
      P1  H  6896  6907       L1     4  0.72
      P1  H  7989  7998       L1    17  0.26

> <Gold.Chemscore.Hbond.Weighted>
-8.8263

> <Gold.Chemscore.Metal.Weighted>
-0.0000

> <Gold.Chemscore.Lipo.Weighted>
-3.9424

> <Gold.Chemscore.Internal_Hbond.Weighted>
0.0000

> <Gold.Chemscore.DEClash.Weighted>
0.0000

> <Gold.Chemscore.DEInternal.Weighted>
1.9795

> <Gold.Chemscore.Rot.Weighted>
4.8295

> <Gold.Chemscore.Internal.Correction.Weighted>
   9.000000E+99

> <Gold.Protein.RotatedTorsions>
[ 6907 6896 6895 6894 ] final  -88.41 input  -60.11 | X-H torsion
[ 7974 7965 7964 7962 ] final -125.80 input  175.53 | X-H torsion
[ 8008 7997 7996 7995 ] final   31.17 input   59.86 | X-H torsion
[ 10167 10162 10161 10158 ] final  177.54 input  -65.29 | X-H torsion
[ 10718 10713 10712 10709 ] final   85.48 input   66.30 | X-H torsion
[ 10763 10752 10751 10750 ] final -177.25 input  -60.55 | X-H torsion
[ 11005 11000 10999 10996 ] final   11.60 input  -57.11 | X-H torsion

> <Gold.Protein.ActiveResidues>
 VAL166  LYS551  ARG553  GLY616  TRP617  ASP618  TYR619  PRO620  LYS621  CYS622 
 ASP623  PHE694  ASN695  SER759  ASP760  ASP761  ALA762  ILE779  LEU786  VAL792 
 PHE793  MET794  SER795  GLU796  ALA797  LYS798  CYS799  TRP800  GLU811  SER814 

> <Gold.Protein.RotatedAtoms>
  150.6869  134.2745  159.4601 H   0  0  0  0  0  0  0  0  0  0  0  0  # atno 6907 bound_to 6896
  152.0664  134.9559  160.0584 H   0  0  0  0  0  0  0  0  0  0  0  0  # atno 6908 bound_to 6896
  152.0965  133.4193  159.4604 H   0  0  0  0  0  0  0  0  0  0  0  0  # atno 6909 bound_to 6896
  144.9939  140.7757  143.4537 H   0  0  0  0  0  0  0  0  0  0  0  0  # atno 7974 bound_to 7965
  155.1022  140.3230  155.4544 H   0  0  0  0  0  0  0  0  0  0  0  0  # atno 8008 bound_to 7997
  156.2714  140.2059  156.6095 H   0  0  0  0  0  0  0  0  0  0  0  0  # atno 8009 bound_to 7997
  154.6820  140.0525  157.0263 H   0  0  0  0  0  0  0  0  0  0  0  0  # atno 8010 bound_to 7997
  139.5257  144.2786  152.0566 H   0  0  0  0  0  0  0  0  0  0  0  0  # atno 10167 bound_to 10162
  157.6915  131.0176  150.2829 H   0  0  0  0  0  0  0  0  0  0  0  0  # atno 10718 bound_to 10713
  154.5624  135.2821  155.0906 H   0  0  0  0  0  0  0  0  0  0  0  0  # atno 10763 bound_to 10752
  154.2310  135.6374  153.5179 H   0  0  0  0  0  0  0  0  0  0  0  0  # atno 10764 bound_to 10752
  153.0033  135.5537  154.6223 H   0  0  0  0  0  0  0  0  0  0  0  0  # atno 10765 bound_to 10752
  140.5015  134.0742  155.7795 H   0  0  0  0  0  0  0  0  0  0  0  0  # atno 11005 bound_to 11000
  145.2248  139.2142  143.5074 LP  0  0  0  0  0  0  0  0  0  0  0  0  # atno 17320 bound_to 7965
  146.3437  140.2113  142.8590 LP  0  0  0  0  0  0  0  0  0  0  0  0  # atno 17321 bound_to 7965
  140.2242  144.4435  150.6328 LP  0  0  0  0  0  0  0  0  0  0  0  0  # atno 17342 bound_to 10162
  140.6398  143.2201  151.6314 LP  0  0  0  0  0  0  0  0  0  0  0  0  # atno 17343 bound_to 10162
  156.3373  130.3810  149.7439 LP  0  0  0  0  0  0  0  0  0  0  0  0  # atno 17370 bound_to 10713
  156.4959  130.8106  151.3113 LP  0  0  0  0  0  0  0  0  0  0  0  0  # atno 17371 bound_to 10713
  141.1433  133.9099  157.2275 LP  0  0  0  0  0  0  0  0  0  0  0  0  # atno 17394 bound_to 11000
  139.9711  135.0128  156.9514 LP  0  0  0  0  0  0  0  0  0  0  0  0  # atno 17395 bound_to 11000

$$$$
