AV-unprocessed.smi:775|AV-procd|sdf|3697|dock2
  -GOLD-   22720 1113D 1   1.00000     0.00000
 Structure written by MMmdl.
 38 39  0  0  0  0  0  0  0  0  1 V2000
  154.1050  140.2834  160.1431 C   0  0  0  0  0  0  0  0  0  0  0  0
  153.0977  141.3119  159.6091 C   0  0  2  0  0  0  0  0  0  0  0  0
  152.8115  142.3990  160.6719 C   0  0  0  0  0  0  0  0  0  0  0  0
  152.3747  143.6628  160.1045 N   0  0  0  0  0  0  0  0  0  0  0  0
  152.4042  144.0636  158.7851 C   0  0  0  0  0  0  0  0  0  0  0  0
  151.8838  145.3248  158.7312 C   0  0  0  0  0  0  0  0  0  0  0  0
  151.5694  145.6186  160.0875 C   0  0  0  0  0  0  0  0  0  0  0  0
  151.8668  144.6236  160.9074 N   0  0  0  0  0  0  0  0  0  0  0  0
  151.8827  140.5782  159.2646 N   0  0  0  0  0  0  0  0  0  0  0  0
  151.9577  139.9394  157.9418 C   0  0  0  0  0  0  0  0  0  0  0  0
  150.8704  140.4321  156.9716 C   0  0  0  0  0  0  0  0  0  0  0  0
  149.9463  141.1172  157.4148 O   0  0  0  0  0  0  0  0  0  0  0  0
  150.9604  140.1019  155.6587 N   0  0  0  0  0  0  0  0  0  0  0  0
  149.9982  140.5056  154.6289 C   0  0  0  0  0  0  0  0  0  0  0  0
  149.1841  139.2628  154.2298 C   0  0  0  0  0  0  0  0  0  0  0  0
  150.0436  138.1024  153.9828 N   0  0  0  0  0  0  0  0  0  0  0  0
  151.3270  137.9885  154.3754 C   0  0  0  0  0  0  0  0  0  0  0  0
  151.9925  136.9872  154.1215 O   0  0  0  0  0  0  0  0  0  0  0  0
  151.9672  139.1501  155.1621 C   0  0  0  0  0  0  0  0  0  0  0  0
  155.0495  140.7610  160.4053 H   0  0  0  0  0  0  0  0  0  0  0  0
  154.3235  139.5182  159.3972 H   0  0  0  0  0  0  0  0  0  0  0  0
  153.7296  139.7818  161.0362 H   0  0  0  0  0  0  0  0  0  0  0  0
  153.5376  141.7642  158.7183 H   0  0  0  0  0  0  0  0  0  0  0  0
  152.0695  142.0482  161.3918 H   0  0  0  0  0  0  0  0  0  0  0  0
  153.7179  142.6018  161.2438 H   0  0  0  0  0  0  0  0  0  0  0  0
  152.7833  143.4219  158.0035 H   0  0  0  0  0  0  0  0  0  0  0  0
  151.7498  145.9439  157.8567 H   0  0  0  0  0  0  0  0  0  0  0  0
  151.1357  146.5185  160.4978 H   0  0  0  0  0  0  0  0  0  0  0  0
  151.6982  139.8905  159.9812 H   0  0  0  0  0  0  0  0  0  0  0  0
  152.9310  140.1435  157.5027 H   0  0  0  0  0  0  0  0  0  0  0  0
  151.8647  138.8585  158.0551 H   0  0  0  0  0  0  0  0  0  0  0  0
  149.3431  141.3282  154.9121 H   0  0  0  0  0  0  0  0  0  0  0  0
  150.5553  140.8703  153.7645 H   0  0  0  0  0  0  0  0  0  0  0  0
  148.4851  139.0043  155.0258 H   0  0  0  0  0  0  0  0  0  0  0  0
  148.5895  139.4675  153.3393 H   0  0  0  0  0  0  0  0  0  0  0  0
  149.6365  137.3312  153.4737 H   0  0  0  0  0  0  0  0  0  0  0  0
  152.6537  139.6803  154.5012 H   0  0  0  0  0  0  0  0  0  0  0  0
  152.5786  138.7200  155.9566 H   0  0  0  0  0  0  0  0  0  0  0  0
  1  2  1  0  0  0  0
  1 20  1  0  0  0  0
  1 21  1  0  0  0  0
  1 22  1  0  0  0  0
  2  3  1  0  0  0  0
  2  9  1  0  0  0  0
  2 23  1  0  0  0  0
  3  4  1  0  0  0  0
  3 24  1  0  0  0  0
  3 25  1  0  0  0  0
  4  8  1  0  0  0  0
  4  5  1  0  0  0  0
  5  6  2  0  0  0  0
  5 26  1  0  0  0  0
  6  7  1  0  0  0  0
  6 27  1  0  0  0  0
  7  8  2  0  0  0  0
  7 28  1  0  0  0  0
  9 10  1  0  0  0  0
  9 29  1  0  0  0  0
 10 11  1  0  0  0  0
 10 30  1  0  0  0  0
 10 31  1  0  0  0  0
 11 12  2  0  0  0  0
 11 13  1  0  0  0  0
 13 19  1  0  0  0  0
 13 14  1  0  0  0  0
 14 15  1  0  0  0  0
 14 32  1  0  0  0  0
 14 33  1  0  0  0  0
 15 16  1  0  0  0  0
 15 34  1  0  0  0  0
 15 35  1  0  0  0  0
 16 17  1  0  0  0  0
 16 36  1  0  0  0  0
 17 18  2  0  0  0  0
 17 19  1  0  0  0  0
 19 37  1  0  0  0  0
 19 38  1  0  0  0  0
M  END
> <s_m_source_file>
AV-unprocessed.smi

> <i_m_source_file_index>
775

> <i_lp_mmshare_version>
43012

> <i_f3d_flags>
0

> <s_epik_input>
bjFbY0hdW2NIXVtjSF1uMVtDSDJdW0NAQEhdKFtDSDNdKVtOSF1bQ0gyXUMoPU8pTjJbQ0gyXVtDSDJdW05IXUMoPU8pW0NIMl0y

> <s_epik_cmdline>
J2VwaWtfcHl0aG9uJywgJy1waCcsICc3LjAnLCAnLXRuJywgJzgnLCAnLW1hJywgJzIwMCcsICctbWV0YWxfYmluZGluZycsICctaW1hZScsICc8aW5maWxlLm1hZT4nLCAnLW9tYWUnLCAnPG91dGZpbGUubWFlPic=

> <r_lp_tautomer_probability>
1

> <r_epik_Ionization_Penalty>
0.836058

> <r_epik_Ionization_Penalty_Charging>
0

> <r_epik_Ionization_Penalty_Neutral>
0.836058

> <r_epik_State_Penalty>
0.870309

> <r_epik_Charging_Adjusted_Penalty>
0.870309

> <i_epik_Tot_Q>
0

> <i_epik_Tot_abs_Q>
0

> <r_epik_Metal_State_Penalty>
0.870266

> <b_epik_Metal_Only>
0

> <s_lp_Force_Field>
OPLS_2005

> <r_lp_Energy>
24.9182

> <b_lp_Chiralities_Consistent>
1

> <s_lp_Variant>
AV-unprocessed.smi:775-3

> <Gold.Version>
5.8.1

> <Gold.Id.Protein>
6NUR|6NUR_protein|mol2

> <Gold.PLP.Fitness>
49.8240

> <Gold.PLP.PLP>
-46.1546

> <Gold.PLP.part.hbond>
-2.0000

> <Gold.PLP.part.metal>
0.0000

> <Gold.PLP.part.buried>
-5.5022

> <Gold.PLP.part.nonpolar>
-41.1702

> <Gold.PLP.part.repulsive>
1.6834

> <Gold.PLP.ligand.clash>
0.0000

> <Gold.PLP.ligand.torsion>
1.1581

> <Gold.PLP.Chemscore.Hbond>
1.9750

> <Gold.PLP.Chemscore.CHOScore>
0.0000

> <Gold.PLP.Chemscore.Metal>
0.0000

> <Gold.Chemscore.Hbonds>
donor molecule, donor type, donor heavy atom, donor atom, acceptor molecule, acceptor atom, score
      L1  H    16    36       P1  7948  0.99
      P1  H 10752 10764       L1    18  1.00

> <Gold.PLP.Chemscore.Internal.Correction>
0.0607

> <Gold.Rescore>
     Score         DG    S(hbond)    S(metal)    S(lipo)     H(rot)  DE(clash)    DE(int)     intcor
     14.82     -16.87       1.73        0.00      94.29       2.12       0.90       1.14       ----

> <Gold.Chemscore.Fitness>
14.8246

> <Gold.Chemscore.DG>
-16.8664

> <Gold.Chemscore.ZeroCoef>
-5.4800

> <Gold.Chemscore.Hbond>
1.7340

> <Gold.Chemscore.Metal>
0.0000

> <Gold.Chemscore.Lipo>
94.2895

> <Gold.Chemscore.Internal_Hbond>
0.0000

> <Gold.Chemscore.DEClash>
0.9038

> <Gold.Chemscore.DEInternal>
1.1380

> <Gold.Chemscore.Rot>
2.1239

> <Gold.Chemscore.Internal.Correction>
   9.000000E+99

> <Gold.Chemscore.Hbonds>
donor molecule, donor type, donor heavy atom, donor atom, acceptor molecule, acceptor atom, score
      L1  H    16    36       P1  7948  0.75
      P1  H 10752 10764       L1    18  0.96

> <Gold.Chemscore.Hbond.Weighted>
-5.7916

> <Gold.Chemscore.Metal.Weighted>
-0.0000

> <Gold.Chemscore.Lipo.Weighted>
-11.0319

> <Gold.Chemscore.Internal_Hbond.Weighted>
0.0000

> <Gold.Chemscore.DEClash.Weighted>
0.9038

> <Gold.Chemscore.DEInternal.Weighted>
1.1380

> <Gold.Chemscore.Rot.Weighted>
5.4371

> <Gold.Chemscore.Internal.Correction.Weighted>
   9.000000E+99

> <Gold.Protein.RotatedTorsions>
[ 6907 6896 6895 6894 ] final   71.68 input  -60.11 | X-H torsion
[ 7974 7965 7964 7962 ] final   46.76 input  175.53 | X-H torsion
[ 8008 7997 7996 7995 ] final  169.28 input   59.86 | X-H torsion
[ 10167 10162 10161 10158 ] final    7.19 input  -65.29 | X-H torsion
[ 10718 10713 10712 10709 ] final  -83.59 input   66.30 | X-H torsion
[ 10763 10752 10751 10750 ] final  -91.47 input  -60.55 | X-H torsion
[ 11005 11000 10999 10996 ] final   75.07 input  -57.11 | X-H torsion

> <Gold.Protein.ActiveResidues>
 VAL166  LYS551  ARG553  GLY616  TRP617  ASP618  TYR619  PRO620  LYS621  CYS622 
 ASP623  PHE694  ASN695  SER759  ASP760  ASP761  ALA762  ILE779  LEU786  VAL792 
 PHE793  MET794  SER795  GLU796  ALA797  LYS798  CYS799  TRP800  GLU811  SER814 

> <Gold.Protein.RotatedAtoms>
  152.4824  134.4684  159.9627 H   0  0  0  0  0  0  0  0  0  0  0  0  # atno 6907 bound_to 6896
  151.4688  133.3568  159.2828 H   0  0  0  0  0  0  0  0  0  0  0  0  # atno 6908 bound_to 6896
  150.8907  134.8335  159.7352 H   0  0  0  0  0  0  0  0  0  0  0  0  # atno 6909 bound_to 6896
  146.0360  139.4821  142.9808 H   0  0  0  0  0  0  0  0  0  0  0  0  # atno 7974 bound_to 7965
  156.1471  140.1568  156.8829 H   0  0  0  0  0  0  0  0  0  0  0  0  # atno 8008 bound_to 7997
  154.5038  140.0818  156.7890 H   0  0  0  0  0  0  0  0  0  0  0  0  # atno 8009 bound_to 7997
  155.3967  140.3412  155.4257 H   0  0  0  0  0  0  0  0  0  0  0  0  # atno 8010 bound_to 7997
  140.6385  143.7829  150.7394 H   0  0  0  0  0  0  0  0  0  0  0  0  # atno 10167 bound_to 10162
  156.0016  130.4670  150.4280 H   0  0  0  0  0  0  0  0  0  0  0  0  # atno 10718 bound_to 10713
  154.6764  135.5266  153.8205 H   0  0  0  0  0  0  0  0  0  0  0  0  # atno 10763 bound_to 10752
  153.0535  135.6541  154.0644 H   0  0  0  0  0  0  0  0  0  0  0  0  # atno 10764 bound_to 10752
  154.0537  135.2967  155.3316 H   0  0  0  0  0  0  0  0  0  0  0  0  # atno 10765 bound_to 10752
  139.9361  134.7487  156.1226 H   0  0  0  0  0  0  0  0  0  0  0  0  # atno 11005 bound_to 11000
  145.6963  141.0149  143.1528 LP  0  0  0  0  0  0  0  0  0  0  0  0  # atno 17320 bound_to 7965
  144.7052  139.8592  143.7432 LP  0  0  0  0  0  0  0  0  0  0  0  0  # atno 17321 bound_to 7965
  140.1455  143.4403  152.2165 LP  0  0  0  0  0  0  0  0  0  0  0  0  # atno 17342 bound_to 10162
  139.5595  144.7396  151.4196 LP  0  0  0  0  0  0  0  0  0  0  0  0  # atno 17343 bound_to 10162
  157.2331  131.0508  151.2480 LP  0  0  0  0  0  0  0  0  0  0  0  0  # atno 17370 bound_to 10713
  157.3692  130.7172  149.6553 LP  0  0  0  0  0  0  0  0  0  0  0  0  # atno 17371 bound_to 10713
  141.0975  133.6690  156.2678 LP  0  0  0  0  0  0  0  0  0  0  0  0  # atno 17394 bound_to 11000
  140.6073  134.5494  157.5528 LP  0  0  0  0  0  0  0  0  0  0  0  0  # atno 17395 bound_to 11000

$$$$
