AV-unprocessed.smi:1051|AV-procd|sdf|4615|dock9
  -GOLD-   22720 3113D 1   1.00000     0.00000
 Structure written by MMmdl.
 45 47  0  0  0  0  0  0  0  0  1 V2000
  147.1692  135.2889  163.0446 C   0  0  0  0  0  0  0  0  0  0  0  0
  148.1471  136.2458  162.3640 C   0  0  0  0  0  0  0  0  0  0  0  0
  148.6114  137.1782  163.0195 O   0  0  0  0  0  0  0  0  0  0  0  0
  148.4884  135.9959  160.9340 C   0  0  0  0  0  0  0  0  0  0  0  0
  148.0690  134.7920  160.3248 C   0  0  0  0  0  0  0  0  0  0  0  0
  148.3748  134.5303  158.9772 C   0  0  0  0  0  0  0  0  0  0  0  0
  149.1045  135.4686  158.2260 C   0  0  0  0  0  0  0  0  0  0  0  0
  149.5374  136.6754  158.8091 C   0  0  0  0  0  0  0  0  0  0  0  0
  150.2485  137.5354  158.0004 O   0  0  0  0  0  0  0  0  0  0  0  0
  150.5951  138.8163  158.5108 C   0  0  0  0  0  0  0  0  0  0  0  0
  152.1101  139.0141  158.3558 C   0  0  1  0  0  0  0  0  0  0  0  0
  152.5357  138.1813  157.2960 O   0  0  0  0  0  0  0  0  0  0  0  0
  152.4756  140.4732  158.0143 C   0  0  0  0  0  0  0  0  0  0  0  0
  152.7262  141.2618  159.2187 N   0  0  0  0  0  0  0  0  0  0  0  0
  153.4738  140.8876  160.2843 C   0  0  0  0  0  0  0  0  0  0  0  0
  154.0645  139.8148  160.4094 O   0  0  0  0  0  0  0  0  0  0  0  0
  153.4605  141.9010  161.1817 N   0  0  0  0  0  0  0  0  0  0  0  0
  154.1233  141.9342  162.4799 C   0  0  0  0  0  0  0  0  0  0  0  0
  152.6897  142.9546  160.6737 C   0  0  0  0  0  0  0  0  0  0  0  0
  152.3793  144.2142  161.2139 C   0  0  0  0  0  0  0  0  0  0  0  0
  151.5649  145.0684  160.4335 C   0  0  0  0  0  0  0  0  0  0  0  0
  151.0896  144.6570  159.1610 C   0  0  0  0  0  0  0  0  0  0  0  0
  151.4180  143.3829  158.6415 C   0  0  0  0  0  0  0  0  0  0  0  0
  152.2273  142.5537  159.4377 C   0  0  0  0  0  0  0  0  0  0  0  0
  149.2228  136.9333  160.1678 C   0  0  0  0  0  0  0  0  0  0  0  0
  146.2074  135.2954  162.5314 H   0  0  0  0  0  0  0  0  0  0  0  0
  147.0041  135.5860  164.0804 H   0  0  0  0  0  0  0  0  0  0  0  0
  147.5637  134.2726  163.0405 H   0  0  0  0  0  0  0  0  0  0  0  0
  147.5078  134.0569  160.8833 H   0  0  0  0  0  0  0  0  0  0  0  0
  148.0493  133.6080  158.5194 H   0  0  0  0  0  0  0  0  0  0  0  0
  149.3366  135.2594  157.1919 H   0  0  0  0  0  0  0  0  0  0  0  0
  150.0637  139.5842  157.9456 H   0  0  0  0  0  0  0  0  0  0  0  0
  150.3102  138.9074  159.5606 H   0  0  0  0  0  0  0  0  0  0  0  0
  152.6031  138.6909  159.2738 H   0  0  0  0  0  0  0  0  0  0  0  0
  152.3957  138.6384  156.4806 H   0  0  0  0  0  0  0  0  0  0  0  0
  153.3226  140.5204  157.3288 H   0  0  0  0  0  0  0  0  0  0  0  0
  151.6487  140.9451  157.4813 H   0  0  0  0  0  0  0  0  0  0  0  0
  153.3823  141.9981  163.2772 H   0  0  0  0  0  0  0  0  0  0  0  0
  154.7764  142.8045  162.5493 H   0  0  0  0  0  0  0  0  0  0  0  0
  154.7296  141.0443  162.6537 H   0  0  0  0  0  0  0  0  0  0  0  0
  152.7467  144.5205  162.1822 H   0  0  0  0  0  0  0  0  0  0  0  0
  151.3025  146.0461  160.8102 H   0  0  0  0  0  0  0  0  0  0  0  0
  150.4697  145.3249  158.5814 H   0  0  0  0  0  0  0  0  0  0  0  0
  151.0608  143.0663  157.6728 H   0  0  0  0  0  0  0  0  0  0  0  0
  149.5443  137.8550  160.6259 H   0  0  0  0  0  0  0  0  0  0  0  0
  1  2  1  0  0  0  0
  1 26  1  0  0  0  0
  1 27  1  0  0  0  0
  1 28  1  0  0  0  0
  2  3  2  0  0  0  0
  2  4  1  0  0  0  0
  4 25  1  0  0  0  0
  4  5  2  0  0  0  0
  5  6  1  0  0  0  0
  5 29  1  0  0  0  0
  6  7  2  0  0  0  0
  6 30  1  0  0  0  0
  7  8  1  0  0  0  0
  7 31  1  0  0  0  0
  8  9  1  0  0  0  0
  8 25  2  0  0  0  0
  9 10  1  0  0  0  0
 10 11  1  0  0  0  0
 10 32  1  0  0  0  0
 10 33  1  0  0  0  0
 11 12  1  0  0  0  0
 11 13  1  0  0  0  0
 11 34  1  0  0  0  0
 12 35  1  0  0  0  0
 13 14  1  0  0  0  0
 13 36  1  0  0  0  0
 13 37  1  0  0  0  0
 14 24  1  0  0  0  0
 14 15  1  0  0  0  0
 15 16  2  0  0  0  0
 15 17  1  0  0  0  0
 17 18  1  0  0  0  0
 17 19  1  0  0  0  0
 18 38  1  0  0  0  0
 18 39  1  0  0  0  0
 18 40  1  0  0  0  0
 19 24  2  0  0  0  0
 19 20  1  0  0  0  0
 20 21  2  0  0  0  0
 20 41  1  0  0  0  0
 21 22  1  0  0  0  0
 21 42  1  0  0  0  0
 22 23  2  0  0  0  0
 22 43  1  0  0  0  0
 23 24  1  0  0  0  0
 23 44  1  0  0  0  0
 25 45  1  0  0  0  0
M  END
> <s_m_source_file>
AV-unprocessed.smi

> <i_m_source_file_index>
1051

> <i_lp_mmshare_version>
43012

> <i_f3d_flags>
0

> <s_epik_input>
W0NIM11DKD1PKWMxW2NIXVtjSF1bY0hdYyhbY0hdMSlPW0NIMl1bQ0BIXShbT0hdKVtDSDJdbihjKD1PKW4yW0NIM10pYyhjMjMpW2NIXVtjSF1bY0hdW2NIXTM=

> <s_epik_cmdline>
J2VwaWtfcHl0aG9uJywgJy1waCcsICc3LjAnLCAnLXRuJywgJzgnLCAnLW1hJywgJzIwMCcsICctbWV0YWxfYmluZGluZycsICctaW1hZScsICc8aW5maWxlLm1hZT4nLCAnLW9tYWUnLCAnPG91dGZpbGUubWFlPic=

> <r_lp_tautomer_probability>
1

> <r_epik_Ionization_Penalty>
2.40143e-06

> <r_epik_Ionization_Penalty_Charging>
2.1343e-09

> <r_epik_Ionization_Penalty_Neutral>
2.3993e-06

> <r_epik_State_Penalty>
-0

> <r_epik_Charging_Adjusted_Penalty>
2.1343e-09

> <i_epik_Tot_Q>
0

> <i_epik_Tot_abs_Q>
0

> <r_epik_Metal_State_Penalty>
-0

> <b_epik_Metal_Only>
0

> <s_lp_Force_Field>
OPLS_2005

> <r_lp_Energy>
51.4738

> <b_lp_Chiralities_Consistent>
1

> <s_lp_Variant>
AV-unprocessed.smi:1051-2

> <Gold.Version>
5.8.1

> <Gold.Id.Protein>
6NUR|6NUR_protein|mol2

> <Gold.PLP.Fitness>
52.0107

> <Gold.PLP.PLP>
-53.1957

> <Gold.PLP.part.hbond>
-0.5513

> <Gold.PLP.part.metal>
0.0000

> <Gold.PLP.part.buried>
-3.5888

> <Gold.PLP.part.nonpolar>
-48.3718

> <Gold.PLP.part.repulsive>
0.0058

> <Gold.PLP.ligand.clash>
0.8419

> <Gold.PLP.ligand.torsion>
1.4862

> <Gold.PLP.Chemscore.Hbond>
0.8247

> <Gold.PLP.Chemscore.CHOScore>
0.0000

> <Gold.PLP.Chemscore.Metal>
0.0000

> <Gold.Chemscore.Hbonds>
donor molecule, donor type, donor heavy atom, donor atom, acceptor molecule, acceptor atom, score
      P1  H  6931  6943       L1     3  0.66

> <Gold.PLP.Chemscore.Internal.Correction>
0.1551

> <Gold.Rescore>
     Score         DG    S(hbond)    S(metal)    S(lipo)     H(rot)  DE(clash)    DE(int)     intcor
     14.49     -17.34       0.92        0.00     125.42       2.30       0.22       2.63       ----

> <Gold.Chemscore.Fitness>
14.4887

> <Gold.Chemscore.DG>
-17.3391

> <Gold.Chemscore.ZeroCoef>
-5.4800

> <Gold.Chemscore.Hbond>
0.9189

> <Gold.Chemscore.Metal>
0.0000

> <Gold.Chemscore.Lipo>
125.4182

> <Gold.Chemscore.Internal_Hbond>
0.0000

> <Gold.Chemscore.DEClash>
0.2167

> <Gold.Chemscore.DEInternal>
2.6336

> <Gold.Chemscore.Rot>
2.2984

> <Gold.Chemscore.Internal.Correction>
   9.000000E+99

> <Gold.Chemscore.Hbonds>
donor molecule, donor type, donor heavy atom, donor atom, acceptor molecule, acceptor atom, score
      P1  H  6931  6943       L1     3  0.35

> <Gold.Chemscore.Hbond.Weighted>
-3.0690

> <Gold.Chemscore.Metal.Weighted>
-0.0000

> <Gold.Chemscore.Lipo.Weighted>
-14.6739

> <Gold.Chemscore.Internal_Hbond.Weighted>
0.0000

> <Gold.Chemscore.DEClash.Weighted>
0.2167

> <Gold.Chemscore.DEInternal.Weighted>
2.6336

> <Gold.Chemscore.Rot.Weighted>
5.8839

> <Gold.Chemscore.Internal.Correction.Weighted>
   9.000000E+99

> <Gold.Protein.RotatedTorsions>
[ 6907 6896 6895 6894 ] final  151.18 input  -60.11 | X-H torsion
[ 7974 7965 7964 7962 ] final  -49.45 input  175.53 | X-H torsion
[ 8008 7997 7996 7995 ] final   67.69 input   59.86 | X-H torsion
[ 10167 10162 10161 10158 ] final   36.22 input  -65.29 | X-H torsion
[ 10718 10713 10712 10709 ] final   93.54 input   66.30 | X-H torsion
[ 10763 10752 10751 10750 ] final  121.15 input  -60.55 | X-H torsion
[ 11005 11000 10999 10996 ] final  147.09 input  -57.11 | X-H torsion

> <Gold.Protein.ActiveResidues>
 VAL166  LYS551  ARG553  GLY616  TRP617  ASP618  TYR619  PRO620  LYS621  CYS622 
 ASP623  PHE694  ASN695  SER759  ASP760  ASP761  ALA762  ILE779  LEU786  VAL792 
 PHE793  MET794  SER795  GLU796  ALA797  LYS798  CYS799  TRP800  GLU811  SER814 

> <Gold.Protein.RotatedAtoms>
  152.1043  133.4266  159.4601 H   0  0  0  0  0  0  0  0  0  0  0  0  # atno 6907 bound_to 6896
  150.6865  134.2724  159.4602 H   0  0  0  0  0  0  0  0  0  0  0  0  # atno 6908 bound_to 6896
  152.0587  134.9607  160.0625 H   0  0  0  0  0  0  0  0  0  0  0  0  # atno 6909 bound_to 6896
  145.9404  140.7668  142.9555 H   0  0  0  0  0  0  0  0  0  0  0  0  # atno 7974 bound_to 7965
  155.6967  140.3495  155.4916 H   0  0  0  0  0  0  0  0  0  0  0  0  # atno 8008 bound_to 7997
  155.9476  140.1113  157.1026 H   0  0  0  0  0  0  0  0  0  0  0  0  # atno 8009 bound_to 7997
  154.4115  140.1200  156.4996 H   0  0  0  0  0  0  0  0  0  0  0  0  # atno 8010 bound_to 7997
  140.4148  144.1542  150.6142 H   0  0  0  0  0  0  0  0  0  0  0  0  # atno 10167 bound_to 10162
  157.6954  131.0481  150.4049 H   0  0  0  0  0  0  0  0  0  0  0  0  # atno 10718 bound_to 10713
  153.6096  135.3433  155.2974 H   0  0  0  0  0  0  0  0  0  0  0  0  # atno 10763 bound_to 10752
  154.8621  135.4247  154.2324 H   0  0  0  0  0  0  0  0  0  0  0  0  # atno 10764 bound_to 10752
  153.3172  135.7035  153.7135 H   0  0  0  0  0  0  0  0  0  0  0  0  # atno 10765 bound_to 10752
  140.0847  134.9077  157.1556 H   0  0  0  0  0  0  0  0  0  0  0  0  # atno 11005 bound_to 11000
  144.6778  140.2270  143.7360 LP  0  0  0  0  0  0  0  0  0  0  0  0  # atno 17320 bound_to 7965
  145.8308  139.2085  143.1884 LP  0  0  0  0  0  0  0  0  0  0  0  0  # atno 17321 bound_to 7965
  140.4598  143.2453  151.9235 LP  0  0  0  0  0  0  0  0  0  0  0  0  # atno 17342 bound_to 10162
  139.4782  144.5479  151.8431 LP  0  0  0  0  0  0  0  0  0  0  0  0  # atno 17343 bound_to 10162
  156.4439  130.3997  149.6679 LP  0  0  0  0  0  0  0  0  0  0  0  0  # atno 17370 bound_to 10713
  156.3853  130.7600  151.2596 LP  0  0  0  0  0  0  0  0  0  0  0  0  # atno 17371 bound_to 10713
  140.3438  134.2675  155.7208 LP  0  0  0  0  0  0  0  0  0  0  0  0  # atno 17394 bound_to 11000
  141.2058  133.7849  157.0211 LP  0  0  0  0  0  0  0  0  0  0  0  0  # atno 17395 bound_to 11000

$$$$
