AV-unprocessed.smi:556|AV-procd|sdf|2913|dock8
  -GOLD-   2262023403D 1   1.00000     0.00000
 Structure written by MMmdl.
 38 39  0  0  0  0  0  0  0  0  1 V2000
  151.0423  137.1762  156.4338 C   0  0  0  0  0  0  0  0  0  0  0  0
  152.0791  138.2776  156.1540 C   0  0  1  0  0  0  0  0  0  0  0  0
  151.8378  139.0186  154.8219 C   0  0  0  0  0  0  0  0  0  0  0  0
  150.7343  139.9057  154.9184 O   0  0  0  0  0  0  0  0  0  0  0  0
  150.9514  140.9024  155.9041 C   0  0  0  0  0  0  0  0  0  0  0  0
  151.0766  140.2326  157.2793 C   0  0  0  0  0  0  0  0  0  0  0  0
  152.1576  139.2321  157.2842 N   0  0  0  0  0  0  0  0  0  0  0  0
  153.0741  139.1988  158.2881 C   0  0  0  0  0  0  0  0  0  0  0  0
  154.1530  138.6103  158.2006 O   0  0  0  0  0  0  0  0  0  0  0  0
  152.7312  139.8839  159.3931 N   0  0  0  0  0  0  0  0  0  0  0  0
  153.5484  140.0131  160.5937 C   0  0  0  0  0  0  0  0  0  0  0  0
  154.2925  141.3577  160.6327 C   0  0  0  0  0  0  0  0  0  0  0  0
  153.3356  142.5105  160.7502 C   0  0  0  0  0  0  0  0  0  0  0  0
  152.5568  142.8895  161.8806 C   0  0  0  0  0  0  0  0  0  0  0  0
  151.8043  143.9539  161.6538 N   0  0  0  0  0  0  0  0  0  0  0  0
  152.0775  144.2923  160.3770 N   0  0  0  0  0  0  0  0  0  0  0  0
  151.4139  145.4333  159.7832 C   0  0  0  0  0  0  0  0  0  0  0  0
  152.9984  143.4400  159.8069 C   0  0  0  0  0  0  0  0  0  0  0  0
  151.0366  136.4343  155.6350 H   0  0  0  0  0  0  0  0  0  0  0  0
  150.0336  137.5821  156.5105 H   0  0  0  0  0  0  0  0  0  0  0  0
  151.2642  136.6540  157.3649 H   0  0  0  0  0  0  0  0  0  0  0  0
  153.0317  137.7685  156.0068 H   0  0  0  0  0  0  0  0  0  0  0  0
  152.7285  139.5803  154.5351 H   0  0  0  0  0  0  0  0  0  0  0  0
  151.6509  138.3062  154.0183 H   0  0  0  0  0  0  0  0  0  0  0  0
  151.8423  141.4871  155.6680 H   0  0  0  0  0  0  0  0  0  0  0  0
  150.1071  141.5917  155.8989 H   0  0  0  0  0  0  0  0  0  0  0  0
  151.2167  141.0141  158.0272 H   0  0  0  0  0  0  0  0  0  0  0  0
  150.1397  139.7385  157.5375 H   0  0  0  0  0  0  0  0  0  0  0  0
  151.8380  140.3545  159.3979 H   0  0  0  0  0  0  0  0  0  0  0  0
  152.9272  139.8913  161.4828 H   0  0  0  0  0  0  0  0  0  0  0  0
  154.2659  139.1920  160.6013 H   0  0  0  0  0  0  0  0  0  0  0  0
  154.9937  141.3569  161.4680 H   0  0  0  0  0  0  0  0  0  0  0  0
  154.9025  141.4647  159.7349 H   0  0  0  0  0  0  0  0  0  0  0  0
  152.5143  142.4226  162.8535 H   0  0  0  0  0  0  0  0  0  0  0  0
  151.8887  145.6903  158.8359 H   0  0  0  0  0  0  0  0  0  0  0  0
  151.4765  146.2911  160.4536 H   0  0  0  0  0  0  0  0  0  0  0  0
  150.3655  145.1950  159.6019 H   0  0  0  0  0  0  0  0  0  0  0  0
  153.3327  143.5605  158.7868 H   0  0  0  0  0  0  0  0  0  0  0  0
  1  2  1  0  0  0  0
  1 19  1  0  0  0  0
  1 20  1  0  0  0  0
  1 21  1  0  0  0  0
  2  7  1  0  0  0  0
  2  3  1  0  0  0  0
  2 22  1  0  0  0  0
  3  4  1  0  0  0  0
  3 23  1  0  0  0  0
  3 24  1  0  0  0  0
  4  5  1  0  0  0  0
  5  6  1  0  0  0  0
  5 25  1  0  0  0  0
  5 26  1  0  0  0  0
  6  7  1  0  0  0  0
  6 27  1  0  0  0  0
  6 28  1  0  0  0  0
  7  8  1  0  0  0  0
  8  9  2  0  0  0  0
  8 10  1  0  0  0  0
 10 11  1  0  0  0  0
 10 29  1  0  0  0  0
 11 12  1  0  0  0  0
 11 30  1  0  0  0  0
 11 31  1  0  0  0  0
 12 13  1  0  0  0  0
 12 32  1  0  0  0  0
 12 33  1  0  0  0  0
 13 18  2  0  0  0  0
 13 14  1  0  0  0  0
 14 15  2  0  0  0  0
 14 34  1  0  0  0  0
 15 16  1  0  0  0  0
 16 17  1  0  0  0  0
 16 18  1  0  0  0  0
 17 35  1  0  0  0  0
 17 36  1  0  0  0  0
 17 37  1  0  0  0  0
 18 38  1  0  0  0  0
M  END
> <s_m_source_file>
AV-unprocessed.smi

> <i_m_source_file_index>
556

> <i_lp_mmshare_version>
43012

> <i_f3d_flags>
0

> <s_epik_input>
W0NIM11bQ0BASF0xW0NIMl1PW0NIMl1bQ0gyXU4xQyg9TylbTkhdW0NIMl1bQ0gyXWMyW2NIXW5uKFtDSDNdKVtjSF0y

> <s_epik_cmdline>
J2VwaWtfcHl0aG9uJywgJy1waCcsICc3LjAnLCAnLXRuJywgJzgnLCAnLW1hJywgJzIwMCcsICctbWV0YWxfYmluZGluZycsICctaW1hZScsICc8aW5maWxlLm1hZT4nLCAnLW9tYWUnLCAnPG91dGZpbGUubWFlPic=

> <r_lp_tautomer_probability>
1

> <r_epik_Ionization_Penalty>
0.000536334

> <r_epik_Ionization_Penalty_Charging>
0

> <r_epik_Ionization_Penalty_Neutral>
0.000536334

> <r_epik_State_Penalty>
-0

> <r_epik_Charging_Adjusted_Penalty>
0

> <i_epik_Tot_Q>
0

> <i_epik_Tot_abs_Q>
0

> <r_epik_Metal_State_Penalty>
-0

> <b_epik_Metal_Only>
0

> <s_lp_Force_Field>
OPLS_2005

> <r_lp_Energy>
28.9332

> <b_lp_Chiralities_Consistent>
1

> <s_lp_Variant>
AV-unprocessed.smi:556-2

> <Gold.Version>
5.8.1

> <Gold.Id.Protein>
6NUR|6NUR_protein|mol2

> <Gold.PLP.Fitness>
40.7316

> <Gold.PLP.PLP>
-40.1062

> <Gold.PLP.part.hbond>
-2.0000

> <Gold.PLP.part.metal>
0.0000

> <Gold.PLP.part.buried>
-4.6471

> <Gold.PLP.part.nonpolar>
-33.5184

> <Gold.PLP.part.repulsive>
0.3497

> <Gold.PLP.ligand.clash>
1.5527

> <Gold.PLP.ligand.torsion>
0.4149

> <Gold.PLP.Chemscore.Hbond>
0.9988

> <Gold.PLP.Chemscore.CHOScore>
0.0000

> <Gold.PLP.Chemscore.Metal>
0.0000

> <Gold.Chemscore.Hbonds>
donor molecule, donor type, donor heavy atom, donor atom, acceptor molecule, acceptor atom, score
      P1  H  7989  7998       L1     4  0.15
      P1  H  7997  8009       L1     9  0.84

> <Gold.PLP.Chemscore.Internal.Correction>
0.0115

> <Gold.Rescore>
     Score         DG    S(hbond)    S(metal)    S(lipo)     H(rot)  DE(clash)    DE(int)     intcor
     14.82     -15.34       0.68        0.00      95.45       1.40       0.10       0.42       ----

> <Gold.Chemscore.Fitness>
14.8187

> <Gold.Chemscore.DG>
-15.3405

> <Gold.Chemscore.ZeroCoef>
-5.4800

> <Gold.Chemscore.Hbond>
0.6818

> <Gold.Chemscore.Metal>
0.0000

> <Gold.Chemscore.Lipo>
95.4475

> <Gold.Chemscore.Internal_Hbond>
0.0000

> <Gold.Chemscore.DEClash>
0.1023

> <Gold.Chemscore.DEInternal>
0.4195

> <Gold.Chemscore.Rot>
1.4001

> <Gold.Chemscore.Internal.Correction>
   9.000000E+99

> <Gold.Chemscore.Hbonds>
donor molecule, donor type, donor heavy atom, donor atom, acceptor molecule, acceptor atom, score
      P1  H  7997  8009       L1     9  0.16

> <Gold.Chemscore.Hbond.Weighted>
-2.2773

> <Gold.Chemscore.Metal.Weighted>
-0.0000

> <Gold.Chemscore.Lipo.Weighted>
-11.1674

> <Gold.Chemscore.Internal_Hbond.Weighted>
0.0000

> <Gold.Chemscore.DEClash.Weighted>
0.1023

> <Gold.Chemscore.DEInternal.Weighted>
0.4195

> <Gold.Chemscore.Rot.Weighted>
3.5842

> <Gold.Chemscore.Internal.Correction.Weighted>
   9.000000E+99

> <Gold.Protein.RotatedTorsions>
[ 6907 6896 6895 6894 ] final -123.71 input  -60.11 | X-H torsion
[ 7974 7965 7964 7962 ] final   42.06 input  175.53 | X-H torsion
[ 8008 7997 7996 7995 ] final  117.89 input   59.86 | X-H torsion
[ 10167 10162 10161 10158 ] final  179.79 input  -65.29 | X-H torsion
[ 10718 10713 10712 10709 ] final   40.80 input   66.30 | X-H torsion
[ 10763 10752 10751 10750 ] final -123.75 input  -60.55 | X-H torsion
[ 11005 11000 10999 10996 ] final -116.10 input  -57.11 | X-H torsion

> <Gold.Protein.ActiveResidues>
 VAL166  LYS551  ARG553  GLY616  TRP617  ASP618  TYR619  PRO620  LYS621  CYS622 
 ASP623  PHE694  ASN695  SER759  ASP760  ASP761  ALA762  ILE779  LEU786  VAL792 
 PHE793  MET794  SER795  GLU796  ALA797  LYS798  CYS799  TRP800  GLU811  SER814 

> <Gold.Protein.RotatedAtoms>
  150.8697  133.7523  159.2965 H   0  0  0  0  0  0  0  0  0  0  0  0  # atno 6907 bound_to 6896
  151.5139  135.1064  159.9870 H   0  0  0  0  0  0  0  0  0  0  0  0  # atno 6908 bound_to 6896
  152.4686  133.7934  159.6970 H   0  0  0  0  0  0  0  0  0  0  0  0  # atno 6909 bound_to 6896
  146.0772  139.5344  142.9560 H   0  0  0  0  0  0  0  0  0  0  0  0  # atno 7974 bound_to 7965
  156.2518  140.2886  156.0749 H   0  0  0  0  0  0  0  0  0  0  0  0  # atno 8008 bound_to 7997
  155.1630  140.0400  157.2864 H   0  0  0  0  0  0  0  0  0  0  0  0  # atno 8009 bound_to 7997
  154.6379  140.2515  155.7363 H   0  0  0  0  0  0  0  0  0  0  0  0  # atno 8010 bound_to 7997
  139.5352  144.2519  152.0778 H   0  0  0  0  0  0  0  0  0  0  0  0  # atno 10167 bound_to 10162
  157.3863  130.7781  149.7233 H   0  0  0  0  0  0  0  0  0  0  0  0  # atno 10718 bound_to 10713
  154.8713  135.4087  154.2994 H   0  0  0  0  0  0  0  0  0  0  0  0  # atno 10763 bound_to 10752
  153.3856  135.7013  153.6538 H   0  0  0  0  0  0  0  0  0  0  0  0  # atno 10764 bound_to 10752
  153.5342  135.3661  155.2661 H   0  0  0  0  0  0  0  0  0  0  0  0  # atno 10765 bound_to 10752
  141.0444  133.9786  157.2942 H   0  0  0  0  0  0  0  0  0  0  0  0  # atno 11005 bound_to 11000
  145.6284  141.0309  143.1877 LP  0  0  0  0  0  0  0  0  0  0  0  0  # atno 17320 bound_to 7965
  144.7269  139.7846  143.7361 LP  0  0  0  0  0  0  0  0  0  0  0  0  # atno 17321 bound_to 7965
  140.1988  144.4678  150.6442 LP  0  0  0  0  0  0  0  0  0  0  0  0  # atno 17342 bound_to 10162
  140.6554  143.2236  151.5981 LP  0  0  0  0  0  0  0  0  0  0  0  0  # atno 17343 bound_to 10162
  155.9787  130.4048  150.3630 LP  0  0  0  0  0  0  0  0  0  0  0  0  # atno 17370 bound_to 10713
  157.1740  131.0376  151.2781 LP  0  0  0  0  0  0  0  0  0  0  0  0  # atno 17371 bound_to 10713
  139.9300  135.0200  156.8368 LP  0  0  0  0  0  0  0  0  0  0  0  0  # atno 17394 bound_to 11000
  140.6174  134.0025  155.7603 LP  0  0  0  0  0  0  0  0  0  0  0  0  # atno 17395 bound_to 11000

$$$$
