AV-unprocessed.smi:680|AV-procd|sdf|3324|dock3
  -GOLD-   22720 0293D 1   1.00000     0.00000
 Structure written by MMmdl.
 32 33  0  0  0  0  0  0  0  0  1 V2000
  146.7914  139.1332  152.5918 C   0  0  0  0  0  0  0  0  0  0  0  0
  147.8015  139.6933  153.5491 C   0  0  0  0  0  0  0  0  0  0  0  0
  148.0381  141.0551  153.8860 C   0  0  0  0  0  0  0  0  0  0  0  0
  149.0606  140.9699  154.7929 C   0  0  0  0  0  0  0  0  0  0  0  0
  149.6968  141.9770  155.4463 N   0  0  0  0  0  0  0  0  0  0  0  0
  150.8517  141.9405  156.1345 C   0  0  0  0  0  0  0  0  0  0  0  0
  151.5554  140.9434  156.2964 O   0  0  0  0  0  0  0  0  0  0  0  0
  151.1549  143.1494  156.6297 N   0  0  0  0  0  0  0  0  0  0  0  0
  152.3485  143.4765  157.4060 C   0  0  0  0  0  0  0  0  0  0  0  0
  152.1036  143.3263  158.9198 C   0  0  1  0  0  0  0  0  0  0  0  0
  153.1755  142.4288  159.5643 C   0  0  0  0  0  0  0  0  0  0  0  0
  152.7320  141.9284  161.2519 S   0  0  0  0  0  0  0  0  0  0  0  0
  152.6725  143.5537  162.0537 C   0  0  0  0  0  0  0  0  0  0  0  0
  151.6121  144.4633  161.4218 C   0  0  0  0  0  0  0  0  0  0  0  0
  152.0607  144.9549  159.7342 S   0  0  0  0  0  0  0  0  0  0  0  0
  149.4282  139.6819  154.9988 O   0  0  0  0  0  0  0  0  0  0  0  0
  148.6136  138.8722  154.1986 N   0  0  0  0  0  0  0  0  0  0  0  0
  146.1987  139.9271  152.1368 H   0  0  0  0  0  0  0  0  0  0  0  0
  146.1042  138.4543  153.0973 H   0  0  0  0  0  0  0  0  0  0  0  0
  147.2772  138.5803  151.7875 H   0  0  0  0  0  0  0  0  0  0  0  0
  147.5323  141.9321  153.5115 H   0  0  0  0  0  0  0  0  0  0  0  0
  149.2411  142.8760  155.3932 H   0  0  0  0  0  0  0  0  0  0  0  0
  150.5163  143.9092  156.4443 H   0  0  0  0  0  0  0  0  0  0  0  0
  153.1334  142.7888  157.0899 H   0  0  0  0  0  0  0  0  0  0  0  0
  152.7170  144.4790  157.1823 H   0  0  0  0  0  0  0  0  0  0  0  0
  151.1286  142.8577  159.0615 H   0  0  0  0  0  0  0  0  0  0  0  0
  153.3001  141.5163  158.9806 H   0  0  0  0  0  0  0  0  0  0  0  0
  154.1444  142.9294  159.5760 H   0  0  0  0  0  0  0  0  0  0  0  0
  152.4455  143.4015  163.1089 H   0  0  0  0  0  0  0  0  0  0  0  0
  153.6576  144.0189  162.0046 H   0  0  0  0  0  0  0  0  0  0  0  0
  150.6386  143.9722  161.4108 H   0  0  0  0  0  0  0  0  0  0  0  0
  151.5034  145.3692  162.0184 H   0  0  0  0  0  0  0  0  0  0  0  0
  1  2  1  0  0  0  0
  1 18  1  0  0  0  0
  1 19  1  0  0  0  0
  1 20  1  0  0  0  0
  2 17  2  0  0  0  0
  2  3  1  0  0  0  0
  3  4  2  0  0  0  0
  3 21  1  0  0  0  0
  4  5  1  0  0  0  0
  4 16  1  0  0  0  0
  5  6  1  0  0  0  0
  5 22  1  0  0  0  0
  6  7  2  0  0  0  0
  6  8  1  0  0  0  0
  8  9  1  0  0  0  0
  8 23  1  0  0  0  0
  9 10  1  0  0  0  0
  9 24  1  0  0  0  0
  9 25  1  0  0  0  0
 10 15  1  0  0  0  0
 10 11  1  0  0  0  0
 10 26  1  0  0  0  0
 11 12  1  0  0  0  0
 11 27  1  0  0  0  0
 11 28  1  0  0  0  0
 12 13  1  0  0  0  0
 13 14  1  0  0  0  0
 13 29  1  0  0  0  0
 13 30  1  0  0  0  0
 14 15  1  0  0  0  0
 14 31  1  0  0  0  0
 14 32  1  0  0  0  0
 16 17  1  0  0  0  0
M  END
> <s_m_source_file>
AV-unprocessed.smi

> <i_m_source_file_index>
680

> <i_lp_mmshare_version>
43012

> <i_f3d_flags>
0

> <s_epik_input>
W0NIM11jMVtjSF1jKG9uMSlbTkhdQyg9TylbTkhdW0NIMl1bQ0BASF0yW0NIMl1TW0NIMl1bQ0gyXVMy

> <s_epik_cmdline>
J2VwaWtfcHl0aG9uJywgJy1waCcsICc3LjAnLCAnLXRuJywgJzgnLCAnLW1hJywgJzIwMCcsICctbWV0YWxfYmluZGluZycsICctaW1hZScsICc8aW5maWxlLm1hZT4nLCAnLW9tYWUnLCAnPG91dGZpbGUubWFlPic=

> <r_epik_Ionization_Penalty>
0.000554698

> <r_epik_Ionization_Penalty_Charging>
0

> <r_epik_Ionization_Penalty_Neutral>
0.000554698

> <r_epik_State_Penalty>
0.000333438

> <r_epik_Charging_Adjusted_Penalty>
0.000333438

> <i_epik_Tot_Q>
0

> <i_epik_Tot_abs_Q>
0

> <r_epik_Metal_State_Penalty>
-0

> <b_epik_Metal_Only>
0

> <s_lp_Force_Field>
OPLS_2005

> <r_lp_Energy>
4.32293

> <b_lp_Chiralities_Consistent>
1

> <s_lp_Variant>
AV-unprocessed.smi:680-2

> <Gold.Version>
5.8.1

> <Gold.Id.Protein>
6NUR|6NUR_protein|mol2

> <Gold.PLP.Fitness>
40.2800

> <Gold.PLP.PLP>
-36.1487

> <Gold.PLP.part.hbond>
-2.0686

> <Gold.PLP.part.metal>
0.0000

> <Gold.PLP.part.buried>
-1.5484

> <Gold.PLP.part.nonpolar>
-32.6103

> <Gold.PLP.part.repulsive>
0.5275

> <Gold.PLP.ligand.clash>
0.0000

> <Gold.PLP.ligand.torsion>
0.9361

> <Gold.PLP.Chemscore.Hbond>
2.0000

> <Gold.PLP.Chemscore.CHOScore>
0.0000

> <Gold.PLP.Chemscore.Metal>
0.0000

> <Gold.Chemscore.Hbonds>
donor molecule, donor type, donor heavy atom, donor atom, acceptor molecule, acceptor atom, score
      L1  H     5    22       P1  8028  1.00
      L1  H     8    23       P1  8028  1.00

> <Gold.PLP.Chemscore.Internal.Correction>
0.0036

> <Gold.Rescore>
     Score         DG    S(hbond)    S(metal)    S(lipo)     H(rot)  DE(clash)    DE(int)     intcor
     16.38     -20.48       1.82        0.00     103.86       1.26       1.74       2.36       ----

> <Gold.Chemscore.Fitness>
16.3767

> <Gold.Chemscore.DG>
-20.4763

> <Gold.Chemscore.ZeroCoef>
-5.4800

> <Gold.Chemscore.Hbond>
1.8166

> <Gold.Chemscore.Metal>
0.0000

> <Gold.Chemscore.Lipo>
103.8647

> <Gold.Chemscore.Internal_Hbond>
0.0000

> <Gold.Chemscore.DEClash>
1.7418

> <Gold.Chemscore.DEInternal>
2.3578

> <Gold.Chemscore.Rot>
1.2590

> <Gold.Chemscore.Internal.Correction>
   9.000000E+99

> <Gold.Chemscore.Hbonds>
donor molecule, donor type, donor heavy atom, donor atom, acceptor molecule, acceptor atom, score
      L1  H     5    22       P1  8028  1.00
      L1  H     8    23       P1  8028  0.96

> <Gold.Chemscore.Hbond.Weighted>
-6.0673

> <Gold.Chemscore.Metal.Weighted>
-0.0000

> <Gold.Chemscore.Lipo.Weighted>
-12.1522

> <Gold.Chemscore.Internal_Hbond.Weighted>
0.0000

> <Gold.Chemscore.DEClash.Weighted>
1.7418

> <Gold.Chemscore.DEInternal.Weighted>
2.3578

> <Gold.Chemscore.Rot.Weighted>
3.2232

> <Gold.Chemscore.Internal.Correction.Weighted>
   9.000000E+99

> <Gold.Protein.RotatedTorsions>
[ 6907 6896 6895 6894 ] final  -32.49 input  -60.11 | X-H torsion
[ 7974 7965 7964 7962 ] final  102.87 input  175.53 | X-H torsion
[ 8008 7997 7996 7995 ] final   49.18 input   59.86 | X-H torsion
[ 10167 10162 10161 10158 ] final -159.42 input  -65.29 | X-H torsion
[ 10718 10713 10712 10709 ] final -119.27 input   66.30 | X-H torsion
[ 10763 10752 10751 10750 ] final -108.53 input  -60.55 | X-H torsion
[ 11005 11000 10999 10996 ] final   80.51 input  -57.11 | X-H torsion

> <Gold.Protein.ActiveResidues>
 VAL166  LYS551  ARG553  GLY616  TRP617  ASP618  TYR619  PRO620  LYS621  CYS622 
 ASP623  PHE694  ASN695  SER759  ASP760  ASP761  ALA762  ILE779  LEU786  VAL792 
 PHE793  MET794  SER795  GLU796  ALA797  LYS798  CYS799  TRP800  GLU811  SER814 

> <Gold.Protein.RotatedAtoms>
  151.0781  134.9841  159.8341 H   0  0  0  0  0  0  0  0  0  0  0  0  # atno 6907 bound_to 6896
  152.5416  134.2216  159.8800 H   0  0  0  0  0  0  0  0  0  0  0  0  # atno 6908 bound_to 6896
  151.2244  133.4441  159.2635 H   0  0  0  0  0  0  0  0  0  0  0  0  # atno 6909 bound_to 6896
  145.3534  139.2434  143.3546 H   0  0  0  0  0  0  0  0  0  0  0  0  # atno 7974 bound_to 7965
  155.3979  140.3436  155.4255 H   0  0  0  0  0  0  0  0  0  0  0  0  # atno 8008 bound_to 7997
  156.1520  140.1574  156.8786 H   0  0  0  0  0  0  0  0  0  0  0  0  # atno 8009 bound_to 7997
  154.5061  140.0802  156.7878 H   0  0  0  0  0  0  0  0  0  0  0  0  # atno 8010 bound_to 7997
  139.6616  143.9902  152.2229 H   0  0  0  0  0  0  0  0  0  0  0  0  # atno 10167 bound_to 10162
  156.1168  130.6292  150.9395 H   0  0  0  0  0  0  0  0  0  0  0  0  # atno 10718 bound_to 10713
  154.8141  135.4634  154.0595 H   0  0  0  0  0  0  0  0  0  0  0  0  # atno 10763 bound_to 10752
  153.2002  135.6868  153.8247 H   0  0  0  0  0  0  0  0  0  0  0  0  # atno 10764 bound_to 10752
  153.7734  135.3267  155.3332 H   0  0  0  0  0  0  0  0  0  0  0  0  # atno 10765 bound_to 10752
  139.9132  134.7926  156.1919 H   0  0  0  0  0  0  0  0  0  0  0  0  # atno 11005 bound_to 11000
  146.2958  140.4154  142.8722 LP  0  0  0  0  0  0  0  0  0  0  0  0  # atno 17320 bound_to 7965
  144.8700  140.7260  143.6053 LP  0  0  0  0  0  0  0  0  0  0  0  0  # atno 17321 bound_to 7965
  139.9643  144.6537  150.8050 LP  0  0  0  0  0  0  0  0  0  0  0  0  # atno 17342 bound_to 10162
  140.7582  143.3103  151.2862 LP  0  0  0  0  0  0  0  0  0  0  0  0  # atno 17343 bound_to 10162
  157.6352  131.0917  150.8363 LP  0  0  0  0  0  0  0  0  0  0  0  0  # atno 17370 bound_to 10713
  156.8465  130.5066  149.5316 LP  0  0  0  0  0  0  0  0  0  0  0  0  # atno 17371 bound_to 10713
  141.0579  133.6856  156.1895 LP  0  0  0  0  0  0  0  0  0  0  0  0  # atno 17394 bound_to 11000
  140.6708  134.4869  157.5587 LP  0  0  0  0  0  0  0  0  0  0  0  0  # atno 17395 bound_to 11000

$$$$
