AV-unprocessed.smi:2329|AV-procd|sdf|9302|dock3
  -GOLD-   2272012523D 1   1.00000     0.00000
 Structure written by MMmdl.
 45 48  0  0  0  0  0  0  0  0  1 V2000
  141.9031  134.4672  152.8462 C   0  0  0  0  0  0  0  0  0  0  0  0
  143.3193  134.3026  152.3365 C   0  0  0  0  0  0  0  0  0  0  0  0
  143.6318  133.3350  151.3614 C   0  0  0  0  0  0  0  0  0  0  0  0
  144.9672  133.2340  150.9318 C   0  0  0  0  0  0  0  0  0  0  0  0
  145.9280  134.0982  151.4909 C   0  0  0  0  0  0  0  0  0  0  0  0
  145.5308  135.0409  152.4655 C   0  0  0  0  0  0  0  0  0  0  0  0
  146.5728  135.8671  152.9601 N   0  0  0  0  0  0  0  0  0  0  0  0
  146.4783  136.9441  153.7640 C   0  0  0  0  0  0  0  0  0  0  0  0
  145.4401  137.3373  154.2926 O   0  0  0  0  0  0  0  0  0  0  0  0
  147.6451  137.5822  153.9601 N   0  0  0  0  0  0  0  0  0  0  0  0
  147.8877  138.7760  154.7716 C   0  0  2  0  0  0  0  0  0  0  0  0
  147.6591  140.0617  153.9763 C   0  0  1  0  0  0  0  0  0  0  0  0
  146.6489  141.1517  154.0288 C   0  0  0  0  0  0  0  0  0  0  0  0
  147.6267  142.3545  153.9567 C   0  0  0  0  0  0  0  0  0  0  0  0
  148.9524  141.7996  154.1352 O   0  0  0  0  0  0  0  0  0  0  0  0
  148.7300  140.6240  154.8873 C   0  0  2  0  0  0  0  0  0  0  0  0
  149.3975  139.2356  154.8292 C   0  0  0  0  0  0  0  0  0  0  0  0
  150.2105  138.8215  156.0619 C   0  0  0  0  0  0  0  0  0  0  0  0
  151.4062  137.9726  155.6118 C   0  0  0  0  0  0  0  0  0  0  0  0
  151.2387  137.7692  154.1095 C   0  0  0  0  0  0  0  0  0  0  0  0
  150.3477  138.9235  153.6602 C   0  0  0  0  0  0  0  0  0  0  0  0
  144.2406  135.1309  152.8734 N   0  0  0  0  0  0  0  0  0  0  0  0
  141.2084  133.8302  152.2983 H   0  0  0  0  0  0  0  0  0  0  0  0
  141.5762  135.5014  152.7340 H   0  0  0  0  0  0  0  0  0  0  0  0
  141.8491  134.2020  153.9023 H   0  0  0  0  0  0  0  0  0  0  0  0
  142.8713  132.6867  150.9518 H   0  0  0  0  0  0  0  0  0  0  0  0
  145.2504  132.5065  150.1856 H   0  0  0  0  0  0  0  0  0  0  0  0
  146.9579  134.0352  151.1706 H   0  0  0  0  0  0  0  0  0  0  0  0
  147.4978  135.6469  152.6219 H   0  0  0  0  0  0  0  0  0  0  0  0
  148.4558  137.1882  153.5046 H   0  0  0  0  0  0  0  0  0  0  0  0
  147.3749  138.7746  155.7379 H   0  0  0  0  0  0  0  0  0  0  0  0
  148.0084  139.9398  152.9466 H   0  0  0  0  0  0  0  0  0  0  0  0
  145.9530  141.1257  153.1899 H   0  0  0  0  0  0  0  0  0  0  0  0
  146.0841  141.1389  154.9621 H   0  0  0  0  0  0  0  0  0  0  0  0
  147.5727  142.8671  152.9959 H   0  0  0  0  0  0  0  0  0  0  0  0
  147.4083  143.0804  154.7409 H   0  0  0  0  0  0  0  0  0  0  0  0
  148.3748  140.8690  155.8949 H   0  0  0  0  0  0  0  0  0  0  0  0
  150.5703  139.6992  156.6001 H   0  0  0  0  0  0  0  0  0  0  0  0
  149.5968  138.2653  156.7699 H   0  0  0  0  0  0  0  0  0  0  0  0
  152.3334  138.5101  155.8124 H   0  0  0  0  0  0  0  0  0  0  0  0
  151.4574  137.0215  156.1427 H   0  0  0  0  0  0  0  0  0  0  0  0
  152.1914  137.7435  153.5799 H   0  0  0  0  0  0  0  0  0  0  0  0
  150.7333  136.8211  153.9235 H   0  0  0  0  0  0  0  0  0  0  0  0
  149.8348  138.6703  152.7326 H   0  0  0  0  0  0  0  0  0  0  0  0
  150.9674  139.7953  153.4465 H   0  0  0  0  0  0  0  0  0  0  0  0
  1  2  1  0  0  0  0
  1 23  1  0  0  0  0
  1 24  1  0  0  0  0
  1 25  1  0  0  0  0
  2 22  1  0  0  0  0
  2  3  2  0  0  0  0
  3  4  1  0  0  0  0
  3 26  1  0  0  0  0
  4  5  2  0  0  0  0
  4 27  1  0  0  0  0
  5  6  1  0  0  0  0
  5 28  1  0  0  0  0
  6  7  1  0  0  0  0
  6 22  2  0  0  0  0
  7  8  1  0  0  0  0
  7 29  1  0  0  0  0
  8  9  2  0  0  0  0
  8 10  1  0  0  0  0
 10 11  1  0  0  0  0
 10 30  1  0  0  0  0
 11 17  1  0  0  0  0
 11 12  1  0  0  0  0
 11 31  1  0  0  0  0
 12 16  1  0  0  0  0
 12 13  1  0  0  0  0
 12 32  1  0  0  0  0
 13 14  1  0  0  0  0
 13 33  1  0  0  0  0
 13 34  1  0  0  0  0
 14 15  1  0  0  0  0
 14 35  1  0  0  0  0
 14 36  1  0  0  0  0
 15 16  1  0  0  0  0
 16 17  1  0  0  0  0
 16 37  1  0  0  0  0
 17 21  1  0  0  0  0
 17 18  1  0  0  0  0
 18 19  1  0  0  0  0
 18 38  1  0  0  0  0
 18 39  1  0  0  0  0
 19 20  1  0  0  0  0
 19 40  1  0  0  0  0
 19 41  1  0  0  0  0
 20 21  1  0  0  0  0
 20 42  1  0  0  0  0
 20 43  1  0  0  0  0
 21 44  1  0  0  0  0
 21 45  1  0  0  0  0
M  END
> <s_m_source_file>
AV-unprocessed.smi

> <i_m_source_file_index>
2329

> <i_lp_mmshare_version>
43012

> <i_f3d_flags>
0

> <s_epik_input>
W0NIM11jMVtjSF1bY0hdW2NIXWMobjEpW05IXUMoPU8pW05IXVtDQEBIXTJbQ0BASF0oW0NIMl1bQ0gyXU8zKVtDQEhdM0MyNFtDSDJdW0NIMl1bQ0gyXVtDSDJdNA==

> <s_epik_cmdline>
J2VwaWtfcHl0aG9uJywgJy1waCcsICc3LjAnLCAnLXRuJywgJzgnLCAnLW1hJywgJzIwMCcsICctbWV0YWxfYmluZGluZycsICctaW1hZScsICc8aW5maWxlLm1hZT4nLCAnLW9tYWUnLCAnPG91dGZpbGUubWFlPic=

> <r_lp_tautomer_probability>
1

> <r_epik_Ionization_Penalty>
8.97002e-05

> <r_epik_Ionization_Penalty_Charging>
0

> <r_epik_Ionization_Penalty_Neutral>
8.97002e-05

> <r_epik_State_Penalty>
-0

> <r_epik_Charging_Adjusted_Penalty>
0

> <i_epik_Tot_Q>
0

> <i_epik_Tot_abs_Q>
0

> <r_epik_Metal_State_Penalty>
-0

> <b_epik_Metal_Only>
0

> <s_lp_Force_Field>
OPLS_2005

> <r_lp_Energy>
86.3971

> <b_lp_Chiralities_Consistent>
1

> <s_lp_Variant>
AV-unprocessed.smi:2329-1

> <Gold.Version>
5.8.1

> <Gold.Id.Protein>
6NUR|6NUR_protein|mol2

> <Gold.PLP.Fitness>
36.4548

> <Gold.PLP.PLP>
-30.0903

> <Gold.PLP.part.hbond>
-3.0000

> <Gold.PLP.part.metal>
0.0000

> <Gold.PLP.part.buried>
-1.3019

> <Gold.PLP.part.nonpolar>
-25.4224

> <Gold.PLP.part.repulsive>
0.3365

> <Gold.PLP.ligand.clash>
0.0000

> <Gold.PLP.ligand.torsion>
0.2016

> <Gold.PLP.Chemscore.Hbond>
2.1626

> <Gold.PLP.Chemscore.CHOScore>
0.0000

> <Gold.PLP.Chemscore.Metal>
0.0000

> <Gold.Chemscore.Hbonds>
donor molecule, donor type, donor heavy atom, donor atom, acceptor molecule, acceptor atom, score
      L1  H     7    29       P1  7948  0.96
      L1  H    10    30       P1  7948  0.82
      P1  H  8011  8017       L1    15  0.40

> <Gold.PLP.Chemscore.Internal.Correction>
0.2797

> <Gold.Rescore>
     Score         DG    S(hbond)    S(metal)    S(lipo)     H(rot)  DE(clash)    DE(int)     intcor
     17.64     -20.99       2.07        0.00      95.40       1.00       1.87       1.47       ----

> <Gold.Chemscore.Fitness>
17.6383

> <Gold.Chemscore.DG>
-20.9855

> <Gold.Chemscore.ZeroCoef>
-5.4800

> <Gold.Chemscore.Hbond>
2.0669

> <Gold.Chemscore.Metal>
0.0000

> <Gold.Chemscore.Lipo>
95.4017

> <Gold.Chemscore.Internal_Hbond>
0.0000

> <Gold.Chemscore.DEClash>
1.8729

> <Gold.Chemscore.DEInternal>
1.4743

> <Gold.Chemscore.Rot>
1.0000

> <Gold.Chemscore.Internal.Correction>
   9.000000E+99

> <Gold.Chemscore.Hbonds>
donor molecule, donor type, donor heavy atom, donor atom, acceptor molecule, acceptor atom, score
      L1  H     7    29       P1  7948  0.92
      L1  H    10    30       P1  7948  0.80
      P1  H  8011  8017       L1    15  0.08

> <Gold.Chemscore.Hbond.Weighted>
-6.9035

> <Gold.Chemscore.Metal.Weighted>
-0.0000

> <Gold.Chemscore.Lipo.Weighted>
-11.1620

> <Gold.Chemscore.Internal_Hbond.Weighted>
0.0000

> <Gold.Chemscore.DEClash.Weighted>
1.8729

> <Gold.Chemscore.DEInternal.Weighted>
1.4743

> <Gold.Chemscore.Rot.Weighted>
2.5600

> <Gold.Chemscore.Internal.Correction.Weighted>
   9.000000E+99

> <Gold.Protein.RotatedTorsions>
[ 6907 6896 6895 6894 ] final  -89.70 input  -60.11 | X-H torsion
[ 7974 7965 7964 7962 ] final  134.00 input  175.53 | X-H torsion
[ 8008 7997 7996 7995 ] final -108.77 input   59.86 | X-H torsion
[ 10167 10162 10161 10158 ] final   32.42 input  -65.29 | X-H torsion
[ 10718 10713 10712 10709 ] final  121.19 input   66.30 | X-H torsion
[ 10763 10752 10751 10750 ] final   94.49 input  -60.55 | X-H torsion
[ 11005 11000 10999 10996 ] final  -79.64 input  -57.11 | X-H torsion

> <Gold.Protein.ActiveResidues>
 VAL166  LYS551  ARG553  GLY616  TRP617  ASP618  TYR619  PRO620  LYS621  CYS622 
 ASP623  PHE694  ASN695  SER759  ASP760  ASP761  ALA762  ILE779  LEU786  VAL792 
 PHE793  MET794  SER795  GLU796  ALA797  LYS798  CYS799  TRP800  GLU811  SER814 

> <Gold.Protein.RotatedAtoms>
  150.6876  134.2546  159.4524 H   0  0  0  0  0  0  0  0  0  0  0  0  # atno 6907 bound_to 6896
  152.0481  134.9668  160.0584 H   0  0  0  0  0  0  0  0  0  0  0  0  # atno 6908 bound_to 6896
  152.1143  133.4283  159.4683 H   0  0  0  0  0  0  0  0  0  0  0  0  # atno 6909 bound_to 6896
  144.9808  139.4507  143.5387 H   0  0  0  0  0  0  0  0  0  0  0  0  # atno 7974 bound_to 7965
  154.9492  140.0401  157.2136 H   0  0  0  0  0  0  0  0  0  0  0  0  # atno 8008 bound_to 7997
  154.7994  140.2849  155.5910 H   0  0  0  0  0  0  0  0  0  0  0  0  # atno 8009 bound_to 7997
  156.2959  140.2558  156.2859 H   0  0  0  0  0  0  0  0  0  0  0  0  # atno 8010 bound_to 7997
  140.4500  144.1063  150.6190 H   0  0  0  0  0  0  0  0  0  0  0  0  # atno 10167 bound_to 10162
  157.5836  131.1072  150.8140 H   0  0  0  0  0  0  0  0  0  0  0  0  # atno 10718 bound_to 10713
  153.2423  135.4287  155.0711 H   0  0  0  0  0  0  0  0  0  0  0  0  # atno 10763 bound_to 10752
  154.8346  135.3405  154.6632 H   0  0  0  0  0  0  0  0  0  0  0  0  # atno 10764 bound_to 10752
  153.7055  135.7026  153.5108 H   0  0  0  0  0  0  0  0  0  0  0  0  # atno 10765 bound_to 10752
  141.1667  133.7114  156.8153 H   0  0  0  0  0  0  0  0  0  0  0  0  # atno 11005 bound_to 11000
  146.3407  139.9079  142.8784 LP  0  0  0  0  0  0  0  0  0  0  0  0  # atno 17320 bound_to 7965
  145.2424  141.0014  143.3928 LP  0  0  0  0  0  0  0  0  0  0  0  0  # atno 17321 bound_to 7965
  140.4219  143.2608  151.9705 LP  0  0  0  0  0  0  0  0  0  0  0  0  # atno 17342 bound_to 10162
  139.4796  144.5823  151.7911 LP  0  0  0  0  0  0  0  0  0  0  0  0  # atno 17343 bound_to 10162
  156.8580  130.5103  149.5306 LP  0  0  0  0  0  0  0  0  0  0  0  0  # atno 17370 bound_to 10713
  156.0883  130.5875  150.9687 LP  0  0  0  0  0  0  0  0  0  0  0  0  # atno 17371 bound_to 10713
  140.2158  134.8793  157.3324 LP  0  0  0  0  0  0  0  0  0  0  0  0  # atno 17394 bound_to 11000
  140.2039  134.4221  155.7648 LP  0  0  0  0  0  0  0  0  0  0  0  0  # atno 17395 bound_to 11000

$$$$
