AV-unprocessed.smi:379|AV-procd|sdf|2459|dock1
  -GOLD-   2262022403D 1   1.00000     0.00000
 Structure written by MMmdl.
 39 40  0  0  0  0  0  0  0  0  1 V2000
  151.1912  145.1278  159.3338 C   0  0  0  0  0  0  0  0  0  0  0  0
  152.5230  144.5580  158.8231 C   0  0  0  0  0  0  0  0  0  0  0  0
  152.7098  143.0504  159.0892 C   0  0  1  0  0  0  0  0  0  0  0  0
  153.0373  142.7756  160.5635 C   0  0  0  0  0  0  0  0  0  0  0  0
  151.5089  142.3027  158.7202 N   0  0  0  0  0  0  0  0  0  0  0  0
  150.9202  142.3024  157.5138 C   0  0  0  0  0  0  0  0  0  0  0  0
  151.3490  142.9382  156.5497 O   0  0  0  0  0  0  0  0  0  0  0  0
  149.6526  141.4444  157.3880 C   0  0  0  0  0  0  0  0  0  0  0  0
  149.6101  140.6501  156.1408 N   0  0  0  0  0  0  0  0  0  0  0  0
  150.6948  139.7800  155.8598 C   0  0  0  0  0  0  0  0  0  0  0  0
  151.6617  139.7054  156.6204 O   0  0  0  0  0  0  0  0  0  0  0  0
  150.5678  138.9905  154.6374 C   0  0  0  0  0  0  0  0  0  0  0  0
  151.6230  138.0805  154.3377 C   0  0  0  0  0  0  0  0  0  0  0  0
  152.4893  137.3455  154.1168 N   0  0  0  0  0  0  0  0  0  0  0  0
  149.4908  139.1196  153.8356 C   0  0  0  0  0  0  0  0  0  0  0  0
  148.4658  139.9995  154.1068 N   0  0  0  0  0  0  0  0  0  0  0  0
  147.2602  140.0069  153.3272 C   0  0  0  0  0  0  0  0  0  0  0  0
  146.4327  138.7428  153.2433 C   0  0  0  0  0  0  0  0  0  0  0  0
  147.1844  139.2285  152.0280 C   0  0  0  0  0  0  0  0  0  0  0  0
  148.4745  140.7530  155.3012 C   0  0  0  0  0  0  0  0  0  0  0  0
  147.5192  141.4695  155.6103 O   0  0  0  0  0  0  0  0  0  0  0  0
  151.0847  146.1744  159.0484 H   0  0  0  0  0  0  0  0  0  0  0  0
  151.1231  145.0776  160.4208 H   0  0  0  0  0  0  0  0  0  0  0  0
  150.3439  144.5818  158.9184 H   0  0  0  0  0  0  0  0  0  0  0  0
  152.5843  144.7371  157.7489 H   0  0  0  0  0  0  0  0  0  0  0  0
  153.3464  145.1173  159.2692 H   0  0  0  0  0  0  0  0  0  0  0  0
  153.5606  142.7030  158.5003 H   0  0  0  0  0  0  0  0  0  0  0  0
  153.9492  143.2917  160.8651 H   0  0  0  0  0  0  0  0  0  0  0  0
  153.1893  141.7103  160.7408 H   0  0  0  0  0  0  0  0  0  0  0  0
  152.2331  143.1113  161.2193 H   0  0  0  0  0  0  0  0  0  0  0  0
  151.0830  141.7478  159.4486 H   0  0  0  0  0  0  0  0  0  0  0  0
  149.5833  140.8094  158.2720 H   0  0  0  0  0  0  0  0  0  0  0  0
  148.7739  142.0885  157.4559 H   0  0  0  0  0  0  0  0  0  0  0  0
  149.4286  138.5144  152.9425 H   0  0  0  0  0  0  0  0  0  0  0  0
  146.6977  140.9387  153.3534 H   0  0  0  0  0  0  0  0  0  0  0  0
  146.8096  137.8486  153.7364 H   0  0  0  0  0  0  0  0  0  0  0  0
  145.3500  138.8516  153.2417 H   0  0  0  0  0  0  0  0  0  0  0  0
  146.6038  139.6631  151.2169 H   0  0  0  0  0  0  0  0  0  0  0  0
  148.0553  138.6527  151.7200 H   0  0  0  0  0  0  0  0  0  0  0  0
  1  2  1  0  0  0  0
  1 22  1  0  0  0  0
  1 23  1  0  0  0  0
  1 24  1  0  0  0  0
  2  3  1  0  0  0  0
  2 25  1  0  0  0  0
  2 26  1  0  0  0  0
  3  4  1  0  0  0  0
  3  5  1  0  0  0  0
  3 27  1  0  0  0  0
  4 28  1  0  0  0  0
  4 29  1  0  0  0  0
  4 30  1  0  0  0  0
  5  6  1  0  0  0  0
  5 31  1  0  0  0  0
  6  7  2  0  0  0  0
  6  8  1  0  0  0  0
  8  9  1  0  0  0  0
  8 32  1  0  0  0  0
  8 33  1  0  0  0  0
  9 20  1  0  0  0  0
  9 10  1  0  0  0  0
 10 11  2  0  0  0  0
 10 12  1  0  0  0  0
 12 13  1  0  0  0  0
 12 15  2  0  0  0  0
 13 14  3  0  0  0  0
 15 16  1  0  0  0  0
 15 34  1  0  0  0  0
 16 17  1  0  0  0  0
 16 20  1  0  0  0  0
 17 19  1  0  0  0  0
 17 18  1  0  0  0  0
 17 35  1  0  0  0  0
 18 19  1  0  0  0  0
 18 36  1  0  0  0  0
 18 37  1  0  0  0  0
 19 38  1  0  0  0  0
 19 39  1  0  0  0  0
 20 21  2  0  0  0  0
M  END
> <s_m_source_file>
AV-unprocessed.smi

> <i_m_source_file_index>
379

> <i_lp_mmshare_version>
43012

> <i_f3d_flags>
0

> <s_epik_input>
W0NIM11bQ0gyXVtDQEhdKFtDSDNdKVtOSF1DKD1PKVtDSDJdbjFjKD1PKWMoQyNOKVtjSF1uKGMxPU8pW0NIXTJbQ0gyXVtDSDJdMg==

> <s_epik_cmdline>
J2VwaWtfcHl0aG9uJywgJy1waCcsICc3LjAnLCAnLXRuJywgJzgnLCAnLW1hJywgJzIwMCcsICctbWV0YWxfYmluZGluZycsICctaW1hZScsICc8aW5maWxlLm1hZT4nLCAnLW9tYWUnLCAnPG91dGZpbGUubWFlPic=

> <r_lp_tautomer_probability>
1

> <r_epik_Ionization_Penalty>
1.93863e-08

> <r_epik_Ionization_Penalty_Charging>
8.45512e-11

> <r_epik_Ionization_Penalty_Neutral>
1.93017e-08

> <r_epik_State_Penalty>
-0

> <r_epik_Charging_Adjusted_Penalty>
8.45512e-11

> <i_epik_Tot_Q>
0

> <i_epik_Tot_abs_Q>
0

> <r_epik_Metal_State_Penalty>
-0

> <b_epik_Metal_Only>
0

> <s_lp_Force_Field>
OPLS_2005

> <r_lp_Energy>
29.1248

> <b_lp_Chiralities_Consistent>
1

> <s_lp_Variant>
AV-unprocessed.smi:379-2

> <Gold.Version>
5.8.1

> <Gold.Id.Protein>
6NUR|6NUR_protein|mol2

> <Gold.PLP.Fitness>
45.6371

> <Gold.PLP.PLP>
-39.6010

> <Gold.PLP.part.hbond>
-1.0000

> <Gold.PLP.part.metal>
0.0000

> <Gold.PLP.part.buried>
0.5412

> <Gold.PLP.part.nonpolar>
-40.5525

> <Gold.PLP.part.repulsive>
0.8407

> <Gold.PLP.ligand.clash>
0.0000

> <Gold.PLP.ligand.torsion>
0.4549

> <Gold.PLP.Chemscore.Hbond>
0.7360

> <Gold.PLP.Chemscore.CHOScore>
1.5020

> <Gold.PLP.Chemscore.Metal>
0.0000

> <Gold.Chemscore.Hbonds>
donor molecule, donor type, donor heavy atom, donor atom, acceptor molecule, acceptor atom, score
      P1  H 10752 10765       L1    14  0.72
      L1  C    15    34       P1  7948  1.00
      L1  C    15    34       P1  7957  0.52

> <Gold.PLP.Chemscore.Internal.Correction>
0.2318

> <Gold.Rescore>
     Score         DG    S(hbond)    S(metal)    S(lipo)     H(rot)  DE(clash)    DE(int)     intcor
     10.64     -13.38       0.85        0.00      86.55       1.98       0.89       1.85       ----

> <Gold.Chemscore.Fitness>
10.6358

> <Gold.Chemscore.DG>
-13.3782

> <Gold.Chemscore.ZeroCoef>
-5.4800

> <Gold.Chemscore.Hbond>
0.8486

> <Gold.Chemscore.Metal>
0.0000

> <Gold.Chemscore.Lipo>
86.5489

> <Gold.Chemscore.Internal_Hbond>
0.0000

> <Gold.Chemscore.DEClash>
0.8942

> <Gold.Chemscore.DEInternal>
1.8482

> <Gold.Chemscore.Rot>
1.9774

> <Gold.Chemscore.Internal.Correction>
   9.000000E+99

> <Gold.Chemscore.Hbonds>
donor molecule, donor type, donor heavy atom, donor atom, acceptor molecule, acceptor atom, score
      P1  H 10752 10765       L1    14  0.72

> <Gold.Chemscore.Hbond.Weighted>
-2.8343

> <Gold.Chemscore.Metal.Weighted>
-0.0000

> <Gold.Chemscore.Lipo.Weighted>
-10.1262

> <Gold.Chemscore.Internal_Hbond.Weighted>
0.0000

> <Gold.Chemscore.DEClash.Weighted>
0.8942

> <Gold.Chemscore.DEInternal.Weighted>
1.8482

> <Gold.Chemscore.Rot.Weighted>
5.0623

> <Gold.Chemscore.Internal.Correction.Weighted>
   9.000000E+99

> <Gold.Protein.RotatedTorsions>
[ 6907 6896 6895 6894 ] final  108.60 input  -60.11 | X-H torsion
[ 7974 7965 7964 7962 ] final  144.55 input  175.53 | X-H torsion
[ 8008 7997 7996 7995 ] final  171.65 input   59.86 | X-H torsion
[ 10167 10162 10161 10158 ] final  -88.79 input  -65.29 | X-H torsion
[ 10718 10713 10712 10709 ] final  -82.48 input   66.30 | X-H torsion
[ 10763 10752 10751 10750 ] final  148.50 input  -60.55 | X-H torsion
[ 11005 11000 10999 10996 ] final -172.73 input  -57.11 | X-H torsion

> <Gold.Protein.ActiveResidues>
 VAL166  LYS551  ARG553  GLY616  TRP617  ASP618  TYR619  PRO620  LYS621  CYS622 
 ASP623  PHE694  ASN695  SER759  ASP760  ASP761  ALA762  ILE779  LEU786  VAL792 
 PHE793  MET794  SER795  GLU796  ALA797  LYS798  CYS799  TRP800  GLU811  SER814 

> <Gold.Protein.RotatedAtoms>
  152.5105  133.9065  159.7466 H   0  0  0  0  0  0  0  0  0  0  0  0  # atno 6907 bound_to 6896
  150.9468  133.6585  159.2786 H   0  0  0  0  0  0  0  0  0  0  0  0  # atno 6908 bound_to 6896
  151.3877  135.0956  159.9569 H   0  0  0  0  0  0  0  0  0  0  0  0  # atno 6909 bound_to 6896
  144.8827  139.5676  143.5835 H   0  0  0  0  0  0  0  0  0  0  0  0  # atno 7974 bound_to 7965
  156.1250  140.1506  156.9149 H   0  0  0  0  0  0  0  0  0  0  0  0  # atno 8008 bound_to 7997
  154.4865  140.0864  156.7538 H   0  0  0  0  0  0  0  0  0  0  0  0  # atno 8009 bound_to 7997
  155.4360  140.3429  155.4287 H   0  0  0  0  0  0  0  0  0  0  0  0  # atno 8010 bound_to 7997
  140.3712  143.2793  151.9498 H   0  0  0  0  0  0  0  0  0  0  0  0  # atno 10167 bound_to 10162
  156.0032  130.4635  150.4111 H   0  0  0  0  0  0  0  0  0  0  0  0  # atno 10718 bound_to 10713
  154.0558  135.2878  155.3333 H   0  0  0  0  0  0  0  0  0  0  0  0  # atno 10763 bound_to 10752
  154.6840  135.5252  153.8305 H   0  0  0  0  0  0  0  0  0  0  0  0  # atno 10764 bound_to 10752
  153.0542  135.6589  154.0750 H   0  0  0  0  0  0  0  0  0  0  0  0  # atno 10765 bound_to 10752
  140.4937  134.5960  157.4964 H   0  0  0  0  0  0  0  0  0  0  0  0  # atno 11005 bound_to 11000
  146.3004  139.7410  142.9095 LP  0  0  0  0  0  0  0  0  0  0  0  0  # atno 17320 bound_to 7965
  145.3926  141.0374  143.3115 LP  0  0  0  0  0  0  0  0  0  0  0  0  # atno 17321 bound_to 7965
  139.4803  144.5905  151.7780 LP  0  0  0  0  0  0  0  0  0  0  0  0  # atno 17342 bound_to 10162
  140.5031  144.1139  150.5976 LP  0  0  0  0  0  0  0  0  0  0  0  0  # atno 17343 bound_to 10162
  157.2173  131.0474  151.2566 LP  0  0  0  0  0  0  0  0  0  0  0  0  # atno 17370 bound_to 10713
  157.3833  130.7243  149.6645 LP  0  0  0  0  0  0  0  0  0  0  0  0  # atno 17371 bound_to 10713
  139.9754  134.7224  155.9961 LP  0  0  0  0  0  0  0  0  0  0  0  0  # atno 17394 bound_to 11000
  141.1471  133.6554  156.3900 LP  0  0  0  0  0  0  0  0  0  0  0  0  # atno 17395 bound_to 11000

$$$$
