AV-unprocessed.smi:2027|AV-procd|sdf|8218|dock7
  -GOLD-   2272010483D 1   1.00000     0.00000
 Structure written by MMmdl.
 51 53  0  0  0  0  0  0  0  0  3 V2000
  153.5106  142.6082  163.5996 C   0  0  0  0  0  0  0  0  0  0  0  0
  153.0364  142.6257  162.1562 C   0  0  0  0  0  0  0  0  0  0  0  0
  152.2736  143.7284  161.7102 C   0  0  0  0  0  0  0  0  0  0  0  0
  151.8524  143.7144  160.3859 C   0  0  0  0  0  0  0  0  0  0  0  0
  151.0982  144.6365  159.6574 N   0  3  0  0  0  0  0  0  0  0  0  0
  150.9353  144.1852  158.3831 C   0  0  0  0  0  0  0  0  0  0  0  0
  151.5768  142.9885  158.2853 N   0  0  0  0  0  0  0  0  0  0  0  0
  151.6953  142.0792  157.1357 C   0  0  0  0  0  0  0  0  0  0  0  0
  150.4069  141.9997  156.2940 C   0  0  1  0  0  0  0  0  0  0  0  0
  150.5531  141.0114  155.2932 O   0  0  0  0  0  0  0  0  0  0  0  0
  149.1842  141.6411  157.1624 C   0  0  0  0  0  0  0  0  0  0  0  0
  147.9107  142.1363  156.5794 N   0  3  1  0  0  0  0  0  0  0  0  0
  147.5810  141.4492  155.3080 C   0  0  0  0  0  0  0  0  0  0  0  0
  146.7841  142.1215  157.5487 C   0  0  0  0  0  0  0  0  0  0  0  0
  145.6086  142.9122  157.0417 C   0  0  0  0  0  0  0  0  0  0  0  0
  144.5389  142.4530  156.2211 C   0  0  0  0  0  0  0  0  0  0  0  0
  143.6566  143.3997  155.9489 N   0  0  0  0  0  0  0  0  0  0  0  0
  144.1319  144.4939  156.5780 N   0  0  0  0  0  0  0  0  0  0  0  0
  143.4045  145.7419  156.4878 C   0  0  0  0  0  0  0  0  0  0  0  0
  145.3096  144.2307  157.2432 C   0  0  0  0  0  0  0  0  0  0  0  0
  152.1644  142.6541  159.5122 C   0  0  0  0  0  0  0  0  0  0  0  0
  152.9189  141.5619  159.9355 C   0  0  0  0  0  0  0  0  0  0  0  0
  153.3560  141.5569  161.2794 C   0  0  0  0  0  0  0  0  0  0  0  0
  154.1795  140.3776  161.7688 C   0  0  0  0  0  0  0  0  0  0  0  0
  153.1448  143.4755  164.1506 H   0  0  0  0  0  0  0  0  0  0  0  0
  154.5999  142.6195  163.6437 H   0  0  0  0  0  0  0  0  0  0  0  0
  153.1519  141.7150  164.1115 H   0  0  0  0  0  0  0  0  0  0  0  0
  152.0278  144.5463  162.3718 H   0  0  0  0  0  0  0  0  0  0  0  0
  150.3912  144.6853  157.5948 H   0  0  0  0  0  0  0  0  0  0  0  0
  152.5499  142.3745  156.5268 H   0  0  0  0  0  0  0  0  0  0  0  0
  151.9350  141.0927  157.5346 H   0  0  0  0  0  0  0  0  0  0  0  0
  150.2580  142.9592  155.7992 H   0  0  0  0  0  0  0  0  0  0  0  0
  150.1819  140.2027  155.6129 H   0  0  0  0  0  0  0  0  0  0  0  0
  149.1492  140.5558  157.2741 H   0  0  0  0  0  0  0  0  0  0  0  0
  149.2952  142.0422  158.1713 H   0  0  0  0  0  0  0  0  0  0  0  0
  147.3982  140.3867  155.4745 H   0  0  0  0  0  0  0  0  0  0  0  0
  148.3990  141.5467  154.5935 H   0  0  0  0  0  0  0  0  0  0  0  0
  146.6958  141.8799  154.8402 H   0  0  0  0  0  0  0  0  0  0  0  0
  146.5063  141.0878  157.7599 H   0  0  0  0  0  0  0  0  0  0  0  0
  147.1106  142.5346  158.5024 H   0  0  0  0  0  0  0  0  0  0  0  0
  144.3777  141.4630  155.8202 H   0  0  0  0  0  0  0  0  0  0  0  0
  143.8416  146.4791  157.1620 H   0  0  0  0  0  0  0  0  0  0  0  0
  142.3613  145.5854  156.7643 H   0  0  0  0  0  0  0  0  0  0  0  0
  143.4522  146.1220  155.4671 H   0  0  0  0  0  0  0  0  0  0  0  0
  145.8313  144.9948  157.8007 H   0  0  0  0  0  0  0  0  0  0  0  0
  153.1665  140.7477  159.2706 H   0  0  0  0  0  0  0  0  0  0  0  0
  154.3564  139.6553  160.9712 H   0  0  0  0  0  0  0  0  0  0  0  0
  153.6632  139.8602  162.5778 H   0  0  0  0  0  0  0  0  0  0  0  0
  155.1501  140.7131  162.1350 H   0  0  0  0  0  0  0  0  0  0  0  0
  148.0783  143.1034  156.3390 H   0  0  0  0  0  0  0  0  0  0  0  0
  150.7172  145.5078  160.0042 H   0  0  0  0  0  0  0  0  0  0  0  0
  1  2  1  0  0  0  0
  1 25  1  0  0  0  0
  1 26  1  0  0  0  0
  1 27  1  0  0  0  0
  2 23  1  0  0  0  0
  2  3  2  0  0  0  0
  3  4  1  0  0  0  0
  3 28  1  0  0  0  0
  4 21  2  0  0  0  0
  4  5  1  0  0  0  0
  5  6  2  0  0  0  0
  5 51  1  0  0  0  0
  6  7  1  0  0  0  0
  6 29  1  0  0  0  0
  7  8  1  0  0  0  0
  7 21  1  0  0  0  0
  8  9  1  0  0  0  0
  8 30  1  0  0  0  0
  8 31  1  0  0  0  0
  9 10  1  0  0  0  0
  9 11  1  0  0  0  0
  9 32  1  0  0  0  0
 10 33  1  0  0  0  0
 11 12  1  0  0  0  0
 11 34  1  0  0  0  0
 11 35  1  0  0  0  0
 12 13  1  0  0  0  0
 12 14  1  0  0  0  0
 12 50  1  0  0  0  0
 13 36  1  0  0  0  0
 13 37  1  0  0  0  0
 13 38  1  0  0  0  0
 14 15  1  0  0  0  0
 14 39  1  0  0  0  0
 14 40  1  0  0  0  0
 15 20  2  0  0  0  0
 15 16  1  0  0  0  0
 16 17  2  0  0  0  0
 16 41  1  0  0  0  0
 17 18  1  0  0  0  0
 18 19  1  0  0  0  0
 18 20  1  0  0  0  0
 19 42  1  0  0  0  0
 19 43  1  0  0  0  0
 19 44  1  0  0  0  0
 20 45  1  0  0  0  0
 21 22  1  0  0  0  0
 22 23  2  0  0  0  0
 22 46  1  0  0  0  0
 23 24  1  0  0  0  0
 24 47  1  0  0  0  0
 24 48  1  0  0  0  0
 24 49  1  0  0  0  0
M  CHG  1   5   1
M  CHG  1  12   1
M  END
> <s_m_source_file>
AV-unprocessed.smi

> <i_m_source_file_index>
2027

> <i_lp_mmshare_version>
43012

> <i_f3d_flags>
0

> <s_epik_input>
W0NIM11jKFtjSF0xKWMoW0NIM10pW2NIXWMoYzEyKW4oW2NIXW4yKVtDSDJdW0NASF0oW09IXSlbQ0gyXU4oW0NIM10pW0NIMl1jM1tjSF1ubihbQ0gzXSlbY0hdMw==

> <s_epik_cmdline>
J2VwaWtfcHl0aG9uJywgJy1waCcsICc3LjAnLCAnLXRuJywgJzgnLCAnLW1hJywgJzIwMCcsICctbWV0YWxfYmluZGluZycsICctaW1hZScsICc8aW5maWxlLm1hZT4nLCAnLW9tYWUnLCAnPG91dGZpbGUubWFlPic=

> <r_lp_tautomer_probability>
1

> <r_epik_Ionization_Penalty>
1.77469

> <r_epik_Ionization_Penalty_Charging>
1.77463

> <r_epik_Ionization_Penalty_Neutral>
6.41153e-05

> <r_epik_State_Penalty>
1.85225

> <r_epik_Charging_Adjusted_Penalty>
3.62688

> <i_epik_Tot_Q>
2

> <i_epik_Tot_abs_Q>
2

> <r_epik_Metal_State_Penalty>
1.92669

> <b_epik_Metal_Only>
0

> <s_lp_Force_Field>
OPLS_2005

> <r_lp_Energy>
18.885

> <b_lp_Chiralities_Consistent>
1

> <s_lp_Variant>
AV-unprocessed.smi:2027-10

> <Gold.Version>
5.8.1

> <Gold.Id.Protein>
6NUR|6NUR_protein|mol2

> <Gold.PLP.Fitness>
59.6893

> <Gold.PLP.PLP>
-47.5416

> <Gold.PLP.part.hbond>
-2.0000

> <Gold.PLP.part.metal>
0.0000

> <Gold.PLP.part.buried>
-5.4257

> <Gold.PLP.part.nonpolar>
-39.4630

> <Gold.PLP.part.repulsive>
0.2407

> <Gold.PLP.ligand.clash>
0.0000

> <Gold.PLP.ligand.torsion>
1.1013

> <Gold.PLP.Chemscore.Hbond>
2.7520

> <Gold.PLP.Chemscore.CHOScore>
2.0095

> <Gold.PLP.Chemscore.Metal>
0.0000

> <Gold.Chemscore.Hbonds>
donor molecule, donor type, donor heavy atom, donor atom, acceptor molecule, acceptor atom, score
      L1  H    12    50       P1  8028  2.00
      P1  H  7989  7998       L1    10  0.62
      L1  C     6    29       P1  8028  1.00
      L1  C     6    29       P1  8029  0.05
      L1  C    20    45       P1  8029  0.93

> <Gold.PLP.Chemscore.Internal.Correction>
0.0659

> <Gold.Rescore>
     Score         DG    S(hbond)    S(metal)    S(lipo)     H(rot)  DE(clash)    DE(int)     intcor
     16.98     -19.56       1.71        0.00     128.15       2.58       1.54       1.03       ----

> <Gold.Chemscore.Fitness>
16.9799

> <Gold.Chemscore.DG>
-19.5561

> <Gold.Chemscore.ZeroCoef>
-5.4800

> <Gold.Chemscore.Hbond>
1.7055

> <Gold.Chemscore.Metal>
0.0000

> <Gold.Chemscore.Lipo>
128.1510

> <Gold.Chemscore.Internal_Hbond>
0.0000

> <Gold.Chemscore.DEClash>
1.5419

> <Gold.Chemscore.DEInternal>
1.0343

> <Gold.Chemscore.Rot>
2.5836

> <Gold.Chemscore.Internal.Correction>
   9.000000E+99

> <Gold.Chemscore.Hbonds>
donor molecule, donor type, donor heavy atom, donor atom, acceptor molecule, acceptor atom, score
      L1  H    12    50       P1  8028  0.40
      P1  H  7989  7998       L1    10  0.57

> <Gold.Chemscore.Hbond.Weighted>
-5.6963

> <Gold.Chemscore.Metal.Weighted>
-0.0000

> <Gold.Chemscore.Lipo.Weighted>
-14.9937

> <Gold.Chemscore.Internal_Hbond.Weighted>
0.0000

> <Gold.Chemscore.DEClash.Weighted>
1.5419

> <Gold.Chemscore.DEInternal.Weighted>
1.0343

> <Gold.Chemscore.Rot.Weighted>
6.6139

> <Gold.Chemscore.Internal.Correction.Weighted>
   9.000000E+99

> <Gold.Protein.RotatedTorsions>
[ 6907 6896 6895 6894 ] final  173.59 input  -60.11 | X-H torsion
[ 7974 7965 7964 7962 ] final  -54.14 input  175.53 | X-H torsion
[ 8008 7997 7996 7995 ] final  111.45 input   59.86 | X-H torsion
[ 10167 10162 10161 10158 ] final  102.98 input  -65.29 | X-H torsion
[ 10718 10713 10712 10709 ] final -118.87 input   66.30 | X-H torsion
[ 10763 10752 10751 10750 ] final   50.50 input  -60.55 | X-H torsion
[ 11005 11000 10999 10996 ] final  168.63 input  -57.11 | X-H torsion

> <Gold.Protein.ActiveResidues>
 VAL166  LYS551  ARG553  GLY616  TRP617  ASP618  TYR619  PRO620  LYS621  CYS622 
 ASP623  PHE694  ASN695  SER759  ASP760  ASP761  ALA762  ILE779  LEU786  VAL792 
 PHE793  MET794  SER795  GLU796  ALA797  LYS798  CYS799  TRP800  GLU811  SER814 

> <Gold.Protein.RotatedAtoms>
  151.7658  133.3337  159.3430 H   0  0  0  0  0  0  0  0  0  0  0  0  # atno 6907 bound_to 6896
  150.7480  134.6064  159.6072 H   0  0  0  0  0  0  0  0  0  0  0  0  # atno 6908 bound_to 6896
  152.3374  134.7181  160.0324 H   0  0  0  0  0  0  0  0  0  0  0  0  # atno 6909 bound_to 6896
  145.8890  140.8086  142.9801 H   0  0  0  0  0  0  0  0  0  0  0  0  # atno 7974 bound_to 7965
  156.2125  140.3019  155.9764 H   0  0  0  0  0  0  0  0  0  0  0  0  # atno 8008 bound_to 7997
  155.2689  140.0433  157.3022 H   0  0  0  0  0  0  0  0  0  0  0  0  # atno 8009 bound_to 7997
  154.5720  140.2351  155.8187 H   0  0  0  0  0  0  0  0  0  0  0  0  # atno 8010 bound_to 7997
  139.7302  144.7038  151.0734 H   0  0  0  0  0  0  0  0  0  0  0  0  # atno 10167 bound_to 10162
  156.1138  130.6270  150.9345 H   0  0  0  0  0  0  0  0  0  0  0  0  # atno 10718 bound_to 10713
  152.9784  135.5877  154.4262 H   0  0  0  0  0  0  0  0  0  0  0  0  # atno 10763 bound_to 10752
  154.3881  135.2767  155.2173 H   0  0  0  0  0  0  0  0  0  0  0  0  # atno 10764 bound_to 10752
  154.4057  135.6093  153.5978 H   0  0  0  0  0  0  0  0  0  0  0  0  # atno 10765 bound_to 10752
  140.2893  134.7686  157.3825 H   0  0  0  0  0  0  0  0  0  0  0  0  # atno 11005 bound_to 11000
  144.6729  140.1500  143.7431 LP  0  0  0  0  0  0  0  0  0  0  0  0  # atno 17320 bound_to 7965
  145.8932  139.2387  143.1537 LP  0  0  0  0  0  0  0  0  0  0  0  0  # atno 17321 bound_to 7965
  140.7770  143.5053  150.9720 LP  0  0  0  0  0  0  0  0  0  0  0  0  # atno 17342 bound_to 10162
  139.8741  143.7155  152.3163 LP  0  0  0  0  0  0  0  0  0  0  0  0  # atno 17343 bound_to 10162
  157.6321  131.0920  150.8421 LP  0  0  0  0  0  0  0  0  0  0  0  0  # atno 17370 bound_to 10713
  156.8527  130.5086  149.5310 LP  0  0  0  0  0  0  0  0  0  0  0  0  # atno 17371 bound_to 10713
  140.1210  134.5219  155.8183 LP  0  0  0  0  0  0  0  0  0  0  0  0  # atno 17394 bound_to 11000
  141.2149  133.6756  156.6866 LP  0  0  0  0  0  0  0  0  0  0  0  0  # atno 17395 bound_to 11000

$$$$
