AV-unprocessed.smi:3345|AV-procd|sdf|12903|dock9
  -GOLD-   2272019313D 1   1.00000     0.00000
 Structure written by MMmdl.
 41 42  0  0  0  0  0  0  0  0  2 V2000
  146.6349  138.6266  151.8899 C   0  0  0  0  0  0  0  0  0  0  0  0
  145.6647  137.4658  152.1458 C   0  0  2  0  0  0  0  0  0  0  0  0
  145.1777  137.4409  153.6126 C   0  0  0  0  0  0  0  0  0  0  0  0
  143.8522  138.0860  153.8026 N   0  3  0  0  0  0  0  0  0  0  0  0
  142.7482  137.3368  153.1580 C   0  0  0  0  0  0  0  0  0  0  0  0
  141.4179  138.0907  153.3272 C   0  0  0  0  0  0  0  0  0  0  0  0
  141.1645  138.3211  154.7077 O   0  0  0  0  0  0  0  0  0  0  0  0
  142.1817  139.1096  155.3138 C   0  0  0  0  0  0  0  0  0  0  0  0
  143.5252  138.3685  155.2208 C   0  0  0  0  0  0  0  0  0  0  0  0
  146.3150  136.2023  151.7998 N   0  0  0  0  0  0  0  0  0  0  0  0
  145.6962  135.0285  151.5907 C   0  0  0  0  0  0  0  0  0  0  0  0
  144.4717  134.9017  151.5811 O   0  0  0  0  0  0  0  0  0  0  0  0
  146.6105  133.8077  151.4162 C   0  0  2  0  0  0  0  0  0  0  0  0
  145.8394  132.5373  151.0051 C   0  0  0  0  0  0  0  0  0  0  0  0
  147.3935  133.6090  152.6300 N   0  0  0  0  0  0  0  0  0  0  0  0
  148.3776  132.7436  152.8839 C   0  0  0  0  0  0  0  0  0  0  0  0
  148.9185  132.8807  154.0862 N   0  0  0  0  0  0  0  0  0  0  0  0
  148.1674  133.9194  154.5578 C   0  0  0  0  0  0  0  0  0  0  0  0
  147.2575  134.4096  153.7169 N   0  0  0  0  0  0  0  0  0  0  0  0
  146.1683  139.5845  152.1218 H   0  0  0  0  0  0  0  0  0  0  0  0
  146.9434  138.6567  150.8442 H   0  0  0  0  0  0  0  0  0  0  0  0
  147.5345  138.5381  152.5001 H   0  0  0  0  0  0  0  0  0  0  0  0
  144.8029  137.6288  151.4974 H   0  0  0  0  0  0  0  0  0  0  0  0
  145.1007  136.3978  153.9236 H   0  0  0  0  0  0  0  0  0  0  0  0
  145.9140  137.9015  154.2729 H   0  0  0  0  0  0  0  0  0  0  0  0
  142.9591  137.2041  152.0963 H   0  0  0  0  0  0  0  0  0  0  0  0
  142.6745  136.3418  153.5996 H   0  0  0  0  0  0  0  0  0  0  0  0
  141.4370  139.0380  152.7879 H   0  0  0  0  0  0  0  0  0  0  0  0
  140.5984  137.5051  152.9105 H   0  0  0  0  0  0  0  0  0  0  0  0
  142.2413  140.0866  154.8311 H   0  0  0  0  0  0  0  0  0  0  0  0
  141.9196  139.2843  156.3572 H   0  0  0  0  0  0  0  0  0  0  0  0
  143.4771  137.4335  155.7811 H   0  0  0  0  0  0  0  0  0  0  0  0
  144.3046  138.9748  155.6809 H   0  0  0  0  0  0  0  0  0  0  0  0
  147.3245  136.2098  151.7707 H   0  0  0  0  0  0  0  0  0  0  0  0
  147.3126  134.0355  150.6122 H   0  0  0  0  0  0  0  0  0  0  0  0
  145.2878  132.6952  150.0777 H   0  0  0  0  0  0  0  0  0  0  0  0
  145.1227  132.2262  151.7663 H   0  0  0  0  0  0  0  0  0  0  0  0
  146.5242  131.7053  150.8387 H   0  0  0  0  0  0  0  0  0  0  0  0
  148.7117  132.0043  152.1708 H   0  0  0  0  0  0  0  0  0  0  0  0
  148.3107  134.3413  155.5418 H   0  0  0  0  0  0  0  0  0  0  0  0
  143.8999  138.9782  153.3312 H   0  0  0  0  0  0  0  0  0  0  0  0
  1  2  1  0  0  0  0
  1 20  1  0  0  0  0
  1 21  1  0  0  0  0
  1 22  1  0  0  0  0
  2  3  1  0  0  0  0
  2 10  1  0  0  0  0
  2 23  1  0  0  0  0
  3  4  1  0  0  0  0
  3 24  1  0  0  0  0
  3 25  1  0  0  0  0
  4  9  1  0  0  0  0
  4  5  1  0  0  0  0
  4 41  1  0  0  0  0
  5  6  1  0  0  0  0
  5 26  1  0  0  0  0
  5 27  1  0  0  0  0
  6  7  1  0  0  0  0
  6 28  1  0  0  0  0
  6 29  1  0  0  0  0
  7  8  1  0  0  0  0
  8  9  1  0  0  0  0
  8 30  1  0  0  0  0
  8 31  1  0  0  0  0
  9 32  1  0  0  0  0
  9 33  1  0  0  0  0
 10 11  1  0  0  0  0
 10 34  1  0  0  0  0
 11 12  2  0  0  0  0
 11 13  1  0  0  0  0
 13 14  1  0  0  0  0
 13 15  1  0  0  0  0
 13 35  1  0  0  0  0
 14 36  1  0  0  0  0
 14 37  1  0  0  0  0
 14 38  1  0  0  0  0
 15 19  1  0  0  0  0
 15 16  1  0  0  0  0
 16 17  2  0  0  0  0
 16 39  1  0  0  0  0
 17 18  1  0  0  0  0
 18 19  2  0  0  0  0
 18 40  1  0  0  0  0
M  CHG  1   4   1
M  END
> <s_m_source_file>
AV-unprocessed.smi

> <i_m_source_file_index>
3345

> <i_lp_mmshare_version>
43012

> <i_f3d_flags>
0

> <s_epik_input>
W0NIMl0xW0NIMl1PW0NIMl1bQ0gyXU4xW0NIMl1bQ0BASF0oW0NIM10pW05IXUMoPU8pW0NASF0oW0NIM10pbjJbY0hdbltjSF1uMg==

> <s_epik_cmdline>
J2VwaWtfcHl0aG9uJywgJy1waCcsICc3LjAnLCAnLXRuJywgJzgnLCAnLW1hJywgJzIwMCcsICctbWV0YWxfYmluZGluZycsICctaW1hZScsICc8aW5maWxlLm1hZT4nLCAnLW9tYWUnLCAnPG91dGZpbGUubWFlPic=

> <r_lp_tautomer_probability>
1

> <r_epik_Ionization_Penalty>
0.71326

> <r_epik_Ionization_Penalty_Charging>
0.713252

> <r_epik_Ionization_Penalty_Neutral>
8.27671e-06

> <r_epik_State_Penalty>
0.737017

> <r_epik_Charging_Adjusted_Penalty>
1.45027

> <i_epik_Tot_Q>
1

> <i_epik_Tot_abs_Q>
1

> <r_epik_Metal_State_Penalty>
0.73702

> <b_epik_Metal_Only>
0

> <s_lp_Force_Field>
OPLS_2005

> <r_lp_Energy>
25.9312

> <b_lp_Chiralities_Consistent>
1

> <s_lp_Variant>
AV-unprocessed.smi:3345-5

> <Gold.Version>
5.8.1

> <Gold.Id.Protein>
6NUR|6NUR_protein|mol2

> <Gold.PLP.Fitness>
38.4185

> <Gold.PLP.PLP>
-28.0542

> <Gold.PLP.part.hbond>
-2.0000

> <Gold.PLP.part.metal>
0.0000

> <Gold.PLP.part.buried>
-3.0487

> <Gold.PLP.part.nonpolar>
-24.3390

> <Gold.PLP.part.repulsive>
0.5160

> <Gold.PLP.ligand.clash>
0.0000

> <Gold.PLP.ligand.torsion>
0.8926

> <Gold.PLP.Chemscore.Hbond>
3.0000

> <Gold.PLP.Chemscore.CHOScore>
1.0000

> <Gold.PLP.Chemscore.Metal>
0.0000

> <Gold.Chemscore.Hbonds>
donor molecule, donor type, donor heavy atom, donor atom, acceptor molecule, acceptor atom, score
      L1  H     4    41       P1 10175  2.00
      L1  H    10    34       P1  7948  1.00
      L1  C    16    39       P1 10747  1.00

> <Gold.PLP.Chemscore.Internal.Correction>
0.1495

> <Gold.Rescore>
     Score         DG    S(hbond)    S(metal)    S(lipo)     H(rot)  DE(clash)    DE(int)     intcor
      8.58     -10.84       2.00        0.00      45.96       2.61       0.02       2.24       ----

> <Gold.Chemscore.Fitness>
8.5763

> <Gold.Chemscore.DG>
-10.8415

> <Gold.Chemscore.ZeroCoef>
-5.4800

> <Gold.Chemscore.Hbond>
1.9988

> <Gold.Chemscore.Metal>
0.0000

> <Gold.Chemscore.Lipo>
45.9561

> <Gold.Chemscore.Internal_Hbond>
0.0000

> <Gold.Chemscore.DEClash>
0.0206

> <Gold.Chemscore.DEInternal>
2.2446

> <Gold.Chemscore.Rot>
2.6138

> <Gold.Chemscore.Internal.Correction>
   9.000000E+99

> <Gold.Chemscore.Hbonds>
donor molecule, donor type, donor heavy atom, donor atom, acceptor molecule, acceptor atom, score
      L1  H     4    41       P1 10175  1.00
      L1  H    10    34       P1  7948  0.99

> <Gold.Chemscore.Hbond.Weighted>
-6.6758

> <Gold.Chemscore.Metal.Weighted>
-0.0000

> <Gold.Chemscore.Lipo.Weighted>
-5.3769

> <Gold.Chemscore.Internal_Hbond.Weighted>
0.0000

> <Gold.Chemscore.DEClash.Weighted>
0.0206

> <Gold.Chemscore.DEInternal.Weighted>
2.2446

> <Gold.Chemscore.Rot.Weighted>
6.6912

> <Gold.Chemscore.Internal.Correction.Weighted>
   9.000000E+99

> <Gold.Protein.RotatedTorsions>
[ 6907 6896 6895 6894 ] final  103.92 input  -60.11 | X-H torsion
[ 7974 7965 7964 7962 ] final   37.90 input  175.53 | X-H torsion
[ 8008 7997 7996 7995 ] final  -81.03 input   59.86 | X-H torsion
[ 10167 10162 10161 10158 ] final -123.81 input  -65.29 | X-H torsion
[ 10718 10713 10712 10709 ] final   31.07 input   66.30 | X-H torsion
[ 10763 10752 10751 10750 ] final -155.39 input  -60.55 | X-H torsion
[ 11005 11000 10999 10996 ] final  151.92 input  -57.11 | X-H torsion

> <Gold.Protein.ActiveResidues>
 VAL166  LYS551  ARG553  GLY616  TRP617  ASP618  TYR619  PRO620  LYS621  CYS622 
 ASP623  PHE694  ASN695  SER759  ASP760  ASP761  ALA762  ILE779  LEU786  VAL792 
 PHE793  MET794  SER795  GLU796  ALA797  LYS798  CYS799  TRP800  GLU811  SER814 

> <Gold.Protein.RotatedAtoms>
  152.5281  133.9754  159.7781 H   0  0  0  0  0  0  0  0  0  0  0  0  # atno 6907 bound_to 6896
  151.0018  133.6041  159.2701 H   0  0  0  0  0  0  0  0  0  0  0  0  # atno 6908 bound_to 6896
  151.3147  135.0809  159.9338 H   0  0  0  0  0  0  0  0  0  0  0  0  # atno 6909 bound_to 6896
  146.1103  139.5838  142.9357 H   0  0  0  0  0  0  0  0  0  0  0  0  # atno 7974 bound_to 7965
  154.5943  140.0654  156.9281 H   0  0  0  0  0  0  0  0  0  0  0  0  # atno 8008 bound_to 7997
  155.2242  140.3332  155.4293 H   0  0  0  0  0  0  0  0  0  0  0  0  # atno 8009 bound_to 7997
  156.2276  140.1826  156.7307 H   0  0  0  0  0  0  0  0  0  0  0  0  # atno 8010 bound_to 7997
  139.9995  143.5555  152.2309 H   0  0  0  0  0  0  0  0  0  0  0  0  # atno 10167 bound_to 10162
  157.2677  130.7192  149.6487 H   0  0  0  0  0  0  0  0  0  0  0  0  # atno 10718 bound_to 10713
  154.7790  135.3169  154.8030 H   0  0  0  0  0  0  0  0  0  0  0  0  # atno 10763 bound_to 10752
  153.8746  135.6841  153.4776 H   0  0  0  0  0  0  0  0  0  0  0  0  # atno 10764 bound_to 10752
  153.1422  135.4734  154.9449 H   0  0  0  0  0  0  0  0  0  0  0  0  # atno 10765 bound_to 10752
  140.1262  134.8832  157.2140 H   0  0  0  0  0  0  0  0  0  0  0  0  # atno 11005 bound_to 11000
  145.5678  141.0397  143.2191 LP  0  0  0  0  0  0  0  0  0  0  0  0  # atno 17320 bound_to 7965
  144.7505  139.7205  143.7275 LP  0  0  0  0  0  0  0  0  0  0  0  0  # atno 17321 bound_to 7965
  139.6282  144.7640  151.2593 LP  0  0  0  0  0  0  0  0  0  0  0  0  # atno 17342 bound_to 10162
  140.7424  143.6526  150.8234 LP  0  0  0  0  0  0  0  0  0  0  0  0  # atno 17343 bound_to 10162
  155.9663  130.4377  150.5188 LP  0  0  0  0  0  0  0  0  0  0  0  0  # atno 17370 bound_to 10713
  157.3106  131.0663  151.2004 LP  0  0  0  0  0  0  0  0  0  0  0  0  # atno 17371 bound_to 10713
  140.2901  134.3250  155.7317 LP  0  0  0  0  0  0  0  0  0  0  0  0  # atno 17394 bound_to 11000
  141.2161  133.7530  156.9491 LP  0  0  0  0  0  0  0  0  0  0  0  0  # atno 17395 bound_to 11000

$$$$
