AV-unprocessed.smi:1365|AV-procd|sdf|5568|dock3
  -GOLD-   22720 5163D 1   1.00000     0.00000
 Structure written by MMmdl.
 42 43  0  0  0  0  0  0  0  0  2 V2000
  150.9634  142.4931  157.3505 C   0  0  0  0  0  0  0  0  0  0  0  0
  150.5640  141.4845  156.3280 C   0  0  0  0  0  0  0  0  0  0  0  0
  149.5804  141.4611  155.3794 C   0  0  0  0  0  0  0  0  0  0  0  0
  149.7618  140.1952  154.7616 C   0  0  0  0  0  0  0  0  0  0  0  0
  148.9151  139.7719  153.7051 N   0  0  0  0  0  0  0  0  0  0  0  0
  147.8353  138.9763  153.7910 C   0  0  0  0  0  0  0  0  0  0  0  0
  147.4127  138.4617  154.8269 O   0  0  0  0  0  0  0  0  0  0  0  0
  147.2545  138.8083  152.5938 N   0  0  0  0  0  0  0  0  0  0  0  0
  146.0325  138.0469  152.3602 C   0  0  0  0  0  0  0  0  0  0  0  0
  146.2491  136.9075  151.3505 C   0  0  0  0  0  0  0  0  0  0  0  0
  144.9699  136.0839  151.1241 C   0  0  0  0  0  0  0  0  0  0  0  0
  145.2554  134.7371  150.5683 N   0  3  0  0  0  0  0  0  0  0  0  0
  146.1763  133.9537  151.4338 C   0  0  0  0  0  0  0  0  0  0  0  0
  146.5630  132.6192  150.7736 C   0  0  0  0  0  0  0  0  0  0  0  0
  145.3158  131.7974  150.4245 C   0  0  0  0  0  0  0  0  0  0  0  0
  144.3661  132.6337  149.5575 C   0  0  0  0  0  0  0  0  0  0  0  0
  144.0243  133.9675  150.2428 C   0  0  0  0  0  0  0  0  0  0  0  0
  150.7688  139.5102  155.2815 N   0  0  0  0  0  0  0  0  0  0  0  0
  151.2875  140.3326  156.2887 O   0  0  0  0  0  0  0  0  0  0  0  0
  150.5876  143.4823  157.0885 H   0  0  0  0  0  0  0  0  0  0  0  0
  152.0487  142.5557  157.4317 H   0  0  0  0  0  0  0  0  0  0  0  0
  150.5647  142.2274  158.3297 H   0  0  0  0  0  0  0  0  0  0  0  0
  148.8473  142.2258  155.1689 H   0  0  0  0  0  0  0  0  0  0  0  0
  149.1439  140.1316  152.7902 H   0  0  0  0  0  0  0  0  0  0  0  0
  147.6700  139.2630  151.7937 H   0  0  0  0  0  0  0  0  0  0  0  0
  145.6562  137.6548  153.3066 H   0  0  0  0  0  0  0  0  0  0  0  0
  145.2729  138.7340  151.9865 H   0  0  0  0  0  0  0  0  0  0  0  0
  146.6033  137.3315  150.4111 H   0  0  0  0  0  0  0  0  0  0  0  0
  147.0386  136.2449  151.7079 H   0  0  0  0  0  0  0  0  0  0  0  0
  144.4699  135.9747  152.0876 H   0  0  0  0  0  0  0  0  0  0  0  0
  144.2719  136.6156  150.4756 H   0  0  0  0  0  0  0  0  0  0  0  0
  147.0823  134.5302  151.6258 H   0  0  0  0  0  0  0  0  0  0  0  0
  145.7038  133.7728  152.4008 H   0  0  0  0  0  0  0  0  0  0  0  0
  147.1411  132.8116  149.8687 H   0  0  0  0  0  0  0  0  0  0  0  0
  147.2115  132.0475  151.4384 H   0  0  0  0  0  0  0  0  0  0  0  0
  145.5993  130.8834  149.9016 H   0  0  0  0  0  0  0  0  0  0  0  0
  144.8075  131.4902  151.3394 H   0  0  0  0  0  0  0  0  0  0  0  0
  144.8281  132.8276  148.5886 H   0  0  0  0  0  0  0  0  0  0  0  0
  143.4526  132.0724  149.3582 H   0  0  0  0  0  0  0  0  0  0  0  0
  143.4576  133.7823  151.1570 H   0  0  0  0  0  0  0  0  0  0  0  0
  143.3778  134.5465  149.5843 H   0  0  0  0  0  0  0  0  0  0  0  0
  145.7494  134.8866  149.6997 H   0  0  0  0  0  0  0  0  0  0  0  0
  1  2  1  0  0  0  0
  1 20  1  0  0  0  0
  1 21  1  0  0  0  0
  1 22  1  0  0  0  0
  2 19  1  0  0  0  0
  2  3  2  0  0  0  0
  3  4  1  0  0  0  0
  3 23  1  0  0  0  0
  4  5  1  0  0  0  0
  4 18  2  0  0  0  0
  5  6  1  0  0  0  0
  5 24  1  0  0  0  0
  6  7  2  0  0  0  0
  6  8  1  0  0  0  0
  8  9  1  0  0  0  0
  8 25  1  0  0  0  0
  9 10  1  0  0  0  0
  9 26  1  0  0  0  0
  9 27  1  0  0  0  0
 10 11  1  0  0  0  0
 10 28  1  0  0  0  0
 10 29  1  0  0  0  0
 11 12  1  0  0  0  0
 11 30  1  0  0  0  0
 11 31  1  0  0  0  0
 12 17  1  0  0  0  0
 12 13  1  0  0  0  0
 12 42  1  0  0  0  0
 13 14  1  0  0  0  0
 13 32  1  0  0  0  0
 13 33  1  0  0  0  0
 14 15  1  0  0  0  0
 14 34  1  0  0  0  0
 14 35  1  0  0  0  0
 15 16  1  0  0  0  0
 15 36  1  0  0  0  0
 15 37  1  0  0  0  0
 16 17  1  0  0  0  0
 16 38  1  0  0  0  0
 16 39  1  0  0  0  0
 17 40  1  0  0  0  0
 17 41  1  0  0  0  0
 18 19  1  0  0  0  0
M  CHG  1  12   1
M  END
> <s_m_source_file>
AV-unprocessed.smi

> <i_m_source_file_index>
1365

> <i_lp_mmshare_version>
43012

> <i_f3d_flags>
0

> <s_epik_input>
W0NIM11jMVtjSF1jKG5vMSlbTkhdQyg9TylbTkhdW0NIMl1bQ0gyXVtDSDJdTjJbQ0gyXVtDSDJdW0NIMl1bQ0gyXVtDSDJdMg==

> <s_epik_cmdline>
J2VwaWtfcHl0aG9uJywgJy1waCcsICc3LjAnLCAnLXRuJywgJzgnLCAnLW1hJywgJzIwMCcsICctbWV0YWxfYmluZGluZycsICctaW1hZScsICc8aW5maWxlLm1hZT4nLCAnLW9tYWUnLCAnPG91dGZpbGUubWFlPic=

> <r_epik_Ionization_Penalty>
0.000389345

> <r_epik_Ionization_Penalty_Charging>
0.000358942

> <r_epik_Ionization_Penalty_Neutral>
3.04028e-05

> <r_epik_State_Penalty>
0.000218395

> <r_epik_Charging_Adjusted_Penalty>
0.000577337

> <i_epik_Tot_Q>
1

> <i_epik_Tot_abs_Q>
1

> <r_epik_Metal_State_Penalty>
0.0112716

> <b_epik_Metal_Only>
0

> <s_lp_Force_Field>
OPLS_2005

> <r_lp_Energy>
13.5089

> <b_lp_Chiralities_Consistent>
1

> <s_lp_Variant>
AV-unprocessed.smi:1365-1

> <Gold.Version>
5.8.1

> <Gold.Id.Protein>
6NUR|6NUR_protein|mol2

> <Gold.PLP.Fitness>
41.8089

> <Gold.PLP.PLP>
-34.8344

> <Gold.PLP.part.hbond>
-3.9447

> <Gold.PLP.part.metal>
0.0000

> <Gold.PLP.part.buried>
1.8165

> <Gold.PLP.part.nonpolar>
-33.7577

> <Gold.PLP.part.repulsive>
0.3859

> <Gold.PLP.ligand.clash>
0.0000

> <Gold.PLP.ligand.torsion>
0.8471

> <Gold.PLP.Chemscore.Hbond>
2.8800

> <Gold.PLP.Chemscore.CHOScore>
0.0000

> <Gold.PLP.Chemscore.Metal>
0.0000

> <Gold.Chemscore.Hbonds>
donor molecule, donor type, donor heavy atom, donor atom, acceptor molecule, acceptor atom, score
      L1  H     5    24       P1  7957  1.00
      L1  H     8    25       P1  7957  0.58
      L1  H    12    42       P1  7921  0.83

> <Gold.PLP.Chemscore.Internal.Correction>
0.0288

> <Gold.Rescore>
     Score         DG    S(hbond)    S(metal)    S(lipo)     H(rot)  DE(clash)    DE(int)     intcor
     17.12     -20.70       2.77        0.00      90.89       1.82       2.67       0.91       ----

> <Gold.Chemscore.Fitness>
17.1226

> <Gold.Chemscore.DG>
-20.6973

> <Gold.Chemscore.ZeroCoef>
-5.4800

> <Gold.Chemscore.Hbond>
2.7671

> <Gold.Chemscore.Metal>
0.0000

> <Gold.Chemscore.Lipo>
90.8933

> <Gold.Chemscore.Internal_Hbond>
0.0000

> <Gold.Chemscore.DEClash>
2.6690

> <Gold.Chemscore.DEInternal>
0.9058

> <Gold.Chemscore.Rot>
1.8201

> <Gold.Chemscore.Internal.Correction>
   9.000000E+99

> <Gold.Chemscore.Hbonds>
donor molecule, donor type, donor heavy atom, donor atom, acceptor molecule, acceptor atom, score
      L1  H     5    24       P1  7957  0.98
      L1  H     8    25       P1  7957  0.56
      L1  H    12    42       P1  7921  0.76

> <Gold.Chemscore.Hbond.Weighted>
-9.2422

> <Gold.Chemscore.Metal.Weighted>
-0.0000

> <Gold.Chemscore.Lipo.Weighted>
-10.6345

> <Gold.Chemscore.Internal_Hbond.Weighted>
0.0000

> <Gold.Chemscore.DEClash.Weighted>
2.6690

> <Gold.Chemscore.DEInternal.Weighted>
0.9058

> <Gold.Chemscore.Rot.Weighted>
4.6593

> <Gold.Chemscore.Internal.Correction.Weighted>
   9.000000E+99

> <Gold.Protein.RotatedTorsions>
[ 6907 6896 6895 6894 ] final  166.18 input  -60.11 | X-H torsion
[ 7974 7965 7964 7962 ] final  -75.86 input  175.53 | X-H torsion
[ 8008 7997 7996 7995 ] final  -68.05 input   59.86 | X-H torsion
[ 10167 10162 10161 10158 ] final -131.54 input  -65.29 | X-H torsion
[ 10718 10713 10712 10709 ] final  -45.85 input   66.30 | X-H torsion
[ 10763 10752 10751 10750 ] final   80.93 input  -60.55 | X-H torsion
[ 11005 11000 10999 10996 ] final  -95.86 input  -57.11 | X-H torsion

> <Gold.Protein.ActiveResidues>
 VAL166  LYS551  ARG553  GLY616  TRP617  ASP618  TYR619  PRO620  LYS621  CYS622 
 ASP623  PHE694  ASN695  SER759  ASP760  ASP761  ALA762  ILE779  LEU786  VAL792 
 PHE793  MET794  SER795  GLU796  ALA797  LYS798  CYS799  TRP800  GLU811  SER814 

> <Gold.Protein.RotatedAtoms>
  151.8828  133.3499  159.3771 H   0  0  0  0  0  0  0  0  0  0  0  0  # atno 6907 bound_to 6896
  150.7123  134.5001  159.5566 H   0  0  0  0  0  0  0  0  0  0  0  0  # atno 6908 bound_to 6896
  152.2556  134.8088  160.0490 H   0  0  0  0  0  0  0  0  0  0  0  0  # atno 6909 bound_to 6896
  145.6205  140.9364  143.1140 H   0  0  0  0  0  0  0  0  0  0  0  0  # atno 7974 bound_to 7965
  154.4841  140.0880  156.7446 H   0  0  0  0  0  0  0  0  0  0  0  0  # atno 8008 bound_to 7997
  155.4395  140.3453  155.4270 H   0  0  0  0  0  0  0  0  0  0  0  0  # atno 8009 bound_to 7997
  156.1235  140.1481  156.9158 H   0  0  0  0  0  0  0  0  0  0  0  0  # atno 8010 bound_to 7997
  139.9178  143.6418  152.2560 H   0  0  0  0  0  0  0  0  0  0  0  0  # atno 10167 bound_to 10162
  156.2242  130.4168  149.8955 H   0  0  0  0  0  0  0  0  0  0  0  0  # atno 10718 bound_to 10713
  153.1074  135.4784  154.8975 H   0  0  0  0  0  0  0  0  0  0  0  0  # atno 10763 bound_to 10752
  154.7445  135.3090  154.8672 H   0  0  0  0  0  0  0  0  0  0  0  0  # atno 10764 bound_to 10752
  153.9271  135.6848  153.4800 H   0  0  0  0  0  0  0  0  0  0  0  0  # atno 10765 bound_to 10752
  141.1429  133.8056  157.0493 H   0  0  0  0  0  0  0  0  0  0  0  0  # atno 11005 bound_to 11000
  144.7233  139.7958  143.7374 LP  0  0  0  0  0  0  0  0  0  0  0  0  # atno 17320 bound_to 7965
  146.1435  139.4498  143.0094 LP  0  0  0  0  0  0  0  0  0  0  0  0  # atno 17321 bound_to 7965
  139.6887  144.7649  151.1477 LP  0  0  0  0  0  0  0  0  0  0  0  0  # atno 17342 bound_to 10162
  140.7670  143.5620  150.9089 LP  0  0  0  0  0  0  0  0  0  0  0  0  # atno 17343 bound_to 10162
  156.6591  130.8774  151.3544 LP  0  0  0  0  0  0  0  0  0  0  0  0  # atno 17370 bound_to 10713
  157.7102  130.9432  150.1065 LP  0  0  0  0  0  0  0  0  0  0  0  0  # atno 17371 bound_to 10713
  140.0642  134.9738  157.1358 LP  0  0  0  0  0  0  0  0  0  0  0  0  # atno 17394 bound_to 11000
  140.3804  134.2294  155.7171 LP  0  0  0  0  0  0  0  0  0  0  0  0  # atno 17395 bound_to 11000

$$$$
