AV-unprocessed.smi:1075|AV-procd|sdf|4693|dock1
  -GOLD-   22720 3213D 1   1.00000     0.00000
 Structure written by MMmdl.
 50 51  0  0  0  0  0  0  0  0  1 V2000
  151.8149  143.2416  158.5018 C   0  0  0  0  0  0  0  0  0  0  0  0
  151.8094  141.8171  158.0252 C   0  0  0  0  0  0  0  0  0  0  0  0
  151.4212  141.5502  156.7902 N   0  0  0  0  0  0  0  0  0  0  0  0
  151.5193  140.2110  156.6812 N   0  0  0  0  0  0  0  0  0  0  0  0
  151.1604  139.5731  155.4292 C   0  0  0  0  0  0  0  0  0  0  0  0
  151.9668  139.6286  157.8512 C   0  0  0  0  0  0  0  0  0  0  0  0
  152.1414  138.1477  157.9754 C   0  0  0  0  0  0  0  0  0  0  0  0
  152.1735  140.6443  158.7512 C   0  0  0  0  0  0  0  0  0  0  0  0
  152.6546  140.5874  160.1894 C   0  0  2  0  0  0  0  0  0  0  0  0
  153.4898  141.8299  160.5527 C   0  0  0  0  0  0  0  0  0  0  0  0
  153.3903  139.2622  160.4654 C   0  0  0  0  0  0  0  0  0  0  0  0
  154.3994  138.9635  159.8265 O   0  0  0  0  0  0  0  0  0  0  0  0
  152.8717  138.4871  161.4360 N   0  0  0  0  0  0  0  0  0  0  0  0
  153.3313  137.1804  161.9236 C   0  0  1  0  0  0  0  0  0  0  0  0
  153.3183  136.1525  160.7713 C   0  0  0  0  0  0  0  0  0  0  0  0
  154.7455  137.2780  162.5523 C   0  0  0  0  0  0  0  0  0  0  0  0
  154.7819  138.1823  163.7981 C   0  0  0  0  0  0  0  0  0  0  0  0
  153.7777  137.7126  164.8665 C   0  0  1  0  0  0  0  0  0  0  0  0
  153.8036  138.6236  166.1017 C   0  0  0  0  0  0  0  0  0  0  0  0
  152.3624  137.6138  164.2687 C   0  0  0  0  0  0  0  0  0  0  0  0
  152.3373  136.7179  163.0157 C   0  0  0  0  0  0  0  0  0  0  0  0
  151.1701  143.3613  159.3728 H   0  0  0  0  0  0  0  0  0  0  0  0
  151.4615  143.9287  157.7320 H   0  0  0  0  0  0  0  0  0  0  0  0
  152.8204  143.5523  158.7865 H   0  0  0  0  0  0  0  0  0  0  0  0
  151.9744  138.9270  155.1004 H   0  0  0  0  0  0  0  0  0  0  0  0
  150.9711  140.3191  154.6561 H   0  0  0  0  0  0  0  0  0  0  0  0
  150.2619  138.9720  155.5696 H   0  0  0  0  0  0  0  0  0  0  0  0
  152.2452  137.8425  159.0159 H   0  0  0  0  0  0  0  0  0  0  0  0
  153.0310  137.8187  157.4385 H   0  0  0  0  0  0  0  0  0  0  0  0
  151.2818  137.6171  157.5656 H   0  0  0  0  0  0  0  0  0  0  0  0
  151.7966  140.5833  160.8624 H   0  0  0  0  0  0  0  0  0  0  0  0
  154.3960  141.9037  159.9514 H   0  0  0  0  0  0  0  0  0  0  0  0
  153.7877  141.8177  161.6016 H   0  0  0  0  0  0  0  0  0  0  0  0
  152.9137  142.7417  160.3925 H   0  0  0  0  0  0  0  0  0  0  0  0
  152.0430  138.8444  161.8892 H   0  0  0  0  0  0  0  0  0  0  0  0
  153.5496  135.1509  161.1350 H   0  0  0  0  0  0  0  0  0  0  0  0
  154.0536  136.3875  160.0022 H   0  0  0  0  0  0  0  0  0  0  0  0
  152.3403  136.1080  160.2906 H   0  0  0  0  0  0  0  0  0  0  0  0
  155.0812  136.2799  162.8373 H   0  0  0  0  0  0  0  0  0  0  0  0
  155.4736  137.6324  161.8228 H   0  0  0  0  0  0  0  0  0  0  0  0
  155.7901  138.1848  164.2138 H   0  0  0  0  0  0  0  0  0  0  0  0
  154.5682  139.2134  163.5138 H   0  0  0  0  0  0  0  0  0  0  0  0
  154.0750  136.7136  165.1890 H   0  0  0  0  0  0  0  0  0  0  0  0
  153.5118  139.6435  165.8486 H   0  0  0  0  0  0  0  0  0  0  0  0
  154.8012  138.6618  166.5401 H   0  0  0  0  0  0  0  0  0  0  0  0
  153.1198  138.2623  166.8704 H   0  0  0  0  0  0  0  0  0  0  0  0
  151.6734  137.2133  165.0131 H   0  0  0  0  0  0  0  0  0  0  0  0
  151.9937  138.6101  164.0204 H   0  0  0  0  0  0  0  0  0  0  0  0
  151.3239  136.6857  162.6127 H   0  0  0  0  0  0  0  0  0  0  0  0
  152.5727  135.6953  163.3146 H   0  0  0  0  0  0  0  0  0  0  0  0
  1  2  1  0  0  0  0
  1 22  1  0  0  0  0
  1 23  1  0  0  0  0
  1 24  1  0  0  0  0
  2  8  1  0  0  0  0
  2  3  2  0  0  0  0
  3  4  1  0  0  0  0
  4  5  1  0  0  0  0
  4  6  1  0  0  0  0
  5 25  1  0  0  0  0
  5 26  1  0  0  0  0
  5 27  1  0  0  0  0
  6  7  1  0  0  0  0
  6  8  2  0  0  0  0
  7 28  1  0  0  0  0
  7 29  1  0  0  0  0
  7 30  1  0  0  0  0
  8  9  1  0  0  0  0
  9 10  1  0  0  0  0
  9 11  1  0  0  0  0
  9 31  1  0  0  0  0
 10 32  1  0  0  0  0
 10 33  1  0  0  0  0
 10 34  1  0  0  0  0
 11 12  2  0  0  0  0
 11 13  1  0  0  0  0
 13 14  1  0  0  0  0
 13 35  1  0  0  0  0
 14 21  1  0  0  0  0
 14 15  1  0  0  0  0
 14 16  1  0  0  0  0
 15 36  1  0  0  0  0
 15 37  1  0  0  0  0
 15 38  1  0  0  0  0
 16 17  1  0  0  0  0
 16 39  1  0  0  0  0
 16 40  1  0  0  0  0
 17 18  1  0  0  0  0
 17 41  1  0  0  0  0
 17 42  1  0  0  0  0
 18 19  1  0  0  0  0
 18 20  1  0  0  0  0
 18 43  1  0  0  0  0
 19 44  1  0  0  0  0
 19 45  1  0  0  0  0
 19 46  1  0  0  0  0
 20 21  1  0  0  0  0
 20 47  1  0  0  0  0
 20 48  1  0  0  0  0
 21 49  1  0  0  0  0
 21 50  1  0  0  0  0
M  END
> <s_m_source_file>
AV-unprocessed.smi

> <i_m_source_file_index>
1075

> <i_lp_mmshare_version>
43012

> <i_f3d_flags>
0

> <s_epik_input>
W0NIM11jMW5uKFtDSDNdKWMoW0NIM10pYzFbQ0BIXShbQ0gzXSlDKD1PKVtOSF1bQ0BAXTIoW0NIM10pW0NIMl1bQ0gyXVtDQEBIXShbQ0gzXSlbQ0gyXVtDSDJdMg==

> <s_epik_cmdline>
J2VwaWtfcHl0aG9uJywgJy1waCcsICc3LjAnLCAnLXRuJywgJzgnLCAnLW1hJywgJzIwMCcsICctbWV0YWxfYmluZGluZycsICctaW1hZScsICc8aW5maWxlLm1hZT4nLCAnLW9tYWUnLCAnPG91dGZpbGUubWFlPic=

> <r_lp_tautomer_probability>
1

> <r_epik_Ionization_Penalty>
0.00502928

> <r_epik_Ionization_Penalty_Charging>
0

> <r_epik_Ionization_Penalty_Neutral>
0.00502928

> <r_epik_State_Penalty>
0.0036576

> <r_epik_Charging_Adjusted_Penalty>
0.0036576

> <i_epik_Tot_Q>
0

> <i_epik_Tot_abs_Q>
0

> <r_epik_Metal_State_Penalty>
-0

> <b_epik_Metal_Only>
0

> <s_lp_Force_Field>
OPLS_2005

> <r_lp_Energy>
4.57547

> <b_lp_Chiralities_Consistent>
1

> <s_lp_Variant>
AV-unprocessed.smi:1075-1

> <Gold.Version>
5.8.1

> <Gold.Id.Protein>
6NUR|6NUR_protein|mol2

> <Gold.PLP.Fitness>
36.2947

> <Gold.PLP.PLP>
-34.5720

> <Gold.PLP.part.hbond>
-1.0000

> <Gold.PLP.part.metal>
0.0000

> <Gold.PLP.part.buried>
-3.2889

> <Gold.PLP.part.nonpolar>
-29.8886

> <Gold.PLP.part.repulsive>
0.0532

> <Gold.PLP.ligand.clash>
0.0000

> <Gold.PLP.ligand.torsion>
0.6834

> <Gold.PLP.Chemscore.Hbond>
1.0000

> <Gold.PLP.Chemscore.CHOScore>
0.0000

> <Gold.PLP.Chemscore.Metal>
0.0000

> <Gold.PLP.Chemscore.Internal.Correction>
0.0894

> <Gold.Rescore>
     Score         DG    S(hbond)    S(metal)    S(lipo)     H(rot)  DE(clash)    DE(int)     intcor
     15.69     -17.58       0.98        0.00     102.40       1.23       0.05       1.84       ----

> <Gold.Chemscore.Fitness>
15.6934

> <Gold.Chemscore.DG>
-17.5814

> <Gold.Chemscore.ZeroCoef>
-5.4800

> <Gold.Chemscore.Hbond>
0.9806

> <Gold.Chemscore.Metal>
0.0000

> <Gold.Chemscore.Lipo>
102.3959

> <Gold.Chemscore.Internal_Hbond>
0.0000

> <Gold.Chemscore.DEClash>
0.0469

> <Gold.Chemscore.DEInternal>
1.8411

> <Gold.Chemscore.Rot>
1.2321

> <Gold.Chemscore.Internal.Correction>
   9.000000E+99

> <Gold.Chemscore.Hbond.Weighted>
-3.2752

> <Gold.Chemscore.Metal.Weighted>
-0.0000

> <Gold.Chemscore.Lipo.Weighted>
-11.9803

> <Gold.Chemscore.Internal_Hbond.Weighted>
0.0000

> <Gold.Chemscore.DEClash.Weighted>
0.0469

> <Gold.Chemscore.DEInternal.Weighted>
1.8411

> <Gold.Chemscore.Rot.Weighted>
3.1541

> <Gold.Chemscore.Internal.Correction.Weighted>
   9.000000E+99

> <Gold.Protein.RotatedTorsions>
[ 6907 6896 6895 6894 ] final  148.10 input  -60.11 | X-H torsion
[ 7974 7965 7964 7962 ] final -179.10 input  175.53 | X-H torsion
[ 8008 7997 7996 7995 ] final   -9.18 input   59.86 | X-H torsion
[ 10167 10162 10161 10158 ] final -103.09 input  -65.29 | X-H torsion
[ 10718 10713 10712 10709 ] final  -47.28 input   66.30 | X-H torsion
[ 10763 10752 10751 10750 ] final  -66.87 input  -60.55 | X-H torsion
[ 11005 11000 10999 10996 ] final -133.15 input  -57.11 | X-H torsion

> <Gold.Protein.ActiveResidues>
 VAL166  LYS551  ARG553  GLY616  TRP617  ASP618  TYR619  PRO620  LYS621  CYS622 
 ASP623  PHE694  ASN695  SER759  ASP760  ASP761  ALA762  ILE779  LEU786  VAL792 
 PHE793  MET794  SER795  GLU796  ALA797  LYS798  CYS799  TRP800  GLU811  SER814 

> <Gold.Protein.RotatedAtoms>
  152.1459  133.4492  159.4789 H   0  0  0  0  0  0  0  0  0  0  0  0  # atno 6907 bound_to 6896
  150.6890  134.2248  159.4420 H   0  0  0  0  0  0  0  0  0  0  0  0  # atno 6908 bound_to 6896
  152.0142  134.9859  160.0619 H   0  0  0  0  0  0  0  0  0  0  0  0  # atno 6909 bound_to 6896
  144.7134  140.0769  143.6427 H   0  0  0  0  0  0  0  0  0  0  0  0  # atno 7974 bound_to 7965
  154.5671  140.2362  155.8247 H   0  0  0  0  0  0  0  0  0  0  0  0  # atno 8008 bound_to 7997
  156.2077  140.3035  155.9622 H   0  0  0  0  0  0  0  0  0  0  0  0  # atno 8009 bound_to 7997
  155.2780  140.0421  157.3003 H   0  0  0  0  0  0  0  0  0  0  0  0  # atno 8010 bound_to 7997
  140.2236  143.3657  152.0948 H   0  0  0  0  0  0  0  0  0  0  0  0  # atno 10167 bound_to 10162
  156.2100  130.4160  149.9127 H   0  0  0  0  0  0  0  0  0  0  0  0  # atno 10718 bound_to 10713
  154.3661  135.6105  153.5716 H   0  0  0  0  0  0  0  0  0  0  0  0  # atno 10763 bound_to 10752
  152.9791  135.5827  154.4576 H   0  0  0  0  0  0  0  0  0  0  0  0  # atno 10764 bound_to 10752
  154.4322  135.2848  155.1882 H   0  0  0  0  0  0  0  0  0  0  0  0  # atno 10765 bound_to 10752
  140.9106  134.1573  157.4392 H   0  0  0  0  0  0  0  0  0  0  0  0  # atno 11005 bound_to 11000
  145.9735  139.2888  143.1084 LP  0  0  0  0  0  0  0  0  0  0  0  0  # atno 17320 bound_to 7965
  145.9090  140.9193  143.0464 LP  0  0  0  0  0  0  0  0  0  0  0  0  # atno 17321 bound_to 7965
  139.5135  144.6933  151.5699 LP  0  0  0  0  0  0  0  0  0  0  0  0  # atno 17342 bound_to 10162
  140.6237  143.9210  150.6546 LP  0  0  0  0  0  0  0  0  0  0  0  0  # atno 17343 bound_to 10162
  156.6809  130.8857  151.3575 LP  0  0  0  0  0  0  0  0  0  0  0  0  # atno 17370 bound_to 10713
  157.7033  130.9357  150.0852 LP  0  0  0  0  0  0  0  0  0  0  0  0  # atno 17371 bound_to 10713
  139.8757  134.9934  156.5643 LP  0  0  0  0  0  0  0  0  0  0  0  0  # atno 17394 bound_to 11000
  140.8115  133.8425  155.8814 LP  0  0  0  0  0  0  0  0  0  0  0  0  # atno 17395 bound_to 11000

$$$$
