AV-unprocessed.smi:1658|AV-procd|sdf|6649|dock9
  -GOLD-   22720 7353D 1   1.00000     0.00000
 Structure written by MMmdl.
 47 48  0  0  0  0  0  0  0  0  2 V2000
  144.0538  132.5759  149.6959 C   0  0  0  0  0  0  0  0  0  0  0  0
  144.9728  132.8243  150.7543 O   0  0  0  0  0  0  0  0  0  0  0  0
  144.9990  134.0838  151.3173 C   0  0  0  0  0  0  0  0  0  0  0  0
  145.8956  134.3303  152.3758 C   0  0  0  0  0  0  0  0  0  0  0  0
  145.9235  135.6122  152.9561 C   0  0  0  0  0  0  0  0  0  0  0  0
  145.0646  136.6123  152.4574 C   0  0  0  0  0  0  0  0  0  0  0  0
  145.0953  137.8897  153.0787 N   0  0  0  0  0  0  0  0  0  0  0  0
  145.8433  138.2947  154.1190 C   0  0  0  0  0  0  0  0  0  0  0  0
  146.5987  137.5779  154.7750 O   0  0  0  0  0  0  0  0  0  0  0  0
  145.6539  139.5977  154.3722 N   0  0  0  0  0  0  0  0  0  0  0  0
  146.2996  140.3659  155.4372 C   0  0  0  0  0  0  0  0  0  0  0  0
  147.1172  141.5987  154.9378 C   0  0  0  0  0  0  0  0  0  0  0  0
  147.9103  141.2499  153.6541 C   0  0  0  0  0  0  0  0  0  0  0  0
  146.1071  142.7216  154.5797 C   0  0  0  0  0  0  0  0  0  0  0  0
  148.0462  142.0405  156.0442 N   0  3  0  0  0  0  0  0  0  0  0  0
  147.4037  142.2482  157.3747 C   0  0  0  0  0  0  0  0  0  0  0  0
  148.3951  142.8729  158.3686 C   0  0  0  0  0  0  0  0  0  0  0  0
  149.5242  142.0230  158.5033 O   0  0  0  0  0  0  0  0  0  0  0  0
  150.2150  141.8753  157.2719 C   0  0  0  0  0  0  0  0  0  0  0  0
  149.2915  141.2374  156.2191 C   0  0  0  0  0  0  0  0  0  0  0  0
  144.1929  136.2634  151.3972 C   0  0  0  0  0  0  0  0  0  0  0  0
  144.1595  135.0348  150.8381 N   0  0  0  0  0  0  0  0  0  0  0  0
  144.1515  131.5408  149.3694 H   0  0  0  0  0  0  0  0  0  0  0  0
  144.2545  133.2151  148.8350 H   0  0  0  0  0  0  0  0  0  0  0  0
  143.0224  132.7238  150.0193 H   0  0  0  0  0  0  0  0  0  0  0  0
  146.5479  133.5493  152.7379 H   0  0  0  0  0  0  0  0  0  0  0  0
  146.5995  135.8226  153.7722 H   0  0  0  0  0  0  0  0  0  0  0  0
  144.4476  138.5676  152.7043 H   0  0  0  0  0  0  0  0  0  0  0  0
  145.0087  140.1016  153.7811 H   0  0  0  0  0  0  0  0  0  0  0  0
  145.5110  140.7039  156.1107 H   0  0  0  0  0  0  0  0  0  0  0  0
  146.9117  139.6835  156.0250 H   0  0  0  0  0  0  0  0  0  0  0  0
  147.2436  141.0581  152.8131 H   0  0  0  0  0  0  0  0  0  0  0  0
  148.5217  140.3560  153.7798 H   0  0  0  0  0  0  0  0  0  0  0  0
  148.5684  142.0634  153.3496 H   0  0  0  0  0  0  0  0  0  0  0  0
  145.3609  142.3890  153.8581 H   0  0  0  0  0  0  0  0  0  0  0  0
  146.5918  143.5791  154.1127 H   0  0  0  0  0  0  0  0  0  0  0  0
  145.5702  143.0731  155.4614 H   0  0  0  0  0  0  0  0  0  0  0  0
  146.5368  142.9015  157.3087 H   0  0  0  0  0  0  0  0  0  0  0  0
  147.0554  141.2966  157.7771 H   0  0  0  0  0  0  0  0  0  0  0  0
  148.7029  143.8682  158.0440 H   0  0  0  0  0  0  0  0  0  0  0  0
  147.9246  142.9879  159.3454 H   0  0  0  0  0  0  0  0  0  0  0  0
  150.5829  142.8442  156.9301 H   0  0  0  0  0  0  0  0  0  0  0  0
  151.0891  141.2442  157.4331 H   0  0  0  0  0  0  0  0  0  0  0  0
  149.0409  140.2184  156.5149 H   0  0  0  0  0  0  0  0  0  0  0  0
  149.8652  141.1769  155.2961 H   0  0  0  0  0  0  0  0  0  0  0  0
  143.4811  136.9638  150.9887 H   0  0  0  0  0  0  0  0  0  0  0  0
  148.3694  142.9529  155.7554 H   0  0  0  0  0  0  0  0  0  0  0  0
  1  2  1  0  0  0  0
  1 23  1  0  0  0  0
  1 24  1  0  0  0  0
  1 25  1  0  0  0  0
  2  3  1  0  0  0  0
  3 22  1  0  0  0  0
  3  4  2  0  0  0  0
  4  5  1  0  0  0  0
  4 26  1  0  0  0  0
  5  6  2  0  0  0  0
  5 27  1  0  0  0  0
  6  7  1  0  0  0  0
  6 21  1  0  0  0  0
  7  8  1  0  0  0  0
  7 28  1  0  0  0  0
  8  9  2  0  0  0  0
  8 10  1  0  0  0  0
 10 11  1  0  0  0  0
 10 29  1  0  0  0  0
 11 12  1  0  0  0  0
 11 30  1  0  0  0  0
 11 31  1  0  0  0  0
 12 13  1  0  0  0  0
 12 14  1  0  0  0  0
 12 15  1  0  0  0  0
 13 32  1  0  0  0  0
 13 33  1  0  0  0  0
 13 34  1  0  0  0  0
 14 35  1  0  0  0  0
 14 36  1  0  0  0  0
 14 37  1  0  0  0  0
 15 20  1  0  0  0  0
 15 16  1  0  0  0  0
 15 47  1  0  0  0  0
 16 17  1  0  0  0  0
 16 38  1  0  0  0  0
 16 39  1  0  0  0  0
 17 18  1  0  0  0  0
 17 40  1  0  0  0  0
 17 41  1  0  0  0  0
 18 19  1  0  0  0  0
 19 20  1  0  0  0  0
 19 42  1  0  0  0  0
 19 43  1  0  0  0  0
 20 44  1  0  0  0  0
 20 45  1  0  0  0  0
 21 22  2  0  0  0  0
 21 46  1  0  0  0  0
M  CHG  1  15   1
M  END
> <s_m_source_file>
AV-unprocessed.smi

> <i_m_source_file_index>
1658

> <i_lp_mmshare_version>
43012

> <i_f3d_flags>
0

> <s_epik_input>
W0NIM11PYzFbY0hdW2NIXWMoW2NIXW4xKVtOSF1DKD1PKVtOSF1bQ0gyXUMoW0NIM10pKFtDSDNdKU4yW0NIMl1bQ0gyXU9bQ0gyXVtDSDJdMg==

> <s_epik_cmdline>
J2VwaWtfcHl0aG9uJywgJy1waCcsICc3LjAnLCAnLXRuJywgJzgnLCAnLW1hJywgJzIwMCcsICctbWV0YWxfYmluZGluZycsICctaW1hZScsICc8aW5maWxlLm1hZT4nLCAnLW9tYWUnLCAnPG91dGZpbGUubWFlPic=

> <r_lp_tautomer_probability>
1

> <r_epik_Ionization_Penalty>
0.602608

> <r_epik_Ionization_Penalty_Charging>
0.602531

> <r_epik_Ionization_Penalty_Neutral>
7.74737e-05

> <r_epik_State_Penalty>
0.617039

> <r_epik_Charging_Adjusted_Penalty>
1.21957

> <i_epik_Tot_Q>
1

> <i_epik_Tot_abs_Q>
1

> <r_epik_Metal_State_Penalty>
0.617043

> <b_epik_Metal_Only>
0

> <s_lp_Force_Field>
OPLS_2005

> <r_lp_Energy>
28.7753

> <b_lp_Chiralities_Consistent>
1

> <s_lp_Variant>
AV-unprocessed.smi:1658-2

> <Gold.Version>
5.8.1

> <Gold.Id.Protein>
6NUR|6NUR_protein|mol2

> <Gold.PLP.Fitness>
42.8062

> <Gold.PLP.PLP>
-28.7892

> <Gold.PLP.part.hbond>
-3.2057

> <Gold.PLP.part.metal>
0.0000

> <Gold.PLP.part.buried>
-3.3253

> <Gold.PLP.part.nonpolar>
-22.9215

> <Gold.PLP.part.repulsive>
0.5218

> <Gold.PLP.ligand.clash>
0.0000

> <Gold.PLP.ligand.torsion>
0.4830

> <Gold.PLP.Chemscore.Hbond>
3.9913

> <Gold.PLP.Chemscore.CHOScore>
0.9708

> <Gold.PLP.Chemscore.Metal>
0.0000

> <Gold.Chemscore.Hbonds>
donor molecule, donor type, donor heavy atom, donor atom, acceptor molecule, acceptor atom, score
      L1  H     7    28       P1 10175  0.96
      L1  H    10    29       P1 10175  1.00
      L1  H    15    47       P1  8028  2.00
      L1  C    21    46       P1 10171  0.96

> <Gold.PLP.Chemscore.Internal.Correction>
0.0968

> <Gold.Rescore>
     Score         DG    S(hbond)    S(metal)    S(lipo)     H(rot)  DE(clash)    DE(int)     intcor
     15.32     -18.05       2.87        0.00      64.07       1.76       0.82       1.90       ----

> <Gold.Chemscore.Fitness>
15.3217

> <Gold.Chemscore.DG>
-18.0480

> <Gold.Chemscore.ZeroCoef>
-5.4800

> <Gold.Chemscore.Hbond>
2.8657

> <Gold.Chemscore.Metal>
0.0000

> <Gold.Chemscore.Lipo>
64.0713

> <Gold.Chemscore.Internal_Hbond>
0.0000

> <Gold.Chemscore.DEClash>
0.8234

> <Gold.Chemscore.DEInternal>
1.9029

> <Gold.Chemscore.Rot>
1.7577

> <Gold.Chemscore.Internal.Correction>
   9.000000E+99

> <Gold.Chemscore.Hbonds>
donor molecule, donor type, donor heavy atom, donor atom, acceptor molecule, acceptor atom, score
      L1  H     7    28       P1 10175  0.89
      L1  H    10    29       P1 10175  1.00
      L1  H    15    47       P1  8028  0.97

> <Gold.Chemscore.Hbond.Weighted>
-9.5714

> <Gold.Chemscore.Metal.Weighted>
-0.0000

> <Gold.Chemscore.Lipo.Weighted>
-7.4963

> <Gold.Chemscore.Internal_Hbond.Weighted>
0.0000

> <Gold.Chemscore.DEClash.Weighted>
0.8234

> <Gold.Chemscore.DEInternal.Weighted>
1.9029

> <Gold.Chemscore.Rot.Weighted>
4.4997

> <Gold.Chemscore.Internal.Correction.Weighted>
   9.000000E+99

> <Gold.Protein.RotatedTorsions>
[ 6907 6896 6895 6894 ] final -171.82 input  -60.11 | X-H torsion
[ 7974 7965 7964 7962 ] final -153.58 input  175.53 | X-H torsion
[ 8008 7997 7996 7995 ] final -147.21 input   59.86 | X-H torsion
[ 10167 10162 10161 10158 ] final -178.13 input  -65.29 | X-H torsion
[ 10718 10713 10712 10709 ] final -114.77 input   66.30 | X-H torsion
[ 10763 10752 10751 10750 ] final   76.06 input  -60.55 | X-H torsion
[ 11005 11000 10999 10996 ] final  -74.08 input  -57.11 | X-H torsion

> <Gold.Protein.ActiveResidues>
 VAL166  LYS551  ARG553  GLY616  TRP617  ASP618  TYR619  PRO620  LYS621  CYS622 
 ASP623  PHE694  ASN695  SER759  ASP760  ASP761  ALA762  ILE779  LEU786  VAL792 
 PHE793  MET794  SER795  GLU796  ALA797  LYS798  CYS799  TRP800  GLU811  SER814 

> <Gold.Protein.RotatedAtoms>
  151.5300  133.3451  159.2916 H   0  0  0  0  0  0  0  0  0  0  0  0  # atno 6907 bound_to 6896
  150.8599  134.7951  159.7086 H   0  0  0  0  0  0  0  0  0  0  0  0  # atno 6908 bound_to 6896
  152.4622  134.5167  159.9822 H   0  0  0  0  0  0  0  0  0  0  0  0  # atno 6909 bound_to 6896
  144.7733  140.4506  143.5891 H   0  0  0  0  0  0  0  0  0  0  0  0  # atno 7974 bound_to 7965
  155.5719  140.0635  157.2804 H   0  0  0  0  0  0  0  0  0  0  0  0  # atno 8008 bound_to 7997
  154.4358  140.1867  156.0934 H   0  0  0  0  0  0  0  0  0  0  0  0  # atno 8009 bound_to 7997
  156.0370  140.3300  155.7205 H   0  0  0  0  0  0  0  0  0  0  0  0  # atno 8010 bound_to 7997
  139.5447  144.2269  152.0964 H   0  0  0  0  0  0  0  0  0  0  0  0  # atno 10167 bound_to 10162
  156.0851  130.6045  150.8818 H   0  0  0  0  0  0  0  0  0  0  0  0  # atno 10718 bound_to 10713
  153.0698  135.4965  154.8280 H   0  0  0  0  0  0  0  0  0  0  0  0  # atno 10763 bound_to 10752
  154.7006  135.3001  154.9348 H   0  0  0  0  0  0  0  0  0  0  0  0  # atno 10764 bound_to 10752
  154.0073  135.6759  153.4816 H   0  0  0  0  0  0  0  0  0  0  0  0  # atno 10765 bound_to 10752
  141.1631  133.6899  156.7309 H   0  0  0  0  0  0  0  0  0  0  0  0  # atno 11005 bound_to 11000
  145.6258  139.1530  143.2996 LP  0  0  0  0  0  0  0  0  0  0  0  0  # atno 17320 bound_to 7965
  146.1896  140.6365  142.9152 LP  0  0  0  0  0  0  0  0  0  0  0  0  # atno 17321 bound_to 7965
  140.1753  144.4896  150.6557 LP  0  0  0  0  0  0  0  0  0  0  0  0  # atno 17342 bound_to 10162
  140.6690  143.2278  151.5672 LP  0  0  0  0  0  0  0  0  0  0  0  0  # atno 17343 bound_to 10162
  157.5983  131.0942  150.9003 LP  0  0  0  0  0  0  0  0  0  0  0  0  # atno 17370 bound_to 10713
  156.9166  130.5300  149.5279 LP  0  0  0  0  0  0  0  0  0  0  0  0  # atno 17371 bound_to 10713
  140.2745  134.8365  157.3878 LP  0  0  0  0  0  0  0  0  0  0  0  0  # atno 17394 bound_to 11000
  140.1490  134.4874  155.7975 LP  0  0  0  0  0  0  0  0  0  0  0  0  # atno 17395 bound_to 11000

$$$$
