AV-unprocessed.smi:1239|AV-procd|sdf|5192|dock7
  -GOLD-   22720 4273D 1   1.00000     0.00000
 Structure written by MMmdl.
 48 49  0  0  0  0  0  0  0  0  2 V2000
  146.7003  138.4202  151.2348 C   0  0  0  0  0  0  0  0  0  0  0  0
  146.5290  138.6927  152.7501 C   0  0  1  0  0  0  0  0  0  0  0  0
  147.0205  140.1238  153.0957 C   0  0  0  0  0  0  0  0  0  0  0  0
  148.3755  140.1339  153.6363 N   0  0  0  0  0  0  0  0  0  0  0  0
  148.6883  140.5081  154.8837 C   0  0  0  0  0  0  0  0  0  0  0  0
  147.8499  140.8864  155.7007 O   0  0  0  0  0  0  0  0  0  0  0  0
  150.0114  140.4074  155.1005 N   0  0  0  0  0  0  0  0  0  0  0  0
  150.7619  140.6854  156.2768 C   0  0  0  0  0  0  0  0  0  0  0  0
  150.5026  141.7442  157.1785 C   0  0  0  0  0  0  0  0  0  0  0  0
  151.3317  141.9018  158.3057 C   0  0  0  0  0  0  0  0  0  0  0  0
  152.4051  141.0006  158.5128 C   0  0  0  0  0  0  0  0  0  0  0  0
  153.2631  141.1184  159.6302 N   0  0  0  0  0  0  0  0  0  0  0  0
  153.1149  142.2467  160.5441 C   0  0  0  0  0  0  0  0  0  0  0  0
  154.2740  140.1005  159.8893 C   0  0  0  0  0  0  0  0  0  0  0  0
  152.6494  139.9896  157.6441 N   0  0  0  0  0  0  0  0  0  0  0  0
  151.8531  139.8424  156.5654 C   0  0  0  0  0  0  0  0  0  0  0  0
  145.1162  138.4543  153.2020 N   0  3  0  0  0  0  0  0  0  0  0  0
  144.5144  137.2094  152.6448 C   0  0  0  0  0  0  0  0  0  0  0  0
  143.0706  137.0062  153.1333 C   0  0  0  0  0  0  0  0  0  0  0  0
  143.0433  136.9831  154.5509 O   0  0  0  0  0  0  0  0  0  0  0  0
  143.4840  138.2185  155.0899 C   0  0  0  0  0  0  0  0  0  0  0  0
  144.9451  138.4728  154.6829 C   0  0  0  0  0  0  0  0  0  0  0  0
  147.7018  138.6621  150.8807 H   0  0  0  0  0  0  0  0  0  0  0  0
  145.9958  139.0080  150.6452 H   0  0  0  0  0  0  0  0  0  0  0  0
  146.5592  137.3695  150.9850 H   0  0  0  0  0  0  0  0  0  0  0  0
  147.1658  137.9868  153.2860 H   0  0  0  0  0  0  0  0  0  0  0  0
  146.9777  140.7594  152.2094 H   0  0  0  0  0  0  0  0  0  0  0  0
  146.3938  140.5848  153.8579 H   0  0  0  0  0  0  0  0  0  0  0  0
  149.1204  139.8360  153.0233 H   0  0  0  0  0  0  0  0  0  0  0  0
  150.5572  140.0712  154.3206 H   0  0  0  0  0  0  0  0  0  0  0  0
  149.6936  142.4425  157.0399 H   0  0  0  0  0  0  0  0  0  0  0  0
  151.1251  142.7116  158.9887 H   0  0  0  0  0  0  0  0  0  0  0  0
  153.2396  143.1905  160.0121 H   0  0  0  0  0  0  0  0  0  0  0  0
  153.8581  142.2139  161.3411 H   0  0  0  0  0  0  0  0  0  0  0  0
  152.1276  142.2373  161.0071 H   0  0  0  0  0  0  0  0  0  0  0  0
  153.8090  139.1229  160.0202 H   0  0  0  0  0  0  0  0  0  0  0  0
  154.8393  140.3226  160.7946 H   0  0  0  0  0  0  0  0  0  0  0  0
  154.9816  140.0433  159.0617 H   0  0  0  0  0  0  0  0  0  0  0  0
  152.0982  139.0191  155.9102 H   0  0  0  0  0  0  0  0  0  0  0  0
  144.4799  137.2437  151.5574 H   0  0  0  0  0  0  0  0  0  0  0  0
  145.1267  136.3507  152.9243 H   0  0  0  0  0  0  0  0  0  0  0  0
  142.4155  137.7924  152.7541 H   0  0  0  0  0  0  0  0  0  0  0  0
  142.6791  136.0599  152.7595 H   0  0  0  0  0  0  0  0  0  0  0  0
  142.8377  139.0308  154.7534 H   0  0  0  0  0  0  0  0  0  0  0  0
  143.4001  138.1775  156.1761 H   0  0  0  0  0  0  0  0  0  0  0  0
  145.5945  137.7221  155.1360 H   0  0  0  0  0  0  0  0  0  0  0  0
  145.2236  139.4387  155.0997 H   0  0  0  0  0  0  0  0  0  0  0  0
  144.5661  139.2218  152.8429 H   0  0  0  0  0  0  0  0  0  0  0  0
  1  2  1  0  0  0  0
  1 23  1  0  0  0  0
  1 24  1  0  0  0  0
  1 25  1  0  0  0  0
  2  3  1  0  0  0  0
  2 17  1  0  0  0  0
  2 26  1  0  0  0  0
  3  4  1  0  0  0  0
  3 27  1  0  0  0  0
  3 28  1  0  0  0  0
  4  5  1  0  0  0  0
  4 29  1  0  0  0  0
  5  6  2  0  0  0  0
  5  7  1  0  0  0  0
  7  8  1  0  0  0  0
  7 30  1  0  0  0  0
  8 16  1  0  0  0  0
  8  9  2  0  0  0  0
  9 10  1  0  0  0  0
  9 31  1  0  0  0  0
 10 11  2  0  0  0  0
 10 32  1  0  0  0  0
 11 12  1  0  0  0  0
 11 15  1  0  0  0  0
 12 13  1  0  0  0  0
 12 14  1  0  0  0  0
 13 33  1  0  0  0  0
 13 34  1  0  0  0  0
 13 35  1  0  0  0  0
 14 36  1  0  0  0  0
 14 37  1  0  0  0  0
 14 38  1  0  0  0  0
 15 16  2  0  0  0  0
 16 39  1  0  0  0  0
 17 22  1  0  0  0  0
 17 18  1  0  0  0  0
 17 48  1  0  0  0  0
 18 19  1  0  0  0  0
 18 40  1  0  0  0  0
 18 41  1  0  0  0  0
 19 20  1  0  0  0  0
 19 42  1  0  0  0  0
 19 43  1  0  0  0  0
 20 21  1  0  0  0  0
 21 22  1  0  0  0  0
 21 44  1  0  0  0  0
 21 45  1  0  0  0  0
 22 46  1  0  0  0  0
 22 47  1  0  0  0  0
M  CHG  1  17   1
M  END
> <s_m_source_file>
AV-unprocessed.smi

> <i_m_source_file_index>
1239

> <i_lp_mmshare_version>
43012

> <i_f3d_flags>
0

> <s_epik_input>
W0NIMl0xW0NIMl1PW0NIMl1bQ0gyXU4xW0NASF0oW0NIM10pW0NIMl1bTkhdQyg9TylbTkhdYzJbY0hdW2NIXWMoTihbQ0gzXSlbQ0gzXSluW2NIXTI=

> <s_epik_cmdline>
J2VwaWtfcHl0aG9uJywgJy1waCcsICc3LjAnLCAnLXRuJywgJzgnLCAnLW1hJywgJzIwMCcsICctbWV0YWxfYmluZGluZycsICctaW1hZScsICc8aW5maWxlLm1hZT4nLCAnLW9tYWUnLCAnPG91dGZpbGUubWFlPic=

> <r_epik_Ionization_Penalty>
1.1428

> <r_epik_Ionization_Penalty_Charging>
0.602531

> <r_epik_Ionization_Penalty_Neutral>
0.540271

> <r_epik_State_Penalty>
1.1888

> <r_epik_Charging_Adjusted_Penalty>
1.79133

> <i_epik_Tot_Q>
1

> <i_epik_Tot_abs_Q>
1

> <r_epik_Metal_State_Penalty>
0.936295

> <b_epik_Metal_Only>
0

> <s_lp_Force_Field>
OPLS_2005

> <r_lp_Energy>
25.9365

> <b_lp_Chiralities_Consistent>
1

> <s_lp_Variant>
AV-unprocessed.smi:1239-8

> <Gold.Version>
5.8.1

> <Gold.Id.Protein>
6NUR|6NUR_protein|mol2

> <Gold.PLP.Fitness>
45.6492

> <Gold.PLP.PLP>
-36.0544

> <Gold.PLP.part.hbond>
-3.0000

> <Gold.PLP.part.metal>
0.0000

> <Gold.PLP.part.buried>
-0.1500

> <Gold.PLP.part.nonpolar>
-33.7019

> <Gold.PLP.part.repulsive>
0.3530

> <Gold.PLP.ligand.clash>
0.0000

> <Gold.PLP.ligand.torsion>
1.0116

> <Gold.PLP.Chemscore.Hbond>
3.8480

> <Gold.PLP.Chemscore.CHOScore>
0.0000

> <Gold.PLP.Chemscore.Metal>
0.0000

> <Gold.Chemscore.Hbonds>
donor molecule, donor type, donor heavy atom, donor atom, acceptor molecule, acceptor atom, score
      L1  H     4    29       P1  7957  0.75
      L1  H    17    48       P1 10175  2.00
      P1  H  7997  8010       L1    15  0.85

> <Gold.PLP.Chemscore.Internal.Correction>
0.0741

> <Gold.Rescore>
     Score         DG    S(hbond)    S(metal)    S(lipo)     H(rot)  DE(clash)    DE(int)     intcor
     18.66     -19.61       2.64        0.00      77.86       1.48       0.10       0.85       ----

> <Gold.Chemscore.Fitness>
18.6602

> <Gold.Chemscore.DG>
-19.6117

> <Gold.Chemscore.ZeroCoef>
-5.4800

> <Gold.Chemscore.Hbond>
2.6403

> <Gold.Chemscore.Metal>
0.0000

> <Gold.Chemscore.Lipo>
77.8589

> <Gold.Chemscore.Internal_Hbond>
0.0000

> <Gold.Chemscore.DEClash>
0.0981

> <Gold.Chemscore.DEInternal>
0.8535

> <Gold.Chemscore.Rot>
1.4830

> <Gold.Chemscore.Internal.Correction>
   9.000000E+99

> <Gold.Chemscore.Hbonds>
donor molecule, donor type, donor heavy atom, donor atom, acceptor molecule, acceptor atom, score
      L1  H     4    29       P1  7957  0.75
      L1  H    17    48       P1 10175  0.97
      P1  H  7997  8010       L1    15  0.13

> <Gold.Chemscore.Hbond.Weighted>
-8.8187

> <Gold.Chemscore.Metal.Weighted>
-0.0000

> <Gold.Chemscore.Lipo.Weighted>
-9.1095

> <Gold.Chemscore.Internal_Hbond.Weighted>
0.0000

> <Gold.Chemscore.DEClash.Weighted>
0.0981

> <Gold.Chemscore.DEInternal.Weighted>
0.8535

> <Gold.Chemscore.Rot.Weighted>
3.7964

> <Gold.Chemscore.Internal.Correction.Weighted>
   9.000000E+99

> <Gold.Protein.RotatedTorsions>
[ 6907 6896 6895 6894 ] final -129.84 input  -60.11 | X-H torsion
[ 7974 7965 7964 7962 ] final   33.58 input  175.53 | X-H torsion
[ 8008 7997 7996 7995 ] final   59.91 input   59.86 | X-H torsion
[ 10167 10162 10161 10158 ] final  -10.75 input  -65.29 | X-H torsion
[ 10718 10713 10712 10709 ] final  -29.47 input   66.30 | X-H torsion
[ 10763 10752 10751 10750 ] final  -20.68 input  -60.55 | X-H torsion
[ 11005 11000 10999 10996 ] final  177.84 input  -57.11 | X-H torsion

> <Gold.Protein.ActiveResidues>
 VAL166  LYS551  ARG553  GLY616  TRP617  ASP618  TYR619  PRO620  LYS621  CYS622 
 ASP623  PHE694  ASN695  SER759  ASP760  ASP761  ALA762  ILE779  LEU786  VAL792 
 PHE793  MET794  SER795  GLU796  ALA797  LYS798  CYS799  TRP800  GLU811  SER814 

> <Gold.Protein.RotatedAtoms>
  150.9331  133.6744  159.2806 H   0  0  0  0  0  0  0  0  0  0  0  0  # atno 6907 bound_to 6896
  151.4159  135.0990  159.9609 H   0  0  0  0  0  0  0  0  0  0  0  0  # atno 6908 bound_to 6896
  152.5035  133.8793  159.7393 H   0  0  0  0  0  0  0  0  0  0  0  0  # atno 6909 bound_to 6896
  146.1411  139.6378  142.9162 H   0  0  0  0  0  0  0  0  0  0  0  0  # atno 7974 bound_to 7965
  155.5738  140.3490  155.4522 H   0  0  0  0  0  0  0  0  0  0  0  0  # atno 8008 bound_to 7997
  156.0424  140.1299  157.0166 H   0  0  0  0  0  0  0  0  0  0  0  0  # atno 8009 bound_to 7997
  154.4398  140.1021  156.6242 H   0  0  0  0  0  0  0  0  0  0  0  0  # atno 8010 bound_to 7997
  140.7121  143.5714  150.9088 H   0  0  0  0  0  0  0  0  0  0  0  0  # atno 10167 bound_to 10162
  156.4121  130.4410  149.7245 H   0  0  0  0  0  0  0  0  0  0  0  0  # atno 10718 bound_to 10713
  153.6242  135.6991  153.5299 H   0  0  0  0  0  0  0  0  0  0  0  0  # atno 10763 bound_to 10752
  153.2913  135.4156  155.1168 H   0  0  0  0  0  0  0  0  0  0  0  0  # atno 10764 bound_to 10752
  154.8536  135.3626  154.5783 H   0  0  0  0  0  0  0  0  0  0  0  0  # atno 10765 bound_to 10752
  140.3885  134.6883  157.4493 H   0  0  0  0  0  0  0  0  0  0  0  0  # atno 11005 bound_to 11000
  145.5045  141.0437  143.2522 LP  0  0  0  0  0  0  0  0  0  0  0  0  # atno 17320 bound_to 7965
  144.7793  139.6561  143.7161 LP  0  0  0  0  0  0  0  0  0  0  0  0  # atno 17321 bound_to 7965
  139.9440  143.6348  152.3046 LP  0  0  0  0  0  0  0  0  0  0  0  0  # atno 17342 bound_to 10162
  139.6843  144.7653  151.1551 LP  0  0  0  0  0  0  0  0  0  0  0  0  # atno 17343 bound_to 10162
  156.4219  130.7773  151.2790 LP  0  0  0  0  0  0  0  0  0  0  0  0  # atno 17370 bound_to 10713
  157.7507  131.0180  150.3608 LP  0  0  0  0  0  0  0  0  0  0  0  0  # atno 17371 bound_to 10713
  140.0425  134.6247  155.8963 LP  0  0  0  0  0  0  0  0  0  0  0  0  # atno 17394 bound_to 11000
  141.1899  133.6567  156.5388 LP  0  0  0  0  0  0  0  0  0  0  0  0  # atno 17395 bound_to 11000

$$$$
