AV-unprocessed.smi:108|AV-procd|sdf|1029|dock4
  -GOLD-   2262018 33D 1   1.00000     0.00000
 Structure written by MMmdl.
 59 62  0  0  0  0  0  0  0  0  1 V2000
  150.0862  138.2332  159.2869 O   0  0  0  0  0  0  0  0  0  0  0  0
  151.1322  137.6220  159.0568 C   0  0  0  0  0  0  0  0  0  0  0  0
  152.4841  138.3403  159.2609 C   0  0  0  0  0  0  0  0  0  0  0  0
  152.3470  139.7180  159.7827 N   0  0  0  0  0  0  0  0  0  0  0  0
  152.7673  139.9849  161.1087 C   0  0  0  0  0  0  0  0  0  0  0  0
  153.2669  139.1047  161.8112 O   0  0  0  0  0  0  0  0  0  0  0  0
  152.5463  141.3485  161.5737 C   0  0  0  0  0  0  0  0  0  0  0  0
  152.8711  141.6825  162.8344 F   0  0  0  0  0  0  0  0  0  0  0  0
  152.0013  142.2794  160.7639 C   0  0  0  0  0  0  0  0  0  0  0  0
  151.6406  142.0214  159.4527 N   0  0  0  0  0  0  0  0  0  0  0  0
  150.9322  143.0543  158.5992 C   0  0  2  0  0  0  0  0  0  0  0  0
  151.8102  144.2518  158.1956 C   0  0  0  0  0  0  0  0  0  0  0  0
  151.3166  145.3428  159.1255 C   0  0  0  0  0  0  0  0  0  0  0  0
  149.8497  144.9644  159.2881 C   0  0  0  0  0  0  0  0  0  0  0  0
  149.8549  143.5433  159.3421 O   0  0  0  0  0  0  0  0  0  0  0  0
  151.7569  140.7034  158.9545 C   0  0  0  0  0  0  0  0  0  0  0  0
  151.3499  140.4158  157.8262 O   0  0  0  0  0  0  0  0  0  0  0  0
  151.1295  136.3370  158.6215 N   0  0  0  0  0  0  0  0  0  0  0  0
  149.8637  135.6287  158.3653 C   0  0  0  0  0  0  0  0  0  0  0  0
  149.6323  134.4423  159.3264 C   0  0  0  0  0  0  0  0  0  0  0  0
  148.5928  134.7223  160.3989 C   0  0  0  0  0  0  0  0  0  0  0  0
  148.1945  136.0487  160.6717 C   0  0  0  0  0  0  0  0  0  0  0  0
  147.2140  136.3063  161.6489 C   0  0  0  0  0  0  0  0  0  0  0  0
  146.6305  135.2393  162.3590 C   0  0  0  0  0  0  0  0  0  0  0  0
  147.0280  133.9148  162.0916 C   0  0  0  0  0  0  0  0  0  0  0  0
  148.0075  133.6562  161.1130 C   0  0  0  0  0  0  0  0  0  0  0  0
  152.3535  135.5563  158.3697 C   0  0  0  0  0  0  0  0  0  0  0  0
  152.1571  134.2928  157.5389 C   0  0  0  0  0  0  0  0  0  0  0  0
  152.4783  133.0111  158.0430 C   0  0  0  0  0  0  0  0  0  0  0  0
  152.2876  131.8657  157.2462 C   0  0  0  0  0  0  0  0  0  0  0  0
  151.7683  131.9906  155.9438 C   0  0  0  0  0  0  0  0  0  0  0  0
  151.4365  133.2624  155.4396 C   0  0  0  0  0  0  0  0  0  0  0  0
  151.6290  134.4082  156.2355 C   0  0  0  0  0  0  0  0  0  0  0  0
  153.1106  137.7429  159.9238 H   0  0  0  0  0  0  0  0  0  0  0  0
  153.0268  138.3528  158.3151 H   0  0  0  0  0  0  0  0  0  0  0  0
  151.8422  143.2599  161.1827 H   0  0  0  0  0  0  0  0  0  0  0  0
  150.5863  142.5238  157.7105 H   0  0  0  0  0  0  0  0  0  0  0  0
  152.8792  144.0455  158.2473 H   0  0  0  0  0  0  0  0  0  0  0  0
  151.5705  144.5135  157.1642 H   0  0  0  0  0  0  0  0  0  0  0  0
  151.8249  145.2933  160.0884 H   0  0  0  0  0  0  0  0  0  0  0  0
  151.4547  146.3453  158.7194 H   0  0  0  0  0  0  0  0  0  0  0  0
  149.3972  145.3984  160.1800 H   0  0  0  0  0  0  0  0  0  0  0  0
  149.2727  145.2861  158.4200 H   0  0  0  0  0  0  0  0  0  0  0  0
  149.0253  136.3212  158.4492 H   0  0  0  0  0  0  0  0  0  0  0  0
  149.8321  135.2790  157.3319 H   0  0  0  0  0  0  0  0  0  0  0  0
  149.3266  133.5645  158.7561 H   0  0  0  0  0  0  0  0  0  0  0  0
  150.5707  134.1682  159.8099 H   0  0  0  0  0  0  0  0  0  0  0  0
  148.6319  136.8720  160.1250 H   0  0  0  0  0  0  0  0  0  0  0  0
  146.9086  137.3222  161.8515 H   0  0  0  0  0  0  0  0  0  0  0  0
  145.8778  135.4367  163.1079 H   0  0  0  0  0  0  0  0  0  0  0  0
  146.5795  133.0967  162.6355 H   0  0  0  0  0  0  0  0  0  0  0  0
  148.3041  132.6381  160.9074 H   0  0  0  0  0  0  0  0  0  0  0  0
  153.0971  136.1682  157.8580 H   0  0  0  0  0  0  0  0  0  0  0  0
  152.8311  135.2989  159.3152 H   0  0  0  0  0  0  0  0  0  0  0  0
  152.8745  132.8922  159.0405 H   0  0  0  0  0  0  0  0  0  0  0  0
  152.5403  130.8903  157.6352 H   0  0  0  0  0  0  0  0  0  0  0  0
  151.6228  131.1116  155.3332 H   0  0  0  0  0  0  0  0  0  0  0  0
  151.0345  133.3597  154.4420 H   0  0  0  0  0  0  0  0  0  0  0  0
  151.3720  135.3801  155.8401 H   0  0  0  0  0  0  0  0  0  0  0  0
  1  2  2  0  0  0  0
  2  3  1  0  0  0  0
  2 18  1  0  0  0  0
  3  4  1  0  0  0  0
  3 34  1  0  0  0  0
  3 35  1  0  0  0  0
  4 16  1  0  0  0  0
  4  5  1  0  0  0  0
  5  6  2  0  0  0  0
  5  7  1  0  0  0  0
  7  8  1  0  0  0  0
  7  9  2  0  0  0  0
  9 10  1  0  0  0  0
  9 36  1  0  0  0  0
 10 11  1  0  0  0  0
 10 16  1  0  0  0  0
 11 15  1  0  0  0  0
 11 12  1  0  0  0  0
 11 37  1  0  0  0  0
 12 13  1  0  0  0  0
 12 38  1  0  0  0  0
 12 39  1  0  0  0  0
 13 14  1  0  0  0  0
 13 40  1  0  0  0  0
 13 41  1  0  0  0  0
 14 15  1  0  0  0  0
 14 42  1  0  0  0  0
 14 43  1  0  0  0  0
 16 17  2  0  0  0  0
 18 19  1  0  0  0  0
 18 27  1  0  0  0  0
 19 20  1  0  0  0  0
 19 44  1  0  0  0  0
 19 45  1  0  0  0  0
 20 21  1  0  0  0  0
 20 46  1  0  0  0  0
 20 47  1  0  0  0  0
 21 26  1  0  0  0  0
 21 22  2  0  0  0  0
 22 23  1  0  0  0  0
 22 48  1  0  0  0  0
 23 24  2  0  0  0  0
 23 49  1  0  0  0  0
 24 25  1  0  0  0  0
 24 50  1  0  0  0  0
 25 26  2  0  0  0  0
 25 51  1  0  0  0  0
 26 52  1  0  0  0  0
 27 28  1  0  0  0  0
 27 53  1  0  0  0  0
 27 54  1  0  0  0  0
 28 33  1  0  0  0  0
 28 29  2  0  0  0  0
 29 30  1  0  0  0  0
 29 55  1  0  0  0  0
 30 31  2  0  0  0  0
 30 56  1  0  0  0  0
 31 32  1  0  0  0  0
 31 57  1  0  0  0  0
 32 33  2  0  0  0  0
 32 58  1  0  0  0  0
 33 59  1  0  0  0  0
M  END
> <s_m_source_file>
AV-unprocessed.smi

> <i_m_source_file_index>
108

> <i_lp_mmshare_version>
43012

> <i_f3d_flags>
0

> <s_epik_input>
W2NIXTFbY0hdW2NIXVtjSF1bY0hdYzFbQ0gyXVtDSDJdTihbQ0gyXWMyW2NIXVtjSF1bY0hdW2NIXVtjSF0yKUMoPU8pW0NIMl1uM2MoPU8pYyhGKVtjSF1uKGMzPU8pW0NAQEhdNFtDSDJdW0NIMl1bQ0gyXU80

> <s_epik_cmdline>
J2VwaWtfcHl0aG9uJywgJy1waCcsICc3LjAnLCAnLXRuJywgJzgnLCAnLW1hJywgJzIwMCcsICctbWV0YWxfYmluZGluZycsICctaW1hZScsICc8aW5maWxlLm1hZT4nLCAnLW9tYWUnLCAnPG91dGZpbGUubWFlPic=

> <r_lp_tautomer_probability>
1

> <r_epik_Ionization_Penalty>
5.46209e-09

> <r_epik_Ionization_Penalty_Charging>
4.22697e-09

> <r_epik_Ionization_Penalty_Neutral>
1.23512e-09

> <r_epik_State_Penalty>
-0

> <r_epik_Charging_Adjusted_Penalty>
4.22697e-09

> <i_epik_Tot_Q>
0

> <i_epik_Tot_abs_Q>
0

> <r_epik_Metal_State_Penalty>
-0

> <b_epik_Metal_Only>
0

> <s_epik_Chemistry_Notes>
This compound contains an acetal/aminal-like group ( X-CH(R)-Y where X, Y are N, S, or O) that may be acid/base labile, releasing an aldehyde.

> <s_lp_Force_Field>
OPLS_2005

> <r_lp_Energy>
39.1501

> <b_lp_Chiralities_Consistent>
1

> <s_lp_Variant>
AV-unprocessed.smi:108-1

> <Gold.Version>
5.8.1

> <Gold.Id.Protein>
6NUR|6NUR_protein|mol2

> <Gold.PLP.Fitness>
64.5457

> <Gold.PLP.PLP>
-66.2278

> <Gold.PLP.part.hbond>
-1.4133

> <Gold.PLP.part.metal>
0.0000

> <Gold.PLP.part.buried>
-6.1493

> <Gold.PLP.part.nonpolar>
-59.2253

> <Gold.PLP.part.repulsive>
0.1231

> <Gold.PLP.ligand.clash>
0.0000

> <Gold.PLP.ligand.torsion>
0.9554

> <Gold.PLP.Chemscore.Hbond>
0.0000

> <Gold.PLP.Chemscore.CHOScore>
0.0000

> <Gold.PLP.Chemscore.Metal>
0.0000

> <Gold.PLP.Chemscore.Internal.Correction>
0.2288

> <Gold.Rescore>
     Score         DG    S(hbond)    S(metal)    S(lipo)     H(rot)  DE(clash)    DE(int)     intcor
     13.98     -16.02       0.00        0.00     139.84       2.28       0.05       1.98       ----

> <Gold.Chemscore.Fitness>
13.9822

> <Gold.Chemscore.DG>
-16.0154

> <Gold.Chemscore.ZeroCoef>
-5.4800

> <Gold.Chemscore.Hbond>
0.0000

> <Gold.Chemscore.Metal>
0.0000

> <Gold.Chemscore.Lipo>
139.8366

> <Gold.Chemscore.Internal_Hbond>
0.0000

> <Gold.Chemscore.DEClash>
0.0494

> <Gold.Chemscore.DEInternal>
1.9838

> <Gold.Chemscore.Rot>
2.2756

> <Gold.Chemscore.Internal.Correction>
   9.000000E+99

> <Gold.Chemscore.Hbond.Weighted>
-0.0000

> <Gold.Chemscore.Metal.Weighted>
-0.0000

> <Gold.Chemscore.Lipo.Weighted>
-16.3609

> <Gold.Chemscore.Internal_Hbond.Weighted>
0.0000

> <Gold.Chemscore.DEClash.Weighted>
0.0494

> <Gold.Chemscore.DEInternal.Weighted>
1.9838

> <Gold.Chemscore.Rot.Weighted>
5.8255

> <Gold.Chemscore.Internal.Correction.Weighted>
   9.000000E+99

> <Gold.Protein.RotatedTorsions>
[ 6907 6896 6895 6894 ] final  -53.56 input  -60.11 | X-H torsion
[ 7974 7965 7964 7962 ] final  110.67 input  175.53 | X-H torsion
[ 8008 7997 7996 7995 ] final -154.96 input   59.86 | X-H torsion
[ 10167 10162 10161 10158 ] final  -34.85 input  -65.29 | X-H torsion
[ 10718 10713 10712 10709 ] final   30.64 input   66.30 | X-H torsion
[ 10763 10752 10751 10750 ] final  100.68 input  -60.55 | X-H torsion
[ 11005 11000 10999 10996 ] final  175.30 input  -57.11 | X-H torsion

> <Gold.Protein.ActiveResidues>
 VAL166  LYS551  ARG553  GLY616  TRP617  ASP618  TYR619  PRO620  LYS621  CYS622 
 ASP623  PHE694  ASN695  SER759  ASP760  ASP761  ALA762  ILE779  LEU786  VAL792 
 PHE793  MET794  SER795  GLU796  ALA797  LYS798  CYS799  TRP800  GLU811  SER814 

> <Gold.Protein.RotatedAtoms>
  150.8416  134.7710  159.6936 H   0  0  0  0  0  0  0  0  0  0  0  0  # atno 6907 bound_to 6896
  152.4502  134.5406  159.9848 H   0  0  0  0  0  0  0  0  0  0  0  0  # atno 6908 bound_to 6896
  151.5545  133.3374  159.2995 H   0  0  0  0  0  0  0  0  0  0  0  0  # atno 6909 bound_to 6896
  145.2520  139.2736  143.4062 H   0  0  0  0  0  0  0  0  0  0  0  0  # atno 7974 bound_to 7965
  155.6945  140.0759  157.2435 H   0  0  0  0  0  0  0  0  0  0  0  0  # atno 8008 bound_to 7997
  154.4083  140.1658  156.2175 H   0  0  0  0  0  0  0  0  0  0  0  0  # atno 8009 bound_to 7997
  155.9423  140.3383  155.6340 H   0  0  0  0  0  0  0  0  0  0  0  0  # atno 8010 bound_to 7997
  140.7177  143.3519  151.2138 H   0  0  0  0  0  0  0  0  0  0  0  0  # atno 10167 bound_to 10162
  157.2622  130.7167  149.6460 H   0  0  0  0  0  0  0  0  0  0  0  0  # atno 10718 bound_to 10713
  153.3170  135.4070  155.1385 H   0  0  0  0  0  0  0  0  0  0  0  0  # atno 10763 bound_to 10752
  154.8591  135.3578  154.5647 H   0  0  0  0  0  0  0  0  0  0  0  0  # atno 10764 bound_to 10752
  153.6078  135.7069  153.5417 H   0  0  0  0  0  0  0  0  0  0  0  0  # atno 10765 bound_to 10752
  140.3607  134.7115  157.4329 H   0  0  0  0  0  0  0  0  0  0  0  0  # atno 11005 bound_to 11000
  146.3300  140.2913  142.8615 LP  0  0  0  0  0  0  0  0  0  0  0  0  # atno 17320 bound_to 7965
  144.9495  140.8163  143.5581 LP  0  0  0  0  0  0  0  0  0  0  0  0  # atno 17321 bound_to 7965
  139.7051  143.9468  152.2923 LP  0  0  0  0  0  0  0  0  0  0  0  0  # atno 17342 bound_to 10162
  139.9174  144.6820  150.8497 LP  0  0  0  0  0  0  0  0  0  0  0  0  # atno 17343 bound_to 10162
  155.9664  130.4394  150.5256 LP  0  0  0  0  0  0  0  0  0  0  0  0  # atno 17370 bound_to 10713
  157.3163  131.0673  151.1964 LP  0  0  0  0  0  0  0  0  0  0  0  0  # atno 17371 bound_to 10713
  140.0629  134.5970  155.8728 LP  0  0  0  0  0  0  0  0  0  0  0  0  # atno 17394 bound_to 11000
  141.1985  133.6602  156.5795 LP  0  0  0  0  0  0  0  0  0  0  0  0  # atno 17395 bound_to 11000

$$$$
