AV-unprocessed.smi:188|AV-procd|sdf|1472|dock3
  -GOLD-   2262019293D 1   1.00000     0.00000
 Structure written by MMmdl.
 49 53  0  0  0  0  0  0  0  0  1 V2000
  148.5077  132.5320  153.7780 O   0  0  0  0  0  0  0  0  0  0  0  0
  148.9011  133.3663  154.5897 C   0  0  0  0  0  0  0  0  0  0  0  0
  149.0085  133.1902  155.9098 N   0  0  0  0  0  0  0  0  0  0  0  0
  149.4649  134.2743  156.5340 C   0  0  0  0  0  0  0  0  0  0  0  0
  149.6607  134.3926  157.7423 O   0  0  0  0  0  0  0  0  0  0  0  0
  149.7072  135.3610  155.4869 C   0  0  0  0  0  0  0  0  0  0  0  0
  151.1902  135.7866  155.3833 C   0  0  0  0  0  0  0  0  0  0  0  0
  151.6229  136.7001  156.5456 C   0  0  0  0  0  0  0  0  0  0  0  0
  150.7156  137.8392  156.6851 N   0  0  0  0  0  0  0  0  0  0  0  0
  151.2024  138.8554  157.4424 C   0  0  0  0  0  0  0  0  0  0  0  0
  151.8605  138.5841  158.6015 N   0  0  0  0  0  0  0  0  0  0  0  0
  152.3558  139.5769  159.3459 C   0  0  0  0  0  0  0  0  0  0  0  0
  152.3033  140.8914  159.1245 N   0  0  0  0  0  0  0  0  0  0  0  0
  151.6330  141.1733  157.9713 C   0  0  0  0  0  0  0  0  0  0  0  0
  151.0592  140.2242  157.0776 C   0  0  0  0  0  0  0  0  0  0  0  0
  150.4548  140.8833  156.0135 N   0  0  0  0  0  0  0  0  0  0  0  0
  150.6681  142.1471  156.2586 C   0  0  0  0  0  0  0  0  0  0  0  0
  151.3595  142.4131  157.4193 N   0  0  0  0  0  0  0  0  0  0  0  0
  151.7251  143.7269  157.9286 C   0  0  0  0  0  0  0  0  0  0  0  0
  151.1541  144.0477  159.3263 C   0  0  0  0  0  0  0  0  0  0  0  0
  149.6164  144.1015  159.2921 C   0  0  0  0  0  0  0  0  0  0  0  0
  149.1498  145.4270  159.1387 O   0  0  0  0  0  0  0  0  0  0  0  0
  151.7321  143.2335  160.4933 C   0  0  0  0  0  0  0  0  0  0  0  0
  152.0039  144.4245  161.2612 O   0  0  0  0  0  0  0  0  0  0  0  0
  151.8212  145.2148  160.0676 C   0  0  0  0  0  0  0  0  0  0  0  0
  149.3012  137.4961  156.8458 C   0  0  0  0  0  0  0  0  0  0  0  0
  148.8135  136.6064  155.6876 C   0  0  0  0  0  0  0  0  0  0  0  0
  149.2983  134.6142  154.3072 N   0  0  0  0  0  0  0  0  0  0  0  0
  148.7699  132.3303  156.3821 H   0  0  0  0  0  0  0  0  0  0  0  0
  151.8402  134.9111  155.3475 H   0  0  0  0  0  0  0  0  0  0  0  0
  151.3472  136.3161  154.4424 H   0  0  0  0  0  0  0  0  0  0  0  0
  151.6338  136.1434  157.4830 H   0  0  0  0  0  0  0  0  0  0  0  0
  152.6474  137.0287  156.3744 H   0  0  0  0  0  0  0  0  0  0  0  0
  152.8667  139.2743  160.2479 H   0  0  0  0  0  0  0  0  0  0  0  0
  150.3156  142.9268  155.5990 H   0  0  0  0  0  0  0  0  0  0  0  0
  152.8139  143.7894  157.9357 H   0  0  0  0  0  0  0  0  0  0  0  0
  151.3975  144.4741  157.2049 H   0  0  0  0  0  0  0  0  0  0  0  0
  149.2080  143.4822  158.4935 H   0  0  0  0  0  0  0  0  0  0  0  0
  149.1993  143.7072  160.2195 H   0  0  0  0  0  0  0  0  0  0  0  0
  149.0759  145.6142  158.2152 H   0  0  0  0  0  0  0  0  0  0  0  0
  151.0115  142.5731  160.9771 H   0  0  0  0  0  0  0  0  0  0  0  0
  152.6519  142.6981  160.2548 H   0  0  0  0  0  0  0  0  0  0  0  0
  152.7754  145.5252  159.6385 H   0  0  0  0  0  0  0  0  0  0  0  0
  151.1686  146.0738  160.2281 H   0  0  0  0  0  0  0  0  0  0  0  0
  149.1573  136.9898  157.8008 H   0  0  0  0  0  0  0  0  0  0  0  0
  148.6994  138.4057  156.8748 H   0  0  0  0  0  0  0  0  0  0  0  0
  148.8060  137.1952  154.7692 H   0  0  0  0  0  0  0  0  0  0  0  0
  147.7777  136.3133  155.8653 H   0  0  0  0  0  0  0  0  0  0  0  0
  149.3167  135.0083  153.3777 H   0  0  0  0  0  0  0  0  0  0  0  0
  1  2  2  0  0  0  0
  2 28  1  0  0  0  0
  2  3  1  0  0  0  0
  3  4  1  0  0  0  0
  3 29  1  0  0  0  0
  4  5  2  0  0  0  0
  4  6  1  0  0  0  0
  6 27  1  0  0  0  0
  6  7  1  0  0  0  0
  6 28  1  0  0  0  0
  7  8  1  0  0  0  0
  7 30  1  0  0  0  0
  7 31  1  0  0  0  0
  8  9  1  0  0  0  0
  8 32  1  0  0  0  0
  8 33  1  0  0  0  0
  9 10  1  0  0  0  0
  9 26  1  0  0  0  0
 10 15  1  0  0  0  0
 10 11  2  0  0  0  0
 11 12  1  0  0  0  0
 12 13  2  0  0  0  0
 12 34  1  0  0  0  0
 13 14  1  0  0  0  0
 14 18  1  0  0  0  0
 14 15  2  0  0  0  0
 15 16  1  0  0  0  0
 16 17  2  0  0  0  0
 17 18  1  0  0  0  0
 17 35  1  0  0  0  0
 18 19  1  0  0  0  0
 19 20  1  0  0  0  0
 19 36  1  0  0  0  0
 19 37  1  0  0  0  0
 20 25  1  0  0  0  0
 20 21  1  0  0  0  0
 20 23  1  0  0  0  0
 21 22  1  0  0  0  0
 21 38  1  0  0  0  0
 21 39  1  0  0  0  0
 22 40  1  0  0  0  0
 23 24  1  0  0  0  0
 23 41  1  0  0  0  0
 23 42  1  0  0  0  0
 24 25  1  0  0  0  0
 25 43  1  0  0  0  0
 25 44  1  0  0  0  0
 26 27  1  0  0  0  0
 26 45  1  0  0  0  0
 26 46  1  0  0  0  0
 27 47  1  0  0  0  0
 27 48  1  0  0  0  0
 28 49  1  0  0  0  0
M  END
> <s_m_source_file>
AV-unprocessed.smi

> <i_m_source_file_index>
188

> <i_lp_mmshare_version>
43012

> <i_f3d_flags>
0

> <s_epik_input>
Tz1DKFtOSF0xKVtOSF1DKD1PKUMxMltDSDJdW0NIMl1OKFtDSDJdW0NIMl0yKWMobltjSF1uMyljKGMzNCluW2NIXW40W0NIMl1DNShbQ0gyXVtPSF0pW0NIMl1PW0NIMl01

> <s_epik_cmdline>
J2VwaWtfcHl0aG9uJywgJy1waCcsICc3LjAnLCAnLXRuJywgJzgnLCAnLW1hJywgJzIwMCcsICctbWV0YWxfYmluZGluZycsICctaW1hZScsICc8aW5maWxlLm1hZT4nLCAnLW9tYWUnLCAnPG91dGZpbGUubWFlPic=

> <r_lp_tautomer_probability>
1

> <r_epik_Ionization_Penalty>
0.00868263

> <r_epik_Ionization_Penalty_Charging>
0

> <r_epik_Ionization_Penalty_Neutral>
0.00868263

> <r_epik_State_Penalty>
0.00519311

> <r_epik_Charging_Adjusted_Penalty>
0.00519311

> <i_epik_Tot_Q>
0

> <i_epik_Tot_abs_Q>
0

> <r_epik_Metal_State_Penalty>
0.404007

> <b_epik_Metal_Only>
0

> <s_lp_Force_Field>
OPLS_2005

> <r_lp_Energy>
48.5208

> <b_lp_Chiralities_Consistent>
1

> <s_lp_Variant>
AV-unprocessed.smi:188-1

> <Gold.Version>
5.8.1

> <Gold.Id.Protein>
6NUR|6NUR_protein|mol2

> <Gold.PLP.Fitness>
47.2957

> <Gold.PLP.PLP>
-37.3476

> <Gold.PLP.part.hbond>
-4.0000

> <Gold.PLP.part.metal>
0.0000

> <Gold.PLP.part.buried>
-4.0081

> <Gold.PLP.part.nonpolar>
-30.6907

> <Gold.PLP.part.repulsive>
0.3558

> <Gold.PLP.ligand.clash>
0.0000

> <Gold.PLP.ligand.torsion>
1.3546

> <Gold.PLP.Chemscore.Hbond>
2.9760

> <Gold.PLP.Chemscore.CHOScore>
1.0000

> <Gold.PLP.Chemscore.Metal>
0.0000

> <Gold.Chemscore.Hbonds>
donor molecule, donor type, donor heavy atom, donor atom, acceptor molecule, acceptor atom, score
      L1  H    22    40       P1  8029  0.70
      L1  H    28    49       P1  7948  0.70
      P1  H  6896  6908       L1     5  1.00
      L1  C    17    35       P1  8028  1.00

> <Gold.PLP.Chemscore.Internal.Correction>
0.7293

> <Gold.Rescore>
     Score         DG    S(hbond)    S(metal)    S(lipo)     H(rot)  DE(clash)    DE(int)     intcor
     13.24     -16.01       2.84        0.00      71.72       2.88       0.29       2.47       ----

> <Gold.Chemscore.Fitness>
13.2426

> <Gold.Chemscore.DG>
-16.0058

> <Gold.Chemscore.ZeroCoef>
-5.4800

> <Gold.Chemscore.Hbond>
2.8443

> <Gold.Chemscore.Metal>
0.0000

> <Gold.Chemscore.Lipo>
71.7179

> <Gold.Chemscore.Internal_Hbond>
0.0000

> <Gold.Chemscore.DEClash>
0.2906

> <Gold.Chemscore.DEInternal>
2.4726

> <Gold.Chemscore.Rot>
2.8770

> <Gold.Chemscore.Internal.Correction>
   9.000000E+99

> <Gold.Chemscore.Hbonds>
donor molecule, donor type, donor heavy atom, donor atom, acceptor molecule, acceptor atom, score
      L1  H    22    40       P1  8029  0.59
      L1  H    28    49       P1  7948  0.07
      P1  H  6896  6908       L1     5  0.98

> <Gold.Chemscore.Hbond.Weighted>
-9.4999

> <Gold.Chemscore.Metal.Weighted>
-0.0000

> <Gold.Chemscore.Lipo.Weighted>
-8.3910

> <Gold.Chemscore.Internal_Hbond.Weighted>
0.0000

> <Gold.Chemscore.DEClash.Weighted>
0.2906

> <Gold.Chemscore.DEInternal.Weighted>
2.4726

> <Gold.Chemscore.Rot.Weighted>
7.3651

> <Gold.Chemscore.Internal.Correction.Weighted>
   9.000000E+99

> <Gold.Protein.RotatedTorsions>
[ 6907 6896 6895 6894 ] final  138.04 input  -60.11 | X-H torsion
[ 7974 7965 7964 7962 ] final   22.98 input  175.53 | X-H torsion
[ 8008 7997 7996 7995 ] final  101.70 input   59.86 | X-H torsion
[ 10167 10162 10161 10158 ] final  175.16 input  -65.29 | X-H torsion
[ 10718 10713 10712 10709 ] final   86.20 input   66.30 | X-H torsion
[ 10763 10752 10751 10750 ] final   66.86 input  -60.55 | X-H torsion
[ 11005 11000 10999 10996 ] final  111.15 input  -57.11 | X-H torsion

> <Gold.Protein.ActiveResidues>
 VAL166  LYS551  ARG553  GLY616  TRP617  ASP618  TYR619  PRO620  LYS621  CYS622 
 ASP623  PHE694  ASN695  SER759  ASP760  ASP761  ALA762  ILE779  LEU786  VAL792 
 PHE793  MET794  SER795  GLU796  ALA797  LYS798  CYS799  TRP800  GLU811  SER814 

> <Gold.Protein.RotatedAtoms>
  152.2712  133.5384  159.5439 H   0  0  0  0  0  0  0  0  0  0  0  0  # atno 6907 bound_to 6896
  150.7160  134.0695  159.3868 H   0  0  0  0  0  0  0  0  0  0  0  0  # atno 6908 bound_to 6896
  151.8609  135.0524  160.0520 H   0  0  0  0  0  0  0  0  0  0  0  0  # atno 6909 bound_to 6896
  146.2005  139.7808  142.8765 H   0  0  0  0  0  0  0  0  0  0  0  0  # atno 7974 bound_to 7965
  156.1323  140.3193  155.8368 H   0  0  0  0  0  0  0  0  0  0  0  0  # atno 8008 bound_to 7997
  155.4308  140.0518  157.3036 H   0  0  0  0  0  0  0  0  0  0  0  0  # atno 8009 bound_to 7997
  154.4909  140.2092  155.9563 H   0  0  0  0  0  0  0  0  0  0  0  0  # atno 8010 bound_to 7997
  139.5167  144.3064  152.0332 H   0  0  0  0  0  0  0  0  0  0  0  0  # atno 10167 bound_to 10162
  157.6925  131.0206  150.2936 H   0  0  0  0  0  0  0  0  0  0  0  0  # atno 10718 bound_to 10713
  153.0159  135.5305  154.6890 H   0  0  0  0  0  0  0  0  0  0  0  0  # atno 10763 bound_to 10752
  154.6029  135.2870  155.0518 H   0  0  0  0  0  0  0  0  0  0  0  0  # atno 10764 bound_to 10752
  154.1568  135.6554  153.5029 H   0  0  0  0  0  0  0  0  0  0  0  0  # atno 10765 bound_to 10752
  139.8897  134.9501  156.6388 H   0  0  0  0  0  0  0  0  0  0  0  0  # atno 11005 bound_to 11000
  145.3501  141.0305  143.3343 LP  0  0  0  0  0  0  0  0  0  0  0  0  # atno 17320 bound_to 7965
  144.8672  139.5090  143.6784 LP  0  0  0  0  0  0  0  0  0  0  0  0  # atno 17321 bound_to 7965
  140.2509  144.4169  150.6222 LP  0  0  0  0  0  0  0  0  0  0  0  0  # atno 17342 bound_to 10162
  140.6225  143.2178  151.6665 LP  0  0  0  0  0  0  0  0  0  0  0  0  # atno 17343 bound_to 10162
  156.3463  130.3823  149.7366 LP  0  0  0  0  0  0  0  0  0  0  0  0  # atno 17370 bound_to 10713
  156.4858  130.8062  151.3074 LP  0  0  0  0  0  0  0  0  0  0  0  0  # atno 17371 bound_to 10713
  140.7610  133.8818  155.8418 LP  0  0  0  0  0  0  0  0  0  0  0  0  # atno 17394 bound_to 11000
  140.9922  134.1263  157.4397 LP  0  0  0  0  0  0  0  0  0  0  0  0  # atno 17395 bound_to 11000

$$$$
