AV-unprocessed.smi:211|AV-procd|sdf|1615|dock3
  -GOLD-   2262019543D 1   1.00000     0.00000
 Structure written by MMmdl.
 59 62  0  0  0  0  0  0  0  0  1 V2000
  132.8807  139.1502  153.3250 C   0  0  0  0  0  0  0  0  0  0  0  0
  133.7245  138.2105  154.1792 C   0  0  0  0  0  0  0  0  0  0  0  0
  133.4999  137.0007  154.1727 O   0  0  0  0  0  0  0  0  0  0  0  0
  134.6926  138.7851  154.9092 N   0  0  0  0  0  0  0  0  0  0  0  0
  135.6274  138.0854  155.7898 C   0  0  2  0  0  0  0  0  0  0  0  0
  135.4941  138.6680  157.2096 C   0  0  0  0  0  0  0  0  0  0  0  0
  137.0673  138.1759  155.2178 C   0  0  0  0  0  0  0  0  0  0  0  0
  137.1830  137.5324  153.8150 C   0  0  0  0  0  0  0  0  0  0  0  0
  138.6159  137.6098  153.2655 C   0  0  0  0  0  0  0  0  0  0  0  0
  139.5675  137.0185  154.2025 N   0  0  0  0  0  0  0  0  0  0  0  0
  140.7852  136.7473  153.6667 C   0  0  0  0  0  0  0  0  0  0  0  0
  141.7065  137.7396  153.5359 N   0  0  0  0  0  0  0  0  0  0  0  0
  142.8993  137.4865  152.9895 C   0  0  0  0  0  0  0  0  0  0  0  0
  143.3731  136.3316  152.5193 N   0  0  0  0  0  0  0  0  0  0  0  0
  142.4602  135.3284  152.6593 C   0  0  0  0  0  0  0  0  0  0  0  0
  141.1540  135.4489  153.2132 C   0  0  0  0  0  0  0  0  0  0  0  0
  140.5135  134.2156  153.1835 N   0  0  0  0  0  0  0  0  0  0  0  0
  141.3837  133.4169  152.6285 C   0  0  0  0  0  0  0  0  0  0  0  0
  142.5906  133.9962  152.3073 N   0  0  0  0  0  0  0  0  0  0  0  0
  143.7006  133.3653  151.6557 C   0  0  0  0  0  0  0  0  0  0  0  0
  144.2795  133.9203  150.3512 C   0  0  0  0  0  0  0  0  0  0  0  0
  144.6428  132.4833  149.9122 C   0  0  0  0  0  0  0  0  0  0  0  0
  144.3926  132.1908  148.4223 C   0  0  0  0  0  0  0  0  0  0  0  0
  143.5011  133.1209  147.8425 O   0  0  0  0  0  0  0  0  0  0  0  0
  146.0817  132.0624  150.2800 C   0  0  0  0  0  0  0  0  0  0  0  0
  147.0449  132.6437  149.4255 O   0  0  0  0  0  0  0  0  0  0  0  0
  143.5271  132.0514  150.8918 C   0  0  0  0  0  0  0  0  0  0  0  0
  139.5318  137.5928  155.5471 C   0  0  0  0  0  0  0  0  0  0  0  0
  138.1163  137.5177  156.1425 C   0  0  0  0  0  0  0  0  0  0  0  0
  132.4807  139.9640  153.9310 H   0  0  0  0  0  0  0  0  0  0  0  0
  132.0426  138.6176  152.8744 H   0  0  0  0  0  0  0  0  0  0  0  0
  133.4842  139.5787  152.5243 H   0  0  0  0  0  0  0  0  0  0  0  0
  134.7959  139.7877  154.8466 H   0  0  0  0  0  0  0  0  0  0  0  0
  135.3515  137.0297  155.8289 H   0  0  0  0  0  0  0  0  0  0  0  0
  136.0749  138.1028  157.9373 H   0  0  0  0  0  0  0  0  0  0  0  0
  134.4582  138.6414  157.5496 H   0  0  0  0  0  0  0  0  0  0  0  0
  135.8265  139.7060  157.2455 H   0  0  0  0  0  0  0  0  0  0  0  0
  137.3245  139.2320  155.1208 H   0  0  0  0  0  0  0  0  0  0  0  0
  136.8705  136.4883  153.8631 H   0  0  0  0  0  0  0  0  0  0  0  0
  136.5148  138.0205  153.1054 H   0  0  0  0  0  0  0  0  0  0  0  0
  138.6531  137.1165  152.2949 H   0  0  0  0  0  0  0  0  0  0  0  0
  138.8927  138.6512  153.0959 H   0  0  0  0  0  0  0  0  0  0  0  0
  143.5700  138.3302  152.9186 H   0  0  0  0  0  0  0  0  0  0  0  0
  141.1676  132.3749  152.4432 H   0  0  0  0  0  0  0  0  0  0  0  0
  144.4785  133.2683  152.4150 H   0  0  0  0  0  0  0  0  0  0  0  0
  143.5156  134.3816  149.7221 H   0  0  0  0  0  0  0  0  0  0  0  0
  145.1293  134.5906  150.4839 H   0  0  0  0  0  0  0  0  0  0  0  0
  145.3236  132.2394  147.8570 H   0  0  0  0  0  0  0  0  0  0  0  0
  143.9987  131.1846  148.2759 H   0  0  0  0  0  0  0  0  0  0  0  0
  144.0057  133.7825  147.3952 H   0  0  0  0  0  0  0  0  0  0  0  0
  146.3194  132.3330  151.3092 H   0  0  0  0  0  0  0  0  0  0  0  0
  146.2036  130.9808  150.2187 H   0  0  0  0  0  0  0  0  0  0  0  0
  147.8879  132.2635  149.6192 H   0  0  0  0  0  0  0  0  0  0  0  0
  143.7441  131.1581  151.4784 H   0  0  0  0  0  0  0  0  0  0  0  0
  142.5493  131.9732  150.4127 H   0  0  0  0  0  0  0  0  0  0  0  0
  140.2257  137.0599  156.1988 H   0  0  0  0  0  0  0  0  0  0  0  0
  139.8615  138.6319  155.5050 H   0  0  0  0  0  0  0  0  0  0  0  0
  138.1306  138.0006  157.1189 H   0  0  0  0  0  0  0  0  0  0  0  0
  137.8501  136.4742  156.3159 H   0  0  0  0  0  0  0  0  0  0  0  0
  1  2  1  0  0  0  0
  1 30  1  0  0  0  0
  1 31  1  0  0  0  0
  1 32  1  0  0  0  0
  2  3  2  0  0  0  0
  2  4  1  0  0  0  0
  4  5  1  0  0  0  0
  4 33  1  0  0  0  0
  5  6  1  0  0  0  0
  5  7  1  0  0  0  0
  5 34  1  0  0  0  0
  6 35  1  0  0  0  0
  6 36  1  0  0  0  0
  6 37  1  0  0  0  0
  7 29  1  0  0  0  0
  7  8  1  0  0  0  0
  7 38  1  0  0  0  0
  8  9  1  0  0  0  0
  8 39  1  0  0  0  0
  8 40  1  0  0  0  0
  9 10  1  0  0  0  0
  9 41  1  0  0  0  0
  9 42  1  0  0  0  0
 10 11  1  0  0  0  0
 10 28  1  0  0  0  0
 11 16  1  0  0  0  0
 11 12  2  0  0  0  0
 12 13  1  0  0  0  0
 13 14  2  0  0  0  0
 13 43  1  0  0  0  0
 14 15  1  0  0  0  0
 15 19  1  0  0  0  0
 15 16  2  0  0  0  0
 16 17  1  0  0  0  0
 17 18  2  0  0  0  0
 18 19  1  0  0  0  0
 18 44  1  0  0  0  0
 19 20  1  0  0  0  0
 20 27  1  0  0  0  0
 20 21  1  0  0  0  0
 20 45  1  0  0  0  0
 21 22  1  0  0  0  0
 21 46  1  0  0  0  0
 21 47  1  0  0  0  0
 22 23  1  0  0  0  0
 22 25  1  0  0  0  0
 22 27  1  0  0  0  0
 23 24  1  0  0  0  0
 23 48  1  0  0  0  0
 23 49  1  0  0  0  0
 24 50  1  0  0  0  0
 25 26  1  0  0  0  0
 25 51  1  0  0  0  0
 25 52  1  0  0  0  0
 26 53  1  0  0  0  0
 27 54  1  0  0  0  0
 27 55  1  0  0  0  0
 28 29  1  0  0  0  0
 28 56  1  0  0  0  0
 28 57  1  0  0  0  0
 29 58  1  0  0  0  0
 29 59  1  0  0  0  0
M  END
> <s_m_source_file>
AV-unprocessed.smi

> <i_m_source_file_index>
211

> <i_lp_mmshare_version>
43012

> <i_f3d_flags>
0

> <s_epik_input>
W0NIM11DKD1PKVtOSF1bQ0BIXShbQ0gzXSlbQ0hdMVtDSDJdW0NIMl1OKFtDSDJdW0NIMl0xKWMobltjSF1uMiljKGMyMyluW2NIXW4zW0NIXShbQ0gyXTQpW0NIMl1DNChbQ0gyXVtPSF0pW0NIMl1bT0hd

> <s_epik_cmdline>
J2VwaWtfcHl0aG9uJywgJy1waCcsICc3LjAnLCAnLXRuJywgJzgnLCAnLW1hJywgJzIwMCcsICctbWV0YWxfYmluZGluZycsICctaW1hZScsICc8aW5maWxlLm1hZT4nLCAnLW9tYWUnLCAnPG91dGZpbGUubWFlPic=

> <r_lp_tautomer_probability>
1

> <r_epik_Ionization_Penalty>
0.00335435

> <r_epik_Ionization_Penalty_Charging>
0

> <r_epik_Ionization_Penalty_Neutral>
0.00335435

> <r_epik_State_Penalty>
0.00231338

> <r_epik_Charging_Adjusted_Penalty>
0.00231338

> <i_epik_Tot_Q>
0

> <i_epik_Tot_abs_Q>
0

> <r_epik_Metal_State_Penalty>
-0

> <b_epik_Metal_Only>
0

> <s_lp_Force_Field>
OPLS_2005

> <r_lp_Energy>
41.9303

> <b_lp_Chiralities_Consistent>
1

> <s_lp_Variant>
AV-unprocessed.smi:211-1

> <Gold.Version>
5.8.1

> <Gold.Id.Protein>
6NUR|6NUR_protein|mol2

> <Gold.PLP.Fitness>
51.8804

> <Gold.PLP.PLP>
-43.8354

> <Gold.PLP.part.hbond>
-7.0402

> <Gold.PLP.part.metal>
0.0000

> <Gold.PLP.part.buried>
2.0630

> <Gold.PLP.part.nonpolar>
-38.6350

> <Gold.PLP.part.repulsive>
1.7718

> <Gold.PLP.ligand.clash>
0.1576

> <Gold.PLP.ligand.torsion>
1.3172

> <Gold.PLP.Chemscore.Hbond>
2.3280

> <Gold.PLP.Chemscore.CHOScore>
0.9824

> <Gold.PLP.Chemscore.Metal>
0.0000

> <Gold.Chemscore.Hbonds>
donor molecule, donor type, donor heavy atom, donor atom, acceptor molecule, acceptor atom, score
      L1  H    24    50       P1  7921  0.17
      L1  H    26    53       P1 10747  1.00
      P1  H 10995 11001       L1    17  0.51
      L1  C    13    43       P1 10175  1.00
      L1  C    18    44       P1 10957  0.01

> <Gold.PLP.Chemscore.Internal.Correction>
0.9059

> <Gold.Rescore>
     Score         DG    S(hbond)    S(metal)    S(lipo)     H(rot)  DE(clash)    DE(int)     intcor
     10.69     -12.81       1.92        0.00      93.44       3.92       1.13       0.99       ----

> <Gold.Chemscore.Fitness>
10.6931

> <Gold.Chemscore.DG>
-12.8065

> <Gold.Chemscore.ZeroCoef>
-5.4800

> <Gold.Chemscore.Hbond>
1.9214

> <Gold.Chemscore.Metal>
0.0000

> <Gold.Chemscore.Lipo>
93.4419

> <Gold.Chemscore.Internal_Hbond>
0.0000

> <Gold.Chemscore.DEClash>
1.1257

> <Gold.Chemscore.DEInternal>
0.9877

> <Gold.Chemscore.Rot>
3.9155

> <Gold.Chemscore.Internal.Correction>
   9.000000E+99

> <Gold.Chemscore.Hbonds>
donor molecule, donor type, donor heavy atom, donor atom, acceptor molecule, acceptor atom, score
      L1  H    24    50       P1  7921  0.17
      L1  H    26    53       P1 10747  0.97
      P1  H 10995 11001       L1    17  0.14

> <Gold.Chemscore.Hbond.Weighted>
-6.4174

> <Gold.Chemscore.Metal.Weighted>
-0.0000

> <Gold.Chemscore.Lipo.Weighted>
-10.9327

> <Gold.Chemscore.Internal_Hbond.Weighted>
0.0000

> <Gold.Chemscore.DEClash.Weighted>
1.1257

> <Gold.Chemscore.DEInternal.Weighted>
0.9877

> <Gold.Chemscore.Rot.Weighted>
10.0236

> <Gold.Chemscore.Internal.Correction.Weighted>
   9.000000E+99

> <Gold.Protein.RotatedTorsions>
[ 6907 6896 6895 6894 ] final    0.21 input  -60.11 | X-H torsion
[ 7974 7965 7964 7962 ] final  144.83 input  175.53 | X-H torsion
[ 8008 7997 7996 7995 ] final  -82.03 input   59.86 | X-H torsion
[ 10167 10162 10161 10158 ] final -117.76 input  -65.29 | X-H torsion
[ 10718 10713 10712 10709 ] final   55.29 input   66.30 | X-H torsion
[ 10763 10752 10751 10750 ] final  -44.20 input  -60.55 | X-H torsion
[ 11005 11000 10999 10996 ] final   13.65 input  -57.11 | X-H torsion

> <Gold.Protein.ActiveResidues>
 VAL166  LYS551  ARG553  GLY616  TRP617  ASP618  TYR619  PRO620  LYS621  CYS622 
 ASP623  PHE694  ASN695  SER759  ASP760  ASP761  ALA762  ILE779  LEU786  VAL792 
 PHE793  MET794  SER795  GLU796  ALA797  LYS798  CYS799  TRP800  GLU811  SER814 

> <Gold.Protein.RotatedAtoms>
  151.5727  135.1062  159.9998 H   0  0  0  0  0  0  0  0  0  0  0  0  # atno 6907 bound_to 6896
  152.4393  133.7414  159.6653 H   0  0  0  0  0  0  0  0  0  0  0  0  # atno 6908 bound_to 6896
  150.8295  133.8045  159.3128 H   0  0  0  0  0  0  0  0  0  0  0  0  # atno 6909 bound_to 6896
  144.8803  139.5710  143.5846 H   0  0  0  0  0  0  0  0  0  0  0  0  # atno 7974 bound_to 7965
  154.6044  140.0639  156.9411 H   0  0  0  0  0  0  0  0  0  0  0  0  # atno 8008 bound_to 7997
  155.2078  140.3320  155.4315 H   0  0  0  0  0  0  0  0  0  0  0  0  # atno 8009 bound_to 7997
  156.2338  140.1853  156.7156 H   0  0  0  0  0  0  0  0  0  0  0  0  # atno 8010 bound_to 7997
  140.0648  143.4933  152.2012 H   0  0  0  0  0  0  0  0  0  0  0  0  # atno 10167 bound_to 10162
  157.5332  130.8645  149.8716 H   0  0  0  0  0  0  0  0  0  0  0  0  # atno 10718 bound_to 10713
  154.0082  135.6685  153.4763 H   0  0  0  0  0  0  0  0  0  0  0  0  # atno 10763 bound_to 10752
  153.0632  135.5016  154.8138 H   0  0  0  0  0  0  0  0  0  0  0  0  # atno 10764 bound_to 10752
  154.7011  135.3079  154.9302 H   0  0  0  0  0  0  0  0  0  0  0  0  # atno 10765 bound_to 10752
  140.4784  134.0961  155.7746 H   0  0  0  0  0  0  0  0  0  0  0  0  # atno 11005 bound_to 11000
  146.2990  139.7366  142.9105 LP  0  0  0  0  0  0  0  0  0  0  0  0  # atno 17320 bound_to 7965
  145.3967  141.0380  143.3093 LP  0  0  0  0  0  0  0  0  0  0  0  0  # atno 17321 bound_to 7965
  139.5872  144.7535  151.3491 LP  0  0  0  0  0  0  0  0  0  0  0  0  # atno 17342 bound_to 10162
  140.7154  143.7279  150.7646 LP  0  0  0  0  0  0  0  0  0  0  0  0  # atno 17343 bound_to 10162
  156.0438  130.3732  150.1368 LP  0  0  0  0  0  0  0  0  0  0  0  0  # atno 17370 bound_to 10713
  156.9552  130.9787  151.3490 LP  0  0  0  0  0  0  0  0  0  0  0  0  # atno 17371 bound_to 10713
  141.1543  133.8911  157.2017 LP  0  0  0  0  0  0  0  0  0  0  0  0  # atno 17394 bound_to 11000
  139.9842  135.0088  156.9822 LP  0  0  0  0  0  0  0  0  0  0  0  0  # atno 17395 bound_to 11000

$$$$
