AV-unprocessed.smi:3054|AV-procd|sdf|11640|dock7
  -GOLD-   2272017 33D 1   1.00000     0.00000
 Structure written by MMmdl.
 40 41  0  0  0  0  0  0  0  0  2 V2000
  148.7256  135.4666  157.9327 C   0  0  0  0  0  0  0  0  0  0  0  0
  149.3460  136.5032  156.9855 C   0  0  0  0  0  0  0  0  0  0  0  0
  149.1681  136.1573  155.4841 C   0  0  1  0  0  0  0  0  0  0  0  0
  147.6835  135.9522  155.1020 C   0  0  0  0  0  0  0  0  0  0  0  0
  147.5163  135.5260  153.7139 N   0  0  0  0  0  0  0  0  0  0  0  0
  146.4242  134.9401  153.2028 C   0  0  0  0  0  0  0  0  0  0  0  0
  145.4054  134.7170  153.8555 O   0  0  0  0  0  0  0  0  0  0  0  0
  146.5887  134.6478  151.9029 N   0  0  0  0  0  0  0  0  0  0  0  0
  145.6511  134.0279  151.0396 C   0  0  0  0  0  0  0  0  0  0  0  0
  145.7964  132.8542  150.2428 C   0  0  0  0  0  0  0  0  0  0  0  0
  144.6871  132.5942  149.5660 N   0  0  0  0  0  0  0  0  0  0  0  0
  143.8397  133.5868  149.9185 N   0  0  0  0  0  0  0  0  0  0  0  0
  144.3857  134.4807  150.8130 C   0  0  0  0  0  0  0  0  0  0  0  0
  149.8283  137.1377  154.5730 N   0  3  0  0  0  0  0  0  0  0  0  0
  149.2203  138.4895  154.4799 C   0  0  0  0  0  0  0  0  0  0  0  0
  150.3234  139.4833  154.8473 C   0  0  0  0  0  0  0  0  0  0  0  0
  151.5983  138.7577  154.4361 C   0  0  0  0  0  0  0  0  0  0  0  0
  151.2878  137.3010  154.7772 C   0  0  0  0  0  0  0  0  0  0  0  0
  142.9031  133.6400  149.5434 H   0  0  0  0  0  0  0  0  0  0  0  0
  148.9372  135.7194  158.9718 H   0  0  0  0  0  0  0  0  0  0  0  0
  149.1289  134.4708  157.7474 H   0  0  0  0  0  0  0  0  0  0  0  0
  147.6423  135.4168  157.8255 H   0  0  0  0  0  0  0  0  0  0  0  0
  148.9145  137.4790  157.2081 H   0  0  0  0  0  0  0  0  0  0  0  0
  150.4044  136.5829  157.2321 H   0  0  0  0  0  0  0  0  0  0  0  0
  149.6696  135.2044  155.3048 H   0  0  0  0  0  0  0  0  0  0  0  0
  147.2399  135.1754  155.7235 H   0  0  0  0  0  0  0  0  0  0  0  0
  147.1082  136.8578  155.3021 H   0  0  0  0  0  0  0  0  0  0  0  0
  148.3060  135.6665  153.1003 H   0  0  0  0  0  0  0  0  0  0  0  0
  147.4760  134.8905  151.4869 H   0  0  0  0  0  0  0  0  0  0  0  0
  146.6427  132.1933  150.1288 H   0  0  0  0  0  0  0  0  0  0  0  0
  143.8419  135.3320  151.1957 H   0  0  0  0  0  0  0  0  0  0  0  0
  148.9270  138.6462  153.4417 H   0  0  0  0  0  0  0  0  0  0  0  0
  148.3231  138.6243  155.0823 H   0  0  0  0  0  0  0  0  0  0  0  0
  150.2054  140.4487  154.3542 H   0  0  0  0  0  0  0  0  0  0  0  0
  150.3260  139.6535  155.9250 H   0  0  0  0  0  0  0  0  0  0  0  0
  151.7549  138.8649  153.3618 H   0  0  0  0  0  0  0  0  0  0  0  0
  152.4857  139.1335  154.9464 H   0  0  0  0  0  0  0  0  0  0  0  0
  151.5588  137.1088  155.8156 H   0  0  0  0  0  0  0  0  0  0  0  0
  151.8509  136.6022  154.1581 H   0  0  0  0  0  0  0  0  0  0  0  0
  149.7338  136.7461  153.6466 H   0  0  0  0  0  0  0  0  0  0  0  0
  1  2  1  0  0  0  0
  1 20  1  0  0  0  0
  1 21  1  0  0  0  0
  1 22  1  0  0  0  0
  2  3  1  0  0  0  0
  2 23  1  0  0  0  0
  2 24  1  0  0  0  0
  3  4  1  0  0  0  0
  3 14  1  0  0  0  0
  3 25  1  0  0  0  0
  4  5  1  0  0  0  0
  4 26  1  0  0  0  0
  4 27  1  0  0  0  0
  5  6  1  0  0  0  0
  5 28  1  0  0  0  0
  6  7  2  0  0  0  0
  6  8  1  0  0  0  0
  8  9  1  0  0  0  0
  8 29  1  0  0  0  0
  9 13  2  0  0  0  0
  9 10  1  0  0  0  0
 10 11  2  0  0  0  0
 10 30  1  0  0  0  0
 11 12  1  0  0  0  0
 12 19  1  0  0  0  0
 12 13  1  0  0  0  0
 13 31  1  0  0  0  0
 14 18  1  0  0  0  0
 14 15  1  0  0  0  0
 14 40  1  0  0  0  0
 15 16  1  0  0  0  0
 15 32  1  0  0  0  0
 15 33  1  0  0  0  0
 16 17  1  0  0  0  0
 16 34  1  0  0  0  0
 16 35  1  0  0  0  0
 17 18  1  0  0  0  0
 17 36  1  0  0  0  0
 17 37  1  0  0  0  0
 18 38  1  0  0  0  0
 18 39  1  0  0  0  0
M  CHG  1  14   1
M  END
> <s_m_source_file>
AV-unprocessed.smi

> <i_m_source_file_index>
3054

> <i_lp_mmshare_version>
43012

> <i_f3d_flags>
0

> <s_epik_input>
W0NIMl0xW0NIMl1bQ0gyXVtDSDJdTjFbQ0BIXShbQ0gyXVtDSDNdKVtDSDJdW05IXUMoPU8pW05IXWMyW2NIXW5bbkhdW2NIXTI=

> <s_epik_cmdline>
J2VwaWtfcHl0aG9uJywgJy1waCcsICc3LjAnLCAnLXRuJywgJzgnLCAnLW1hJywgJzIwMCcsICctbWV0YWxfYmluZGluZycsICctaW1hZScsICc8aW5maWxlLm1hZT4nLCAnLW9tYWUnLCAnPG91dGZpbGUubWFlPic=

> <r_lp_tautomer_probability>
0.5

> <r_epik_Ionization_Penalty>
0.00108132

> <r_epik_Ionization_Penalty_Charging>
0.00104139

> <r_epik_Ionization_Penalty_Neutral>
3.99244e-05

> <r_epik_State_Penalty>
0.00068071

> <r_epik_Charging_Adjusted_Penalty>
0.0017221

> <i_epik_Tot_Q>
1

> <i_epik_Tot_abs_Q>
1

> <r_epik_Metal_State_Penalty>
-0

> <b_epik_Metal_Only>
0

> <s_lp_Force_Field>
OPLS_2005

> <r_lp_Energy>
40.663

> <b_lp_Chiralities_Consistent>
1

> <s_lp_Variant>
AV-unprocessed.smi:3054-2

> <Gold.Version>
5.8.1

> <Gold.Id.Protein>
6NUR|6NUR_protein|mol2

> <Gold.PLP.Fitness>
39.7573

> <Gold.PLP.PLP>
-24.8332

> <Gold.PLP.part.hbond>
-3.8267

> <Gold.PLP.part.metal>
0.0000

> <Gold.PLP.part.buried>
-4.2243

> <Gold.PLP.part.nonpolar>
-17.0821

> <Gold.PLP.part.repulsive>
0.3565

> <Gold.PLP.ligand.clash>
0.0000

> <Gold.PLP.ligand.torsion>
0.6926

> <Gold.PLP.Chemscore.Hbond>
4.7105

> <Gold.PLP.Chemscore.CHOScore>
0.6693

> <Gold.PLP.Chemscore.Metal>
0.0000

> <Gold.Chemscore.Hbonds>
donor molecule, donor type, donor heavy atom, donor atom, acceptor molecule, acceptor atom, score
      L1  H     5    28       P1  7948  0.91
      L1  H     8    29       P1  7948  0.77
      L1  H    12    19       P1 10186  0.96
      L1  H    14    40       P1  7948  2.00
      L1  C    10    30       P1 10747  0.62

> <Gold.PLP.Chemscore.Internal.Correction>
0.1699

> <Gold.Rescore>
     Score         DG    S(hbond)    S(metal)    S(lipo)     H(rot)  DE(clash)    DE(int)     intcor
     18.57     -19.29       3.58        0.00      55.40       1.81       0.04       0.69       ----

> <Gold.Chemscore.Fitness>
18.5665

> <Gold.Chemscore.DG>
-19.2912

> <Gold.Chemscore.ZeroCoef>
-5.4800

> <Gold.Chemscore.Hbond>
3.5813

> <Gold.Chemscore.Metal>
0.0000

> <Gold.Chemscore.Lipo>
55.4012

> <Gold.Chemscore.Internal_Hbond>
0.0000

> <Gold.Chemscore.DEClash>
0.0372

> <Gold.Chemscore.DEInternal>
0.6875

> <Gold.Chemscore.Rot>
1.8094

> <Gold.Chemscore.Internal.Correction>
   9.000000E+99

> <Gold.Chemscore.Hbonds>
donor molecule, donor type, donor heavy atom, donor atom, acceptor molecule, acceptor atom, score
      L1  H     5    28       P1  7948  0.85
      L1  H     8    29       P1  7948  0.37
      L1  H    12    19       P1 10186  0.86
      L1  H    14    40       P1  7948  0.54

> <Gold.Chemscore.Hbond.Weighted>
-11.9614

> <Gold.Chemscore.Metal.Weighted>
-0.0000

> <Gold.Chemscore.Lipo.Weighted>
-6.4819

> <Gold.Chemscore.Internal_Hbond.Weighted>
0.0000

> <Gold.Chemscore.DEClash.Weighted>
0.0372

> <Gold.Chemscore.DEInternal.Weighted>
0.6875

> <Gold.Chemscore.Rot.Weighted>
4.6322

> <Gold.Chemscore.Internal.Correction.Weighted>
   9.000000E+99

> <Gold.Protein.RotatedTorsions>
[ 6907 6896 6895 6894 ] final  -52.30 input  -60.11 | X-H torsion
[ 7974 7965 7964 7962 ] final   68.71 input  175.53 | X-H torsion
[ 8008 7997 7996 7995 ] final  -31.14 input   59.86 | X-H torsion
[ 10167 10162 10161 10158 ] final  -13.45 input  -65.29 | X-H torsion
[ 10718 10713 10712 10709 ] final  -38.68 input   66.30 | X-H torsion
[ 10763 10752 10751 10750 ] final  -70.96 input  -60.55 | X-H torsion
[ 11005 11000 10999 10996 ] final -158.39 input  -57.11 | X-H torsion

> <Gold.Protein.ActiveResidues>
 VAL166  LYS551  ARG553  GLY616  TRP617  ASP618  TYR619  PRO620  LYS621  CYS622 
 ASP623  PHE694  ASN695  SER759  ASP760  ASP761  ALA762  ILE779  LEU786  VAL792 
 PHE793  MET794  SER795  GLU796  ALA797  LYS798  CYS799  TRP800  GLU811  SER814 

> <Gold.Protein.RotatedAtoms>
  150.8531  134.7861  159.7023 H   0  0  0  0  0  0  0  0  0  0  0  0  # atno 6907 bound_to 6896
  152.4590  134.5224  159.9796 H   0  0  0  0  0  0  0  0  0  0  0  0  # atno 6908 bound_to 6896
  151.5341  133.3406  159.2959 H   0  0  0  0  0  0  0  0  0  0  0  0  # atno 6909 bound_to 6896
  145.7992  139.2974  143.1164 H   0  0  0  0  0  0  0  0  0  0  0  0  # atno 7974 bound_to 7965
  154.4224  140.1772  156.1519 H   0  0  0  0  0  0  0  0  0  0  0  0  # atno 8008 bound_to 7997
  155.9908  140.3369  155.6727 H   0  0  0  0  0  0  0  0  0  0  0  0  # atno 8009 bound_to 7997
  155.6375  140.0676  157.2620 H   0  0  0  0  0  0  0  0  0  0  0  0  # atno 8010 bound_to 7997
  140.7182  143.5425  150.9393 H   0  0  0  0  0  0  0  0  0  0  0  0  # atno 10167 bound_to 10162
  156.3010  130.4240  149.8143 H   0  0  0  0  0  0  0  0  0  0  0  0  # atno 10718 bound_to 10713
  154.4250  135.5977  153.6033 H   0  0  0  0  0  0  0  0  0  0  0  0  # atno 10763 bound_to 10752
  152.9796  135.5961  154.3909 H   0  0  0  0  0  0  0  0  0  0  0  0  # atno 10764 bound_to 10752
  154.3739  135.2841  155.2229 H   0  0  0  0  0  0  0  0  0  0  0  0  # atno 10765 bound_to 10752
  140.6542  134.4419  157.5235 H   0  0  0  0  0  0  0  0  0  0  0  0  # atno 11005 bound_to 11000
  145.9895  140.8614  143.0073 LP  0  0  0  0  0  0  0  0  0  0  0  0  # atno 17320 bound_to 7965
  144.6771  140.2195  143.7368 LP  0  0  0  0  0  0  0  0  0  0  0  0  # atno 17321 bound_to 7965
  139.9148  143.6677  152.3108 LP  0  0  0  0  0  0  0  0  0  0  0  0  # atno 17342 bound_to 10162
  139.7073  144.7626  151.1172 LP  0  0  0  0  0  0  0  0  0  0  0  0  # atno 17343 bound_to 10162
  156.5521  130.8346  151.3303 LP  0  0  0  0  0  0  0  0  0  0  0  0  # atno 17370 bound_to 10713
  157.7368  130.9785  150.2156 LP  0  0  0  0  0  0  0  0  0  0  0  0  # atno 17371 bound_to 10713
  139.9035  134.8501  156.1798 LP  0  0  0  0  0  0  0  0  0  0  0  0  # atno 17394 bound_to 11000
  141.0514  133.6887  156.1779 LP  0  0  0  0  0  0  0  0  0  0  0  0  # atno 17395 bound_to 11000

$$$$
