AV-unprocessed.smi:358|AV-procd|sdf|2417|dock2
  -GOLD-   2262022353D 1   1.00000     0.00000
 Structure written by MMmdl.
 37 39  0  0  0  0  0  0  0  0  1 V2000
  148.8226  140.5328  153.8303 N   0  0  0  0  0  0  0  0  0  0  0  0
  149.8848  140.1075  154.5181 C   0  0  0  0  0  0  0  0  0  0  0  0
  150.8434  139.5663  153.9699 O   0  0  0  0  0  0  0  0  0  0  0  0
  149.8560  140.3231  156.0350 C   0  0  0  0  0  0  0  0  0  0  0  0
  151.0092  139.7268  156.6998 N   0  0  0  0  0  0  0  0  0  0  0  0
  151.4941  138.4712  156.6070 C   0  0  0  0  0  0  0  0  0  0  0  0
  150.7606  137.2349  155.5927 S   0  0  0  0  0  0  0  0  0  0  0  0
  151.1466  135.8126  156.6543 C   0  0  0  0  0  0  0  0  0  0  0  0
  150.3185  134.5632  156.3493 C   0  0  0  0  0  0  0  0  0  0  0  0
  150.3343  133.5954  157.1106 O   0  0  0  0  0  0  0  0  0  0  0  0
  149.5840  134.6083  155.2279 N   0  0  0  0  0  0  0  0  0  0  0  0
  148.7325  133.5674  154.7504 C   0  0  0  0  0  0  0  0  0  0  0  0
  149.3694  132.2328  154.4282 C   0  0  0  0  0  0  0  0  0  0  0  0
  148.9003  133.1254  153.3126 C   0  0  0  0  0  0  0  0  0  0  0  0
  152.5879  138.2604  157.3427 N   0  0  0  0  0  0  0  0  0  0  0  0
  152.8472  139.4595  157.9687 N   0  0  0  0  0  0  0  0  0  0  0  0
  151.8770  140.2849  157.5691 C   0  0  0  0  0  0  0  0  0  0  0  0
  151.7870  141.7172  157.9909 C   0  0  0  0  0  0  0  0  0  0  0  0
  151.8312  142.1076  159.4520 C   0  0  0  0  0  0  0  0  0  0  0  0
  150.5496  142.2550  158.6756 C   0  0  0  0  0  0  0  0  0  0  0  0
  148.7966  140.4143  152.8277 H   0  0  0  0  0  0  0  0  0  0  0  0
  148.0508  140.9720  154.3108 H   0  0  0  0  0  0  0  0  0  0  0  0
  149.8301  141.3923  156.2460 H   0  0  0  0  0  0  0  0  0  0  0  0
  148.9453  139.9007  156.4613 H   0  0  0  0  0  0  0  0  0  0  0  0
  152.2022  135.5651  156.5402 H   0  0  0  0  0  0  0  0  0  0  0  0
  150.9956  136.1062  157.6940 H   0  0  0  0  0  0  0  0  0  0  0  0
  149.6330  135.4462  154.6668 H   0  0  0  0  0  0  0  0  0  0  0  0
  147.7200  133.5262  155.1497 H   0  0  0  0  0  0  0  0  0  0  0  0
  150.4435  132.1324  154.5726 H   0  0  0  0  0  0  0  0  0  0  0  0
  148.7872  131.3366  154.6331 H   0  0  0  0  0  0  0  0  0  0  0  0
  148.0041  132.8270  152.7726 H   0  0  0  0  0  0  0  0  0  0  0  0
  149.6608  133.6221  152.7128 H   0  0  0  0  0  0  0  0  0  0  0  0
  152.2962  142.3613  157.2767 H   0  0  0  0  0  0  0  0  0  0  0  0
  151.8768  141.3109  160.1920 H   0  0  0  0  0  0  0  0  0  0  0  0
  152.3691  143.0170  159.7121 H   0  0  0  0  0  0  0  0  0  0  0  0
  150.2301  143.2620  158.4156 H   0  0  0  0  0  0  0  0  0  0  0  0
  149.7481  141.5553  158.9037 H   0  0  0  0  0  0  0  0  0  0  0  0
  1  2  1  0  0  0  0
  1 21  1  0  0  0  0
  1 22  1  0  0  0  0
  2  3  2  0  0  0  0
  2  4  1  0  0  0  0
  4  5  1  0  0  0  0
  4 23  1  0  0  0  0
  4 24  1  0  0  0  0
  5 17  1  0  0  0  0
  5  6  1  0  0  0  0
  6  7  1  0  0  0  0
  6 15  2  0  0  0  0
  7  8  1  0  0  0  0
  8  9  1  0  0  0  0
  8 25  1  0  0  0  0
  8 26  1  0  0  0  0
  9 10  2  0  0  0  0
  9 11  1  0  0  0  0
 11 12  1  0  0  0  0
 11 27  1  0  0  0  0
 12 14  1  0  0  0  0
 12 13  1  0  0  0  0
 12 28  1  0  0  0  0
 13 14  1  0  0  0  0
 13 29  1  0  0  0  0
 13 30  1  0  0  0  0
 14 31  1  0  0  0  0
 14 32  1  0  0  0  0
 15 16  1  0  0  0  0
 16 17  2  0  0  0  0
 17 18  1  0  0  0  0
 18 20  1  0  0  0  0
 18 19  1  0  0  0  0
 18 33  1  0  0  0  0
 19 20  1  0  0  0  0
 19 34  1  0  0  0  0
 19 35  1  0  0  0  0
 20 36  1  0  0  0  0
 20 37  1  0  0  0  0
M  END
> <s_m_source_file>
AV-unprocessed.smi

> <i_m_source_file_index>
358

> <i_lp_mmshare_version>
43012

> <i_f3d_flags>
0

> <s_epik_input>
W0NIMl0xW0NIMl1bQ0hdMWMybm5jKG4yW0NIMl1DKD1PKVtOSDJdKVNbQ0gyXUMoPU8pW05IXVtDSF0zW0NIMl1bQ0gyXTM=

> <s_epik_cmdline>
J2VwaWtfcHl0aG9uJywgJy1waCcsICc3LjAnLCAnLXRuJywgJzgnLCAnLW1hJywgJzIwMCcsICctbWV0YWxfYmluZGluZycsICctaW1hZScsICc8aW5maWxlLm1hZT4nLCAnLW9tYWUnLCAnPG91dGZpbGUubWFlPic=

> <r_lp_tautomer_probability>
1

> <r_epik_Ionization_Penalty>
5.83215e-07

> <r_epik_Ionization_Penalty_Charging>
0

> <r_epik_Ionization_Penalty_Neutral>
5.83215e-07

> <r_epik_State_Penalty>
-0

> <r_epik_Charging_Adjusted_Penalty>
0

> <i_epik_Tot_Q>
0

> <i_epik_Tot_abs_Q>
0

> <r_epik_Metal_State_Penalty>
-0

> <b_epik_Metal_Only>
0

> <s_lp_Force_Field>
OPLS_2005

> <r_lp_Energy>
18.9456

> <b_lp_Chiralities_Consistent>
1

> <s_lp_Variant>
AV-unprocessed.smi:358-1

> <Gold.Version>
5.8.1

> <Gold.Id.Protein>
6NUR|6NUR_protein|mol2

> <Gold.PLP.Fitness>
37.5439

> <Gold.PLP.PLP>
-27.3360

> <Gold.PLP.part.hbond>
-4.0000

> <Gold.PLP.part.metal>
0.0000

> <Gold.PLP.part.buried>
-1.6896

> <Gold.PLP.part.nonpolar>
-21.9701

> <Gold.PLP.part.repulsive>
0.3786

> <Gold.PLP.ligand.clash>
0.0000

> <Gold.PLP.ligand.torsion>
0.7511

> <Gold.PLP.Chemscore.Hbond>
3.7750

> <Gold.PLP.Chemscore.CHOScore>
0.0000

> <Gold.PLP.Chemscore.Metal>
0.0000

> <Gold.Chemscore.Hbonds>
donor molecule, donor type, donor heavy atom, donor atom, acceptor molecule, acceptor atom, score
      L1  H     1    21       P1  7957  1.00
      P1  H  6896  6907       L1    10  0.51
      P1  H  7989  7998       L1     3  1.00
      P1  H  7997  8008       L1    16  0.78

> <Gold.PLP.Chemscore.Internal.Correction>
0.3850

> <Gold.Rescore>
     Score         DG    S(hbond)    S(metal)    S(lipo)     H(rot)  DE(clash)    DE(int)     intcor
      8.70     -11.43       2.43        0.00      53.69       3.30       0.56       2.17       ----

> <Gold.Chemscore.Fitness>
8.7020

> <Gold.Chemscore.DG>
-11.4267

> <Gold.Chemscore.ZeroCoef>
-5.4800

> <Gold.Chemscore.Hbond>
2.4278

> <Gold.Chemscore.Metal>
0.0000

> <Gold.Chemscore.Lipo>
53.6902

> <Gold.Chemscore.Internal_Hbond>
0.0000

> <Gold.Chemscore.DEClash>
0.5559

> <Gold.Chemscore.DEInternal>
2.1688

> <Gold.Chemscore.Rot>
3.2984

> <Gold.Chemscore.Internal.Correction>
   9.000000E+99

> <Gold.Chemscore.Hbonds>
donor molecule, donor type, donor heavy atom, donor atom, acceptor molecule, acceptor atom, score
      L1  H     1    21       P1  7957  0.97
      P1  H  6896  6907       L1    10  0.50
      P1  H  7989  7998       L1     3  0.25
      P1  H  7997  8008       L1    16  0.23

> <Gold.Chemscore.Hbond.Weighted>
-8.1087

> <Gold.Chemscore.Metal.Weighted>
-0.0000

> <Gold.Chemscore.Lipo.Weighted>
-6.2818

> <Gold.Chemscore.Internal_Hbond.Weighted>
0.0000

> <Gold.Chemscore.DEClash.Weighted>
0.5559

> <Gold.Chemscore.DEInternal.Weighted>
2.1688

> <Gold.Chemscore.Rot.Weighted>
8.4438

> <Gold.Chemscore.Internal.Correction.Weighted>
   9.000000E+99

> <Gold.Protein.RotatedTorsions>
[ 6907 6896 6895 6894 ] final -138.33 input  -60.11 | X-H torsion
[ 7974 7965 7964 7962 ] final -144.07 input  175.53 | X-H torsion
[ 8008 7997 7996 7995 ] final  -96.05 input   59.86 | X-H torsion
[ 10167 10162 10161 10158 ] final  -28.68 input  -65.29 | X-H torsion
[ 10718 10713 10712 10709 ] final   15.96 input   66.30 | X-H torsion
[ 10763 10752 10751 10750 ] final -148.55 input  -60.55 | X-H torsion
[ 11005 11000 10999 10996 ] final -151.60 input  -57.11 | X-H torsion

> <Gold.Protein.ActiveResidues>
 VAL166  LYS551  ARG553  GLY616  TRP617  ASP618  TYR619  PRO620  LYS621  CYS622 
 ASP623  PHE694  ASN695  SER759  ASP760  ASP761  ALA762  ILE779  LEU786  VAL792 
 PHE793  MET794  SER795  GLU796  ALA797  LYS798  CYS799  TRP800  GLU811  SER814 

> <Gold.Protein.RotatedAtoms>
  151.0337  133.5768  159.2657 H   0  0  0  0  0  0  0  0  0  0  0  0  # atno 6907 bound_to 6896
  151.2840  135.0721  159.9189 H   0  0  0  0  0  0  0  0  0  0  0  0  # atno 6908 bound_to 6896
  152.5350  134.0046  159.7964 H   0  0  0  0  0  0  0  0  0  0  0  0  # atno 6909 bound_to 6896
  144.8324  140.5755  143.5506 H   0  0  0  0  0  0  0  0  0  0  0  0  # atno 7974 bound_to 7965
  154.7694  140.0474  157.1039 H   0  0  0  0  0  0  0  0  0  0  0  0  # atno 8008 bound_to 7997
  154.9839  140.3105  155.4915 H   0  0  0  0  0  0  0  0  0  0  0  0  # atno 8009 bound_to 7997
  156.2918  140.2231  156.4939 H   0  0  0  0  0  0  0  0  0  0  0  0  # atno 8010 bound_to 7997
  140.7268  143.3990  151.1297 H   0  0  0  0  0  0  0  0  0  0  0  0  # atno 10167 bound_to 10162
  157.0610  130.6308  149.5786 H   0  0  0  0  0  0  0  0  0  0  0  0  # atno 10718 bound_to 10713
  154.8226  135.3331  154.6992 H   0  0  0  0  0  0  0  0  0  0  0  0  # atno 10763 bound_to 10752
  153.7622  135.6931  153.4927 H   0  0  0  0  0  0  0  0  0  0  0  0  # atno 10764 bound_to 10752
  153.2102  135.4485  155.0320 H   0  0  0  0  0  0  0  0  0  0  0  0  # atno 10765 bound_to 10752
  140.7279  134.3654  157.5172 H   0  0  0  0  0  0  0  0  0  0  0  0  # atno 11005 bound_to 11000
  145.4868  139.1491  143.3731 LP  0  0  0  0  0  0  0  0  0  0  0  0  # atno 17320 bound_to 7965
  146.2625  140.5005  142.8847 LP  0  0  0  0  0  0  0  0  0  0  0  0  # atno 17321 bound_to 7965
  139.7607  143.8639  152.3099 LP  0  0  0  0  0  0  0  0  0  0  0  0  # atno 17342 bound_to 10162
  139.8524  144.7158  150.9198 LP  0  0  0  0  0  0  0  0  0  0  0  0  # atno 17343 bound_to 10162
  155.9978  130.5051  150.7549 LP  0  0  0  0  0  0  0  0  0  0  0  0  # atno 17370 bound_to 10713
  157.4955  131.0914  151.0377 LP  0  0  0  0  0  0  0  0  0  0  0  0  # atno 17371 bound_to 10713
  139.8833  134.8998  156.2775 LP  0  0  0  0  0  0  0  0  0  0  0  0  # atno 17394 bound_to 11000
  140.9947  133.7187  156.0867 LP  0  0  0  0  0  0  0  0  0  0  0  0  # atno 17395 bound_to 11000

$$$$
