AV-unprocessed.smi:1177|AV-procd|sdf|4955|dock2
  -GOLD-   22720 3543D 1   1.00000     0.00000
 Structure written by MMmdl.
 31 32  0  0  0  0  0  0  0  0  2 V2000
  147.2558  142.2931  159.8707 O   0  0  0  0  0  0  0  0  0  0  0  0
  147.3378  143.1454  158.9855 C   0  0  0  0  0  0  0  0  0  0  0  0
  147.8150  142.9021  157.7566 N   0  0  0  0  0  0  0  0  0  0  0  0
  148.3016  141.6073  157.2954 C   0  0  0  0  0  0  0  0  0  0  0  0
  149.7472  141.6976  156.7776 C   0  0  0  0  0  0  0  0  0  0  0  0
  150.6689  142.3826  157.7669 C   0  0  0  0  0  0  0  0  0  0  0  0
  151.4170  141.6615  158.7228 C   0  0  0  0  0  0  0  0  0  0  0  0
  152.2527  142.3643  159.6158 C   0  0  0  0  0  0  0  0  0  0  0  0
  152.3206  143.7708  159.5359 C   0  0  0  0  0  0  0  0  0  0  0  0
  151.5502  144.4404  158.5633 C   0  0  0  0  0  0  0  0  0  0  0  0
  150.7627  143.7316  157.7249 N   0  3  0  0  0  0  0  0  0  0  0  0
  146.9686  144.4247  159.1317 N   0  0  0  0  0  0  0  0  0  0  0  0
  146.4288  144.9980  160.3220 C   0  0  0  0  0  0  0  0  0  0  0  0
  147.0679  144.6141  161.6390 C   0  0  0  0  0  0  0  0  0  0  0  0
  145.7096  144.0761  161.2829 C   0  0  0  0  0  0  0  0  0  0  0  0
  147.8424  143.6643  157.0948 H   0  0  0  0  0  0  0  0  0  0  0  0
  148.2258  140.8756  158.1017 H   0  0  0  0  0  0  0  0  0  0  0  0
  147.6425  141.2609  156.4989 H   0  0  0  0  0  0  0  0  0  0  0  0
  150.1295  140.6984  156.5639 H   0  0  0  0  0  0  0  0  0  0  0  0
  149.7808  142.2462  155.8351 H   0  0  0  0  0  0  0  0  0  0  0  0
  151.3526  140.5842  158.7737 H   0  0  0  0  0  0  0  0  0  0  0  0
  152.8336  141.8310  160.3540 H   0  0  0  0  0  0  0  0  0  0  0  0
  152.9541  144.3276  160.2109 H   0  0  0  0  0  0  0  0  0  0  0  0
  151.5400  145.5125  158.4316 H   0  0  0  0  0  0  0  0  0  0  0  0
  147.0766  145.0431  158.3411 H   0  0  0  0  0  0  0  0  0  0  0  0
  146.0444  146.0152  160.2575 H   0  0  0  0  0  0  0  0  0  0  0  0
  147.9047  143.9183  161.6164 H   0  0  0  0  0  0  0  0  0  0  0  0
  147.1187  145.3775  162.4126 H   0  0  0  0  0  0  0  0  0  0  0  0
  144.8529  144.4804  161.8185 H   0  0  0  0  0  0  0  0  0  0  0  0
  145.6403  143.0215  161.0232 H   0  0  0  0  0  0  0  0  0  0  0  0
  150.2132  144.2364  157.0284 H   0  0  0  0  0  0  0  0  0  0  0  0
  1  2  2  0  0  0  0
  2  3  1  0  0  0  0
  2 12  1  0  0  0  0
  3  4  1  0  0  0  0
  3 16  1  0  0  0  0
  4  5  1  0  0  0  0
  4 17  1  0  0  0  0
  4 18  1  0  0  0  0
  5  6  1  0  0  0  0
  5 19  1  0  0  0  0
  5 20  1  0  0  0  0
  6 11  1  0  0  0  0
  6  7  2  0  0  0  0
  7  8  1  0  0  0  0
  7 21  1  0  0  0  0
  8  9  2  0  0  0  0
  8 22  1  0  0  0  0
  9 10  1  0  0  0  0
  9 23  1  0  0  0  0
 10 11  2  0  0  0  0
 10 24  1  0  0  0  0
 11 31  1  0  0  0  0
 12 13  1  0  0  0  0
 12 25  1  0  0  0  0
 13 15  1  0  0  0  0
 13 14  1  0  0  0  0
 13 26  1  0  0  0  0
 14 15  1  0  0  0  0
 14 27  1  0  0  0  0
 14 28  1  0  0  0  0
 15 29  1  0  0  0  0
 15 30  1  0  0  0  0
M  CHG  1  11   1
M  END
> <s_m_source_file>
AV-unprocessed.smi

> <i_m_source_file_index>
1177

> <i_lp_mmshare_version>
43012

> <i_f3d_flags>
0

> <s_epik_input>
W0NIMl0xW0NIMl1bQ0hdMVtOSF1DKD1PKVtOSF1bQ0gyXVtDSDJdYzJbY0hdW2NIXVtjSF1bY0hdbjI=

> <s_epik_cmdline>
J2VwaWtfcHl0aG9uJywgJy1waCcsICc3LjAnLCAnLXRuJywgJzgnLCAnLW1hJywgJzIwMCcsICctbWV0YWxfYmluZGluZycsICctaW1hZScsICc8aW5maWxlLm1hZT4nLCAnLW9tYWUnLCAnPG91dGZpbGUubWFlPic=

> <r_epik_Ionization_Penalty>
1.56288

> <r_epik_Ionization_Penalty_Charging>
1.56282

> <r_epik_Ionization_Penalty_Neutral>
5.89877e-05

> <r_epik_State_Penalty>
1.65797

> <r_epik_Charging_Adjusted_Penalty>
3.22079

> <i_epik_Tot_Q>
1

> <i_epik_Tot_abs_Q>
1

> <r_epik_Metal_State_Penalty>
1.69932

> <b_epik_Metal_Only>
0

> <s_lp_Force_Field>
OPLS_2005

> <r_lp_Energy>
17.5296

> <b_lp_Chiralities_Consistent>
1

> <s_lp_Variant>
AV-unprocessed.smi:1177-2

> <Gold.Version>
5.8.1

> <Gold.Id.Protein>
6NUR|6NUR_protein|mol2

> <Gold.PLP.Fitness>
43.2187

> <Gold.PLP.PLP>
-31.4223

> <Gold.PLP.part.hbond>
-5.6489

> <Gold.PLP.part.metal>
0.0000

> <Gold.PLP.part.buried>
-2.7537

> <Gold.PLP.part.nonpolar>
-24.2537

> <Gold.PLP.part.repulsive>
0.1325

> <Gold.PLP.ligand.clash>
0.0000

> <Gold.PLP.ligand.torsion>
0.6904

> <Gold.PLP.Chemscore.Hbond>
4.3769

> <Gold.PLP.Chemscore.CHOScore>
0.0000

> <Gold.PLP.Chemscore.Metal>
0.0000

> <Gold.Chemscore.Hbonds>
donor molecule, donor type, donor heavy atom, donor atom, acceptor molecule, acceptor atom, score
      L1  H     3    16       P1  8028  0.05
      L1  H    11    31       P1  8028  2.00
      L1  H    12    25       P1  8029  1.00
      P1  H  6933  6944       L1     1  0.53
      P1  H  6934  6946       L1     1  0.69

> <Gold.PLP.Chemscore.Internal.Correction>
0.0465

> <Gold.Rescore>
     Score         DG    S(hbond)    S(metal)    S(lipo)     H(rot)  DE(clash)    DE(int)     intcor
     19.42     -21.56       3.54        0.00      73.64       1.70       0.09       2.05       ----

> <Gold.Chemscore.Fitness>
19.4222

> <Gold.Chemscore.DG>
-21.5592

> <Gold.Chemscore.ZeroCoef>
-5.4800

> <Gold.Chemscore.Hbond>
3.5391

> <Gold.Chemscore.Metal>
0.0000

> <Gold.Chemscore.Lipo>
73.6365

> <Gold.Chemscore.Internal_Hbond>
0.0000

> <Gold.Chemscore.DEClash>
0.0901

> <Gold.Chemscore.DEInternal>
2.0469

> <Gold.Chemscore.Rot>
1.7019

> <Gold.Chemscore.Internal.Correction>
   9.000000E+99

> <Gold.Chemscore.Hbonds>
donor molecule, donor type, donor heavy atom, donor atom, acceptor molecule, acceptor atom, score
      L1  H    11    31       P1  8028  0.87
      L1  H    12    25       P1  8029  0.97
      P1  H  6933  6944       L1     1  0.50
      P1  H  6934  6946       L1     1  0.70

> <Gold.Chemscore.Hbond.Weighted>
-11.8205

> <Gold.Chemscore.Metal.Weighted>
-0.0000

> <Gold.Chemscore.Lipo.Weighted>
-8.6155

> <Gold.Chemscore.Internal_Hbond.Weighted>
0.0000

> <Gold.Chemscore.DEClash.Weighted>
0.0901

> <Gold.Chemscore.DEInternal.Weighted>
2.0469

> <Gold.Chemscore.Rot.Weighted>
4.3568

> <Gold.Chemscore.Internal.Correction.Weighted>
   9.000000E+99

> <Gold.Protein.RotatedTorsions>
[ 6907 6896 6895 6894 ] final  171.76 input  -60.11 | X-H torsion
[ 7974 7965 7964 7962 ] final  100.90 input  175.53 | X-H torsion
[ 8008 7997 7996 7995 ] final   87.30 input   59.86 | X-H torsion
[ 10167 10162 10161 10158 ] final   50.70 input  -65.29 | X-H torsion
[ 10718 10713 10712 10709 ] final  -59.95 input   66.30 | X-H torsion
[ 10763 10752 10751 10750 ] final  112.91 input  -60.55 | X-H torsion
[ 11005 11000 10999 10996 ] final   90.79 input  -57.11 | X-H torsion

> <Gold.Protein.ActiveResidues>
 VAL166  LYS551  ARG553  GLY616  TRP617  ASP618  TYR619  PRO620  LYS621  CYS622 
 ASP623  PHE694  ASN695  SER759  ASP760  ASP761  ALA762  ILE779  LEU786  VAL792 
 PHE793  MET794  SER795  GLU796  ALA797  LYS798  CYS799  TRP800  GLU811  SER814 

> <Gold.Protein.RotatedAtoms>
  151.7951  133.3363  159.3510 H   0  0  0  0  0  0  0  0  0  0  0  0  # atno 6907 bound_to 6896
  150.7378  134.5806  159.5946 H   0  0  0  0  0  0  0  0  0  0  0  0  # atno 6908 bound_to 6896
  152.3183  134.7414  160.0371 H   0  0  0  0  0  0  0  0  0  0  0  0  # atno 6909 bound_to 6896
  145.3794  139.2382  143.3411 H   0  0  0  0  0  0  0  0  0  0  0  0  # atno 7974 bound_to 7965
  155.9736  140.3383  155.6598 H   0  0  0  0  0  0  0  0  0  0  0  0  # atno 8008 bound_to 7997
  155.6642  140.0719  157.2561 H   0  0  0  0  0  0  0  0  0  0  0  0  # atno 8009 bound_to 7997
  154.4173  140.1703  156.1796 H   0  0  0  0  0  0  0  0  0  0  0  0  # atno 8010 bound_to 7997
  140.2696  144.3280  150.6294 H   0  0  0  0  0  0  0  0  0  0  0  0  # atno 10167 bound_to 10162
  156.1025  130.4184  150.0786 H   0  0  0  0  0  0  0  0  0  0  0  0  # atno 10718 bound_to 10713
  153.4848  135.3671  155.2461 H   0  0  0  0  0  0  0  0  0  0  0  0  # atno 10763 bound_to 10752
  154.8754  135.3963  154.3658 H   0  0  0  0  0  0  0  0  0  0  0  0  # atno 10764 bound_to 10752
  153.4267  135.7081  153.6323 H   0  0  0  0  0  0  0  0  0  0  0  0  # atno 10765 bound_to 10752
  139.8850  134.8635  156.3335 H   0  0  0  0  0  0  0  0  0  0  0  0  # atno 11005 bound_to 11000
  146.2849  140.4459  142.8762 LP  0  0  0  0  0  0  0  0  0  0  0  0  # atno 17320 bound_to 7965
  144.8518  140.7013  143.6163 LP  0  0  0  0  0  0  0  0  0  0  0  0  # atno 17321 bound_to 7965
  140.5900  143.2168  151.7270 LP  0  0  0  0  0  0  0  0  0  0  0  0  # atno 17342 bound_to 10162
  139.4992  144.3953  152.0237 LP  0  0  0  0  0  0  0  0  0  0  0  0  # atno 17343 bound_to 10162
  156.8769  130.9543  151.3603 LP  0  0  0  0  0  0  0  0  0  0  0  0  # atno 17370 bound_to 10713
  157.6198  130.8646  149.9089 LP  0  0  0  0  0  0  0  0  0  0  0  0  # atno 17371 bound_to 10713
  140.9707  133.7329  156.0530 LP  0  0  0  0  0  0  0  0  0  0  0  0  # atno 17394 bound_to 11000
  140.7875  134.3656  157.5473 LP  0  0  0  0  0  0  0  0  0  0  0  0  # atno 17395 bound_to 11000

$$$$
