AV-unprocessed.smi:1307|AV-procd|sdf|5436|dock2
  -GOLD-   22720 5 03D 1   1.00000     0.00000
 Structure written by MMmdl.
 41 41  0  0  0  0  0  0  0  0  1 V2000
  146.9811  139.7856  153.7349 C   0  0  0  0  0  0  0  0  0  0  0  0
  148.1821  140.6338  154.1917 C   0  0  0  0  0  0  0  0  0  0  0  0
  149.4379  139.7430  154.2688 C   0  0  0  0  0  0  0  0  0  0  0  0
  147.8998  141.3823  155.5231 C   0  0  2  0  0  0  0  0  0  0  0  0
  146.7411  142.3893  155.4226 C   0  0  0  0  0  0  0  0  0  0  0  0
  149.0884  142.1090  155.9703 N   0  0  0  0  0  0  0  0  0  0  0  0
  149.9046  141.7498  156.9733 C   0  0  0  0  0  0  0  0  0  0  0  0
  149.7426  140.7329  157.6495 O   0  0  0  0  0  0  0  0  0  0  0  0
  151.0995  142.6844  157.2250 C   0  0  0  0  0  0  0  0  0  0  0  0
  151.9588  142.2682  158.3620 N   0  0  0  0  0  0  0  0  0  0  0  0
  152.1678  143.1571  159.4630 C   0  0  0  0  0  0  0  0  0  0  0  0
  151.5401  144.5585  159.4327 C   0  0  0  0  0  0  0  0  0  0  0  0
  151.8538  145.2505  160.5290 F   0  0  0  0  0  0  0  0  0  0  0  0
  151.9686  145.2780  158.3958 F   0  0  0  0  0  0  0  0  0  0  0  0
  150.2096  144.4805  159.3926 F   0  0  0  0  0  0  0  0  0  0  0  0
  152.9391  142.7718  160.4962 C   0  0  0  0  0  0  0  0  0  0  0  0
  153.5450  141.4690  160.5005 C   0  0  0  0  0  0  0  0  0  0  0  0
  153.3625  140.6190  159.4647 C   0  0  0  0  0  0  0  0  0  0  0  0
  153.9657  139.2674  159.4238 C   0  0  0  0  0  0  0  0  0  0  0  0
  154.1747  138.7221  160.6289 N   0  0  0  0  0  0  0  0  0  0  0  0
  154.2828  138.6273  158.4212 O   0  0  0  0  0  0  0  0  0  0  0  0
  152.5252  141.0138  158.3027 C   0  0  0  0  0  0  0  0  0  0  0  0
  152.3269  140.2915  157.3208 O   0  0  0  0  0  0  0  0  0  0  0  0
  146.7000  139.0557  154.4947 H   0  0  0  0  0  0  0  0  0  0  0  0
  147.2121  139.2382  152.8205 H   0  0  0  0  0  0  0  0  0  0  0  0
  146.1075  140.3999  153.5203 H   0  0  0  0  0  0  0  0  0  0  0  0
  148.3663  141.3794  153.4170 H   0  0  0  0  0  0  0  0  0  0  0  0
  149.3532  139.0088  155.0705 H   0  0  0  0  0  0  0  0  0  0  0  0
  150.3410  140.3270  154.4462 H   0  0  0  0  0  0  0  0  0  0  0  0
  149.5927  139.1993  153.3364 H   0  0  0  0  0  0  0  0  0  0  0  0
  147.6194  140.6405  156.2728 H   0  0  0  0  0  0  0  0  0  0  0  0
  145.7920  141.8962  155.2158 H   0  0  0  0  0  0  0  0  0  0  0  0
  146.9180  143.1224  154.6349 H   0  0  0  0  0  0  0  0  0  0  0  0
  146.6156  142.9336  156.3595 H   0  0  0  0  0  0  0  0  0  0  0  0
  149.3096  142.9581  155.4710 H   0  0  0  0  0  0  0  0  0  0  0  0
  151.6516  142.7917  156.2960 H   0  0  0  0  0  0  0  0  0  0  0  0
  150.7145  143.6928  157.3890 H   0  0  0  0  0  0  0  0  0  0  0  0
  153.1195  143.4308  161.3324 H   0  0  0  0  0  0  0  0  0  0  0  0
  154.1435  141.2073  161.3604 H   0  0  0  0  0  0  0  0  0  0  0  0
  154.5773  137.7994  160.7041 H   0  0  0  0  0  0  0  0  0  0  0  0
  153.9220  139.2370  161.4599 H   0  0  0  0  0  0  0  0  0  0  0  0
  1  2  1  0  0  0  0
  1 24  1  0  0  0  0
  1 25  1  0  0  0  0
  1 26  1  0  0  0  0
  2  3  1  0  0  0  0
  2  4  1  0  0  0  0
  2 27  1  0  0  0  0
  3 28  1  0  0  0  0
  3 29  1  0  0  0  0
  3 30  1  0  0  0  0
  4  5  1  0  0  0  0
  4  6  1  0  0  0  0
  4 31  1  0  0  0  0
  5 32  1  0  0  0  0
  5 33  1  0  0  0  0
  5 34  1  0  0  0  0
  6  7  1  0  0  0  0
  6 35  1  0  0  0  0
  7  8  2  0  0  0  0
  7  9  1  0  0  0  0
  9 10  1  0  0  0  0
  9 36  1  0  0  0  0
  9 37  1  0  0  0  0
 10 22  1  0  0  0  0
 10 11  1  0  0  0  0
 11 12  1  0  0  0  0
 11 16  2  0  0  0  0
 12 13  1  0  0  0  0
 12 14  1  0  0  0  0
 12 15  1  0  0  0  0
 16 17  1  0  0  0  0
 16 38  1  0  0  0  0
 17 18  2  0  0  0  0
 17 39  1  0  0  0  0
 18 19  1  0  0  0  0
 18 22  1  0  0  0  0
 19 20  1  0  0  0  0
 19 21  2  0  0  0  0
 20 40  1  0  0  0  0
 20 41  1  0  0  0  0
 22 23  2  0  0  0  0
M  END
> <s_m_source_file>
AV-unprocessed.smi

> <i_m_source_file_index>
1307

> <i_lp_mmshare_version>
43012

> <i_f3d_flags>
0

> <s_epik_input>
W0NIM11bQ0hdKFtDSDNdKVtDQEhdKFtDSDNdKVtOSF1DKD1PKVtDSDJdbjFjKEMoRikoRilGKVtjSF1bY0hdYyhjMT1PKUMoPU8pW05IMl0=

> <s_epik_cmdline>
J2VwaWtfcHl0aG9uJywgJy1waCcsICc3LjAnLCAnLXRuJywgJzgnLCAnLW1hJywgJzIwMCcsICctbWV0YWxfYmluZGluZycsICctaW1hZScsICc8aW5maWxlLm1hZT4nLCAnLW9tYWUnLCAnPG91dGZpbGUubWFlPic=

> <r_lp_tautomer_probability>
1

> <r_epik_Ionization_Penalty>
2.05992e-06

> <r_epik_Ionization_Penalty_Charging>
8.21357e-10

> <r_epik_Ionization_Penalty_Neutral>
2.0591e-06

> <r_epik_State_Penalty>
-0

> <r_epik_Charging_Adjusted_Penalty>
8.21357e-10

> <i_epik_Tot_Q>
0

> <i_epik_Tot_abs_Q>
0

> <r_epik_Metal_State_Penalty>
-0

> <b_epik_Metal_Only>
0

> <s_lp_Force_Field>
OPLS_2005

> <r_lp_Energy>
26.4012

> <b_lp_Chiralities_Consistent>
1

> <s_lp_Variant>
AV-unprocessed.smi:1307-1

> <Gold.Version>
5.8.1

> <Gold.Id.Protein>
6NUR|6NUR_protein|mol2

> <Gold.PLP.Fitness>
52.2528

> <Gold.PLP.PLP>
-48.3049

> <Gold.PLP.part.hbond>
-2.9251

> <Gold.PLP.part.metal>
0.0000

> <Gold.PLP.part.buried>
-5.9969

> <Gold.PLP.part.nonpolar>
-39.4978

> <Gold.PLP.part.repulsive>
0.1349

> <Gold.PLP.ligand.clash>
3.9761

> <Gold.PLP.ligand.torsion>
0.5304

> <Gold.PLP.Chemscore.Hbond>
1.6400

> <Gold.PLP.Chemscore.CHOScore>
0.0000

> <Gold.PLP.Chemscore.Metal>
0.0000

> <Gold.Chemscore.Hbonds>
donor molecule, donor type, donor heavy atom, donor atom, acceptor molecule, acceptor atom, score
      L1  H     6    35       P1  8028  0.72
      P1  H  7997  8010       L1    21  1.00

> <Gold.PLP.Chemscore.Internal.Correction>
4.0648

> <Gold.Rescore>
     Score         DG    S(hbond)    S(metal)    S(lipo)     H(rot)  DE(clash)    DE(int)     intcor
      8.48     -17.11       1.96        0.00      86.74       1.97       0.65       7.99       ----

> <Gold.Chemscore.Fitness>
8.4784

> <Gold.Chemscore.DG>
-17.1135

> <Gold.Chemscore.ZeroCoef>
-5.4800

> <Gold.Chemscore.Hbond>
1.9561

> <Gold.Chemscore.Metal>
0.0000

> <Gold.Chemscore.Lipo>
86.7444

> <Gold.Chemscore.Internal_Hbond>
0.0000

> <Gold.Chemscore.DEClash>
0.6453

> <Gold.Chemscore.DEInternal>
7.9898

> <Gold.Chemscore.Rot>
1.9723

> <Gold.Chemscore.Internal.Correction>
   9.000000E+99

> <Gold.Chemscore.Hbonds>
donor molecule, donor type, donor heavy atom, donor atom, acceptor molecule, acceptor atom, score
      L1  H     6    35       P1  8028  0.72
      P1  H  7997  8010       L1    21  0.39

> <Gold.Chemscore.Hbond.Weighted>
-6.5334

> <Gold.Chemscore.Metal.Weighted>
-0.0000

> <Gold.Chemscore.Lipo.Weighted>
-10.1491

> <Gold.Chemscore.Internal_Hbond.Weighted>
0.0000

> <Gold.Chemscore.DEClash.Weighted>
0.6453

> <Gold.Chemscore.DEInternal.Weighted>
7.9898

> <Gold.Chemscore.Rot.Weighted>
5.0490

> <Gold.Chemscore.Internal.Correction.Weighted>
   9.000000E+99

> <Gold.Protein.RotatedTorsions>
[ 6907 6896 6895 6894 ] final -133.08 input  -60.11 | X-H torsion
[ 7974 7965 7964 7962 ] final  -99.50 input  175.53 | X-H torsion
[ 8008 7997 7996 7995 ] final   22.57 input   59.86 | X-H torsion
[ 10167 10162 10161 10158 ] final   82.41 input  -65.29 | X-H torsion
[ 10718 10713 10712 10709 ] final -117.60 input   66.30 | X-H torsion
[ 10763 10752 10751 10750 ] final   92.16 input  -60.55 | X-H torsion
[ 11005 11000 10999 10996 ] final  108.61 input  -57.11 | X-H torsion

> <Gold.Protein.ActiveResidues>
 VAL166  LYS551  ARG553  GLY616  TRP617  ASP618  TYR619  PRO620  LYS621  CYS622 
 ASP623  PHE694  ASN695  SER759  ASP760  ASP761  ALA762  ILE779  LEU786  VAL792 
 PHE793  MET794  SER795  GLU796  ALA797  LYS798  CYS799  TRP800  GLU811  SER814 

> <Gold.Protein.RotatedAtoms>
  150.9698  133.6355  159.2739 H   0  0  0  0  0  0  0  0  0  0  0  0  # atno 6907 bound_to 6896
  151.3648  135.0910  159.9456 H   0  0  0  0  0  0  0  0  0  0  0  0  # atno 6908 bound_to 6896
  152.5179  133.9265  159.7614 H   0  0  0  0  0  0  0  0  0  0  0  0  # atno 6909 bound_to 6896
  145.3068  140.9391  143.2792 H   0  0  0  0  0  0  0  0  0  0  0  0  # atno 7974 bound_to 7965
  154.9677  140.3086  155.5002 H   0  0  0  0  0  0  0  0  0  0  0  0  # atno 8008 bound_to 7997
  156.2969  140.2289  156.4706 H   0  0  0  0  0  0  0  0  0  0  0  0  # atno 8009 bound_to 7997
  154.7905  140.0440  157.1186 H   0  0  0  0  0  0  0  0  0  0  0  0  # atno 8010 bound_to 7997
  139.9291  144.6163  150.8363 H   0  0  0  0  0  0  0  0  0  0  0  0  # atno 10167 bound_to 10162
  156.1046  130.6199  150.9185 H   0  0  0  0  0  0  0  0  0  0  0  0  # atno 10718 bound_to 10713
  153.2162  135.4371  155.0436 H   0  0  0  0  0  0  0  0  0  0  0  0  # atno 10763 bound_to 10752
  154.8226  135.3345  154.6996 H   0  0  0  0  0  0  0  0  0  0  0  0  # atno 10764 bound_to 10752
  153.7430  135.7003  153.5018 H   0  0  0  0  0  0  0  0  0  0  0  0  # atno 10765 bound_to 10752
  139.8847  134.9435  156.5998 H   0  0  0  0  0  0  0  0  0  0  0  0  # atno 11005 bound_to 11000
  144.9048  139.4603  143.6615 LP  0  0  0  0  0  0  0  0  0  0  0  0  # atno 17320 bound_to 7965
  146.3132  139.7823  142.9003 LP  0  0  0  0  0  0  0  0  0  0  0  0  # atno 17321 bound_to 7965
  140.7642  143.3243  151.2552 LP  0  0  0  0  0  0  0  0  0  0  0  0  # atno 17342 bound_to 10162
  139.6797  143.9876  152.2801 LP  0  0  0  0  0  0  0  0  0  0  0  0  # atno 17343 bound_to 10162
  157.6221  131.0929  150.8603 LP  0  0  0  0  0  0  0  0  0  0  0  0  # atno 17370 bound_to 10713
  156.8725  130.5151  149.5296 LP  0  0  0  0  0  0  0  0  0  0  0  0  # atno 17371 bound_to 10713
  140.7892  133.8596  155.8632 LP  0  0  0  0  0  0  0  0  0  0  0  0  # atno 17394 bound_to 11000
  140.9692  134.1553  157.4590 LP  0  0  0  0  0  0  0  0  0  0  0  0  # atno 17395 bound_to 11000

$$$$
