AV-unprocessed.smi:1723|AV-procd|sdf|6947|dock8
  -GOLD-   22720 8153D 1   1.00000     0.00000
 Structure written by MMmdl.
 37 37  0  0  0  0  0  0  0  0  2 V2000
  155.2735  134.5600  164.4037 C   0  0  0  0  0  0  0  0  0  0  0  0
  154.0701  135.5090  164.3832 C   0  0  0  0  0  0  0  0  0  0  0  0
  154.3761  136.8339  163.6678 C   0  0  0  0  0  0  0  0  0  0  0  0
  155.4698  137.6503  164.3670 C   0  0  0  0  0  0  0  0  0  0  0  0
  155.2759  139.0308  164.0795 O   0  0  0  0  0  0  0  0  0  0  0  0
  155.7801  139.4695  162.8208 C   0  0  2  0  0  0  0  0  0  0  0  0
  157.2053  139.9931  163.0511 C   0  0  0  0  0  0  0  0  0  0  0  0
  154.8720  140.5636  162.2362 C   0  0  0  0  0  0  0  0  0  0  0  0
  154.6972  141.6034  162.8709 O   0  0  0  0  0  0  0  0  0  0  0  0
  154.3027  140.2658  161.0515 N   0  0  0  0  0  0  0  0  0  0  0  0
  153.4313  141.0251  160.2513 C   0  0  0  0  0  0  0  0  0  0  0  0
  152.9156  142.2401  160.5889 C   0  0  0  0  0  0  0  0  0  0  0  0
  152.0202  142.9802  159.7088 C   0  0  0  0  0  0  0  0  0  0  0  0
  151.4899  144.3681  160.0230 C   0  0  0  0  0  0  0  0  0  0  0  0
  151.8268  144.7448  161.2568 F   0  0  0  0  0  0  0  0  0  0  0  0
  151.9977  145.2518  159.1652 F   0  0  0  0  0  0  0  0  0  0  0  0
  150.1613  144.4058  159.9199 F   0  0  0  0  0  0  0  0  0  0  0  0
  151.7972  142.3227  158.5147 C   0  0  0  0  0  0  0  0  0  0  0  0
  152.2590  141.1205  158.1067 N   0  5  0  0  0  0  0  0  0  0  0  0
  153.0884  140.4330  158.9414 C   0  0  0  0  0  0  0  0  0  0  0  0
  153.5532  139.3365  158.6272 O   0  0  0  0  0  0  0  0  0  0  0  0
  155.0267  133.6309  164.9175 H   0  0  0  0  0  0  0  0  0  0  0  0
  156.1215  135.0105  164.9201 H   0  0  0  0  0  0  0  0  0  0  0  0
  155.5926  134.3060  163.3927 H   0  0  0  0  0  0  0  0  0  0  0  0
  153.2308  135.0139  163.8936 H   0  0  0  0  0  0  0  0  0  0  0  0
  153.7541  135.7084  165.4078 H   0  0  0  0  0  0  0  0  0  0  0  0
  154.6698  136.6403  162.6354 H   0  0  0  0  0  0  0  0  0  0  0  0
  153.4655  137.4322  163.6209 H   0  0  0  0  0  0  0  0  0  0  0  0
  155.4122  137.4925  165.4448 H   0  0  0  0  0  0  0  0  0  0  0  0
  156.4513  137.3043  164.0407 H   0  0  0  0  0  0  0  0  0  0  0  0
  155.8334  138.6211  162.1358 H   0  0  0  0  0  0  0  0  0  0  0  0
  157.6447  140.3661  162.1251 H   0  0  0  0  0  0  0  0  0  0  0  0
  157.8520  139.1995  163.4260 H   0  0  0  0  0  0  0  0  0  0  0  0
  157.2227  140.8030  163.7815 H   0  0  0  0  0  0  0  0  0  0  0  0
  154.5014  139.3464  160.6836 H   0  0  0  0  0  0  0  0  0  0  0  0
  153.1622  142.7088  161.5264 H   0  0  0  0  0  0  0  0  0  0  0  0
  151.1532  142.8421  157.7733 H   0  0  0  0  0  0  0  0  0  0  0  0
  1  2  1  0  0  0  0
  1 22  1  0  0  0  0
  1 23  1  0  0  0  0
  1 24  1  0  0  0  0
  2  3  1  0  0  0  0
  2 25  1  0  0  0  0
  2 26  1  0  0  0  0
  3  4  1  0  0  0  0
  3 27  1  0  0  0  0
  3 28  1  0  0  0  0
  4  5  1  0  0  0  0
  4 29  1  0  0  0  0
  4 30  1  0  0  0  0
  5  6  1  0  0  0  0
  6  7  1  0  0  0  0
  6  8  1  0  0  0  0
  6 31  1  0  0  0  0
  7 32  1  0  0  0  0
  7 33  1  0  0  0  0
  7 34  1  0  0  0  0
  8  9  2  0  0  0  0
  8 10  1  0  0  0  0
 10 11  1  0  0  0  0
 10 35  1  0  0  0  0
 11 20  1  0  0  0  0
 11 12  2  0  0  0  0
 12 13  1  0  0  0  0
 12 36  1  0  0  0  0
 13 14  1  0  0  0  0
 13 18  2  0  0  0  0
 14 15  1  0  0  0  0
 14 16  1  0  0  0  0
 14 17  1  0  0  0  0
 18 19  1  0  0  0  0
 18 37  1  0  0  0  0
 19 20  1  0  0  0  0
 20 21  2  0  0  0  0
M  CHG  1  19  -1
M  END
> <s_m_source_file>
AV-unprocessed.smi

> <i_m_source_file_index>
1723

> <i_lp_mmshare_version>
43012

> <i_f3d_flags>
0

> <s_epik_input>
W0NIM11bQ0gyXVtDSDJdW0NIMl1PW0NASF0oW0NIM10pQyg9TylbTkhdYzFbY0hdYyhDKEYpKEYpRilbY0hdW25IXWMxPU8=

> <s_epik_cmdline>
J2VwaWtfcHl0aG9uJywgJy1waCcsICc3LjAnLCAnLXRuJywgJzgnLCAnLW1hJywgJzIwMCcsICctbWV0YWxfYmluZGluZycsICctaW1hZScsICc8aW5maWxlLm1hZT4nLCAnLW9tYWUnLCAnPG91dGZpbGUubWFlPic=

> <r_lp_tautomer_probability>
0.999

> <r_epik_Ionization_Penalty>
2.64397

> <r_epik_Ionization_Penalty_Charging>
0.0618254

> <r_epik_Ionization_Penalty_Neutral>
2.58215

> <r_epik_State_Penalty>
2.58023

> <r_epik_Charging_Adjusted_Penalty>
2.64205

> <i_epik_Tot_Q>
-1

> <i_epik_Tot_abs_Q>
1

> <r_epik_Metal_State_Penalty>
0.429101

> <b_epik_Metal_Only>
1

> <s_lp_Force_Field>
OPLS_2005

> <r_lp_Energy>
21.4098

> <b_lp_Chiralities_Consistent>
1

> <s_lp_Variant>
AV-unprocessed.smi:1723-3

> <Gold.Version>
5.8.1

> <Gold.Id.Protein>
6NUR|6NUR_protein|mol2

> <Gold.PLP.Fitness>
44.8598

> <Gold.PLP.PLP>
-44.1994

> <Gold.PLP.part.hbond>
-2.0000

> <Gold.PLP.part.metal>
0.0000

> <Gold.PLP.part.buried>
-1.7657

> <Gold.PLP.part.nonpolar>
-39.3587

> <Gold.PLP.part.repulsive>
0.0191

> <Gold.PLP.ligand.clash>
0.0000

> <Gold.PLP.ligand.torsion>
0.8031

> <Gold.PLP.Chemscore.Hbond>
0.7000

> <Gold.PLP.Chemscore.CHOScore>
0.0000

> <Gold.PLP.Chemscore.Metal>
0.0000

> <Gold.Chemscore.Hbonds>
donor molecule, donor type, donor heavy atom, donor atom, acceptor molecule, acceptor atom, score
      P1  H  7997  8008       L1    21  0.69

> <Gold.PLP.Chemscore.Internal.Correction>
0.1665

> <Gold.Rescore>
     Score         DG    S(hbond)    S(metal)    S(lipo)     H(rot)  DE(clash)    DE(int)     intcor
      9.60     -13.54       0.95        0.00      84.52       1.95       2.03       1.91       ----

> <Gold.Chemscore.Fitness>
9.6038

> <Gold.Chemscore.DG>
-13.5366

> <Gold.Chemscore.ZeroCoef>
-5.4800

> <Gold.Chemscore.Hbond>
0.9467

> <Gold.Chemscore.Metal>
0.0000

> <Gold.Chemscore.Lipo>
84.5170

> <Gold.Chemscore.Internal_Hbond>
0.0000

> <Gold.Chemscore.DEClash>
2.0262

> <Gold.Chemscore.DEInternal>
1.9066

> <Gold.Chemscore.Rot>
1.9507

> <Gold.Chemscore.Internal.Correction>
   9.000000E+99

> <Gold.Chemscore.Hbonds>
donor molecule, donor type, donor heavy atom, donor atom, acceptor molecule, acceptor atom, score
      P1  H  7997  8008       L1    21  0.08

> <Gold.Chemscore.Hbond.Weighted>
-3.1620

> <Gold.Chemscore.Metal.Weighted>
-0.0000

> <Gold.Chemscore.Lipo.Weighted>
-9.8885

> <Gold.Chemscore.Internal_Hbond.Weighted>
0.0000

> <Gold.Chemscore.DEClash.Weighted>
2.0262

> <Gold.Chemscore.DEInternal.Weighted>
1.9066

> <Gold.Chemscore.Rot.Weighted>
4.9939

> <Gold.Chemscore.Internal.Correction.Weighted>
   9.000000E+99

> <Gold.Protein.RotatedTorsions>
[ 6907 6896 6895 6894 ] final   86.45 input  -60.11 | X-H torsion
[ 7974 7965 7964 7962 ] final  -48.31 input  175.53 | X-H torsion
[ 8008 7997 7996 7995 ] final  -79.34 input   59.86 | X-H torsion
[ 10167 10162 10161 10158 ] final  -23.31 input  -65.29 | X-H torsion
[ 10718 10713 10712 10709 ] final   16.90 input   66.30 | X-H torsion
[ 10763 10752 10751 10750 ] final -123.15 input  -60.55 | X-H torsion
[ 11005 11000 10999 10996 ] final -125.37 input  -57.11 | X-H torsion

> <Gold.Protein.ActiveResidues>
 VAL166  LYS551  ARG553  GLY616  TRP617  ASP618  TYR619  PRO620  LYS621  CYS622 
 ASP623  PHE694  ASN695  SER759  ASP760  ASP761  ALA762  ILE779  LEU786  VAL792 
 PHE793  MET794  SER795  GLU796  ALA797  LYS798  CYS799  TRP800  GLU811  SER814 

> <Gold.Protein.RotatedAtoms>
  152.5394  134.2429  159.8868 H   0  0  0  0  0  0  0  0  0  0  0  0  # atno 6907 bound_to 6896
  151.2395  133.4400  159.2614 H   0  0  0  0  0  0  0  0  0  0  0  0  # atno 6908 bound_to 6896
  151.0640  134.9769  159.8331 H   0  0  0  0  0  0  0  0  0  0  0  0  # atno 6909 bound_to 6896
  145.9525  140.7559  142.9498 H   0  0  0  0  0  0  0  0  0  0  0  0  # atno 7974 bound_to 7965
  154.5776  140.0680  156.9057 H   0  0  0  0  0  0  0  0  0  0  0  0  # atno 8008 bound_to 7997
  155.2521  140.3352  155.4263 H   0  0  0  0  0  0  0  0  0  0  0  0  # atno 8009 bound_to 7997
  156.2165  140.1781  156.7561 H   0  0  0  0  0  0  0  0  0  0  0  0  # atno 8010 bound_to 7997
  140.7288  143.4455  151.0594 H   0  0  0  0  0  0  0  0  0  0  0  0  # atno 10167 bound_to 10162
  157.0744  130.6361  149.5812 H   0  0  0  0  0  0  0  0  0  0  0  0  # atno 10718 bound_to 10713
  154.8702  135.4108  154.2896 H   0  0  0  0  0  0  0  0  0  0  0  0  # atno 10763 bound_to 10752
  153.3774  135.7010  153.6596 H   0  0  0  0  0  0  0  0  0  0  0  0  # atno 10764 bound_to 10752
  153.5433  135.3643  155.2699 H   0  0  0  0  0  0  0  0  0  0  0  0  # atno 10765 bound_to 10752
  140.9767  134.0730  157.3810 H   0  0  0  0  0  0  0  0  0  0  0  0  # atno 11005 bound_to 11000
  144.6798  140.2457  143.7338 LP  0  0  0  0  0  0  0  0  0  0  0  0  # atno 17320 bound_to 7965
  145.8152  139.2020  143.1970 LP  0  0  0  0  0  0  0  0  0  0  0  0  # atno 17321 bound_to 7965
  139.8126  143.7930  152.3172 LP  0  0  0  0  0  0  0  0  0  0  0  0  # atno 17342 bound_to 10162
  139.7985  144.7383  150.9857 LP  0  0  0  0  0  0  0  0  0  0  0  0  # atno 17343 bound_to 10162
  155.9941  130.5004  150.7407 LP  0  0  0  0  0  0  0  0  0  0  0  0  # atno 17370 bound_to 10713
  157.4851  131.0906  151.0491 LP  0  0  0  0  0  0  0  0  0  0  0  0  # atno 17371 bound_to 10713
  139.8933  135.0130  156.6894 LP  0  0  0  0  0  0  0  0  0  0  0  0  # atno 17394 bound_to 11000
  140.7248  133.9110  155.8171 LP  0  0  0  0  0  0  0  0  0  0  0  0  # atno 17395 bound_to 11000

$$$$
