AV-unprocessed.smi:1686|AV-procd|sdf|6765|dock2
  -GOLD-   22720 7523D 1   1.00000     0.00000
 Structure written by MMmdl.
 41 43  0  0  0  0  0  0  0  0  1 V2000
  149.5470  138.3772  157.8643 C   0  0  0  0  0  0  0  0  0  0  0  0
  150.8344  137.8027  158.3813 C   0  0  0  0  0  0  0  0  0  0  0  0
  150.8884  137.3608  159.6310 N   0  0  0  0  0  0  0  0  0  0  0  0
  152.1951  136.9007  159.8307 O   0  0  0  0  0  0  0  0  0  0  0  0
  152.8642  137.0927  158.6709 C   0  0  0  0  0  0  0  0  0  0  0  0
  154.5196  136.6687  158.4824 Cl  0  0  0  0  0  0  0  0  0  0  0  0
  152.0801  137.6516  157.7033 C   0  0  0  0  0  0  0  0  0  0  0  0
  152.4322  138.0251  156.2832 C   0  0  0  0  0  0  0  0  0  0  0  0
  151.8710  139.3991  155.8984 C   0  0  0  0  0  0  0  0  0  0  0  0
  151.5519  139.6566  154.7363 O   0  0  0  0  0  0  0  0  0  0  0  0
  151.7671  140.2814  156.9045 N   0  0  0  0  0  0  0  0  0  0  0  0
  151.2819  141.6572  156.8024 C   0  0  1  0  0  0  0  0  0  0  0  0
  150.0549  141.6771  155.8780 C   0  0  0  0  0  0  0  0  0  0  0  0
  150.9682  142.2053  158.2161 C   0  0  1  0  0  0  0  0  0  0  0  0
  152.1268  142.0912  159.2347 C   0  0  0  0  0  0  0  0  0  0  0  0
  152.1981  143.5050  159.8404 C   0  0  1  0  0  0  0  0  0  0  0  0
  152.8265  144.4601  158.8094 C   0  0  0  0  0  0  0  0  0  0  0  0
  151.7028  144.6200  157.7692 C   0  0  0  0  0  0  0  0  0  0  0  0
  150.5911  143.7044  158.3219 C   0  0  2  0  0  0  0  0  0  0  0  0
  150.7369  143.9387  159.8224 C   0  0  0  0  0  0  0  0  0  0  0  0
  149.6812  138.8439  156.8885 H   0  0  0  0  0  0  0  0  0  0  0  0
  149.1574  139.1392  158.5397 H   0  0  0  0  0  0  0  0  0  0  0  0
  148.7871  137.6026  157.7608 H   0  0  0  0  0  0  0  0  0  0  0  0
  153.5130  138.0416  156.1388 H   0  0  0  0  0  0  0  0  0  0  0  0
  152.0466  137.2864  155.5798 H   0  0  0  0  0  0  0  0  0  0  0  0
  152.0552  139.9758  157.8228 H   0  0  0  0  0  0  0  0  0  0  0  0
  152.0504  142.2772  156.3407 H   0  0  0  0  0  0  0  0  0  0  0  0
  149.6963  142.6936  155.7161 H   0  0  0  0  0  0  0  0  0  0  0  0
  149.2324  141.0954  156.2953 H   0  0  0  0  0  0  0  0  0  0  0  0
  150.2957  141.2604  154.8994 H   0  0  0  0  0  0  0  0  0  0  0  0
  150.1239  141.6340  158.6076 H   0  0  0  0  0  0  0  0  0  0  0  0
  151.8932  141.3472  159.9970 H   0  0  0  0  0  0  0  0  0  0  0  0
  153.0749  141.8068  158.7771 H   0  0  0  0  0  0  0  0  0  0  0  0
  152.6799  143.5389  160.8180 H   0  0  0  0  0  0  0  0  0  0  0  0
  153.0684  145.4216  159.2640 H   0  0  0  0  0  0  0  0  0  0  0  0
  153.7416  144.0565  158.3744 H   0  0  0  0  0  0  0  0  0  0  0  0
  151.3614  145.6556  157.7419 H   0  0  0  0  0  0  0  0  0  0  0  0
  152.0189  144.3603  156.7598 H   0  0  0  0  0  0  0  0  0  0  0  0
  149.6009  143.9345  157.9278 H   0  0  0  0  0  0  0  0  0  0  0  0
  150.0890  143.3027  160.4282 H   0  0  0  0  0  0  0  0  0  0  0  0
  150.5911  144.9799  160.1161 H   0  0  0  0  0  0  0  0  0  0  0  0
  1  2  1  0  0  0  0
  1 21  1  0  0  0  0
  1 22  1  0  0  0  0
  1 23  1  0  0  0  0
  2  7  1  0  0  0  0
  2  3  2  0  0  0  0
  3  4  1  0  0  0  0
  4  5  1  0  0  0  0
  5  6  1  0  0  0  0
  5  7  2  0  0  0  0
  7  8  1  0  0  0  0
  8  9  1  0  0  0  0
  8 24  1  0  0  0  0
  8 25  1  0  0  0  0
  9 10  2  0  0  0  0
  9 11  1  0  0  0  0
 11 12  1  0  0  0  0
 11 26  1  0  0  0  0
 12 13  1  0  0  0  0
 12 14  1  0  0  0  0
 12 27  1  0  0  0  0
 13 28  1  0  0  0  0
 13 29  1  0  0  0  0
 13 30  1  0  0  0  0
 14 19  1  0  0  0  0
 14 15  1  0  0  0  0
 14 31  1  0  0  0  0
 15 16  1  0  0  0  0
 15 32  1  0  0  0  0
 15 33  1  0  0  0  0
 16 20  1  0  0  0  0
 16 17  1  0  0  0  0
 16 34  1  0  0  0  0
 17 18  1  0  0  0  0
 17 35  1  0  0  0  0
 17 36  1  0  0  0  0
 18 19  1  0  0  0  0
 18 37  1  0  0  0  0
 18 38  1  0  0  0  0
 19 20  1  0  0  0  0
 19 39  1  0  0  0  0
 20 40  1  0  0  0  0
 20 41  1  0  0  0  0
M  END
> <s_m_source_file>
AV-unprocessed.smi

> <i_m_source_file_index>
1686

> <i_lp_mmshare_version>
43012

> <i_f3d_flags>
0

> <s_epik_input>
W0NIM11jMW5vYyhDbCljMVtDSDJdQyg9TylbTkhdW0NASF0oW0NIM10pW0NASF0oW0NIMl1bQ0BIXTIzKVtDQEhdKFtDSDJdMylbQ0gyXVtDSDJdMg==

> <s_epik_cmdline>
J2VwaWtfcHl0aG9uJywgJy1waCcsICc3LjAnLCAnLXRuJywgJzgnLCAnLW1hJywgJzIwMCcsICctbWV0YWxfYmluZGluZycsICctaW1hZScsICc8aW5maWxlLm1hZT4nLCAnLW9tYWUnLCAnPG91dGZpbGUubWFlPic=

> <r_lp_tautomer_probability>
1

> <r_epik_Ionization_Penalty>
2.01576e-08

> <r_epik_Ionization_Penalty_Charging>
0

> <r_epik_Ionization_Penalty_Neutral>
2.01576e-08

> <r_epik_State_Penalty>
-0

> <r_epik_Charging_Adjusted_Penalty>
0

> <i_epik_Tot_Q>
0

> <i_epik_Tot_abs_Q>
0

> <r_epik_Metal_State_Penalty>
-0

> <b_epik_Metal_Only>
0

> <s_lp_Force_Field>
OPLS_2005

> <r_lp_Energy>
47.064

> <b_lp_Chiralities_Consistent>
1

> <s_lp_Variant>
AV-unprocessed.smi:1686-8

> <Gold.Version>
5.8.1

> <Gold.Id.Protein>
6NUR|6NUR_protein|mol2

> <Gold.PLP.Fitness>
40.3281

> <Gold.PLP.PLP>
-35.9898

> <Gold.PLP.part.hbond>
-2.2652

> <Gold.PLP.part.metal>
0.0000

> <Gold.PLP.part.buried>
-6.4319

> <Gold.PLP.part.nonpolar>
-27.1760

> <Gold.PLP.part.repulsive>
0.1811

> <Gold.PLP.ligand.clash>
0.0000

> <Gold.PLP.ligand.torsion>
0.8456

> <Gold.PLP.Chemscore.Hbond>
2.0000

> <Gold.PLP.Chemscore.CHOScore>
0.0000

> <Gold.PLP.Chemscore.Metal>
0.0000

> <Gold.Chemscore.Hbonds>
donor molecule, donor type, donor heavy atom, donor atom, acceptor molecule, acceptor atom, score
      P1  H  6896  6909       L1     4  0.95
      P1  H  7989  7998       L1    10  1.00

> <Gold.PLP.Chemscore.Internal.Correction>
0.0295

> <Gold.Rescore>
     Score         DG    S(hbond)    S(metal)    S(lipo)     H(rot)  DE(clash)    DE(int)     intcor
     18.44     -20.52       1.75        0.00     110.53       1.46       0.06       2.01       ----

> <Gold.Chemscore.Fitness>
18.4405

> <Gold.Chemscore.DG>
-20.5161

> <Gold.Chemscore.ZeroCoef>
-5.4800

> <Gold.Chemscore.Hbond>
1.7528

> <Gold.Chemscore.Metal>
0.0000

> <Gold.Chemscore.Lipo>
110.5275

> <Gold.Chemscore.Internal_Hbond>
0.0000

> <Gold.Chemscore.DEClash>
0.0641

> <Gold.Chemscore.DEInternal>
2.0114

> <Gold.Chemscore.Rot>
1.4648

> <Gold.Chemscore.Internal.Correction>
   9.000000E+99

> <Gold.Chemscore.Hbonds>
donor molecule, donor type, donor heavy atom, donor atom, acceptor molecule, acceptor atom, score
      P1  H  6896  6909       L1     4  0.16
      P1  H  7989  7998       L1    10  0.99

> <Gold.Chemscore.Hbond.Weighted>
-5.8543

> <Gold.Chemscore.Metal.Weighted>
-0.0000

> <Gold.Chemscore.Lipo.Weighted>
-12.9317

> <Gold.Chemscore.Internal_Hbond.Weighted>
0.0000

> <Gold.Chemscore.DEClash.Weighted>
0.0641

> <Gold.Chemscore.DEInternal.Weighted>
2.0114

> <Gold.Chemscore.Rot.Weighted>
3.7500

> <Gold.Chemscore.Internal.Correction.Weighted>
   9.000000E+99

> <Gold.Protein.RotatedTorsions>
[ 6907 6896 6895 6894 ] final  135.50 input  -60.11 | X-H torsion
[ 7974 7965 7964 7962 ] final   50.69 input  175.53 | X-H torsion
[ 8008 7997 7996 7995 ] final   62.76 input   59.86 | X-H torsion
[ 10167 10162 10161 10158 ] final   19.33 input  -65.29 | X-H torsion
[ 10718 10713 10712 10709 ] final  -38.73 input   66.30 | X-H torsion
[ 10763 10752 10751 10750 ] final   58.15 input  -60.55 | X-H torsion
[ 11005 11000 10999 10996 ] final  172.76 input  -57.11 | X-H torsion

> <Gold.Protein.ActiveResidues>
 VAL166  LYS551  ARG553  GLY616  TRP617  ASP618  TYR619  PRO620  LYS621  CYS622 
 ASP623  PHE694  ASN695  SER759  ASP760  ASP761  ALA762  ILE779  LEU786  VAL792 
 PHE793  MET794  SER795  GLU796  ALA797  LYS798  CYS799  TRP800  GLU811  SER814 

> <Gold.Protein.RotatedAtoms>
  152.2997  133.5643  159.5610 H   0  0  0  0  0  0  0  0  0  0  0  0  # atno 6907 bound_to 6896
  150.7272  134.0309  159.3742 H   0  0  0  0  0  0  0  0  0  0  0  0  # atno 6908 bound_to 6896
  151.8210  135.0652  160.0476 H   0  0  0  0  0  0  0  0  0  0  0  0  # atno 6909 bound_to 6896
  145.9987  139.4416  143.0028 H   0  0  0  0  0  0  0  0  0  0  0  0  # atno 7974 bound_to 7965
  155.6194  140.3495  155.4647 H   0  0  0  0  0  0  0  0  0  0  0  0  # atno 8008 bound_to 7997
  156.0091  140.1229  157.0496 H   0  0  0  0  0  0  0  0  0  0  0  0  # atno 8009 bound_to 7997
  154.4274  140.1085  156.5790 H   0  0  0  0  0  0  0  0  0  0  0  0  # atno 8010 bound_to 7997
  140.5587  143.9377  150.6627 H   0  0  0  0  0  0  0  0  0  0  0  0  # atno 10167 bound_to 10162
  156.3004  130.4239  149.8148 H   0  0  0  0  0  0  0  0  0  0  0  0  # atno 10718 bound_to 10713
  152.9865  135.5616  154.5506 H   0  0  0  0  0  0  0  0  0  0  0  0  # atno 10763 bound_to 10752
  154.4944  135.2794  155.1473 H   0  0  0  0  0  0  0  0  0  0  0  0  # atno 10764 bound_to 10752
  154.2929  135.6322  153.5446 H   0  0  0  0  0  0  0  0  0  0  0  0  # atno 10765 bound_to 10752
  140.3332  134.7339  157.4149 H   0  0  0  0  0  0  0  0  0  0  0  0  # atno 11005 bound_to 11000
  145.7521  140.9968  143.1245 LP  0  0  0  0  0  0  0  0  0  0  0  0  # atno 17320 bound_to 7965
  144.6912  139.9227  143.7468 LP  0  0  0  0  0  0  0  0  0  0  0  0  # atno 17321 bound_to 7965
  140.2822  143.3381  152.1141 LP  0  0  0  0  0  0  0  0  0  0  0  0  # atno 17342 bound_to 10162
  139.5060  144.6805  151.6020 LP  0  0  0  0  0  0  0  0  0  0  0  0  # atno 17343 bound_to 10162
  156.5529  130.8349  151.3305 LP  0  0  0  0  0  0  0  0  0  0  0  0  # atno 17370 bound_to 10713
  157.7366  130.9782  150.2148 LP  0  0  0  0  0  0  0  0  0  0  0  0  # atno 17371 bound_to 10713
  140.0843  134.5688  155.8508 LP  0  0  0  0  0  0  0  0  0  0  0  0  # atno 17394 bound_to 11000
  141.2058  133.6650  156.6202 LP  0  0  0  0  0  0  0  0  0  0  0  0  # atno 17395 bound_to 11000

$$$$
