AV-unprocessed.smi:517|AV-procd|sdf|2788|dock1
  -GOLD-   2262023263D 1   1.00000     0.00000
 Structure written by MMmdl.
 35 36  0  0  0  0  0  0  0  0  1 V2000
  146.7091  142.5769  154.0714 C   0  0  0  0  0  0  0  0  0  0  0  0
  147.9098  141.7200  154.4784 C   0  0  0  0  0  0  0  0  0  0  0  0
  147.7265  141.2925  155.8163 O   0  0  0  0  0  0  0  0  0  0  0  0
  148.8873  140.6996  156.3747 C   0  0  0  0  0  0  0  0  0  0  0  0
  150.0348  141.7198  156.3646 C   0  0  0  0  0  0  0  0  0  0  0  0
  151.1536  141.2941  157.1943 N   0  0  0  0  0  0  0  0  0  0  0  0
  151.9279  140.1861  157.0634 C   0  0  0  0  0  0  0  0  0  0  0  0
  151.7040  139.1750  155.9720 C   0  0  2  0  0  0  0  0  0  0  0  0
  152.6190  137.9531  156.1298 C   0  0  0  0  0  0  0  0  0  0  0  0
  151.9140  139.7177  154.6838 O   0  0  0  0  0  0  0  0  0  0  0  0
  152.8796  140.0366  157.9881 N   0  0  0  0  0  0  0  0  0  0  0  0
  152.7227  141.1598  158.7752 C   0  0  0  0  0  0  0  0  0  0  0  0
  153.4379  141.5888  159.9162 C   0  0  0  0  0  0  0  0  0  0  0  0
  153.0939  142.7940  160.5628 C   0  0  0  0  0  0  0  0  0  0  0  0
  152.0314  143.5848  160.0799 C   0  0  0  0  0  0  0  0  0  0  0  0
  151.3036  143.1733  158.9469 C   0  0  0  0  0  0  0  0  0  0  0  0
  151.6516  141.9698  158.3044 C   0  0  0  0  0  0  0  0  0  0  0  0
  146.8153  142.9368  153.0480 H   0  0  0  0  0  0  0  0  0  0  0  0
  146.6092  143.4446  154.7238 H   0  0  0  0  0  0  0  0  0  0  0  0
  145.7829  142.0050  154.1311 H   0  0  0  0  0  0  0  0  0  0  0  0
  147.9958  140.8587  153.8144 H   0  0  0  0  0  0  0  0  0  0  0  0
  148.8297  142.3000  154.3917 H   0  0  0  0  0  0  0  0  0  0  0  0
  148.6855  140.3802  157.3980 H   0  0  0  0  0  0  0  0  0  0  0  0
  149.1662  139.8123  155.8045 H   0  0  0  0  0  0  0  0  0  0  0  0
  150.3946  141.8619  155.3450 H   0  0  0  0  0  0  0  0  0  0  0  0
  149.6848  142.6965  156.6979 H   0  0  0  0  0  0  0  0  0  0  0  0
  150.6651  138.8478  155.9923 H   0  0  0  0  0  0  0  0  0  0  0  0
  152.4574  137.4639  157.0906 H   0  0  0  0  0  0  0  0  0  0  0  0
  153.6711  138.2354  156.0747 H   0  0  0  0  0  0  0  0  0  0  0  0
  152.4302  137.2156  155.3492 H   0  0  0  0  0  0  0  0  0  0  0  0
  152.4696  139.1274  154.1982 H   0  0  0  0  0  0  0  0  0  0  0  0
  154.2536  140.9901  160.2935 H   0  0  0  0  0  0  0  0  0  0  0  0
  153.6486  143.1138  161.4327 H   0  0  0  0  0  0  0  0  0  0  0  0
  151.7754  144.5078  160.5791 H   0  0  0  0  0  0  0  0  0  0  0  0
  150.4910  143.7781  158.5725 H   0  0  0  0  0  0  0  0  0  0  0  0
  1  2  1  0  0  0  0
  1 18  1  0  0  0  0
  1 19  1  0  0  0  0
  1 20  1  0  0  0  0
  2  3  1  0  0  0  0
  2 21  1  0  0  0  0
  2 22  1  0  0  0  0
  3  4  1  0  0  0  0
  4  5  1  0  0  0  0
  4 23  1  0  0  0  0
  4 24  1  0  0  0  0
  5  6  1  0  0  0  0
  5 25  1  0  0  0  0
  5 26  1  0  0  0  0
  6 17  1  0  0  0  0
  6  7  1  0  0  0  0
  7  8  1  0  0  0  0
  7 11  2  0  0  0  0
  8  9  1  0  0  0  0
  8 10  1  0  0  0  0
  8 27  1  0  0  0  0
  9 28  1  0  0  0  0
  9 29  1  0  0  0  0
  9 30  1  0  0  0  0
 10 31  1  0  0  0  0
 11 12  1  0  0  0  0
 12 17  2  0  0  0  0
 12 13  1  0  0  0  0
 13 14  2  0  0  0  0
 13 32  1  0  0  0  0
 14 15  1  0  0  0  0
 14 33  1  0  0  0  0
 15 16  2  0  0  0  0
 15 34  1  0  0  0  0
 16 17  1  0  0  0  0
 16 35  1  0  0  0  0
M  END
> <s_m_source_file>
AV-unprocessed.smi

> <i_m_source_file_index>
517

> <i_lp_mmshare_version>
43012

> <i_f3d_flags>
0

> <s_epik_input>
W0NIM11bQ0gyXU9bQ0gyXVtDSDJdbihjKG4xKVtDQEhdKFtDSDNdKVtPSF0pYyhjMTIpW2NIXVtjSF1bY0hdW2NIXTI=

> <s_epik_cmdline>
J2VwaWtfcHl0aG9uJywgJy1waCcsICc3LjAnLCAnLXRuJywgJzgnLCAnLW1hJywgJzIwMCcsICctbWV0YWxfYmluZGluZycsICctaW1hZScsICc8aW5maWxlLm1hZT4nLCAnLW9tYWUnLCAnPG91dGZpbGUubWFlPic=

> <r_epik_Ionization_Penalty>
0.0517997

> <r_epik_Ionization_Penalty_Charging>
0

> <r_epik_Ionization_Penalty_Neutral>
0.0517997

> <r_epik_State_Penalty>
0.0443961

> <r_epik_Charging_Adjusted_Penalty>
0.0443961

> <i_epik_Tot_Q>
0

> <i_epik_Tot_abs_Q>
0

> <r_epik_Metal_State_Penalty>
4.60999e-05

> <b_epik_Metal_Only>
0

> <s_lp_Force_Field>
OPLS_2005

> <r_lp_Energy>
5.78947

> <b_lp_Chiralities_Consistent>
1

> <s_lp_Variant>
AV-unprocessed.smi:517-1

> <Gold.Version>
5.8.1

> <Gold.Id.Protein>
6NUR|6NUR_protein|mol2

> <Gold.PLP.Fitness>
41.9046

> <Gold.PLP.PLP>
-36.2869

> <Gold.PLP.part.hbond>
-2.0000

> <Gold.PLP.part.metal>
0.0000

> <Gold.PLP.part.buried>
-4.6788

> <Gold.PLP.part.nonpolar>
-30.2724

> <Gold.PLP.part.repulsive>
0.0777

> <Gold.PLP.ligand.clash>
0.0000

> <Gold.PLP.ligand.torsion>
0.1087

> <Gold.PLP.Chemscore.Hbond>
1.9280

> <Gold.PLP.Chemscore.CHOScore>
0.0000

> <Gold.PLP.Chemscore.Metal>
0.0000

> <Gold.Chemscore.Hbonds>
donor molecule, donor type, donor heavy atom, donor atom, acceptor molecule, acceptor atom, score
      P1  H  7989  7998       L1    10  0.85
      P1  H  7997  8009       L1    11  1.00

> <Gold.PLP.Chemscore.Internal.Correction>
0.0512

> <Gold.Rescore>
     Score         DG    S(hbond)    S(metal)    S(lipo)     H(rot)  DE(clash)    DE(int)     intcor
     16.17     -16.56       1.40        0.00     100.70       2.11       0.18       0.21       ----

> <Gold.Chemscore.Fitness>
16.1702

> <Gold.Chemscore.DG>
-16.5610

> <Gold.Chemscore.ZeroCoef>
-5.4800

> <Gold.Chemscore.Hbond>
1.4037

> <Gold.Chemscore.Metal>
0.0000

> <Gold.Chemscore.Lipo>
100.7000

> <Gold.Chemscore.Internal_Hbond>
0.0000

> <Gold.Chemscore.DEClash>
0.1824

> <Gold.Chemscore.DEInternal>
0.2083

> <Gold.Chemscore.Rot>
2.1052

> <Gold.Chemscore.Internal.Correction>
   9.000000E+99

> <Gold.Chemscore.Hbonds>
donor molecule, donor type, donor heavy atom, donor atom, acceptor molecule, acceptor atom, score
      P1  H  7989  7998       L1    10  0.16
      P1  H  7997  8009       L1    11  0.43

> <Gold.Chemscore.Hbond.Weighted>
-4.6885

> <Gold.Chemscore.Metal.Weighted>
-0.0000

> <Gold.Chemscore.Lipo.Weighted>
-11.7819

> <Gold.Chemscore.Internal_Hbond.Weighted>
0.0000

> <Gold.Chemscore.DEClash.Weighted>
0.1824

> <Gold.Chemscore.DEInternal.Weighted>
0.2083

> <Gold.Chemscore.Rot.Weighted>
5.3894

> <Gold.Chemscore.Internal.Correction.Weighted>
   9.000000E+99

> <Gold.Protein.RotatedTorsions>
[ 6907 6896 6895 6894 ] final -139.56 input  -60.11 | X-H torsion
[ 7974 7965 7964 7962 ] final   44.09 input  175.53 | X-H torsion
[ 8008 7997 7996 7995 ] final  153.84 input   59.86 | X-H torsion
[ 10167 10162 10161 10158 ] final -138.49 input  -65.29 | X-H torsion
[ 10718 10713 10712 10709 ] final   52.70 input   66.30 | X-H torsion
[ 10763 10752 10751 10750 ] final  151.55 input  -60.55 | X-H torsion
[ 11005 11000 10999 10996 ] final  142.87 input  -57.11 | X-H torsion

> <Gold.Protein.ActiveResidues>
 VAL166  LYS551  ARG553  GLY616  TRP617  ASP618  TYR619  PRO620  LYS621  CYS622 
 ASP623  PHE694  ASN695  SER759  ASP760  ASP761  ALA762  ILE779  LEU786  VAL792 
 PHE793  MET794  SER795  GLU796  ALA797  LYS798  CYS799  TRP800  GLU811  SER814 

> <Gold.Protein.RotatedAtoms>
  151.0494  133.5637  159.2643 H   0  0  0  0  0  0  0  0  0  0  0  0  # atno 6907 bound_to 6896
  151.2653  135.0666  159.9123 H   0  0  0  0  0  0  0  0  0  0  0  0  # atno 6908 bound_to 6896
  152.5379  134.0233  159.8045 H   0  0  0  0  0  0  0  0  0  0  0  0  # atno 6909 bound_to 6896
  146.0599  139.5113  142.9665 H   0  0  0  0  0  0  0  0  0  0  0  0  # atno 7974 bound_to 7965
  156.2561  140.1983  156.6553 H   0  0  0  0  0  0  0  0  0  0  0  0  # atno 8008 bound_to 7997
  154.6506  140.0572  156.9976 H   0  0  0  0  0  0  0  0  0  0  0  0  # atno 8009 bound_to 7997
  155.1424  140.3244  155.4452 H   0  0  0  0  0  0  0  0  0  0  0  0  # atno 8010 bound_to 7997
  139.8473  143.7244  152.2660 H   0  0  0  0  0  0  0  0  0  0  0  0  # atno 10167 bound_to 10162
  157.5099  130.8494  149.8422 H   0  0  0  0  0  0  0  0  0  0  0  0  # atno 10718 bound_to 10713
  154.1057  135.2842  155.3242 H   0  0  0  0  0  0  0  0  0  0  0  0  # atno 10763 bound_to 10752
  154.6525  135.5364  153.7922 H   0  0  0  0  0  0  0  0  0  0  0  0  # atno 10764 bound_to 10752
  153.0363  135.6513  154.1218 H   0  0  0  0  0  0  0  0  0  0  0  0  # atno 10765 bound_to 10752
  140.0510  134.9256  157.1016 H   0  0  0  0  0  0  0  0  0  0  0  0  # atno 11005 bound_to 11000
  145.6579  141.0248  143.1725 LP  0  0  0  0  0  0  0  0  0  0  0  0  # atno 17320 bound_to 7965
  144.7169  139.8166  143.7395 LP  0  0  0  0  0  0  0  0  0  0  0  0  # atno 17321 bound_to 7965
  139.7500  144.7537  151.0521 LP  0  0  0  0  0  0  0  0  0  0  0  0  # atno 17342 bound_to 10162
  140.7791  143.4871  150.9942 LP  0  0  0  0  0  0  0  0  0  0  0  0  # atno 17343 bound_to 10162
  156.0282  130.3772  150.1761 LP  0  0  0  0  0  0  0  0  0  0  0  0  # atno 17370 bound_to 10713
  156.9951  130.9905  151.3405 LP  0  0  0  0  0  0  0  0  0  0  0  0  # atno 17371 bound_to 10713
  140.3918  134.2176  155.7166 LP  0  0  0  0  0  0  0  0  0  0  0  0  # atno 17394 bound_to 11000
  141.1930  133.8160  157.0817 LP  0  0  0  0  0  0  0  0  0  0  0  0  # atno 17395 bound_to 11000

$$$$
