AV-unprocessed.smi:45|AV-procd|sdf|418|dock7
  -GOLD-   2262016293D 1   1.00000     0.00000
 Structure written by MMmdl.
 60 63  0  0  0  0  0  0  0  0  3 V2000
  142.6097  134.3213  162.4115 C   0  0  0  0  0  0  0  0  0  0  0  0
  143.9706  134.0976  162.0733 O   0  0  0  0  0  0  0  0  0  0  0  0
  144.2738  133.7627  160.7696 C   0  0  0  0  0  0  0  0  0  0  0  0
  143.2997  133.4412  159.7901 C   0  0  0  0  0  0  0  0  0  0  0  0
  143.6870  133.1098  158.4772 C   0  0  0  0  0  0  0  0  0  0  0  0
  145.0498  133.0955  158.1206 C   0  0  0  0  0  0  0  0  0  0  0  0
  145.4655  132.7394  156.7076 C   0  0  0  0  0  0  0  0  0  0  0  0
  146.8924  132.9038  156.4753 N   0  0  0  0  0  0  0  0  0  0  0  0
  147.4185  132.9805  155.1751 C   0  0  0  0  0  0  0  0  0  0  0  0
  146.5524  132.9161  154.1278 N   0  3  0  0  0  0  0  0  0  0  0  0
  146.9926  132.9981  152.8614 C   0  0  0  0  0  0  0  0  0  0  0  0
  146.0596  132.9374  151.8272 N   0  0  0  0  0  0  0  0  0  0  0  0
  145.4930  131.6670  151.3876 C   0  0  0  0  0  0  0  0  0  0  0  0
  144.0706  131.9786  150.9254 C   0  0  0  0  0  0  0  0  0  0  0  0
  144.1762  133.4217  150.4500 C   0  0  0  0  0  0  0  0  0  0  0  0
  145.1932  134.0444  151.4180 C   0  0  2  0  0  0  0  0  0  0  0  0
  145.9654  135.2226  150.7876 C   0  0  0  0  0  0  0  0  0  0  0  0
  145.1133  135.9564  149.9345 O   0  0  0  0  0  0  0  0  0  0  0  0
  148.2900  133.1482  152.5690 N   0  0  0  0  0  0  0  0  0  0  0  0
  149.1883  133.2171  153.5693 C   0  0  0  0  0  0  0  0  0  0  0  0
  148.8056  133.1406  154.9234 C   0  0  0  0  0  0  0  0  0  0  0  0
  149.8410  133.1862  156.0174 C   0  0  0  0  0  0  0  0  0  0  0  0
  149.8053  132.3203  156.8985 O   0  0  0  0  0  0  0  0  0  0  0  0
  150.6886  134.2411  155.8642 N   0  5  0  0  0  0  0  0  0  0  0  0
  150.7772  135.3638  156.7990 C   0  0  0  0  0  0  0  0  0  0  0  0
  151.2324  136.6447  156.1098 C   0  0  0  0  0  0  0  0  0  0  0  0
  151.4834  137.7001  156.8942 N   0  0  0  0  0  0  0  0  0  0  0  0
  151.9128  138.8275  156.2869 C   0  0  0  0  0  0  0  0  0  0  0  0
  152.0891  138.8975  154.8902 C   0  0  0  0  0  0  0  0  0  0  0  0
  151.7928  137.7253  154.1660 C   0  0  0  0  0  0  0  0  0  0  0  0
  151.3651  136.5998  154.7781 N   0  0  0  0  0  0  0  0  0  0  0  0
  146.0231  133.4114  159.0883 C   0  0  0  0  0  0  0  0  0  0  0  0
  145.6379  133.7420  160.4023 C   0  0  0  0  0  0  0  0  0  0  0  0
  146.8569  134.1256  161.5646 Cl  0  0  0  0  0  0  0  0  0  0  0  0
  144.6658  134.3894  152.3089 H   0  0  0  0  0  0  0  0  0  0  0  0
  142.5414  134.5826  163.4674 H   0  0  0  0  0  0  0  0  0  0  0  0
  142.0066  133.4262  162.2542 H   0  0  0  0  0  0  0  0  0  0  0  0
  142.1872  135.1486  161.8396 H   0  0  0  0  0  0  0  0  0  0  0  0
  142.2453  133.4409  160.0209 H   0  0  0  0  0  0  0  0  0  0  0  0
  142.9332  132.8656  157.7429 H   0  0  0  0  0  0  0  0  0  0  0  0
  145.1874  131.7025  156.5148 H   0  0  0  0  0  0  0  0  0  0  0  0
  144.9110  133.3571  155.9998 H   0  0  0  0  0  0  0  0  0  0  0  0
  147.5061  133.0250  157.2694 H   0  0  0  0  0  0  0  0  0  0  0  0
  146.0927  131.2859  150.5603 H   0  0  0  0  0  0  0  0  0  0  0  0
  145.4902  130.9165  152.1792 H   0  0  0  0  0  0  0  0  0  0  0  0
  143.7151  131.2972  150.1520 H   0  0  0  0  0  0  0  0  0  0  0  0
  143.3842  131.9192  151.7713 H   0  0  0  0  0  0  0  0  0  0  0  0
  144.5607  133.4371  149.4290 H   0  0  0  0  0  0  0  0  0  0  0  0
  143.2172  133.9409  150.4537 H   0  0  0  0  0  0  0  0  0  0  0  0
  146.3467  135.9073  151.5439 H   0  0  0  0  0  0  0  0  0  0  0  0
  146.8252  134.8659  150.2190 H   0  0  0  0  0  0  0  0  0  0  0  0
  145.3901  135.8191  149.0412 H   0  0  0  0  0  0  0  0  0  0  0  0
  150.2231  133.3242  153.2770 H   0  0  0  0  0  0  0  0  0  0  0  0
  149.8099  135.5569  157.2647 H   0  0  0  0  0  0  0  0  0  0  0  0
  151.4475  135.1533  157.6345 H   0  0  0  0  0  0  0  0  0  0  0  0
  152.1173  139.6787  156.9191 H   0  0  0  0  0  0  0  0  0  0  0  0
  152.4321  139.7977  154.4027 H   0  0  0  0  0  0  0  0  0  0  0  0
  151.8991  137.6905  153.0918 H   0  0  0  0  0  0  0  0  0  0  0  0
  147.0709  133.3996  158.8258 H   0  0  0  0  0  0  0  0  0  0  0  0
  145.5574  132.8064  154.3189 H   0  0  0  0  0  0  0  0  0  0  0  0
  1  2  1  0  0  0  0
  1 36  1  0  0  0  0
  1 37  1  0  0  0  0
  1 38  1  0  0  0  0
  2  3  1  0  0  0  0
  3 33  1  0  0  0  0
  3  4  2  0  0  0  0
  4  5  1  0  0  0  0
  4 39  1  0  0  0  0
  5  6  2  0  0  0  0
  5 40  1  0  0  0  0
  6  7  1  0  0  0  0
  6 32  1  0  0  0  0
  7  8  1  0  0  0  0
  7 41  1  0  0  0  0
  7 42  1  0  0  0  0
  8  9  1  0  0  0  0
  8 43  1  0  0  0  0
  9 21  1  0  0  0  0
  9 10  2  0  0  0  0
 10 11  1  0  0  0  0
 10 60  1  0  0  0  0
 11 12  1  0  0  0  0
 11 19  2  0  0  0  0
 12 16  1  0  0  0  0
 12 13  1  0  0  0  0
 13 14  1  0  0  0  0
 13 44  1  0  0  0  0
 13 45  1  0  0  0  0
 14 15  1  0  0  0  0
 14 46  1  0  0  0  0
 14 47  1  0  0  0  0
 15 16  1  0  0  0  0
 15 48  1  0  0  0  0
 15 49  1  0  0  0  0
 16 35  1  0  0  0  0
 16 17  1  0  0  0  0
 17 18  1  0  0  0  0
 17 50  1  0  0  0  0
 17 51  1  0  0  0  0
 18 52  1  0  0  0  0
 19 20  1  0  0  0  0
 20 21  2  0  0  0  0
 20 53  1  0  0  0  0
 21 22  1  0  0  0  0
 22 23  2  0  0  0  0
 22 24  1  0  0  0  0
 24 25  1  0  0  0  0
 25 26  1  0  0  0  0
 25 54  1  0  0  0  0
 25 55  1  0  0  0  0
 26 31  1  0  0  0  0
 26 27  2  0  0  0  0
 27 28  1  0  0  0  0
 28 29  2  0  0  0  0
 28 56  1  0  0  0  0
 29 30  1  0  0  0  0
 29 57  1  0  0  0  0
 30 31  2  0  0  0  0
 30 58  1  0  0  0  0
 32 33  2  0  0  0  0
 32 59  1  0  0  0  0
 33 34  1  0  0  0  0
M  CHG  1  10   1
M  CHG  1  24  -1
M  END
> <s_m_source_file>
AV-unprocessed.smi

> <i_m_source_file_index>
45

> <i_lp_mmshare_version>
43012

> <i_f3d_flags>
0

> <s_epik_input>
W0NIM11PYzFbY0hdW2NIXWMoW2NIXWMxQ2wpW0NIMl1bTkhdYzJuYyhOM1tDSDJdW0NIMl1bQ0gyXVtDQEhdM1tDSDJdW09IXSluW2NIXWMyQyg9TylbTkhdW0NIMl1jNG5bY0hdW2NIXVtjSF1uNA==

> <s_epik_cmdline>
J2VwaWtfcHl0aG9uJywgJy1waCcsICc3LjAnLCAnLXRuJywgJzgnLCAnLW1hJywgJzIwMCcsICctbWV0YWxfYmluZGluZycsICctaW1hZScsICc8aW5maWxlLm1hZT4nLCAnLW9tYWUnLCAnPG91dGZpbGUubWFlPic=

> <r_lp_tautomer_probability>
0.424989

> <r_epik_Ionization_Penalty>
7.51351

> <r_epik_Ionization_Penalty_Charging>
7.51312

> <r_epik_Ionization_Penalty_Neutral>
0.00038389

> <r_epik_State_Penalty>
8.64696

> <r_epik_Charging_Adjusted_Penalty>
16.1601

> <i_epik_Tot_Q>
0

> <i_epik_Tot_abs_Q>
2

> <r_epik_Metal_State_Penalty>
4.61083

> <b_epik_Metal_Only>
1

> <s_epik_Chemistry_Notes>
This compound contains an electron-poor aromatic ring that is susceptible to covalent hydrolysis at low pH, typically resulting in measured values for nitrogen ring protonation that are around two units higher than predicted values.

> <s_lp_Force_Field>
OPLS_2005

> <r_lp_Energy>
41.8384

> <b_lp_Chiralities_Consistent>
1

> <s_lp_Variant>
AV-unprocessed.smi:45-12

> <Gold.Version>
5.8.1

> <Gold.Id.Protein>
6NUR|6NUR_protein|mol2

> <Gold.PLP.Fitness>
49.7437

> <Gold.PLP.PLP>
-45.8204

> <Gold.PLP.part.hbond>
-3.0000

> <Gold.PLP.part.metal>
0.0000

> <Gold.PLP.part.buried>
-8.3702

> <Gold.PLP.part.nonpolar>
-34.4532

> <Gold.PLP.part.repulsive>
0.6472

> <Gold.PLP.ligand.clash>
0.0000

> <Gold.PLP.ligand.torsion>
3.6345

> <Gold.PLP.Chemscore.Hbond>
2.0000

> <Gold.PLP.Chemscore.CHOScore>
0.9725

> <Gold.PLP.Chemscore.Metal>
0.0000

> <Gold.Chemscore.Hbonds>
donor molecule, donor type, donor heavy atom, donor atom, acceptor molecule, acceptor atom, score
      L1  H    18    52       P1  7921  1.00
      P1  H 10752 10765       L1    31  0.85
      L1  C    30    58       P1  7949  1.00

> <Gold.PLP.Chemscore.Internal.Correction>
2.2748

> <Gold.Rescore>
     Score         DG    S(hbond)    S(metal)    S(lipo)     H(rot)  DE(clash)    DE(int)     intcor
     10.72     -15.47       1.61        0.00     102.96       2.90       0.21       4.53       ----

> <Gold.Chemscore.Fitness>
10.7233

> <Gold.Chemscore.DG>
-15.4690

> <Gold.Chemscore.ZeroCoef>
-5.4800

> <Gold.Chemscore.Hbond>
1.6058

> <Gold.Chemscore.Metal>
0.0000

> <Gold.Chemscore.Lipo>
102.9615

> <Gold.Chemscore.Internal_Hbond>
0.0000

> <Gold.Chemscore.DEClash>
0.2144

> <Gold.Chemscore.DEInternal>
4.5313

> <Gold.Chemscore.Rot>
2.8988

> <Gold.Chemscore.Internal.Correction>
   9.000000E+99

> <Gold.Chemscore.Hbonds>
donor molecule, donor type, donor heavy atom, donor atom, acceptor molecule, acceptor atom, score
      L1  H    18    52       P1  7921  0.98
      P1  H 10752 10765       L1    31  0.06

> <Gold.Chemscore.Hbond.Weighted>
-5.3634

> <Gold.Chemscore.Metal.Weighted>
-0.0000

> <Gold.Chemscore.Lipo.Weighted>
-12.0465

> <Gold.Chemscore.Internal_Hbond.Weighted>
0.0000

> <Gold.Chemscore.DEClash.Weighted>
0.2144

> <Gold.Chemscore.DEInternal.Weighted>
4.5313

> <Gold.Chemscore.Rot.Weighted>
7.4209

> <Gold.Chemscore.Internal.Correction.Weighted>
   9.000000E+99

> <Gold.Protein.RotatedTorsions>
[ 6907 6896 6895 6894 ] final -137.86 input  -60.11 | X-H torsion
[ 7974 7965 7964 7962 ] final  141.63 input  175.53 | X-H torsion
[ 8008 7997 7996 7995 ] final -124.16 input   59.86 | X-H torsion
[ 10167 10162 10161 10158 ] final   62.14 input  -65.29 | X-H torsion
[ 10718 10713 10712 10709 ] final  171.78 input   66.30 | X-H torsion
[ 10763 10752 10751 10750 ] final  178.26 input  -60.55 | X-H torsion
[ 11005 11000 10999 10996 ] final -139.85 input  -57.11 | X-H torsion

> <Gold.Protein.ActiveResidues>
 VAL166  LYS551  ARG553  GLY616  TRP617  ASP618  TYR619  PRO620  LYS621  CYS622 
 ASP623  PHE694  ASN695  SER759  ASP760  ASP761  ALA762  ILE779  LEU786  VAL792 
 PHE793  MET794  SER795  GLU796  ALA797  LYS798  CYS799  TRP800  GLU811  SER814 

> <Gold.Protein.RotatedAtoms>
  151.0277  133.5818  159.2663 H   0  0  0  0  0  0  0  0  0  0  0  0  # atno 6907 bound_to 6896
  151.2911  135.0741  159.9214 H   0  0  0  0  0  0  0  0  0  0  0  0  # atno 6908 bound_to 6896
  152.5338  133.9975  159.7933 H   0  0  0  0  0  0  0  0  0  0  0  0  # atno 6909 bound_to 6896
  144.9079  139.5333  143.5722 H   0  0  0  0  0  0  0  0  0  0  0  0  # atno 7974 bound_to 7965
  155.1924  140.0413  157.2903 H   0  0  0  0  0  0  0  0  0  0  0  0  # atno 8008 bound_to 7997
  154.6129  140.2481  155.7617 H   0  0  0  0  0  0  0  0  0  0  0  0  # atno 8009 bound_to 7997
  156.2390  140.2911  156.0401 H   0  0  0  0  0  0  0  0  0  0  0  0  # atno 8010 bound_to 7997
  140.1471  144.4498  150.6779 H   0  0  0  0  0  0  0  0  0  0  0  0  # atno 10167 bound_to 10162
  156.9886  131.0141  151.2863 H   0  0  0  0  0  0  0  0  0  0  0  0  # atno 10718 bound_to 10713
  154.5053  135.2785  155.1387 H   0  0  0  0  0  0  0  0  0  0  0  0  # atno 10763 bound_to 10752
  154.3004  135.6249  153.5426 H   0  0  0  0  0  0  0  0  0  0  0  0  # atno 10764 bound_to 10752
  152.9909  135.5695  154.5506 H   0  0  0  0  0  0  0  0  0  0  0  0  # atno 10765 bound_to 10752
  140.8480  134.2321  157.4775 H   0  0  0  0  0  0  0  0  0  0  0  0  # atno 11005 bound_to 11000
  146.3143  139.7862  142.8995 LP  0  0  0  0  0  0  0  0  0  0  0  0  # atno 17320 bound_to 7965
  145.3504  141.0306  143.3342 LP  0  0  0  0  0  0  0  0  0  0  0  0  # atno 17321 bound_to 7965
  140.6725  143.2291  151.5590 LP  0  0  0  0  0  0  0  0  0  0  0  0  # atno 17342 bound_to 10162
  139.5443  144.2562  152.1413 LP  0  0  0  0  0  0  0  0  0  0  0  0  # atno 17343 bound_to 10162
  157.5475  130.8160  149.8104 LP  0  0  0  0  0  0  0  0  0  0  0  0  # atno 17370 bound_to 10713
  156.0216  130.3793  150.1946 LP  0  0  0  0  0  0  0  0  0  0  0  0  # atno 17371 bound_to 10713
  139.8703  134.9669  156.4578 LP  0  0  0  0  0  0  0  0  0  0  0  0  # atno 17394 bound_to 11000
  140.8822  133.7909  155.9479 LP  0  0  0  0  0  0  0  0  0  0  0  0  # atno 17395 bound_to 11000

$$$$
