AV-unprocessed.smi:1643|AV-procd|sdf|6573|dock4
  -GOLD-   22720 7263D 1   1.00000     0.00000
 Structure written by MMmdl.
 54 56  0  0  0  0  0  0  0  0  2 V2000
  155.0306  144.8689  166.9189 C   0  0  0  0  0  0  0  0  0  0  0  0
  155.5328  143.5154  167.4308 C   0  0  0  0  0  0  0  0  0  0  0  0
  155.9530  143.4546  168.5864 O   0  0  0  0  0  0  0  0  0  0  0  0
  155.4934  142.4405  166.6051 N   0  0  0  0  0  0  0  0  0  0  0  0
  155.9187  141.1120  167.0729 C   0  0  0  0  0  0  0  0  0  0  0  0
  157.3544  140.7920  166.6195 C   0  0  0  0  0  0  0  0  0  0  0  0
  157.7283  141.3575  165.2328 C   0  0  0  0  0  0  0  0  0  0  0  0
  156.8142  140.9359  164.1353 N   0  3  1  0  0  0  0  0  0  0  0  0
  157.0029  139.5102  163.7481 C   0  0  0  0  0  0  0  0  0  0  0  0
  156.5075  139.1981  162.3154 C   0  0  2  0  0  0  0  0  0  0  0  0
  156.8438  140.2599  161.4459 O   0  0  0  0  0  0  0  0  0  0  0  0
  154.9792  139.0099  162.2105 C   0  0  0  0  0  0  0  0  0  0  0  0
  154.4056  139.6645  161.0484 N   0  0  0  0  0  0  0  0  0  0  0  0
  154.3335  139.1789  159.7936 C   0  0  0  0  0  0  0  0  0  0  0  0
  153.7699  139.9541  158.8724 N   0  0  0  0  0  0  0  0  0  0  0  0
  153.4203  141.0660  159.6187 C   0  0  0  0  0  0  0  0  0  0  0  0
  152.7762  142.2622  159.2348 C   0  0  0  0  0  0  0  0  0  0  0  0
  152.5120  143.2786  160.1802 C   0  0  0  0  0  0  0  0  0  0  0  0
  151.8111  144.5464  159.7247 C   0  0  0  0  0  0  0  0  0  0  0  0
  152.8961  143.1067  161.5345 C   0  0  0  0  0  0  0  0  0  0  0  0
  152.6186  144.1836  162.5682 C   0  0  0  0  0  0  0  0  0  0  0  0
  153.5434  141.9189  161.9345 C   0  0  0  0  0  0  0  0  0  0  0  0
  153.8003  140.9148  160.9844 C   0  0  0  0  0  0  0  0  0  0  0  0
  155.3767  141.3244  164.2856 C   0  0  0  0  0  0  0  0  0  0  0  0
  155.0775  142.5508  165.1902 C   0  0  0  0  0  0  0  0  0  0  0  0
  154.0268  144.7852  166.5020 H   0  0  0  0  0  0  0  0  0  0  0  0
  155.6997  145.2669  166.1561 H   0  0  0  0  0  0  0  0  0  0  0  0
  154.9894  145.5928  167.7336 H   0  0  0  0  0  0  0  0  0  0  0  0
  155.8567  141.0197  168.1584 H   0  0  0  0  0  0  0  0  0  0  0  0
  155.2252  140.3507  166.7192 H   0  0  0  0  0  0  0  0  0  0  0  0
  158.0497  141.2090  167.3488 H   0  0  0  0  0  0  0  0  0  0  0  0
  157.5106  139.7133  166.6447 H   0  0  0  0  0  0  0  0  0  0  0  0
  157.7668  142.4468  165.2643 H   0  0  0  0  0  0  0  0  0  0  0  0
  158.7496  141.0631  164.9880 H   0  0  0  0  0  0  0  0  0  0  0  0
  158.0714  139.3026  163.7906 H   0  0  0  0  0  0  0  0  0  0  0  0
  156.5468  138.8433  164.4814 H   0  0  0  0  0  0  0  0  0  0  0  0
  156.9988  138.2945  161.9523 H   0  0  0  0  0  0  0  0  0  0  0  0
  156.3024  141.0064  161.6545 H   0  0  0  0  0  0  0  0  0  0  0  0
  154.7287  137.9485  162.1703 H   0  0  0  0  0  0  0  0  0  0  0  0
  154.4876  139.4126  163.0975 H   0  0  0  0  0  0  0  0  0  0  0  0
  154.7267  138.2053  159.5392 H   0  0  0  0  0  0  0  0  0  0  0  0
  152.4823  142.3924  158.2034 H   0  0  0  0  0  0  0  0  0  0  0  0
  152.4283  145.4213  159.9305 H   0  0  0  0  0  0  0  0  0  0  0  0
  150.8596  144.6631  160.2444 H   0  0  0  0  0  0  0  0  0  0  0  0
  151.6068  144.5258  158.6535 H   0  0  0  0  0  0  0  0  0  0  0  0
  152.9755  143.8890  163.5555 H   0  0  0  0  0  0  0  0  0  0  0  0
  151.5477  144.3744  162.6428 H   0  0  0  0  0  0  0  0  0  0  0  0
  153.1185  145.1133  162.2960 H   0  0  0  0  0  0  0  0  0  0  0  0
  153.8387  141.7748  162.9632 H   0  0  0  0  0  0  0  0  0  0  0  0
  155.0014  141.5464  163.2865 H   0  0  0  0  0  0  0  0  0  0  0  0
  154.7869  140.4707  164.6187 H   0  0  0  0  0  0  0  0  0  0  0  0
  154.0039  142.7428  165.1667 H   0  0  0  0  0  0  0  0  0  0  0  0
  155.5542  143.4190  164.7334 H   0  0  0  0  0  0  0  0  0  0  0  0
  157.1441  141.4662  163.3413 H   0  0  0  0  0  0  0  0  0  0  0  0
  1  2  1  0  0  0  0
  1 26  1  0  0  0  0
  1 27  1  0  0  0  0
  1 28  1  0  0  0  0
  2  3  2  0  0  0  0
  2  4  1  0  0  0  0
  4 25  1  0  0  0  0
  4  5  1  0  0  0  0
  5  6  1  0  0  0  0
  5 29  1  0  0  0  0
  5 30  1  0  0  0  0
  6  7  1  0  0  0  0
  6 31  1  0  0  0  0
  6 32  1  0  0  0  0
  7  8  1  0  0  0  0
  7 33  1  0  0  0  0
  7 34  1  0  0  0  0
  8  9  1  0  0  0  0
  8 24  1  0  0  0  0
  8 54  1  0  0  0  0
  9 10  1  0  0  0  0
  9 35  1  0  0  0  0
  9 36  1  0  0  0  0
 10 11  1  0  0  0  0
 10 12  1  0  0  0  0
 10 37  1  0  0  0  0
 11 38  1  0  0  0  0
 12 13  1  0  0  0  0
 12 39  1  0  0  0  0
 12 40  1  0  0  0  0
 13 23  1  0  0  0  0
 13 14  1  0  0  0  0
 14 15  2  0  0  0  0
 14 41  1  0  0  0  0
 15 16  1  0  0  0  0
 16 23  2  0  0  0  0
 16 17  1  0  0  0  0
 17 18  2  0  0  0  0
 17 42  1  0  0  0  0
 18 19  1  0  0  0  0
 18 20  1  0  0  0  0
 19 43  1  0  0  0  0
 19 44  1  0  0  0  0
 19 45  1  0  0  0  0
 20 21  1  0  0  0  0
 20 22  2  0  0  0  0
 21 46  1  0  0  0  0
 21 47  1  0  0  0  0
 21 48  1  0  0  0  0
 22 23  1  0  0  0  0
 22 49  1  0  0  0  0
 24 25  1  0  0  0  0
 24 50  1  0  0  0  0
 24 51  1  0  0  0  0
 25 52  1  0  0  0  0
 25 53  1  0  0  0  0
M  CHG  1   8   1
M  END
> <s_m_source_file>
AV-unprocessed.smi

> <i_m_source_file_index>
1643

> <i_lp_mmshare_version>
43012

> <i_f3d_flags>
0

> <s_epik_input>
W0NIM11DKD1PKU4xW0NIMl1bQ0gyXVtDSDJdTihbQ0gyXVtDSDJdMSlbQ0gyXVtDQEhdKFtPSF0pW0NIMl1uKFtjSF1uMiljKGMyMylbY0hdYyhbQ0gzXSljKFtjSF0zKVtDSDNd

> <s_epik_cmdline>
J2VwaWtfcHl0aG9uJywgJy1waCcsICc3LjAnLCAnLXRuJywgJzgnLCAnLW1hJywgJzIwMCcsICctbWV0YWxfYmluZGluZycsICctaW1hZScsICc8aW5maWxlLm1hZT4nLCAnLW9tYWUnLCAnPG91dGZpbGUubWFlPic=

> <r_epik_Ionization_Penalty>
0.189467

> <r_epik_Ionization_Penalty_Charging>
0.101761

> <r_epik_Ionization_Penalty_Neutral>
0.0877056

> <r_epik_State_Penalty>
0.170758

> <r_epik_Charging_Adjusted_Penalty>
0.272519

> <i_epik_Tot_Q>
1

> <i_epik_Tot_abs_Q>
1

> <r_epik_Metal_State_Penalty>
0.0948013

> <b_epik_Metal_Only>
0

> <s_lp_Force_Field>
OPLS_2005

> <r_lp_Energy>
50.1894

> <b_lp_Chiralities_Consistent>
1

> <s_lp_Variant>
AV-unprocessed.smi:1643-2

> <Gold.Version>
5.8.1

> <Gold.Id.Protein>
6NUR|6NUR_protein|mol2

> <Gold.PLP.Fitness>
50.7701

> <Gold.PLP.PLP>
-50.2074

> <Gold.PLP.part.hbond>
-3.0000

> <Gold.PLP.part.metal>
0.0000

> <Gold.PLP.part.buried>
-3.4444

> <Gold.PLP.part.nonpolar>
-43.2172

> <Gold.PLP.part.repulsive>
0.1078

> <Gold.PLP.ligand.clash>
0.0000

> <Gold.PLP.ligand.torsion>
1.2756

> <Gold.PLP.Chemscore.Hbond>
1.0000

> <Gold.PLP.Chemscore.CHOScore>
0.0000

> <Gold.PLP.Chemscore.Metal>
0.0000

> <Gold.Chemscore.Hbonds>
donor molecule, donor type, donor heavy atom, donor atom, acceptor molecule, acceptor atom, score
      P1  H  7997  8008       L1    15  0.94

> <Gold.PLP.Chemscore.Internal.Correction>
0.1140

> <Gold.Rescore>
     Score         DG    S(hbond)    S(metal)    S(lipo)     H(rot)  DE(clash)    DE(int)     intcor
     16.87     -19.00       0.93        0.00     135.29       2.12       0.73       1.40       ----

> <Gold.Chemscore.Fitness>
16.8691

> <Gold.Chemscore.DG>
-19.0016

> <Gold.Chemscore.ZeroCoef>
-5.4800

> <Gold.Chemscore.Hbond>
0.9324

> <Gold.Chemscore.Metal>
0.0000

> <Gold.Chemscore.Lipo>
135.2889

> <Gold.Chemscore.Internal_Hbond>
0.0000

> <Gold.Chemscore.DEClash>
0.7304

> <Gold.Chemscore.DEInternal>
1.4022

> <Gold.Chemscore.Rot>
2.1178

> <Gold.Chemscore.Internal.Correction>
   9.000000E+99

> <Gold.Chemscore.Hbonds>
donor molecule, donor type, donor heavy atom, donor atom, acceptor molecule, acceptor atom, score
      P1  H  7997  8008       L1    15  0.57

> <Gold.Chemscore.Hbond.Weighted>
-3.1143

> <Gold.Chemscore.Metal.Weighted>
-0.0000

> <Gold.Chemscore.Lipo.Weighted>
-15.8288

> <Gold.Chemscore.Internal_Hbond.Weighted>
0.0000

> <Gold.Chemscore.DEClash.Weighted>
0.7304

> <Gold.Chemscore.DEInternal.Weighted>
1.4022

> <Gold.Chemscore.Rot.Weighted>
5.4215

> <Gold.Chemscore.Internal.Correction.Weighted>
   9.000000E+99

> <Gold.Protein.RotatedTorsions>
[ 6907 6896 6895 6894 ] final -169.94 input  -60.11 | X-H torsion
[ 7974 7965 7964 7962 ] final -152.19 input  175.53 | X-H torsion
[ 8008 7997 7996 7995 ] final -115.87 input   59.86 | X-H torsion
[ 10167 10162 10161 10158 ] final  122.27 input  -65.29 | X-H torsion
[ 10718 10713 10712 10709 ] final  -89.91 input   66.30 | X-H torsion
[ 10763 10752 10751 10750 ] final -122.18 input  -60.55 | X-H torsion
[ 11005 11000 10999 10996 ] final    6.57 input  -57.11 | X-H torsion

> <Gold.Protein.ActiveResidues>
 VAL166  LYS551  ARG553  GLY616  TRP617  ASP618  TYR619  PRO620  LYS621  CYS622 
 ASP623  PHE694  ASN695  SER759  ASP760  ASP761  ALA762  ILE779  LEU786  VAL792 
 PHE793  MET794  SER795  GLU796  ALA797  LYS798  CYS799  TRP800  GLU811  SER814 

> <Gold.Protein.RotatedAtoms>
  151.4997  133.3507  159.2866 H   0  0  0  0  0  0  0  0  0  0  0  0  # atno 6907 bound_to 6896
  150.8781  134.8169  159.7215 H   0  0  0  0  0  0  0  0  0  0  0  0  # atno 6908 bound_to 6896
  152.4744  134.4891  159.9741 H   0  0  0  0  0  0  0  0  0  0  0  0  # atno 6909 bound_to 6896
  144.7808  140.4696  143.5841 H   0  0  0  0  0  0  0  0  0  0  0  0  # atno 7974 bound_to 7965
  155.0588  140.0393  157.2569 H   0  0  0  0  0  0  0  0  0  0  0  0  # atno 8008 bound_to 7997
  154.7076  140.2686  155.6635 H   0  0  0  0  0  0  0  0  0  0  0  0  # atno 8009 bound_to 7997
  156.2780  140.2728  156.1707 H   0  0  0  0  0  0  0  0  0  0  0  0  # atno 8010 bound_to 7997
  139.5869  144.7010  151.3387 H   0  0  0  0  0  0  0  0  0  0  0  0  # atno 10167 bound_to 10162
  155.9986  130.4890  150.5243 H   0  0  0  0  0  0  0  0  0  0  0  0  # atno 10718 bound_to 10713
  154.8684  135.4142  154.2741 H   0  0  0  0  0  0  0  0  0  0  0  0  # atno 10763 bound_to 10752
  153.3645  135.7005  153.6691 H   0  0  0  0  0  0  0  0  0  0  0  0  # atno 10764 bound_to 10752
  153.5578  135.3616  155.2759 H   0  0  0  0  0  0  0  0  0  0  0  0  # atno 10765 bound_to 10752
  140.5580  134.0219  155.7961 H   0  0  0  0  0  0  0  0  0  0  0  0  # atno 11005 bound_to 11000
  145.6056  139.1508  143.3104 LP  0  0  0  0  0  0  0  0  0  0  0  0  # atno 17320 bound_to 7965
  146.2014  140.6175  142.9100 LP  0  0  0  0  0  0  0  0  0  0  0  0  # atno 17321 bound_to 7965
  140.7139  143.7318  150.7618 LP  0  0  0  0  0  0  0  0  0  0  0  0  # atno 17342 bound_to 10162
  140.0864  143.4919  152.2502 LP  0  0  0  0  0  0  0  0  0  0  0  0  # atno 17343 bound_to 10162
  157.3200  131.0680  151.1938 LP  0  0  0  0  0  0  0  0  0  0  0  0  # atno 17370 bound_to 10713
  157.2855  130.6770  149.6087 LP  0  0  0  0  0  0  0  0  0  0  0  0  # atno 17371 bound_to 10713
  141.1131  133.9583  157.2872 LP  0  0  0  0  0  0  0  0  0  0  0  0  # atno 17394 bound_to 11000
  139.9422  135.0189  156.8742 LP  0  0  0  0  0  0  0  0  0  0  0  0  # atno 17395 bound_to 11000

$$$$
