AV-unprocessed.smi:1890|AV-procd|sdf|7664|dock9
  -GOLD-   22720 9403D 1   1.00000     0.00000
 Structure written by MMmdl.
 51 52  0  0  0  0  0  0  0  0  1 V2000
  152.4254  140.4361  159.1750 C   0  0  0  0  0  0  0  0  0  0  0  0
  151.0747  140.9653  158.6680 C   0  0  0  0  0  0  0  0  0  0  0  0
  151.0275  141.1202  157.2134 N   0  0  0  0  0  0  0  0  0  0  0  0
  151.0148  142.4870  156.6894 C   0  0  0  0  0  0  0  0  0  0  0  0
  151.5947  143.5055  157.6820 C   0  0  0  0  0  0  0  0  0  0  0  0
  150.3602  140.1524  156.4253 C   0  0  0  0  0  0  0  0  0  0  0  0
  149.3932  139.2699  156.9678 C   0  0  0  0  0  0  0  0  0  0  0  0
  148.7603  138.3401  156.1214 C   0  0  0  0  0  0  0  0  0  0  0  0
  149.1053  138.3003  154.7572 C   0  0  0  0  0  0  0  0  0  0  0  0
  148.4284  137.3682  153.9246 N   0  0  0  0  0  0  0  0  0  0  0  0
  147.3392  136.6310  154.2012 C   0  0  0  0  0  0  0  0  0  0  0  0
  146.6795  136.6943  155.2383 O   0  0  0  0  0  0  0  0  0  0  0  0
  147.0364  135.8155  153.1811 N   0  0  0  0  0  0  0  0  0  0  0  0
  145.9141  134.8826  153.1518 C   0  0  0  0  0  0  0  0  0  0  0  0
  146.4427  133.4414  152.9867 C   0  0  0  0  0  0  0  0  0  0  0  0
  145.2920  132.4454  152.7548 C   0  0  0  0  0  0  0  0  0  0  0  0
  144.5164  132.8849  151.5896 N   0  0  0  0  0  0  0  0  0  0  0  0
  144.5480  132.2348  150.4014 C   0  0  0  0  0  0  0  0  0  0  0  0
  143.7848  132.8165  149.2095 C   0  0  0  0  0  0  0  0  0  0  0  0
  145.1739  131.1882  150.2320 O   0  0  0  0  0  0  0  0  0  0  0  0
  143.8511  134.1697  151.8384 C   0  0  0  0  0  0  0  0  0  0  0  0
  144.9255  135.2562  152.0228 C   0  0  0  0  0  0  0  0  0  0  0  0
  150.0742  139.2248  154.3015 C   0  0  0  0  0  0  0  0  0  0  0  0
  150.6811  140.1190  155.1095 N   0  0  0  0  0  0  0  0  0  0  0  0
  152.4294  140.3800  160.2636 H   0  0  0  0  0  0  0  0  0  0  0  0
  153.2396  141.0969  158.8762 H   0  0  0  0  0  0  0  0  0  0  0  0
  152.6501  139.4395  158.7966 H   0  0  0  0  0  0  0  0  0  0  0  0
  150.2598  140.3234  159.0025 H   0  0  0  0  0  0  0  0  0  0  0  0
  150.8918  141.9357  159.1310 H   0  0  0  0  0  0  0  0  0  0  0  0
  151.5987  142.5101  155.7688 H   0  0  0  0  0  0  0  0  0  0  0  0
  150.0070  142.7832  156.3979 H   0  0  0  0  0  0  0  0  0  0  0  0
  151.5807  144.5087  157.2559 H   0  0  0  0  0  0  0  0  0  0  0  0
  152.6277  143.2690  157.9374 H   0  0  0  0  0  0  0  0  0  0  0  0
  151.0172  143.5322  158.6066 H   0  0  0  0  0  0  0  0  0  0  0  0
  149.1157  139.2941  158.0101 H   0  0  0  0  0  0  0  0  0  0  0  0
  148.0161  137.6662  156.5201 H   0  0  0  0  0  0  0  0  0  0  0  0
  148.8062  137.2683  152.9939 H   0  0  0  0  0  0  0  0  0  0  0  0
  147.6295  135.8370  152.3645 H   0  0  0  0  0  0  0  0  0  0  0  0
  145.3822  134.9294  154.1042 H   0  0  0  0  0  0  0  0  0  0  0  0
  147.1295  133.3928  152.1402 H   0  0  0  0  0  0  0  0  0  0  0  0
  147.0163  133.1492  153.8669 H   0  0  0  0  0  0  0  0  0  0  0  0
  145.6911  131.4368  152.6413 H   0  0  0  0  0  0  0  0  0  0  0  0
  144.6426  132.4102  153.6307 H   0  0  0  0  0  0  0  0  0  0  0  0
  144.1300  133.8257  148.9838 H   0  0  0  0  0  0  0  0  0  0  0  0
  142.7140  132.8432  149.4124 H   0  0  0  0  0  0  0  0  0  0  0  0
  143.9401  132.2056  148.3193 H   0  0  0  0  0  0  0  0  0  0  0  0
  143.1571  134.4619  151.0518 H   0  0  0  0  0  0  0  0  0  0  0  0
  143.2458  134.0903  152.7427 H   0  0  0  0  0  0  0  0  0  0  0  0
  144.4503  136.2134  152.2402 H   0  0  0  0  0  0  0  0  0  0  0  0
  145.4664  135.3860  151.0842 H   0  0  0  0  0  0  0  0  0  0  0  0
  150.3687  139.2847  153.2658 H   0  0  0  0  0  0  0  0  0  0  0  0
  1  2  1  0  0  0  0
  1 25  1  0  0  0  0
  1 26  1  0  0  0  0
  1 27  1  0  0  0  0
  2  3  1  0  0  0  0
  2 28  1  0  0  0  0
  2 29  1  0  0  0  0
  3  4  1  0  0  0  0
  3  6  1  0  0  0  0
  4  5  1  0  0  0  0
  4 30  1  0  0  0  0
  4 31  1  0  0  0  0
  5 32  1  0  0  0  0
  5 33  1  0  0  0  0
  5 34  1  0  0  0  0
  6 24  1  0  0  0  0
  6  7  2  0  0  0  0
  7  8  1  0  0  0  0
  7 35  1  0  0  0  0
  8  9  2  0  0  0  0
  8 36  1  0  0  0  0
  9 10  1  0  0  0  0
  9 23  1  0  0  0  0
 10 11  1  0  0  0  0
 10 37  1  0  0  0  0
 11 12  2  0  0  0  0
 11 13  1  0  0  0  0
 13 14  1  0  0  0  0
 13 38  1  0  0  0  0
 14 22  1  0  0  0  0
 14 15  1  0  0  0  0
 14 39  1  0  0  0  0
 15 16  1  0  0  0  0
 15 40  1  0  0  0  0
 15 41  1  0  0  0  0
 16 17  1  0  0  0  0
 16 42  1  0  0  0  0
 16 43  1  0  0  0  0
 17 18  1  0  0  0  0
 17 21  1  0  0  0  0
 18 19  1  0  0  0  0
 18 20  2  0  0  0  0
 19 44  1  0  0  0  0
 19 45  1  0  0  0  0
 19 46  1  0  0  0  0
 21 22  1  0  0  0  0
 21 47  1  0  0  0  0
 21 48  1  0  0  0  0
 22 49  1  0  0  0  0
 22 50  1  0  0  0  0
 23 24  2  0  0  0  0
 23 51  1  0  0  0  0
M  END
> <s_m_source_file>
AV-unprocessed.smi

> <i_m_source_file_index>
1890

> <i_lp_mmshare_version>
43012

> <i_f3d_flags>
0

> <s_epik_input>
W0NIM11bQ0gyXU4oW0NIMl1bQ0gzXSljMVtjSF1bY0hdYyhbY0hdbjEpW05IXUMoPU8pW05IXVtDSF0yW0NIMl1bQ0gyXU4oQyg9TylbQ0gzXSlbQ0gyXVtDSDJdMg==

> <s_epik_cmdline>
J2VwaWtfcHl0aG9uJywgJy1waCcsICc3LjAnLCAnLXRuJywgJzgnLCAnLW1hJywgJzIwMCcsICctbWV0YWxfYmluZGluZycsICctaW1hZScsICc8aW5maWxlLm1hZT4nLCAnLW9tYWUnLCAnPG91dGZpbGUubWFlPic=

> <r_lp_tautomer_probability>
1

> <r_epik_Ionization_Penalty>
0.700493

> <r_epik_Ionization_Penalty_Charging>
0

> <r_epik_Ionization_Penalty_Neutral>
0.700493

> <r_epik_State_Penalty>
2.19132

> <r_epik_Charging_Adjusted_Penalty>
2.19132

> <i_epik_Tot_Q>
0

> <i_epik_Tot_abs_Q>
0

> <r_epik_Metal_State_Penalty>
1.54624

> <b_epik_Metal_Only>
0

> <s_lp_Force_Field>
OPLS_2005

> <r_lp_Energy>
30.5228

> <b_lp_Chiralities_Consistent>
1

> <s_lp_Variant>
AV-unprocessed.smi:1890-2

> <Gold.Version>
5.8.1

> <Gold.Id.Protein>
6NUR|6NUR_protein|mol2

> <Gold.PLP.Fitness>
40.9701

> <Gold.PLP.PLP>
-32.7073

> <Gold.PLP.part.hbond>
-2.6322

> <Gold.PLP.part.metal>
0.0000

> <Gold.PLP.part.buried>
-2.2236

> <Gold.PLP.part.nonpolar>
-29.2302

> <Gold.PLP.part.repulsive>
0.2044

> <Gold.PLP.ligand.clash>
0.0000

> <Gold.PLP.ligand.torsion>
0.9402

> <Gold.PLP.Chemscore.Hbond>
2.0604

> <Gold.PLP.Chemscore.CHOScore>
1.0000

> <Gold.PLP.Chemscore.Metal>
0.0000

> <Gold.Chemscore.Hbonds>
donor molecule, donor type, donor heavy atom, donor atom, acceptor molecule, acceptor atom, score
      L1  H    10    37       P1  7948  0.84
      L1  H    13    38       P1  7948  0.74
      P1  H  7989  7998       L1    24  0.45
      L1  C    23    51       P1  7957  1.00

> <Gold.PLP.Chemscore.Internal.Correction>
0.9619

> <Gold.Rescore>
     Score         DG    S(hbond)    S(metal)    S(lipo)     H(rot)  DE(clash)    DE(int)     intcor
     15.11     -17.50       1.93        0.00      76.72       1.33       0.03       2.36       ----

> <Gold.Chemscore.Fitness>
15.1114

> <Gold.Chemscore.DG>
-17.4953

> <Gold.Chemscore.ZeroCoef>
-5.4800

> <Gold.Chemscore.Hbond>
1.9289

> <Gold.Chemscore.Metal>
0.0000

> <Gold.Chemscore.Lipo>
76.7189

> <Gold.Chemscore.Internal_Hbond>
0.0000

> <Gold.Chemscore.DEClash>
0.0262

> <Gold.Chemscore.DEInternal>
2.3576

> <Gold.Chemscore.Rot>
1.3294

> <Gold.Chemscore.Internal.Correction>
   9.000000E+99

> <Gold.Chemscore.Hbonds>
donor molecule, donor type, donor heavy atom, donor atom, acceptor molecule, acceptor atom, score
      L1  H    10    37       P1  7948  0.78
      L1  H    13    38       P1  7948  0.72
      P1  H  7989  7998       L1    24  0.01

> <Gold.Chemscore.Hbond.Weighted>
-6.4425

> <Gold.Chemscore.Metal.Weighted>
-0.0000

> <Gold.Chemscore.Lipo.Weighted>
-8.9761

> <Gold.Chemscore.Internal_Hbond.Weighted>
0.0000

> <Gold.Chemscore.DEClash.Weighted>
0.0262

> <Gold.Chemscore.DEInternal.Weighted>
2.3576

> <Gold.Chemscore.Rot.Weighted>
3.4034

> <Gold.Chemscore.Internal.Correction.Weighted>
   9.000000E+99

> <Gold.Protein.RotatedTorsions>
[ 6907 6896 6895 6894 ] final  117.88 input  -60.11 | X-H torsion
[ 7974 7965 7964 7962 ] final -126.65 input  175.53 | X-H torsion
[ 8008 7997 7996 7995 ] final  104.90 input   59.86 | X-H torsion
[ 10167 10162 10161 10158 ] final  -54.83 input  -65.29 | X-H torsion
[ 10718 10713 10712 10709 ] final   -1.49 input   66.30 | X-H torsion
[ 10763 10752 10751 10750 ] final  -50.43 input  -60.55 | X-H torsion
[ 11005 11000 10999 10996 ] final   99.54 input  -57.11 | X-H torsion

> <Gold.Protein.ActiveResidues>
 VAL166  LYS551  ARG553  GLY616  TRP617  ASP618  TYR619  PRO620  LYS621  CYS622 
 ASP623  PHE694  ASN695  SER759  ASP760  ASP761  ALA762  ILE779  LEU786  VAL792 
 PHE793  MET794  SER795  GLU796  ALA797  LYS798  CYS799  TRP800  GLU811  SER814 

> <Gold.Protein.RotatedAtoms>
  152.4581  133.7766  159.6827 H   0  0  0  0  0  0  0  0  0  0  0  0  # atno 6907 bound_to 6896
  150.8515  133.7769  159.3030 H   0  0  0  0  0  0  0  0  0  0  0  0  # atno 6908 bound_to 6896
  151.5363  135.1071  159.9967 H   0  0  0  0  0  0  0  0  0  0  0  0  # atno 6909 bound_to 6896
  144.9851  140.7678  143.4588 H   0  0  0  0  0  0  0  0  0  0  0  0  # atno 7974 bound_to 7965
  156.1613  140.3140  155.8812 H   0  0  0  0  0  0  0  0  0  0  0  0  # atno 8008 bound_to 7997
  155.3776  140.0486  157.3061 H   0  0  0  0  0  0  0  0  0  0  0  0  # atno 8009 bound_to 7997
  154.5149  140.2178  155.9095 H   0  0  0  0  0  0  0  0  0  0  0  0  # atno 8010 bound_to 7997
  140.6409  143.2507  151.4992 H   0  0  0  0  0  0  0  0  0  0  0  0  # atno 10167 bound_to 10162
  156.8049  130.5405  149.5716 H   0  0  0  0  0  0  0  0  0  0  0  0  # atno 10718 bound_to 10713
  154.1103  135.6550  153.4884 H   0  0  0  0  0  0  0  0  0  0  0  0  # atno 10763 bound_to 10752
  153.0259  135.5246  154.7199 H   0  0  0  0  0  0  0  0  0  0  0  0  # atno 10764 bound_to 10752
  154.6377  135.2984  155.0111 H   0  0  0  0  0  0  0  0  0  0  0  0  # atno 10765 bound_to 10752
  139.8771  134.9100  156.4622 H   0  0  0  0  0  0  0  0  0  0  0  0  # atno 11005 bound_to 11000
  145.2365  139.2091  143.5015 LP  0  0  0  0  0  0  0  0  0  0  0  0  # atno 17320 bound_to 7965
  146.3418  140.2253  142.8592 LP  0  0  0  0  0  0  0  0  0  0  0  0  # atno 17321 bound_to 7965
  139.5618  144.2138  152.1703 LP  0  0  0  0  0  0  0  0  0  0  0  0  # atno 17342 bound_to 10162
  140.1408  144.5204  150.6745 LP  0  0  0  0  0  0  0  0  0  0  0  0  # atno 17343 bound_to 10162
  156.1079  130.6018  151.0000 LP  0  0  0  0  0  0  0  0  0  0  0  0  # atno 17370 bound_to 10713
  157.6535  131.0893  150.7998 LP  0  0  0  0  0  0  0  0  0  0  0  0  # atno 17371 bound_to 10713
  140.8856  133.7886  155.9514 LP  0  0  0  0  0  0  0  0  0  0  0  0  # atno 17394 bound_to 11000
  140.8808  134.2613  157.5145 LP  0  0  0  0  0  0  0  0  0  0  0  0  # atno 17395 bound_to 11000

$$$$
