AV-unprocessed.smi:21|AV-procd|sdf|132|dock7
  -GOLD-   2262015323D 1   1.00000     0.00000
 Structure written by MMmdl.
 62 65  0  0  0  0  0  0  0  0  2 V2000
  145.3090  132.2556  150.1444 C   0  0  0  0  0  0  0  0  0  0  0  0
  144.2590  133.0730  150.6363 O   0  0  0  0  0  0  0  0  0  0  0  0
  144.5968  134.4504  150.7108 C   0  0  2  0  0  0  0  0  0  0  0  0
  145.6642  134.7515  151.7569 C   0  0  0  0  0  0  0  0  0  0  0  0
  145.4381  136.2300  152.1120 C   0  0  2  0  0  0  0  0  0  0  0  0
  145.9078  136.6059  153.5416 C   0  0  0  0  0  0  0  0  0  0  0  0
  146.3132  138.0067  153.6719 N   0  0  0  0  0  0  0  0  0  0  0  0
  146.3619  138.8063  152.4500 C   0  0  0  0  0  0  0  0  0  0  0  0
  147.1055  138.3796  154.7163 C   0  0  0  0  0  0  0  0  0  0  0  0
  147.3368  137.4828  155.7132 N   0  0  0  0  0  0  0  0  0  0  0  0
  148.0834  137.8117  156.7702 C   0  0  0  0  0  0  0  0  0  0  0  0
  148.6905  138.9688  157.0323 N   0  0  0  0  0  0  0  0  0  0  0  0
  148.4769  139.8740  156.0362 C   0  0  0  0  0  0  0  0  0  0  0  0
  147.7094  139.6663  154.8530 C   0  0  0  0  0  0  0  0  0  0  0  0
  147.7397  140.8192  154.0750 N   0  0  0  0  0  0  0  0  0  0  0  0
  148.4665  141.6581  154.7602 C   0  0  0  0  0  0  0  0  0  0  0  0
  148.9548  141.1699  155.9490 N   0  0  0  0  0  0  0  0  0  0  0  0
  149.7870  141.8852  156.9020 C   0  0  0  0  0  0  0  0  0  0  0  0
  151.3062  141.6878  156.6658 C   0  0  2  0  0  0  0  0  0  0  0  0
  151.6169  140.2488  156.1779 C   0  0  0  0  0  0  0  0  0  0  0  0
  151.2240  140.0534  154.8357 O   0  0  0  0  0  0  0  0  0  0  0  0
  152.1015  142.0605  157.9480 C   0  0  1  0  0  0  0  0  0  0  0  0
  151.9158  143.4823  158.4514 C   0  0  0  0  0  0  0  0  0  0  0  0
  152.3984  143.3896  159.8946 C   0  0  0  0  0  0  0  0  0  0  0  0
  152.0882  142.0683  160.3198 O   0  0  0  0  0  0  0  0  0  0  0  0
  151.6954  141.2779  159.2028 C   0  0  0  0  0  0  0  0  0  0  0  0
  143.9982  136.4949  151.8133 N   0  3  2  0  0  0  0  0  0  0  0  0
  143.1615  137.0850  152.8849 C   0  0  0  0  0  0  0  0  0  0  0  0
  143.4165  135.2645  151.2319 C   0  0  0  0  0  0  0  0  0  0  0  0
  144.9001  134.8340  149.7347 H   0  0  0  0  0  0  0  0  0  0  0  0
  145.9916  136.8383  151.3953 H   0  0  0  0  0  0  0  0  0  0  0  0
  144.9623  131.2251  150.0686 H   0  0  0  0  0  0  0  0  0  0  0  0
  146.1719  132.2667  150.8109 H   0  0  0  0  0  0  0  0  0  0  0  0
  145.6280  132.5759  149.1518 H   0  0  0  0  0  0  0  0  0  0  0  0
  145.4922  134.1254  152.6335 H   0  0  0  0  0  0  0  0  0  0  0  0
  146.6746  134.5551  151.3973 H   0  0  0  0  0  0  0  0  0  0  0  0
  145.0871  136.4612  154.2438 H   0  0  0  0  0  0  0  0  0  0  0  0
  146.6901  135.9292  153.8741 H   0  0  0  0  0  0  0  0  0  0  0  0
  146.2388  139.8665  152.6747 H   0  0  0  0  0  0  0  0  0  0  0  0
  145.5617  138.5196  151.7673 H   0  0  0  0  0  0  0  0  0  0  0  0
  147.3126  138.6687  151.9332 H   0  0  0  0  0  0  0  0  0  0  0  0
  148.2113  137.0372  157.5123 H   0  0  0  0  0  0  0  0  0  0  0  0
  148.6732  142.6602  154.4134 H   0  0  0  0  0  0  0  0  0  0  0  0
  149.5177  142.9388  156.8302 H   0  0  0  0  0  0  0  0  0  0  0  0
  149.5205  141.5680  157.9109 H   0  0  0  0  0  0  0  0  0  0  0  0
  151.5969  142.3785  155.8724 H   0  0  0  0  0  0  0  0  0  0  0  0
  152.6781  140.0230  156.2867 H   0  0  0  0  0  0  0  0  0  0  0  0
  151.0781  139.5013  156.7584 H   0  0  0  0  0  0  0  0  0  0  0  0
  150.5895  139.3534  154.8071 H   0  0  0  0  0  0  0  0  0  0  0  0
  153.1661  141.8968  157.7709 H   0  0  0  0  0  0  0  0  0  0  0  0
  152.4776  144.2203  157.8787 H   0  0  0  0  0  0  0  0  0  0  0  0
  150.8609  143.7602  158.4280 H   0  0  0  0  0  0  0  0  0  0  0  0
  153.4793  143.5260  159.9448 H   0  0  0  0  0  0  0  0  0  0  0  0
  151.9323  144.1359  160.5381 H   0  0  0  0  0  0  0  0  0  0  0  0
  150.6132  141.1459  159.2426 H   0  0  0  0  0  0  0  0  0  0  0  0
  152.1573  140.2913  159.2482 H   0  0  0  0  0  0  0  0  0  0  0  0
  143.1160  136.4370  153.7609 H   0  0  0  0  0  0  0  0  0  0  0  0
  142.1427  137.2305  152.5241 H   0  0  0  0  0  0  0  0  0  0  0  0
  143.5383  138.0623  153.1863 H   0  0  0  0  0  0  0  0  0  0  0  0
  142.6862  135.4906  150.4546 H   0  0  0  0  0  0  0  0  0  0  0  0
  142.9062  134.6998  152.0150 H   0  0  0  0  0  0  0  0  0  0  0  0
  144.0074  137.1738  151.0653 H   0  0  0  0  0  0  0  0  0  0  0  0
  1  2  1  0  0  0  0
  1 32  1  0  0  0  0
  1 33  1  0  0  0  0
  1 34  1  0  0  0  0
  2  3  1  0  0  0  0
  3 30  1  0  0  0  0
  3 29  1  0  0  0  0
  3  4  1  0  0  0  0
  4  5  1  0  0  0  0
  4 35  1  0  0  0  0
  4 36  1  0  0  0  0
  5 31  1  0  0  0  0
  5  6  1  0  0  0  0
  5 27  1  0  0  0  0
  6  7  1  0  0  0  0
  6 37  1  0  0  0  0
  6 38  1  0  0  0  0
  7  8  1  0  0  0  0
  7  9  1  0  0  0  0
  8 39  1  0  0  0  0
  8 40  1  0  0  0  0
  8 41  1  0  0  0  0
  9 14  1  0  0  0  0
  9 10  2  0  0  0  0
 10 11  1  0  0  0  0
 11 12  2  0  0  0  0
 11 42  1  0  0  0  0
 12 13  1  0  0  0  0
 13 17  1  0  0  0  0
 13 14  2  0  0  0  0
 14 15  1  0  0  0  0
 15 16  2  0  0  0  0
 16 17  1  0  0  0  0
 16 43  1  0  0  0  0
 17 18  1  0  0  0  0
 18 19  1  0  0  0  0
 18 44  1  0  0  0  0
 18 45  1  0  0  0  0
 19 20  1  0  0  0  0
 19 22  1  0  0  0  0
 19 46  1  0  0  0  0
 20 21  1  0  0  0  0
 20 47  1  0  0  0  0
 20 48  1  0  0  0  0
 21 49  1  0  0  0  0
 22 26  1  0  0  0  0
 22 23  1  0  0  0  0
 22 50  1  0  0  0  0
 23 24  1  0  0  0  0
 23 51  1  0  0  0  0
 23 52  1  0  0  0  0
 24 25  1  0  0  0  0
 24 53  1  0  0  0  0
 24 54  1  0  0  0  0
 25 26  1  0  0  0  0
 26 55  1  0  0  0  0
 26 56  1  0  0  0  0
 27 28  1  0  0  0  0
 27 29  1  0  0  0  0
 27 62  1  0  0  0  0
 28 57  1  0  0  0  0
 28 58  1  0  0  0  0
 28 59  1  0  0  0  0
 29 60  1  0  0  0  0
 29 61  1  0  0  0  0
M  CHG  1  27   1
M  END
> <s_m_source_file>
AV-unprocessed.smi

> <i_m_source_file_index>
21

> <i_lp_mmshare_version>
43012

> <i_f3d_flags>
0

> <s_epik_input>
W0NIM11PW0NASF0xW0NIMl1bQ0BIXShOKFtDSDNdKVtDSDJdMSlbQ0gyXU4oW0NIM10pYyhuW2NIXW4yKWMoYzIzKW5bY0hdbjNbQ0gyXVtDQEhdKFtDSDJdW09IXSlbQ0BASF00W0NIMl1bQ0gyXU9bQ0gyXTQ=

> <s_epik_cmdline>
J2VwaWtfcHl0aG9uJywgJy1waCcsICc3LjAnLCAnLXRuJywgJzgnLCAnLW1hJywgJzIwMCcsICctbWV0YWxfYmluZGluZycsICctaW1hZScsICc8aW5maWxlLm1hZT4nLCAnLW9tYWUnLCAnPG91dGZpbGUubWFlPic=

> <r_lp_tautomer_probability>
1

> <r_epik_Ionization_Penalty>
0.0157465

> <r_epik_Ionization_Penalty_Charging>
0.015354

> <r_epik_Ionization_Penalty_Neutral>
0.000392529

> <r_epik_State_Penalty>
0.0120612

> <r_epik_Charging_Adjusted_Penalty>
0.0274152

> <i_epik_Tot_Q>
1

> <i_epik_Tot_abs_Q>
1

> <r_epik_Metal_State_Penalty>
0.0121253

> <b_epik_Metal_Only>
0

> <s_lp_Force_Field>
OPLS_2005

> <r_lp_Energy>
62.0887

> <b_lp_Chiralities_Consistent>
1

> <s_lp_Variant>
AV-unprocessed.smi:21-12

> <Gold.Version>
5.8.1

> <Gold.Id.Protein>
6NUR|6NUR_protein|mol2

> <Gold.PLP.Fitness>
49.4594

> <Gold.PLP.PLP>
-42.2452

> <Gold.PLP.part.hbond>
-2.6432

> <Gold.PLP.part.metal>
0.0000

> <Gold.PLP.part.buried>
-4.5907

> <Gold.PLP.part.nonpolar>
-35.0839

> <Gold.PLP.part.repulsive>
0.3761

> <Gold.PLP.ligand.clash>
0.0000

> <Gold.PLP.ligand.torsion>
1.2974

> <Gold.PLP.Chemscore.Hbond>
2.0000

> <Gold.PLP.Chemscore.CHOScore>
0.9976

> <Gold.PLP.Chemscore.Metal>
0.0000

> <Gold.Chemscore.Hbonds>
donor molecule, donor type, donor heavy atom, donor atom, acceptor molecule, acceptor atom, score
      L1  H    27    62       P1 10171  1.00
      P1  H  7989  7998       L1    21  1.00
      L1  C    16    43       P1  8028  1.00

> <Gold.PLP.Chemscore.Internal.Correction>
0.8160

> <Gold.Rescore>
     Score         DG    S(hbond)    S(metal)    S(lipo)     H(rot)  DE(clash)    DE(int)     intcor
     11.58     -15.74       1.69        0.00     106.88       3.08       0.24       3.92       ----

> <Gold.Chemscore.Fitness>
11.5831

> <Gold.Chemscore.DG>
-15.7432

> <Gold.Chemscore.ZeroCoef>
-5.4800

> <Gold.Chemscore.Hbond>
1.6864

> <Gold.Chemscore.Metal>
0.0000

> <Gold.Chemscore.Lipo>
106.8795

> <Gold.Chemscore.Internal_Hbond>
0.0000

> <Gold.Chemscore.DEClash>
0.2360

> <Gold.Chemscore.DEInternal>
3.9241

> <Gold.Chemscore.Rot>
3.0758

> <Gold.Chemscore.Internal.Correction>
   9.000000E+99

> <Gold.Chemscore.Hbonds>
donor molecule, donor type, donor heavy atom, donor atom, acceptor molecule, acceptor atom, score
      L1  H    27    62       P1 10171  1.00
      P1  H  7989  7998       L1    21  0.98

> <Gold.Chemscore.Hbond.Weighted>
-5.6325

> <Gold.Chemscore.Metal.Weighted>
-0.0000

> <Gold.Chemscore.Lipo.Weighted>
-12.5049

> <Gold.Chemscore.Internal_Hbond.Weighted>
0.0000

> <Gold.Chemscore.DEClash.Weighted>
0.2360

> <Gold.Chemscore.DEInternal.Weighted>
3.9241

> <Gold.Chemscore.Rot.Weighted>
7.8741

> <Gold.Chemscore.Internal.Correction.Weighted>
   9.000000E+99

> <Gold.Protein.RotatedTorsions>
[ 6907 6896 6895 6894 ] final -134.15 input  -60.11 | X-H torsion
[ 7974 7965 7964 7962 ] final   41.29 input  175.53 | X-H torsion
[ 8008 7997 7996 7995 ] final  109.12 input   59.86 | X-H torsion
[ 10167 10162 10161 10158 ] final  170.22 input  -65.29 | X-H torsion
[ 10718 10713 10712 10709 ] final  145.48 input   66.30 | X-H torsion
[ 10763 10752 10751 10750 ] final -166.26 input  -60.55 | X-H torsion
[ 11005 11000 10999 10996 ] final  -74.97 input  -57.11 | X-H torsion

> <Gold.Protein.ActiveResidues>
 VAL166  LYS551  ARG553  GLY616  TRP617  ASP618  TYR619  PRO620  LYS621  CYS622 
 ASP623  PHE694  ASN695  SER759  ASP760  ASP761  ALA762  ILE779  LEU786  VAL792 
 PHE793  MET794  SER795  GLU796  ALA797  LYS798  CYS799  TRP800  GLU811  SER814 

> <Gold.Protein.RotatedAtoms>
  150.9824  133.6232  159.2720 H   0  0  0  0  0  0  0  0  0  0  0  0  # atno 6907 bound_to 6896
  151.3482  135.0877  159.9403 H   0  0  0  0  0  0  0  0  0  0  0  0  # atno 6908 bound_to 6896
  152.5220  133.9422  159.7686 H   0  0  0  0  0  0  0  0  0  0  0  0  # atno 6909 bound_to 6896
  146.0836  139.5433  142.9521 H   0  0  0  0  0  0  0  0  0  0  0  0  # atno 7974 bound_to 7965
  156.1955  140.3064  155.9418 H   0  0  0  0  0  0  0  0  0  0  0  0  # atno 8008 bound_to 7997
  155.3076  140.0449  157.3050 H   0  0  0  0  0  0  0  0  0  0  0  0  # atno 8009 bound_to 7997
  154.5504  140.2289  155.8503 H   0  0  0  0  0  0  0  0  0  0  0  0  # atno 8010 bound_to 7997
  139.5013  144.3620  151.9814 H   0  0  0  0  0  0  0  0  0  0  0  0  # atno 10167 bound_to 10162
  157.3447  131.0941  151.1052 H   0  0  0  0  0  0  0  0  0  0  0  0  # atno 10718 bound_to 10713
  154.6851  135.2961  154.9559 H   0  0  0  0  0  0  0  0  0  0  0  0  # atno 10763 bound_to 10752
  154.0540  135.6640  153.4808 H   0  0  0  0  0  0  0  0  0  0  0  0  # atno 10764 bound_to 10752
  153.0573  135.5136  154.7914 H   0  0  0  0  0  0  0  0  0  0  0  0  # atno 10765 bound_to 10752
  141.1641  133.6930  156.7446 H   0  0  0  0  0  0  0  0  0  0  0  0  # atno 11005 bound_to 11000
  145.6172  141.0329  143.1934 LP  0  0  0  0  0  0  0  0  0  0  0  0  # atno 17320 bound_to 7965
  144.7310  139.7727  143.7347 LP  0  0  0  0  0  0  0  0  0  0  0  0  # atno 17321 bound_to 7965
  140.3057  144.3596  150.6048 LP  0  0  0  0  0  0  0  0  0  0  0  0  # atno 17342 bound_to 10162
  140.5839  143.2171  151.7379 LP  0  0  0  0  0  0  0  0  0  0  0  0  # atno 17343 bound_to 10162
  157.2251  130.6499  149.5826 LP  0  0  0  0  0  0  0  0  0  0  0  0  # atno 17370 bound_to 10713
  155.9712  130.4617  150.6118 LP  0  0  0  0  0  0  0  0  0  0  0  0  # atno 17371 bound_to 10713
  140.2649  134.8438  157.3793 LP  0  0  0  0  0  0  0  0  0  0  0  0  # atno 17394 bound_to 11000
  140.1576  134.4770  155.7917 LP  0  0  0  0  0  0  0  0  0  0  0  0  # atno 17395 bound_to 11000

$$$$
