AV-unprocessed.smi:804|AV-procd|sdf|3795|dock5
  -GOLD-   22720 1233D 1   1.00000     0.00000
 Structure written by MMmdl.
 38 39  0  0  0  0  0  0  0  0  2 V2000
  146.4103  142.8408  154.1593 C   0  0  0  0  0  0  0  0  0  0  0  0
  146.8871  141.5475  154.8441 C   0  0  0  0  0  0  0  0  0  0  0  0
  145.9636  141.2391  156.0412 C   0  0  0  0  0  0  0  0  0  0  0  0
  146.8600  140.3933  153.8202 C   0  0  0  0  0  0  0  0  0  0  0  0
  148.2623  141.7852  155.3093 N   0  5  0  0  0  0  0  0  0  0  0  0
  149.4084  141.2343  154.8059 C   0  0  0  0  0  0  0  0  0  0  0  0
  149.6611  140.8927  153.6463 O   0  0  0  0  0  0  0  0  0  0  0  0
  150.4720  141.0418  155.8633 C   0  0  0  0  0  0  0  0  0  0  0  0
  150.6370  142.0294  156.7805 N   0  0  0  0  0  0  0  0  0  0  0  0
  151.5767  141.8943  157.7217 C   0  0  0  0  0  0  0  0  0  0  0  0
  151.7134  142.9316  158.6538 N   0  0  0  0  0  0  0  0  0  0  0  0
  152.8328  142.9783  159.5983 C   0  0  0  0  0  0  0  0  0  0  0  0
  152.4148  143.6677  160.9079 C   0  0  0  0  0  0  0  0  0  0  0  0
  151.8876  144.9586  160.6272 O   0  0  0  0  0  0  0  0  0  0  0  0
  150.7260  144.8819  159.8101 C   0  0  0  0  0  0  0  0  0  0  0  0
  151.0786  144.2373  158.4588 C   0  0  0  0  0  0  0  0  0  0  0  0
  152.3958  140.8427  157.8364 N   0  0  0  0  0  0  0  0  0  0  0  0
  152.2571  139.8440  156.9410 C   0  0  0  0  0  0  0  0  0  0  0  0
  151.2952  139.8845  155.9136 C   0  0  0  0  0  0  0  0  0  0  0  0
  151.1568  138.5424  154.8288 Cl  0  0  0  0  0  0  0  0  0  0  0  0
  145.3909  142.7376  153.7864 H   0  0  0  0  0  0  0  0  0  0  0  0
  147.0440  143.1006  153.3101 H   0  0  0  0  0  0  0  0  0  0  0  0
  146.4218  143.6862  154.8488 H   0  0  0  0  0  0  0  0  0  0  0  0
  145.9992  142.0338  156.7878 H   0  0  0  0  0  0  0  0  0  0  0  0
  146.2327  140.3068  156.5380 H   0  0  0  0  0  0  0  0  0  0  0  0
  144.9267  141.1403  155.7191 H   0  0  0  0  0  0  0  0  0  0  0  0
  145.8611  140.2650  153.4024 H   0  0  0  0  0  0  0  0  0  0  0  0
  147.1419  139.4407  154.2687 H   0  0  0  0  0  0  0  0  0  0  0  0
  147.5400  140.5815  152.9885 H   0  0  0  0  0  0  0  0  0  0  0  0
  153.2077  141.9843  159.8422 H   0  0  0  0  0  0  0  0  0  0  0  0
  153.6571  143.5214  159.1349 H   0  0  0  0  0  0  0  0  0  0  0  0
  151.6771  143.0684  161.4441 H   0  0  0  0  0  0  0  0  0  0  0  0
  153.2771  143.7730  161.5662 H   0  0  0  0  0  0  0  0  0  0  0  0
  149.9450  144.3145  160.3192 H   0  0  0  0  0  0  0  0  0  0  0  0
  150.3370  145.8881  159.6539 H   0  0  0  0  0  0  0  0  0  0  0  0
  151.7644  144.8791  157.9049 H   0  0  0  0  0  0  0  0  0  0  0  0
  150.1660  144.1654  157.8680 H   0  0  0  0  0  0  0  0  0  0  0  0
  152.9187  138.9975  157.0515 H   0  0  0  0  0  0  0  0  0  0  0  0
  1  2  1  0  0  0  0
  1 21  1  0  0  0  0
  1 22  1  0  0  0  0
  1 23  1  0  0  0  0
  2  3  1  0  0  0  0
  2  4  1  0  0  0  0
  2  5  1  0  0  0  0
  3 24  1  0  0  0  0
  3 25  1  0  0  0  0
  3 26  1  0  0  0  0
  4 27  1  0  0  0  0
  4 28  1  0  0  0  0
  4 29  1  0  0  0  0
  5  6  1  0  0  0  0
  6  7  2  0  0  0  0
  6  8  1  0  0  0  0
  8 19  1  0  0  0  0
  8  9  2  0  0  0  0
  9 10  1  0  0  0  0
 10 11  1  0  0  0  0
 10 17  2  0  0  0  0
 11 16  1  0  0  0  0
 11 12  1  0  0  0  0
 12 13  1  0  0  0  0
 12 30  1  0  0  0  0
 12 31  1  0  0  0  0
 13 14  1  0  0  0  0
 13 32  1  0  0  0  0
 13 33  1  0  0  0  0
 14 15  1  0  0  0  0
 15 16  1  0  0  0  0
 15 34  1  0  0  0  0
 15 35  1  0  0  0  0
 16 36  1  0  0  0  0
 16 37  1  0  0  0  0
 17 18  1  0  0  0  0
 18 19  2  0  0  0  0
 18 38  1  0  0  0  0
 19 20  1  0  0  0  0
M  CHG  1   5  -1
M  END
> <s_m_source_file>
AV-unprocessed.smi

> <i_m_source_file_index>
804

> <i_lp_mmshare_version>
43012

> <i_f3d_flags>
0

> <s_epik_input>
W0NIM11DKFtDSDNdKShbQ0gzXSlbTkhdQyg9TyljMW5jKG5bY0hdYzFDbClOMltDSDJdW0NIMl1PW0NIMl1bQ0gyXTI=

> <s_epik_cmdline>
J2VwaWtfcHl0aG9uJywgJy1waCcsICc3LjAnLCAnLXRuJywgJzgnLCAnLW1hJywgJzIwMCcsICctbWV0YWxfYmluZGluZycsICctaW1hZScsICc8aW5maWxlLm1hZT4nLCAnLW9tYWUnLCAnPG91dGZpbGUubWFlPic=

> <r_lp_tautomer_probability>
1

> <r_epik_Ionization_Penalty>
6.49938

> <r_epik_Ionization_Penalty_Charging>
6.49935

> <r_epik_Ionization_Penalty_Neutral>
2.43511e-05

> <r_epik_State_Penalty>
6.49934

> <r_epik_Charging_Adjusted_Penalty>
12.9987

> <i_epik_Tot_Q>
-1

> <i_epik_Tot_abs_Q>
1

> <r_epik_Metal_State_Penalty>
2.42664

> <b_epik_Metal_Only>
1

> <s_lp_Force_Field>
OPLS_2005

> <r_lp_Energy>
19.224

> <b_lp_Chiralities_Consistent>
1

> <s_lp_Variant>
AV-unprocessed.smi:804-2

> <Gold.Version>
5.8.1

> <Gold.Id.Protein>
6NUR|6NUR_protein|mol2

> <Gold.PLP.Fitness>
41.2680

> <Gold.PLP.PLP>
-39.1330

> <Gold.PLP.part.hbond>
-2.2427

> <Gold.PLP.part.metal>
0.0000

> <Gold.PLP.part.buried>
-6.2604

> <Gold.PLP.part.nonpolar>
-35.2757

> <Gold.PLP.part.repulsive>
4.7901

> <Gold.PLP.ligand.clash>
0.0000

> <Gold.PLP.ligand.torsion>
1.0495

> <Gold.PLP.Chemscore.Hbond>
1.3680

> <Gold.PLP.Chemscore.CHOScore>
0.0000

> <Gold.PLP.Chemscore.Metal>
0.0000

> <Gold.Chemscore.Hbonds>
donor molecule, donor type, donor heavy atom, donor atom, acceptor molecule, acceptor atom, score
      P1  H  7989  7998       L1     7  0.37
      P1  H  8011  8017       L1     7  1.00

> <Gold.PLP.Chemscore.Internal.Correction>
0.1300

> <Gold.Rescore>
     Score         DG    S(hbond)    S(metal)    S(lipo)     H(rot)  DE(clash)    DE(int)     intcor
     13.01     -17.35       1.00        0.00      94.79       1.00       1.82       2.51       ----

> <Gold.Chemscore.Fitness>
13.0126

> <Gold.Chemscore.DG>
-17.3492

> <Gold.Chemscore.ZeroCoef>
-5.4800

> <Gold.Chemscore.Hbond>
0.9997

> <Gold.Chemscore.Metal>
0.0000

> <Gold.Chemscore.Lipo>
94.7876

> <Gold.Chemscore.Internal_Hbond>
0.0000

> <Gold.Chemscore.DEClash>
1.8244

> <Gold.Chemscore.DEInternal>
2.5122

> <Gold.Chemscore.Rot>
1.0000

> <Gold.Chemscore.Internal.Correction>
   9.000000E+99

> <Gold.Chemscore.Hbonds>
donor molecule, donor type, donor heavy atom, donor atom, acceptor molecule, acceptor atom, score
      P1  H  7989  7998       L1     7  0.22
      P1  H  8011  8017       L1     7  0.83

> <Gold.Chemscore.Hbond.Weighted>
-3.3390

> <Gold.Chemscore.Metal.Weighted>
-0.0000

> <Gold.Chemscore.Lipo.Weighted>
-11.0902

> <Gold.Chemscore.Internal_Hbond.Weighted>
0.0000

> <Gold.Chemscore.DEClash.Weighted>
1.8244

> <Gold.Chemscore.DEInternal.Weighted>
2.5122

> <Gold.Chemscore.Rot.Weighted>
2.5600

> <Gold.Chemscore.Internal.Correction.Weighted>
   9.000000E+99

> <Gold.Protein.RotatedTorsions>
[ 6907 6896 6895 6894 ] final  121.09 input  -60.11 | X-H torsion
[ 7974 7965 7964 7962 ] final -166.47 input  175.53 | X-H torsion
[ 8008 7997 7996 7995 ] final  100.03 input   59.86 | X-H torsion
[ 10167 10162 10161 10158 ] final   86.27 input  -65.29 | X-H torsion
[ 10718 10713 10712 10709 ] final   11.73 input   66.30 | X-H torsion
[ 10763 10752 10751 10750 ] final -129.06 input  -60.55 | X-H torsion
[ 11005 11000 10999 10996 ] final  104.89 input  -57.11 | X-H torsion

> <Gold.Protein.ActiveResidues>
 VAL166  LYS551  ARG553  GLY616  TRP617  ASP618  TYR619  PRO620  LYS621  CYS622 
 ASP623  PHE694  ASN695  SER759  ASP760  ASP761  ALA762  ILE779  LEU786  VAL792 
 PHE793  MET794  SER795  GLU796  ALA797  LYS798  CYS799  TRP800  GLU811  SER814 

> <Gold.Protein.RotatedAtoms>
  152.4348  133.7342  159.6604 H   0  0  0  0  0  0  0  0  0  0  0  0  # atno 6907 bound_to 6896
  150.8231  133.8208  159.3136 H   0  0  0  0  0  0  0  0  0  0  0  0  # atno 6908 bound_to 6896
  151.5884  135.1057  160.0085 H   0  0  0  0  0  0  0  0  0  0  0  0  # atno 6909 bound_to 6896
  144.7244  140.2661  143.6257 H   0  0  0  0  0  0  0  0  0  0  0  0  # atno 7974 bound_to 7965
  156.1164  140.3219  155.8145 H   0  0  0  0  0  0  0  0  0  0  0  0  # atno 8008 bound_to 7997
  155.4583  140.0537  157.3011 H   0  0  0  0  0  0  0  0  0  0  0  0  # atno 8009 bound_to 7997
  154.4796  140.2047  155.9810 H   0  0  0  0  0  0  0  0  0  0  0  0  # atno 8010 bound_to 7997
  139.8892  144.6395  150.8757 H   0  0  0  0  0  0  0  0  0  0  0  0  # atno 10167 bound_to 10162
  156.9998  130.6075  149.5695 H   0  0  0  0  0  0  0  0  0  0  0  0  # atno 10718 bound_to 10713
  154.8757  135.3908  154.3858 H   0  0  0  0  0  0  0  0  0  0  0  0  # atno 10763 bound_to 10752
  153.4600  135.7029  153.6061 H   0  0  0  0  0  0  0  0  0  0  0  0  # atno 10764 bound_to 10752
  153.4564  135.3822  155.2282 H   0  0  0  0  0  0  0  0  0  0  0  0  # atno 10765 bound_to 10752
  139.8796  134.9316  156.5430 H   0  0  0  0  0  0  0  0  0  0  0  0  # atno 11005 bound_to 11000
  145.8088  139.1994  143.2005 LP  0  0  0  0  0  0  0  0  0  0  0  0  # atno 17320 bound_to 7965
  146.0613  140.7967  142.9733 LP  0  0  0  0  0  0  0  0  0  0  0  0  # atno 17321 bound_to 7965
  140.7730  143.3524  151.1989 LP  0  0  0  0  0  0  0  0  0  0  0  0  # atno 17342 bound_to 10162
  139.7125  143.9353  152.2953 LP  0  0  0  0  0  0  0  0  0  0  0  0  # atno 17343 bound_to 10162
  156.0175  130.5270  150.8178 LP  0  0  0  0  0  0  0  0  0  0  0  0  # atno 17370 bound_to 10713
  157.5398  131.0940  150.9843 LP  0  0  0  0  0  0  0  0  0  0  0  0  # atno 17371 bound_to 10713
  140.8296  133.8289  155.8972 LP  0  0  0  0  0  0  0  0  0  0  0  0  # atno 17394 bound_to 11000
  140.9341  134.1984  157.4844 LP  0  0  0  0  0  0  0  0  0  0  0  0  # atno 17395 bound_to 11000

$$$$
