AV-unprocessed.smi:1275|AV-procd|sdf|5342|dock9
  -GOLD-   22720 4473D 1   1.00000     0.00000
 Structure written by MMmdl.
 42 43  0  0  0  0  0  0  0  0  1 V2000
  151.6763  131.2085  164.3037 C   0  0  0  0  0  0  0  0  0  0  0  0
  153.0773  131.4117  164.2519 O   0  0  0  0  0  0  0  0  0  0  0  0
  153.5069  131.9132  162.9972 C   0  0  0  0  0  0  0  0  0  0  0  0
  153.9367  133.3740  163.1606 C   0  0  0  0  0  0  0  0  0  0  0  0
  154.2488  133.9083  161.8775 O   0  0  0  0  0  0  0  0  0  0  0  0
  154.1874  135.2751  161.6999 C   0  0  0  0  0  0  0  0  0  0  0  0
  154.3705  135.7945  160.4030 C   0  0  0  0  0  0  0  0  0  0  0  0
  154.3027  137.1876  160.2109 C   0  0  0  0  0  0  0  0  0  0  0  0
  154.0450  138.0197  161.3260 C   0  0  0  0  0  0  0  0  0  0  0  0
  153.9708  139.4373  161.2648 N   0  0  0  0  0  0  0  0  0  0  0  0
  153.8240  140.2273  160.1828 C   0  0  0  0  0  0  0  0  0  0  0  0
  153.7431  139.7917  159.0340 O   0  0  0  0  0  0  0  0  0  0  0  0
  153.7771  141.5541  160.4652 N   0  0  0  0  0  0  0  0  0  0  0  0
  153.6779  142.1726  161.7954 C   0  0  0  0  0  0  0  0  0  0  0  0
  152.2850  142.8141  161.9240 C   0  0  0  0  0  0  0  0  0  0  0  0
  152.0976  143.7671  160.8801 O   0  0  0  0  0  0  0  0  0  0  0  0
  152.2227  143.2102  159.5723 C   0  0  1  0  0  0  0  0  0  0  0  0
  151.9812  144.3267  158.5505 C   0  0  0  0  0  0  0  0  0  0  0  0
  153.6215  142.5771  159.4267 C   0  0  0  0  0  0  0  0  0  0  0  0
  153.8960  137.4025  162.5849 C   0  0  0  0  0  0  0  0  0  0  0  0
  153.9574  136.0679  162.7758 N   0  0  0  0  0  0  0  0  0  0  0  0
  151.3982  130.8260  165.2854 H   0  0  0  0  0  0  0  0  0  0  0  0
  151.3554  130.4824  163.5558 H   0  0  0  0  0  0  0  0  0  0  0  0
  151.1358  132.1418  164.1406 H   0  0  0  0  0  0  0  0  0  0  0  0
  154.3270  131.3161  162.5955 H   0  0  0  0  0  0  0  0  0  0  0  0
  152.6807  131.8557  162.2871 H   0  0  0  0  0  0  0  0  0  0  0  0
  153.1134  133.9412  163.5977 H   0  0  0  0  0  0  0  0  0  0  0  0
  154.7889  133.4417  163.8389 H   0  0  0  0  0  0  0  0  0  0  0  0
  154.5628  135.1354  159.5694 H   0  0  0  0  0  0  0  0  0  0  0  0
  154.4624  137.5874  159.2216 H   0  0  0  0  0  0  0  0  0  0  0  0
  153.9490  139.9084  162.1575 H   0  0  0  0  0  0  0  0  0  0  0  0
  153.8413  141.4840  162.6238 H   0  0  0  0  0  0  0  0  0  0  0  0
  154.4502  142.9368  161.8932 H   0  0  0  0  0  0  0  0  0  0  0  0
  151.5014  142.0560  161.8828 H   0  0  0  0  0  0  0  0  0  0  0  0
  152.1899  143.3208  162.8842 H   0  0  0  0  0  0  0  0  0  0  0  0
  151.4570  142.4439  159.4389 H   0  0  0  0  0  0  0  0  0  0  0  0
  152.0534  143.9476  157.5308 H   0  0  0  0  0  0  0  0  0  0  0  0
  152.7108  145.1290  158.6625 H   0  0  0  0  0  0  0  0  0  0  0  0
  150.9882  144.7596  158.6740 H   0  0  0  0  0  0  0  0  0  0  0  0
  154.3967  143.3355  159.5472 H   0  0  0  0  0  0  0  0  0  0  0  0
  153.7486  142.1790  158.4191 H   0  0  0  0  0  0  0  0  0  0  0  0
  153.7141  137.9971  163.4684 H   0  0  0  0  0  0  0  0  0  0  0  0
  1  2  1  0  0  0  0
  1 22  1  0  0  0  0
  1 23  1  0  0  0  0
  1 24  1  0  0  0  0
  2  3  1  0  0  0  0
  3  4  1  0  0  0  0
  3 25  1  0  0  0  0
  3 26  1  0  0  0  0
  4  5  1  0  0  0  0
  4 27  1  0  0  0  0
  4 28  1  0  0  0  0
  5  6  1  0  0  0  0
  6 21  1  0  0  0  0
  6  7  2  0  0  0  0
  7  8  1  0  0  0  0
  7 29  1  0  0  0  0
  8  9  2  0  0  0  0
  8 30  1  0  0  0  0
  9 10  1  0  0  0  0
  9 20  1  0  0  0  0
 10 11  1  0  0  0  0
 10 31  1  0  0  0  0
 11 12  2  0  0  0  0
 11 13  1  0  0  0  0
 13 19  1  0  0  0  0
 13 14  1  0  0  0  0
 14 15  1  0  0  0  0
 14 32  1  0  0  0  0
 14 33  1  0  0  0  0
 15 16  1  0  0  0  0
 15 34  1  0  0  0  0
 15 35  1  0  0  0  0
 16 17  1  0  0  0  0
 17 18  1  0  0  0  0
 17 19  1  0  0  0  0
 17 36  1  0  0  0  0
 18 37  1  0  0  0  0
 18 38  1  0  0  0  0
 18 39  1  0  0  0  0
 19 40  1  0  0  0  0
 19 41  1  0  0  0  0
 20 21  2  0  0  0  0
 20 42  1  0  0  0  0
M  END
> <s_m_source_file>
AV-unprocessed.smi

> <i_m_source_file_index>
1275

> <i_lp_mmshare_version>
43012

> <i_f3d_flags>
0

> <s_epik_input>
W0NIM11PW0NIMl1bQ0gyXU9jMVtjSF1bY0hdYyhbY0hdbjEpW05IXUMoPU8pTjJbQ0gyXVtDSDJdT1tDQEBIXShbQ0gzXSlbQ0gyXTI=

> <s_epik_cmdline>
J2VwaWtfcHl0aG9uJywgJy1waCcsICc3LjAnLCAnLXRuJywgJzgnLCAnLW1hJywgJzIwMCcsICctbWV0YWxfYmluZGluZycsICctaW1hZScsICc8aW5maWxlLm1hZT4nLCAnLW9tYWUnLCAnPG91dGZpbGUubWFlPic=

> <r_lp_tautomer_probability>
1

> <r_epik_Ionization_Penalty>
5.69099e-05

> <r_epik_Ionization_Penalty_Charging>
0

> <r_epik_Ionization_Penalty_Neutral>
5.69099e-05

> <r_epik_State_Penalty>
-0

> <r_epik_Charging_Adjusted_Penalty>
0

> <i_epik_Tot_Q>
0

> <i_epik_Tot_abs_Q>
0

> <r_epik_Metal_State_Penalty>
-0

> <b_epik_Metal_Only>
0

> <s_lp_Force_Field>
OPLS_2005

> <r_lp_Energy>
32.9839

> <b_lp_Chiralities_Consistent>
1

> <s_lp_Variant>
AV-unprocessed.smi:1275-1

> <Gold.Version>
5.8.1

> <Gold.Id.Protein>
6NUR|6NUR_protein|mol2

> <Gold.PLP.Fitness>
42.3119

> <Gold.PLP.PLP>
-40.3829

> <Gold.PLP.part.hbond>
-1.0000

> <Gold.PLP.part.metal>
0.0000

> <Gold.PLP.part.buried>
-5.0755

> <Gold.PLP.part.nonpolar>
-34.1417

> <Gold.PLP.part.repulsive>
0.1320

> <Gold.PLP.ligand.clash>
0.0000

> <Gold.PLP.ligand.torsion>
0.5820

> <Gold.PLP.Chemscore.Hbond>
1.0000

> <Gold.PLP.Chemscore.CHOScore>
0.0000

> <Gold.PLP.Chemscore.Metal>
0.0000

> <Gold.Chemscore.Hbonds>
donor molecule, donor type, donor heavy atom, donor atom, acceptor molecule, acceptor atom, score
      P1  H  7997  8009       L1    12  0.75

> <Gold.PLP.Chemscore.Internal.Correction>
0.0930

> <Gold.Rescore>
     Score         DG    S(hbond)    S(metal)    S(lipo)     H(rot)  DE(clash)    DE(int)     intcor
     14.31     -16.30       0.98        0.00      99.83       1.62       0.13       1.85       ----

> <Gold.Chemscore.Fitness>
14.3136

> <Gold.Chemscore.DG>
-16.3000

> <Gold.Chemscore.ZeroCoef>
-5.4800

> <Gold.Chemscore.Hbond>
0.9824

> <Gold.Chemscore.Metal>
0.0000

> <Gold.Chemscore.Lipo>
99.8326

> <Gold.Chemscore.Internal_Hbond>
0.0000

> <Gold.Chemscore.DEClash>
0.1334

> <Gold.Chemscore.DEInternal>
1.8531

> <Gold.Chemscore.Rot>
1.6178

> <Gold.Chemscore.Internal.Correction>
   9.000000E+99

> <Gold.Chemscore.Hbonds>
donor molecule, donor type, donor heavy atom, donor atom, acceptor molecule, acceptor atom, score
      P1  H  7997  8009       L1    12  0.73

> <Gold.Chemscore.Hbond.Weighted>
-3.2813

> <Gold.Chemscore.Metal.Weighted>
-0.0000

> <Gold.Chemscore.Lipo.Weighted>
-11.6804

> <Gold.Chemscore.Internal_Hbond.Weighted>
0.0000

> <Gold.Chemscore.DEClash.Weighted>
0.1334

> <Gold.Chemscore.DEInternal.Weighted>
1.8531

> <Gold.Chemscore.Rot.Weighted>
4.1416

> <Gold.Chemscore.Internal.Correction.Weighted>
   9.000000E+99

> <Gold.Protein.RotatedTorsions>
[ 6907 6896 6895 6894 ] final  127.39 input  -60.11 | X-H torsion
[ 7974 7965 7964 7962 ] final   46.75 input  175.53 | X-H torsion
[ 8008 7997 7996 7995 ] final  129.67 input   59.86 | X-H torsion
[ 10167 10162 10161 10158 ] final   -7.50 input  -65.29 | X-H torsion
[ 10718 10713 10712 10709 ] final -126.92 input   66.30 | X-H torsion
[ 10763 10752 10751 10750 ] final  109.46 input  -60.55 | X-H torsion
[ 11005 11000 10999 10996 ] final  -17.92 input  -57.11 | X-H torsion

> <Gold.Protein.ActiveResidues>
 VAL166  LYS551  ARG553  GLY616  TRP617  ASP618  TYR619  PRO620  LYS621  CYS622 
 ASP623  PHE694  ASN695  SER759  ASP760  ASP761  ALA762  ILE779  LEU786  VAL792 
 PHE793  MET794  SER795  GLU796  ALA797  LYS798  CYS799  TRP800  GLU811  SER814 

> <Gold.Protein.RotatedAtoms>
  152.3817  133.6555  159.6165 H   0  0  0  0  0  0  0  0  0  0  0  0  # atno 6907 bound_to 6896
  150.7746  133.9103  159.3376 H   0  0  0  0  0  0  0  0  0  0  0  0  # atno 6908 bound_to 6896
  151.6908  135.0948  160.0284 H   0  0  0  0  0  0  0  0  0  0  0  0  # atno 6909 bound_to 6896
  146.0361  139.4822  142.9807 H   0  0  0  0  0  0  0  0  0  0  0  0  # atno 7974 bound_to 7965
  156.2940  140.2614  156.2637 H   0  0  0  0  0  0  0  0  0  0  0  0  # atno 8008 bound_to 7997
  154.9763  140.0390  157.2276 H   0  0  0  0  0  0  0  0  0  0  0  0  # atno 8009 bound_to 7997
  154.7813  140.2795  155.6066 H   0  0  0  0  0  0  0  0  0  0  0  0  # atno 8010 bound_to 7997
  140.7031  143.6074  150.8738 H   0  0  0  0  0  0  0  0  0  0  0  0  # atno 10167 bound_to 10162
  156.1809  130.6731  151.0303 H   0  0  0  0  0  0  0  0  0  0  0  0  # atno 10718 bound_to 10713
  153.4350  135.3779  155.2193 H   0  0  0  0  0  0  0  0  0  0  0  0  # atno 10763 bound_to 10752
  154.8751  135.3849  154.4222 H   0  0  0  0  0  0  0  0  0  0  0  0  # atno 10764 bound_to 10752
  153.4759  135.7087  153.6029 H   0  0  0  0  0  0  0  0  0  0  0  0  # atno 10765 bound_to 10752
  140.8216  133.8064  155.9665 H   0  0  0  0  0  0  0  0  0  0  0  0  # atno 11005 bound_to 11000
  145.6962  141.0150  143.1529 LP  0  0  0  0  0  0  0  0  0  0  0  0  # atno 17320 bound_to 7965
  144.7052  139.8590  143.7432 LP  0  0  0  0  0  0  0  0  0  0  0  0  # atno 17321 bound_to 7965
  139.9797  143.5965  152.2947 LP  0  0  0  0  0  0  0  0  0  0  0  0  # atno 17342 bound_to 10162
  139.6581  144.7662  151.2015 LP  0  0  0  0  0  0  0  0  0  0  0  0  # atno 17343 bound_to 10162
  157.6867  131.0822  150.7222 LP  0  0  0  0  0  0  0  0  0  0  0  0  # atno 17370 bound_to 10713
  156.7279  130.4700  149.5507 LP  0  0  0  0  0  0  0  0  0  0  0  0  # atno 17371 bound_to 10713
  140.9093  134.2281  157.4995 LP  0  0  0  0  0  0  0  0  0  0  0  0  # atno 17394 bound_to 11000
  139.8708  134.9742  156.4839 LP  0  0  0  0  0  0  0  0  0  0  0  0  # atno 17395 bound_to 11000

$$$$
