AV-unprocessed.smi:1443|AV-procd|sdf|5878|dock7
  -GOLD-   22720 5553D 1   1.00000     0.00000
 Structure written by MMmdl.
 27 28  0  0  0  0  0  0  0  0  1 V2000
  146.0946  138.4634  151.9882 C   0  0  0  0  0  0  0  0  0  0  0  0
  146.7342  140.1591  151.9975 S   0  0  0  0  0  0  0  0  0  0  0  0
  147.8374  140.2626  153.3702 C   0  0  0  0  0  0  0  0  0  0  0  0
  148.3542  139.1441  153.9101 N   0  0  0  0  0  0  0  0  0  0  0  0
  149.3706  139.5817  155.1868 S   0  0  0  0  0  0  0  0  0  0  0  0
  149.0400  141.2664  154.9127 C   0  0  0  0  0  0  0  0  0  0  0  0
  149.6357  142.2942  155.6998 N   0  0  0  0  0  0  0  0  0  0  0  0
  150.6398  142.2590  156.6016 C   0  0  0  0  0  0  0  0  0  0  0  0
  151.2137  141.2045  156.8682 O   0  0  0  0  0  0  0  0  0  0  0  0
  150.9621  143.4290  157.1750 N   0  0  0  0  0  0  0  0  0  0  0  0
  152.0034  143.6323  158.1304 C   0  0  1  0  0  0  0  0  0  0  0  0
  152.5549  145.0356  158.2609 C   0  0  0  0  0  0  0  0  0  0  0  0
  151.7146  144.4597  159.3695 C   0  0  1  0  0  0  0  0  0  0  0  0
  150.3351  145.0144  159.6636 C   0  0  0  0  0  0  0  0  0  0  0  0
  148.1917  141.4478  153.8998 N   0  0  0  0  0  0  0  0  0  0  0  0
  145.3611  138.3431  151.1912 H   0  0  0  0  0  0  0  0  0  0  0  0
  145.6156  138.2274  152.9386 H   0  0  0  0  0  0  0  0  0  0  0  0
  146.9062  137.7568  151.8184 H   0  0  0  0  0  0  0  0  0  0  0  0
  149.2125  143.2038  155.5843 H   0  0  0  0  0  0  0  0  0  0  0  0
  150.4344  144.2450  156.8993 H   0  0  0  0  0  0  0  0  0  0  0  0
  152.7278  142.8281  158.2511 H   0  0  0  0  0  0  0  0  0  0  0  0
  153.6227  145.1397  158.4428 H   0  0  0  0  0  0  0  0  0  0  0  0
  152.1125  145.8140  157.6418 H   0  0  0  0  0  0  0  0  0  0  0  0
  152.2531  144.1567  160.2655 H   0  0  0  0  0  0  0  0  0  0  0  0
  149.8496  145.3621  158.7527 H   0  0  0  0  0  0  0  0  0  0  0  0
  150.4103  145.8535  160.3554 H   0  0  0  0  0  0  0  0  0  0  0  0
  149.7114  144.2443  160.1172 H   0  0  0  0  0  0  0  0  0  0  0  0
  1  2  1  0  0  0  0
  1 16  1  0  0  0  0
  1 17  1  0  0  0  0
  1 18  1  0  0  0  0
  2  3  1  0  0  0  0
  3 15  1  0  0  0  0
  3  4  2  0  0  0  0
  4  5  1  0  0  0  0
  5  6  1  0  0  0  0
  6  7  1  0  0  0  0
  6 15  2  0  0  0  0
  7  8  1  0  0  0  0
  7 19  1  0  0  0  0
  8  9  2  0  0  0  0
  8 10  1  0  0  0  0
 10 11  1  0  0  0  0
 10 20  1  0  0  0  0
 11 13  1  0  0  0  0
 11 12  1  0  0  0  0
 11 21  1  0  0  0  0
 12 13  1  0  0  0  0
 12 22  1  0  0  0  0
 12 23  1  0  0  0  0
 13 14  1  0  0  0  0
 13 24  1  0  0  0  0
 14 25  1  0  0  0  0
 14 26  1  0  0  0  0
 14 27  1  0  0  0  0
M  END
> <s_m_source_file>
AV-unprocessed.smi

> <i_m_source_file_index>
1443

> <i_lp_mmshare_version>
43012

> <i_f3d_flags>
0

> <s_epik_input>
W0NIM11TYzFuc2MobjEpW05IXUMoPU8pW05IXVtDQEBIXTJbQ0gyXVtDQEhdMltDSDNd

> <s_epik_cmdline>
J2VwaWtfcHl0aG9uJywgJy1waCcsICc3LjAnLCAnLXRuJywgJzgnLCAnLW1hJywgJzIwMCcsICctbWV0YWxfYmluZGluZycsICctaW1hZScsICc8aW5maWxlLm1hZT4nLCAnLW9tYWUnLCAnPG91dGZpbGUubWFlPic=

> <r_lp_tautomer_probability>
1

> <r_epik_Ionization_Penalty>
2.74658e-05

> <r_epik_Ionization_Penalty_Charging>
0

> <r_epik_Ionization_Penalty_Neutral>
2.74658e-05

> <r_epik_State_Penalty>
-0

> <r_epik_Charging_Adjusted_Penalty>
0

> <i_epik_Tot_Q>
0

> <i_epik_Tot_abs_Q>
0

> <r_epik_Metal_State_Penalty>
-0

> <b_epik_Metal_Only>
0

> <s_lp_Force_Field>
OPLS_2005

> <r_lp_Energy>
21.211

> <b_lp_Chiralities_Consistent>
1

> <s_lp_Variant>
AV-unprocessed.smi:1443-2

> <Gold.Version>
5.8.1

> <Gold.Id.Protein>
6NUR|6NUR_protein|mol2

> <Gold.PLP.Fitness>
35.7947

> <Gold.PLP.PLP>
-30.4015

> <Gold.PLP.part.hbond>
-2.7931

> <Gold.PLP.part.metal>
0.0000

> <Gold.PLP.part.buried>
2.6952

> <Gold.PLP.part.nonpolar>
-32.0089

> <Gold.PLP.part.repulsive>
1.6262

> <Gold.PLP.ligand.clash>
0.0000

> <Gold.PLP.ligand.torsion>
0.5483

> <Gold.PLP.Chemscore.Hbond>
2.1510

> <Gold.PLP.Chemscore.CHOScore>
0.0000

> <Gold.PLP.Chemscore.Metal>
0.0000

> <Gold.Chemscore.Hbonds>
donor molecule, donor type, donor heavy atom, donor atom, acceptor molecule, acceptor atom, score
      L1  H     7    19       P1  8028  1.00
      L1  H    10    20       P1  8028  0.80

> <Gold.PLP.Chemscore.Internal.Correction>
0.0368

> <Gold.Rescore>
     Score         DG    S(hbond)    S(metal)    S(lipo)     H(rot)  DE(clash)    DE(int)     intcor
     13.97     -16.64       1.92        0.00      68.44       1.27       1.05       1.62       ----

> <Gold.Chemscore.Fitness>
13.9720

> <Gold.Chemscore.DG>
-16.6403

> <Gold.Chemscore.ZeroCoef>
-5.4800

> <Gold.Chemscore.Hbond>
1.9172

> <Gold.Chemscore.Metal>
0.0000

> <Gold.Chemscore.Lipo>
68.4426

> <Gold.Chemscore.Internal_Hbond>
0.0000

> <Gold.Chemscore.DEClash>
1.0485

> <Gold.Chemscore.DEInternal>
1.6198

> <Gold.Chemscore.Rot>
1.2699

> <Gold.Chemscore.Internal.Correction>
   9.000000E+99

> <Gold.Chemscore.Hbonds>
donor molecule, donor type, donor heavy atom, donor atom, acceptor molecule, acceptor atom, score
      L1  H     7    19       P1  8028  0.95
      L1  H    10    20       P1  8028  0.73

> <Gold.Chemscore.Hbond.Weighted>
-6.4034

> <Gold.Chemscore.Metal.Weighted>
-0.0000

> <Gold.Chemscore.Lipo.Weighted>
-8.0078

> <Gold.Chemscore.Internal_Hbond.Weighted>
0.0000

> <Gold.Chemscore.DEClash.Weighted>
1.0485

> <Gold.Chemscore.DEInternal.Weighted>
1.6198

> <Gold.Chemscore.Rot.Weighted>
3.2509

> <Gold.Chemscore.Internal.Correction.Weighted>
   9.000000E+99

> <Gold.Protein.RotatedTorsions>
[ 6907 6896 6895 6894 ] final  157.70 input  -60.11 | X-H torsion
[ 7974 7965 7964 7962 ] final  162.79 input  175.53 | X-H torsion
[ 8008 7997 7996 7995 ] final   39.80 input   59.86 | X-H torsion
[ 10167 10162 10161 10158 ] final  -67.31 input  -65.29 | X-H torsion
[ 10718 10713 10712 10709 ] final -157.63 input   66.30 | X-H torsion
[ 10763 10752 10751 10750 ] final  -89.01 input  -60.55 | X-H torsion
[ 11005 11000 10999 10996 ] final -120.82 input  -57.11 | X-H torsion

> <Gold.Protein.ActiveResidues>
 VAL166  LYS551  ARG553  GLY616  TRP617  ASP618  TYR619  PRO620  LYS621  CYS622 
 ASP623  PHE694  ASN695  SER759  ASP760  ASP761  ALA762  ILE779  LEU786  VAL792 
 PHE793  MET794  SER795  GLU796  ALA797  LYS798  CYS799  TRP800  GLU811  SER814 

> <Gold.Protein.RotatedAtoms>
  152.0112  133.3862  159.4220 H   0  0  0  0  0  0  0  0  0  0  0  0  # atno 6907 bound_to 6896
  150.6899  134.3728  159.5009 H   0  0  0  0  0  0  0  0  0  0  0  0  # atno 6908 bound_to 6896
  152.1489  134.9003  160.0600 H   0  0  0  0  0  0  0  0  0  0  0  0  # atno 6909 bound_to 6896
  144.7620  139.8090  143.6329 H   0  0  0  0  0  0  0  0  0  0  0  0  # atno 7974 bound_to 7965
  155.2426  140.3346  155.4290 H   0  0  0  0  0  0  0  0  0  0  0  0  # atno 8008 bound_to 7997
  156.2249  140.1825  156.7431 H   0  0  0  0  0  0  0  0  0  0  0  0  # atno 8009 bound_to 7997
  154.5884  140.0642  156.9189 H   0  0  0  0  0  0  0  0  0  0  0  0  # atno 8010 bound_to 7997
  140.5592  143.2312  151.6761 H   0  0  0  0  0  0  0  0  0  0  0  0  # atno 10167 bound_to 10162
  156.5429  130.8571  151.2755 H   0  0  0  0  0  0  0  0  0  0  0  0  # atno 10718 bound_to 10713
  154.6507  135.5356  153.7898 H   0  0  0  0  0  0  0  0  0  0  0  0  # atno 10763 bound_to 10752
  153.0384  135.6481  154.1022 H   0  0  0  0  0  0  0  0  0  0  0  0  # atno 10764 bound_to 10752
  154.0939  135.2938  155.3246 H   0  0  0  0  0  0  0  0  0  0  0  0  # atno 10765 bound_to 10752
  141.0115  134.0257  157.3407 H   0  0  0  0  0  0  0  0  0  0  0  0  # atno 11005 bound_to 11000
  146.1692  139.4836  142.9938 LP  0  0  0  0  0  0  0  0  0  0  0  0  # atno 17320 bound_to 7965
  145.6589  141.0245  143.1719 LP  0  0  0  0  0  0  0  0  0  0  0  0  # atno 17321 bound_to 7965
  139.5062  144.3690  152.0488 LP  0  0  0  0  0  0  0  0  0  0  0  0  # atno 17342 bound_to 10162
  140.2815  144.3854  150.6117 LP  0  0  0  0  0  0  0  0  0  0  0  0  # atno 17343 bound_to 10162
  157.7402  130.9845  150.2361 LP  0  0  0  0  0  0  0  0  0  0  0  0  # atno 17370 bound_to 10713
  156.2954  130.3751  149.7801 LP  0  0  0  0  0  0  0  0  0  0  0  0  # atno 17371 bound_to 10713
  139.9093  135.0186  156.7621 LP  0  0  0  0  0  0  0  0  0  0  0  0  # atno 17394 bound_to 11000
  140.6725  133.9546  155.7864 LP  0  0  0  0  0  0  0  0  0  0  0  0  # atno 17395 bound_to 11000

$$$$
