AV-unprocessed.smi:35|AV-procd|sdf|276|dock2
  -GOLD-   2262016 43D 1   1.00000     0.00000
 Structure written by MMmdl.
 28 29  0  0  0  0  0  0  0  0  2 V2000
  152.7880  135.7871  156.7810 O   0  0  0  0  0  0  0  0  0  0  0  0
  152.4418  136.9437  156.5468 C   0  0  0  0  0  0  0  0  0  0  0  0
  152.9174  137.6595  155.4868 N   0  5  0  0  0  0  0  0  0  0  0  0
  152.5250  138.9416  155.2270 C   0  0  0  0  0  0  0  0  0  0  0  0
  152.9691  139.6046  154.2894 O   0  0  0  0  0  0  0  0  0  0  0  0
  151.5667  139.5531  156.0811 N   0  0  0  0  0  0  0  0  0  0  0  0
  151.1285  140.9738  155.8074 C   0  0  1  0  0  0  0  0  0  0  0  0
  150.4567  141.0162  154.5810 O   0  0  0  0  0  0  0  0  0  0  0  0
  149.1914  141.6515  154.7314 C   0  0  1  0  0  0  0  0  0  0  0  0
  148.2191  141.0936  153.6796 C   0  0  0  0  0  0  0  0  0  0  0  0
  148.4150  139.7064  153.5042 O   0  0  0  0  0  0  0  0  0  0  0  0
  148.8151  141.3550  156.1846 C   0  0  2  0  0  0  0  0  0  0  0  0
  147.8506  142.2431  156.7170 O   0  0  0  0  0  0  0  0  0  0  0  0
  150.1571  141.4483  156.8998 C   0  0  2  0  0  0  0  0  0  0  0  0
  150.4722  142.7663  157.3108 O   0  0  0  0  0  0  0  0  0  0  0  0
  151.0834  138.8599  157.1781 C   0  0  0  0  0  0  0  0  0  0  0  0
  151.4822  137.5975  157.4330 C   0  0  0  0  0  0  0  0  0  0  0  0
  150.7103  136.7276  159.0374 Br  0  0  0  0  0  0  0  0  0  0  0  0
  152.0427  141.5650  155.7313 H   0  0  0  0  0  0  0  0  0  0  0  0
  149.3437  142.7228  154.5875 H   0  0  0  0  0  0  0  0  0  0  0  0
  147.1903  141.2497  154.0047 H   0  0  0  0  0  0  0  0  0  0  0  0
  148.3354  141.6076  152.7250 H   0  0  0  0  0  0  0  0  0  0  0  0
  148.7193  139.5546  152.6227 H   0  0  0  0  0  0  0  0  0  0  0  0
  148.4387  140.3341  156.2640 H   0  0  0  0  0  0  0  0  0  0  0  0
  148.1422  143.1268  156.5511 H   0  0  0  0  0  0  0  0  0  0  0  0
  150.1948  140.7984  157.7755 H   0  0  0  0  0  0  0  0  0  0  0  0
  149.9192  143.3646  156.8311 H   0  0  0  0  0  0  0  0  0  0  0  0
  150.3808  139.3296  157.8496 H   0  0  0  0  0  0  0  0  0  0  0  0
  1  2  2  0  0  0  0
  2 17  1  0  0  0  0
  2  3  1  0  0  0  0
  3  4  1  0  0  0  0
  4  5  2  0  0  0  0
  4  6  1  0  0  0  0
  6  7  1  0  0  0  0
  6 16  1  0  0  0  0
  7 14  1  0  0  0  0
  7  8  1  0  0  0  0
  7 19  1  0  0  0  0
  8  9  1  0  0  0  0
  9 10  1  0  0  0  0
  9 12  1  0  0  0  0
  9 20  1  0  0  0  0
 10 11  1  0  0  0  0
 10 21  1  0  0  0  0
 10 22  1  0  0  0  0
 11 23  1  0  0  0  0
 12 13  1  0  0  0  0
 12 14  1  0  0  0  0
 12 24  1  0  0  0  0
 13 25  1  0  0  0  0
 14 15  1  0  0  0  0
 14 26  1  0  0  0  0
 15 27  1  0  0  0  0
 16 17  2  0  0  0  0
 16 28  1  0  0  0  0
 17 18  1  0  0  0  0
M  CHG  1   3  -1
M  END
> <s_m_source_file>
AV-unprocessed.smi

> <i_m_source_file_index>
35

> <i_lp_mmshare_version>
43012

> <i_f3d_flags>
0

> <s_epik_input>
Tz1jMVtuSF1jKD1PKW4oW2NIXWMxQnIpW0NAQEhdMk9bQ0BASF0oW0NIMl1bT0hdKVtDQEBIXShbT0hdKVtDQEhdMltPSF0=

> <s_epik_cmdline>
J2VwaWtfcHl0aG9uJywgJy1waCcsICc3LjAnLCAnLXRuJywgJzgnLCAnLW1hJywgJzIwMCcsICctbWV0YWxfYmluZGluZycsICctaW1hZScsICc8aW5maWxlLm1hZT4nLCAnLW9tYWUnLCAnPG91dGZpbGUubWFlPic=

> <r_epik_Ionization_Penalty>
1.06112

> <r_epik_Ionization_Penalty_Charging>
2.1796e-09

> <r_epik_Ionization_Penalty_Neutral>
1.06112

> <r_epik_State_Penalty>
1.11484

> <r_epik_Charging_Adjusted_Penalty>
1.11484

> <i_epik_Tot_Q>
-1

> <i_epik_Tot_abs_Q>
1

> <r_epik_Metal_State_Penalty>
0.0032876

> <b_epik_Metal_Only>
0

> <s_epik_Chemistry_Notes>
This compound contains an acetal/aminal-like group ( X-CH(R)-Y where X, Y are N, S, or O) that may be acid/base labile, releasing an aldehyde.

> <s_lp_Force_Field>
OPLS_2005

> <r_lp_Energy>
40.7288

> <b_lp_Chiralities_Consistent>
1

> <s_lp_Variant>
AV-unprocessed.smi:35-30

> <Gold.Version>
5.8.1

> <Gold.Id.Protein>
6NUR|6NUR_protein|mol2

> <Gold.PLP.Fitness>
40.6852

> <Gold.PLP.PLP>
-25.4464

> <Gold.PLP.part.hbond>
-7.1901

> <Gold.PLP.part.metal>
0.0000

> <Gold.PLP.part.buried>
2.8850

> <Gold.PLP.part.nonpolar>
-19.3477

> <Gold.PLP.part.repulsive>
0.1567

> <Gold.PLP.ligand.clash>
0.0000

> <Gold.PLP.ligand.torsion>
0.1991

> <Gold.PLP.Chemscore.Hbond>
5.2080

> <Gold.PLP.Chemscore.CHOScore>
0.0000

> <Gold.PLP.Chemscore.Metal>
0.0000

> <Gold.Chemscore.Hbonds>
donor molecule, donor type, donor heavy atom, donor atom, acceptor molecule, acceptor atom, score
      L1  H    11    23       P1  7957  1.00
      L1  H    13    25       P1  8028  1.00
      L1  H    15    27       P1  8028  0.93
      P1  H  7989  7998       L1     8  0.66
      P1  H  7997  8009       L1     5  0.17
      P1  H 10752 10764       L1     1  1.00

> <Gold.PLP.Chemscore.Internal.Correction>
0.0129

> <Gold.Rescore>
     Score         DG    S(hbond)    S(metal)    S(lipo)     H(rot)  DE(clash)    DE(int)     intcor
     11.10     -14.10       3.98        0.00      39.49       3.63       1.54       1.46       ----

> <Gold.Chemscore.Fitness>
11.1001

> <Gold.Chemscore.DG>
-14.0954

> <Gold.Chemscore.ZeroCoef>
-5.4800

> <Gold.Chemscore.Hbond>
3.9753

> <Gold.Chemscore.Metal>
0.0000

> <Gold.Chemscore.Lipo>
39.4940

> <Gold.Chemscore.Internal_Hbond>
0.0000

> <Gold.Chemscore.DEClash>
1.5390

> <Gold.Chemscore.DEInternal>
1.4564

> <Gold.Chemscore.Rot>
3.6261

> <Gold.Chemscore.Internal.Correction>
   9.000000E+99

> <Gold.Chemscore.Hbonds>
donor molecule, donor type, donor heavy atom, donor atom, acceptor molecule, acceptor atom, score
      L1  H    11    23       P1  7957  0.97
      L1  H    13    25       P1  8028  0.34
      L1  H    15    27       P1  8028  0.89
      P1  H  7989  7998       L1     8  0.29
      P1  H 10752 10764       L1     1  0.30

> <Gold.Chemscore.Hbond.Weighted>
-13.2774

> <Gold.Chemscore.Metal.Weighted>
-0.0000

> <Gold.Chemscore.Lipo.Weighted>
-4.6208

> <Gold.Chemscore.Internal_Hbond.Weighted>
0.0000

> <Gold.Chemscore.DEClash.Weighted>
1.5390

> <Gold.Chemscore.DEInternal.Weighted>
1.4564

> <Gold.Chemscore.Rot.Weighted>
9.2828

> <Gold.Chemscore.Internal.Correction.Weighted>
   9.000000E+99

> <Gold.Protein.RotatedTorsions>
[ 6907 6896 6895 6894 ] final -106.13 input  -60.11 | X-H torsion
[ 7974 7965 7964 7962 ] final  126.16 input  175.53 | X-H torsion
[ 8008 7997 7996 7995 ] final -118.67 input   59.86 | X-H torsion
[ 10167 10162 10161 10158 ] final  121.07 input  -65.29 | X-H torsion
[ 10718 10713 10712 10709 ] final  -35.74 input   66.30 | X-H torsion
[ 10763 10752 10751 10750 ] final   -2.88 input  -60.55 | X-H torsion
[ 11005 11000 10999 10996 ] final  138.60 input  -57.11 | X-H torsion

> <Gold.Protein.ActiveResidues>
 VAL166  LYS551  ARG553  GLY616  TRP617  ASP618  TYR619  PRO620  LYS621  CYS622 
 ASP623  PHE694  ASN695  SER759  ASP760  ASP761  ALA762  ILE779  LEU786  VAL792 
 PHE793  MET794  SER795  GLU796  ALA797  LYS798  CYS799  TRP800  GLU811  SER814 

> <Gold.Protein.RotatedAtoms>
  150.7372  134.0023  159.3642 H   0  0  0  0  0  0  0  0  0  0  0  0  # atno 6907 bound_to 6896
  151.7978  135.0715  160.0405 H   0  0  0  0  0  0  0  0  0  0  0  0  # atno 6908 bound_to 6896
  152.3162  133.5769  159.5750 H   0  0  0  0  0  0  0  0  0  0  0  0  # atno 6909 bound_to 6896
  145.0648  139.3776  143.4987 H   0  0  0  0  0  0  0  0  0  0  0  0  # atno 7974 bound_to 7965
  155.1033  140.0396  157.2703 H   0  0  0  0  0  0  0  0  0  0  0  0  # atno 8008 bound_to 7997
  154.6741  140.2618  155.6951 H   0  0  0  0  0  0  0  0  0  0  0  0  # atno 8009 bound_to 7997
  156.2670  140.2792  156.1261 H   0  0  0  0  0  0  0  0  0  0  0  0  # atno 8010 bound_to 7997
  139.5943  144.7036  151.3215 H   0  0  0  0  0  0  0  0  0  0  0  0  # atno 10167 bound_to 10162
  156.3351  130.4285  149.7838 H   0  0  0  0  0  0  0  0  0  0  0  0  # atno 10718 bound_to 10713
  153.3638  135.6991  153.6691 H   0  0  0  0  0  0  0  0  0  0  0  0  # atno 10763 bound_to 10752
  153.5368  135.3581  155.2701 H   0  0  0  0  0  0  0  0  0  0  0  0  # atno 10764 bound_to 10752
  154.8672  135.4194  154.2902 H   0  0  0  0  0  0  0  0  0  0  0  0  # atno 10765 bound_to 10752
  140.0195  134.9403  157.0445 H   0  0  0  0  0  0  0  0  0  0  0  0  # atno 11005 bound_to 11000
  146.3526  140.0364  142.8646 LP  0  0  0  0  0  0  0  0  0  0  0  0  # atno 17320 bound_to 7965
  145.1364  140.9547  143.4514 LP  0  0  0  0  0  0  0  0  0  0  0  0  # atno 17321 bound_to 7965
  140.7199  143.7165  150.7728 LP  0  0  0  0  0  0  0  0  0  0  0  0  # atno 17342 bound_to 10162
  140.0728  143.5044  152.2571 LP  0  0  0  0  0  0  0  0  0  0  0  0  # atno 17343 bound_to 10162
  156.5095  130.8166  151.3163 LP  0  0  0  0  0  0  0  0  0  0  0  0  # atno 17370 bound_to 10713
  157.7437  130.9918  150.2615 LP  0  0  0  0  0  0  0  0  0  0  0  0  # atno 17371 bound_to 10713
  140.4412  134.1679  155.7174 LP  0  0  0  0  0  0  0  0  0  0  0  0  # atno 17394 bound_to 11000
  141.1765  133.8504  157.1404 LP  0  0  0  0  0  0  0  0  0  0  0  0  # atno 17395 bound_to 11000

$$$$
