AV-unprocessed.smi:72|AV-procd|sdf|669|dock10
  -GOLD-   2262016573D 1   1.00000     0.00000
 Structure written by MMmdl.
 29 30  0  0  0  0  0  0  0  0  1 V2000
  152.7370  139.4755  156.4836 N   0  0  0  0  0  0  0  0  0  0  0  0
  151.5437  139.5279  156.0092 C   0  0  0  0  0  0  0  0  0  0  0  0
  151.2031  139.9543  154.7172 N   0  0  0  0  0  0  0  0  0  0  0  0
  149.9511  139.9781  154.3780 C   0  0  0  0  0  0  0  0  0  0  0  0
  148.8867  139.6012  155.3008 N   0  0  0  0  0  0  0  0  0  0  0  0
  147.4176  139.6008  154.9063 C   0  0  2  0  0  0  0  0  0  0  0  0
  146.9142  138.2983  154.9025 O   0  0  0  0  0  0  0  0  0  0  0  0
  146.9988  137.7583  153.5897 C   0  0  1  0  0  0  0  0  0  0  0  0
  146.0453  136.5623  153.4540 C   0  0  0  0  0  0  0  0  0  0  0  0
  146.3514  135.8345  152.2838 O   0  0  0  0  0  0  0  0  0  0  0  0
  146.6085  138.9597  152.7276 C   0  0  2  0  0  0  0  0  0  0  0  0
  147.1699  138.8407  151.4357 O   0  0  0  0  0  0  0  0  0  0  0  0
  147.2176  140.1455  153.4734 C   0  0  1  0  0  0  0  0  0  0  0  0
  146.3282  141.2429  153.4537 O   0  0  0  0  0  0  0  0  0  0  0  0
  149.2232  139.1121  156.5881 C   0  0  0  0  0  0  0  0  0  0  0  0
  148.3733  138.7147  157.3850 O   0  0  0  0  0  0  0  0  0  0  0  0
  150.5390  139.1110  156.8914 N   0  0  0  0  0  0  0  0  0  0  0  0
  146.9240  140.1847  155.6854 H   0  0  0  0  0  0  0  0  0  0  0  0
  148.0277  137.4658  153.3706 H   0  0  0  0  0  0  0  0  0  0  0  0
  145.5219  139.0462  152.6684 H   0  0  0  0  0  0  0  0  0  0  0  0
  148.1768  140.4357  153.0414 H   0  0  0  0  0  0  0  0  0  0  0  0
  152.7269  139.1329  157.4328 H   0  0  0  0  0  0  0  0  0  0  0  0
  149.6290  140.2799  153.3814 H   0  0  0  0  0  0  0  0  0  0  0  0
  146.0922  135.9144  154.3296 H   0  0  0  0  0  0  0  0  0  0  0  0
  145.0163  136.9115  153.3626 H   0  0  0  0  0  0  0  0  0  0  0  0
  147.0925  136.2413  151.8620 H   0  0  0  0  0  0  0  0  0  0  0  0
  148.0621  139.1510  151.4693 H   0  0  0  0  0  0  0  0  0  0  0  0
  145.4499  140.9119  153.3400 H   0  0  0  0  0  0  0  0  0  0  0  0
  150.8049  138.7796  157.8071 H   0  0  0  0  0  0  0  0  0  0  0  0
  1  2  2  0  0  0  0
  1 22  1  0  0  0  0
  2 17  1  0  0  0  0
  2  3  1  0  0  0  0
  3  4  2  0  0  0  0
  4  5  1  0  0  0  0
  4 23  1  0  0  0  0
  5  6  1  0  0  0  0
  5 15  1  0  0  0  0
  6 18  1  0  0  0  0
  6 13  1  0  0  0  0
  6  7  1  0  0  0  0
  7  8  1  0  0  0  0
  8 19  1  0  0  0  0
  8  9  1  0  0  0  0
  8 11  1  0  0  0  0
  9 10  1  0  0  0  0
  9 24  1  0  0  0  0
  9 25  1  0  0  0  0
 10 26  1  0  0  0  0
 11 20  1  0  0  0  0
 11 12  1  0  0  0  0
 11 13  1  0  0  0  0
 12 27  1  0  0  0  0
 13 21  1  0  0  0  0
 13 14  1  0  0  0  0
 14 28  1  0  0  0  0
 15 16  2  0  0  0  0
 15 17  1  0  0  0  0
 17 29  1  0  0  0  0
M  END
> <s_m_source_file>
AV-unprocessed.smi

> <i_m_source_file_index>
72

> <i_lp_mmshare_version>
43012

> <i_f3d_flags>
0

> <s_epik_input>
W05IMl1jMW5bY0hdbihjKD1PKW4xKVtDQEBIXTJPW0NASF0oW0NIMl1bT0hdKVtDQEBIXShbT0hdKVtDQEhdMltPSF0=

> <s_epik_cmdline>
J2VwaWtfcHl0aG9uJywgJy1waCcsICc3LjAnLCAnLXRuJywgJzgnLCAnLW1hJywgJzIwMCcsICctbWV0YWxfYmluZGluZycsICctaW1hZScsICc8aW5maWxlLm1hZT4nLCAnLW9tYWUnLCAnPG91dGZpbGUubWFlPic=

> <r_lp_tautomer_probability>
7.17554e-07

> <r_epik_Ionization_Penalty>
0.0066451

> <r_epik_Ionization_Penalty_Charging>
0.00663793

> <r_epik_Ionization_Penalty_Neutral>
7.17052e-06

> <r_epik_State_Penalty>
0.419231

> <r_epik_Charging_Adjusted_Penalty>
0.425868

> <i_epik_Tot_Q>
0

> <i_epik_Tot_abs_Q>
0

> <r_epik_Metal_State_Penalty>
1.44144

> <b_epik_Metal_Only>
0

> <s_epik_Chemistry_Notes>
This compound contains an acetal/aminal-like group ( X-CH(R)-Y where X, Y are N, S, or O) that may be acid/base labile, releasing an aldehyde.

> <s_lp_Force_Field>
OPLS_2005

> <r_lp_Energy>
35.5906

> <b_lp_Chiralities_Consistent>
1

> <s_lp_Variant>
AV-unprocessed.smi:72-7

> <Gold.Version>
5.8.1

> <Gold.Id.Protein>
6NUR|6NUR_protein|mol2

> <Gold.PLP.Fitness>
36.3366

> <Gold.PLP.PLP>
-19.6965

> <Gold.PLP.part.hbond>
-7.0000

> <Gold.PLP.part.metal>
0.0000

> <Gold.PLP.part.buried>
-1.8962

> <Gold.PLP.part.nonpolar>
-11.6453

> <Gold.PLP.part.repulsive>
0.1241

> <Gold.PLP.ligand.clash>
0.0000

> <Gold.PLP.ligand.torsion>
0.1757

> <Gold.PLP.Chemscore.Hbond>
4.6500

> <Gold.PLP.Chemscore.CHOScore>
1.0000

> <Gold.PLP.Chemscore.Metal>
0.0000

> <Gold.Chemscore.Hbonds>
donor molecule, donor type, donor heavy atom, donor atom, acceptor molecule, acceptor atom, score
      L1  H    10    26       P1  7948  0.85
      L1  H    12    27       P1  7957  1.00
      L1  H    14    28       P1 10175  1.00
      P1  H  7989  7998       L1     3  0.65
      P1  H  7997  8010       L1     1  1.00
      L1  C     4    23       P1  7957  1.00

> <Gold.PLP.Chemscore.Internal.Correction>
0.0414

> <Gold.Rescore>
     Score         DG    S(hbond)    S(metal)    S(lipo)     H(rot)  DE(clash)    DE(int)     intcor
      7.98      -9.76       3.71        0.00      19.43       4.06       0.15       1.62       ----

> <Gold.Chemscore.Fitness>
7.9843

> <Gold.Chemscore.DG>
-9.7594

> <Gold.Chemscore.ZeroCoef>
-5.4800

> <Gold.Chemscore.Hbond>
3.7125

> <Gold.Chemscore.Metal>
0.0000

> <Gold.Chemscore.Lipo>
19.4290

> <Gold.Chemscore.Internal_Hbond>
0.0000

> <Gold.Chemscore.DEClash>
0.1508

> <Gold.Chemscore.DEInternal>
1.6243

> <Gold.Chemscore.Rot>
4.0600

> <Gold.Chemscore.Internal.Correction>
   9.000000E+99

> <Gold.Chemscore.Hbonds>
donor molecule, donor type, donor heavy atom, donor atom, acceptor molecule, acceptor atom, score
      L1  H    10    26       P1  7948  0.83
      L1  H    12    27       P1  7957  0.85
      L1  H    14    28       P1 10175  0.62
      P1  H  7989  7998       L1     3  0.06
      P1  H  7997  8010       L1     1  0.60

> <Gold.Chemscore.Hbond.Weighted>
-12.3998

> <Gold.Chemscore.Metal.Weighted>
-0.0000

> <Gold.Chemscore.Lipo.Weighted>
-2.2732

> <Gold.Chemscore.Internal_Hbond.Weighted>
0.0000

> <Gold.Chemscore.DEClash.Weighted>
0.1508

> <Gold.Chemscore.DEInternal.Weighted>
1.6243

> <Gold.Chemscore.Rot.Weighted>
10.3936

> <Gold.Chemscore.Internal.Correction.Weighted>
   9.000000E+99

> <Gold.Protein.RotatedTorsions>
[ 6907 6896 6895 6894 ] final   -2.52 input  -60.11 | X-H torsion
[ 7974 7965 7964 7962 ] final -139.67 input  175.53 | X-H torsion
[ 8008 7997 7996 7995 ] final   87.56 input   59.86 | X-H torsion
[ 10167 10162 10161 10158 ] final  -37.33 input  -65.29 | X-H torsion
[ 10718 10713 10712 10709 ] final -139.98 input   66.30 | X-H torsion
[ 10763 10752 10751 10750 ] final  129.45 input  -60.55 | X-H torsion
[ 11005 11000 10999 10996 ] final  177.10 input  -57.11 | X-H torsion

> <Gold.Protein.ActiveResidues>
 VAL166  LYS551  ARG553  GLY616  TRP617  ASP618  TYR619  PRO620  LYS621  CYS622 
 ASP623  PHE694  ASN695  SER759  ASP760  ASP761  ALA762  ILE779  LEU786  VAL792 
 PHE793  MET794  SER795  GLU796  ALA797  LYS798  CYS799  TRP800  GLU811  SER814 

> <Gold.Protein.RotatedAtoms>
  151.5286  135.1068  159.9896 H   0  0  0  0  0  0  0  0  0  0  0  0  # atno 6907 bound_to 6896
  152.4588  133.7775  159.6843 H   0  0  0  0  0  0  0  0  0  0  0  0  # atno 6908 bound_to 6896
  150.8542  133.7675  159.3039 H   0  0  0  0  0  0  0  0  0  0  0  0  # atno 6909 bound_to 6896
  144.8658  140.6291  143.5299 H   0  0  0  0  0  0  0  0  0  0  0  0  # atno 7974 bound_to 7965
  155.9769  140.3381  155.6627 H   0  0  0  0  0  0  0  0  0  0  0  0  # atno 8008 bound_to 7997
  155.6600  140.0715  157.2575 H   0  0  0  0  0  0  0  0  0  0  0  0  # atno 8009 bound_to 7997
  154.4181  140.1710  156.1754 H   0  0  0  0  0  0  0  0  0  0  0  0  # atno 8010 bound_to 7997
  140.7121  143.3349  151.2485 H   0  0  0  0  0  0  0  0  0  0  0  0  # atno 10167 bound_to 10162
  156.3170  130.7513  151.1602 H   0  0  0  0  0  0  0  0  0  0  0  0  # atno 10718 bound_to 10713
  153.7419  135.3223  155.3305 H   0  0  0  0  0  0  0  0  0  0  0  0  # atno 10763 bound_to 10752
  154.8292  135.4547  154.1018 H   0  0  0  0  0  0  0  0  0  0  0  0  # atno 10764 bound_to 10752
  153.2195  135.6946  153.8098 H   0  0  0  0  0  0  0  0  0  0  0  0  # atno 10765 bound_to 10752
  140.3803  134.6952  157.4447 H   0  0  0  0  0  0  0  0  0  0  0  0  # atno 11005 bound_to 11000
  145.4224  139.1562  143.4067 LP  0  0  0  0  0  0  0  0  0  0  0  0  # atno 17320 bound_to 7965
  146.2894  140.4335  142.8745 LP  0  0  0  0  0  0  0  0  0  0  0  0  # atno 17321 bound_to 7965
  139.6841  143.9804  152.2824 LP  0  0  0  0  0  0  0  0  0  0  0  0  # atno 17342 bound_to 10162
  139.9443  144.6661  150.8235 LP  0  0  0  0  0  0  0  0  0  0  0  0  # atno 17343 bound_to 10162
  157.7403  131.0518  150.5171 LP  0  0  0  0  0  0  0  0  0  0  0  0  # atno 17370 bound_to 10713
  156.5319  130.4187  149.6197 LP  0  0  0  0  0  0  0  0  0  0  0  0  # atno 17371 bound_to 10713
  140.0483  134.6167  155.8893 LP  0  0  0  0  0  0  0  0  0  0  0  0  # atno 17394 bound_to 11000
  141.1925  133.6575  156.5507 LP  0  0  0  0  0  0  0  0  0  0  0  0  # atno 17395 bound_to 11000

$$$$
