AV-unprocessed.smi:1107|AV-procd|sdf|4781|dock10
  -GOLD-   22720 3323D 1   1.00000     0.00000
 Structure written by MMmdl.
 49 50  0  0  0  0  0  0  0  0  2 V2000
  153.2870  142.2115  162.2477 C   0  0  0  0  0  0  0  0  0  0  0  0
  152.7705  142.4144  160.8391 C   0  0  0  0  0  0  0  0  0  0  0  0
  152.1934  143.4967  160.4314 N   0  0  0  0  0  0  0  0  0  0  0  0
  151.7595  143.5702  159.1003 C   0  0  0  0  0  0  0  0  0  0  0  0
  151.0982  144.8778  158.6998 C   0  0  0  0  0  0  0  0  0  0  0  0
  151.9351  142.5299  158.2333 C   0  0  0  0  0  0  0  0  0  0  0  0
  151.4803  142.5653  156.7760 C   0  0  0  0  0  0  0  0  0  0  0  0
  150.4769  141.4827  156.3735 C   0  0  0  0  0  0  0  0  0  0  0  0
  150.7196  140.2973  156.5975 O   0  0  0  0  0  0  0  0  0  0  0  0
  149.3484  141.9054  155.7817 N   0  0  0  0  0  0  0  0  0  0  0  0
  148.2670  141.0548  155.2837 C   0  0  2  0  0  0  0  0  0  0  0  0
  148.8535  140.0115  154.3231 C   0  0  0  0  0  0  0  0  0  0  0  0
  147.1634  141.8922  154.5976 C   0  0  0  0  0  0  0  0  0  0  0  0
  146.4731  142.8224  155.5280 N   0  3  0  0  0  0  0  0  0  0  0  0
  145.1969  143.3466  154.9775 C   0  0  0  0  0  0  0  0  0  0  0  0
  144.6029  144.4269  155.8973 C   0  0  0  0  0  0  0  0  0  0  0  0
  144.4075  143.8917  157.3222 C   0  0  0  0  0  0  0  0  0  0  0  0
  145.7281  143.3184  157.8532 C   0  0  0  0  0  0  0  0  0  0  0  0
  146.2917  142.2589  156.8921 C   0  0  0  0  0  0  0  0  0  0  0  0
  152.5866  141.2957  158.7119 C   0  0  0  0  0  0  0  0  0  0  0  0
  152.7768  140.2974  158.0188 O   0  0  0  0  0  0  0  0  0  0  0  0
  152.9747  141.3153  160.0065 N   0  0  0  0  0  0  0  0  0  0  0  0
  153.4272  140.4942  160.3814 H   0  0  0  0  0  0  0  0  0  0  0  0
  154.0207  142.9799  162.4920 H   0  0  0  0  0  0  0  0  0  0  0  0
  153.7622  141.2367  162.3666 H   0  0  0  0  0  0  0  0  0  0  0  0
  152.4665  142.2811  162.9620 H   0  0  0  0  0  0  0  0  0  0  0  0
  150.1095  144.7004  158.2777 H   0  0  0  0  0  0  0  0  0  0  0  0
  151.7044  145.3997  157.9592 H   0  0  0  0  0  0  0  0  0  0  0  0
  150.9779  145.5393  159.5583 H   0  0  0  0  0  0  0  0  0  0  0  0
  151.0225  143.5299  156.5586 H   0  0  0  0  0  0  0  0  0  0  0  0
  152.3534  142.5236  156.1223 H   0  0  0  0  0  0  0  0  0  0  0  0
  149.2441  142.8994  155.6340 H   0  0  0  0  0  0  0  0  0  0  0  0
  147.8325  140.5022  156.1178 H   0  0  0  0  0  0  0  0  0  0  0  0
  148.0799  139.3344  153.9601 H   0  0  0  0  0  0  0  0  0  0  0  0
  149.6138  139.4056  154.8175 H   0  0  0  0  0  0  0  0  0  0  0  0
  149.3164  140.4833  153.4556 H   0  0  0  0  0  0  0  0  0  0  0  0
  147.6300  142.4676  153.7965 H   0  0  0  0  0  0  0  0  0  0  0  0
  146.4295  141.2450  154.1153 H   0  0  0  0  0  0  0  0  0  0  0  0
  145.3693  143.7769  153.9903 H   0  0  0  0  0  0  0  0  0  0  0  0
  144.4894  142.5257  154.8488 H   0  0  0  0  0  0  0  0  0  0  0  0
  145.2668  145.2924  155.9201 H   0  0  0  0  0  0  0  0  0  0  0  0
  143.6513  144.7772  155.4965 H   0  0  0  0  0  0  0  0  0  0  0  0
  144.0497  144.6855  157.9784 H   0  0  0  0  0  0  0  0  0  0  0  0
  143.6413  143.1153  157.3229 H   0  0  0  0  0  0  0  0  0  0  0  0
  146.4547  144.1228  157.9781 H   0  0  0  0  0  0  0  0  0  0  0  0
  145.5753  142.8832  158.8411 H   0  0  0  0  0  0  0  0  0  0  0  0
  145.6220  141.3987  156.8467 H   0  0  0  0  0  0  0  0  0  0  0  0
  147.2426  141.8964  157.2814 H   0  0  0  0  0  0  0  0  0  0  0  0
  147.0835  143.6220  155.6240 H   0  0  0  0  0  0  0  0  0  0  0  0
  1  2  1  0  0  0  0
  1 24  1  0  0  0  0
  1 25  1  0  0  0  0
  1 26  1  0  0  0  0
  2 22  1  0  0  0  0
  2  3  2  0  0  0  0
  3  4  1  0  0  0  0
  4  5  1  0  0  0  0
  4  6  2  0  0  0  0
  5 27  1  0  0  0  0
  5 28  1  0  0  0  0
  5 29  1  0  0  0  0
  6  7  1  0  0  0  0
  6 20  1  0  0  0  0
  7  8  1  0  0  0  0
  7 30  1  0  0  0  0
  7 31  1  0  0  0  0
  8  9  2  0  0  0  0
  8 10  1  0  0  0  0
 10 11  1  0  0  0  0
 10 32  1  0  0  0  0
 11 12  1  0  0  0  0
 11 13  1  0  0  0  0
 11 33  1  0  0  0  0
 12 34  1  0  0  0  0
 12 35  1  0  0  0  0
 12 36  1  0  0  0  0
 13 14  1  0  0  0  0
 13 37  1  0  0  0  0
 13 38  1  0  0  0  0
 14 19  1  0  0  0  0
 14 15  1  0  0  0  0
 14 49  1  0  0  0  0
 15 16  1  0  0  0  0
 15 39  1  0  0  0  0
 15 40  1  0  0  0  0
 16 17  1  0  0  0  0
 16 41  1  0  0  0  0
 16 42  1  0  0  0  0
 17 18  1  0  0  0  0
 17 43  1  0  0  0  0
 17 44  1  0  0  0  0
 18 19  1  0  0  0  0
 18 45  1  0  0  0  0
 18 46  1  0  0  0  0
 19 47  1  0  0  0  0
 19 48  1  0  0  0  0
 20 21  2  0  0  0  0
 20 22  1  0  0  0  0
 22 23  1  0  0  0  0
M  CHG  1  14   1
M  END
> <s_m_source_file>
AV-unprocessed.smi

> <i_m_source_file_index>
1107

> <i_lp_mmshare_version>
43012

> <i_f3d_flags>
0

> <s_epik_input>
W0NIM11jMW5jKFtDSDNdKWMoYyg9TylbbkhdMSlbQ0gyXUMoPU8pW05IXVtDQEhdKFtDSDNdKVtDSDJdTjJbQ0gyXVtDSDJdW0NIMl1bQ0gyXVtDSDJdMg==

> <s_epik_cmdline>
J2VwaWtfcHl0aG9uJywgJy1waCcsICc3LjAnLCAnLXRuJywgJzgnLCAnLW1hJywgJzIwMCcsICctbWV0YWxfYmluZGluZycsICctaW1hZScsICc8aW5maWxlLm1hZT4nLCAnLW9tYWUnLCAnPG91dGZpbGUubWFlPic=

> <r_lp_tautomer_probability>
0.839158

> <r_epik_Ionization_Penalty>
0.00280224

> <r_epik_Ionization_Penalty_Charging>
0.00277925

> <r_epik_Ionization_Penalty_Neutral>
2.29856e-05

> <r_epik_State_Penalty>
0.09125

> <r_epik_Charging_Adjusted_Penalty>
0.0940293

> <i_epik_Tot_Q>
1

> <i_epik_Tot_abs_Q>
1

> <r_epik_Metal_State_Penalty>
0.283823

> <b_epik_Metal_Only>
0

> <s_lp_Force_Field>
OPLS_2005

> <r_lp_Energy>
24.1286

> <b_lp_Chiralities_Consistent>
1

> <s_lp_Variant>
AV-unprocessed.smi:1107-1

> <Gold.Version>
5.8.1

> <Gold.Id.Protein>
6NUR|6NUR_protein|mol2

> <Gold.PLP.Fitness>
43.5690

> <Gold.PLP.PLP>
-38.1102

> <Gold.PLP.part.hbond>
-2.9956

> <Gold.PLP.part.metal>
0.0000

> <Gold.PLP.part.buried>
-5.9340

> <Gold.PLP.part.nonpolar>
-28.6548

> <Gold.PLP.part.repulsive>
0.3340

> <Gold.PLP.ligand.clash>
0.0000

> <Gold.PLP.ligand.torsion>
0.2704

> <Gold.PLP.Chemscore.Hbond>
1.9833

> <Gold.PLP.Chemscore.CHOScore>
0.0000

> <Gold.PLP.Chemscore.Metal>
0.0000

> <Gold.Chemscore.Hbonds>
donor molecule, donor type, donor heavy atom, donor atom, acceptor molecule, acceptor atom, score
      L1  H    10    32       P1  8028  1.00
      L1  H    14    49       P1  8028  0.09
      P1  H  7997  8008       L1    21  0.80

> <Gold.PLP.Chemscore.Internal.Correction>
0.0496

> <Gold.Rescore>
     Score         DG    S(hbond)    S(metal)    S(lipo)     H(rot)  DE(clash)    DE(int)     intcor
     13.29     -16.30       1.91        0.00      81.34       1.98       0.04       2.97       ----

> <Gold.Chemscore.Fitness>
13.2902

> <Gold.Chemscore.DG>
-16.3015

> <Gold.Chemscore.ZeroCoef>
-5.4800

> <Gold.Chemscore.Hbond>
1.9112

> <Gold.Chemscore.Metal>
0.0000

> <Gold.Chemscore.Lipo>
81.3380

> <Gold.Chemscore.Internal_Hbond>
0.0000

> <Gold.Chemscore.DEClash>
0.0441

> <Gold.Chemscore.DEInternal>
2.9672

> <Gold.Chemscore.Rot>
1.9837

> <Gold.Chemscore.Internal.Correction>
   9.000000E+99

> <Gold.Chemscore.Hbonds>
donor molecule, donor type, donor heavy atom, donor atom, acceptor molecule, acceptor atom, score
      L1  H    10    32       P1  8028  1.00
      P1  H  7997  8008       L1    21  0.75

> <Gold.Chemscore.Hbond.Weighted>
-6.3833

> <Gold.Chemscore.Metal.Weighted>
-0.0000

> <Gold.Chemscore.Lipo.Weighted>
-9.5165

> <Gold.Chemscore.Internal_Hbond.Weighted>
0.0000

> <Gold.Chemscore.DEClash.Weighted>
0.0441

> <Gold.Chemscore.DEInternal.Weighted>
2.9672

> <Gold.Chemscore.Rot.Weighted>
5.0783

> <Gold.Chemscore.Internal.Correction.Weighted>
   9.000000E+99

> <Gold.Protein.RotatedTorsions>
[ 6907 6896 6895 6894 ] final  106.95 input  -60.11 | X-H torsion
[ 7974 7965 7964 7962 ] final  160.20 input  175.53 | X-H torsion
[ 8008 7997 7996 7995 ] final  -66.83 input   59.86 | X-H torsion
[ 10167 10162 10161 10158 ] final -149.61 input  -65.29 | X-H torsion
[ 10718 10713 10712 10709 ] final -132.82 input   66.30 | X-H torsion
[ 10763 10752 10751 10750 ] final    0.07 input  -60.55 | X-H torsion
[ 11005 11000 10999 10996 ] final -132.99 input  -57.11 | X-H torsion

> <Gold.Protein.ActiveResidues>
 VAL166  LYS551  ARG553  GLY616  TRP617  ASP618  TYR619  PRO620  LYS621  CYS622 
 ASP623  PHE694  ASN695  SER759  ASP760  ASP761  ALA762  ILE779  LEU786  VAL792 
 PHE793  MET794  SER795  GLU796  ALA797  LYS798  CYS799  TRP800  GLU811  SER814 

> <Gold.Protein.RotatedAtoms>
  152.5173  133.9305  159.7578 H   0  0  0  0  0  0  0  0  0  0  0  0  # atno 6907 bound_to 6896
  150.9657  133.6389  159.2753 H   0  0  0  0  0  0  0  0  0  0  0  0  # atno 6908 bound_to 6896
  151.3618  135.0911  159.9490 H   0  0  0  0  0  0  0  0  0  0  0  0  # atno 6909 bound_to 6896
  144.7749  139.7724  143.6282 H   0  0  0  0  0  0  0  0  0  0  0  0  # atno 7974 bound_to 7965
  154.4760  140.0905  156.7262 H   0  0  0  0  0  0  0  0  0  0  0  0  # atno 8008 bound_to 7997
  155.4596  140.3460  155.4293 H   0  0  0  0  0  0  0  0  0  0  0  0  # atno 8009 bound_to 7997
  156.1116  140.1449  156.9318 H   0  0  0  0  0  0  0  0  0  0  0  0  # atno 8010 bound_to 7997
  139.7428  143.8637  152.2567 H   0  0  0  0  0  0  0  0  0  0  0  0  # atno 10167 bound_to 10162
  156.2385  130.7081  151.0932 H   0  0  0  0  0  0  0  0  0  0  0  0  # atno 10718 bound_to 10713
  153.3254  135.6972  153.6994 H   0  0  0  0  0  0  0  0  0  0  0  0  # atno 10763 bound_to 10752
  153.5817  135.3496  155.2878 H   0  0  0  0  0  0  0  0  0  0  0  0  # atno 10764 bound_to 10752
  154.8607  135.4296  154.2429 H   0  0  0  0  0  0  0  0  0  0  0  0  # atno 10765 bound_to 10752
  140.9121  134.1554  157.4381 H   0  0  0  0  0  0  0  0  0  0  0  0  # atno 11005 bound_to 11000
  146.1922  139.5168  142.9798 LP  0  0  0  0  0  0  0  0  0  0  0  0  # atno 17320 bound_to 7965
  145.6215  141.0321  143.1912 LP  0  0  0  0  0  0  0  0  0  0  0  0  # atno 17321 bound_to 7965
  139.8592  144.7126  150.9120 LP  0  0  0  0  0  0  0  0  0  0  0  0  # atno 17342 bound_to 10162
  140.7788  143.3832  151.1440 LP  0  0  0  0  0  0  0  0  0  0  0  0  # atno 17343 bound_to 10162
  157.7165  131.0707  150.6307 LP  0  0  0  0  0  0  0  0  0  0  0  0  # atno 17370 bound_to 10713
  156.6379  130.4450  149.5763 LP  0  0  0  0  0  0  0  0  0  0  0  0  # atno 17371 bound_to 10713
  139.8759  134.9940  156.5670 LP  0  0  0  0  0  0  0  0  0  0  0  0  # atno 17394 bound_to 11000
  140.8096  133.8439  155.8798 LP  0  0  0  0  0  0  0  0  0  0  0  0  # atno 17395 bound_to 11000

$$$$
