AV-unprocessed.smi:92|AV-procd|sdf|841|dock8
  -GOLD-   2262017273D 1   1.00000     0.00000
 Structure written by MMmdl.
 61 64  0  0  0  0  0  0  0  0  2 V2000
  152.3749  144.3353  157.8888 C   0  0  0  0  0  0  0  0  0  0  0  0
  151.0230  144.0566  158.5614 C   0  0  0  0  0  0  0  0  0  0  0  0
  150.2208  143.0431  157.8309 N   0  3  2  0  0  0  0  0  0  0  0  0
  149.1404  142.4441  158.6554 C   0  0  0  0  0  0  0  0  0  0  0  0
  148.2640  141.4923  157.8260 C   0  0  0  0  0  0  0  0  0  0  0  0
  149.1093  140.3816  157.1512 C   0  0  1  0  0  0  0  0  0  0  0  0
  148.3185  139.4267  156.3568 N   0  0  0  0  0  0  0  0  0  0  0  0
  149.0240  138.6736  155.3226 C   0  0  0  0  0  0  0  0  0  0  0  0
  147.5071  138.6231  157.0812 C   0  0  0  0  0  0  0  0  0  0  0  0
  146.1632  138.6630  156.8840 N   0  0  0  0  0  0  0  0  0  0  0  0
  145.3659  137.8441  157.5769 C   0  0  0  0  0  0  0  0  0  0  0  0
  145.7000  136.9261  158.4873 N   0  0  0  0  0  0  0  0  0  0  0  0
  147.0501  136.8856  158.6831 C   0  0  0  0  0  0  0  0  0  0  0  0
  148.0168  137.6959  158.0265 C   0  0  0  0  0  0  0  0  0  0  0  0
  149.2935  137.3710  158.4638 N   0  0  0  0  0  0  0  0  0  0  0  0
  149.0940  136.4148  159.3296 C   0  0  0  0  0  0  0  0  0  0  0  0
  147.7760  136.0636  159.5283 N   0  0  0  0  0  0  0  0  0  0  0  0
  147.2800  135.0299  160.3917 C   0  0  0  0  0  0  0  0  0  0  0  0
  145.8004  134.6373  160.4131 C   0  0  0  0  0  0  0  0  0  0  0  0
  145.9175  134.3237  161.9231 C   0  0  0  0  0  0  0  0  0  0  0  0
  144.7133  134.7840  162.7635 C   0  0  0  0  0  0  0  0  0  0  0  0
  143.6023  133.9251  162.6094 O   0  0  0  0  0  0  0  0  0  0  0  0
  146.2170  132.8412  162.2310 C   0  0  0  0  0  0  0  0  0  0  0  0
  145.0979  132.0096  162.0028 O   0  0  0  0  0  0  0  0  0  0  0  0
  147.1340  135.2778  161.8922 C   0  0  0  0  0  0  0  0  0  0  0  0
  150.2449  141.0417  156.3231 C   0  0  1  0  0  0  0  0  0  0  0  0
  149.7582  141.7532  155.0425 C   0  0  0  0  0  0  0  0  0  0  0  0
  151.0710  141.9951  157.2100 C   0  0  0  0  0  0  0  0  0  0  0  0
  152.9740  145.0095  158.5013 H   0  0  0  0  0  0  0  0  0  0  0  0
  152.2598  144.8057  156.9127 H   0  0  0  0  0  0  0  0  0  0  0  0
  152.9460  143.4161  157.7556 H   0  0  0  0  0  0  0  0  0  0  0  0
  151.2258  143.6938  159.5701 H   0  0  0  0  0  0  0  0  0  0  0  0
  150.4504  144.9783  158.6751 H   0  0  0  0  0  0  0  0  0  0  0  0
  149.5797  141.9070  159.4976 H   0  0  0  0  0  0  0  0  0  0  0  0
  148.5069  143.2240  159.0762 H   0  0  0  0  0  0  0  0  0  0  0  0
  147.5174  141.0631  158.4947 H   0  0  0  0  0  0  0  0  0  0  0  0
  147.7095  142.0573  157.0761 H   0  0  0  0  0  0  0  0  0  0  0  0
  149.5797  139.8036  157.9487 H   0  0  0  0  0  0  0  0  0  0  0  0
  148.4156  137.8545  154.9355 H   0  0  0  0  0  0  0  0  0  0  0  0
  149.9523  138.2542  155.7126 H   0  0  0  0  0  0  0  0  0  0  0  0
  149.2684  139.3185  154.4789 H   0  0  0  0  0  0  0  0  0  0  0  0
  144.3097  137.9345  157.3698 H   0  0  0  0  0  0  0  0  0  0  0  0
  149.9122  135.9309  159.8429 H   0  0  0  0  0  0  0  0  0  0  0  0
  147.8955  134.1467  160.2132 H   0  0  0  0  0  0  0  0  0  0  0  0
  145.1339  135.4744  160.2001 H   0  0  0  0  0  0  0  0  0  0  0  0
  145.5547  133.7805  159.7848 H   0  0  0  0  0  0  0  0  0  0  0  0
  144.9647  134.7997  163.8245 H   0  0  0  0  0  0  0  0  0  0  0  0
  144.4137  135.8002  162.5054 H   0  0  0  0  0  0  0  0  0  0  0  0
  143.7400  133.1561  163.1411 H   0  0  0  0  0  0  0  0  0  0  0  0
  147.0514  132.4764  161.6312 H   0  0  0  0  0  0  0  0  0  0  0  0
  146.5142  132.7084  163.2715 H   0  0  0  0  0  0  0  0  0  0  0  0
  144.6426  132.3202  161.2352 H   0  0  0  0  0  0  0  0  0  0  0  0
  147.9905  134.9565  162.4857 H   0  0  0  0  0  0  0  0  0  0  0  0
  146.8675  136.3109  162.1229 H   0  0  0  0  0  0  0  0  0  0  0  0
  150.9301  140.2563  156.0028 H   0  0  0  0  0  0  0  0  0  0  0  0
  149.0940  142.5883  155.2636 H   0  0  0  0  0  0  0  0  0  0  0  0
  149.2211  141.0724  154.3821 H   0  0  0  0  0  0  0  0  0  0  0  0
  150.6007  142.1496  154.4753 H   0  0  0  0  0  0  0  0  0  0  0  0
  151.8553  142.4587  156.6099 H   0  0  0  0  0  0  0  0  0  0  0  0
  151.5747  141.4303  157.9963 H   0  0  0  0  0  0  0  0  0  0  0  0
  149.7741  143.5297  157.0667 H   0  0  0  0  0  0  0  0  0  0  0  0
  1  2  1  0  0  0  0
  1 29  1  0  0  0  0
  1 30  1  0  0  0  0
  1 31  1  0  0  0  0
  2  3  1  0  0  0  0
  2 32  1  0  0  0  0
  2 33  1  0  0  0  0
  3 28  1  0  0  0  0
  3  4  1  0  0  0  0
  3 61  1  0  0  0  0
  4  5  1  0  0  0  0
  4 34  1  0  0  0  0
  4 35  1  0  0  0  0
  5  6  1  0  0  0  0
  5 36  1  0  0  0  0
  5 37  1  0  0  0  0
  6  7  1  0  0  0  0
  6 26  1  0  0  0  0
  6 38  1  0  0  0  0
  7  8  1  0  0  0  0
  7  9  1  0  0  0  0
  8 39  1  0  0  0  0
  8 40  1  0  0  0  0
  8 41  1  0  0  0  0
  9 14  1  0  0  0  0
  9 10  2  0  0  0  0
 10 11  1  0  0  0  0
 11 12  2  0  0  0  0
 11 42  1  0  0  0  0
 12 13  1  0  0  0  0
 13 17  1  0  0  0  0
 13 14  2  0  0  0  0
 14 15  1  0  0  0  0
 15 16  2  0  0  0  0
 16 17  1  0  0  0  0
 16 43  1  0  0  0  0
 17 18  1  0  0  0  0
 18 25  1  0  0  0  0
 18 19  1  0  0  0  0
 18 44  1  0  0  0  0
 19 20  1  0  0  0  0
 19 45  1  0  0  0  0
 19 46  1  0  0  0  0
 20 21  1  0  0  0  0
 20 23  1  0  0  0  0
 20 25  1  0  0  0  0
 21 22  1  0  0  0  0
 21 47  1  0  0  0  0
 21 48  1  0  0  0  0
 22 49  1  0  0  0  0
 23 24  1  0  0  0  0
 23 50  1  0  0  0  0
 23 51  1  0  0  0  0
 24 52  1  0  0  0  0
 25 53  1  0  0  0  0
 25 54  1  0  0  0  0
 26 27  1  0  0  0  0
 26 28  1  0  0  0  0
 26 55  1  0  0  0  0
 27 56  1  0  0  0  0
 27 57  1  0  0  0  0
 27 58  1  0  0  0  0
 28 59  1  0  0  0  0
 28 60  1  0  0  0  0
M  CHG  1   3   1
M  END
> <s_m_source_file>
AV-unprocessed.smi

> <i_m_source_file_index>
92

> <i_lp_mmshare_version>
43012

> <i_f3d_flags>
0

> <s_epik_input>
W0NIM11bQ0gyXU4xW0NIMl1bQ0gyXVtDQEhdKFtDQEBIXShbQ0gzXSlbQ0gyXTEpTihbQ0gzXSljKG5bY0hdbjIpYyhjMjMpbltjSF1uM1tDSF0oW0NIMl00KVtDSDJdQzQoW0NIMl1bT0hdKVtDSDJdW09IXQ==

> <s_epik_cmdline>
J2VwaWtfcHl0aG9uJywgJy1waCcsICc3LjAnLCAnLXRuJywgJzgnLCAnLW1hJywgJzIwMCcsICctbWV0YWxfYmluZGluZycsICctaW1hZScsICc8aW5maWxlLm1hZT4nLCAnLW9tYWUnLCAnPG91dGZpbGUubWFlPic=

> <r_lp_tautomer_probability>
1

> <r_epik_Ionization_Penalty>
0.00235514

> <r_epik_Ionization_Penalty_Charging>
0.00137877

> <r_epik_Ionization_Penalty_Neutral>
0.000976366

> <r_epik_State_Penalty>
-0

> <r_epik_Charging_Adjusted_Penalty>
0.00137877

> <i_epik_Tot_Q>
1

> <i_epik_Tot_abs_Q>
1

> <r_epik_Metal_State_Penalty>
-0

> <b_epik_Metal_Only>
0

> <s_lp_Force_Field>
OPLS_2005

> <r_lp_Energy>
54.7459

> <b_lp_Chiralities_Consistent>
1

> <s_lp_Variant>
AV-unprocessed.smi:92-1

> <Gold.Version>
5.8.1

> <Gold.Id.Protein>
6NUR|6NUR_protein|mol2

> <Gold.PLP.Fitness>
40.8439

> <Gold.PLP.PLP>
-36.2869

> <Gold.PLP.part.hbond>
-2.0000

> <Gold.PLP.part.metal>
0.0000

> <Gold.PLP.part.buried>
-5.6385

> <Gold.PLP.part.nonpolar>
-28.8697

> <Gold.PLP.part.repulsive>
0.0290

> <Gold.PLP.ligand.clash>
0.0000

> <Gold.PLP.ligand.torsion>
1.1752

> <Gold.PLP.Chemscore.Hbond>
2.0000

> <Gold.PLP.Chemscore.CHOScore>
0.0000

> <Gold.PLP.Chemscore.Metal>
0.0000

> <Gold.Chemscore.Hbonds>
donor molecule, donor type, donor heavy atom, donor atom, acceptor molecule, acceptor atom, score
      L1  H     3    61       P1  8028  1.98

> <Gold.PLP.Chemscore.Internal.Correction>
0.9074

> <Gold.Rescore>
     Score         DG    S(hbond)    S(metal)    S(lipo)     H(rot)  DE(clash)    DE(int)     intcor
      8.62     -11.22       0.98        0.00      98.03       3.51       0.30       2.29       ----

> <Gold.Chemscore.Fitness>
8.6236

> <Gold.Chemscore.DG>
-11.2164

> <Gold.Chemscore.ZeroCoef>
-5.4800

> <Gold.Chemscore.Hbond>
0.9774

> <Gold.Chemscore.Metal>
0.0000

> <Gold.Chemscore.Lipo>
98.0303

> <Gold.Chemscore.Internal_Hbond>
0.0000

> <Gold.Chemscore.DEClash>
0.3025

> <Gold.Chemscore.DEInternal>
2.2904

> <Gold.Chemscore.Rot>
3.5147

> <Gold.Chemscore.Internal.Correction>
   9.000000E+99

> <Gold.Chemscore.Hbonds>
donor molecule, donor type, donor heavy atom, donor atom, acceptor molecule, acceptor atom, score
      L1  H     3    61       P1  8028  0.89

> <Gold.Chemscore.Hbond.Weighted>
-3.2646

> <Gold.Chemscore.Metal.Weighted>
-0.0000

> <Gold.Chemscore.Lipo.Weighted>
-11.4695

> <Gold.Chemscore.Internal_Hbond.Weighted>
0.0000

> <Gold.Chemscore.DEClash.Weighted>
0.3025

> <Gold.Chemscore.DEInternal.Weighted>
2.2904

> <Gold.Chemscore.Rot.Weighted>
8.9977

> <Gold.Chemscore.Internal.Correction.Weighted>
   9.000000E+99

> <Gold.Protein.RotatedTorsions>
[ 6907 6896 6895 6894 ] final -166.64 input  -60.11 | X-H torsion
[ 7974 7965 7964 7962 ] final    7.15 input  175.53 | X-H torsion
[ 8008 7997 7996 7995 ] final  107.36 input   59.86 | X-H torsion
[ 10167 10162 10161 10158 ] final   51.07 input  -65.29 | X-H torsion
[ 10718 10713 10712 10709 ] final   86.43 input   66.30 | X-H torsion
[ 10763 10752 10751 10750 ] final   99.20 input  -60.55 | X-H torsion
[ 11005 11000 10999 10996 ] final  113.60 input  -57.11 | X-H torsion

> <Gold.Protein.ActiveResidues>
 VAL166  LYS551  ARG553  GLY616  TRP617  ASP618  TYR619  PRO620  LYS621  CYS622 
 ASP623  PHE694  ASN695  SER759  ASP760  ASP761  ALA762  ILE779  LEU786  VAL792 
 PHE793  MET794  SER795  GLU796  ALA797  LYS798  CYS799  TRP800  GLU811  SER814 

> <Gold.Protein.RotatedAtoms>
  151.4468  133.3628  159.2789 H   0  0  0  0  0  0  0  0  0  0  0  0  # atno 6907 bound_to 6896
  150.9119  134.8537  159.7441 H   0  0  0  0  0  0  0  0  0  0  0  0  # atno 6908 bound_to 6896
  152.4936  134.4398  159.9592 H   0  0  0  0  0  0  0  0  0  0  0  0  # atno 6909 bound_to 6896
  146.2429  140.0127  142.8405 H   0  0  0  0  0  0  0  0  0  0  0  0  # atno 7974 bound_to 7965
  156.1818  140.3096  155.9162 H   0  0  0  0  0  0  0  0  0  0  0  0  # atno 8008 bound_to 7997
  155.3368  140.0463  157.3061 H   0  0  0  0  0  0  0  0  0  0  0  0  # atno 8009 bound_to 7997
  154.5351  140.2243  155.8747 H   0  0  0  0  0  0  0  0  0  0  0  0  # atno 8010 bound_to 7997
  140.2658  144.3321  150.6304 H   0  0  0  0  0  0  0  0  0  0  0  0  # atno 10167 bound_to 10162
  157.6928  131.0215  150.2972 H   0  0  0  0  0  0  0  0  0  0  0  0  # atno 10718 bound_to 10713
  153.2984  135.4122  155.1231 H   0  0  0  0  0  0  0  0  0  0  0  0  # atno 10763 bound_to 10752
  154.8542  135.3535  154.5885 H   0  0  0  0  0  0  0  0  0  0  0  0  # atno 10764 bound_to 10752
  153.6309  135.7061  153.5334 H   0  0  0  0  0  0  0  0  0  0  0  0  # atno 10765 bound_to 10752
  139.8957  134.9553  156.6763 H   0  0  0  0  0  0  0  0  0  0  0  0  # atno 11005 bound_to 11000
  145.1313  140.9519  143.4542 LP  0  0  0  0  0  0  0  0  0  0  0  0  # atno 17320 bound_to 7965
  145.0385  139.3280  143.5989 LP  0  0  0  0  0  0  0  0  0  0  0  0  # atno 17321 bound_to 7965
  140.5929  143.2167  151.7218 LP  0  0  0  0  0  0  0  0  0  0  0  0  # atno 17342 bound_to 10162
  139.5003  144.3911  152.0278 LP  0  0  0  0  0  0  0  0  0  0  0  0  # atno 17343 bound_to 10162
  156.3494  130.3828  149.7342 LP  0  0  0  0  0  0  0  0  0  0  0  0  # atno 17370 bound_to 10713
  156.4825  130.8047  151.3061 LP  0  0  0  0  0  0  0  0  0  0  0  0  # atno 17371 bound_to 10713
  140.7334  133.9039  155.8227 LP  0  0  0  0  0  0  0  0  0  0  0  0  # atno 17394 bound_to 11000
  141.0135  134.0987  157.4196 LP  0  0  0  0  0  0  0  0  0  0  0  0  # atno 17395 bound_to 11000

$$$$
