AV-unprocessed.smi:1265|AV-procd|sdf|5318|dock8
  -GOLD-   22720 4443D 1   1.00000     0.00000
 Structure written by MMmdl.
 45 47  0  0  0  0  0  0  0  0  2 V2000
  146.7297  132.6678  153.6746 O   0  0  0  0  0  0  0  0  0  0  0  0
  147.4333  132.2443  152.7577 C   0  0  0  0  0  0  0  0  0  0  0  0
  148.7188  131.8958  152.9080 N   0  0  0  0  0  0  0  0  0  0  0  0
  149.4813  131.9541  154.1550 C   0  0  0  0  0  0  0  0  0  0  0  0
  149.2030  130.7321  155.0923 C   0  0  2  0  0  0  0  0  0  0  0  0
  147.7865  130.7589  155.5720 N   0  0  0  0  0  0  0  0  0  0  0  0
  147.3620  131.9829  156.2670 C   0  0  0  0  0  0  0  0  0  0  0  0
  145.8729  131.9533  156.6522 C   0  0  0  0  0  0  0  0  0  0  0  0
  145.6041  130.8098  157.4519 O   0  0  0  0  0  0  0  0  0  0  0  0
  145.9279  129.5997  156.7815 C   0  0  0  0  0  0  0  0  0  0  0  0
  147.4174  129.6019  156.3995 C   0  0  0  0  0  0  0  0  0  0  0  0
  150.2476  130.7614  156.2458 C   0  0  0  0  0  0  0  0  0  0  0  0
  151.6300  130.4104  155.6852 C   0  0  0  0  0  0  0  0  0  0  0  0
  151.3783  129.2401  154.3303 S   0  0  0  0  0  0  0  0  0  0  0  0
  149.5747  129.4384  154.3231 C   0  0  0  0  0  0  0  0  0  0  0  0
  147.0216  132.0441  151.4939 N   0  0  0  0  0  0  0  0  0  0  0  0
  145.7437  132.3037  150.9287 C   0  0  0  0  0  0  0  0  0  0  0  0
  144.6825  132.5919  151.8155 C   0  0  0  0  0  0  0  0  0  0  0  0
  143.3933  132.8387  151.3010 C   0  0  0  0  0  0  0  0  0  0  0  0
  143.1797  132.7871  149.9688 N   0  3  0  0  0  0  0  0  0  0  0  0
  144.1581  132.5006  149.0833 C   0  0  0  0  0  0  0  0  0  0  0  0
  145.4680  132.2458  149.5385 C   0  0  0  0  0  0  0  0  0  0  0  0
  149.2120  131.5430  152.1008 H   0  0  0  0  0  0  0  0  0  0  0  0
  150.5361  132.0097  153.8898 H   0  0  0  0  0  0  0  0  0  0  0  0
  149.3026  132.9025  154.6612 H   0  0  0  0  0  0  0  0  0  0  0  0
  147.9531  132.1380  157.1687 H   0  0  0  0  0  0  0  0  0  0  0  0
  147.4987  132.8581  155.6365 H   0  0  0  0  0  0  0  0  0  0  0  0
  145.6103  132.8500  157.2138 H   0  0  0  0  0  0  0  0  0  0  0  0
  145.2438  131.9392  155.7609 H   0  0  0  0  0  0  0  0  0  0  0  0
  145.7077  128.7592  157.4397 H   0  0  0  0  0  0  0  0  0  0  0  0
  145.3016  129.4851  155.8953 H   0  0  0  0  0  0  0  0  0  0  0  0
  147.6165  128.6676  155.8797 H   0  0  0  0  0  0  0  0  0  0  0  0
  148.0165  129.5885  157.3107 H   0  0  0  0  0  0  0  0  0  0  0  0
  150.2586  131.7069  156.7872 H   0  0  0  0  0  0  0  0  0  0  0  0
  150.0401  129.9905  156.9846 H   0  0  0  0  0  0  0  0  0  0  0  0
  152.1295  131.2980  155.2965 H   0  0  0  0  0  0  0  0  0  0  0  0
  152.2796  129.9819  156.4487 H   0  0  0  0  0  0  0  0  0  0  0  0
  149.1683  128.5539  154.8105 H   0  0  0  0  0  0  0  0  0  0  0  0
  149.1996  129.4356  153.2992 H   0  0  0  0  0  0  0  0  0  0  0  0
  147.6880  131.6038  150.8763 H   0  0  0  0  0  0  0  0  0  0  0  0
  144.8522  132.6298  152.8819 H   0  0  0  0  0  0  0  0  0  0  0  0
  142.5329  133.0712  151.9114 H   0  0  0  0  0  0  0  0  0  0  0  0
  143.8648  132.4763  148.0437 H   0  0  0  0  0  0  0  0  0  0  0  0
  146.2298  131.9984  148.8150 H   0  0  0  0  0  0  0  0  0  0  0  0
  142.2390  132.9672  149.6168 H   0  0  0  0  0  0  0  0  0  0  0  0
  1  2  2  0  0  0  0
  2  3  1  0  0  0  0
  2 16  1  0  0  0  0
  3  4  1  0  0  0  0
  3 23  1  0  0  0  0
  4  5  1  0  0  0  0
  4 24  1  0  0  0  0
  4 25  1  0  0  0  0
  5 15  1  0  0  0  0
  5  6  1  0  0  0  0
  5 12  1  0  0  0  0
  6 11  1  0  0  0  0
  6  7  1  0  0  0  0
  7  8  1  0  0  0  0
  7 26  1  0  0  0  0
  7 27  1  0  0  0  0
  8  9  1  0  0  0  0
  8 28  1  0  0  0  0
  8 29  1  0  0  0  0
  9 10  1  0  0  0  0
 10 11  1  0  0  0  0
 10 30  1  0  0  0  0
 10 31  1  0  0  0  0
 11 32  1  0  0  0  0
 11 33  1  0  0  0  0
 12 13  1  0  0  0  0
 12 34  1  0  0  0  0
 12 35  1  0  0  0  0
 13 14  1  0  0  0  0
 13 36  1  0  0  0  0
 13 37  1  0  0  0  0
 14 15  1  0  0  0  0
 15 38  1  0  0  0  0
 15 39  1  0  0  0  0
 16 17  1  0  0  0  0
 16 40  1  0  0  0  0
 17 22  1  0  0  0  0
 17 18  2  0  0  0  0
 18 19  1  0  0  0  0
 18 41  1  0  0  0  0
 19 20  2  0  0  0  0
 19 42  1  0  0  0  0
 20 21  1  0  0  0  0
 20 45  1  0  0  0  0
 21 22  2  0  0  0  0
 21 43  1  0  0  0  0
 22 44  1  0  0  0  0
M  CHG  1  20   1
M  END
> <s_m_source_file>
AV-unprocessed.smi

> <i_m_source_file_index>
1265

> <i_lp_mmshare_version>
43012

> <i_f3d_flags>
0

> <s_epik_input>
W2NIXTFbY0hdbltjSF1bY0hdYzFbTkhdQyg9TylbTkhdW0NIMl1bQ0BdMihbQ0gyXVtDSDJdU1tDSDJdMilOM1tDSDJdW0NIMl1PW0NIMl1bQ0gyXTM=

> <s_epik_cmdline>
J2VwaWtfcHl0aG9uJywgJy1waCcsICc3LjAnLCAnLXRuJywgJzgnLCAnLW1hJywgJzIwMCcsICctbWV0YWxfYmluZGluZycsICctaW1hZScsICc8aW5maWxlLm1hZT4nLCAnLW9tYWUnLCAnPG91dGZpbGUubWFlPic=

> <r_epik_Ionization_Penalty>
1.06168

> <r_epik_Ionization_Penalty_Charging>
1.04215

> <r_epik_Ionization_Penalty_Neutral>
0.019527

> <r_epik_State_Penalty>
1.12733

> <r_epik_Charging_Adjusted_Penalty>
2.16948

> <i_epik_Tot_Q>
1

> <i_epik_Tot_abs_Q>
1

> <r_epik_Metal_State_Penalty>
1.22116

> <b_epik_Metal_Only>
0

> <s_lp_Force_Field>
OPLS_2005

> <r_lp_Energy>
64.854

> <b_lp_Chiralities_Consistent>
1

> <s_lp_Variant>
AV-unprocessed.smi:1265-4

> <Gold.Version>
5.8.1

> <Gold.Id.Protein>
6NUR|6NUR_protein|mol2

> <Gold.PLP.Fitness>
45.2108

> <Gold.PLP.PLP>
-33.6249

> <Gold.PLP.part.hbond>
-3.0000

> <Gold.PLP.part.metal>
0.0000

> <Gold.PLP.part.buried>
-3.8805

> <Gold.PLP.part.nonpolar>
-26.2981

> <Gold.PLP.part.repulsive>
0.2581

> <Gold.PLP.ligand.clash>
0.0000

> <Gold.PLP.ligand.torsion>
0.2278

> <Gold.PLP.Chemscore.Hbond>
3.9840

> <Gold.PLP.Chemscore.CHOScore>
0.0000

> <Gold.PLP.Chemscore.Metal>
0.0000

> <Gold.Chemscore.Hbonds>
donor molecule, donor type, donor heavy atom, donor atom, acceptor molecule, acceptor atom, score
      L1  H     3    23       P1 10747  0.91
      L1  H    16    40       P1 10747  1.00
      L1  H    20    45       P1 10186  1.54

> <Gold.PLP.Chemscore.Internal.Correction>
0.0896

> <Gold.Rescore>
     Score         DG    S(hbond)    S(metal)    S(lipo)     H(rot)  DE(clash)    DE(int)     intcor
     15.11     -19.53       2.53        0.00      80.15       1.47       0.19       4.24       ----

> <Gold.Chemscore.Fitness>
15.1066

> <Gold.Chemscore.DG>
-19.5272

> <Gold.Chemscore.ZeroCoef>
-5.4800

> <Gold.Chemscore.Hbond>
2.5282

> <Gold.Chemscore.Metal>
0.0000

> <Gold.Chemscore.Lipo>
80.1482

> <Gold.Chemscore.Internal_Hbond>
0.0000

> <Gold.Chemscore.DEClash>
0.1850

> <Gold.Chemscore.DEInternal>
4.2356

> <Gold.Chemscore.Rot>
1.4743

> <Gold.Chemscore.Internal.Correction>
   9.000000E+99

> <Gold.Chemscore.Hbonds>
donor molecule, donor type, donor heavy atom, donor atom, acceptor molecule, acceptor atom, score
      L1  H     3    23       P1 10747  0.40
      L1  H    16    40       P1 10747  0.99
      L1  H    20    45       P1 10186  0.78

> <Gold.Chemscore.Hbond.Weighted>
-8.4441

> <Gold.Chemscore.Metal.Weighted>
-0.0000

> <Gold.Chemscore.Lipo.Weighted>
-9.3773

> <Gold.Chemscore.Internal_Hbond.Weighted>
0.0000

> <Gold.Chemscore.DEClash.Weighted>
0.1850

> <Gold.Chemscore.DEInternal.Weighted>
4.2356

> <Gold.Chemscore.Rot.Weighted>
3.7742

> <Gold.Chemscore.Internal.Correction.Weighted>
   9.000000E+99

> <Gold.Protein.RotatedTorsions>
[ 6907 6896 6895 6894 ] final  -59.93 input  -60.11 | X-H torsion
[ 7974 7965 7964 7962 ] final   53.23 input  175.53 | X-H torsion
[ 8008 7997 7996 7995 ] final -171.09 input   59.86 | X-H torsion
[ 10167 10162 10161 10158 ] final  -78.37 input  -65.29 | X-H torsion
[ 10718 10713 10712 10709 ] final   33.82 input   66.30 | X-H torsion
[ 10763 10752 10751 10750 ] final   33.47 input  -60.55 | X-H torsion
[ 11005 11000 10999 10996 ] final  153.72 input  -57.11 | X-H torsion

> <Gold.Protein.ActiveResidues>
 VAL166  LYS551  ARG553  GLY616  TRP617  ASP618  TYR619  PRO620  LYS621  CYS622 
 ASP623  PHE694  ASN695  SER759  ASP760  ASP761  ALA762  ILE779  LEU786  VAL792 
 PHE793  MET794  SER795  GLU796  ALA797  LYS798  CYS799  TRP800  GLU811  SER814 

> <Gold.Protein.RotatedAtoms>
  150.7893  134.6904  159.6492 H   0  0  0  0  0  0  0  0  0  0  0  0  # atno 6907 bound_to 6896
  152.3996  134.6305  160.0084 H   0  0  0  0  0  0  0  0  0  0  0  0  # atno 6908 bound_to 6896
  151.6581  133.3281  159.3204 H   0  0  0  0  0  0  0  0  0  0  0  0  # atno 6909 bound_to 6896
  145.9733  139.4170  143.0177 H   0  0  0  0  0  0  0  0  0  0  0  0  # atno 7974 bound_to 7965
  155.9269  140.1084  157.1163 H   0  0  0  0  0  0  0  0  0  0  0  0  # atno 8008 bound_to 7997
  154.4064  140.1245  156.4818 H   0  0  0  0  0  0  0  0  0  0  0  0  # atno 8009 bound_to 7997
  155.7127  140.3471  155.4983 H   0  0  0  0  0  0  0  0  0  0  0  0  # atno 8010 bound_to 7997
  140.4688  143.2432  151.8236 H   0  0  0  0  0  0  0  0  0  0  0  0  # atno 10167 bound_to 10162
  157.3026  130.7358  149.6676 H   0  0  0  0  0  0  0  0  0  0  0  0  # atno 10718 bound_to 10713
  153.0210  135.6386  154.1517 H   0  0  0  0  0  0  0  0  0  0  0  0  # atno 10763 bound_to 10752
  154.1251  135.2844  155.3200 H   0  0  0  0  0  0  0  0  0  0  0  0  # atno 10764 bound_to 10752
  154.6235  135.5517  153.7663 H   0  0  0  0  0  0  0  0  0  0  0  0  # atno 10765 bound_to 10752
  140.1424  134.8730  157.2348 H   0  0  0  0  0  0  0  0  0  0  0  0  # atno 11005 bound_to 11000
  145.7875  140.9829  143.1066 LP  0  0  0  0  0  0  0  0  0  0  0  0  # atno 17320 bound_to 7965
  144.6842  139.9641  143.7481 LP  0  0  0  0  0  0  0  0  0  0  0  0  # atno 17321 bound_to 7965
  139.4815  144.4917  151.9176 LP  0  0  0  0  0  0  0  0  0  0  0  0  # atno 17342 bound_to 10162
  140.4002  144.2502  150.5893 LP  0  0  0  0  0  0  0  0  0  0  0  0  # atno 17343 bound_to 10162
  155.9672  130.4275  150.4747 LP  0  0  0  0  0  0  0  0  0  0  0  0  # atno 17370 bound_to 10713
  157.2731  131.0591  151.2247 LP  0  0  0  0  0  0  0  0  0  0  0  0  # atno 17371 bound_to 10713
  140.2706  134.3465  155.7375 LP  0  0  0  0  0  0  0  0  0  0  0  0  # atno 17394 bound_to 11000
  141.2188  133.7421  156.9216 LP  0  0  0  0  0  0  0  0  0  0  0  0  # atno 17395 bound_to 11000

$$$$
