AV-unprocessed.smi:1013|AV-procd|sdf|4426|dock1
  -GOLD-   22720 2383D 1   1.00000     0.00000
 Structure written by MMmdl.
 30 31  0  0  0  0  0  0  0  0  3 V2000
  152.2809  140.0044  156.5261 O   0  0  0  0  0  0  0  0  0  0  0  0
  151.3922  140.4761  155.7838 C   0  0  0  0  0  0  0  0  0  0  0  0
  150.9245  139.9106  154.7693 O   0  5  0  0  0  0  0  0  0  0  0  0
  150.8468  141.8696  156.1487 C   0  0  2  0  0  0  0  0  0  0  0  0
  150.2848  141.8870  157.5887 C   0  0  0  0  0  0  0  0  0  0  0  0
  151.3096  142.1382  158.5881 N   0  0  0  0  0  0  0  0  0  0  0  0
  151.6317  143.3272  159.2060 C   0  0  0  0  0  0  0  0  0  0  0  0
  152.6587  143.0710  160.0679 C   0  0  0  0  0  0  0  0  0  0  0  0
  152.9012  141.6750  159.9130 C   0  0  0  0  0  0  0  0  0  0  0  0
  153.9268  140.8214  160.6111 C   0  0  0  0  0  0  0  0  0  0  0  0
  155.1399  141.0539  160.1094 F   0  0  0  0  0  0  0  0  0  0  0  0
  153.9413  141.1027  161.9139 F   0  0  0  0  0  0  0  0  0  0  0  0
  153.6352  139.5312  160.4475 F   0  0  0  0  0  0  0  0  0  0  0  0
  152.0810  141.1226  159.0292 N   0  0  0  0  0  0  0  0  0  0  0  0
  149.7842  142.2465  155.1908 N   0  3  0  0  0  0  0  0  0  0  0  0
  148.6112  141.3480  155.1864 C   0  0  0  0  0  0  0  0  0  0  0  0
  148.0384  141.0999  153.8128 C   0  0  0  0  0  0  0  0  0  0  0  0
  147.3365  142.0397  154.7713 C   0  0  0  0  0  0  0  0  0  0  0  0
  151.6420  142.6149  156.0767 H   0  0  0  0  0  0  0  0  0  0  0  0
  149.5379  142.6759  157.6836 H   0  0  0  0  0  0  0  0  0  0  0  0
  149.7710  140.9526  157.8236 H   0  0  0  0  0  0  0  0  0  0  0  0
  151.1135  144.2472  158.9797 H   0  0  0  0  0  0  0  0  0  0  0  0
  153.1637  143.7754  160.7120 H   0  0  0  0  0  0  0  0  0  0  0  0
  149.4829  143.1845  155.4153 H   0  0  0  0  0  0  0  0  0  0  0  0
  148.5839  140.5775  155.9549 H   0  0  0  0  0  0  0  0  0  0  0  0
  148.5479  141.5391  152.9568 H   0  0  0  0  0  0  0  0  0  0  0  0
  147.5733  140.1330  153.6316 H   0  0  0  0  0  0  0  0  0  0  0  0
  146.4076  141.6918  155.2186 H   0  0  0  0  0  0  0  0  0  0  0  0
  147.3747  143.1047  154.5484 H   0  0  0  0  0  0  0  0  0  0  0  0
  150.1800  142.2439  154.2624 H   0  0  0  0  0  0  0  0  0  0  0  0
  1  2  2  0  0  0  0
  2  3  1  0  0  0  0
  2  4  1  0  0  0  0
  4  5  1  0  0  0  0
  4 15  1  0  0  0  0
  4 19  1  0  0  0  0
  5  6  1  0  0  0  0
  5 20  1  0  0  0  0
  5 21  1  0  0  0  0
  6 14  1  0  0  0  0
  6  7  1  0  0  0  0
  7  8  2  0  0  0  0
  7 22  1  0  0  0  0
  8  9  1  0  0  0  0
  8 23  1  0  0  0  0
  9 10  1  0  0  0  0
  9 14  2  0  0  0  0
 10 11  1  0  0  0  0
 10 12  1  0  0  0  0
 10 13  1  0  0  0  0
 15 16  1  0  0  0  0
 15 24  1  0  0  0  0
 15 30  1  0  0  0  0
 16 18  1  0  0  0  0
 16 17  1  0  0  0  0
 16 25  1  0  0  0  0
 17 18  1  0  0  0  0
 17 26  1  0  0  0  0
 17 27  1  0  0  0  0
 18 28  1  0  0  0  0
 18 29  1  0  0  0  0
M  CHG  1   3  -1
M  CHG  1  15   1
M  END
> <s_m_source_file>
AV-unprocessed.smi

> <i_m_source_file_index>
1013

> <i_lp_mmshare_version>
43012

> <i_f3d_flags>
0

> <s_epik_input>
W0NIMl0xW0NIMl1bQ0hdMVtOSF1bQ0BIXShDKD1PKVtPSF0pW0NIMl1uMltjSF1bY0hdYyhuMilDKEYpKEYpRg==

> <s_epik_cmdline>
J2VwaWtfcHl0aG9uJywgJy1waCcsICc3LjAnLCAnLXRuJywgJzgnLCAnLW1hJywgJzIwMCcsICctbWV0YWxfYmluZGluZycsICctaW1hZScsICc8aW5maWxlLm1hZT4nLCAnLW9tYWUnLCAnPG91dGZpbGUubWFlPic=

> <r_lp_tautomer_probability>
1

> <r_epik_Ionization_Penalty>
0.183175

> <r_epik_Ionization_Penalty_Charging>
0.183175

> <r_epik_Ionization_Penalty_Neutral>
3.57035e-11

> <r_epik_State_Penalty>
0.172705

> <r_epik_Charging_Adjusted_Penalty>
0.35588

> <i_epik_Tot_Q>
0

> <i_epik_Tot_abs_Q>
2

> <r_epik_Metal_State_Penalty>
0.172705

> <b_epik_Metal_Only>
0

> <s_lp_Force_Field>
OPLS_2005

> <r_lp_Energy>
11.6824

> <b_lp_Chiralities_Consistent>
1

> <s_lp_Variant>
AV-unprocessed.smi:1013-1

> <Gold.Version>
5.8.1

> <Gold.Id.Protein>
6NUR|6NUR_protein|mol2

> <Gold.PLP.Fitness>
53.5269

> <Gold.PLP.PLP>
-40.8461

> <Gold.PLP.part.hbond>
-3.0000

> <Gold.PLP.part.metal>
0.0000

> <Gold.PLP.part.buried>
-2.7487

> <Gold.PLP.part.nonpolar>
-34.3953

> <Gold.PLP.part.repulsive>
0.2889

> <Gold.PLP.ligand.clash>
0.0000

> <Gold.PLP.ligand.torsion>
1.6257

> <Gold.PLP.Chemscore.Hbond>
5.0000

> <Gold.PLP.Chemscore.CHOScore>
0.0000

> <Gold.PLP.Chemscore.Metal>
0.0000

> <Gold.Chemscore.Hbonds>
donor molecule, donor type, donor heavy atom, donor atom, acceptor molecule, acceptor atom, score
      L1  H    15    24       P1  8028  2.00
      P1  H  7989  7998       L1     3  1.00
      P1  H  7997  8010       L1     1  1.85

> <Gold.PLP.Chemscore.Internal.Correction>
0.9322

> <Gold.Rescore>
     Score         DG    S(hbond)    S(metal)    S(lipo)     H(rot)  DE(clash)    DE(int)     intcor
     11.92     -16.49       2.73        0.00      72.85       2.60       0.21       4.36       ----

> <Gold.Chemscore.Fitness>
11.9208

> <Gold.Chemscore.DG>
-16.4867

> <Gold.Chemscore.ZeroCoef>
-5.4800

> <Gold.Chemscore.Hbond>
2.7341

> <Gold.Chemscore.Metal>
0.0000

> <Gold.Chemscore.Lipo>
72.8461

> <Gold.Chemscore.Internal_Hbond>
0.0000

> <Gold.Chemscore.DEClash>
0.2108

> <Gold.Chemscore.DEInternal>
4.3551

> <Gold.Chemscore.Rot>
2.5970

> <Gold.Chemscore.Internal.Correction>
   9.000000E+99

> <Gold.Chemscore.Hbonds>
donor molecule, donor type, donor heavy atom, donor atom, acceptor molecule, acceptor atom, score
      L1  H    15    24       P1  8028  1.00
      P1  H  7989  7998       L1     3  0.30
      P1  H  7997  8010       L1     1  0.88

> <Gold.Chemscore.Hbond.Weighted>
-9.1321

> <Gold.Chemscore.Metal.Weighted>
-0.0000

> <Gold.Chemscore.Lipo.Weighted>
-8.5230

> <Gold.Chemscore.Internal_Hbond.Weighted>
0.0000

> <Gold.Chemscore.DEClash.Weighted>
0.2108

> <Gold.Chemscore.DEInternal.Weighted>
4.3551

> <Gold.Chemscore.Rot.Weighted>
6.6484

> <Gold.Chemscore.Internal.Correction.Weighted>
   9.000000E+99

> <Gold.Protein.RotatedTorsions>
[ 6907 6896 6895 6894 ] final -165.50 input  -60.11 | X-H torsion
[ 7974 7965 7964 7962 ] final  -25.41 input  175.53 | X-H torsion
[ 8008 7997 7996 7995 ] final   73.81 input   59.86 | X-H torsion
[ 10167 10162 10161 10158 ] final  -77.97 input  -65.29 | X-H torsion
[ 10718 10713 10712 10709 ] final  106.78 input   66.30 | X-H torsion
[ 10763 10752 10751 10750 ] final   94.46 input  -60.55 | X-H torsion
[ 11005 11000 10999 10996 ] final  129.37 input  -57.11 | X-H torsion

> <Gold.Protein.ActiveResidues>
 VAL166  LYS551  ARG553  GLY616  TRP617  ASP618  TYR619  PRO620  LYS621  CYS622 
 ASP623  PHE694  ASN695  SER759  ASP760  ASP761  ALA762  ILE779  LEU786  VAL792 
 PHE793  MET794  SER795  GLU796  ALA797  LYS798  CYS799  TRP800  GLU811  SER814 

> <Gold.Protein.RotatedAtoms>
  151.4287  133.3676  159.2765 H   0  0  0  0  0  0  0  0  0  0  0  0  # atno 6907 bound_to 6896
  150.9241  134.8659  159.7519 H   0  0  0  0  0  0  0  0  0  0  0  0  # atno 6908 bound_to 6896
  152.4996  134.4227  159.9538 H   0  0  0  0  0  0  0  0  0  0  0  0  # atno 6909 bound_to 6896
  146.1493  140.4882  142.8618 H   0  0  0  0  0  0  0  0  0  0  0  0  # atno 7974 bound_to 7965
  155.7892  140.3480  155.5340 H   0  0  0  0  0  0  0  0  0  0  0  0  # atno 8008 bound_to 7997
  155.8651  140.0977  157.1608 H   0  0  0  0  0  0  0  0  0  0  0  0  # atno 8009 bound_to 7997
  154.4014  140.1351  156.3996 H   0  0  0  0  0  0  0  0  0  0  0  0  # atno 8010 bound_to 7997
  140.4723  143.2423  151.8185 H   0  0  0  0  0  0  0  0  0  0  0  0  # atno 10167 bound_to 10162
  157.6655  131.0858  150.6058 H   0  0  0  0  0  0  0  0  0  0  0  0  # atno 10718 bound_to 10713
  153.2419  135.4289  155.0706 H   0  0  0  0  0  0  0  0  0  0  0  0  # atno 10763 bound_to 10752
  154.8344  135.3404  154.6637 H   0  0  0  0  0  0  0  0  0  0  0  0  # atno 10764 bound_to 10752
  153.7061  135.7025  153.5106 H   0  0  0  0  0  0  0  0  0  0  0  0  # atno 10765 bound_to 10752
  139.9612  134.9602  156.9138 H   0  0  0  0  0  0  0  0  0  0  0  0  # atno 11005 bound_to 11000
  144.7884  140.5983  143.6558 LP  0  0  0  0  0  0  0  0  0  0  0  0  # atno 17320 bound_to 7965
  145.4862  139.1492  143.3734 LP  0  0  0  0  0  0  0  0  0  0  0  0  # atno 17321 bound_to 7965
  139.4820  144.4876  151.9227 LP  0  0  0  0  0  0  0  0  0  0  0  0  # atno 17342 bound_to 10162
  140.3961  144.2553  150.5896 LP  0  0  0  0  0  0  0  0  0  0  0  0  # atno 17343 bound_to 10162
  156.6359  130.4445  149.5770 LP  0  0  0  0  0  0  0  0  0  0  0  0  # atno 17370 bound_to 10713
  156.2246  130.6758  151.1403 LP  0  0  0  0  0  0  0  0  0  0  0  0  # atno 17371 bound_to 10713
  140.5497  134.0639  155.7365 LP  0  0  0  0  0  0  0  0  0  0  0  0  # atno 17394 bound_to 11000
  141.1289  133.9336  157.2578 LP  0  0  0  0  0  0  0  0  0  0  0  0  # atno 17395 bound_to 11000

$$$$
