AV-unprocessed.smi:37|AV-procd|sdf|308|dock7
  -GOLD-   2262016123D 1   1.00000     0.00000
 Structure written by MMmdl.
 44 45  0  0  0  0  0  0  0  0  1 V2000
  146.9384  136.4251  162.7603 C   0  0  0  0  0  0  0  0  0  0  0  0
  147.3921  135.6596  161.5106 C   0  0  0  0  0  0  0  0  0  0  0  0
  147.3737  136.5345  160.2595 C   0  0  0  0  0  0  0  0  0  0  0  0
  146.7309  137.5836  160.2203 O   0  0  0  0  0  0  0  0  0  0  0  0
  148.1293  136.0338  159.2686 O   0  0  0  0  0  0  0  0  0  0  0  0
  148.4211  136.8240  158.1266 C   0  0  0  0  0  0  0  0  0  0  0  0
  149.8472  137.3921  158.2392 C   0  0  1  0  0  0  0  0  0  0  0  0
  150.7201  136.2854  158.4789 O   0  0  0  0  0  0  0  0  0  0  0  0
  151.6321  136.1598  157.4318 C   0  0  1  0  0  0  0  0  0  0  0  0
  151.8000  134.6923  157.1205 N   0  0  0  0  0  0  0  0  0  0  0  0
  151.2601  134.1550  155.9603 C   0  0  0  0  0  0  0  0  0  0  0  0
  151.3548  132.8429  155.6408 C   0  0  0  0  0  0  0  0  0  0  0  0
  150.8073  132.3969  154.4976 F   0  0  0  0  0  0  0  0  0  0  0  0
  152.0415  131.9091  156.5285 C   0  0  0  0  0  0  0  0  0  0  0  0
  152.1820  130.7047  156.3260 O   0  0  0  0  0  0  0  0  0  0  0  0
  152.5589  132.4917  157.6893 N   0  0  0  0  0  0  0  0  0  0  0  0
  152.4673  133.8426  158.0313 C   0  0  0  0  0  0  0  0  0  0  0  0
  152.9665  134.2410  159.0825 O   0  0  0  0  0  0  0  0  0  0  0  0
  151.0613  136.9287  156.2469 C   0  0  2  0  0  0  0  0  0  0  0  0
  152.4908  137.5652  155.0165 Br  0  0  0  0  0  0  0  0  0  0  0  0
  150.3818  138.0736  156.9631 C   0  0  1  0  0  0  0  0  0  0  0  0
  149.3852  138.6535  156.1307 O   0  0  0  0  0  0  0  0  0  0  0  0
  149.7178  139.1753  154.9358 C   0  0  0  0  0  0  0  0  0  0  0  0
  150.8147  139.6442  154.6324 O   0  0  0  0  0  0  0  0  0  0  0  0
  148.5552  139.1669  153.9461 C   0  0  0  0  0  0  0  0  0  0  0  0
  148.2879  140.5555  153.3503 C   0  0  0  0  0  0  0  0  0  0  0  0
  153.0403  131.8832  158.3354 H   0  0  0  0  0  0  0  0  0  0  0  0
  146.9891  135.7848  163.6408 H   0  0  0  0  0  0  0  0  0  0  0  0
  145.9093  136.7733  162.6653 H   0  0  0  0  0  0  0  0  0  0  0  0
  147.5728  137.2925  162.9460 H   0  0  0  0  0  0  0  0  0  0  0  0
  148.4012  135.2741  161.6579 H   0  0  0  0  0  0  0  0  0  0  0  0
  146.7449  134.7977  161.3459 H   0  0  0  0  0  0  0  0  0  0  0  0
  148.3444  136.1820  157.2485 H   0  0  0  0  0  0  0  0  0  0  0  0
  147.7019  137.6339  157.9975 H   0  0  0  0  0  0  0  0  0  0  0  0
  149.9050  138.0726  159.0893 H   0  0  0  0  0  0  0  0  0  0  0  0
  152.5840  136.5660  157.7764 H   0  0  0  0  0  0  0  0  0  0  0  0
  150.7367  134.8069  155.2761 H   0  0  0  0  0  0  0  0  0  0  0  0
  150.3488  136.3198  155.6892 H   0  0  0  0  0  0  0  0  0  0  0  0
  151.1443  138.8037  157.2401 H   0  0  0  0  0  0  0  0  0  0  0  0
  148.7749  138.4549  153.1501 H   0  0  0  0  0  0  0  0  0  0  0  0
  147.6621  138.8049  154.4561 H   0  0  0  0  0  0  0  0  0  0  0  0
  147.4224  140.5288  152.6881 H   0  0  0  0  0  0  0  0  0  0  0  0
  149.1376  140.9106  152.7662 H   0  0  0  0  0  0  0  0  0  0  0  0
  148.0843  141.2900  154.1303 H   0  0  0  0  0  0  0  0  0  0  0  0
  1  2  1  0  0  0  0
  1 28  1  0  0  0  0
  1 29  1  0  0  0  0
  1 30  1  0  0  0  0
  2  3  1  0  0  0  0
  2 31  1  0  0  0  0
  2 32  1  0  0  0  0
  3  4  2  0  0  0  0
  3  5  1  0  0  0  0
  5  6  1  0  0  0  0
  6  7  1  0  0  0  0
  6 33  1  0  0  0  0
  6 34  1  0  0  0  0
  7 21  1  0  0  0  0
  7  8  1  0  0  0  0
  7 35  1  0  0  0  0
  8  9  1  0  0  0  0
  9 10  1  0  0  0  0
  9 19  1  0  0  0  0
  9 36  1  0  0  0  0
 10 17  1  0  0  0  0
 10 11  1  0  0  0  0
 11 12  2  0  0  0  0
 11 37  1  0  0  0  0
 12 13  1  0  0  0  0
 12 14  1  0  0  0  0
 14 15  2  0  0  0  0
 14 16  1  0  0  0  0
 16 27  1  0  0  0  0
 16 17  1  0  0  0  0
 17 18  2  0  0  0  0
 19 20  1  0  0  0  0
 19 21  1  0  0  0  0
 19 38  1  0  0  0  0
 21 22  1  0  0  0  0
 21 39  1  0  0  0  0
 22 23  1  0  0  0  0
 23 24  2  0  0  0  0
 23 25  1  0  0  0  0
 25 26  1  0  0  0  0
 25 40  1  0  0  0  0
 25 41  1  0  0  0  0
 26 42  1  0  0  0  0
 26 43  1  0  0  0  0
 26 44  1  0  0  0  0
M  END
> <s_m_source_file>
AV-unprocessed.smi

> <i_m_source_file_index>
37

> <i_lp_mmshare_version>
43012

> <i_f3d_flags>
0

> <s_epik_input>
W0NIM11bQ0gyXUMoPU8pT1tDSDJdW0NAQEhdMU9bQ0BASF0objJbY0hdYyhGKWMoPU8pW25IXWMyPU8pW0NAQEhdKEJyKVtDQEhdMU9DKD1PKVtDSDJdW0NIM10=

> <s_epik_cmdline>
J2VwaWtfcHl0aG9uJywgJy1waCcsICc3LjAnLCAnLXRuJywgJzgnLCAnLW1hJywgJzIwMCcsICctbWV0YWxfYmluZGluZycsICctaW1hZScsICc8aW5maWxlLm1hZT4nLCAnLW9tYWUnLCAnPG91dGZpbGUubWFlPic=

> <r_lp_tautomer_probability>
0.999537

> <r_epik_Ionization_Penalty>
0.104106

> <r_epik_Ionization_Penalty_Charging>
0.104106

> <r_epik_Ionization_Penalty_Neutral>
3.94675e-16

> <r_epik_State_Penalty>
0.0940182

> <r_epik_Charging_Adjusted_Penalty>
0.198124

> <i_epik_Tot_Q>
0

> <i_epik_Tot_abs_Q>
0

> <r_epik_Metal_State_Penalty>
3.05314

> <b_epik_Metal_Only>
0

> <s_epik_Chemistry_Notes>
This compound has an ester and may undergo hydrolysis at high or low pH. This compound contains an acetal/aminal-like group ( X-CH(R)-Y where X, Y are N, S, or O) that may be acid/base labile, releasing an aldehyde.

> <s_lp_Force_Field>
OPLS_2005

> <r_lp_Energy>
26.2696

> <b_lp_Chiralities_Consistent>
1

> <s_lp_Variant>
AV-unprocessed.smi:37-6

> <Gold.Version>
5.8.1

> <Gold.Id.Protein>
6NUR|6NUR_protein|mol2

> <Gold.PLP.Fitness>
50.8745

> <Gold.PLP.PLP>
-41.0624

> <Gold.PLP.part.hbond>
-4.8927

> <Gold.PLP.part.metal>
0.0000

> <Gold.PLP.part.buried>
-3.2375

> <Gold.PLP.part.nonpolar>
-32.2549

> <Gold.PLP.part.repulsive>
0.1680

> <Gold.PLP.ligand.clash>
0.0000

> <Gold.PLP.ligand.torsion>
1.3071

> <Gold.PLP.Chemscore.Hbond>
3.7058

> <Gold.PLP.Chemscore.CHOScore>
0.3807

> <Gold.PLP.Chemscore.Metal>
0.0000

> <Gold.Chemscore.Hbonds>
donor molecule, donor type, donor heavy atom, donor atom, acceptor molecule, acceptor atom, score
      P1  H  6896  6909       L1     8  0.61
      P1  H  6934  6947       L1     4  1.00
      P1  H  7989  7998       L1    24  1.00

> <Gold.PLP.Chemscore.Internal.Correction>
0.1668

> <Gold.Rescore>
     Score         DG    S(hbond)    S(metal)    S(lipo)     H(rot)  DE(clash)    DE(int)     intcor
     11.99     -15.61       3.40        0.00      62.40       3.33       0.73       2.89       ----

> <Gold.Chemscore.Fitness>
11.9881

> <Gold.Chemscore.DG>
-15.6134

> <Gold.Chemscore.ZeroCoef>
-5.4800

> <Gold.Chemscore.Hbond>
3.4008

> <Gold.Chemscore.Metal>
0.0000

> <Gold.Chemscore.Lipo>
62.3955

> <Gold.Chemscore.Internal_Hbond>
0.0000

> <Gold.Chemscore.DEClash>
0.7338

> <Gold.Chemscore.DEInternal>
2.8914

> <Gold.Chemscore.Rot>
3.3303

> <Gold.Chemscore.Internal.Correction>
   9.000000E+99

> <Gold.Chemscore.Hbonds>
donor molecule, donor type, donor heavy atom, donor atom, acceptor molecule, acceptor atom, score
      P1  H  6896  6909       L1     8  0.44
      P1  H  6934  6947       L1     4  1.00
      P1  H  7989  7998       L1    24  1.00

> <Gold.Chemscore.Hbond.Weighted>
-11.3587

> <Gold.Chemscore.Metal.Weighted>
-0.0000

> <Gold.Chemscore.Lipo.Weighted>
-7.3003

> <Gold.Chemscore.Internal_Hbond.Weighted>
0.0000

> <Gold.Chemscore.DEClash.Weighted>
0.7338

> <Gold.Chemscore.DEInternal.Weighted>
2.8914

> <Gold.Chemscore.Rot.Weighted>
8.5256

> <Gold.Chemscore.Internal.Correction.Weighted>
   9.000000E+99

> <Gold.Protein.RotatedTorsions>
[ 6907 6896 6895 6894 ] final   56.24 input  -60.11 | X-H torsion
[ 7974 7965 7964 7962 ] final -153.46 input  175.53 | X-H torsion
[ 8008 7997 7996 7995 ] final  176.30 input   59.86 | X-H torsion
[ 10167 10162 10161 10158 ] final   -5.19 input  -65.29 | X-H torsion
[ 10718 10713 10712 10709 ] final  122.32 input   66.30 | X-H torsion
[ 10763 10752 10751 10750 ] final   68.25 input  -60.55 | X-H torsion
[ 11005 11000 10999 10996 ] final -110.02 input  -57.11 | X-H torsion

> <Gold.Protein.ActiveResidues>
 VAL166  LYS551  ARG553  GLY616  TRP617  ASP618  TYR619  PRO620  LYS621  CYS622 
 ASP623  PHE694  ASN695  SER759  ASP760  ASP761  ALA762  ILE779  LEU786  VAL792 
 PHE793  MET794  SER795  GLU796  ALA797  LYS798  CYS799  TRP800  GLU811  SER814 

> <Gold.Protein.RotatedAtoms>
  152.3617  134.6862  160.0204 H   0  0  0  0  0  0  0  0  0  0  0  0  # atno 6907 bound_to 6896
  151.7184  133.3308  159.3317 H   0  0  0  0  0  0  0  0  0  0  0  0  # atno 6908 bound_to 6896
  150.7609  134.6404  159.6279 H   0  0  0  0  0  0  0  0  0  0  0  0  # atno 6909 bound_to 6896
  144.7739  140.4522  143.5887 H   0  0  0  0  0  0  0  0  0  0  0  0  # atno 7974 bound_to 7965
  156.0779  140.1387  156.9748 H   0  0  0  0  0  0  0  0  0  0  0  0  # atno 8008 bound_to 7997
  154.4568  140.0958  156.6831 H   0  0  0  0  0  0  0  0  0  0  0  0  # atno 8009 bound_to 7997
  155.5123  140.3454  155.4393 H   0  0  0  0  0  0  0  0  0  0  0  0  # atno 8010 bound_to 7997
  140.6954  143.6337  150.8499 H   0  0  0  0  0  0  0  0  0  0  0  0  # atno 10167 bound_to 10162
  157.5751  131.1080  150.8294 H   0  0  0  0  0  0  0  0  0  0  0  0  # atno 10718 bound_to 10713
  153.0226  135.5254  154.7105 H   0  0  0  0  0  0  0  0  0  0  0  0  # atno 10763 bound_to 10752
  154.6188  135.2886  155.0351 H   0  0  0  0  0  0  0  0  0  0  0  0  # atno 10764 bound_to 10752
  154.1345  135.6587  153.4981 H   0  0  0  0  0  0  0  0  0  0  0  0  # atno 10765 bound_to 10752
  141.0815  133.9211  157.2278 H   0  0  0  0  0  0  0  0  0  0  0  0  # atno 11005 bound_to 11000
  145.6241  139.1528  143.3006 LP  0  0  0  0  0  0  0  0  0  0  0  0  # atno 17320 bound_to 7965
  146.1906  140.6350  142.9147 LP  0  0  0  0  0  0  0  0  0  0  0  0  # atno 17321 bound_to 7965
  140.0054  143.5699  152.2859 LP  0  0  0  0  0  0  0  0  0  0  0  0  # atno 17342 bound_to 10162
  139.6403  144.7654  151.2352 LP  0  0  0  0  0  0  0  0  0  0  0  0  # atno 17343 bound_to 10162
  156.8756  130.5161  149.5294 LP  0  0  0  0  0  0  0  0  0  0  0  0  # atno 17370 bound_to 10713
  156.0796  130.5809  150.9537 LP  0  0  0  0  0  0  0  0  0  0  0  0  # atno 17371 bound_to 10713
  139.9629  135.0149  156.9310 LP  0  0  0  0  0  0  0  0  0  0  0  0  # atno 17394 bound_to 11000
  140.5457  134.0676  155.7354 LP  0  0  0  0  0  0  0  0  0  0  0  0  # atno 17395 bound_to 11000

$$$$
