AV-unprocessed.smi:162|AV-procd|sdf|1376|dock8
  -GOLD-   2262019103D 1   1.00000     0.00000
 Structure written by MMmdl.
 54 57  0  0  0  0  0  0  0  0  1 V2000
  149.7440  139.5525  154.4837 C   0  0  0  0  0  0  0  0  0  0  0  0
  150.4729  140.7045  154.8781 O   0  0  0  0  0  0  0  0  0  0  0  0
  151.4558  140.4561  155.8737 C   0  0  0  0  0  0  0  0  0  0  0  0
  151.1665  141.2291  157.1792 C   0  0  2  0  0  0  0  0  0  0  0  0
  151.4237  142.7362  157.0622 C   0  0  0  0  0  0  0  0  0  0  0  0
  151.8402  143.1778  158.4756 C   0  0  1  0  0  0  0  0  0  0  0  0
  150.9155  144.0821  159.0637 O   0  0  0  0  0  0  0  0  0  0  0  0
  151.2316  145.4455  158.8312 C   0  0  0  0  0  0  0  0  0  0  0  0
  151.8631  141.8770  159.2861 C   0  0  0  0  0  0  0  0  0  0  0  0
  151.9896  140.8080  158.3050 N   0  0  0  0  0  0  0  0  0  0  0  0
  151.7654  139.5469  158.7445 C   0  0  0  0  0  0  0  0  0  0  0  0
  152.7447  138.8507  159.3811 N   0  0  0  0  0  0  0  0  0  0  0  0
  152.5012  137.6185  159.8384 C   0  0  0  0  0  0  0  0  0  0  0  0
  151.3705  136.9119  159.7737 N   0  0  0  0  0  0  0  0  0  0  0  0
  150.3865  137.6094  159.1369 C   0  0  0  0  0  0  0  0  0  0  0  0
  150.5001  138.9199  158.5952 C   0  0  0  0  0  0  0  0  0  0  0  0
  149.2928  139.3079  158.0287 N   0  0  0  0  0  0  0  0  0  0  0  0
  148.5060  138.2865  158.2316 C   0  0  0  0  0  0  0  0  0  0  0  0
  149.0836  137.2184  158.8817 N   0  0  0  0  0  0  0  0  0  0  0  0
  148.4401  135.9655  159.2444 C   0  0  0  0  0  0  0  0  0  0  0  0
  147.7993  135.9549  160.6553 C   0  0  0  0  0  0  0  0  0  0  0  0
  148.6666  136.7289  161.4645 O   0  0  0  0  0  0  0  0  0  0  0  0
  146.4003  136.6073  160.6847 C   0  0  0  0  0  0  0  0  0  0  0  0
  145.7517  136.5079  162.0775 C   0  0  0  0  0  0  0  0  0  0  0  0
  145.6910  135.1472  162.4901 O   0  0  0  0  0  0  0  0  0  0  0  0
  146.9767  134.5521  162.6249 C   0  0  0  0  0  0  0  0  0  0  0  0
  147.6974  134.5396  161.2644 C   0  0  0  0  0  0  0  0  0  0  0  0
  150.1257  141.0775  157.4692 H   0  0  0  0  0  0  0  0  0  0  0  0
  152.8439  143.6061  158.4557 H   0  0  0  0  0  0  0  0  0  0  0  0
  149.0613  139.8157  153.6761 H   0  0  0  0  0  0  0  0  0  0  0  0
  149.1461  139.1515  155.3017 H   0  0  0  0  0  0  0  0  0  0  0  0
  150.4078  138.7686  154.1174 H   0  0  0  0  0  0  0  0  0  0  0  0
  151.5316  139.3829  156.0528 H   0  0  0  0  0  0  0  0  0  0  0  0
  152.4206  140.7695  155.4734 H   0  0  0  0  0  0  0  0  0  0  0  0
  152.2414  142.9342  156.3679 H   0  0  0  0  0  0  0  0  0  0  0  0
  150.5423  143.2581  156.6888 H   0  0  0  0  0  0  0  0  0  0  0  0
  150.4817  146.0789  159.3046 H   0  0  0  0  0  0  0  0  0  0  0  0
  151.2453  145.6826  157.7671 H   0  0  0  0  0  0  0  0  0  0  0  0
  152.2022  145.7013  159.2579 H   0  0  0  0  0  0  0  0  0  0  0  0
  152.6888  141.8610  159.9981 H   0  0  0  0  0  0  0  0  0  0  0  0
  150.9334  141.7783  159.8485 H   0  0  0  0  0  0  0  0  0  0  0  0
  153.3299  137.1301  160.3293 H   0  0  0  0  0  0  0  0  0  0  0  0
  147.4753  138.2831  157.9076 H   0  0  0  0  0  0  0  0  0  0  0  0
  147.6841  135.7469  158.4888 H   0  0  0  0  0  0  0  0  0  0  0  0
  149.1837  135.1711  159.1642 H   0  0  0  0  0  0  0  0  0  0  0  0
  149.5217  136.3265  161.4586 H   0  0  0  0  0  0  0  0  0  0  0  0
  146.4560  137.6499  160.3693 H   0  0  0  0  0  0  0  0  0  0  0  0
  145.7420  136.1063  159.9754 H   0  0  0  0  0  0  0  0  0  0  0  0
  146.3001  137.0997  162.8120 H   0  0  0  0  0  0  0  0  0  0  0  0
  144.7386  136.9090  162.0451 H   0  0  0  0  0  0  0  0  0  0  0  0
  147.5605  135.0853  163.3766 H   0  0  0  0  0  0  0  0  0  0  0  0
  146.8530  133.5322  162.9892 H   0  0  0  0  0  0  0  0  0  0  0  0
  147.1345  133.8881  160.5961 H   0  0  0  0  0  0  0  0  0  0  0  0
  148.6870  134.0928  161.3664 H   0  0  0  0  0  0  0  0  0  0  0  0
  1  2  1  0  0  0  0
  1 30  1  0  0  0  0
  1 31  1  0  0  0  0
  1 32  1  0  0  0  0
  2  3  1  0  0  0  0
  3  4  1  0  0  0  0
  3 33  1  0  0  0  0
  3 34  1  0  0  0  0
  4 28  1  0  0  0  0
  4 10  1  0  0  0  0
  4  5  1  0  0  0  0
  5  6  1  0  0  0  0
  5 35  1  0  0  0  0
  5 36  1  0  0  0  0
  6 29  1  0  0  0  0
  6  7  1  0  0  0  0
  6  9  1  0  0  0  0
  7  8  1  0  0  0  0
  8 37  1  0  0  0  0
  8 38  1  0  0  0  0
  8 39  1  0  0  0  0
  9 10  1  0  0  0  0
  9 40  1  0  0  0  0
  9 41  1  0  0  0  0
 10 11  1  0  0  0  0
 11 16  1  0  0  0  0
 11 12  2  0  0  0  0
 12 13  1  0  0  0  0
 13 14  2  0  0  0  0
 13 42  1  0  0  0  0
 14 15  1  0  0  0  0
 15 19  1  0  0  0  0
 15 16  2  0  0  0  0
 16 17  1  0  0  0  0
 17 18  2  0  0  0  0
 18 19  1  0  0  0  0
 18 43  1  0  0  0  0
 19 20  1  0  0  0  0
 20 21  1  0  0  0  0
 20 44  1  0  0  0  0
 20 45  1  0  0  0  0
 21 27  1  0  0  0  0
 21 22  1  0  0  0  0
 21 23  1  0  0  0  0
 22 46  1  0  0  0  0
 23 24  1  0  0  0  0
 23 47  1  0  0  0  0
 23 48  1  0  0  0  0
 24 25  1  0  0  0  0
 24 49  1  0  0  0  0
 24 50  1  0  0  0  0
 25 26  1  0  0  0  0
 26 27  1  0  0  0  0
 26 51  1  0  0  0  0
 26 52  1  0  0  0  0
 27 53  1  0  0  0  0
 27 54  1  0  0  0  0
M  END
> <s_m_source_file>
AV-unprocessed.smi

> <i_m_source_file_index>
162

> <i_lp_mmshare_version>
43012

> <i_f3d_flags>
0

> <s_epik_input>
W0NIM11PW0NIMl1bQ0BASF0xW0NIMl1bQ0BASF0oT1tDSDNdKVtDSDJdTjFjKG5bY0hdbjIpYyhjMjMpbltjSF1uM1tDSDJdQzQoW09IXSlbQ0gyXVtDSDJdT1tDSDJdW0NIMl00

> <s_epik_cmdline>
J2VwaWtfcHl0aG9uJywgJy1waCcsICc3LjAnLCAnLXRuJywgJzgnLCAnLW1hJywgJzIwMCcsICctbWV0YWxfYmluZGluZycsICctaW1hZScsICc8aW5maWxlLm1hZT4nLCAnLW9tYWUnLCAnPG91dGZpbGUubWFlPic=

> <r_lp_tautomer_probability>
1

> <r_epik_Ionization_Penalty>
0.00660334

> <r_epik_Ionization_Penalty_Charging>
0

> <r_epik_Ionization_Penalty_Neutral>
0.00660334

> <r_epik_State_Penalty>
0.00469459

> <r_epik_Charging_Adjusted_Penalty>
0.00469459

> <i_epik_Tot_Q>
0

> <i_epik_Tot_abs_Q>
0

> <r_epik_Metal_State_Penalty>
-0

> <b_epik_Metal_Only>
0

> <s_lp_Force_Field>
OPLS_2005

> <r_lp_Energy>
45.7705

> <b_lp_Chiralities_Consistent>
1

> <s_lp_Variant>
AV-unprocessed.smi:162-1

> <Gold.Version>
5.8.1

> <Gold.Id.Protein>
6NUR|6NUR_protein|mol2

> <Gold.PLP.Fitness>
45.8738

> <Gold.PLP.PLP>
-42.6331

> <Gold.PLP.part.hbond>
-3.0000

> <Gold.PLP.part.metal>
0.0000

> <Gold.PLP.part.buried>
-6.2882

> <Gold.PLP.part.nonpolar>
-33.8352

> <Gold.PLP.part.repulsive>
0.1862

> <Gold.PLP.ligand.clash>
0.0000

> <Gold.PLP.ligand.torsion>
2.2585

> <Gold.PLP.Chemscore.Hbond>
2.5600

> <Gold.PLP.Chemscore.CHOScore>
0.0000

> <Gold.PLP.Chemscore.Metal>
0.0000

> <Gold.Chemscore.Hbonds>
donor molecule, donor type, donor heavy atom, donor atom, acceptor molecule, acceptor atom, score
      P1  H  6896  6908       L1    14  1.00
      P1  H  6931  6943       L1    22  1.00
      P1  H  7989  7998       L1     2  0.75

> <Gold.PLP.Chemscore.Internal.Correction>
0.0778

> <Gold.Rescore>
     Score         DG    S(hbond)    S(metal)    S(lipo)     H(rot)  DE(clash)    DE(int)     intcor
     12.87     -15.98       1.90        0.00      98.24       2.86       0.18       2.93       ----

> <Gold.Chemscore.Fitness>
12.8745

> <Gold.Chemscore.DG>
-15.9848

> <Gold.Chemscore.ZeroCoef>
-5.4800

> <Gold.Chemscore.Hbond>
1.8992

> <Gold.Chemscore.Metal>
0.0000

> <Gold.Chemscore.Lipo>
98.2388

> <Gold.Chemscore.Internal_Hbond>
0.0000

> <Gold.Chemscore.DEClash>
0.1835

> <Gold.Chemscore.DEInternal>
2.9267

> <Gold.Chemscore.Rot>
2.8642

> <Gold.Chemscore.Internal.Correction>
   9.000000E+99

> <Gold.Chemscore.Hbonds>
donor molecule, donor type, donor heavy atom, donor atom, acceptor molecule, acceptor atom, score
      P1  H  6896  6908       L1    14  0.90
      P1  H  6931  6943       L1    22  0.25
      P1  H  7989  7998       L1     2  0.04

> <Gold.Chemscore.Hbond.Weighted>
-6.3432

> <Gold.Chemscore.Metal.Weighted>
-0.0000

> <Gold.Chemscore.Lipo.Weighted>
-11.4939

> <Gold.Chemscore.Internal_Hbond.Weighted>
0.0000

> <Gold.Chemscore.DEClash.Weighted>
0.1835

> <Gold.Chemscore.DEInternal.Weighted>
2.9267

> <Gold.Chemscore.Rot.Weighted>
7.3324

> <Gold.Chemscore.Internal.Correction.Weighted>
   9.000000E+99

> <Gold.Protein.RotatedTorsions>
[ 6907 6896 6895 6894 ] final -146.94 input  -60.11 | X-H torsion
[ 7974 7965 7964 7962 ] final -118.38 input  175.53 | X-H torsion
[ 8008 7997 7996 7995 ] final   26.45 input   59.86 | X-H torsion
[ 10167 10162 10161 10158 ] final  129.99 input  -65.29 | X-H torsion
[ 10718 10713 10712 10709 ] final   98.82 input   66.30 | X-H torsion
[ 10763 10752 10751 10750 ] final  161.80 input  -60.55 | X-H torsion
[ 11005 11000 10999 10996 ] final  -93.21 input  -57.11 | X-H torsion

> <Gold.Protein.ActiveResidues>
 VAL166  LYS551  ARG553  GLY616  TRP617  ASP618  TYR619  PRO620  LYS621  CYS622 
 ASP623  PHE694  ASN695  SER759  ASP760  ASP761  ALA762  ILE779  LEU786  VAL792 
 PHE793  MET794  SER795  GLU796  ALA797  LYS798  CYS799  TRP800  GLU811  SER814 

> <Gold.Protein.RotatedAtoms>
  151.1487  133.4922  159.2595 H   0  0  0  0  0  0  0  0  0  0  0  0  # atno 6907 bound_to 6896
  151.1577  135.0258  159.8706 H   0  0  0  0  0  0  0  0  0  0  0  0  # atno 6908 bound_to 6896
  152.5463  134.1364  159.8514 H   0  0  0  0  0  0  0  0  0  0  0  0  # atno 6909 bound_to 6896
  145.0745  140.8382  143.4076 H   0  0  0  0  0  0  0  0  0  0  0  0  # atno 7974 bound_to 7965
  155.0274  140.3154  155.4771 H   0  0  0  0  0  0  0  0  0  0  0  0  # atno 8008 bound_to 7997
  156.2880  140.2186  156.5337 H   0  0  0  0  0  0  0  0  0  0  0  0  # atno 8009 bound_to 7997
  154.7400  140.0474  157.0790 H   0  0  0  0  0  0  0  0  0  0  0  0  # atno 8010 bound_to 7997
  139.5451  144.6766  151.4498 H   0  0  0  0  0  0  0  0  0  0  0  0  # atno 10167 bound_to 10162
  157.6888  131.0651  150.4854 H   0  0  0  0  0  0  0  0  0  0  0  0  # atno 10718 bound_to 10713
  154.2685  135.2766  155.2748 H   0  0  0  0  0  0  0  0  0  0  0  0  # atno 10763 bound_to 10752
  154.5322  135.5726  153.6772 H   0  0  0  0  0  0  0  0  0  0  0  0  # atno 10764 bound_to 10752
  152.9949  135.6230  154.2839 H   0  0  0  0  0  0  0  0  0  0  0  0  # atno 10765 bound_to 10752
  141.1503  133.7873  157.0128 H   0  0  0  0  0  0  0  0  0  0  0  0  # atno 11005 bound_to 11000
  145.1252  139.2667  143.5567 LP  0  0  0  0  0  0  0  0  0  0  0  0  # atno 17320 bound_to 7965
  146.3529  140.0888  142.8613 LP  0  0  0  0  0  0  0  0  0  0  0  0  # atno 17321 bound_to 7965
  140.6696  143.8322  150.6984 LP  0  0  0  0  0  0  0  0  0  0  0  0  # atno 17342 bound_to 10162
  140.1742  143.4169  152.1979 LP  0  0  0  0  0  0  0  0  0  0  0  0  # atno 17343 bound_to 10162
  156.5183  130.4156  149.6264 LP  0  0  0  0  0  0  0  0  0  0  0  0  # atno 17370 bound_to 10713
  156.3177  130.7263  151.2169 LP  0  0  0  0  0  0  0  0  0  0  0  0  # atno 17371 bound_to 10713
  140.0866  134.9617  157.1710 LP  0  0  0  0  0  0  0  0  0  0  0  0  # atno 17394 bound_to 11000
  140.3503  134.2606  155.7199 LP  0  0  0  0  0  0  0  0  0  0  0  0  # atno 17395 bound_to 11000

$$$$
