AV-unprocessed.smi:193|AV-procd|sdf|1496|dock5
  -GOLD-   2262019323D 1   1.00000     0.00000
 Structure written by MMmdl.
 62 66  0  0  0  0  0  0  0  0  2 V2000
  148.4953  128.2719  153.5894 C   0  0  0  0  0  0  0  0  0  0  0  0
  148.4836  129.7851  153.3186 C   0  0  2  0  0  0  0  0  0  0  0  0
  149.1974  130.5154  154.4746 C   0  0  0  0  0  0  0  0  0  0  0  0
  149.6745  131.8563  154.1407 N   0  0  0  0  0  0  0  0  0  0  0  0
  150.2583  132.5413  155.1475 C   0  0  0  0  0  0  0  0  0  0  0  0
  151.1249  131.8652  155.9414 N   0  0  0  0  0  0  0  0  0  0  0  0
  151.7308  132.4928  156.9544 C   0  0  0  0  0  0  0  0  0  0  0  0
  151.6193  133.7680  157.3324 N   0  0  0  0  0  0  0  0  0  0  0  0
  150.7632  134.4540  156.5219 C   0  0  0  0  0  0  0  0  0  0  0  0
  150.0464  133.9232  155.4130 C   0  0  0  0  0  0  0  0  0  0  0  0
  149.2866  134.9229  154.8173 N   0  0  0  0  0  0  0  0  0  0  0  0
  149.5308  135.9816  155.5408 C   0  0  0  0  0  0  0  0  0  0  0  0
  150.4098  135.7906  156.5829 N   0  0  0  0  0  0  0  0  0  0  0  0
  150.8544  136.7916  157.5402 C   0  0  0  0  0  0  0  0  0  0  0  0
  151.4922  138.0447  156.8909 C   0  0  0  0  0  0  0  0  0  0  0  0
  152.4787  138.5372  157.7818 O   0  0  0  0  0  0  0  0  0  0  0  0
  152.1791  137.6684  155.5628 C   0  0  0  0  0  0  0  0  0  0  0  0
  152.6793  138.9054  154.7962 C   0  0  0  0  0  0  0  0  0  0  0  0
  151.6046  139.8124  154.5829 O   0  0  0  0  0  0  0  0  0  0  0  0
  151.0613  140.3170  155.7966 C   0  0  0  0  0  0  0  0  0  0  0  0
  150.4649  139.1680  156.6289 C   0  0  0  0  0  0  0  0  0  0  0  0
  149.0370  132.6869  153.1237 C   0  0  0  0  0  0  0  0  0  0  0  0
  147.5067  132.7066  153.2330 C   0  0  0  0  0  0  0  0  0  0  0  0
  146.8999  131.5860  152.4753 N   0  3  2  0  0  0  0  0  0  0  0  0
  145.4940  131.8752  152.1130 C   0  0  2  0  0  0  0  0  0  0  0  0
  145.0012  131.0918  150.9181 C   0  0  0  0  0  0  0  0  0  0  0  0
  145.3379  132.5602  150.7728 C   0  0  1  0  0  0  0  0  0  0  0  0
  144.2393  133.5761  150.5502 C   0  0  0  0  0  0  0  0  0  0  0  0
  147.0249  130.2702  153.1511 C   0  0  0  0  0  0  0  0  0  0  0  0
  147.9601  128.0286  154.5080 H   0  0  0  0  0  0  0  0  0  0  0  0
  149.5142  127.8962  153.6890 H   0  0  0  0  0  0  0  0  0  0  0  0
  148.0262  127.7197  152.7744 H   0  0  0  0  0  0  0  0  0  0  0  0
  149.0323  129.9408  152.3886 H   0  0  0  0  0  0  0  0  0  0  0  0
  148.5465  130.5367  155.3477 H   0  0  0  0  0  0  0  0  0  0  0  0
  150.0768  129.9411  154.7702 H   0  0  0  0  0  0  0  0  0  0  0  0
  152.4015  131.8875  157.5463 H   0  0  0  0  0  0  0  0  0  0  0  0
  149.0780  136.9400  155.3308 H   0  0  0  0  0  0  0  0  0  0  0  0
  149.9992  137.0779  158.1542 H   0  0  0  0  0  0  0  0  0  0  0  0
  151.5668  136.3183  158.2171 H   0  0  0  0  0  0  0  0  0  0  0  0
  153.2356  138.7942  157.2775 H   0  0  0  0  0  0  0  0  0  0  0  0
  153.0053  136.9784  155.7406 H   0  0  0  0  0  0  0  0  0  0  0  0
  151.4691  137.1359  154.9286 H   0  0  0  0  0  0  0  0  0  0  0  0
  153.4889  139.4016  155.3333 H   0  0  0  0  0  0  0  0  0  0  0  0
  153.0816  138.6055  153.8283 H   0  0  0  0  0  0  0  0  0  0  0  0
  151.8293  140.8515  156.3577 H   0  0  0  0  0  0  0  0  0  0  0  0
  150.2850  141.0439  155.5566 H   0  0  0  0  0  0  0  0  0  0  0  0
  149.6131  138.7554  156.0868 H   0  0  0  0  0  0  0  0  0  0  0  0
  150.0697  139.5623  157.5658 H   0  0  0  0  0  0  0  0  0  0  0  0
  149.4029  133.7109  153.2190 H   0  0  0  0  0  0  0  0  0  0  0  0
  149.3501  132.3566  152.1327 H   0  0  0  0  0  0  0  0  0  0  0  0
  147.1641  132.7228  154.2688 H   0  0  0  0  0  0  0  0  0  0  0  0
  147.1640  133.6408  152.7862 H   0  0  0  0  0  0  0  0  0  0  0  0
  144.8204  132.1039  152.9376 H   0  0  0  0  0  0  0  0  0  0  0  0
  145.6771  130.3755  150.4546 H   0  0  0  0  0  0  0  0  0  0  0  0
  143.9497  130.8116  150.9039 H   0  0  0  0  0  0  0  0  0  0  0  0
  146.2533  132.7850  150.2277 H   0  0  0  0  0  0  0  0  0  0  0  0
  143.3452  133.3102  151.1151 H   0  0  0  0  0  0  0  0  0  0  0  0
  143.9809  133.6229  149.4922 H   0  0  0  0  0  0  0  0  0  0  0  0
  144.5723  134.5632  150.8714 H   0  0  0  0  0  0  0  0  0  0  0  0
  146.4864  129.5407  152.5445 H   0  0  0  0  0  0  0  0  0  0  0  0
  146.5130  130.2964  154.1145 H   0  0  0  0  0  0  0  0  0  0  0  0
  147.4042  131.5189  151.6028 H   0  0  0  0  0  0  0  0  0  0  0  0
  1  2  1  0  0  0  0
  1 30  1  0  0  0  0
  1 31  1  0  0  0  0
  1 32  1  0  0  0  0
  2 29  1  0  0  0  0
  2  3  1  0  0  0  0
  2 33  1  0  0  0  0
  3  4  1  0  0  0  0
  3 34  1  0  0  0  0
  3 35  1  0  0  0  0
  4  5  1  0  0  0  0
  4 22  1  0  0  0  0
  5 10  1  0  0  0  0
  5  6  2  0  0  0  0
  6  7  1  0  0  0  0
  7  8  2  0  0  0  0
  7 36  1  0  0  0  0
  8  9  1  0  0  0  0
  9 13  1  0  0  0  0
  9 10  2  0  0  0  0
 10 11  1  0  0  0  0
 11 12  2  0  0  0  0
 12 13  1  0  0  0  0
 12 37  1  0  0  0  0
 13 14  1  0  0  0  0
 14 15  1  0  0  0  0
 14 38  1  0  0  0  0
 14 39  1  0  0  0  0
 15 21  1  0  0  0  0
 15 16  1  0  0  0  0
 15 17  1  0  0  0  0
 16 40  1  0  0  0  0
 17 18  1  0  0  0  0
 17 41  1  0  0  0  0
 17 42  1  0  0  0  0
 18 19  1  0  0  0  0
 18 43  1  0  0  0  0
 18 44  1  0  0  0  0
 19 20  1  0  0  0  0
 20 21  1  0  0  0  0
 20 45  1  0  0  0  0
 20 46  1  0  0  0  0
 21 47  1  0  0  0  0
 21 48  1  0  0  0  0
 22 23  1  0  0  0  0
 22 49  1  0  0  0  0
 22 50  1  0  0  0  0
 23 24  1  0  0  0  0
 23 51  1  0  0  0  0
 23 52  1  0  0  0  0
 24 25  1  0  0  0  0
 24 29  1  0  0  0  0
 24 62  1  0  0  0  0
 25 27  1  0  0  0  0
 25 26  1  0  0  0  0
 25 53  1  0  0  0  0
 26 27  1  0  0  0  0
 26 54  1  0  0  0  0
 26 55  1  0  0  0  0
 27 28  1  0  0  0  0
 27 56  1  0  0  0  0
 28 57  1  0  0  0  0
 28 58  1  0  0  0  0
 28 59  1  0  0  0  0
 29 60  1  0  0  0  0
 29 61  1  0  0  0  0
M  CHG  1  24   1
M  END
> <s_m_source_file>
AV-unprocessed.smi

> <i_m_source_file_index>
193

> <i_lp_mmshare_version>
43012

> <i_f3d_flags>
0

> <s_epik_input>
W0NIM11bQ0BASF0xW0NIMl1bQ0BIXTFOKFtDSDJdMilbQ0gyXVtDSDJdTihbQ0gyXVtDQEhdMltDSDNdKWMobltjSF1uMyljKGMzNCluW2NIXW40W0NIMl1DNShbT0hdKVtDSDJdW0NIMl1PW0NIMl1bQ0gyXTU=

> <s_epik_cmdline>
J2VwaWtfcHl0aG9uJywgJy1waCcsICc3LjAnLCAnLXRuJywgJzgnLCAnLW1hJywgJzIwMCcsICctbWV0YWxfYmluZGluZycsICctaW1hZScsICc8aW5maWxlLm1hZT4nLCAnLW9tYWUnLCAnPG91dGZpbGUubWFlPic=

> <r_lp_tautomer_probability>
1

> <r_epik_Ionization_Penalty>
0.0540825

> <r_epik_Ionization_Penalty_Charging>
0.0538476

> <r_epik_Ionization_Penalty_Neutral>
0.000234891

> <r_epik_State_Penalty>
0.0200719

> <r_epik_Charging_Adjusted_Penalty>
0.0739194

> <i_epik_Tot_Q>
1

> <i_epik_Tot_abs_Q>
1

> <r_epik_Metal_State_Penalty>
0.0199414

> <b_epik_Metal_Only>
0

> <s_lp_Force_Field>
OPLS_2005

> <r_lp_Energy>
53.912

> <b_lp_Chiralities_Consistent>
1

> <s_lp_Variant>
AV-unprocessed.smi:193-1

> <Gold.Version>
5.8.1

> <Gold.Id.Protein>
6NUR|6NUR_protein|mol2

> <Gold.PLP.Fitness>
48.0070

> <Gold.PLP.PLP>
-43.3817

> <Gold.PLP.part.hbond>
-2.9709

> <Gold.PLP.part.metal>
0.0000

> <Gold.PLP.part.buried>
-7.5712

> <Gold.PLP.part.nonpolar>
-33.1256

> <Gold.PLP.part.repulsive>
0.2232

> <Gold.PLP.ligand.clash>
0.0000

> <Gold.PLP.ligand.torsion>
1.6408

> <Gold.PLP.Chemscore.Hbond>
2.1465

> <Gold.PLP.Chemscore.CHOScore>
0.0000

> <Gold.PLP.Chemscore.Metal>
0.0000

> <Gold.Chemscore.Hbonds>
donor molecule, donor type, donor heavy atom, donor atom, acceptor molecule, acceptor atom, score
      L1  H    24    62       P1 10747  0.67
      P1  H  6896  6908       L1     8  0.19
      P1  H  7989  7998       L1    19  0.94

> <Gold.PLP.Chemscore.Internal.Correction>
1.4674

> <Gold.Rescore>
     Score         DG    S(hbond)    S(metal)    S(lipo)     H(rot)  DE(clash)    DE(int)     intcor
     15.75     -18.89       1.89        0.00     102.91       1.93       0.24       2.90       ----

> <Gold.Chemscore.Fitness>
15.7464

> <Gold.Chemscore.DG>
-18.8914

> <Gold.Chemscore.ZeroCoef>
-5.4800

> <Gold.Chemscore.Hbond>
1.8888

> <Gold.Chemscore.Metal>
0.0000

> <Gold.Chemscore.Lipo>
102.9141

> <Gold.Chemscore.Internal_Hbond>
0.0000

> <Gold.Chemscore.DEClash>
0.2410

> <Gold.Chemscore.DEInternal>
2.9040

> <Gold.Chemscore.Rot>
1.9290

> <Gold.Chemscore.Internal.Correction>
   9.000000E+99

> <Gold.Chemscore.Hbonds>
donor molecule, donor type, donor heavy atom, donor atom, acceptor molecule, acceptor atom, score
      L1  H    24    62       P1 10747  0.66
      P1  H  6896  6908       L1     8  0.02
      P1  H  7989  7998       L1    19  0.75

> <Gold.Chemscore.Hbond.Weighted>
-6.3087

> <Gold.Chemscore.Metal.Weighted>
-0.0000

> <Gold.Chemscore.Lipo.Weighted>
-12.0410

> <Gold.Chemscore.Internal_Hbond.Weighted>
0.0000

> <Gold.Chemscore.DEClash.Weighted>
0.2410

> <Gold.Chemscore.DEInternal.Weighted>
2.9040

> <Gold.Chemscore.Rot.Weighted>
4.9383

> <Gold.Chemscore.Internal.Correction.Weighted>
   9.000000E+99

> <Gold.Protein.RotatedTorsions>
[ 6907 6896 6895 6894 ] final   48.95 input  -60.11 | X-H torsion
[ 7974 7965 7964 7962 ] final  103.19 input  175.53 | X-H torsion
[ 8008 7997 7996 7995 ] final -100.47 input   59.86 | X-H torsion
[ 10167 10162 10161 10158 ] final   92.91 input  -65.29 | X-H torsion
[ 10718 10713 10712 10709 ] final  -67.07 input   66.30 | X-H torsion
[ 10763 10752 10751 10750 ] final -125.49 input  -60.55 | X-H torsion
[ 11005 11000 10999 10996 ] final -117.39 input  -57.11 | X-H torsion

> <Gold.Protein.ActiveResidues>
 VAL166  LYS551  ARG553  GLY616  TRP617  ASP618  TYR619  PRO620  LYS621  CYS622 
 ASP623  PHE694  ASN695  SER759  ASP760  ASP761  ALA762  ILE779  LEU786  VAL792 
 PHE793  MET794  SER795  GLU796  ALA797  LYS798  CYS799  TRP800  GLU811  SER814 

> <Gold.Protein.RotatedAtoms>
  152.2853  134.7783  160.0388 H   0  0  0  0  0  0  0  0  0  0  0  0  # atno 6907 bound_to 6896
  151.8348  133.3409  159.3633 H   0  0  0  0  0  0  0  0  0  0  0  0  # atno 6908 bound_to 6896
  150.7207  134.5377  159.5776 H   0  0  0  0  0  0  0  0  0  0  0  0  # atno 6909 bound_to 6896
  145.3492  139.2443  143.3567 H   0  0  0  0  0  0  0  0  0  0  0  0  # atno 7974 bound_to 7965
  154.8291  140.0440  157.1464 H   0  0  0  0  0  0  0  0  0  0  0  0  # atno 8008 bound_to 7997
  154.9172  140.3022  155.5215 H   0  0  0  0  0  0  0  0  0  0  0  0  # atno 8009 bound_to 7997
  156.2986  140.2347  156.4218 H   0  0  0  0  0  0  0  0  0  0  0  0  # atno 8010 bound_to 7997
  139.8231  144.6722  150.9493 H   0  0  0  0  0  0  0  0  0  0  0  0  # atno 10167 bound_to 10162
  156.0577  130.4272  150.1801 H   0  0  0  0  0  0  0  0  0  0  0  0  # atno 10718 bound_to 10713
  154.8736  135.4028  154.3276 H   0  0  0  0  0  0  0  0  0  0  0  0  # atno 10763 bound_to 10752
  153.4095  135.7020  153.6375 H   0  0  0  0  0  0  0  0  0  0  0  0  # atno 10764 bound_to 10752
  153.5083  135.3712  155.2545 H   0  0  0  0  0  0  0  0  0  0  0  0  # atno 10765 bound_to 10752
  141.0358  133.9912  157.3073 H   0  0  0  0  0  0  0  0  0  0  0  0  # atno 11005 bound_to 11000
  146.2975  140.4104  142.8716 LP  0  0  0  0  0  0  0  0  0  0  0  0  # atno 17320 bound_to 7965
  144.8731  140.7299  143.6034 LP  0  0  0  0  0  0  0  0  0  0  0  0  # atno 17321 bound_to 7965
  140.7812  143.4072  151.1051 LP  0  0  0  0  0  0  0  0  0  0  0  0  # atno 17342 bound_to 10162
  139.7731  143.8465  152.3124 LP  0  0  0  0  0  0  0  0  0  0  0  0  # atno 17343 bound_to 10162
  156.9874  130.9883  151.3423 LP  0  0  0  0  0  0  0  0  0  0  0  0  # atno 17370 bound_to 10713
  157.5561  130.8215  149.8207 LP  0  0  0  0  0  0  0  0  0  0  0  0  # atno 17371 bound_to 10713
  139.9239  135.0201  156.8165 LP  0  0  0  0  0  0  0  0  0  0  0  0  # atno 17394 bound_to 11000
  140.6325  133.9892  155.7669 LP  0  0  0  0  0  0  0  0  0  0  0  0  # atno 17395 bound_to 11000

$$$$
