AV-unprocessed.smi:1586|AV-procd|sdf|6374|dock10
  -GOLD-   22720 7 03D 1   1.00000     0.00000
 Structure written by MMmdl.
 47 48  0  0  0  0  0  0  0  0  2 V2000
  150.9979  141.2621  158.5913 C   0  0  0  0  0  0  0  0  0  0  0  0
  151.3450  141.9299  157.2531 C   0  0  0  0  0  0  0  0  0  0  0  0
  151.1040  141.0383  156.0915 N   0  3  0  0  0  0  0  0  0  0  0  0
  149.6609  140.7787  155.8707 C   0  0  0  0  0  0  0  0  0  0  0  0
  149.4549  139.8956  154.6222 C   0  0  0  0  0  0  0  0  0  0  0  0
  150.1415  138.6027  154.7477 N   0  0  0  0  0  0  0  0  0  0  0  0
  149.5771  137.6818  155.7591 C   0  0  1  0  0  0  0  0  0  0  0  0
  148.0335  137.6645  155.7091 C   0  0  0  0  0  0  0  0  0  0  0  0
  150.1163  136.2393  155.5989 C   0  0  0  0  0  0  0  0  0  0  0  0
  149.4053  135.5073  154.5564 N   0  0  0  0  0  0  0  0  0  0  0  0
  148.8581  134.2958  154.7161 C   0  0  0  0  0  0  0  0  0  0  0  0
  148.9103  133.6644  155.7714 O   0  0  0  0  0  0  0  0  0  0  0  0
  148.2641  133.8797  153.5851 N   0  0  0  0  0  0  0  0  0  0  0  0
  147.5516  132.6751  153.3546 C   0  0  0  0  0  0  0  0  0  0  0  0
  146.6556  132.4175  152.2765 C   0  0  0  0  0  0  0  0  0  0  0  0
  146.2544  131.1329  152.5128 C   0  0  0  0  0  0  0  0  0  0  0  0
  145.3268  130.2119  151.7972 C   0  0  0  0  0  0  0  0  0  0  0  0
  146.8542  130.6471  153.6327 O   0  0  0  0  0  0  0  0  0  0  0  0
  147.6846  131.6407  154.1640 N   0  0  0  0  0  0  0  0  0  0  0  0
  151.5723  138.9009  154.9025 C   0  0  0  0  0  0  0  0  0  0  0  0
  151.8549  139.7588  156.1548 C   0  0  0  0  0  0  0  0  0  0  0  0
  151.2759  141.9086  159.4239 H   0  0  0  0  0  0  0  0  0  0  0  0
  151.5338  140.3202  158.7134 H   0  0  0  0  0  0  0  0  0  0  0  0
  149.9312  141.0591  158.6835 H   0  0  0  0  0  0  0  0  0  0  0  0
  150.7905  142.8619  157.1329 H   0  0  0  0  0  0  0  0  0  0  0  0
  152.4016  142.2004  157.2796 H   0  0  0  0  0  0  0  0  0  0  0  0
  149.2189  140.3215  156.7570 H   0  0  0  0  0  0  0  0  0  0  0  0
  149.1454  141.7280  155.7212 H   0  0  0  0  0  0  0  0  0  0  0  0
  148.3942  139.7613  154.4166 H   0  0  0  0  0  0  0  0  0  0  0  0
  149.8483  140.4141  153.7467 H   0  0  0  0  0  0  0  0  0  0  0  0
  149.8621  138.0205  156.7542 H   0  0  0  0  0  0  0  0  0  0  0  0
  147.6318  136.8820  156.3534 H   0  0  0  0  0  0  0  0  0  0  0  0
  147.6636  137.4784  154.7000 H   0  0  0  0  0  0  0  0  0  0  0  0
  147.6009  138.5998  156.0627 H   0  0  0  0  0  0  0  0  0  0  0  0
  151.1863  136.2292  155.3917 H   0  0  0  0  0  0  0  0  0  0  0  0
  150.0032  135.7078  156.5454 H   0  0  0  0  0  0  0  0  0  0  0  0
  149.3237  135.9587  153.6570 H   0  0  0  0  0  0  0  0  0  0  0  0
  148.3268  134.5002  152.7915 H   0  0  0  0  0  0  0  0  0  0  0  0
  146.3493  133.0533  151.4599 H   0  0  0  0  0  0  0  0  0  0  0  0
  144.7383  130.7506  151.0543 H   0  0  0  0  0  0  0  0  0  0  0  0
  144.6365  129.7374  152.4950 H   0  0  0  0  0  0  0  0  0  0  0  0
  145.8826  129.4273  151.2839 H   0  0  0  0  0  0  0  0  0  0  0  0
  152.1662  137.9888  154.9209 H   0  0  0  0  0  0  0  0  0  0  0  0
  151.9104  139.4397  154.0160 H   0  0  0  0  0  0  0  0  0  0  0  0
  152.9240  139.9626  156.2000 H   0  0  0  0  0  0  0  0  0  0  0  0
  151.6052  139.2171  157.0678 H   0  0  0  0  0  0  0  0  0  0  0  0
  151.4291  141.5306  155.2716 H   0  0  0  0  0  0  0  0  0  0  0  0
  1  2  1  0  0  0  0
  1 22  1  0  0  0  0
  1 23  1  0  0  0  0
  1 24  1  0  0  0  0
  2  3  1  0  0  0  0
  2 25  1  0  0  0  0
  2 26  1  0  0  0  0
  3 21  1  0  0  0  0
  3  4  1  0  0  0  0
  3 47  1  0  0  0  0
  4  5  1  0  0  0  0
  4 27  1  0  0  0  0
  4 28  1  0  0  0  0
  5  6  1  0  0  0  0
  5 29  1  0  0  0  0
  5 30  1  0  0  0  0
  6  7  1  0  0  0  0
  6 20  1  0  0  0  0
  7  8  1  0  0  0  0
  7  9  1  0  0  0  0
  7 31  1  0  0  0  0
  8 32  1  0  0  0  0
  8 33  1  0  0  0  0
  8 34  1  0  0  0  0
  9 10  1  0  0  0  0
  9 35  1  0  0  0  0
  9 36  1  0  0  0  0
 10 11  1  0  0  0  0
 10 37  1  0  0  0  0
 11 12  2  0  0  0  0
 11 13  1  0  0  0  0
 13 14  1  0  0  0  0
 13 38  1  0  0  0  0
 14 19  2  0  0  0  0
 14 15  1  0  0  0  0
 15 16  2  0  0  0  0
 15 39  1  0  0  0  0
 16 17  1  0  0  0  0
 16 18  1  0  0  0  0
 17 40  1  0  0  0  0
 17 41  1  0  0  0  0
 17 42  1  0  0  0  0
 18 19  1  0  0  0  0
 20 21  1  0  0  0  0
 20 43  1  0  0  0  0
 20 44  1  0  0  0  0
 21 45  1  0  0  0  0
 21 46  1  0  0  0  0
M  CHG  1   3   1
M  END
> <s_m_source_file>
AV-unprocessed.smi

> <i_m_source_file_index>
1586

> <i_lp_mmshare_version>
43012

> <i_f3d_flags>
0

> <s_epik_input>
W0NIM11bQ0gyXU4xW0NIMl1bQ0gyXU4oW0NIMl1bQ0gyXTEpW0NASF0oW0NIM10pW0NIMl1bTkhdQyg9TylbTkhdYzJbY0hdYyhbQ0gzXSlvbjI=

> <s_epik_cmdline>
J2VwaWtfcHl0aG9uJywgJy1waCcsICc3LjAnLCAnLXRuJywgJzgnLCAnLW1hJywgJzIwMCcsICctbWV0YWxfYmluZGluZycsICctaW1hZScsICc8aW5maWxlLm1hZT4nLCAnLW9tYWUnLCAnPG91dGZpbGUubWFlPic=

> <r_epik_Ionization_Penalty>
0.0459786

> <r_epik_Ionization_Penalty_Charging>
0.0453654

> <r_epik_Ionization_Penalty_Neutral>
0.000613264

> <r_epik_State_Penalty>
0.163057

> <r_epik_Charging_Adjusted_Penalty>
0.208422

> <i_epik_Tot_Q>
1

> <i_epik_Tot_abs_Q>
1

> <r_epik_Metal_State_Penalty>
0.17399

> <b_epik_Metal_Only>
0

> <s_lp_Force_Field>
OPLS_2005

> <r_lp_Energy>
25.6668

> <b_lp_Chiralities_Consistent>
1

> <s_lp_Variant>
AV-unprocessed.smi:1586-2

> <Gold.Version>
5.8.1

> <Gold.Id.Protein>
6NUR|6NUR_protein|mol2

> <Gold.PLP.Fitness>
36.3004

> <Gold.PLP.PLP>
-31.2287

> <Gold.PLP.part.hbond>
-2.0000

> <Gold.PLP.part.metal>
0.0000

> <Gold.PLP.part.buried>
-4.3877

> <Gold.PLP.part.nonpolar>
-24.6183

> <Gold.PLP.part.repulsive>
0.5301

> <Gold.PLP.ligand.clash>
0.0000

> <Gold.PLP.ligand.torsion>
0.4763

> <Gold.PLP.Chemscore.Hbond>
1.9920

> <Gold.PLP.Chemscore.CHOScore>
0.0000

> <Gold.PLP.Chemscore.Metal>
0.0000

> <Gold.Chemscore.Hbonds>
donor molecule, donor type, donor heavy atom, donor atom, acceptor molecule, acceptor atom, score
      L1  H    10    37       P1  7948  1.00
      L1  H    13    38       P1  7948  1.00

> <Gold.PLP.Chemscore.Internal.Correction>
0.0483

> <Gold.Rescore>
     Score         DG    S(hbond)    S(metal)    S(lipo)     H(rot)  DE(clash)    DE(int)     intcor
     12.40     -14.19       1.65        0.00      65.91       1.76       0.00       1.78       ----

> <Gold.Chemscore.Fitness>
12.4019

> <Gold.Chemscore.DG>
-14.1860

> <Gold.Chemscore.ZeroCoef>
-5.4800

> <Gold.Chemscore.Hbond>
1.6494

> <Gold.Chemscore.Metal>
0.0000

> <Gold.Chemscore.Lipo>
65.9148

> <Gold.Chemscore.Internal_Hbond>
0.0000

> <Gold.Chemscore.DEClash>
0.0025

> <Gold.Chemscore.DEInternal>
1.7815

> <Gold.Chemscore.Rot>
1.7637

> <Gold.Chemscore.Internal.Correction>
   9.000000E+99

> <Gold.Chemscore.Hbonds>
donor molecule, donor type, donor heavy atom, donor atom, acceptor molecule, acceptor atom, score
      L1  H    10    37       P1  7948  0.70
      L1  H    13    38       P1  7948  0.28

> <Gold.Chemscore.Hbond.Weighted>
-5.5089

> <Gold.Chemscore.Metal.Weighted>
-0.0000

> <Gold.Chemscore.Lipo.Weighted>
-7.7120

> <Gold.Chemscore.Internal_Hbond.Weighted>
0.0000

> <Gold.Chemscore.DEClash.Weighted>
0.0025

> <Gold.Chemscore.DEInternal.Weighted>
1.7815

> <Gold.Chemscore.Rot.Weighted>
4.5150

> <Gold.Chemscore.Internal.Correction.Weighted>
   9.000000E+99

> <Gold.Protein.RotatedTorsions>
[ 6907 6896 6895 6894 ] final  145.72 input  -60.11 | X-H torsion
[ 7974 7965 7964 7962 ] final   79.15 input  175.53 | X-H torsion
[ 8008 7997 7996 7995 ] final   14.29 input   59.86 | X-H torsion
[ 10167 10162 10161 10158 ] final -159.97 input  -65.29 | X-H torsion
[ 10718 10713 10712 10709 ] final  -66.47 input   66.30 | X-H torsion
[ 10763 10752 10751 10750 ] final  142.46 input  -60.55 | X-H torsion
[ 11005 11000 10999 10996 ] final  134.88 input  -57.11 | X-H torsion

> <Gold.Protein.ActiveResidues>
 VAL166  LYS551  ARG553  GLY616  TRP617  ASP618  TYR619  PRO620  LYS621  CYS622 
 ASP623  PHE694  ASN695  SER759  ASP760  ASP761  ALA762  ILE779  LEU786  VAL792 
 PHE793  MET794  SER795  GLU796  ALA797  LYS798  CYS799  TRP800  GLU811  SER814 

> <Gold.Protein.RotatedAtoms>
  152.1773  133.4683  159.4939 H   0  0  0  0  0  0  0  0  0  0  0  0  # atno 6907 bound_to 6896
  150.6929  134.1878  159.4282 H   0  0  0  0  0  0  0  0  0  0  0  0  # atno 6908 bound_to 6896
  151.9788  135.0039  160.0607 H   0  0  0  0  0  0  0  0  0  0  0  0  # atno 6909 bound_to 6896
  145.6679  139.2488  143.1885 H   0  0  0  0  0  0  0  0  0  0  0  0  # atno 7974 bound_to 7965
  154.8464  140.2922  155.5626 H   0  0  0  0  0  0  0  0  0  0  0  0  # atno 8008 bound_to 7997
  156.3014  140.2504  156.3347 H   0  0  0  0  0  0  0  0  0  0  0  0  # atno 8009 bound_to 7997
  154.9069  140.0389  157.1914 H   0  0  0  0  0  0  0  0  0  0  0  0  # atno 8010 bound_to 7997
  139.6574  143.9973  152.2203 H   0  0  0  0  0  0  0  0  0  0  0  0  # atno 10167 bound_to 10162
  156.0610  130.4262  150.1714 H   0  0  0  0  0  0  0  0  0  0  0  0  # atno 10718 bound_to 10713
  153.9561  135.2965  155.3436 H   0  0  0  0  0  0  0  0  0  0  0  0  # atno 10763 bound_to 10752
  154.7400  135.5029  153.9109 H   0  0  0  0  0  0  0  0  0  0  0  0  # atno 10764 bound_to 10752
  153.0969  135.6723  153.9855 H   0  0  0  0  0  0  0  0  0  0  0  0  # atno 10765 bound_to 10752
  139.9943  134.9503  156.9929 H   0  0  0  0  0  0  0  0  0  0  0  0  # atno 11005 bound_to 11000
  146.1070  140.7474  142.9521 LP  0  0  0  0  0  0  0  0  0  0  0  0  # atno 17320 bound_to 7965
  144.7067  140.3879  143.7113 LP  0  0  0  0  0  0  0  0  0  0  0  0  # atno 17321 bound_to 7965
  139.9703  144.6498  150.7995 LP  0  0  0  0  0  0  0  0  0  0  0  0  # atno 17342 bound_to 10162
  140.7565  143.3068  151.2943 LP  0  0  0  0  0  0  0  0  0  0  0  0  # atno 17343 bound_to 10162
  156.9782  130.9856  151.3443 LP  0  0  0  0  0  0  0  0  0  0  0  0  # atno 17370 bound_to 10713
  157.5619  130.8252  149.8277 LP  0  0  0  0  0  0  0  0  0  0  0  0  # atno 17371 bound_to 10713
  140.4847  134.1253  155.7222 LP  0  0  0  0  0  0  0  0  0  0  0  0  # atno 17394 bound_to 11000
  141.1592  133.8825  157.1895 LP  0  0  0  0  0  0  0  0  0  0  0  0  # atno 17395 bound_to 11000

$$$$
