AV-unprocessed.smi:3324|AV-procd|sdf|12781|dock7
  -GOLD-   2272019123D 1   1.00000     0.00000
 Structure written by MMmdl.
 31 31  0  0  0  0  0  0  0  0  2 V2000
  146.3079  136.4408  152.6575 O   0  0  0  0  0  0  0  0  0  0  0  0
  145.7410  137.4840  152.3302 C   0  0  0  0  0  0  0  0  0  0  0  0
  146.5382  138.7708  152.1070 C   0  0  0  0  0  0  0  0  0  0  0  0
  147.9701  138.6088  152.4337 N   0  3  0  0  0  0  0  0  0  0  0  0
  148.3279  139.0334  153.8004 C   0  0  0  0  0  0  0  0  0  0  0  0
  149.8286  138.8402  154.0621 C   0  0  0  0  0  0  0  0  0  0  0  0
  150.3435  139.8265  154.9920 N   0  0  0  0  0  0  0  0  0  0  0  0
  151.1982  139.6393  156.0581 C   0  0  0  0  0  0  0  0  0  0  0  0
  151.3945  140.8593  156.6393 C   0  0  0  0  0  0  0  0  0  0  0  0
  150.6062  141.7417  155.8490 C   0  0  0  0  0  0  0  0  0  0  0  0
  149.9782  141.1201  154.8636 N   0  0  0  0  0  0  0  0  0  0  0  0
  144.4154  137.5750  152.1473 N   0  0  0  0  0  0  0  0  0  0  0  0
  143.4641  136.4820  152.3265 C   0  0  0  0  0  0  0  0  0  0  0  0
  142.4138  136.8035  153.4034 C   0  0  0  0  0  0  0  0  0  0  0  0
  143.0339  137.0823  154.5491 F   0  0  0  0  0  0  0  0  0  0  0  0
  141.6774  137.8571  153.0502 F   0  0  0  0  0  0  0  0  0  0  0  0
  141.6143  135.7538  153.5939 F   0  0  0  0  0  0  0  0  0  0  0  0
  146.4358  139.0760  151.0648 H   0  0  0  0  0  0  0  0  0  0  0  0
  146.1138  139.5636  152.7249 H   0  0  0  0  0  0  0  0  0  0  0  0
  148.2120  137.6339  152.3248 H   0  0  0  0  0  0  0  0  0  0  0  0
  148.0578  140.0817  153.9348 H   0  0  0  0  0  0  0  0  0  0  0  0
  147.7429  138.4544  154.5163 H   0  0  0  0  0  0  0  0  0  0  0  0
  150.0222  137.8467  154.4699 H   0  0  0  0  0  0  0  0  0  0  0  0
  150.3904  138.9153  153.1298 H   0  0  0  0  0  0  0  0  0  0  0  0
  151.5916  138.6659  156.3122 H   0  0  0  0  0  0  0  0  0  0  0  0
  152.0069  141.0873  157.4993 H   0  0  0  0  0  0  0  0  0  0  0  0
  150.4723  142.8077  155.9610 H   0  0  0  0  0  0  0  0  0  0  0  0
  144.0303  138.4697  151.8800 H   0  0  0  0  0  0  0  0  0  0  0  0
  142.9672  136.3130  151.3707 H   0  0  0  0  0  0  0  0  0  0  0  0
  143.9850  135.5538  152.5679 H   0  0  0  0  0  0  0  0  0  0  0  0
  148.5107  139.1477  151.7721 H   0  0  0  0  0  0  0  0  0  0  0  0
  1  2  2  0  0  0  0
  2  3  1  0  0  0  0
  2 12  1  0  0  0  0
  3  4  1  0  0  0  0
  3 18  1  0  0  0  0
  3 19  1  0  0  0  0
  4  5  1  0  0  0  0
  4 20  1  0  0  0  0
  4 31  1  0  0  0  0
  5  6  1  0  0  0  0
  5 21  1  0  0  0  0
  5 22  1  0  0  0  0
  6  7  1  0  0  0  0
  6 23  1  0  0  0  0
  6 24  1  0  0  0  0
  7 11  1  0  0  0  0
  7  8  1  0  0  0  0
  8  9  2  0  0  0  0
  8 25  1  0  0  0  0
  9 10  1  0  0  0  0
  9 26  1  0  0  0  0
 10 11  2  0  0  0  0
 10 27  1  0  0  0  0
 12 13  1  0  0  0  0
 12 28  1  0  0  0  0
 13 14  1  0  0  0  0
 13 29  1  0  0  0  0
 13 30  1  0  0  0  0
 14 15  1  0  0  0  0
 14 16  1  0  0  0  0
 14 17  1  0  0  0  0
M  CHG  1   4   1
M  END
> <s_m_source_file>
AV-unprocessed.smi

> <i_m_source_file_index>
3324

> <i_lp_mmshare_version>
43012

> <i_f3d_flags>
0

> <s_epik_input>
RkMoRikoRilbQ0gyXVtOSF1DKD1PKVtDSDJdW05IXVtDSDJdW0NIMl1uMVtjSF1bY0hdW2NIXW4x

> <s_epik_cmdline>
J2VwaWtfcHl0aG9uJywgJy1waCcsICc3LjAnLCAnLXRuJywgJzgnLCAnLW1hJywgJzIwMCcsICctbWV0YWxfYmluZGluZycsICctaW1hZScsICc8aW5maWxlLm1hZT4nLCAnLW9tYWUnLCAnPG91dGZpbGUubWFlPic=

> <r_lp_tautomer_probability>
1

> <r_epik_Ionization_Penalty>
0.310414

> <r_epik_Ionization_Penalty_Charging>
0.310394

> <r_epik_Ionization_Penalty_Neutral>
2.02819e-05

> <r_epik_State_Penalty>
0.304907

> <r_epik_Charging_Adjusted_Penalty>
0.6153

> <i_epik_Tot_Q>
1

> <i_epik_Tot_abs_Q>
1

> <r_epik_Metal_State_Penalty>
0.315528

> <b_epik_Metal_Only>
0

> <s_lp_Force_Field>
OPLS_2005

> <r_lp_Energy>
1.82642

> <b_lp_Chiralities_Consistent>
1

> <s_lp_Variant>
AV-unprocessed.smi:3324-1

> <Gold.Version>
5.8.1

> <Gold.Id.Protein>
6NUR|6NUR_protein|mol2

> <Gold.PLP.Fitness>
46.5419

> <Gold.PLP.PLP>
-32.8045

> <Gold.PLP.part.hbond>
-5.0000

> <Gold.PLP.part.metal>
0.0000

> <Gold.PLP.part.buried>
-3.8037

> <Gold.PLP.part.nonpolar>
-25.6009

> <Gold.PLP.part.repulsive>
2.3419

> <Gold.PLP.ligand.clash>
0.0000

> <Gold.PLP.ligand.torsion>
0.6753

> <Gold.PLP.Chemscore.Hbond>
4.0000

> <Gold.PLP.Chemscore.CHOScore>
1.0000

> <Gold.PLP.Chemscore.Metal>
0.0000

> <Gold.Chemscore.Hbonds>
donor molecule, donor type, donor heavy atom, donor atom, acceptor molecule, acceptor atom, score
      L1  H     4    20       P1  7948  2.00
      L1  H     4    31       P1  7957  0.96
      L1  H    12    28       P1 10175  0.83
      L1  C    10    27       P1  8028  1.00

> <Gold.PLP.Chemscore.Internal.Correction>
0.0880

> <Gold.Rescore>
     Score         DG    S(hbond)    S(metal)    S(lipo)     H(rot)  DE(clash)    DE(int)     intcor
     12.60     -13.47       2.95        0.00      47.80       2.91       0.23       0.64       ----

> <Gold.Chemscore.Fitness>
12.6000

> <Gold.Chemscore.DG>
-13.4650

> <Gold.Chemscore.ZeroCoef>
-5.4800

> <Gold.Chemscore.Hbond>
2.9460

> <Gold.Chemscore.Metal>
0.0000

> <Gold.Chemscore.Lipo>
47.7987

> <Gold.Chemscore.Internal_Hbond>
0.0000

> <Gold.Chemscore.DEClash>
0.2253

> <Gold.Chemscore.DEInternal>
0.6398

> <Gold.Chemscore.Rot>
2.9091

> <Gold.Chemscore.Internal.Correction>
   9.000000E+99

> <Gold.Chemscore.Hbonds>
donor molecule, donor type, donor heavy atom, donor atom, acceptor molecule, acceptor atom, score
      L1  H     4    20       P1  7948  0.99
      L1  H     4    31       P1  7957  0.86
      L1  H    12    28       P1 10175  0.78

> <Gold.Chemscore.Hbond.Weighted>
-9.8398

> <Gold.Chemscore.Metal.Weighted>
-0.0000

> <Gold.Chemscore.Lipo.Weighted>
-5.5924

> <Gold.Chemscore.Internal_Hbond.Weighted>
0.0000

> <Gold.Chemscore.DEClash.Weighted>
0.2253

> <Gold.Chemscore.DEInternal.Weighted>
0.6398

> <Gold.Chemscore.Rot.Weighted>
7.4472

> <Gold.Chemscore.Internal.Correction.Weighted>
   9.000000E+99

> <Gold.Protein.RotatedTorsions>
[ 6907 6896 6895 6894 ] final -165.50 input  -60.11 | X-H torsion
[ 7974 7965 7964 7962 ] final  -30.02 input  175.53 | X-H torsion
[ 8008 7997 7996 7995 ] final  -49.63 input   59.86 | X-H torsion
[ 10167 10162 10161 10158 ] final  131.65 input  -65.29 | X-H torsion
[ 10718 10713 10712 10709 ] final   40.65 input   66.30 | X-H torsion
[ 10763 10752 10751 10750 ] final  152.33 input  -60.55 | X-H torsion
[ 11005 11000 10999 10996 ] final  -88.96 input  -57.11 | X-H torsion

> <Gold.Protein.ActiveResidues>
 VAL166  LYS551  ARG553  GLY616  TRP617  ASP618  TYR619  PRO620  LYS621  CYS622 
 ASP623  PHE694  ASN695  SER759  ASP760  ASP761  ALA762  ILE779  LEU786  VAL792 
 PHE793  MET794  SER795  GLU796  ALA797  LYS798  CYS799  TRP800  GLU811  SER814 

> <Gold.Protein.RotatedAtoms>
  151.4286  133.3677  159.2765 H   0  0  0  0  0  0  0  0  0  0  0  0  # atno 6907 bound_to 6896
  150.9241  134.8660  159.7519 H   0  0  0  0  0  0  0  0  0  0  0  0  # atno 6908 bound_to 6896
  152.4996  134.4226  159.9538 H   0  0  0  0  0  0  0  0  0  0  0  0  # atno 6909 bound_to 6896
  146.1173  140.5488  142.8751 H   0  0  0  0  0  0  0  0  0  0  0  0  # atno 7974 bound_to 7965
  154.4047  140.1292  156.4534 H   0  0  0  0  0  0  0  0  0  0  0  0  # atno 8008 bound_to 7997
  155.7343  140.3491  155.5054 H   0  0  0  0  0  0  0  0  0  0  0  0  # atno 8009 bound_to 7997
  155.9098  140.1034  157.1278 H   0  0  0  0  0  0  0  0  0  0  0  0  # atno 8010 bound_to 7997
  139.5374  144.6697  151.4738 H   0  0  0  0  0  0  0  0  0  0  0  0  # atno 10167 bound_to 10162
  157.3845  130.7772  149.7219 H   0  0  0  0  0  0  0  0  0  0  0  0  # atno 10718 bound_to 10713
  154.1183  135.2834  155.3214 H   0  0  0  0  0  0  0  0  0  0  0  0  # atno 10763 bound_to 10752
  154.6441  135.5392  153.7827 H   0  0  0  0  0  0  0  0  0  0  0  0  # atno 10764 bound_to 10752
  153.0321  135.6493  154.1339 H   0  0  0  0  0  0  0  0  0  0  0  0  # atno 10765 bound_to 10752
  141.1593  133.7601  156.9526 H   0  0  0  0  0  0  0  0  0  0  0  0  # atno 11005 bound_to 11000
  144.7565  140.5319  143.6765 LP  0  0  0  0  0  0  0  0  0  0  0  0  # atno 17320 bound_to 7965
  145.5539  139.1477  143.3379 LP  0  0  0  0  0  0  0  0  0  0  0  0  # atno 17321 bound_to 7965
  140.6588  143.8542  150.6865 LP  0  0  0  0  0  0  0  0  0  0  0  0  # atno 17342 bound_to 10162
  140.1930  143.4021  152.1849 LP  0  0  0  0  0  0  0  0  0  0  0  0  # atno 17343 bound_to 10162
  155.9783  130.4052  150.3654 LP  0  0  0  0  0  0  0  0  0  0  0  0  # atno 17370 bound_to 10713
  157.1763  131.0381  151.2771 LP  0  0  0  0  0  0  0  0  0  0  0  0  # atno 17371 bound_to 10713
  140.1247  134.9395  157.2253 LP  0  0  0  0  0  0  0  0  0  0  0  0  # atno 17394 bound_to 11000
  140.3028  134.3112  155.7285 LP  0  0  0  0  0  0  0  0  0  0  0  0  # atno 17395 bound_to 11000

$$$$
