AV-unprocessed.smi:2822|AV-procd|sdf|10876|dock1
  -GOLD-   2272015313D 1   1.00000     0.00000
 Structure written by MMmdl.
 40 42  0  0  0  0  0  0  0  0  2 V2000
  149.0128  137.7983  154.8564 Cl  0  0  0  0  0  0  0  0  0  0  0  0
  148.2694  139.3222  154.5177 C   0  0  0  0  0  0  0  0  0  0  0  0
  146.9663  139.3479  153.9792 C   0  0  0  0  0  0  0  0  0  0  0  0
  146.3701  140.5282  153.7078 N   0  3  0  0  0  0  0  0  0  0  0  0
  146.9704  141.7162  153.9310 C   0  0  0  0  0  0  0  0  0  0  0  0
  148.2729  141.7558  154.4684 C   0  0  0  0  0  0  0  0  0  0  0  0
  148.9428  140.5433  154.7695 C   0  0  0  0  0  0  0  0  0  0  0  0
  150.2386  140.5163  155.3072 N   0  0  0  0  0  0  0  0  0  0  0  0
  150.7944  141.6733  155.9925 C   0  0  0  0  0  0  0  0  0  0  0  0
  151.1141  141.3573  157.4595 C   0  0  2  0  0  0  0  0  0  0  0  0
  151.5097  142.6225  158.2430 C   0  0  0  0  0  0  0  0  0  0  0  0
  151.8810  142.3149  159.6181 N   0  0  0  0  0  0  0  0  0  0  0  0
  152.2564  143.5228  160.3509 C   0  0  0  0  0  0  0  0  0  0  0  0
  152.6188  143.2305  161.8155 C   0  0  0  0  0  0  0  0  0  0  0  0
  153.7458  142.1903  161.8892 C   0  0  0  0  0  0  0  0  0  0  0  0
  153.3702  140.9448  161.0713 C   0  0  0  0  0  0  0  0  0  0  0  0
  152.9666  141.3295  159.6329 C   0  0  1  0  0  0  0  0  0  0  0  0
  152.5811  140.0755  158.8213 C   0  0  0  0  0  0  0  0  0  0  0  0
  152.2108  140.4477  157.4976 O   0  0  0  0  0  0  0  0  0  0  0  0
  146.3864  138.4634  153.7589 H   0  0  0  0  0  0  0  0  0  0  0  0
  146.3951  142.5944  153.6760 H   0  0  0  0  0  0  0  0  0  0  0  0
  148.7358  142.7157  154.6427 H   0  0  0  0  0  0  0  0  0  0  0  0
  150.8675  139.7701  155.0439 H   0  0  0  0  0  0  0  0  0  0  0  0
  151.6929  142.0154  155.4771 H   0  0  0  0  0  0  0  0  0  0  0  0
  150.0650  142.4830  155.9489 H   0  0  0  0  0  0  0  0  0  0  0  0
  150.2425  140.8988  157.9308 H   0  0  0  0  0  0  0  0  0  0  0  0
  152.3414  143.1170  157.7382 H   0  0  0  0  0  0  0  0  0  0  0  0
  150.6781  143.3283  158.2372 H   0  0  0  0  0  0  0  0  0  0  0  0
  153.1008  144.0076  159.8584 H   0  0  0  0  0  0  0  0  0  0  0  0
  151.4325  144.2370  160.3247 H   0  0  0  0  0  0  0  0  0  0  0  0
  152.9218  144.1492  162.3184 H   0  0  0  0  0  0  0  0  0  0  0  0
  151.7393  142.8602  162.3438 H   0  0  0  0  0  0  0  0  0  0  0  0
  154.6673  142.6214  161.4961 H   0  0  0  0  0  0  0  0  0  0  0  0
  153.9443  141.9182  162.9262 H   0  0  0  0  0  0  0  0  0  0  0  0
  154.2097  140.2490  161.0547 H   0  0  0  0  0  0  0  0  0  0  0  0
  152.5449  140.4245  161.5593 H   0  0  0  0  0  0  0  0  0  0  0  0
  153.8406  141.7727  159.1519 H   0  0  0  0  0  0  0  0  0  0  0  0
  153.4209  139.3824  158.7681 H   0  0  0  0  0  0  0  0  0  0  0  0
  151.7559  139.5420  159.2960 H   0  0  0  0  0  0  0  0  0  0  0  0
  145.4268  140.5214  153.3185 H   0  0  0  0  0  0  0  0  0  0  0  0
  1  2  1  0  0  0  0
  2  7  1  0  0  0  0
  2  3  2  0  0  0  0
  3  4  1  0  0  0  0
  3 20  1  0  0  0  0
  4  5  2  0  0  0  0
  4 40  1  0  0  0  0
  5  6  1  0  0  0  0
  5 21  1  0  0  0  0
  6  7  2  0  0  0  0
  6 22  1  0  0  0  0
  7  8  1  0  0  0  0
  8  9  1  0  0  0  0
  8 23  1  0  0  0  0
  9 10  1  0  0  0  0
  9 24  1  0  0  0  0
  9 25  1  0  0  0  0
 10 19  1  0  0  0  0
 10 11  1  0  0  0  0
 10 26  1  0  0  0  0
 11 12  1  0  0  0  0
 11 27  1  0  0  0  0
 11 28  1  0  0  0  0
 12 17  1  0  0  0  0
 12 13  1  0  0  0  0
 13 14  1  0  0  0  0
 13 29  1  0  0  0  0
 13 30  1  0  0  0  0
 14 15  1  0  0  0  0
 14 31  1  0  0  0  0
 14 32  1  0  0  0  0
 15 16  1  0  0  0  0
 15 33  1  0  0  0  0
 15 34  1  0  0  0  0
 16 17  1  0  0  0  0
 16 35  1  0  0  0  0
 16 36  1  0  0  0  0
 17 18  1  0  0  0  0
 17 37  1  0  0  0  0
 18 19  1  0  0  0  0
 18 38  1  0  0  0  0
 18 39  1  0  0  0  0
M  CHG  1   4   1
M  END
> <s_m_source_file>
AV-unprocessed.smi

> <i_m_source_file_index>
2822

> <i_lp_mmshare_version>
43012

> <i_f3d_flags>
0

> <s_epik_input>
Q2xjMVtjSF1uW2NIXVtjSF1jMVtOSF1bQ0gyXVtDQEhdKFtDSDJdMilPW0NIMl1bQ0BASF0oTjIzKVtDSDJdW0NIMl1bQ0gyXVtDSDJdMw==

> <s_epik_cmdline>
J2VwaWtfcHl0aG9uJywgJy1waCcsICc3LjAnLCAnLXRuJywgJzgnLCAnLW1hJywgJzIwMCcsICctbWV0YWxfYmluZGluZycsICctaW1hZScsICc8aW5maWxlLm1hZT4nLCAnLW9tYWUnLCAnPG91dGZpbGUubWFlPic=

> <r_epik_Ionization_Penalty>
1.37653

> <r_epik_Ionization_Penalty_Charging>
0.152973

> <r_epik_Ionization_Penalty_Neutral>
1.22356

> <r_epik_State_Penalty>
1.42693

> <r_epik_Charging_Adjusted_Penalty>
1.5799

> <i_epik_Tot_Q>
1

> <i_epik_Tot_abs_Q>
1

> <r_epik_Metal_State_Penalty>
4.59822

> <b_epik_Metal_Only>
0

> <s_lp_Force_Field>
OPLS_2005

> <r_lp_Energy>
43.1836

> <b_lp_Chiralities_Consistent>
1

> <s_lp_Variant>
AV-unprocessed.smi:2822-17

> <Gold.Version>
5.8.1

> <Gold.Id.Protein>
6NUR|6NUR_protein|mol2

> <Gold.PLP.Fitness>
45.7568

> <Gold.PLP.PLP>
-39.1630

> <Gold.PLP.part.hbond>
-1.6622

> <Gold.PLP.part.metal>
0.0000

> <Gold.PLP.part.buried>
-4.6785

> <Gold.PLP.part.nonpolar>
-32.0359

> <Gold.PLP.part.repulsive>
0.6172

> <Gold.PLP.ligand.clash>
0.0000

> <Gold.PLP.ligand.torsion>
0.1347

> <Gold.PLP.Chemscore.Hbond>
2.2873

> <Gold.PLP.Chemscore.CHOScore>
0.0000

> <Gold.PLP.Chemscore.Metal>
0.0000

> <Gold.Chemscore.Hbonds>
donor molecule, donor type, donor heavy atom, donor atom, acceptor molecule, acceptor atom, score
      L1  H     4    40       P1 10175  2.00
      P1  H  7997  8010       L1    19  0.09

> <Gold.PLP.Chemscore.Internal.Correction>
0.0012

> <Gold.Rescore>
     Score         DG    S(hbond)    S(metal)    S(lipo)     H(rot)  DE(clash)    DE(int)     intcor
     19.09     -19.51       1.01        0.00     116.77       1.18       0.21       0.21       ----

> <Gold.Chemscore.Fitness>
19.0873

> <Gold.Chemscore.DG>
-19.5097

> <Gold.Chemscore.ZeroCoef>
-5.4800

> <Gold.Chemscore.Hbond>
1.0134

> <Gold.Chemscore.Metal>
0.0000

> <Gold.Chemscore.Lipo>
116.7746

> <Gold.Chemscore.Internal_Hbond>
0.0000

> <Gold.Chemscore.DEClash>
0.2077

> <Gold.Chemscore.DEInternal>
0.2147

> <Gold.Chemscore.Rot>
1.1788

> <Gold.Chemscore.Internal.Correction>
   9.000000E+99

> <Gold.Chemscore.Hbonds>
donor molecule, donor type, donor heavy atom, donor atom, acceptor molecule, acceptor atom, score
      L1  H     4    40       P1 10175  0.94
      P1  H  7997  8010       L1    19  0.02

> <Gold.Chemscore.Hbond.Weighted>
-3.3848

> <Gold.Chemscore.Metal.Weighted>
-0.0000

> <Gold.Chemscore.Lipo.Weighted>
-13.6626

> <Gold.Chemscore.Internal_Hbond.Weighted>
0.0000

> <Gold.Chemscore.DEClash.Weighted>
0.2077

> <Gold.Chemscore.DEInternal.Weighted>
0.2147

> <Gold.Chemscore.Rot.Weighted>
3.0177

> <Gold.Chemscore.Internal.Correction.Weighted>
   9.000000E+99

> <Gold.Protein.RotatedTorsions>
[ 6907 6896 6895 6894 ] final   26.73 input  -60.11 | X-H torsion
[ 7974 7965 7964 7962 ] final   53.49 input  175.53 | X-H torsion
[ 8008 7997 7996 7995 ] final   69.93 input   59.86 | X-H torsion
[ 10167 10162 10161 10158 ] final  106.65 input  -65.29 | X-H torsion
[ 10718 10713 10712 10709 ] final -146.43 input   66.30 | X-H torsion
[ 10763 10752 10751 10750 ] final  122.36 input  -60.55 | X-H torsion
[ 11005 11000 10999 10996 ] final   72.02 input  -57.11 | X-H torsion

> <Gold.Protein.ActiveResidues>
 VAL166  LYS551  ARG553  GLY616  TRP617  ASP618  TYR619  PRO620  LYS621  CYS622 
 ASP623  PHE694  ASN695  SER759  ASP760  ASP761  ALA762  ILE779  LEU786  VAL792 
 PHE793  MET794  SER795  GLU796  ALA797  LYS798  CYS799  TRP800  GLU811  SER814 

> <Gold.Protein.RotatedAtoms>
  151.9918  134.9975  160.0561 H   0  0  0  0  0  0  0  0  0  0  0  0  # atno 6907 bound_to 6896
  152.1602  133.4572  159.4865 H   0  0  0  0  0  0  0  0  0  0  0  0  # atno 6908 bound_to 6896
  150.6886  134.1999  159.4361 H   0  0  0  0  0  0  0  0  0  0  0  0  # atno 6909 bound_to 6896
  145.9706  139.4145  143.0192 H   0  0  0  0  0  0  0  0  0  0  0  0  # atno 7974 bound_to 7965
  155.7311  140.3492  155.5060 H   0  0  0  0  0  0  0  0  0  0  0  0  # atno 8008 bound_to 7997
  155.9182  140.1062  157.1249 H   0  0  0  0  0  0  0  0  0  0  0  0  # atno 8009 bound_to 7997
  154.4065  140.1255  156.4631 H   0  0  0  0  0  0  0  0  0  0  0  0  # atno 8010 bound_to 7997
  139.6992  144.7097  151.1215 H   0  0  0  0  0  0  0  0  0  0  0  0  # atno 10167 bound_to 10162
  156.3949  130.7904  151.2110 H   0  0  0  0  0  0  0  0  0  0  0  0  # atno 10718 bound_to 10713
  153.6286  135.3400  155.3034 H   0  0  0  0  0  0  0  0  0  0  0  0  # atno 10763 bound_to 10752
  154.8585  135.4290  154.2130 H   0  0  0  0  0  0  0  0  0  0  0  0  # atno 10764 bound_to 10752
  153.3020  135.7025  153.7267 H   0  0  0  0  0  0  0  0  0  0  0  0  # atno 10765 bound_to 10752
  139.9513  134.7222  156.0857 H   0  0  0  0  0  0  0  0  0  0  0  0  # atno 11005 bound_to 11000
  145.7911  140.9814  143.1048 LP  0  0  0  0  0  0  0  0  0  0  0  0  # atno 17320 bound_to 7965
  144.6836  139.9684  143.7481 LP  0  0  0  0  0  0  0  0  0  0  0  0  # atno 17321 bound_to 7965
  140.7705  143.5448  150.9271 LP  0  0  0  0  0  0  0  0  0  0  0  0  # atno 17342 bound_to 10162
  139.9129  143.6698  152.3111 LP  0  0  0  0  0  0  0  0  0  0  0  0  # atno 17343 bound_to 10162
  157.7501  131.0304  150.4137 LP  0  0  0  0  0  0  0  0  0  0  0  0  # atno 17370 bound_to 10713
  156.4405  130.3990  149.6700 LP  0  0  0  0  0  0  0  0  0  0  0  0  # atno 17371 bound_to 10713
  141.1176  133.6623  156.3133 LP  0  0  0  0  0  0  0  0  0  0  0  0  # atno 17394 bound_to 11000
  140.5713  134.5837  157.5458 LP  0  0  0  0  0  0  0  0  0  0  0  0  # atno 17395 bound_to 11000

$$$$
