AV-unprocessed.smi:911|AV-procd|sdf|4136|dock7
  -GOLD-   22720 2 43D 1   1.00000     0.00000
 Structure written by MMmdl.
 47 49  0  0  0  0  0  0  0  0  3 V2000
  147.1852  141.7797  155.9279 C   0  0  0  0  0  0  0  0  0  0  0  0
  148.5133  141.0378  155.6082 C   0  0  0  0  0  0  0  0  0  0  0  0
  148.7876  141.3137  154.1031 C   0  0  0  0  0  0  0  0  0  0  0  0
  149.6866  141.4048  156.5389 C   0  0  2  0  0  0  0  0  0  0  0  0
  150.8162  140.4475  156.0978 C   0  0  0  0  0  0  0  0  0  0  0  0
  150.0431  139.1680  155.7223 C   0  0  0  0  0  0  0  0  0  0  0  0
  148.5716  139.5488  156.0465 C   0  0  2  0  0  0  0  0  0  0  0  0
  147.5466  138.6176  155.3766 C   0  0  0  0  0  0  0  0  0  0  0  0
  148.4192  139.6415  157.5987 C   0  0  1  0  0  0  0  0  0  0  0  0
  148.9515  138.4916  158.3308 N   0  0  0  0  0  0  0  0  0  0  0  0
  148.2301  137.6455  159.0810 C   0  0  0  0  0  0  0  0  0  0  0  0
  147.0119  137.7467  159.2328 O   0  0  0  0  0  0  0  0  0  0  0  0
  149.0100  136.4973  159.7365 C   0  0  0  0  0  0  0  0  0  0  0  0
  148.1845  135.6816  160.6428 N   0  0  0  0  0  0  0  0  0  0  0  0
  148.0134  134.3240  160.3061 C   0  0  0  0  0  0  0  0  0  0  0  0
  147.2684  133.4887  161.0565 C   0  0  0  0  0  0  0  0  0  0  0  0
  147.0971  132.0998  160.6917 N   0  3  0  0  0  0  0  0  0  0  0  0
  147.6970  131.6708  159.7113 O   0  0  0  0  0  0  0  0  0  0  0  0
  146.3585  131.3925  161.3704 O   0  5  0  0  0  0  0  0  0  0  0  0
  146.6365  134.0312  162.2436 C   0  0  0  0  0  0  0  0  0  0  0  0
  146.7936  135.3293  162.5689 C   0  0  0  0  0  0  0  0  0  0  0  0
  147.6001  136.2379  161.7477 C   0  0  0  0  0  0  0  0  0  0  0  0
  147.7413  137.4267  162.0355 O   0  0  0  0  0  0  0  0  0  0  0  0
  149.2117  140.9269  157.9288 C   0  0  0  0  0  0  0  0  0  0  0  0
  147.2787  142.8439  155.7095 H   0  0  0  0  0  0  0  0  0  0  0  0
  146.8502  141.7090  156.9600 H   0  0  0  0  0  0  0  0  0  0  0  0
  146.3714  141.3973  155.3110 H   0  0  0  0  0  0  0  0  0  0  0  0
  149.6981  140.8689  153.7085 H   0  0  0  0  0  0  0  0  0  0  0  0
  148.8670  142.3856  153.9196 H   0  0  0  0  0  0  0  0  0  0  0  0
  147.9681  140.9447  153.4857 H   0  0  0  0  0  0  0  0  0  0  0  0
  149.9786  142.4553  156.5206 H   0  0  0  0  0  0  0  0  0  0  0  0
  151.3673  140.8419  155.2436 H   0  0  0  0  0  0  0  0  0  0  0  0
  151.5416  140.2700  156.8926 H   0  0  0  0  0  0  0  0  0  0  0  0
  150.1706  138.9341  154.6651 H   0  0  0  0  0  0  0  0  0  0  0  0
  150.4035  138.2938  156.2636 H   0  0  0  0  0  0  0  0  0  0  0  0
  147.6791  137.5867  155.7049 H   0  0  0  0  0  0  0  0  0  0  0  0
  147.6475  138.6293  154.2915 H   0  0  0  0  0  0  0  0  0  0  0  0
  146.5255  138.9119  155.6191 H   0  0  0  0  0  0  0  0  0  0  0  0
  147.3735  139.7833  157.8753 H   0  0  0  0  0  0  0  0  0  0  0  0
  149.9453  138.3290  158.2576 H   0  0  0  0  0  0  0  0  0  0  0  0
  149.4312  135.8782  158.9435 H   0  0  0  0  0  0  0  0  0  0  0  0
  149.8730  136.9008  160.2700 H   0  0  0  0  0  0  0  0  0  0  0  0
  148.5175  134.0201  159.3998 H   0  0  0  0  0  0  0  0  0  0  0  0
  146.0326  133.4011  162.8801 H   0  0  0  0  0  0  0  0  0  0  0  0
  146.3134  135.7127  163.4571 H   0  0  0  0  0  0  0  0  0  0  0  0
  150.0486  140.7529  158.6069 H   0  0  0  0  0  0  0  0  0  0  0  0
  148.5732  141.6688  158.4087 H   0  0  0  0  0  0  0  0  0  0  0  0
  1  2  1  0  0  0  0
  1 25  1  0  0  0  0
  1 26  1  0  0  0  0
  1 27  1  0  0  0  0
  2  7  1  0  0  0  0
  2  3  1  0  0  0  0
  2  4  1  0  0  0  0
  3 28  1  0  0  0  0
  3 29  1  0  0  0  0
  3 30  1  0  0  0  0
  4 24  1  0  0  0  0
  4  5  1  0  0  0  0
  4 31  1  0  0  0  0
  5  6  1  0  0  0  0
  5 32  1  0  0  0  0
  5 33  1  0  0  0  0
  6  7  1  0  0  0  0
  6 34  1  0  0  0  0
  6 35  1  0  0  0  0
  7  8  1  0  0  0  0
  7  9  1  0  0  0  0
  8 36  1  0  0  0  0
  8 37  1  0  0  0  0
  8 38  1  0  0  0  0
  9 10  1  0  0  0  0
  9 24  1  0  0  0  0
  9 39  1  0  0  0  0
 10 11  1  0  0  0  0
 10 40  1  0  0  0  0
 11 12  2  0  0  0  0
 11 13  1  0  0  0  0
 13 14  1  0  0  0  0
 13 41  1  0  0  0  0
 13 42  1  0  0  0  0
 14 22  1  0  0  0  0
 14 15  1  0  0  0  0
 15 16  2  0  0  0  0
 15 43  1  0  0  0  0
 16 17  1  0  0  0  0
 16 20  1  0  0  0  0
 17 18  2  0  0  0  0
 17 19  1  0  0  0  0
 20 21  2  0  0  0  0
 20 44  1  0  0  0  0
 21 22  1  0  0  0  0
 21 45  1  0  0  0  0
 22 23  2  0  0  0  0
 24 46  1  0  0  0  0
 24 47  1  0  0  0  0
M  CHG  1  17   1
M  CHG  1  19  -1
M  END
> <s_m_source_file>
AV-unprocessed.smi

> <i_m_source_file_index>
911

> <i_lp_mmshare_version>
43012

> <i_f3d_flags>
0

> <s_epik_input>
W0NIM11bQ0BdMTJDKFtDSDNdKShbQ0gzXSlbQ0BIXShbQ0gyXVtDSDJdMSlbQ0gyXVtDQEBIXTJbTkhdQyg9TylbQ0gyXW4zW2NIXWMoW04rXSg9TylbTy1dKVtjSF1bY0hdYzM9Tw==

> <s_epik_cmdline>
J2VwaWtfcHl0aG9uJywgJy1waCcsICc3LjAnLCAnLXRuJywgJzgnLCAnLW1hJywgJzIwMCcsICctbWV0YWxfYmluZGluZycsICctaW1hZScsICc8aW5maWxlLm1hZT4nLCAnLW9tYWUnLCAnPG91dGZpbGUubWFlPic=

> <r_lp_tautomer_probability>
1

> <r_epik_Ionization_Penalty>
2.04092e-08

> <r_epik_Ionization_Penalty_Charging>
8.54191e-11

> <r_epik_Ionization_Penalty_Neutral>
2.03238e-08

> <r_epik_State_Penalty>
-0

> <r_epik_Charging_Adjusted_Penalty>
8.54191e-11

> <i_epik_Tot_Q>
0

> <i_epik_Tot_abs_Q>
2

> <r_epik_Metal_State_Penalty>
-0

> <b_epik_Metal_Only>
0

> <s_lp_Force_Field>
OPLS_2005

> <r_lp_Energy>
67.3082

> <b_lp_Chiralities_Consistent>
1

> <s_lp_Variant>
AV-unprocessed.smi:911-1

> <Gold.Version>
5.8.1

> <Gold.Id.Protein>
6NUR|6NUR_protein|mol2

> <Gold.PLP.Fitness>
37.5741

> <Gold.PLP.PLP>
-33.3520

> <Gold.PLP.part.hbond>
-2.7751

> <Gold.PLP.part.metal>
0.0000

> <Gold.PLP.part.buried>
-1.7962

> <Gold.PLP.part.nonpolar>
-28.9009

> <Gold.PLP.part.repulsive>
0.2070

> <Gold.PLP.ligand.clash>
0.0000

> <Gold.PLP.ligand.torsion>
0.0844

> <Gold.PLP.Chemscore.Hbond>
1.4560

> <Gold.PLP.Chemscore.CHOScore>
0.0000

> <Gold.PLP.Chemscore.Metal>
0.0000

> <Gold.Chemscore.Hbonds>
donor molecule, donor type, donor heavy atom, donor atom, acceptor molecule, acceptor atom, score
      P1  H  6931  6943       L1    23  0.87
      P1  H  6934  6947       L1    23  0.53

> <Gold.PLP.Chemscore.Internal.Correction>
0.0229

> <Gold.Rescore>
     Score         DG    S(hbond)    S(metal)    S(lipo)     H(rot)  DE(clash)    DE(int)     intcor
     11.93     -15.11       1.64        0.00      69.01       1.53       0.02       3.15       ----

> <Gold.Chemscore.Fitness>
11.9327

> <Gold.Chemscore.DG>
-15.1053

> <Gold.Chemscore.ZeroCoef>
-5.4800

> <Gold.Chemscore.Hbond>
1.6352

> <Gold.Chemscore.Metal>
0.0000

> <Gold.Chemscore.Lipo>
69.0145

> <Gold.Chemscore.Internal_Hbond>
0.0000

> <Gold.Chemscore.DEClash>
0.0217

> <Gold.Chemscore.DEInternal>
3.1508

> <Gold.Chemscore.Rot>
1.5277

> <Gold.Chemscore.Internal.Correction>
   9.000000E+99

> <Gold.Chemscore.Hbonds>
donor molecule, donor type, donor heavy atom, donor atom, acceptor molecule, acceptor atom, score
      P1  H  6931  6943       L1    23  0.80
      P1  H  6934  6947       L1    23  0.50

> <Gold.Chemscore.Hbond.Weighted>
-5.4616

> <Gold.Chemscore.Metal.Weighted>
-0.0000

> <Gold.Chemscore.Lipo.Weighted>
-8.0747

> <Gold.Chemscore.Internal_Hbond.Weighted>
0.0000

> <Gold.Chemscore.DEClash.Weighted>
0.0217

> <Gold.Chemscore.DEInternal.Weighted>
3.1508

> <Gold.Chemscore.Rot.Weighted>
3.9110

> <Gold.Chemscore.Internal.Correction.Weighted>
   9.000000E+99

> <Gold.Protein.RotatedTorsions>
[ 6907 6896 6895 6894 ] final   56.68 input  -60.11 | X-H torsion
[ 7974 7965 7964 7962 ] final  -60.26 input  175.53 | X-H torsion
[ 8008 7997 7996 7995 ] final   97.47 input   59.86 | X-H torsion
[ 10167 10162 10161 10158 ] final  -65.46 input  -65.29 | X-H torsion
[ 10718 10713 10712 10709 ] final   43.35 input   66.30 | X-H torsion
[ 10763 10752 10751 10750 ] final   18.60 input  -60.55 | X-H torsion
[ 11005 11000 10999 10996 ] final  -63.72 input  -57.11 | X-H torsion

> <Gold.Protein.ActiveResidues>
 VAL166  LYS551  ARG553  GLY616  TRP617  ASP618  TYR619  PRO620  LYS621  CYS622 
 ASP623  PHE694  ASN695  SER759  ASP760  ASP761  ALA762  ILE779  LEU786  VAL792 
 PHE793  MET794  SER795  GLU796  ALA797  LYS798  CYS799  TRP800  GLU811  SER814 

> <Gold.Protein.RotatedAtoms>
  152.3659  134.6805  160.0191 H   0  0  0  0  0  0  0  0  0  0  0  0  # atno 6907 bound_to 6896
  151.7113  133.3307  159.3299 H   0  0  0  0  0  0  0  0  0  0  0  0  # atno 6908 bound_to 6896
  150.7638  134.6464  159.6309 H   0  0  0  0  0  0  0  0  0  0  0  0  # atno 6909 bound_to 6896
  145.8176  140.8560  143.0149 H   0  0  0  0  0  0  0  0  0  0  0  0  # atno 7974 bound_to 7965
  156.0904  140.3258  155.7809 H   0  0  0  0  0  0  0  0  0  0  0  0  # atno 8008 bound_to 7997
  155.5006  140.0569  157.2957 H   0  0  0  0  0  0  0  0  0  0  0  0  # atno 8009 bound_to 7997
  154.4634  140.1978  156.0198 H   0  0  0  0  0  0  0  0  0  0  0  0  # atno 8010 bound_to 7997
  140.5728  143.2319  151.6503 H   0  0  0  0  0  0  0  0  0  0  0  0  # atno 10167 bound_to 10162
  157.4150  130.7936  149.7464 H   0  0  0  0  0  0  0  0  0  0  0  0  # atno 10718 bound_to 10713
  153.1235  135.6724  153.9296 H   0  0  0  0  0  0  0  0  0  0  0  0  # atno 10763 bound_to 10752
  153.8804  135.3059  155.3446 H   0  0  0  0  0  0  0  0  0  0  0  0  # atno 10764 bound_to 10752
  154.7643  135.4972  153.9605 H   0  0  0  0  0  0  0  0  0  0  0  0  # atno 10765 bound_to 10752
  141.1402  133.6656  156.5723 H   0  0  0  0  0  0  0  0  0  0  0  0  # atno 11005 bound_to 11000
  144.6751  140.0486  143.7479 LP  0  0  0  0  0  0  0  0  0  0  0  0  # atno 17320 bound_to 7965
  145.9710  139.2869  143.1099 LP  0  0  0  0  0  0  0  0  0  0  0  0  # atno 17321 bound_to 7965
  139.5126  144.3469  152.0688 LP  0  0  0  0  0  0  0  0  0  0  0  0  # atno 17342 bound_to 10162
  140.2609  144.4069  150.6186 LP  0  0  0  0  0  0  0  0  0  0  0  0  # atno 17343 bound_to 10162
  155.9862  130.3976  150.3223 LP  0  0  0  0  0  0  0  0  0  0  0  0  # atno 17370 bound_to 10713
  157.1365  131.0285  151.2946 LP  0  0  0  0  0  0  0  0  0  0  0  0  # atno 17371 bound_to 10713
  140.3903  134.7446  157.4717 LP  0  0  0  0  0  0  0  0  0  0  0  0  # atno 17394 bound_to 11000
  140.0571  134.6048  155.8792 LP  0  0  0  0  0  0  0  0  0  0  0  0  # atno 17395 bound_to 11000

$$$$
