AV-unprocessed.smi:1604|AV-procd|sdf|6447|dock3
  -GOLD-   22720 7103D 1   1.00000     0.00000
 Structure written by MMmdl.
 46 48  0  0  0  0  0  0  0  0  1 V2000
  150.0234  136.1077  158.5973 O   0  0  0  0  0  0  0  0  0  0  0  0
  149.0363  136.5400  158.0016 C   0  0  0  0  0  0  0  0  0  0  0  0
  149.0713  137.3528  156.9329 N   0  0  0  0  0  0  0  0  0  0  0  0
  150.2165  137.8402  156.2436 C   0  0  0  0  0  0  0  0  0  0  0  0
  151.5061  137.3096  156.4902 C   0  0  0  0  0  0  0  0  0  0  0  0
  152.6184  137.8691  155.8383 C   0  0  0  0  0  0  0  0  0  0  0  0
  152.4041  138.9537  154.9720 C   0  0  0  0  0  0  0  0  0  0  0  0
  151.1851  139.4790  154.7373 N   0  0  0  0  0  0  0  0  0  0  0  0
  150.0999  138.9411  155.3472 C   0  0  0  0  0  0  0  0  0  0  0  0
  148.8458  139.5219  155.0479 N   0  0  0  0  0  0  0  0  0  0  0  0
  147.8189  138.6686  154.4559 C   0  0  0  0  0  0  0  0  0  0  0  0
  147.0567  139.5390  153.4510 C   0  0  0  0  0  0  0  0  0  0  0  0
  147.3430  140.9630  153.9174 C   0  0  0  0  0  0  0  0  0  0  0  0
  148.7693  140.8499  154.4478 C   0  0  0  0  0  0  0  0  0  0  0  0
  147.7740  136.2336  158.3324 N   0  0  0  0  0  0  0  0  0  0  0  0
  147.3655  135.3710  159.4406 C   0  0  2  0  0  0  0  0  0  0  0  0
  145.8481  135.0627  159.3597 C   0  0  0  0  0  0  0  0  0  0  0  0
  145.1588  134.6942  160.6900 C   0  0  0  0  0  0  0  0  0  0  0  0
  145.8140  133.5439  161.4806 C   0  0  0  0  0  0  0  0  0  0  0  0
  147.3136  133.7035  161.8283 C   0  0  0  0  0  0  0  0  0  0  0  0
  147.7839  135.0881  161.8601 N   0  0  0  0  0  0  0  0  0  0  0  0
  147.8580  135.9086  160.7980 C   0  0  0  0  0  0  0  0  0  0  0  0
  148.2826  137.0585  160.9041 O   0  0  0  0  0  0  0  0  0  0  0  0
  148.1845  137.5485  156.4919 H   0  0  0  0  0  0  0  0  0  0  0  0
  151.6615  136.4995  157.1864 H   0  0  0  0  0  0  0  0  0  0  0  0
  153.6126  137.4842  156.0095 H   0  0  0  0  0  0  0  0  0  0  0  0
  153.2336  139.4172  154.4587 H   0  0  0  0  0  0  0  0  0  0  0  0
  148.2433  137.7854  153.9759 H   0  0  0  0  0  0  0  0  0  0  0  0
  147.1434  138.3340  155.2435 H   0  0  0  0  0  0  0  0  0  0  0  0
  147.4690  139.3931  152.4517 H   0  0  0  0  0  0  0  0  0  0  0  0
  145.9920  139.3080  153.4121 H   0  0  0  0  0  0  0  0  0  0  0  0
  147.2420  141.7027  153.1230 H   0  0  0  0  0  0  0  0  0  0  0  0
  146.6629  141.2355  154.7257 H   0  0  0  0  0  0  0  0  0  0  0  0
  148.9953  141.6295  155.1758 H   0  0  0  0  0  0  0  0  0  0  0  0
  149.4709  140.9410  153.6177 H   0  0  0  0  0  0  0  0  0  0  0  0
  147.0287  136.6380  157.7842 H   0  0  0  0  0  0  0  0  0  0  0  0
  147.8981  134.4295  159.2993 H   0  0  0  0  0  0  0  0  0  0  0  0
  145.3251  135.9288  158.9516 H   0  0  0  0  0  0  0  0  0  0  0  0
  145.6899  134.2595  158.6390 H   0  0  0  0  0  0  0  0  0  0  0  0
  145.0997  135.5795  161.3245 H   0  0  0  0  0  0  0  0  0  0  0  0
  144.1221  134.4282  160.4822 H   0  0  0  0  0  0  0  0  0  0  0  0
  145.2574  133.4282  162.4112 H   0  0  0  0  0  0  0  0  0  0  0  0
  145.6748  132.6062  160.9416 H   0  0  0  0  0  0  0  0  0  0  0  0
  147.5105  133.2521  162.8011 H   0  0  0  0  0  0  0  0  0  0  0  0
  147.9225  133.1372  161.1226 H   0  0  0  0  0  0  0  0  0  0  0  0
  148.0925  135.4449  162.7528 H   0  0  0  0  0  0  0  0  0  0  0  0
  1  2  2  0  0  0  0
  2  3  1  0  0  0  0
  2 15  1  0  0  0  0
  3  4  1  0  0  0  0
  3 24  1  0  0  0  0
  4  9  1  0  0  0  0
  4  5  2  0  0  0  0
  5  6  1  0  0  0  0
  5 25  1  0  0  0  0
  6  7  2  0  0  0  0
  6 26  1  0  0  0  0
  7  8  1  0  0  0  0
  7 27  1  0  0  0  0
  8  9  2  0  0  0  0
  9 10  1  0  0  0  0
 10 14  1  0  0  0  0
 10 11  1  0  0  0  0
 11 12  1  0  0  0  0
 11 28  1  0  0  0  0
 11 29  1  0  0  0  0
 12 13  1  0  0  0  0
 12 30  1  0  0  0  0
 12 31  1  0  0  0  0
 13 14  1  0  0  0  0
 13 32  1  0  0  0  0
 13 33  1  0  0  0  0
 14 34  1  0  0  0  0
 14 35  1  0  0  0  0
 15 16  1  0  0  0  0
 15 36  1  0  0  0  0
 16 22  1  0  0  0  0
 16 17  1  0  0  0  0
 16 37  1  0  0  0  0
 17 18  1  0  0  0  0
 17 38  1  0  0  0  0
 17 39  1  0  0  0  0
 18 19  1  0  0  0  0
 18 40  1  0  0  0  0
 18 41  1  0  0  0  0
 19 20  1  0  0  0  0
 19 42  1  0  0  0  0
 19 43  1  0  0  0  0
 20 21  1  0  0  0  0
 20 44  1  0  0  0  0
 20 45  1  0  0  0  0
 21 22  1  0  0  0  0
 21 46  1  0  0  0  0
 22 23  2  0  0  0  0
M  END
> <s_m_source_file>
AV-unprocessed.smi

> <i_m_source_file_index>
1604

> <i_lp_mmshare_version>
43012

> <i_f3d_flags>
0

> <s_epik_input>
Tz1DMVtOSF1bQ0gyXVtDSDJdW0NIMl1bQ0gyXVtDQEhdMVtOSF1DKD1PKVtOSF1jMltjSF1bY0hdW2NIXW5jMk4zW0NIMl1bQ0gyXVtDSDJdW0NIMl0z

> <s_epik_cmdline>
J2VwaWtfcHl0aG9uJywgJy1waCcsICc3LjAnLCAnLXRuJywgJzgnLCAnLW1hJywgJzIwMCcsICctbWV0YWxfYmluZGluZycsICctaW1hZScsICc8aW5maWxlLm1hZT4nLCAnLW9tYWUnLCAnPG91dGZpbGUubWFlPic=

> <r_lp_tautomer_probability>
1

> <r_epik_Ionization_Penalty>
0.0837267

> <r_epik_Ionization_Penalty_Charging>
0

> <r_epik_Ionization_Penalty_Neutral>
0.0837267

> <r_epik_State_Penalty>
0.0738331

> <r_epik_Charging_Adjusted_Penalty>
0.0738331

> <i_epik_Tot_Q>
0

> <i_epik_Tot_abs_Q>
0

> <r_epik_Metal_State_Penalty>
0.0646802

> <b_epik_Metal_Only>
0

> <s_lp_Force_Field>
OPLS_2005

> <r_lp_Energy>
41.479

> <b_lp_Chiralities_Consistent>
1

> <s_lp_Variant>
AV-unprocessed.smi:1604-1

> <Gold.Version>
5.8.1

> <Gold.Id.Protein>
6NUR|6NUR_protein|mol2

> <Gold.PLP.Fitness>
39.3154

> <Gold.PLP.PLP>
-28.8362

> <Gold.PLP.part.hbond>
-4.0000

> <Gold.PLP.part.metal>
0.0000

> <Gold.PLP.part.buried>
-4.5796

> <Gold.PLP.part.nonpolar>
-21.3598

> <Gold.PLP.part.repulsive>
0.3220

> <Gold.PLP.ligand.clash>
0.0000

> <Gold.PLP.ligand.torsion>
0.3213

> <Gold.PLP.Chemscore.Hbond>
3.5840

> <Gold.PLP.Chemscore.CHOScore>
0.0000

> <Gold.PLP.Chemscore.Metal>
0.0000

> <Gold.Chemscore.Hbonds>
donor molecule, donor type, donor heavy atom, donor atom, acceptor molecule, acceptor atom, score
      P1  H  6896  6907       L1     1  1.00
      P1  H  6931  6943       L1    23  0.98
      P1  H  6934  6947       L1    23  0.30
      P1  H  7989  7998       L1     8  1.00

> <Gold.PLP.Chemscore.Internal.Correction>
0.3698

> <Gold.Rescore>
     Score         DG    S(hbond)    S(metal)    S(lipo)     H(rot)  DE(clash)    DE(int)     intcor
     19.63     -21.44       3.39        0.00      66.86       1.25       0.02       1.78       ----

> <Gold.Chemscore.Fitness>
19.6346

> <Gold.Chemscore.DG>
-21.4390

> <Gold.Chemscore.ZeroCoef>
-5.4800

> <Gold.Chemscore.Hbond>
3.3911

> <Gold.Chemscore.Metal>
0.0000

> <Gold.Chemscore.Lipo>
66.8591

> <Gold.Chemscore.Internal_Hbond>
0.0000

> <Gold.Chemscore.DEClash>
0.0234

> <Gold.Chemscore.DEInternal>
1.7810

> <Gold.Chemscore.Rot>
1.2461

> <Gold.Chemscore.Internal.Correction>
   9.000000E+99

> <Gold.Chemscore.Hbonds>
donor molecule, donor type, donor heavy atom, donor atom, acceptor molecule, acceptor atom, score
      P1  H  6896  6907       L1     1  0.96
      P1  H  6931  6943       L1    23  0.93
      P1  H  6934  6947       L1    23  0.31
      P1  H  7989  7998       L1     8  0.26

> <Gold.Chemscore.Hbond.Weighted>
-11.3264

> <Gold.Chemscore.Metal.Weighted>
-0.0000

> <Gold.Chemscore.Lipo.Weighted>
-7.8225

> <Gold.Chemscore.Internal_Hbond.Weighted>
0.0000

> <Gold.Chemscore.DEClash.Weighted>
0.0234

> <Gold.Chemscore.DEInternal.Weighted>
1.7810

> <Gold.Chemscore.Rot.Weighted>
3.1899

> <Gold.Chemscore.Internal.Correction.Weighted>
   9.000000E+99

> <Gold.Protein.RotatedTorsions>
[ 6907 6896 6895 6894 ] final  -63.87 input  -60.11 | X-H torsion
[ 7974 7965 7964 7962 ] final -105.06 input  175.53 | X-H torsion
[ 8008 7997 7996 7995 ] final -148.80 input   59.86 | X-H torsion
[ 10167 10162 10161 10158 ] final   14.60 input  -65.29 | X-H torsion
[ 10718 10713 10712 10709 ] final  126.77 input   66.30 | X-H torsion
[ 10763 10752 10751 10750 ] final  163.90 input  -60.55 | X-H torsion
[ 11005 11000 10999 10996 ] final  -18.41 input  -57.11 | X-H torsion

> <Gold.Protein.ActiveResidues>
 VAL166  LYS551  ARG553  GLY616  TRP617  ASP618  TYR619  PRO620  LYS621  CYS622 
 ASP623  PHE694  ASN695  SER759  ASP760  ASP761  ALA762  ILE779  LEU786  VAL792 
 PHE793  MET794  SER795  GLU796  ALA797  LYS798  CYS799  TRP800  GLU811  SER814 

> <Gold.Protein.RotatedAtoms>
  150.7621  134.6376  159.6219 H   0  0  0  0  0  0  0  0  0  0  0  0  # atno 6907 bound_to 6896
  152.3634  134.6836  160.0209 H   0  0  0  0  0  0  0  0  0  0  0  0  # atno 6908 bound_to 6896
  151.7219  133.3278  159.3354 H   0  0  0  0  0  0  0  0  0  0  0  0  # atno 6909 bound_to 6896
  145.2352  140.9185  143.3182 H   0  0  0  0  0  0  0  0  0  0  0  0  # atno 7974 bound_to 7965
  155.5973  140.0658  157.2742 H   0  0  0  0  0  0  0  0  0  0  0  0  # atno 8008 bound_to 7997
  154.4288  140.1824  156.1184 H   0  0  0  0  0  0  0  0  0  0  0  0  # atno 8009 bound_to 7997
  156.0186  140.3319  155.7018 H   0  0  0  0  0  0  0  0  0  0  0  0  # atno 8010 bound_to 7997
  140.5924  143.8768  150.6886 H   0  0  0  0  0  0  0  0  0  0  0  0  # atno 10167 bound_to 10162
  157.5390  131.1097  150.8889 H   0  0  0  0  0  0  0  0  0  0  0  0  # atno 10718 bound_to 10713
  154.3008  135.2759  155.2612 H   0  0  0  0  0  0  0  0  0  0  0  0  # atno 10763 bound_to 10752
  154.5050  135.5798  153.6564 H   0  0  0  0  0  0  0  0  0  0  0  0  # atno 10764 bound_to 10752
  152.9901  135.6167  154.3178 H   0  0  0  0  0  0  0  0  0  0  0  0  # atno 10765 bound_to 10752
  140.8265  133.8029  155.9714 H   0  0  0  0  0  0  0  0  0  0  0  0  # atno 11005 bound_to 11000
  144.9640  139.3950  143.6342 LP  0  0  0  0  0  0  0  0  0  0  0  0  # atno 17320 bound_to 7965
  146.3343  139.8706  142.8840 LP  0  0  0  0  0  0  0  0  0  0  0  0  # atno 17321 bound_to 7965
  140.2294  143.3747  152.1578 LP  0  0  0  0  0  0  0  0  0  0  0  0  # atno 17342 bound_to 10162
  139.5236  144.7074  151.5313 LP  0  0  0  0  0  0  0  0  0  0  0  0  # atno 17343 bound_to 10162
  156.9447  130.5397  149.5281 LP  0  0  0  0  0  0  0  0  0  0  0  0  # atno 17370 bound_to 10713
  156.0482  130.5555  150.8928 LP  0  0  0  0  0  0  0  0  0  0  0  0  # atno 17371 bound_to 10713
  140.9043  134.2339  157.5023 LP  0  0  0  0  0  0  0  0  0  0  0  0  # atno 17394 bound_to 11000
  139.8706  134.9721  156.4761 LP  0  0  0  0  0  0  0  0  0  0  0  0  # atno 17395 bound_to 11000

$$$$
