AV-unprocessed.smi:1407|AV-procd|sdf|5725|dock3
  -GOLD-   22720 5353D 1   1.00000     0.00000
 Structure written by MMmdl.
 50 51  0  0  0  0  0  0  0  0  2 V2000
  148.9013  135.4374  155.1482 C   0  0  0  0  0  0  0  0  0  0  0  0
  148.1676  136.6228  154.6282 N   0  3  0  0  0  0  0  0  0  0  0  0
  146.6996  136.3823  154.7082 C   0  0  0  0  0  0  0  0  0  0  0  0
  148.6511  137.9690  155.1249 C   0  0  0  0  0  0  0  0  0  0  0  0
  148.0595  138.1978  156.5565 C   0  0  0  0  0  0  0  0  0  0  0  0
  148.5234  137.2157  157.5347 N   0  0  0  0  0  0  0  0  0  0  0  0
  148.1204  137.0911  158.8098 C   0  0  0  0  0  0  0  0  0  0  0  0
  147.2652  137.8174  159.3131 O   0  0  0  0  0  0  0  0  0  0  0  0
  148.7842  136.0047  159.6736 C   0  0  0  0  0  0  0  0  0  0  0  0
  147.8768  135.3355  160.6237 N   0  0  0  0  0  0  0  0  0  0  0  0
  147.4588  134.0309  160.2929 C   0  0  0  0  0  0  0  0  0  0  0  0
  146.6150  133.3364  161.0722 C   0  0  0  0  0  0  0  0  0  0  0  0
  146.1358  133.9594  162.2832 C   0  0  0  0  0  0  0  0  0  0  0  0
  146.5275  135.2075  162.6082 C   0  0  0  0  0  0  0  0  0  0  0  0
  147.4410  135.9744  161.7533 C   0  0  0  0  0  0  0  0  0  0  0  0
  147.7834  137.1241  162.0285 O   0  0  0  0  0  0  0  0  0  0  0  0
  150.2152  137.9549  155.2157 C   0  0  0  0  0  0  0  0  0  0  0  0
  151.0128  139.2247  154.8608 C   0  0  0  0  0  0  0  0  0  0  0  0
  150.5550  140.5329  155.5169 C   0  0  0  0  0  0  0  0  0  0  0  0
  149.4844  141.2533  154.6890 C   0  0  0  0  0  0  0  0  0  0  0  0
  148.1184  140.5587  154.6661 C   0  0  0  0  0  0  0  0  0  0  0  0
  148.1203  139.0945  154.1647 C   0  0  0  0  0  0  0  0  0  0  0  0
  148.8749  135.3937  156.2370 H   0  0  0  0  0  0  0  0  0  0  0  0
  149.9416  135.4196  154.8263 H   0  0  0  0  0  0  0  0  0  0  0  0
  148.4572  134.5153  154.7709 H   0  0  0  0  0  0  0  0  0  0  0  0
  146.3701  136.2015  155.7311 H   0  0  0  0  0  0  0  0  0  0  0  0
  146.4412  135.4963  154.1276 H   0  0  0  0  0  0  0  0  0  0  0  0
  146.1010  137.1940  154.3030 H   0  0  0  0  0  0  0  0  0  0  0  0
  148.2386  139.2056  156.9270 H   0  0  0  0  0  0  0  0  0  0  0  0
  146.9741  138.1330  156.5377 H   0  0  0  0  0  0  0  0  0  0  0  0
  149.2272  136.5676  157.2102 H   0  0  0  0  0  0  0  0  0  0  0  0
  149.2258  135.2647  159.0044 H   0  0  0  0  0  0  0  0  0  0  0  0
  149.6325  136.4495  160.1967 H   0  0  0  0  0  0  0  0  0  0  0  0
  147.8601  133.6409  159.3685 H   0  0  0  0  0  0  0  0  0  0  0  0
  146.3025  132.3388  160.8005 H   0  0  0  0  0  0  0  0  0  0  0  0
  145.4618  133.4211  162.9335 H   0  0  0  0  0  0  0  0  0  0  0  0
  146.1600  135.6566  163.5193 H   0  0  0  0  0  0  0  0  0  0  0  0
  150.5126  137.6271  156.2128 H   0  0  0  0  0  0  0  0  0  0  0  0
  150.6199  137.1932  154.5506 H   0  0  0  0  0  0  0  0  0  0  0  0
  152.0488  139.0460  155.1513 H   0  0  0  0  0  0  0  0  0  0  0  0
  151.0447  139.3487  153.7776 H   0  0  0  0  0  0  0  0  0  0  0  0
  150.2353  140.3758  156.5460 H   0  0  0  0  0  0  0  0  0  0  0  0
  151.4185  141.1965  155.5793 H   0  0  0  0  0  0  0  0  0  0  0  0
  149.3519  142.2602  155.0863 H   0  0  0  0  0  0  0  0  0  0  0  0
  149.8424  141.3865  153.6673 H   0  0  0  0  0  0  0  0  0  0  0  0
  147.6354  140.6570  155.6364 H   0  0  0  0  0  0  0  0  0  0  0  0
  147.4808  141.1340  153.9935 H   0  0  0  0  0  0  0  0  0  0  0  0
  148.6497  139.0616  153.2117 H   0  0  0  0  0  0  0  0  0  0  0  0
  147.0802  138.8693  153.9238 H   0  0  0  0  0  0  0  0  0  0  0  0
  148.3709  136.6349  153.6387 H   0  0  0  0  0  0  0  0  0  0  0  0
  1  2  1  0  0  0  0
  1 23  1  0  0  0  0
  1 24  1  0  0  0  0
  1 25  1  0  0  0  0
  2  3  1  0  0  0  0
  2  4  1  0  0  0  0
  2 50  1  0  0  0  0
  3 26  1  0  0  0  0
  3 27  1  0  0  0  0
  3 28  1  0  0  0  0
  4 22  1  0  0  0  0
  4  5  1  0  0  0  0
  4 17  1  0  0  0  0
  5  6  1  0  0  0  0
  5 29  1  0  0  0  0
  5 30  1  0  0  0  0
  6  7  1  0  0  0  0
  6 31  1  0  0  0  0
  7  8  2  0  0  0  0
  7  9  1  0  0  0  0
  9 10  1  0  0  0  0
  9 32  1  0  0  0  0
  9 33  1  0  0  0  0
 10 15  1  0  0  0  0
 10 11  1  0  0  0  0
 11 12  2  0  0  0  0
 11 34  1  0  0  0  0
 12 13  1  0  0  0  0
 12 35  1  0  0  0  0
 13 14  2  0  0  0  0
 13 36  1  0  0  0  0
 14 15  1  0  0  0  0
 14 37  1  0  0  0  0
 15 16  2  0  0  0  0
 17 18  1  0  0  0  0
 17 38  1  0  0  0  0
 17 39  1  0  0  0  0
 18 19  1  0  0  0  0
 18 40  1  0  0  0  0
 18 41  1  0  0  0  0
 19 20  1  0  0  0  0
 19 42  1  0  0  0  0
 19 43  1  0  0  0  0
 20 21  1  0  0  0  0
 20 44  1  0  0  0  0
 20 45  1  0  0  0  0
 21 22  1  0  0  0  0
 21 46  1  0  0  0  0
 21 47  1  0  0  0  0
 22 48  1  0  0  0  0
 22 49  1  0  0  0  0
M  CHG  1   2   1
M  END
> <s_m_source_file>
AV-unprocessed.smi

> <i_m_source_file_index>
1407

> <i_lp_mmshare_version>
43012

> <i_f3d_flags>
0

> <s_epik_input>
W0NIMl0xW0NIMl1bQ0gyXVtDSDJdW0NIMl1bQ0gyXUMxKE4oW0NIM10pW0NIM10pW0NIMl1bTkhdQyg9TylbQ0gyXW4yW2NIXVtjSF1bY0hdW2NIXWMyPU8=

> <s_epik_cmdline>
J2VwaWtfcHl0aG9uJywgJy1waCcsICc3LjAnLCAnLXRuJywgJzgnLCAnLW1hJywgJzIwMCcsICctbWV0YWxfYmluZGluZycsICctaW1hZScsICc8aW5maWxlLm1hZT4nLCAnLW9tYWUnLCAnPG91dGZpbGUubWFlPic=

> <r_lp_tautomer_probability>
1

> <r_epik_Ionization_Penalty>
0.00225809

> <r_epik_Ionization_Penalty_Charging>
0.00225802

> <r_epik_Ionization_Penalty_Neutral>
7.38919e-08

> <r_epik_State_Penalty>
0.00155497

> <r_epik_Charging_Adjusted_Penalty>
0.00381299

> <i_epik_Tot_Q>
1

> <i_epik_Tot_abs_Q>
1

> <r_epik_Metal_State_Penalty>
-0

> <b_epik_Metal_Only>
0

> <s_lp_Force_Field>
OPLS_2005

> <r_lp_Energy>
50.9808

> <b_lp_Chiralities_Consistent>
1

> <s_lp_Variant>
AV-unprocessed.smi:1407-1

> <Gold.Version>
5.8.1

> <Gold.Id.Protein>
6NUR|6NUR_protein|mol2

> <Gold.PLP.Fitness>
47.1966

> <Gold.PLP.PLP>
-37.8213

> <Gold.PLP.part.hbond>
-4.0000

> <Gold.PLP.part.metal>
0.0000

> <Gold.PLP.part.buried>
-2.1344

> <Gold.PLP.part.nonpolar>
-31.6013

> <Gold.PLP.part.repulsive>
0.0347

> <Gold.PLP.ligand.clash>
0.0000

> <Gold.PLP.ligand.torsion>
0.8553

> <Gold.PLP.Chemscore.Hbond>
3.6264

> <Gold.PLP.Chemscore.CHOScore>
0.0000

> <Gold.PLP.Chemscore.Metal>
0.0000

> <Gold.Chemscore.Hbonds>
donor molecule, donor type, donor heavy atom, donor atom, acceptor molecule, acceptor atom, score
      L1  H     2    50       P1  7948  2.00
      P1  H  6931  6943       L1    16  1.00
      P1  H  6934  6947       L1     8  0.64

> <Gold.PLP.Chemscore.Internal.Correction>
0.2066

> <Gold.Rescore>
     Score         DG    S(hbond)    S(metal)    S(lipo)     H(rot)  DE(clash)    DE(int)     intcor
     17.13     -18.62       2.57        0.00      78.68       1.81       0.15       1.34       ----

> <Gold.Chemscore.Fitness>
17.1308

> <Gold.Chemscore.DG>
-18.6219

> <Gold.Chemscore.ZeroCoef>
-5.4800

> <Gold.Chemscore.Hbond>
2.5692

> <Gold.Chemscore.Metal>
0.0000

> <Gold.Chemscore.Lipo>
78.6823

> <Gold.Chemscore.Internal_Hbond>
0.0000

> <Gold.Chemscore.DEClash>
0.1481

> <Gold.Chemscore.DEInternal>
1.3431

> <Gold.Chemscore.Rot>
1.8145

> <Gold.Chemscore.Internal.Correction>
   9.000000E+99

> <Gold.Chemscore.Hbonds>
donor molecule, donor type, donor heavy atom, donor atom, acceptor molecule, acceptor atom, score
      L1  H     2    50       P1  7948  1.00
      P1  H  6931  6943       L1    16  0.97
      P1  H  6934  6947       L1     8  0.62

> <Gold.Chemscore.Hbond.Weighted>
-8.5811

> <Gold.Chemscore.Metal.Weighted>
-0.0000

> <Gold.Chemscore.Lipo.Weighted>
-9.2058

> <Gold.Chemscore.Internal_Hbond.Weighted>
0.0000

> <Gold.Chemscore.DEClash.Weighted>
0.1481

> <Gold.Chemscore.DEInternal.Weighted>
1.3431

> <Gold.Chemscore.Rot.Weighted>
4.6451

> <Gold.Chemscore.Internal.Correction.Weighted>
   9.000000E+99

> <Gold.Protein.RotatedTorsions>
[ 6907 6896 6895 6894 ] final  -54.50 input  -60.11 | X-H torsion
[ 7974 7965 7964 7962 ] final -178.34 input  175.53 | X-H torsion
[ 8008 7997 7996 7995 ] final -144.32 input   59.86 | X-H torsion
[ 10167 10162 10161 10158 ] final -137.27 input  -65.29 | X-H torsion
[ 10718 10713 10712 10709 ] final  -50.64 input   66.30 | X-H torsion
[ 10763 10752 10751 10750 ] final  157.06 input  -60.55 | X-H torsion
[ 11005 11000 10999 10996 ] final   -5.67 input  -57.11 | X-H torsion

> <Gold.Protein.ActiveResidues>
 VAL166  LYS551  ARG553  GLY616  TRP617  ASP618  TYR619  PRO620  LYS621  CYS622 
 ASP623  PHE694  ASN695  SER759  ASP760  ASP761  ALA762  ILE779  LEU786  VAL792 
 PHE793  MET794  SER795  GLU796  ALA797  LYS798  CYS799  TRP800  GLU811  SER814 

> <Gold.Protein.RotatedAtoms>
  150.8333  134.7595  159.6871 H   0  0  0  0  0  0  0  0  0  0  0  0  # atno 6907 bound_to 6896
  152.4434  134.5541  159.9885 H   0  0  0  0  0  0  0  0  0  0  0  0  # atno 6908 bound_to 6896
  151.5697  133.3354  159.3023 H   0  0  0  0  0  0  0  0  0  0  0  0  # atno 6909 bound_to 6896
  144.7130  140.0883  143.6422 H   0  0  0  0  0  0  0  0  0  0  0  0  # atno 7974 bound_to 7965
  155.5249  140.0594  157.2900 H   0  0  0  0  0  0  0  0  0  0  0  0  # atno 8008 bound_to 7997
  154.4504  140.1946  156.0481 H   0  0  0  0  0  0  0  0  0  0  0  0  # atno 8009 bound_to 7997
  156.0692  140.3262  155.7559 H   0  0  0  0  0  0  0  0  0  0  0  0  # atno 8010 bound_to 7997
  139.8594  143.7096  152.2651 H   0  0  0  0  0  0  0  0  0  0  0  0  # atno 10167 bound_to 10162
  156.1782  130.4150  149.9546 H   0  0  0  0  0  0  0  0  0  0  0  0  # atno 10718 bound_to 10713
  154.1943  135.2793  155.3012 H   0  0  0  0  0  0  0  0  0  0  0  0  # atno 10763 bound_to 10752
  154.5904  135.5561  153.7276 H   0  0  0  0  0  0  0  0  0  0  0  0  # atno 10764 bound_to 10752
  153.0104  135.6367  154.2081 H   0  0  0  0  0  0  0  0  0  0  0  0  # atno 10765 bound_to 10752
  140.6936  133.9049  155.8635 H   0  0  0  0  0  0  0  0  0  0  0  0  # atno 11005 bound_to 11000
  145.9642  139.2822  143.1137 LP  0  0  0  0  0  0  0  0  0  0  0  0  # atno 17320 bound_to 7965
  145.9187  140.9130  143.0416 LP  0  0  0  0  0  0  0  0  0  0  0  0  # atno 17321 bound_to 7965
  139.7388  144.7564  151.0685 LP  0  0  0  0  0  0  0  0  0  0  0  0  # atno 17342 bound_to 10162
  140.7777  143.4997  150.9787 LP  0  0  0  0  0  0  0  0  0  0  0  0  # atno 17343 bound_to 10162
  156.7325  130.9048  151.3627 LP  0  0  0  0  0  0  0  0  0  0  0  0  # atno 17370 bound_to 10713
  157.6850  130.9176  150.0363 LP  0  0  0  0  0  0  0  0  0  0  0  0  # atno 17371 bound_to 10713
  141.0221  134.0875  157.4109 LP  0  0  0  0  0  0  0  0  0  0  0  0  # atno 17394 bound_to 11000
  139.8916  135.0119  156.6802 LP  0  0  0  0  0  0  0  0  0  0  0  0  # atno 17395 bound_to 11000

$$$$
