AV-unprocessed.smi:2641|AV-procd|sdf|10272|dock2
  -GOLD-   2272014283D 1   1.00000     0.00000
 Structure written by MMmdl.
 39 40  0  0  0  0  0  0  0  0  2 V2000
  151.8983  145.7806  160.0700 C   0  0  0  0  0  0  0  0  0  0  0  0
  152.1875  144.2950  160.1230 C   0  0  0  0  0  0  0  0  0  0  0  0
  152.1029  143.4996  158.9608 C   0  0  0  0  0  0  0  0  0  0  0  0
  152.3863  142.1244  159.0679 C   0  0  0  0  0  0  0  0  0  0  0  0
  152.7429  141.5991  160.3272 C   0  0  0  0  0  0  0  0  0  0  0  0
  153.0662  140.1248  160.4939 C   0  0  0  0  0  0  0  0  0  0  0  0
  153.2578  139.4570  159.1310 C   0  0  0  0  0  0  0  0  0  0  0  0
  154.3787  139.4375  158.6242 O   0  0  0  0  0  0  0  0  0  0  0  0
  152.1482  138.9246  158.5847 N   0  0  0  0  0  0  0  0  0  0  0  0
  151.9169  138.1967  157.3256 C   0  0  0  0  0  0  0  0  0  0  0  0
  152.4023  136.7501  157.6041 C   0  0  0  0  0  0  0  0  0  0  0  0
  152.3395  135.9210  156.6683 O   0  0  0  0  0  0  0  0  0  0  0  0
  152.7868  136.4734  158.7625 O   0  5  0  0  0  0  0  0  0  0  0  0
  150.3843  138.2343  157.0584 C   0  0  0  0  0  0  0  0  0  0  0  0
  149.9729  137.5527  155.7380 C   0  0  0  0  0  0  0  0  0  0  0  0
  150.7179  138.1604  154.5413 C   0  0  0  0  0  0  0  0  0  0  0  0
  152.2377  138.1156  154.7540 C   0  0  0  0  0  0  0  0  0  0  0  0
  152.6346  138.8018  156.0759 C   0  0  0  0  0  0  0  0  0  0  0  0
  152.7945  142.4806  161.4280 C   0  0  0  0  0  0  0  0  0  0  0  0
  152.5247  143.8007  161.3347 N   0  0  0  0  0  0  0  0  0  0  0  0
  151.7239  146.1136  159.0465 H   0  0  0  0  0  0  0  0  0  0  0  0
  152.7392  146.3471  160.4716 H   0  0  0  0  0  0  0  0  0  0  0  0
  151.0119  146.0149  160.6600 H   0  0  0  0  0  0  0  0  0  0  0  0
  151.8281  143.9296  158.0085 H   0  0  0  0  0  0  0  0  0  0  0  0
  152.3311  141.4859  158.1983 H   0  0  0  0  0  0  0  0  0  0  0  0
  153.9782  140.0081  161.0805 H   0  0  0  0  0  0  0  0  0  0  0  0
  152.2678  139.6368  161.0553 H   0  0  0  0  0  0  0  0  0  0  0  0
  151.3147  139.0183  159.1466 H   0  0  0  0  0  0  0  0  0  0  0  0
  149.8303  137.7870  157.8851 H   0  0  0  0  0  0  0  0  0  0  0  0
  150.0565  139.2746  157.0256 H   0  0  0  0  0  0  0  0  0  0  0  0
  150.1719  136.4818  155.7890 H   0  0  0  0  0  0  0  0  0  0  0  0
  148.8973  137.6542  155.5914 H   0  0  0  0  0  0  0  0  0  0  0  0
  150.4533  137.6282  153.6273 H   0  0  0  0  0  0  0  0  0  0  0  0
  150.4002  139.1945  154.4013 H   0  0  0  0  0  0  0  0  0  0  0  0
  152.5805  137.0804  154.7462 H   0  0  0  0  0  0  0  0  0  0  0  0
  152.7396  138.6071  153.9202 H   0  0  0  0  0  0  0  0  0  0  0  0
  152.3730  139.8564  155.9832 H   0  0  0  0  0  0  0  0  0  0  0  0
  153.7195  138.7697  156.1865 H   0  0  0  0  0  0  0  0  0  0  0  0
  153.0609  142.1176  162.4099 H   0  0  0  0  0  0  0  0  0  0  0  0
  1  2  1  0  0  0  0
  1 21  1  0  0  0  0
  1 22  1  0  0  0  0
  1 23  1  0  0  0  0
  2 20  1  0  0  0  0
  2  3  2  0  0  0  0
  3  4  1  0  0  0  0
  3 24  1  0  0  0  0
  4  5  2  0  0  0  0
  4 25  1  0  0  0  0
  5  6  1  0  0  0  0
  5 19  1  0  0  0  0
  6  7  1  0  0  0  0
  6 26  1  0  0  0  0
  6 27  1  0  0  0  0
  7  8  2  0  0  0  0
  7  9  1  0  0  0  0
  9 10  1  0  0  0  0
  9 28  1  0  0  0  0
 10 18  1  0  0  0  0
 10 11  1  0  0  0  0
 10 14  1  0  0  0  0
 11 12  2  0  0  0  0
 11 13  1  0  0  0  0
 14 15  1  0  0  0  0
 14 29  1  0  0  0  0
 14 30  1  0  0  0  0
 15 16  1  0  0  0  0
 15 31  1  0  0  0  0
 15 32  1  0  0  0  0
 16 17  1  0  0  0  0
 16 33  1  0  0  0  0
 16 34  1  0  0  0  0
 17 18  1  0  0  0  0
 17 35  1  0  0  0  0
 17 36  1  0  0  0  0
 18 37  1  0  0  0  0
 18 38  1  0  0  0  0
 19 20  2  0  0  0  0
 19 39  1  0  0  0  0
M  CHG  1  13  -1
M  END
> <s_m_source_file>
AV-unprocessed.smi

> <i_m_source_file_index>
2641

> <i_lp_mmshare_version>
43012

> <i_f3d_flags>
0

> <s_epik_input>
W0NIM11jMVtjSF1bY0hdYyhbY0hdbjEpW0NIMl1DKD1PKVtOSF1DMihDKD1PKVtPSF0pW0NIMl1bQ0gyXVtDSDJdW0NIMl1bQ0gyXTI=

> <s_epik_cmdline>
J2VwaWtfcHl0aG9uJywgJy1waCcsICc3LjAnLCAnLXRuJywgJzgnLCAnLW1hJywgJzIwMCcsICctbWV0YWxfYmluZGluZycsICctaW1hZScsICc8aW5maWxlLm1hZT4nLCAnLW9tYWUnLCAnPG91dGZpbGUubWFlPic=

> <r_epik_Ionization_Penalty>
0.0190831

> <r_epik_Ionization_Penalty_Charging>
0.000391215

> <r_epik_Ionization_Penalty_Neutral>
0.0186919

> <r_epik_State_Penalty>
0.0148876

> <r_epik_Charging_Adjusted_Penalty>
0.0152789

> <i_epik_Tot_Q>
-1

> <i_epik_Tot_abs_Q>
1

> <r_epik_Metal_State_Penalty>
0.0144298

> <b_epik_Metal_Only>
0

> <s_lp_Force_Field>
OPLS_2005

> <r_lp_Energy>
4.43457

> <b_lp_Chiralities_Consistent>
1

> <s_lp_Variant>
AV-unprocessed.smi:2641-1

> <Gold.Version>
5.8.1

> <Gold.Id.Protein>
6NUR|6NUR_protein|mol2

> <Gold.PLP.Fitness>
47.7263

> <Gold.PLP.PLP>
-36.3031

> <Gold.PLP.part.hbond>
-3.0000

> <Gold.PLP.part.metal>
0.0000

> <Gold.PLP.part.buried>
-4.0898

> <Gold.PLP.part.nonpolar>
-30.5597

> <Gold.PLP.part.repulsive>
0.1965

> <Gold.PLP.ligand.clash>
0.0000

> <Gold.PLP.ligand.torsion>
1.0010

> <Gold.PLP.Chemscore.Hbond>
4.4591

> <Gold.PLP.Chemscore.CHOScore>
0.0000

> <Gold.PLP.Chemscore.Metal>
0.0000

> <Gold.Chemscore.Hbonds>
donor molecule, donor type, donor heavy atom, donor atom, acceptor molecule, acceptor atom, score
      P1  H  6896  6909       L1    13  1.39
      P1  H  7997  8008       L1     8  1.00
      P1  H 10752 10763       L1    12  2.00

> <Gold.PLP.Chemscore.Internal.Correction>
0.0480

> <Gold.Rescore>
     Score         DG    S(hbond)    S(metal)    S(lipo)     H(rot)  DE(clash)    DE(int)     intcor
     19.16     -22.51       2.66        0.00     109.90       1.85       0.13       3.22       ----

> <Gold.Chemscore.Fitness>
19.1558

> <Gold.Chemscore.DG>
-22.5080

> <Gold.Chemscore.ZeroCoef>
-5.4800

> <Gold.Chemscore.Hbond>
2.6644

> <Gold.Chemscore.Metal>
0.0000

> <Gold.Chemscore.Lipo>
109.8995

> <Gold.Chemscore.Internal_Hbond>
0.0000

> <Gold.Chemscore.DEClash>
0.1326

> <Gold.Chemscore.DEInternal>
3.2196

> <Gold.Chemscore.Rot>
1.8474

> <Gold.Chemscore.Internal.Correction>
   9.000000E+99

> <Gold.Chemscore.Hbonds>
donor molecule, donor type, donor heavy atom, donor atom, acceptor molecule, acceptor atom, score
      P1  H  6896  6909       L1    13  0.66
      P1  H  7997  8008       L1     8  0.97
      P1  H 10752 10763       L1    12  1.00

> <Gold.Chemscore.Hbond.Weighted>
-8.8991

> <Gold.Chemscore.Metal.Weighted>
-0.0000

> <Gold.Chemscore.Lipo.Weighted>
-12.8582

> <Gold.Chemscore.Internal_Hbond.Weighted>
0.0000

> <Gold.Chemscore.DEClash.Weighted>
0.1326

> <Gold.Chemscore.DEInternal.Weighted>
3.2196

> <Gold.Chemscore.Rot.Weighted>
4.7294

> <Gold.Chemscore.Internal.Correction.Weighted>
   9.000000E+99

> <Gold.Protein.RotatedTorsions>
[ 6907 6896 6895 6894 ] final  147.10 input  -60.11 | X-H torsion
[ 7974 7965 7964 7962 ] final  -52.71 input  175.53 | X-H torsion
[ 8008 7997 7996 7995 ] final -111.87 input   59.86 | X-H torsion
[ 10167 10162 10161 10158 ] final -107.56 input  -65.29 | X-H torsion
[ 10718 10713 10712 10709 ] final -156.43 input   66.30 | X-H torsion
[ 10763 10752 10751 10750 ] final   92.00 input  -60.55 | X-H torsion
[ 11005 11000 10999 10996 ] final   48.38 input  -57.11 | X-H torsion

> <Gold.Protein.ActiveResidues>
 VAL166  LYS551  ARG553  GLY616  TRP617  ASP618  TYR619  PRO620  LYS621  CYS622 
 ASP623  PHE694  ASN695  SER759  ASP760  ASP761  ALA762  ILE779  LEU786  VAL792 
 PHE793  MET794  SER795  GLU796  ALA797  LYS798  CYS799  TRP800  GLU811  SER814 

> <Gold.Protein.RotatedAtoms>
  152.1593  133.4571  159.4852 H   0  0  0  0  0  0  0  0  0  0  0  0  # atno 6907 bound_to 6896
  150.6905  134.2092  159.4361 H   0  0  0  0  0  0  0  0  0  0  0  0  # atno 6908 bound_to 6896
  151.9993  134.9936  160.0615 H   0  0  0  0  0  0  0  0  0  0  0  0  # atno 6909 bound_to 6896
  145.9049  140.7964  142.9724 H   0  0  0  0  0  0  0  0  0  0  0  0  # atno 7974 bound_to 7965
  154.9964  140.0394  157.2341 H   0  0  0  0  0  0  0  0  0  0  0  0  # atno 8008 bound_to 7997
  154.7582  140.2779  155.6213 H   0  0  0  0  0  0  0  0  0  0  0  0  # atno 8009 bound_to 7997
  156.2899  140.2633  156.2354 H   0  0  0  0  0  0  0  0  0  0  0  0  # atno 8010 bound_to 7997
  140.1757  143.4007  152.1321 H   0  0  0  0  0  0  0  0  0  0  0  0  # atno 10167 bound_to 10162
  156.5265  130.8501  151.2701 H   0  0  0  0  0  0  0  0  0  0  0  0  # atno 10718 bound_to 10713
  153.2143  135.4377  155.0416 H   0  0  0  0  0  0  0  0  0  0  0  0  # atno 10763 bound_to 10752
  154.8217  135.3341  154.7022 H   0  0  0  0  0  0  0  0  0  0  0  0  # atno 10764 bound_to 10752
  153.7457  135.7001  153.5012 H   0  0  0  0  0  0  0  0  0  0  0  0  # atno 10765 bound_to 10752
  140.1195  134.4848  155.8609 H   0  0  0  0  0  0  0  0  0  0  0  0  # atno 11005 bound_to 11000
  144.6738  140.1735  143.7412 LP  0  0  0  0  0  0  0  0  0  0  0  0  # atno 17320 bound_to 7965
  145.8745  139.2289  143.1642 LP  0  0  0  0  0  0  0  0  0  0  0  0  # atno 17321 bound_to 7965
  139.5318  144.7167  151.5029 LP  0  0  0  0  0  0  0  0  0  0  0  0  # atno 17342 bound_to 10162
  140.6553  143.8612  150.6828 LP  0  0  0  0  0  0  0  0  0  0  0  0  # atno 17343 bound_to 10162
  157.7428  130.9899  150.2548 LP  0  0  0  0  0  0  0  0  0  0  0  0  # atno 17370 bound_to 10713
  156.3100  130.3770  149.7670 LP  0  0  0  0  0  0  0  0  0  0  0  0  # atno 17371 bound_to 10713
  141.2148  133.6755  156.6862 LP  0  0  0  0  0  0  0  0  0  0  0  0  # atno 17394 bound_to 11000
  140.2983  134.8184  157.4076 LP  0  0  0  0  0  0  0  0  0  0  0  0  # atno 17395 bound_to 11000

$$$$
