AV-unprocessed.smi:1198|AV-procd|sdf|5012|dock7
  -GOLD-   22720 4 23D 1   1.00000     0.00000
 Structure written by MMmdl.
 40 41  0  0  0  0  0  0  0  0  2 V2000
  152.4561  140.3772  158.2299 C   0  0  0  0  0  0  0  0  0  0  0  0
  152.4626  140.3516  156.8067 O   0  0  0  0  0  0  0  0  0  0  0  0
  151.7799  139.3380  156.1663 C   0  0  0  0  0  0  0  0  0  0  0  0
  151.6004  138.1151  156.8420 C   0  0  0  0  0  0  0  0  0  0  0  0
  150.9029  137.0788  156.1936 C   0  0  0  0  0  0  0  0  0  0  0  0
  150.4118  137.2888  154.8894 C   0  0  0  0  0  0  0  0  0  0  0  0
  149.6981  136.2251  154.2731 N   0  0  0  0  0  0  0  0  0  0  0  0
  149.4309  134.9982  154.7522 C   0  0  0  0  0  0  0  0  0  0  0  0
  149.7593  134.5742  155.8597 O   0  0  0  0  0  0  0  0  0  0  0  0
  148.7355  134.2745  153.8636 N   0  0  0  0  0  0  0  0  0  0  0  0
  148.2818  132.9035  154.0713 C   0  0  0  0  0  0  0  0  0  0  0  0
  147.1360  132.5197  153.1150 C   0  0  2  0  0  0  0  0  0  0  0  0
  146.9020  131.0180  152.9592 C   0  0  0  0  0  0  0  0  0  0  0  0
  146.1118  130.9407  151.6557 C   0  0  0  0  0  0  0  0  0  0  0  0
  146.6629  132.0108  150.7961 N   0  3  1  0  0  0  0  0  0  0  0  0
  145.6804  132.6039  149.8649 C   0  0  0  0  0  0  0  0  0  0  0  0
  147.3474  132.9929  151.6703 C   0  0  0  0  0  0  0  0  0  0  0  0
  150.6357  138.5568  154.2987 C   0  0  0  0  0  0  0  0  0  0  0  0
  151.3028  139.5553  154.9160 N   0  0  0  0  0  0  0  0  0  0  0  0
  153.0433  141.2268  158.5779 H   0  0  0  0  0  0  0  0  0  0  0  0
  152.9031  139.4739  158.6476 H   0  0  0  0  0  0  0  0  0  0  0  0
  151.4444  140.4913  158.6218 H   0  0  0  0  0  0  0  0  0  0  0  0
  151.9888  137.9751  157.8399 H   0  0  0  0  0  0  0  0  0  0  0  0
  150.7509  136.1335  156.6941 H   0  0  0  0  0  0  0  0  0  0  0  0
  149.3021  136.4420  153.3703 H   0  0  0  0  0  0  0  0  0  0  0  0
  148.5004  134.7038  152.9804 H   0  0  0  0  0  0  0  0  0  0  0  0
  149.1197  132.2142  153.9533 H   0  0  0  0  0  0  0  0  0  0  0  0
  147.9524  132.8125  155.1066 H   0  0  0  0  0  0  0  0  0  0  0  0
  146.2067  132.9653  153.4751 H   0  0  0  0  0  0  0  0  0  0  0  0
  147.8527  130.4935  152.8522 H   0  0  0  0  0  0  0  0  0  0  0  0
  146.3660  130.5807  153.8024 H   0  0  0  0  0  0  0  0  0  0  0  0
  146.1859  129.9641  151.1763 H   0  0  0  0  0  0  0  0  0  0  0  0
  145.0573  131.1338  151.8613 H   0  0  0  0  0  0  0  0  0  0  0  0
  144.8809  133.1103  150.4076 H   0  0  0  0  0  0  0  0  0  0  0  0
  145.2347  131.8316  149.2368 H   0  0  0  0  0  0  0  0  0  0  0  0
  146.1655  133.3304  149.2122 H   0  0  0  0  0  0  0  0  0  0  0  0
  146.9825  134.0115  151.5287 H   0  0  0  0  0  0  0  0  0  0  0  0
  148.4067  132.9870  151.4105 H   0  0  0  0  0  0  0  0  0  0  0  0
  150.2647  138.8080  153.3178 H   0  0  0  0  0  0  0  0  0  0  0  0
  147.3863  131.5850  150.2340 H   0  0  0  0  0  0  0  0  0  0  0  0
  1  2  1  0  0  0  0
  1 20  1  0  0  0  0
  1 21  1  0  0  0  0
  1 22  1  0  0  0  0
  2  3  1  0  0  0  0
  3 19  1  0  0  0  0
  3  4  2  0  0  0  0
  4  5  1  0  0  0  0
  4 23  1  0  0  0  0
  5  6  2  0  0  0  0
  5 24  1  0  0  0  0
  6  7  1  0  0  0  0
  6 18  1  0  0  0  0
  7  8  1  0  0  0  0
  7 25  1  0  0  0  0
  8  9  2  0  0  0  0
  8 10  1  0  0  0  0
 10 11  1  0  0  0  0
 10 26  1  0  0  0  0
 11 12  1  0  0  0  0
 11 27  1  0  0  0  0
 11 28  1  0  0  0  0
 12 17  1  0  0  0  0
 12 13  1  0  0  0  0
 12 29  1  0  0  0  0
 13 14  1  0  0  0  0
 13 30  1  0  0  0  0
 13 31  1  0  0  0  0
 14 15  1  0  0  0  0
 14 32  1  0  0  0  0
 14 33  1  0  0  0  0
 15 16  1  0  0  0  0
 15 17  1  0  0  0  0
 15 40  1  0  0  0  0
 16 34  1  0  0  0  0
 16 35  1  0  0  0  0
 16 36  1  0  0  0  0
 17 37  1  0  0  0  0
 17 38  1  0  0  0  0
 18 19  2  0  0  0  0
 18 39  1  0  0  0  0
M  CHG  1  15   1
M  END
> <s_m_source_file>
AV-unprocessed.smi

> <i_m_source_file_index>
1198

> <i_lp_mmshare_version>
43012

> <i_f3d_flags>
0

> <s_epik_input>
W0NIM11PYzFbY0hdW2NIXWMoW2NIXW4xKVtOSF1DKD1PKVtOSF1bQ0gyXVtDQEBIXTJbQ0gyXVtDSDJdTihbQ0gzXSlbQ0gyXTI=

> <s_epik_cmdline>
J2VwaWtfcHl0aG9uJywgJy1waCcsICc3LjAnLCAnLXRuJywgJzgnLCAnLW1hJywgJzIwMCcsICctbWV0YWxfYmluZGluZycsICctaW1hZScsICc8aW5maWxlLm1hZT4nLCAnLW9tYWUnLCAnPG91dGZpbGUubWFlPic=

> <r_lp_tautomer_probability>
1

> <r_epik_Ionization_Penalty>
0.00131396

> <r_epik_Ionization_Penalty_Charging>
0.0012301

> <r_epik_Ionization_Penalty_Neutral>
8.38549e-05

> <r_epik_State_Penalty>
0.00081314

> <r_epik_Charging_Adjusted_Penalty>
0.00204324

> <i_epik_Tot_Q>
1

> <i_epik_Tot_abs_Q>
1

> <r_epik_Metal_State_Penalty>
-0

> <b_epik_Metal_Only>
0

> <s_lp_Force_Field>
OPLS_2005

> <r_lp_Energy>
29.8617

> <b_lp_Chiralities_Consistent>
1

> <s_lp_Variant>
AV-unprocessed.smi:1198-3

> <Gold.Version>
5.8.1

> <Gold.Id.Protein>
6NUR|6NUR_protein|mol2

> <Gold.PLP.Fitness>
42.9364

> <Gold.PLP.PLP>
-26.9536

> <Gold.PLP.part.hbond>
-5.3026

> <Gold.PLP.part.metal>
0.0000

> <Gold.PLP.part.buried>
-0.3909

> <Gold.PLP.part.nonpolar>
-21.0224

> <Gold.PLP.part.repulsive>
0.1549

> <Gold.PLP.ligand.clash>
0.0000

> <Gold.PLP.ligand.torsion>
0.6478

> <Gold.PLP.Chemscore.Hbond>
4.8160

> <Gold.PLP.Chemscore.CHOScore>
0.9368

> <Gold.PLP.Chemscore.Metal>
0.0000

> <Gold.Chemscore.Hbonds>
donor molecule, donor type, donor heavy atom, donor atom, acceptor molecule, acceptor atom, score
      L1  H     7    25       P1  7948  1.00
      L1  H    10    26       P1  7948  0.83
      L1  H    15    40       P1 10747  0.91
      P1  H  7989  7998       L1    19  1.00
      P1  H  7997  8009       L1     2  0.99
      L1  C    18    39       P1  7957  0.94

> <Gold.PLP.Chemscore.Internal.Correction>
0.0201

> <Gold.Rescore>
     Score         DG    S(hbond)    S(metal)    S(lipo)     H(rot)  DE(clash)    DE(int)     intcor
     19.10     -21.72       3.61        0.00      68.92       1.51       0.61       2.01       ----

> <Gold.Chemscore.Fitness>
19.0983

> <Gold.Chemscore.DG>
-21.7167

> <Gold.Chemscore.ZeroCoef>
-5.4800

> <Gold.Chemscore.Hbond>
3.6082

> <Gold.Chemscore.Metal>
0.0000

> <Gold.Chemscore.Lipo>
68.9182

> <Gold.Chemscore.Internal_Hbond>
0.0000

> <Gold.Chemscore.DEClash>
0.6075

> <Gold.Chemscore.DEInternal>
2.0110

> <Gold.Chemscore.Rot>
1.5149

> <Gold.Chemscore.Internal.Correction>
   9.000000E+99

> <Gold.Chemscore.Hbonds>
donor molecule, donor type, donor heavy atom, donor atom, acceptor molecule, acceptor atom, score
      L1  H     7    25       P1  7948  0.81
      L1  H    10    26       P1  7948  0.33
      L1  H    15    40       P1 10747  0.90
      P1  H  7989  7998       L1    19  0.44
      P1  H  7997  8009       L1     2  0.17

> <Gold.Chemscore.Hbond.Weighted>
-12.0514

> <Gold.Chemscore.Metal.Weighted>
-0.0000

> <Gold.Chemscore.Lipo.Weighted>
-8.0634

> <Gold.Chemscore.Internal_Hbond.Weighted>
0.0000

> <Gold.Chemscore.DEClash.Weighted>
0.6075

> <Gold.Chemscore.DEInternal.Weighted>
2.0110

> <Gold.Chemscore.Rot.Weighted>
3.8781

> <Gold.Chemscore.Internal.Correction.Weighted>
   9.000000E+99

> <Gold.Protein.RotatedTorsions>
[ 6907 6896 6895 6894 ] final  176.93 input  -60.11 | X-H torsion
[ 7974 7965 7964 7962 ] final -149.39 input  175.53 | X-H torsion
[ 8008 7997 7996 7995 ] final -170.32 input   59.86 | X-H torsion
[ 10167 10162 10161 10158 ] final -135.89 input  -65.29 | X-H torsion
[ 10718 10713 10712 10709 ] final -166.64 input   66.30 | X-H torsion
[ 10763 10752 10751 10750 ] final -126.85 input  -60.55 | X-H torsion
[ 11005 11000 10999 10996 ] final   60.15 input  -57.11 | X-H torsion

> <Gold.Protein.ActiveResidues>
 VAL166  LYS551  ARG553  GLY616  TRP617  ASP618  TYR619  PRO620  LYS621  CYS622 
 ASP623  PHE694  ASN695  SER759  ASP760  ASP761  ALA762  ILE779  LEU786  VAL792 
 PHE793  MET794  SER795  GLU796  ALA797  LYS798  CYS799  TRP800  GLU811  SER814 

> <Gold.Protein.RotatedAtoms>
  151.7122  133.3312  159.3293 H   0  0  0  0  0  0  0  0  0  0  0  0  # atno 6907 bound_to 6896
  150.7689  134.6522  159.6304 H   0  0  0  0  0  0  0  0  0  0  0  0  # atno 6908 bound_to 6896
  152.3704  134.6744  160.0229 H   0  0  0  0  0  0  0  0  0  0  0  0  # atno 6909 bound_to 6896
  144.7970  140.5071  143.5733 H   0  0  0  0  0  0  0  0  0  0  0  0  # atno 7974 bound_to 7965
  155.9167  140.1067  157.1238 H   0  0  0  0  0  0  0  0  0  0  0  0  # atno 8008 bound_to 7997
  154.4047  140.1264  156.4692 H   0  0  0  0  0  0  0  0  0  0  0  0  # atno 8009 bound_to 7997
  155.7245  140.3469  155.5033 H   0  0  0  0  0  0  0  0  0  0  0  0  # atno 8010 bound_to 7997
  139.8733  143.6930  152.2637 H   0  0  0  0  0  0  0  0  0  0  0  0  # atno 10167 bound_to 10162
  156.6708  130.9083  151.3043 H   0  0  0  0  0  0  0  0  0  0  0  0  # atno 10718 bound_to 10713
  154.8748  135.3982  154.3497 H   0  0  0  0  0  0  0  0  0  0  0  0  # atno 10763 bound_to 10752
  153.4285  135.7024  153.6252 H   0  0  0  0  0  0  0  0  0  0  0  0  # atno 10764 bound_to 10752
  153.4884  135.3754  155.2448 H   0  0  0  0  0  0  0  0  0  0  0  0  # atno 10765 bound_to 10752
  140.0252  134.6093  155.9582 H   0  0  0  0  0  0  0  0  0  0  0  0  # atno 11005 bound_to 11000
  145.5647  139.1481  143.3321 LP  0  0  0  0  0  0  0  0  0  0  0  0  # atno 17320 bound_to 7965
  146.2241  140.5782  142.9004 LP  0  0  0  0  0  0  0  0  0  0  0  0  # atno 17321 bound_to 7965
  139.7264  144.7592  151.0872 LP  0  0  0  0  0  0  0  0  0  0  0  0  # atno 17342 bound_to 10162
  140.7757  143.5143  150.9614 LP  0  0  0  0  0  0  0  0  0  0  0  0  # atno 17343 bound_to 10162
  157.7078  130.9404  150.0987 LP  0  0  0  0  0  0  0  0  0  0  0  0  # atno 17370 bound_to 10713
  156.1940  130.3656  149.8873 LP  0  0  0  0  0  0  0  0  0  0  0  0  # atno 17371 bound_to 10713
  141.1798  133.6545  156.4975 LP  0  0  0  0  0  0  0  0  0  0  0  0  # atno 17394 bound_to 11000
  140.4318  134.7095  157.4946 LP  0  0  0  0  0  0  0  0  0  0  0  0  # atno 17395 bound_to 11000

$$$$
