AV-unprocessed.smi:1503|AV-procd|sdf|6068|dock10
  -GOLD-   22720 6183D 1   1.00000     0.00000
 Structure written by MMmdl.
 44 45  0  0  0  0  0  0  0  0  1 V2000
  147.0631  138.9848  152.6944 C   0  0  0  0  0  0  0  0  0  0  0  0
  146.6979  138.5558  153.9118 C   0  0  0  0  0  0  0  0  0  0  0  0
  147.0638  137.2033  154.4914 C   0  0  0  0  0  0  0  0  0  0  0  0
  148.5043  136.9804  154.4613 N   0  0  0  0  0  0  0  0  0  0  0  0
  149.2819  136.7919  155.5390 C   0  0  0  0  0  0  0  0  0  0  0  0
  148.8499  136.7975  156.6921 O   0  0  0  0  0  0  0  0  0  0  0  0
  150.7717  136.5658  155.2656 C   0  0  0  0  0  0  0  0  0  0  0  0
  151.4813  137.8192  154.7192 C   0  0  0  0  0  0  0  0  0  0  0  0
  151.6996  138.8728  155.8016 C   0  0  0  0  0  0  0  0  0  0  0  0
  152.4489  138.6517  156.9177 C   0  0  0  0  0  0  0  0  0  0  0  0
  153.1614  137.3380  157.1873 C   0  0  0  0  0  0  0  0  0  0  0  0
  152.6141  139.6421  157.8941 N   0  0  0  0  0  0  0  0  0  0  0  0
  152.0516  140.8011  157.7518 C   0  0  0  0  0  0  0  0  0  0  0  0
  152.1329  141.8662  158.6517 N   0  0  0  0  0  0  0  0  0  0  0  0
  151.9576  143.2550  158.2185 C   0  0  0  0  0  0  0  0  0  0  0  0
  151.5395  144.1578  159.3910 C   0  0  0  0  0  0  0  0  0  0  0  0
  152.4884  144.0474  160.4430 O   0  0  0  0  0  0  0  0  0  0  0  0
  152.5577  142.7184  160.9409 C   0  0  0  0  0  0  0  0  0  0  0  0
  153.0082  141.7671  159.8196 C   0  0  0  0  0  0  0  0  0  0  0  0
  151.2663  141.0661  156.6246 N   0  0  0  0  0  0  0  0  0  0  0  0
  151.0473  140.1806  155.6276 C   0  0  0  0  0  0  0  0  0  0  0  0
  150.3505  140.4892  154.6620 O   0  0  0  0  0  0  0  0  0  0  0  0
  150.8326  141.9739  156.5425 H   0  0  0  0  0  0  0  0  0  0  0  0
  147.6556  138.3670  152.0355 H   0  0  0  0  0  0  0  0  0  0  0  0
  146.7727  139.9633  152.3411 H   0  0  0  0  0  0  0  0  0  0  0  0
  146.1089  139.2052  154.5434 H   0  0  0  0  0  0  0  0  0  0  0  0
  146.7206  137.1335  155.5241 H   0  0  0  0  0  0  0  0  0  0  0  0
  146.5472  136.4211  153.9332 H   0  0  0  0  0  0  0  0  0  0  0  0
  148.9431  136.9626  153.5520 H   0  0  0  0  0  0  0  0  0  0  0  0
  151.2610  136.2432  156.1860 H   0  0  0  0  0  0  0  0  0  0  0  0
  150.8666  135.7425  154.5569 H   0  0  0  0  0  0  0  0  0  0  0  0
  152.4447  137.5515  154.2818 H   0  0  0  0  0  0  0  0  0  0  0  0
  150.9035  138.2402  153.8964 H   0  0  0  0  0  0  0  0  0  0  0  0
  153.7743  137.0493  156.3331 H   0  0  0  0  0  0  0  0  0  0  0  0
  152.4375  136.5460  157.3802 H   0  0  0  0  0  0  0  0  0  0  0  0
  153.8163  137.4139  158.0563 H   0  0  0  0  0  0  0  0  0  0  0  0
  152.9001  143.6087  157.7987 H   0  0  0  0  0  0  0  0  0  0  0  0
  151.2126  143.3430  157.4277 H   0  0  0  0  0  0  0  0  0  0  0  0
  151.4922  145.1968  159.0650 H   0  0  0  0  0  0  0  0  0  0  0  0
  150.5441  143.8917  159.7507 H   0  0  0  0  0  0  0  0  0  0  0  0
  153.2676  142.6865  161.7673 H   0  0  0  0  0  0  0  0  0  0  0  0
  151.5891  142.4155  161.3418 H   0  0  0  0  0  0  0  0  0  0  0  0
  153.0197  140.7462  160.2043 H   0  0  0  0  0  0  0  0  0  0  0  0
  154.0289  142.0042  159.5165 H   0  0  0  0  0  0  0  0  0  0  0  0
  1  2  2  0  0  0  0
  1 24  1  0  0  0  0
  1 25  1  0  0  0  0
  2  3  1  0  0  0  0
  2 26  1  0  0  0  0
  3  4  1  0  0  0  0
  3 27  1  0  0  0  0
  3 28  1  0  0  0  0
  4  5  1  0  0  0  0
  4 29  1  0  0  0  0
  5  6  2  0  0  0  0
  5  7  1  0  0  0  0
  7  8  1  0  0  0  0
  7 30  1  0  0  0  0
  7 31  1  0  0  0  0
  8  9  1  0  0  0  0
  8 32  1  0  0  0  0
  8 33  1  0  0  0  0
  9 21  1  0  0  0  0
  9 10  2  0  0  0  0
 10 11  1  0  0  0  0
 10 12  1  0  0  0  0
 11 34  1  0  0  0  0
 11 35  1  0  0  0  0
 11 36  1  0  0  0  0
 12 13  2  0  0  0  0
 13 14  1  0  0  0  0
 13 20  1  0  0  0  0
 14 19  1  0  0  0  0
 14 15  1  0  0  0  0
 15 16  1  0  0  0  0
 15 37  1  0  0  0  0
 15 38  1  0  0  0  0
 16 17  1  0  0  0  0
 16 39  1  0  0  0  0
 16 40  1  0  0  0  0
 17 18  1  0  0  0  0
 18 19  1  0  0  0  0
 18 41  1  0  0  0  0
 18 42  1  0  0  0  0
 19 43  1  0  0  0  0
 19 44  1  0  0  0  0
 20 23  1  0  0  0  0
 20 21  1  0  0  0  0
 21 22  2  0  0  0  0
M  END
> <s_m_source_file>
AV-unprocessed.smi

> <i_m_source_file_index>
1503

> <i_lp_mmshare_version>
43012

> <i_f3d_flags>
0

> <s_epik_input>
W0NIMl09W0NIXVtDSDJdW05IXUMoPU8pW0NIMl1bQ0gyXWMxYyhbQ0gzXSluYyhbbkhdYzE9TylOMltDSDJdW0NIMl1PW0NIMl1bQ0gyXTI=

> <s_epik_cmdline>
J2VwaWtfcHl0aG9uJywgJy1waCcsICc3LjAnLCAnLXRuJywgJzgnLCAnLW1hJywgJzIwMCcsICctbWV0YWxfYmluZGluZycsICctaW1hZScsICc8aW5maWxlLm1hZT4nLCAnLW9tYWUnLCAnPG91dGZpbGUubWFlPic=

> <r_lp_tautomer_probability>
0.878553

> <r_epik_Ionization_Penalty>
0.00125265

> <r_epik_Ionization_Penalty_Charging>
0.00122759

> <r_epik_Ionization_Penalty_Neutral>
2.50575e-05

> <r_epik_State_Penalty>
0.0426914

> <r_epik_Charging_Adjusted_Penalty>
0.043919

> <i_epik_Tot_Q>
0

> <i_epik_Tot_abs_Q>
0

> <r_epik_Metal_State_Penalty>
1.02948

> <b_epik_Metal_Only>
0

> <s_lp_Force_Field>
OPLS_2005

> <r_lp_Energy>
21.7502

> <b_lp_Chiralities_Consistent>
1

> <s_lp_Variant>
AV-unprocessed.smi:1503-1

> <Gold.Version>
5.8.1

> <Gold.Id.Protein>
6NUR|6NUR_protein|mol2

> <Gold.PLP.Fitness>
43.5740

> <Gold.PLP.PLP>
-37.2066

> <Gold.PLP.part.hbond>
-2.6827

> <Gold.PLP.part.metal>
0.0000

> <Gold.PLP.part.buried>
-4.8176

> <Gold.PLP.part.nonpolar>
-30.3663

> <Gold.PLP.part.repulsive>
0.2677

> <Gold.PLP.ligand.clash>
0.0000

> <Gold.PLP.ligand.torsion>
0.2825

> <Gold.PLP.Chemscore.Hbond>
2.2226

> <Gold.PLP.Chemscore.CHOScore>
0.0000

> <Gold.PLP.Chemscore.Metal>
0.0000

> <Gold.Chemscore.Hbonds>
donor molecule, donor type, donor heavy atom, donor atom, acceptor molecule, acceptor atom, score
      L1  H     4    29       P1  7948  0.96
      P1  H  7989  7998       L1    22  0.98
      P1  H  7997  8009       L1    12  0.24

> <Gold.PLP.Chemscore.Internal.Correction>
0.2647

> <Gold.Rescore>
     Score         DG    S(hbond)    S(metal)    S(lipo)     H(rot)  DE(clash)    DE(int)     intcor
     15.73     -16.12       1.71        0.00      84.15       1.92       0.08       0.31       ----

> <Gold.Chemscore.Fitness>
15.7311

> <Gold.Chemscore.DG>
-16.1191

> <Gold.Chemscore.ZeroCoef>
-5.4800

> <Gold.Chemscore.Hbond>
1.7082

> <Gold.Chemscore.Metal>
0.0000

> <Gold.Chemscore.Lipo>
84.1517

> <Gold.Chemscore.Internal_Hbond>
0.0000

> <Gold.Chemscore.DEClash>
0.0785

> <Gold.Chemscore.DEInternal>
0.3096

> <Gold.Chemscore.Rot>
1.9187

> <Gold.Chemscore.Internal.Correction>
   9.000000E+99

> <Gold.Chemscore.Hbonds>
donor molecule, donor type, donor heavy atom, donor atom, acceptor molecule, acceptor atom, score
      L1  H     4    29       P1  7948  0.92
      P1  H  7989  7998       L1    22  0.24

> <Gold.Chemscore.Hbond.Weighted>
-5.7053

> <Gold.Chemscore.Metal.Weighted>
-0.0000

> <Gold.Chemscore.Lipo.Weighted>
-9.8458

> <Gold.Chemscore.Internal_Hbond.Weighted>
0.0000

> <Gold.Chemscore.DEClash.Weighted>
0.0785

> <Gold.Chemscore.DEInternal.Weighted>
0.3096

> <Gold.Chemscore.Rot.Weighted>
4.9119

> <Gold.Chemscore.Internal.Correction.Weighted>
   9.000000E+99

> <Gold.Protein.RotatedTorsions>
[ 6907 6896 6895 6894 ] final  -57.83 input  -60.11 | X-H torsion
[ 7974 7965 7964 7962 ] final -123.52 input  175.53 | X-H torsion
[ 8008 7997 7996 7995 ] final  150.18 input   59.86 | X-H torsion
[ 10167 10162 10161 10158 ] final  -46.92 input  -65.29 | X-H torsion
[ 10718 10713 10712 10709 ] final  -42.68 input   66.30 | X-H torsion
[ 10763 10752 10751 10750 ] final -134.54 input  -60.55 | X-H torsion
[ 11005 11000 10999 10996 ] final -165.76 input  -57.11 | X-H torsion

> <Gold.Protein.ActiveResidues>
 VAL166  LYS551  ARG553  GLY616  TRP617  ASP618  TYR619  PRO620  LYS621  CYS622 
 ASP623  PHE694  ASN695  SER759  ASP760  ASP761  ALA762  ILE779  LEU786  VAL792 
 PHE793  MET794  SER795  GLU796  ALA797  LYS798  CYS799  TRP800  GLU811  SER814 

> <Gold.Protein.RotatedAtoms>
  150.8055  134.7177  159.6639 H   0  0  0  0  0  0  0  0  0  0  0  0  # atno 6907 bound_to 6896
  152.4174  134.6014  160.0011 H   0  0  0  0  0  0  0  0  0  0  0  0  # atno 6908 bound_to 6896
  151.6239  133.3300  159.3130 H   0  0  0  0  0  0  0  0  0  0  0  0  # atno 6909 bound_to 6896
  145.0178  140.7962  143.4399 H   0  0  0  0  0  0  0  0  0  0  0  0  # atno 7974 bound_to 7965
  156.2726  140.2081  156.5977 H   0  0  0  0  0  0  0  0  0  0  0  0  # atno 8008 bound_to 7997
  154.6932  140.0528  157.0408 H   0  0  0  0  0  0  0  0  0  0  0  0  # atno 8009 bound_to 7997
  155.0838  140.3189  155.4596 H   0  0  0  0  0  0  0  0  0  0  0  0  # atno 8010 bound_to 7997
  140.6797  143.2808  151.3852 H   0  0  0  0  0  0  0  0  0  0  0  0  # atno 10167 bound_to 10162
  156.2570  130.4193  149.8585 H   0  0  0  0  0  0  0  0  0  0  0  0  # atno 10718 bound_to 10713
  154.8717  135.3731  154.4752 H   0  0  0  0  0  0  0  0  0  0  0  0  # atno 10763 bound_to 10752
  153.5410  135.7026  153.5642 H   0  0  0  0  0  0  0  0  0  0  0  0  # atno 10764 bound_to 10752
  153.3803  135.3998  155.1817 H   0  0  0  0  0  0  0  0  0  0  0  0  # atno 10765 bound_to 10752
  140.5720  134.5228  157.5163 H   0  0  0  0  0  0  0  0  0  0  0  0  # atno 11005 bound_to 11000
  145.1936  139.2288  143.5229 LP  0  0  0  0  0  0  0  0  0  0  0  0  # atno 17320 bound_to 7965
  146.3480  140.1738  142.8589 LP  0  0  0  0  0  0  0  0  0  0  0  0  # atno 17321 bound_to 7965
  139.6111  144.1096  152.2300 LP  0  0  0  0  0  0  0  0  0  0  0  0  # atno 17342 bound_to 10162
  140.0510  144.5932  150.7336 LP  0  0  0  0  0  0  0  0  0  0  0  0  # atno 17343 bound_to 10162
  156.6113  130.8588  151.3455 LP  0  0  0  0  0  0  0  0  0  0  0  0  # atno 17370 bound_to 10713
  157.7236  130.9592  150.1541 LP  0  0  0  0  0  0  0  0  0  0  0  0  # atno 17371 bound_to 10713
  139.9357  134.7880  156.0809 LP  0  0  0  0  0  0  0  0  0  0  0  0  # atno 17394 bound_to 11000
  141.1050  133.6663  156.2842 LP  0  0  0  0  0  0  0  0  0  0  0  0  # atno 17395 bound_to 11000

$$$$
