AV-unprocessed.smi:1419|AV-procd|sdf|5784|dock7
  -GOLD-   22720 5433D 1   1.00000     0.00000
 Structure written by MMmdl.
 41 42  0  0  0  0  0  0  0  0  1 V2000
  151.8426  139.1231  156.5226 C   0  0  0  0  0  0  0  0  0  0  0  0
  151.5246  140.6225  156.6005 C   0  0  2  0  0  0  0  0  0  0  0  0
  151.5374  141.1210  158.0614 C   0  0  0  0  0  0  0  0  0  0  0  0
  151.8395  142.5366  158.1732 N   0  0  0  0  0  0  0  0  0  0  0  0
  152.7989  143.1298  158.9835 C   0  0  0  0  0  0  0  0  0  0  0  0
  152.7268  144.4846  158.7514 C   0  0  0  0  0  0  0  0  0  0  0  0
  151.7242  144.7481  157.8210 N   0  0  0  0  0  0  0  0  0  0  0  0
  151.2395  143.5480  157.5309 C   0  0  0  0  0  0  0  0  0  0  0  0
  150.2232  140.8627  155.9781 N   0  0  0  0  0  0  0  0  0  0  0  0
  149.7900  140.3371  154.8185 C   0  0  0  0  0  0  0  0  0  0  0  0
  150.4762  139.5640  154.1490 O   0  0  0  0  0  0  0  0  0  0  0  0
  148.5555  140.7494  154.4385 N   0  0  0  0  0  0  0  0  0  0  0  0
  147.6049  140.0283  153.5812 C   0  0  0  0  0  0  0  0  0  0  0  0
  146.3791  139.6165  154.4226 C   0  0  1  0  0  0  0  0  0  0  0  0
  146.6691  138.4992  155.4402 C   0  0  0  0  0  0  0  0  0  0  0  0
  145.8204  140.7706  155.0589 O   0  0  0  0  0  0  0  0  0  0  0  0
  146.7308  141.5557  155.8341 C   0  0  2  0  0  0  0  0  0  0  0  0
  145.9673  142.7703  156.3730 C   0  0  0  0  0  0  0  0  0  0  0  0
  147.9319  141.9668  154.9601 C   0  0  0  0  0  0  0  0  0  0  0  0
  152.8218  138.9079  156.9511 H   0  0  0  0  0  0  0  0  0  0  0  0
  151.8534  138.7758  155.4888 H   0  0  0  0  0  0  0  0  0  0  0  0
  151.1050  138.5310  157.0659 H   0  0  0  0  0  0  0  0  0  0  0  0
  152.3044  141.1444  156.0434 H   0  0  0  0  0  0  0  0  0  0  0  0
  150.5766  140.9250  158.5401 H   0  0  0  0  0  0  0  0  0  0  0  0
  152.2888  140.5773  158.6355 H   0  0  0  0  0  0  0  0  0  0  0  0
  153.4433  142.5539  159.6311 H   0  0  0  0  0  0  0  0  0  0  0  0
  153.3117  145.2837  159.1823 H   0  0  0  0  0  0  0  0  0  0  0  0
  150.4313  143.4013  156.8297 H   0  0  0  0  0  0  0  0  0  0  0  0
  149.6017  141.4933  156.4630 H   0  0  0  0  0  0  0  0  0  0  0  0
  147.2892  140.6939  152.7764 H   0  0  0  0  0  0  0  0  0  0  0  0
  148.0260  139.1564  153.0810 H   0  0  0  0  0  0  0  0  0  0  0  0
  145.6155  139.2403  153.7413 H   0  0  0  0  0  0  0  0  0  0  0  0
  147.0195  137.5976  154.9371 H   0  0  0  0  0  0  0  0  0  0  0  0
  145.7689  138.2384  155.9969 H   0  0  0  0  0  0  0  0  0  0  0  0
  147.4327  138.7866  156.1611 H   0  0  0  0  0  0  0  0  0  0  0  0
  147.0823  140.9720  156.6856 H   0  0  0  0  0  0  0  0  0  0  0  0
  146.6144  143.4022  156.9817 H   0  0  0  0  0  0  0  0  0  0  0  0
  145.1281  142.4578  156.9948 H   0  0  0  0  0  0  0  0  0  0  0  0
  145.5714  143.3802  155.5606 H   0  0  0  0  0  0  0  0  0  0  0  0
  148.6222  142.5787  155.5423 H   0  0  0  0  0  0  0  0  0  0  0  0
  147.6036  142.5928  154.1289 H   0  0  0  0  0  0  0  0  0  0  0  0
  1  2  1  0  0  0  0
  1 20  1  0  0  0  0
  1 21  1  0  0  0  0
  1 22  1  0  0  0  0
  2  3  1  0  0  0  0
  2  9  1  0  0  0  0
  2 23  1  0  0  0  0
  3  4  1  0  0  0  0
  3 24  1  0  0  0  0
  3 25  1  0  0  0  0
  4  8  1  0  0  0  0
  4  5  1  0  0  0  0
  5  6  2  0  0  0  0
  5 26  1  0  0  0  0
  6  7  1  0  0  0  0
  6 27  1  0  0  0  0
  7  8  2  0  0  0  0
  8 28  1  0  0  0  0
  9 10  1  0  0  0  0
  9 29  1  0  0  0  0
 10 11  2  0  0  0  0
 10 12  1  0  0  0  0
 12 19  1  0  0  0  0
 12 13  1  0  0  0  0
 13 14  1  0  0  0  0
 13 30  1  0  0  0  0
 13 31  1  0  0  0  0
 14 15  1  0  0  0  0
 14 16  1  0  0  0  0
 14 32  1  0  0  0  0
 15 33  1  0  0  0  0
 15 34  1  0  0  0  0
 15 35  1  0  0  0  0
 16 17  1  0  0  0  0
 17 18  1  0  0  0  0
 17 19  1  0  0  0  0
 17 36  1  0  0  0  0
 18 37  1  0  0  0  0
 18 38  1  0  0  0  0
 18 39  1  0  0  0  0
 19 40  1  0  0  0  0
 19 41  1  0  0  0  0
M  END
> <s_m_source_file>
AV-unprocessed.smi

> <i_m_source_file_index>
1419

> <i_lp_mmshare_version>
43012

> <i_f3d_flags>
0

> <s_epik_input>
W2NIXTFuW2NIXVtjSF1uMVtDSDJdW0NAQEhdKFtDSDNdKVtOSF1DKD1PKU4yW0NIMl1bQ0BASF0oW0NIM10pT1tDQEBIXShbQ0gzXSlbQ0gyXTI=

> <s_epik_cmdline>
J2VwaWtfcHl0aG9uJywgJy1waCcsICc3LjAnLCAnLXRuJywgJzgnLCAnLW1hJywgJzIwMCcsICctbWV0YWxfYmluZGluZycsICctaW1hZScsICc8aW5maWxlLm1hZT4nLCAnLW9tYWUnLCAnPG91dGZpbGUubWFlPic=

> <r_lp_tautomer_probability>
1

> <r_epik_Ionization_Penalty>
0.625124

> <r_epik_Ionization_Penalty_Charging>
0.625093

> <r_epik_Ionization_Penalty_Neutral>
3.17415e-05

> <r_epik_State_Penalty>
0.641455

> <r_epik_Charging_Adjusted_Penalty>
1.26655

> <i_epik_Tot_Q>
0

> <i_epik_Tot_abs_Q>
0

> <r_epik_Metal_State_Penalty>
0.307717

> <b_epik_Metal_Only>
0

> <s_lp_Force_Field>
OPLS_2005

> <r_lp_Energy>
30.2714

> <b_lp_Chiralities_Consistent>
1

> <s_lp_Variant>
AV-unprocessed.smi:1419-11

> <Gold.Version>
5.8.1

> <Gold.Id.Protein>
6NUR|6NUR_protein|mol2

> <Gold.PLP.Fitness>
35.3755

> <Gold.PLP.PLP>
-31.2783

> <Gold.PLP.part.hbond>
-1.0000

> <Gold.PLP.part.metal>
0.0000

> <Gold.PLP.part.buried>
-0.6200

> <Gold.PLP.part.nonpolar>
-29.7508

> <Gold.PLP.part.repulsive>
0.7335

> <Gold.PLP.ligand.clash>
0.3756

> <Gold.PLP.ligand.torsion>
0.7721

> <Gold.PLP.Chemscore.Hbond>
1.0000

> <Gold.PLP.Chemscore.CHOScore>
1.0000

> <Gold.PLP.Chemscore.Metal>
0.0000

> <Gold.Chemscore.Hbonds>
donor molecule, donor type, donor heavy atom, donor atom, acceptor molecule, acceptor atom, score
      P1  H  7989  7998       L1    11  0.80
      L1  C     8    28       P1  8028  1.00

> <Gold.PLP.Chemscore.Internal.Correction>
0.0170

> <Gold.Rescore>
     Score         DG    S(hbond)    S(metal)    S(lipo)     H(rot)  DE(clash)    DE(int)     intcor
      9.62     -11.63       0.78        0.00      64.82       1.58       0.11       1.90       ----

> <Gold.Chemscore.Fitness>
9.6234

> <Gold.Chemscore.DG>
-11.6344

> <Gold.Chemscore.ZeroCoef>
-5.4800

> <Gold.Chemscore.Hbond>
0.7807

> <Gold.Chemscore.Metal>
0.0000

> <Gold.Chemscore.Lipo>
64.8183

> <Gold.Chemscore.Internal_Hbond>
0.0000

> <Gold.Chemscore.DEClash>
0.1097

> <Gold.Chemscore.DEInternal>
1.9012

> <Gold.Chemscore.Rot>
1.5769

> <Gold.Chemscore.Internal.Correction>
   9.000000E+99

> <Gold.Chemscore.Hbonds>
donor molecule, donor type, donor heavy atom, donor atom, acceptor molecule, acceptor atom, score
      P1  H  7989  7998       L1    11  0.12

> <Gold.Chemscore.Hbond.Weighted>
-2.6075

> <Gold.Chemscore.Metal.Weighted>
-0.0000

> <Gold.Chemscore.Lipo.Weighted>
-7.5837

> <Gold.Chemscore.Internal_Hbond.Weighted>
0.0000

> <Gold.Chemscore.DEClash.Weighted>
0.1097

> <Gold.Chemscore.DEInternal.Weighted>
1.9012

> <Gold.Chemscore.Rot.Weighted>
4.0369

> <Gold.Chemscore.Internal.Correction.Weighted>
   9.000000E+99

> <Gold.Protein.RotatedTorsions>
[ 6907 6896 6895 6894 ] final -144.24 input  -60.11 | X-H torsion
[ 7974 7965 7964 7962 ] final  179.41 input  175.53 | X-H torsion
[ 8008 7997 7996 7995 ] final -150.48 input   59.86 | X-H torsion
[ 10167 10162 10161 10158 ] final  -94.93 input  -65.29 | X-H torsion
[ 10718 10713 10712 10709 ] final -118.86 input   66.30 | X-H torsion
[ 10763 10752 10751 10750 ] final   25.18 input  -60.55 | X-H torsion
[ 11005 11000 10999 10996 ] final  178.09 input  -57.11 | X-H torsion

> <Gold.Protein.ActiveResidues>
 VAL166  LYS551  ARG553  GLY616  TRP617  ASP618  TYR619  PRO620  LYS621  CYS622 
 ASP623  PHE694  ASN695  SER759  ASP760  ASP761  ALA762  ILE779  LEU786  VAL792 
 PHE793  MET794  SER795  GLU796  ALA797  LYS798  CYS799  TRP800  GLU811  SER814 

> <Gold.Protein.RotatedAtoms>
  151.1114  133.5170  159.2605 H   0  0  0  0  0  0  0  0  0  0  0  0  # atno 6907 bound_to 6896
  151.1963  135.0423  159.8863 H   0  0  0  0  0  0  0  0  0  0  0  0  # atno 6908 bound_to 6896
  152.5450  134.0948  159.8346 H   0  0  0  0  0  0  0  0  0  0  0  0  # atno 6909 bound_to 6896
  144.7146  140.0544  143.6434 H   0  0  0  0  0  0  0  0  0  0  0  0  # atno 7974 bound_to 7965
  155.6242  140.0684  157.2668 H   0  0  0  0  0  0  0  0  0  0  0  0  # atno 8008 bound_to 7997
  154.4221  140.1779  156.1453 H   0  0  0  0  0  0  0  0  0  0  0  0  # atno 8009 bound_to 7997
  155.9985  140.3338  155.6825 H   0  0  0  0  0  0  0  0  0  0  0  0  # atno 8010 bound_to 7997
  140.3094  143.3114  152.0164 H   0  0  0  0  0  0  0  0  0  0  0  0  # atno 10167 bound_to 10162
  156.1137  130.6269  150.9343 H   0  0  0  0  0  0  0  0  0  0  0  0  # atno 10718 bound_to 10713
  153.0710  135.6589  154.0248 H   0  0  0  0  0  0  0  0  0  0  0  0  # atno 10763 bound_to 10752
  153.9893  135.2947  155.3415 H   0  0  0  0  0  0  0  0  0  0  0  0  # atno 10764 bound_to 10752
  154.7084  135.5215  153.8700 H   0  0  0  0  0  0  0  0  0  0  0  0  # atno 10765 bound_to 10752
  140.3913  134.6860  157.4509 H   0  0  0  0  0  0  0  0  0  0  0  0  # atno 11005 bound_to 11000
  145.9916  139.3020  143.0981 LP  0  0  0  0  0  0  0  0  0  0  0  0  # atno 17320 bound_to 7965
  145.8896  140.9312  143.0559 LP  0  0  0  0  0  0  0  0  0  0  0  0  # atno 17321 bound_to 7965
  139.4897  144.6396  151.6905 LP  0  0  0  0  0  0  0  0  0  0  0  0  # atno 17342 bound_to 10162
  140.5581  144.0314  150.6157 LP  0  0  0  0  0  0  0  0  0  0  0  0  # atno 17343 bound_to 10162
  157.6320  131.0920  150.8423 LP  0  0  0  0  0  0  0  0  0  0  0  0  # atno 17370 bound_to 10713
  156.8530  130.5087  149.5310 LP  0  0  0  0  0  0  0  0  0  0  0  0  # atno 17371 bound_to 10713
  140.0405  134.6275  155.8987 LP  0  0  0  0  0  0  0  0  0  0  0  0  # atno 17394 bound_to 11000
  141.1890  133.6564  156.5348 LP  0  0  0  0  0  0  0  0  0  0  0  0  # atno 17395 bound_to 11000

$$$$
