AV-unprocessed.smi:2148|AV-procd|sdf|8751|dock4
  -GOLD-   2272011523D 1   1.00000     0.00000
 Structure written by MMmdl.
 44 45  0  0  0  0  0  0  0  0  1 V2000
  145.1409  136.2818  151.6103 C   0  0  0  0  0  0  0  0  0  0  0  0
  144.9766  137.6066  152.8357 S   0  0  0  0  0  0  0  0  0  0  0  0
  146.6526  138.3073  152.7925 C   0  0  1  0  0  0  0  0  0  0  0  0
  146.8482  139.1602  151.5279 C   0  0  0  0  0  0  0  0  0  0  0  0
  146.9620  139.0847  154.0782 C   0  0  0  0  0  0  0  0  0  0  0  0
  146.0828  139.2516  154.9236 O   0  0  0  0  0  0  0  0  0  0  0  0
  148.2295  139.5222  154.1989 N   0  0  0  0  0  0  0  0  0  0  0  0
  148.8199  140.2711  155.2534 C   0  0  0  0  0  0  0  0  0  0  0  0
  148.1234  140.7348  156.3951 C   0  0  0  0  0  0  0  0  0  0  0  0
  148.8207  141.4875  157.3592 C   0  0  0  0  0  0  0  0  0  0  0  0
  150.1918  141.7607  157.1496 C   0  0  0  0  0  0  0  0  0  0  0  0
  150.9412  142.5066  158.0688 N   0  0  0  0  0  0  0  0  0  0  0  0
  151.5495  143.6959  157.4877 C   0  0  0  0  0  0  0  0  0  0  0  0
  152.2339  144.5460  158.5772 C   0  0  1  0  0  0  0  0  0  0  0  0
  151.2430  145.3178  159.4670 C   0  0  0  0  0  0  0  0  0  0  0  0
  153.1266  143.7336  159.3451 O   0  0  0  0  0  0  0  0  0  0  0  0
  152.5285  142.5798  159.9375 C   0  0  2  0  0  0  0  0  0  0  0  0
  153.6152  141.8211  160.7057 C   0  0  0  0  0  0  0  0  0  0  0  0
  151.8899  141.7133  158.8372 C   0  0  0  0  0  0  0  0  0  0  0  0
  150.8595  141.3279  156.0587 N   0  0  0  0  0  0  0  0  0  0  0  0
  150.1845  140.6081  155.1378 C   0  0  0  0  0  0  0  0  0  0  0  0
  144.1986  135.7429  151.5113 H   0  0  0  0  0  0  0  0  0  0  0  0
  145.9132  135.5747  151.9138 H   0  0  0  0  0  0  0  0  0  0  0  0
  145.4069  136.6945  150.6370 H   0  0  0  0  0  0  0  0  0  0  0  0
  147.3621  137.4805  152.7351 H   0  0  0  0  0  0  0  0  0  0  0  0
  147.8451  139.6014  151.4962 H   0  0  0  0  0  0  0  0  0  0  0  0
  146.1211  139.9713  151.4735 H   0  0  0  0  0  0  0  0  0  0  0  0
  146.7306  138.5534  150.6297 H   0  0  0  0  0  0  0  0  0  0  0  0
  148.8625  139.2388  153.4652 H   0  0  0  0  0  0  0  0  0  0  0  0
  147.0727  140.5452  156.5468 H   0  0  0  0  0  0  0  0  0  0  0  0
  148.3069  141.8484  158.2379 H   0  0  0  0  0  0  0  0  0  0  0  0
  152.2902  143.3923  156.7467 H   0  0  0  0  0  0  0  0  0  0  0  0
  150.7966  144.2850  156.9623 H   0  0  0  0  0  0  0  0  0  0  0  0
  152.8540  145.2903  158.0770 H   0  0  0  0  0  0  0  0  0  0  0  0
  150.6640  146.0259  158.8741 H   0  0  0  0  0  0  0  0  0  0  0  0
  151.7692  145.8837  160.2359 H   0  0  0  0  0  0  0  0  0  0  0  0
  150.5325  144.6576  159.9641 H   0  0  0  0  0  0  0  0  0  0  0  0
  151.7638  142.8877  160.6508 H   0  0  0  0  0  0  0  0  0  0  0  0
  153.2046  140.9367  161.1932 H   0  0  0  0  0  0  0  0  0  0  0  0
  154.0578  142.4510  161.4776 H   0  0  0  0  0  0  0  0  0  0  0  0
  154.4159  141.4962  160.0406 H   0  0  0  0  0  0  0  0  0  0  0  0
  151.3792  140.8581  159.2816 H   0  0  0  0  0  0  0  0  0  0  0  0
  152.6644  141.3206  158.1770 H   0  0  0  0  0  0  0  0  0  0  0  0
  150.7564  140.2892  154.2786 H   0  0  0  0  0  0  0  0  0  0  0  0
  1  2  1  0  0  0  0
  1 22  1  0  0  0  0
  1 23  1  0  0  0  0
  1 24  1  0  0  0  0
  2  3  1  0  0  0  0
  3  4  1  0  0  0  0
  3  5  1  0  0  0  0
  3 25  1  0  0  0  0
  4 26  1  0  0  0  0
  4 27  1  0  0  0  0
  4 28  1  0  0  0  0
  5  6  2  0  0  0  0
  5  7  1  0  0  0  0
  7  8  1  0  0  0  0
  7 29  1  0  0  0  0
  8 21  1  0  0  0  0
  8  9  2  0  0  0  0
  9 10  1  0  0  0  0
  9 30  1  0  0  0  0
 10 11  2  0  0  0  0
 10 31  1  0  0  0  0
 11 12  1  0  0  0  0
 11 20  1  0  0  0  0
 12 19  1  0  0  0  0
 12 13  1  0  0  0  0
 13 14  1  0  0  0  0
 13 32  1  0  0  0  0
 13 33  1  0  0  0  0
 14 15  1  0  0  0  0
 14 16  1  0  0  0  0
 14 34  1  0  0  0  0
 15 35  1  0  0  0  0
 15 36  1  0  0  0  0
 15 37  1  0  0  0  0
 16 17  1  0  0  0  0
 17 18  1  0  0  0  0
 17 19  1  0  0  0  0
 17 38  1  0  0  0  0
 18 39  1  0  0  0  0
 18 40  1  0  0  0  0
 18 41  1  0  0  0  0
 19 42  1  0  0  0  0
 19 43  1  0  0  0  0
 20 21  2  0  0  0  0
 21 44  1  0  0  0  0
M  END
> <s_m_source_file>
AV-unprocessed.smi

> <i_m_source_file_index>
2148

> <i_lp_mmshare_version>
43012

> <i_f3d_flags>
0

> <s_epik_input>
W0NIM11TW0NASF0oW0NIM10pQyg9TylbTkhdYzFbY0hdW2NIXWMobltjSF0xKU4yW0NIMl1bQ0BASF0oW0NIM10pT1tDQEBIXShbQ0gzXSlbQ0gyXTI=

> <s_epik_cmdline>
J2VwaWtfcHl0aG9uJywgJy1waCcsICc3LjAnLCAnLXRuJywgJzgnLCAnLW1hJywgJzIwMCcsICctbWV0YWxfYmluZGluZycsICctaW1hZScsICc8aW5maWxlLm1hZT4nLCAnLW9tYWUnLCAnPG91dGZpbGUubWFlPic=

> <r_lp_tautomer_probability>
1

> <r_epik_Ionization_Penalty>
0.000646494

> <r_epik_Ionization_Penalty_Charging>
0

> <r_epik_Ionization_Penalty_Neutral>
0.000646494

> <r_epik_State_Penalty>
0.000408447

> <r_epik_Charging_Adjusted_Penalty>
0.000408447

> <i_epik_Tot_Q>
0

> <i_epik_Tot_abs_Q>
0

> <r_epik_Metal_State_Penalty>
-0

> <b_epik_Metal_Only>
0

> <s_lp_Force_Field>
OPLS_2005

> <r_lp_Energy>
28.0468

> <b_lp_Chiralities_Consistent>
1

> <s_lp_Variant>
AV-unprocessed.smi:2148-6

> <Gold.Version>
5.8.1

> <Gold.Id.Protein>
6NUR|6NUR_protein|mol2

> <Gold.PLP.Fitness>
39.5721

> <Gold.PLP.PLP>
-40.1288

> <Gold.PLP.part.hbond>
0.0000

> <Gold.PLP.part.metal>
0.0000

> <Gold.PLP.part.buried>
-2.2685

> <Gold.PLP.part.nonpolar>
-38.5315

> <Gold.PLP.part.repulsive>
0.2313

> <Gold.PLP.ligand.clash>
0.0000

> <Gold.PLP.ligand.torsion>
0.3501

> <Gold.PLP.Chemscore.Hbond>
0.0000

> <Gold.PLP.Chemscore.CHOScore>
0.0000

> <Gold.PLP.Chemscore.Metal>
0.0000

> <Gold.PLP.Chemscore.Internal.Correction>
0.1434

> <Gold.Rescore>
     Score         DG    S(hbond)    S(metal)    S(lipo)     H(rot)  DE(clash)    DE(int)     intcor
     13.66     -15.23       0.00        0.00     111.07       1.27       0.09       1.49       ----

> <Gold.Chemscore.Fitness>
13.6612

> <Gold.Chemscore.DG>
-15.2343

> <Gold.Chemscore.ZeroCoef>
-5.4800

> <Gold.Chemscore.Hbond>
0.0000

> <Gold.Chemscore.Metal>
0.0000

> <Gold.Chemscore.Lipo>
111.0675

> <Gold.Chemscore.Internal_Hbond>
0.0000

> <Gold.Chemscore.DEClash>
0.0880

> <Gold.Chemscore.DEInternal>
1.4852

> <Gold.Chemscore.Rot>
1.2659

> <Gold.Chemscore.Internal.Correction>
   9.000000E+99

> <Gold.Chemscore.Hbond.Weighted>
-0.0000

> <Gold.Chemscore.Metal.Weighted>
-0.0000

> <Gold.Chemscore.Lipo.Weighted>
-12.9949

> <Gold.Chemscore.Internal_Hbond.Weighted>
0.0000

> <Gold.Chemscore.DEClash.Weighted>
0.0880

> <Gold.Chemscore.DEInternal.Weighted>
1.4852

> <Gold.Chemscore.Rot.Weighted>
3.2406

> <Gold.Chemscore.Internal.Correction.Weighted>
   9.000000E+99

> <Gold.Protein.RotatedTorsions>
[ 6907 6896 6895 6894 ] final  149.35 input  -60.11 | X-H torsion
[ 7974 7965 7964 7962 ] final  117.19 input  175.53 | X-H torsion
[ 8008 7997 7996 7995 ] final  -51.05 input   59.86 | X-H torsion
[ 10167 10162 10161 10158 ] final -110.28 input  -65.29 | X-H torsion
[ 10718 10713 10712 10709 ] final   81.33 input   66.30 | X-H torsion
[ 10763 10752 10751 10750 ] final   -6.17 input  -60.55 | X-H torsion
[ 11005 11000 10999 10996 ] final  -47.20 input  -57.11 | X-H torsion

> <Gold.Protein.ActiveResidues>
 VAL166  LYS551  ARG553  GLY616  TRP617  ASP618  TYR619  PRO620  LYS621  CYS622 
 ASP623  PHE694  ASN695  SER759  ASP760  ASP761  ALA762  ILE779  LEU786  VAL792 
 PHE793  MET794  SER795  GLU796  ALA797  LYS798  CYS799  TRP800  GLU811  SER814 

> <Gold.Protein.RotatedAtoms>
  152.1293  133.4398  159.4712 H   0  0  0  0  0  0  0  0  0  0  0  0  # atno 6907 bound_to 6896
  150.6877  134.2440  159.4493 H   0  0  0  0  0  0  0  0  0  0  0  0  # atno 6908 bound_to 6896
  152.0323  134.9760  160.0623 H   0  0  0  0  0  0  0  0  0  0  0  0  # atno 6909 bound_to 6896
  145.1703  139.3105  143.4471 H   0  0  0  0  0  0  0  0  0  0  0  0  # atno 7974 bound_to 7965
  154.4074  140.1257  156.4766 H   0  0  0  0  0  0  0  0  0  0  0  0  # atno 8008 bound_to 7997
  155.7126  140.3493  155.4961 H   0  0  0  0  0  0  0  0  0  0  0  0  # atno 8009 bound_to 7997
  155.9286  140.1065  157.1140 H   0  0  0  0  0  0  0  0  0  0  0  0  # atno 8010 bound_to 7997
  140.1462  143.4237  152.1527 H   0  0  0  0  0  0  0  0  0  0  0  0  # atno 10167 bound_to 10162
  157.6830  130.9999  150.2210 H   0  0  0  0  0  0  0  0  0  0  0  0  # atno 10718 bound_to 10713
  153.4087  135.7007  153.6375 H   0  0  0  0  0  0  0  0  0  0  0  0  # atno 10763 bound_to 10752
  153.4878  135.3679  155.2476 H   0  0  0  0  0  0  0  0  0  0  0  0  # atno 10764 bound_to 10752
  154.8715  135.4081  154.3435 H   0  0  0  0  0  0  0  0  0  0  0  0  # atno 10765 bound_to 10752
  141.0626  133.6704  156.3264 H   0  0  0  0  0  0  0  0  0  0  0  0  # atno 11005 bound_to 11000
  146.3469  140.1847  142.8589 LP  0  0  0  0  0  0  0  0  0  0  0  0  # atno 17320 bound_to 7965
  145.0239  140.8816  143.5150 LP  0  0  0  0  0  0  0  0  0  0  0  0  # atno 17321 bound_to 7965
  139.5448  144.7289  151.4619 LP  0  0  0  0  0  0  0  0  0  0  0  0  # atno 17342 bound_to 10162
  140.6730  143.8251  150.7023 LP  0  0  0  0  0  0  0  0  0  0  0  0  # atno 17343 bound_to 10162
  156.2862  130.3739  149.7886 LP  0  0  0  0  0  0  0  0  0  0  0  0  # atno 17370 bound_to 10713
  156.5560  130.8362  151.3314 LP  0  0  0  0  0  0  0  0  0  0  0  0  # atno 17371 bound_to 10713
  140.5838  134.5719  157.5485 LP  0  0  0  0  0  0  0  0  0  0  0  0  # atno 17394 bound_to 11000
  139.9447  134.7724  156.0592 LP  0  0  0  0  0  0  0  0  0  0  0  0  # atno 17395 bound_to 11000

$$$$
