AV-unprocessed.smi:2441|AV-procd|sdf|9621|dock3
  -GOLD-   2272013253D 1   1.00000     0.00000
 Structure written by MMmdl.
 40 41  0  0  0  0  0  0  0  0  1 V2000
  153.5980  140.7444  160.0923 C   0  0  0  0  0  0  0  0  0  0  0  0
  153.3194  142.2540  160.1936 C   0  0  2  0  0  0  0  0  0  0  0  0
  152.4682  142.5925  161.4351 C   0  0  0  0  0  0  0  0  0  0  0  0
  152.2328  144.1060  161.5651 C   0  0  0  0  0  0  0  0  0  0  0  0
  151.5984  144.6870  160.2926 C   0  0  0  0  0  0  0  0  0  0  0  0
  152.4399  144.3547  159.0481 C   0  0  0  0  0  0  0  0  0  0  0  0
  152.6940  142.8406  158.9025 C   0  0  2  0  0  0  0  0  0  0  0  0
  151.4472  142.1582  158.5488 N   0  0  0  0  0  0  0  0  0  0  0  0
  150.7282  142.3457  157.4325 C   0  0  0  0  0  0  0  0  0  0  0  0
  151.0482  143.1324  156.5419 O   0  0  0  0  0  0  0  0  0  0  0  0
  149.6247  141.5752  157.4446 N   0  0  0  0  0  0  0  0  0  0  0  0
  148.6112  141.4478  156.4785 C   0  0  0  0  0  0  0  0  0  0  0  0
  148.8195  141.4425  155.1376 C   0  0  0  0  0  0  0  0  0  0  0  0
  147.7178  141.2989  154.2170 C   0  0  0  0  0  0  0  0  0  0  0  0
  146.4834  141.1593  154.7192 C   0  0  0  0  0  0  0  0  0  0  0  0
  146.2436  141.1487  156.1026 N   0  0  0  0  0  0  0  0  0  0  0  0
  144.8432  140.9878  156.5049 C   0  0  0  0  0  0  0  0  0  0  0  0
  147.2475  141.2864  157.0216 C   0  0  0  0  0  0  0  0  0  0  0  0
  147.0180  141.2768  158.2333 O   0  0  0  0  0  0  0  0  0  0  0  0
  152.6764  140.1667  160.0175 H   0  0  0  0  0  0  0  0  0  0  0  0
  154.1392  140.3874  160.9687 H   0  0  0  0  0  0  0  0  0  0  0  0
  154.2059  140.5165  159.2164 H   0  0  0  0  0  0  0  0  0  0  0  0
  154.2874  142.7401  160.3265 H   0  0  0  0  0  0  0  0  0  0  0  0
  151.5087  142.0764  161.3817 H   0  0  0  0  0  0  0  0  0  0  0  0
  152.9626  142.2252  162.3352 H   0  0  0  0  0  0  0  0  0  0  0  0
  151.5936  144.3099  162.4246 H   0  0  0  0  0  0  0  0  0  0  0  0
  153.1821  144.6068  161.7596 H   0  0  0  0  0  0  0  0  0  0  0  0
  150.5883  144.2933  160.1732 H   0  0  0  0  0  0  0  0  0  0  0  0
  151.4956  145.7680  160.3909 H   0  0  0  0  0  0  0  0  0  0  0  0
  151.9531  144.7436  158.1527 H   0  0  0  0  0  0  0  0  0  0  0  0
  153.3976  144.8719  159.1196 H   0  0  0  0  0  0  0  0  0  0  0  0
  153.4178  142.7126  158.0958 H   0  0  0  0  0  0  0  0  0  0  0  0
  151.1012  141.4892  159.2207 H   0  0  0  0  0  0  0  0  0  0  0  0
  149.4719  141.0304  158.2810 H   0  0  0  0  0  0  0  0  0  0  0  0
  149.8059  141.5294  154.7127 H   0  0  0  0  0  0  0  0  0  0  0  0
  147.8842  141.3049  153.1499 H   0  0  0  0  0  0  0  0  0  0  0  0
  145.6030  141.0475  154.1022 H   0  0  0  0  0  0  0  0  0  0  0  0
  144.6935  140.8897  157.5806 H   0  0  0  0  0  0  0  0  0  0  0  0
  144.4204  140.0956  156.0412 H   0  0  0  0  0  0  0  0  0  0  0  0
  144.2598  141.8465  156.1710 H   0  0  0  0  0  0  0  0  0  0  0  0
  1  2  1  0  0  0  0
  1 20  1  0  0  0  0
  1 21  1  0  0  0  0
  1 22  1  0  0  0  0
  2  7  1  0  0  0  0
  2  3  1  0  0  0  0
  2 23  1  0  0  0  0
  3  4  1  0  0  0  0
  3 24  1  0  0  0  0
  3 25  1  0  0  0  0
  4  5  1  0  0  0  0
  4 26  1  0  0  0  0
  4 27  1  0  0  0  0
  5  6  1  0  0  0  0
  5 28  1  0  0  0  0
  5 29  1  0  0  0  0
  6  7  1  0  0  0  0
  6 30  1  0  0  0  0
  6 31  1  0  0  0  0
  7  8  1  0  0  0  0
  7 32  1  0  0  0  0
  8  9  1  0  0  0  0
  8 33  1  0  0  0  0
  9 10  2  0  0  0  0
  9 11  1  0  0  0  0
 11 12  1  0  0  0  0
 11 34  1  0  0  0  0
 12 18  1  0  0  0  0
 12 13  2  0  0  0  0
 13 14  1  0  0  0  0
 13 35  1  0  0  0  0
 14 15  2  0  0  0  0
 14 36  1  0  0  0  0
 15 16  1  0  0  0  0
 15 37  1  0  0  0  0
 16 17  1  0  0  0  0
 16 18  1  0  0  0  0
 17 38  1  0  0  0  0
 17 39  1  0  0  0  0
 17 40  1  0  0  0  0
 18 19  2  0  0  0  0
M  END
> <s_m_source_file>
AV-unprocessed.smi

> <i_m_source_file_index>
2441

> <i_lp_mmshare_version>
43012

> <i_f3d_flags>
0

> <s_epik_input>
W0NIM11bQ0BASF0xW0NIMl1bQ0gyXVtDSDJdW0NIMl1bQ0BIXTFbTkhdQyg9TylbTkhdYzJbY0hdW2NIXVtjSF1uKFtDSDNdKWMyPU8=

> <s_epik_cmdline>
J2VwaWtfcHl0aG9uJywgJy1waCcsICc3LjAnLCAnLXRuJywgJzgnLCAnLW1hJywgJzIwMCcsICctbWV0YWxfYmluZGluZycsICctaW1hZScsICc8aW5maWxlLm1hZT4nLCAnLW9tYWUnLCAnPG91dGZpbGUubWFlPic=

> <r_lp_tautomer_probability>
1

> <r_epik_Ionization_Penalty>
2.64999e-05

> <r_epik_Ionization_Penalty_Charging>
5.09663e-06

> <r_epik_Ionization_Penalty_Neutral>
2.14032e-05

> <r_epik_State_Penalty>
-0

> <r_epik_Charging_Adjusted_Penalty>
5.09663e-06

> <i_epik_Tot_Q>
0

> <i_epik_Tot_abs_Q>
0

> <r_epik_Metal_State_Penalty>
-0

> <b_epik_Metal_Only>
0

> <s_lp_Force_Field>
OPLS_2005

> <r_lp_Energy>
23.2252

> <b_lp_Chiralities_Consistent>
1

> <s_lp_Variant>
AV-unprocessed.smi:2441-3

> <Gold.Version>
5.8.1

> <Gold.Id.Protein>
6NUR|6NUR_protein|mol2

> <Gold.PLP.Fitness>
40.5084

> <Gold.PLP.PLP>
-38.4129

> <Gold.PLP.part.hbond>
-0.9119

> <Gold.PLP.part.metal>
0.0000

> <Gold.PLP.part.buried>
-6.2149

> <Gold.PLP.part.nonpolar>
-34.5465

> <Gold.PLP.part.repulsive>
2.2716

> <Gold.PLP.ligand.clash>
0.0000

> <Gold.PLP.ligand.torsion>
0.3088

> <Gold.PLP.Chemscore.Hbond>
0.0000

> <Gold.PLP.Chemscore.CHOScore>
0.9020

> <Gold.PLP.Chemscore.Metal>
0.0000

> <Gold.Chemscore.Hbonds>
donor molecule, donor type, donor heavy atom, donor atom, acceptor molecule, acceptor atom, score
      L1  C    15    37       P1 10175  0.90

> <Gold.PLP.Chemscore.Internal.Correction>
0.0072

> <Gold.Rescore>
     Score         DG    S(hbond)    S(metal)    S(lipo)     H(rot)  DE(clash)    DE(int)     intcor
     15.94     -16.30       0.58        0.00      97.86       1.00       0.00       0.36       ----

> <Gold.Chemscore.Fitness>
15.9363

> <Gold.Chemscore.DG>
-16.3021

> <Gold.Chemscore.ZeroCoef>
-5.4800

> <Gold.Chemscore.Hbond>
0.5786

> <Gold.Chemscore.Metal>
0.0000

> <Gold.Chemscore.Lipo>
97.8606

> <Gold.Chemscore.Internal_Hbond>
0.0000

> <Gold.Chemscore.DEClash>
0.0034

> <Gold.Chemscore.DEInternal>
0.3625

> <Gold.Chemscore.Rot>
1.0000

> <Gold.Chemscore.Internal.Correction>
   9.000000E+99

> <Gold.Chemscore.Hbonds>
donor molecule, donor type, donor heavy atom, donor atom, acceptor molecule, acceptor atom, score
      P1  H  6934  6946       L1    19  0.01

> <Gold.Chemscore.Hbond.Weighted>
-1.9324

> <Gold.Chemscore.Metal.Weighted>
-0.0000

> <Gold.Chemscore.Lipo.Weighted>
-11.4497

> <Gold.Chemscore.Internal_Hbond.Weighted>
0.0000

> <Gold.Chemscore.DEClash.Weighted>
0.0034

> <Gold.Chemscore.DEInternal.Weighted>
0.3625

> <Gold.Chemscore.Rot.Weighted>
2.5600

> <Gold.Chemscore.Internal.Correction.Weighted>
   9.000000E+99

> <Gold.Protein.RotatedTorsions>
[ 6907 6896 6895 6894 ] final  -83.78 input  -60.11 | X-H torsion
[ 7974 7965 7964 7962 ] final   38.06 input  175.53 | X-H torsion
[ 8008 7997 7996 7995 ] final  -85.78 input   59.86 | X-H torsion
[ 10167 10162 10161 10158 ] final   95.85 input  -65.29 | X-H torsion
[ 10718 10713 10712 10709 ] final -102.50 input   66.30 | X-H torsion
[ 10763 10752 10751 10750 ] final  134.58 input  -60.55 | X-H torsion
[ 11005 11000 10999 10996 ] final  -40.37 input  -57.11 | X-H torsion

> <Gold.Protein.ActiveResidues>
 VAL166  LYS551  ARG553  GLY616  TRP617  ASP618  TYR619  PRO620  LYS621  CYS622 
 ASP623  PHE694  ASN695  SER759  ASP760  ASP761  ALA762  ILE779  LEU786  VAL792 
 PHE793  MET794  SER795  GLU796  ALA797  LYS798  CYS799  TRP800  GLU811  SER814 

> <Gold.Protein.RotatedAtoms>
  150.6882  134.3459  159.4887 H   0  0  0  0  0  0  0  0  0  0  0  0  # atno 6907 bound_to 6896
  152.1306  134.9135  160.0568 H   0  0  0  0  0  0  0  0  0  0  0  0  # atno 6908 bound_to 6896
  152.0306  133.3901  159.4333 H   0  0  0  0  0  0  0  0  0  0  0  0  # atno 6909 bound_to 6896
  146.1090  139.5817  142.9364 H   0  0  0  0  0  0  0  0  0  0  0  0  # atno 7974 bound_to 7965
  154.6446  140.0587  156.9885 H   0  0  0  0  0  0  0  0  0  0  0  0  # atno 8008 bound_to 7997
  155.1465  140.3270  155.4422 H   0  0  0  0  0  0  0  0  0  0  0  0  # atno 8009 bound_to 7997
  156.2547  140.1955  156.6578 H   0  0  0  0  0  0  0  0  0  0  0  0  # atno 8010 bound_to 7997
  139.7950  144.6837  150.9841 H   0  0  0  0  0  0  0  0  0  0  0  0  # atno 10167 bound_to 10162
  156.0231  130.5423  150.7118 H   0  0  0  0  0  0  0  0  0  0  0  0  # atno 10718 bound_to 10713
  153.8260  135.3110  155.3414 H   0  0  0  0  0  0  0  0  0  0  0  0  # atno 10763 bound_to 10752
  154.7993  135.4736  154.0240 H   0  0  0  0  0  0  0  0  0  0  0  0  # atno 10764 bound_to 10752
  153.1664  135.6870  153.8760 H   0  0  0  0  0  0  0  0  0  0  0  0  # atno 10765 bound_to 10752
  141.0170  133.6881  156.2313 H   0  0  0  0  0  0  0  0  0  0  0  0  # atno 11005 bound_to 11000
  145.5702  141.0395  143.2178 LP  0  0  0  0  0  0  0  0  0  0  0  0  # atno 17320 bound_to 7965
  144.7495  139.7230  143.7279 LP  0  0  0  0  0  0  0  0  0  0  0  0  # atno 17321 bound_to 7965
  140.7820  143.4341  151.0650 LP  0  0  0  0  0  0  0  0  0  0  0  0  # atno 17342 bound_to 10162
  139.8016  143.8076  152.3163 LP  0  0  0  0  0  0  0  0  0  0  0  0  # atno 17343 bound_to 10162
  157.4754  131.0897  151.0596 LP  0  0  0  0  0  0  0  0  0  0  0  0  # atno 17370 bound_to 10713
  157.1044  130.5995  149.5467 LP  0  0  0  0  0  0  0  0  0  0  0  0  # atno 17371 bound_to 10713
  140.6638  134.4940  157.5584 LP  0  0  0  0  0  0  0  0  0  0  0  0  # atno 17394 bound_to 11000
  139.9123  134.8319  156.1486 LP  0  0  0  0  0  0  0  0  0  0  0  0  # atno 17395 bound_to 11000

$$$$
