AV-unprocessed.smi:705|AV-procd|sdf|3451|dock2
  -GOLD-   22720 0433D 1   1.00000     0.00000
 Structure written by MMmdl.
 28 29  0  0  0  0  0  0  0  0  3 V2000
  150.1076  137.8632  154.0168 N   0  0  0  0  0  0  0  0  0  0  0  0
  150.9319  137.3806  154.9498 C   0  0  0  0  0  0  0  0  0  0  0  0
  151.2401  136.1922  155.0222 O   0  0  0  0  0  0  0  0  0  0  0  0
  151.4692  138.3916  155.9180 C   0  0  0  0  0  0  0  0  0  0  0  0
  150.6992  139.4525  156.4589 C   0  0  0  0  0  0  0  0  0  0  0  0
  151.7202  140.0591  157.2790 C   0  0  0  0  0  0  0  0  0  0  0  0
  151.3462  141.2953  158.0739 C   0  0  1  0  0  0  0  0  0  0  0  0
  152.5591  141.8788  158.8216 C   0  0  0  0  0  0  0  0  0  0  0  0
  152.1599  143.1539  159.5800 C   0  0  0  0  0  0  0  0  0  0  0  0
  151.4966  144.1701  158.6352 C   0  0  0  0  0  0  0  0  0  0  0  0
  150.3356  143.5650  157.9468 N   0  3  0  0  0  0  0  0  0  0  0  0
  150.6908  142.3574  157.1705 C   0  0  0  0  0  0  0  0  0  0  0  0
  152.9010  139.4164  157.2064 N   0  0  0  0  0  0  0  0  0  0  0  0
  152.7363  138.4045  156.3725 N   0  5  0  0  0  0  0  0  0  0  0  0
  149.7013  137.2498  153.3270 H   0  0  0  0  0  0  0  0  0  0  0  0
  149.9009  138.8524  154.0185 H   0  0  0  0  0  0  0  0  0  0  0  0
  149.6627  139.7231  156.2995 H   0  0  0  0  0  0  0  0  0  0  0  0
  150.6096  140.9972  158.8221 H   0  0  0  0  0  0  0  0  0  0  0  0
  152.9669  141.1426  159.5152 H   0  0  0  0  0  0  0  0  0  0  0  0
  153.3544  142.1127  158.1122 H   0  0  0  0  0  0  0  0  0  0  0  0
  151.4717  142.8990  160.3872 H   0  0  0  0  0  0  0  0  0  0  0  0
  153.0376  143.5983  160.0503 H   0  0  0  0  0  0  0  0  0  0  0  0
  151.1637  145.0451  159.1939 H   0  0  0  0  0  0  0  0  0  0  0  0
  152.2130  144.5201  157.8905 H   0  0  0  0  0  0  0  0  0  0  0  0
  149.6478  143.3078  158.6402 H   0  0  0  0  0  0  0  0  0  0  0  0
  151.3658  142.6414  156.3616 H   0  0  0  0  0  0  0  0  0  0  0  0
  149.7886  141.9575  156.7065 H   0  0  0  0  0  0  0  0  0  0  0  0
  149.9307  144.2472  157.3217 H   0  0  0  0  0  0  0  0  0  0  0  0
  1  2  1  0  0  0  0
  1 15  1  0  0  0  0
  1 16  1  0  0  0  0
  2  3  2  0  0  0  0
  2  4  1  0  0  0  0
  4 14  1  0  0  0  0
  4  5  2  0  0  0  0
  5  6  1  0  0  0  0
  5 17  1  0  0  0  0
  6  7  1  0  0  0  0
  6 13  2  0  0  0  0
  7 12  1  0  0  0  0
  7  8  1  0  0  0  0
  7 18  1  0  0  0  0
  8  9  1  0  0  0  0
  8 19  1  0  0  0  0
  8 20  1  0  0  0  0
  9 10  1  0  0  0  0
  9 21  1  0  0  0  0
  9 22  1  0  0  0  0
 10 11  1  0  0  0  0
 10 23  1  0  0  0  0
 10 24  1  0  0  0  0
 11 12  1  0  0  0  0
 11 25  1  0  0  0  0
 11 28  1  0  0  0  0
 12 26  1  0  0  0  0
 12 27  1  0  0  0  0
 13 14  1  0  0  0  0
M  CHG  1  11   1
M  CHG  1  14  -1
M  END
> <s_m_source_file>
AV-unprocessed.smi

> <i_m_source_file_index>
705

> <i_lp_mmshare_version>
43012

> <i_f3d_flags>
0

> <s_epik_input>
W05IMl1DKD1PKWMxW2NIXWMoW25IXW4xKVtDQEBIXTJbQ0gyXVtDSDJdW0NIMl1bTkhdW0NIMl0y

> <s_epik_cmdline>
J2VwaWtfcHl0aG9uJywgJy1waCcsICc3LjAnLCAnLXRuJywgJzgnLCAnLW1hJywgJzIwMCcsICctbWV0YWxfYmluZGluZycsICctaW1hZScsICc8aW5maWxlLm1hZT4nLCAnLW9tYWUnLCAnPG91dGZpbGUubWFlPic=

> <r_lp_tautomer_probability>
0.5

> <r_epik_Ionization_Penalty>
8.1602

> <r_epik_Ionization_Penalty_Charging>
5.25561

> <r_epik_Ionization_Penalty_Neutral>
2.90459

> <r_epik_State_Penalty>
5.66605

> <r_epik_Charging_Adjusted_Penalty>
10.9217

> <i_epik_Tot_Q>
0

> <i_epik_Tot_abs_Q>
2

> <r_epik_Metal_State_Penalty>
1.68656

> <b_epik_Metal_Only>
1

> <s_lp_Force_Field>
OPLS_2005

> <r_lp_Energy>
5.1844

> <b_lp_Chiralities_Consistent>
1

> <s_lp_Variant>
AV-unprocessed.smi:705-6

> <Gold.Version>
5.8.1

> <Gold.Id.Protein>
6NUR|6NUR_protein|mol2

> <Gold.PLP.Fitness>
40.6453

> <Gold.PLP.PLP>
-27.0822

> <Gold.PLP.part.hbond>
-6.1352

> <Gold.PLP.part.metal>
0.0000

> <Gold.PLP.part.buried>
-3.9248

> <Gold.PLP.part.nonpolar>
-19.6123

> <Gold.PLP.part.repulsive>
1.2842

> <Gold.PLP.ligand.clash>
0.0000

> <Gold.PLP.ligand.torsion>
0.6919

> <Gold.PLP.Chemscore.Hbond>
4.9753

> <Gold.PLP.Chemscore.CHOScore>
0.0000

> <Gold.PLP.Chemscore.Metal>
0.0000

> <Gold.Chemscore.Hbonds>
donor molecule, donor type, donor heavy atom, donor atom, acceptor molecule, acceptor atom, score
      L1  H     1    15       P1  7948  1.00
      L1  H    11    28       P1  8028  2.00
      P1  H  7997  8009       L1    13  0.85
      P1  H 10752 10763       L1     3  1.00

> <Gold.PLP.Chemscore.Internal.Correction>
0.0211

> <Gold.Rescore>
     Score         DG    S(hbond)    S(metal)    S(lipo)     H(rot)  DE(clash)    DE(int)     intcor
     22.36     -22.95       3.73        0.00      64.64       1.00       0.17       0.43       ----

> <Gold.Chemscore.Fitness>
22.3597

> <Gold.Chemscore.DG>
-22.9543

> <Gold.Chemscore.ZeroCoef>
-5.4800

> <Gold.Chemscore.Hbond>
3.7338

> <Gold.Chemscore.Metal>
0.0000

> <Gold.Chemscore.Lipo>
64.6437

> <Gold.Chemscore.Internal_Hbond>
0.0000

> <Gold.Chemscore.DEClash>
0.1670

> <Gold.Chemscore.DEInternal>
0.4277

> <Gold.Chemscore.Rot>
1.0000

> <Gold.Chemscore.Internal.Correction>
   9.000000E+99

> <Gold.Chemscore.Hbonds>
donor molecule, donor type, donor heavy atom, donor atom, acceptor molecule, acceptor atom, score
      L1  H     1    15       P1  7948  0.65
      L1  H    11    28       P1  8028  0.47
      P1  H  7997  8009       L1    13  0.14
      P1  H 10752 10763       L1     3  0.98

> <Gold.Chemscore.Hbond.Weighted>
-12.4710

> <Gold.Chemscore.Metal.Weighted>
-0.0000

> <Gold.Chemscore.Lipo.Weighted>
-7.5633

> <Gold.Chemscore.Internal_Hbond.Weighted>
0.0000

> <Gold.Chemscore.DEClash.Weighted>
0.1670

> <Gold.Chemscore.DEInternal.Weighted>
0.4277

> <Gold.Chemscore.Rot.Weighted>
2.5600

> <Gold.Chemscore.Internal.Correction.Weighted>
   9.000000E+99

> <Gold.Protein.RotatedTorsions>
[ 6907 6896 6895 6894 ] final  178.45 input  -60.11 | X-H torsion
[ 7974 7965 7964 7962 ] final    9.45 input  175.53 | X-H torsion
[ 8008 7997 7996 7995 ] final -164.86 input   59.86 | X-H torsion
[ 10167 10162 10161 10158 ] final   29.33 input  -65.29 | X-H torsion
[ 10718 10713 10712 10709 ] final -167.48 input   66.30 | X-H torsion
[ 10763 10752 10751 10750 ] final   51.72 input  -60.55 | X-H torsion
[ 11005 11000 10999 10996 ] final   18.09 input  -57.11 | X-H torsion

> <Gold.Protein.ActiveResidues>
 VAL166  LYS551  ARG553  GLY616  TRP617  ASP618  TYR619  PRO620  LYS621  CYS622 
 ASP623  PHE694  ASN695  SER759  ASP760  ASP761  ALA762  ILE779  LEU786  VAL792 
 PHE793  MET794  SER795  GLU796  ALA797  LYS798  CYS799  TRP800  GLU811  SER814 

> <Gold.Protein.RotatedAtoms>
  151.6876  133.3311  159.3234 H   0  0  0  0  0  0  0  0  0  0  0  0  # atno 6907 bound_to 6896
  150.7794  134.6727  159.6410 H   0  0  0  0  0  0  0  0  0  0  0  0  # atno 6908 bound_to 6896
  152.3846  134.6540  160.0182 H   0  0  0  0  0  0  0  0  0  0  0  0  # atno 6909 bound_to 6896
  146.2403  139.9782  142.8439 H   0  0  0  0  0  0  0  0  0  0  0  0  # atno 7974 bound_to 7965
  155.8416  140.0949  157.1731 H   0  0  0  0  0  0  0  0  0  0  0  0  # atno 8008 bound_to 7997
  154.3982  140.1400  156.3796 H   0  0  0  0  0  0  0  0  0  0  0  0  # atno 8009 bound_to 7997
  155.8058  140.3451  155.5431 H   0  0  0  0  0  0  0  0  0  0  0  0  # atno 8010 bound_to 7997
  140.4775  144.0668  150.6255 H   0  0  0  0  0  0  0  0  0  0  0  0  # atno 10167 bound_to 10162
  156.6830  130.9129  151.3059 H   0  0  0  0  0  0  0  0  0  0  0  0  # atno 10718 bound_to 10713
  152.9786  135.5836  154.4461 H   0  0  0  0  0  0  0  0  0  0  0  0  # atno 10763 bound_to 10752
  154.4056  135.2769  155.2071 H   0  0  0  0  0  0  0  0  0  0  0  0  # atno 10764 bound_to 10752
  154.3883  135.6131  153.5883 H   0  0  0  0  0  0  0  0  0  0  0  0  # atno 10765 bound_to 10752
  140.4287  134.1442  155.7678 H   0  0  0  0  0  0  0  0  0  0  0  0  # atno 11005 bound_to 11000
  145.1617  140.9676  143.4373 LP  0  0  0  0  0  0  0  0  0  0  0  0  # atno 17320 bound_to 7965
  145.0110  139.3510  143.6120 LP  0  0  0  0  0  0  0  0  0  0  0  0  # atno 17321 bound_to 7965
  140.3900  143.2757  152.0071 LP  0  0  0  0  0  0  0  0  0  0  0  0  # atno 17342 bound_to 10162
  139.4828  144.6085  151.7477 LP  0  0  0  0  0  0  0  0  0  0  0  0  # atno 17343 bound_to 10162
  157.7037  130.9361  150.0863 LP  0  0  0  0  0  0  0  0  0  0  0  0  # atno 17370 bound_to 10713
  156.1854  130.3652  149.8980 LP  0  0  0  0  0  0  0  0  0  0  0  0  # atno 17371 bound_to 10713
  141.1754  133.8524  157.1437 LP  0  0  0  0  0  0  0  0  0  0  0  0  # atno 17394 bound_to 11000
  140.0149  134.9972  157.0473 LP  0  0  0  0  0  0  0  0  0  0  0  0  # atno 17395 bound_to 11000

$$$$
