AV-unprocessed.smi:2421|AV-procd|sdf|9555|dock5
  -GOLD-   2272013183D 1   1.00000     0.00000
 Structure written by MMmdl.
 44 46  0  0  0  0  0  0  0  0  1 V2000
  143.0798  136.9316  152.6408 C   0  0  0  0  0  0  0  0  0  0  0  0
  143.7922  135.6310  152.4064 C   0  0  0  0  0  0  0  0  0  0  0  0
  143.1019  134.5188  152.2039 N   0  0  0  0  0  0  0  0  0  0  0  0
  144.0444  133.4944  152.0087 O   0  0  0  0  0  0  0  0  0  0  0  0
  145.2957  134.0205  152.0983 C   0  0  0  0  0  0  0  0  0  0  0  0
  146.4456  133.0900  151.9115 C   0  0  0  0  0  0  0  0  0  0  0  0
  145.1824  135.3535  152.3567 C   0  0  0  0  0  0  0  0  0  0  0  0
  146.2360  136.2797  152.4983 N   0  0  0  0  0  0  0  0  0  0  0  0
  146.2183  137.3101  153.3597 C   0  0  0  0  0  0  0  0  0  0  0  0
  145.3133  137.5014  154.1702 O   0  0  0  0  0  0  0  0  0  0  0  0
  147.2845  138.1268  153.2808 N   0  0  0  0  0  0  0  0  0  0  0  0
  147.5653  139.3270  154.0717 C   0  0  2  0  0  0  0  0  0  0  0  0
  147.2988  140.5790  153.2271 C   0  0  0  0  0  0  0  0  0  0  0  0
  147.6715  141.8455  154.0106 C   0  0  0  0  0  0  0  0  0  0  0  0
  149.0278  141.7860  154.4485 O   0  0  0  0  0  0  0  0  0  0  0  0
  149.3761  140.6656  155.2707 C   0  0  0  0  0  0  0  0  0  0  0  0
  148.7762  140.7857  156.6832 C   0  0  0  0  0  0  0  0  0  0  0  0
  149.6318  141.8386  157.3937 C   0  0  0  0  0  0  0  0  0  0  0  0
  150.9964  141.8183  156.6908 C   0  0  0  0  0  0  0  0  0  0  0  0
  150.8773  140.7934  155.5561 C   0  0  0  0  0  0  0  0  0  0  0  0
  149.0304  139.3493  154.5413 C   0  0  0  0  0  0  0  0  0  0  0  0
  143.7840  137.7432  152.8244 H   0  0  0  0  0  0  0  0  0  0  0  0
  142.4193  136.8658  153.5055 H   0  0  0  0  0  0  0  0  0  0  0  0
  142.4744  137.2079  151.7772 H   0  0  0  0  0  0  0  0  0  0  0  0
  147.3943  133.6058  152.0616 H   0  0  0  0  0  0  0  0  0  0  0  0
  146.4433  132.6712  150.9053 H   0  0  0  0  0  0  0  0  0  0  0  0
  146.3939  132.2657  152.6226 H   0  0  0  0  0  0  0  0  0  0  0  0
  147.0256  136.1828  151.8766 H   0  0  0  0  0  0  0  0  0  0  0  0
  147.9957  137.8691  152.6117 H   0  0  0  0  0  0  0  0  0  0  0  0
  146.9013  139.3568  154.9373 H   0  0  0  0  0  0  0  0  0  0  0  0
  147.8838  140.5404  152.3069 H   0  0  0  0  0  0  0  0  0  0  0  0
  146.2503  140.6213  152.9298 H   0  0  0  0  0  0  0  0  0  0  0  0
  147.5559  142.7217  153.3726 H   0  0  0  0  0  0  0  0  0  0  0  0
  146.9970  141.9919  154.8534 H   0  0  0  0  0  0  0  0  0  0  0  0
  147.7147  141.0278  156.7044 H   0  0  0  0  0  0  0  0  0  0  0  0
  148.8889  139.8340  157.2045 H   0  0  0  0  0  0  0  0  0  0  0  0
  149.1767  142.8237  157.2835 H   0  0  0  0  0  0  0  0  0  0  0  0
  149.7153  141.6344  158.4616 H   0  0  0  0  0  0  0  0  0  0  0  0
  151.2179  142.8064  156.2852 H   0  0  0  0  0  0  0  0  0  0  0  0
  151.8040  141.5580  157.3759 H   0  0  0  0  0  0  0  0  0  0  0  0
  151.2686  139.8354  155.9023 H   0  0  0  0  0  0  0  0  0  0  0  0
  151.4525  141.0777  154.6741 H   0  0  0  0  0  0  0  0  0  0  0  0
  149.2415  138.4957  155.1865 H   0  0  0  0  0  0  0  0  0  0  0  0
  149.6842  139.2423  153.6741 H   0  0  0  0  0  0  0  0  0  0  0  0
  1  2  1  0  0  0  0
  1 22  1  0  0  0  0
  1 23  1  0  0  0  0
  1 24  1  0  0  0  0
  2  7  1  0  0  0  0
  2  3  2  0  0  0  0
  3  4  1  0  0  0  0
  4  5  1  0  0  0  0
  5  6  1  0  0  0  0
  5  7  2  0  0  0  0
  6 25  1  0  0  0  0
  6 26  1  0  0  0  0
  6 27  1  0  0  0  0
  7  8  1  0  0  0  0
  8  9  1  0  0  0  0
  8 28  1  0  0  0  0
  9 10  2  0  0  0  0
  9 11  1  0  0  0  0
 11 12  1  0  0  0  0
 11 29  1  0  0  0  0
 12 21  1  0  0  0  0
 12 13  1  0  0  0  0
 12 30  1  0  0  0  0
 13 14  1  0  0  0  0
 13 31  1  0  0  0  0
 13 32  1  0  0  0  0
 14 15  1  0  0  0  0
 14 33  1  0  0  0  0
 14 34  1  0  0  0  0
 15 16  1  0  0  0  0
 16 20  1  0  0  0  0
 16 17  1  0  0  0  0
 16 21  1  0  0  0  0
 17 18  1  0  0  0  0
 17 35  1  0  0  0  0
 17 36  1  0  0  0  0
 18 19  1  0  0  0  0
 18 37  1  0  0  0  0
 18 38  1  0  0  0  0
 19 20  1  0  0  0  0
 19 39  1  0  0  0  0
 19 40  1  0  0  0  0
 20 41  1  0  0  0  0
 20 42  1  0  0  0  0
 21 43  1  0  0  0  0
 21 44  1  0  0  0  0
M  END
> <s_m_source_file>
AV-unprocessed.smi

> <i_m_source_file_index>
2421

> <i_lp_mmshare_version>
43012

> <i_f3d_flags>
0

> <s_epik_input>
W0NIM11jMW5vYyhbQ0gzXSljMVtOSF1DKD1PKVtOSF1bQ0BASF0oW0NIMl0yKVtDSDJdW0NIMl1PQzIzW0NIMl1bQ0gyXVtDSDJdW0NIMl0z

> <s_epik_cmdline>
J2VwaWtfcHl0aG9uJywgJy1waCcsICc3LjAnLCAnLXRuJywgJzgnLCAnLW1hJywgJzIwMCcsICctbWV0YWxfYmluZGluZycsICctaW1hZScsICc8aW5maWxlLm1hZT4nLCAnLW9tYWUnLCAnPG91dGZpbGUubWFlPic=

> <r_lp_tautomer_probability>
1

> <r_epik_Ionization_Penalty>
3.59808e-05

> <r_epik_Ionization_Penalty_Charging>
0

> <r_epik_Ionization_Penalty_Neutral>
3.59808e-05

> <r_epik_State_Penalty>
-0

> <r_epik_Charging_Adjusted_Penalty>
0

> <i_epik_Tot_Q>
0

> <i_epik_Tot_abs_Q>
0

> <r_epik_Metal_State_Penalty>
-0

> <b_epik_Metal_Only>
0

> <s_lp_Force_Field>
OPLS_2005

> <r_lp_Energy>
43.4187

> <b_lp_Chiralities_Consistent>
1

> <s_lp_Variant>
AV-unprocessed.smi:2421-1

> <Gold.Version>
5.8.1

> <Gold.Id.Protein>
6NUR|6NUR_protein|mol2

> <Gold.PLP.Fitness>
35.3218

> <Gold.PLP.PLP>
-30.4338

> <Gold.PLP.part.hbond>
-3.0000

> <Gold.PLP.part.metal>
0.0000

> <Gold.PLP.part.buried>
-5.2717

> <Gold.PLP.part.nonpolar>
-24.1241

> <Gold.PLP.part.repulsive>
0.6695

> <Gold.PLP.ligand.clash>
0.0000

> <Gold.PLP.ligand.torsion>
0.4748

> <Gold.PLP.Chemscore.Hbond>
1.7784

> <Gold.PLP.Chemscore.CHOScore>
0.0000

> <Gold.PLP.Chemscore.Metal>
0.0000

> <Gold.Chemscore.Hbonds>
donor molecule, donor type, donor heavy atom, donor atom, acceptor molecule, acceptor atom, score
      L1  H     8    28       P1  7948  0.86
      L1  H    11    29       P1  7948  0.85
      P1  H  8011  8017       L1    15  0.06

> <Gold.PLP.Chemscore.Internal.Correction>
0.5025

> <Gold.Rescore>
     Score         DG    S(hbond)    S(metal)    S(lipo)     H(rot)  DE(clash)    DE(int)     intcor
     16.31     -17.19       1.85        0.00      69.01       1.00       0.23       0.65       ----

> <Gold.Chemscore.Fitness>
16.3051

> <Gold.Chemscore.DG>
-17.1855

> <Gold.Chemscore.ZeroCoef>
-5.4800

> <Gold.Chemscore.Hbond>
1.8536

> <Gold.Chemscore.Metal>
0.0000

> <Gold.Chemscore.Lipo>
69.0128

> <Gold.Chemscore.Internal_Hbond>
0.0000

> <Gold.Chemscore.DEClash>
0.2295

> <Gold.Chemscore.DEInternal>
0.6509

> <Gold.Chemscore.Rot>
1.0000

> <Gold.Chemscore.Internal.Correction>
   9.000000E+99

> <Gold.Chemscore.Hbonds>
donor molecule, donor type, donor heavy atom, donor atom, acceptor molecule, acceptor atom, score
      L1  H     8    28       P1  7948  0.85
      L1  H    11    29       P1  7948  0.78

> <Gold.Chemscore.Hbond.Weighted>
-6.1910

> <Gold.Chemscore.Metal.Weighted>
-0.0000

> <Gold.Chemscore.Lipo.Weighted>
-8.0745

> <Gold.Chemscore.Internal_Hbond.Weighted>
0.0000

> <Gold.Chemscore.DEClash.Weighted>
0.2295

> <Gold.Chemscore.DEInternal.Weighted>
0.6509

> <Gold.Chemscore.Rot.Weighted>
2.5600

> <Gold.Chemscore.Internal.Correction.Weighted>
   9.000000E+99

> <Gold.Protein.RotatedTorsions>
[ 6907 6896 6895 6894 ] final -115.46 input  -60.11 | X-H torsion
[ 7974 7965 7964 7962 ] final   40.54 input  175.53 | X-H torsion
[ 8008 7997 7996 7995 ] final -137.95 input   59.86 | X-H torsion
[ 10167 10162 10161 10158 ] final    5.95 input  -65.29 | X-H torsion
[ 10718 10713 10712 10709 ] final -111.18 input   66.30 | X-H torsion
[ 10763 10752 10751 10750 ] final  -87.21 input  -60.55 | X-H torsion
[ 11005 11000 10999 10996 ] final  161.36 input  -57.11 | X-H torsion

> <Gold.Protein.ActiveResidues>
 VAL166  LYS551  ARG553  GLY616  TRP617  ASP618  TYR619  PRO620  LYS621  CYS622 
 ASP623  PHE694  ASN695  SER759  ASP760  ASP761  ALA762  ILE779  LEU786  VAL792 
 PHE793  MET794  SER795  GLU796  ALA797  LYS798  CYS799  TRP800  GLU811  SER814 

> <Gold.Protein.RotatedAtoms>
  150.7980  133.8655  159.3243 H   0  0  0  0  0  0  0  0  0  0  0  0  # atno 6907 bound_to 6896
  151.6474  135.1004  160.0163 H   0  0  0  0  0  0  0  0  0  0  0  0  # atno 6908 bound_to 6896
  152.4064  133.6856  159.6395 H   0  0  0  0  0  0  0  0  0  0  0  0  # atno 6909 bound_to 6896
  146.0896  139.5521  142.9484 H   0  0  0  0  0  0  0  0  0  0  0  0  # atno 7974 bound_to 7965
  155.4203  140.0518  157.3026 H   0  0  0  0  0  0  0  0  0  0  0  0  # atno 8008 bound_to 7997
  154.4906  140.2118  155.9517 H   0  0  0  0  0  0  0  0  0  0  0  0  # atno 8009 bound_to 7997
  156.1336  140.3167  155.8392 H   0  0  0  0  0  0  0  0  0  0  0  0  # atno 8010 bound_to 7997
  140.6454  143.7674  150.7491 H   0  0  0  0  0  0  0  0  0  0  0  0  # atno 10167 bound_to 10162
  156.0632  130.5854  150.8339 H   0  0  0  0  0  0  0  0  0  0  0  0  # atno 10718 bound_to 10713
  154.6311  135.5421  153.7682 H   0  0  0  0  0  0  0  0  0  0  0  0  # atno 10763 bound_to 10752
  153.0285  135.6436  154.1299 H   0  0  0  0  0  0  0  0  0  0  0  0  # atno 10764 bound_to 10752
  154.1229  135.2919  155.3184 H   0  0  0  0  0  0  0  0  0  0  0  0  # atno 10765 bound_to 10752
  140.2150  134.8239  157.3161 H   0  0  0  0  0  0  0  0  0  0  0  0  # atno 11005 bound_to 11000
  145.6064  141.0347  143.1990 LP  0  0  0  0  0  0  0  0  0  0  0  0  # atno 17320 bound_to 7965
  144.7351  139.7611  143.7332 LP  0  0  0  0  0  0  0  0  0  0  0  0  # atno 17321 bound_to 7965
  140.1314  143.4522  152.2252 LP  0  0  0  0  0  0  0  0  0  0  0  0  # atno 17342 bound_to 10162
  139.5665  144.7438  151.4009 LP  0  0  0  0  0  0  0  0  0  0  0  0  # atno 17343 bound_to 10162
  157.5656  131.0946  150.9494 LP  0  0  0  0  0  0  0  0  0  0  0  0  # atno 17370 bound_to 10713
  156.9721  130.5495  149.5291 LP  0  0  0  0  0  0  0  0  0  0  0  0  # atno 17371 bound_to 10713
  140.1910  134.4372  155.7716 LP  0  0  0  0  0  0  0  0  0  0  0  0  # atno 17394 bound_to 11000
  141.2225  133.7027  156.8027 LP  0  0  0  0  0  0  0  0  0  0  0  0  # atno 17395 bound_to 11000

$$$$
