AV-unprocessed.smi:2819|AV-procd|sdf|10850|dock8
  -GOLD-   2272015293D 1   1.00000     0.00000
 Structure written by MMmdl.
 50 51  0  0  0  0  0  0  0  0  2 V2000
  147.3475  130.7397  153.2006 C   0  0  0  0  0  0  0  0  0  0  0  0
  146.1839  130.6585  152.3227 N   0  0  0  0  0  0  0  0  0  0  0  0
  145.6435  129.3578  151.9477 C   0  0  0  0  0  0  0  0  0  0  0  0
  145.6595  131.8348  151.7419 C   0  0  0  0  0  0  0  0  0  0  0  0
  144.5402  131.8157  150.8828 C   0  0  0  0  0  0  0  0  0  0  0  0
  144.1083  133.0472  150.3594 C   0  0  0  0  0  0  0  0  0  0  0  0
  144.7531  134.1947  150.6793 N   0  3  0  0  0  0  0  0  0  0  0  0
  145.8108  134.1606  151.5047 C   0  0  0  0  0  0  0  0  0  0  0  0
  146.4154  135.3672  151.7848 N   0  0  0  0  0  0  0  0  0  0  0  0
  145.8774  136.5542  152.1249 C   0  0  0  0  0  0  0  0  0  0  0  0
  144.6725  136.7828  152.2421 O   0  0  0  0  0  0  0  0  0  0  0  0
  146.8282  137.4805  152.3167 N   0  0  0  0  0  0  0  0  0  0  0  0
  146.5981  138.8809  152.6734 C   0  0  0  0  0  0  0  0  0  0  0  0
  146.7380  139.1489  154.2015 C   0  0  0  0  0  0  0  0  0  0  0  0
  146.5352  140.6720  154.4053 C   0  0  0  0  0  0  0  0  0  0  0  0
  145.5532  138.4368  154.8985 C   0  0  0  0  0  0  0  0  0  0  0  0
  148.0662  138.7119  154.7176 N   0  0  0  0  0  0  0  0  0  0  0  0
  149.2184  139.3872  154.1081 C   0  0  0  0  0  0  0  0  0  0  0  0
  150.5564  138.8084  154.5990 C   0  0  0  0  0  0  0  0  0  0  0  0
  150.6226  138.8877  156.0175 O   0  0  0  0  0  0  0  0  0  0  0  0
  149.5549  138.1934  156.6501 C   0  0  0  0  0  0  0  0  0  0  0  0
  148.2100  138.7703  156.1774 C   0  0  0  0  0  0  0  0  0  0  0  0
  146.2628  133.0106  152.0294 N   0  0  0  0  0  0  0  0  0  0  0  0
  147.1425  131.3903  154.0514 H   0  0  0  0  0  0  0  0  0  0  0  0
  148.2079  131.1364  152.6608 H   0  0  0  0  0  0  0  0  0  0  0  0
  147.6204  129.7593  153.5915 H   0  0  0  0  0  0  0  0  0  0  0  0
  145.7295  129.2023  150.8719 H   0  0  0  0  0  0  0  0  0  0  0  0
  144.5928  129.2826  152.2293 H   0  0  0  0  0  0  0  0  0  0  0  0
  146.1792  128.5482  152.4440 H   0  0  0  0  0  0  0  0  0  0  0  0
  144.0194  130.9061  150.6230 H   0  0  0  0  0  0  0  0  0  0  0  0
  143.2649  133.1523  149.6925 H   0  0  0  0  0  0  0  0  0  0  0  0
  147.4223  135.3574  151.7214 H   0  0  0  0  0  0  0  0  0  0  0  0
  147.7917  137.2073  152.1889 H   0  0  0  0  0  0  0  0  0  0  0  0
  147.2681  139.5344  152.1117 H   0  0  0  0  0  0  0  0  0  0  0  0
  145.6031  139.1519  152.3213 H   0  0  0  0  0  0  0  0  0  0  0  0
  145.6571  141.0343  153.8693 H   0  0  0  0  0  0  0  0  0  0  0  0
  147.3925  141.2448  154.0503 H   0  0  0  0  0  0  0  0  0  0  0  0
  146.3786  140.9311  155.4525 H   0  0  0  0  0  0  0  0  0  0  0  0
  144.5991  138.7895  154.5047 H   0  0  0  0  0  0  0  0  0  0  0  0
  145.5348  138.6204  155.9724 H   0  0  0  0  0  0  0  0  0  0  0  0
  145.5741  137.3577  154.7473 H   0  0  0  0  0  0  0  0  0  0  0  0
  149.1965  139.2934  153.0239 H   0  0  0  0  0  0  0  0  0  0  0  0
  149.1942  140.4532  154.3346 H   0  0  0  0  0  0  0  0  0  0  0  0
  150.6694  137.7715  154.2791 H   0  0  0  0  0  0  0  0  0  0  0  0
  151.3897  139.3673  154.1725 H   0  0  0  0  0  0  0  0  0  0  0  0
  149.6184  137.1278  156.4246 H   0  0  0  0  0  0  0  0  0  0  0  0
  149.6527  138.2986  157.7306 H   0  0  0  0  0  0  0  0  0  0  0  0
  148.1307  139.8011  156.5232 H   0  0  0  0  0  0  0  0  0  0  0  0
  147.4182  138.2097  156.6704 H   0  0  0  0  0  0  0  0  0  0  0  0
  144.4227  135.0768  150.2869 H   0  0  0  0  0  0  0  0  0  0  0  0
  1  2  1  0  0  0  0
  1 24  1  0  0  0  0
  1 25  1  0  0  0  0
  1 26  1  0  0  0  0
  2  3  1  0  0  0  0
  2  4  1  0  0  0  0
  3 27  1  0  0  0  0
  3 28  1  0  0  0  0
  3 29  1  0  0  0  0
  4 23  1  0  0  0  0
  4  5  2  0  0  0  0
  5  6  1  0  0  0  0
  5 30  1  0  0  0  0
  6  7  2  0  0  0  0
  6 31  1  0  0  0  0
  7  8  1  0  0  0  0
  7 50  1  0  0  0  0
  8  9  1  0  0  0  0
  8 23  2  0  0  0  0
  9 10  1  0  0  0  0
  9 32  1  0  0  0  0
 10 11  2  0  0  0  0
 10 12  1  0  0  0  0
 12 13  1  0  0  0  0
 12 33  1  0  0  0  0
 13 14  1  0  0  0  0
 13 34  1  0  0  0  0
 13 35  1  0  0  0  0
 14 15  1  0  0  0  0
 14 16  1  0  0  0  0
 14 17  1  0  0  0  0
 15 36  1  0  0  0  0
 15 37  1  0  0  0  0
 15 38  1  0  0  0  0
 16 39  1  0  0  0  0
 16 40  1  0  0  0  0
 16 41  1  0  0  0  0
 17 22  1  0  0  0  0
 17 18  1  0  0  0  0
 18 19  1  0  0  0  0
 18 42  1  0  0  0  0
 18 43  1  0  0  0  0
 19 20  1  0  0  0  0
 19 44  1  0  0  0  0
 19 45  1  0  0  0  0
 20 21  1  0  0  0  0
 21 22  1  0  0  0  0
 21 46  1  0  0  0  0
 21 47  1  0  0  0  0
 22 48  1  0  0  0  0
 22 49  1  0  0  0  0
M  CHG  1   7   1
M  END
> <s_m_source_file>
AV-unprocessed.smi

> <i_m_source_file_index>
2819

> <i_lp_mmshare_version>
43012

> <i_f3d_flags>
0

> <s_epik_input>
W0NIM11OKFtDSDNdKWMxW2NIXVtjSF1uYyhuMSlbTkhdQyg9TylbTkhdW0NIMl1DKFtDSDNdKShbQ0gzXSlOMltDSDJdW0NIMl1PW0NIMl1bQ0gyXTI=

> <s_epik_cmdline>
J2VwaWtfcHl0aG9uJywgJy1waCcsICc3LjAnLCAnLXRuJywgJzgnLCAnLW1hJywgJzIwMCcsICctbWV0YWxfYmluZGluZycsICctaW1hZScsICc8aW5maWxlLm1hZT4nLCAnLW9tYWUnLCAnPG91dGZpbGUubWFlPic=

> <r_lp_tautomer_probability>
0.999336

> <r_epik_Ionization_Penalty>
0.36245

> <r_epik_Ionization_Penalty_Charging>
0.09642

> <r_epik_Ionization_Penalty_Neutral>
0.26603

> <r_epik_State_Penalty>
0.34182

> <r_epik_Charging_Adjusted_Penalty>
0.43824

> <i_epik_Tot_Q>
1

> <i_epik_Tot_abs_Q>
1

> <r_epik_Metal_State_Penalty>
0.680072

> <b_epik_Metal_Only>
0

> <s_lp_Force_Field>
OPLS_2005

> <r_lp_Energy>
46.6514

> <b_lp_Chiralities_Consistent>
1

> <s_lp_Variant>
AV-unprocessed.smi:2819-1

> <Gold.Version>
5.8.1

> <Gold.Id.Protein>
6NUR|6NUR_protein|mol2

> <Gold.PLP.Fitness>
36.3686

> <Gold.PLP.PLP>
-31.5365

> <Gold.PLP.part.hbond>
-1.8899

> <Gold.PLP.part.metal>
0.0000

> <Gold.PLP.part.buried>
-5.1287

> <Gold.PLP.part.nonpolar>
-25.9141

> <Gold.PLP.part.repulsive>
0.5861

> <Gold.PLP.ligand.clash>
0.0000

> <Gold.PLP.ligand.torsion>
0.6332

> <Gold.PLP.Chemscore.Hbond>
2.0000

> <Gold.PLP.Chemscore.CHOScore>
0.0000

> <Gold.PLP.Chemscore.Metal>
0.0000

> <Gold.Chemscore.Hbonds>
donor molecule, donor type, donor heavy atom, donor atom, acceptor molecule, acceptor atom, score
      L1  H     9    32       P1  7948  1.00
      L1  H    12    33       P1  7948  1.00

> <Gold.PLP.Chemscore.Internal.Correction>
0.0985

> <Gold.Rescore>
     Score         DG    S(hbond)    S(metal)    S(lipo)     H(rot)  DE(clash)    DE(int)     intcor
     14.85     -15.75       1.96        0.00      65.33       1.53       0.17       0.73       ----

> <Gold.Chemscore.Fitness>
14.8549

> <Gold.Chemscore.DG>
-15.7518

> <Gold.Chemscore.ZeroCoef>
-5.4800

> <Gold.Chemscore.Hbond>
1.9582

> <Gold.Chemscore.Metal>
0.0000

> <Gold.Chemscore.Lipo>
65.3297

> <Gold.Chemscore.Internal_Hbond>
0.0000

> <Gold.Chemscore.DEClash>
0.1676

> <Gold.Chemscore.DEInternal>
0.7293

> <Gold.Chemscore.Rot>
1.5282

> <Gold.Chemscore.Internal.Correction>
   9.000000E+99

> <Gold.Chemscore.Hbonds>
donor molecule, donor type, donor heavy atom, donor atom, acceptor molecule, acceptor atom, score
      L1  H     9    32       P1  7948  0.91
      L1  H    12    33       P1  7948  0.92

> <Gold.Chemscore.Hbond.Weighted>
-6.5404

> <Gold.Chemscore.Metal.Weighted>
-0.0000

> <Gold.Chemscore.Lipo.Weighted>
-7.6436

> <Gold.Chemscore.Internal_Hbond.Weighted>
0.0000

> <Gold.Chemscore.DEClash.Weighted>
0.1676

> <Gold.Chemscore.DEInternal.Weighted>
0.7293

> <Gold.Chemscore.Rot.Weighted>
3.9121

> <Gold.Chemscore.Internal.Correction.Weighted>
   9.000000E+99

> <Gold.Protein.RotatedTorsions>
[ 6907 6896 6895 6894 ] final   44.30 input  -60.11 | X-H torsion
[ 7974 7965 7964 7962 ] final  116.24 input  175.53 | X-H torsion
[ 8008 7997 7996 7995 ] final  121.90 input   59.86 | X-H torsion
[ 10167 10162 10161 10158 ] final   92.56 input  -65.29 | X-H torsion
[ 10718 10713 10712 10709 ] final -125.68 input   66.30 | X-H torsion
[ 10763 10752 10751 10750 ] final  120.02 input  -60.55 | X-H torsion
[ 11005 11000 10999 10996 ] final  130.83 input  -57.11 | X-H torsion

> <Gold.Protein.ActiveResidues>
 VAL166  LYS551  ARG553  GLY616  TRP617  ASP618  TYR619  PRO620  LYS621  CYS622 
 ASP623  PHE694  ASN695  SER759  ASP760  ASP761  ALA762  ILE779  LEU786  VAL792 
 PHE793  MET794  SER795  GLU796  ALA797  LYS798  CYS799  TRP800  GLU811  SER814 

> <Gold.Protein.RotatedAtoms>
  152.2308  134.8323  160.0473 H   0  0  0  0  0  0  0  0  0  0  0  0  # atno 6907 bound_to 6896
  151.9073  133.3547  159.3859 H   0  0  0  0  0  0  0  0  0  0  0  0  # atno 6908 bound_to 6896
  150.7025  134.4694  159.5462 H   0  0  0  0  0  0  0  0  0  0  0  0  # atno 6909 bound_to 6896
  145.1821  139.3044  143.4413 H   0  0  0  0  0  0  0  0  0  0  0  0  # atno 7974 bound_to 7965
  156.2706  140.2798  156.1382 H   0  0  0  0  0  0  0  0  0  0  0  0  # atno 8008 bound_to 7997
  155.0982  140.0389  157.2706 H   0  0  0  0  0  0  0  0  0  0  0  0  # atno 8009 bound_to 7997
  154.6836  140.2614  155.6889 H   0  0  0  0  0  0  0  0  0  0  0  0  # atno 8010 bound_to 7997
  139.8264  144.6707  150.9454 H   0  0  0  0  0  0  0  0  0  0  0  0  # atno 10167 bound_to 10162
  156.1697  130.6659  151.0162 H   0  0  0  0  0  0  0  0  0  0  0  0  # atno 10718 bound_to 10713
  153.5921  135.3464  155.2914 H   0  0  0  0  0  0  0  0  0  0  0  0  # atno 10763 bound_to 10752
  154.8651  135.4207  154.2505 H   0  0  0  0  0  0  0  0  0  0  0  0  # atno 10764 bound_to 10752
  153.3315  135.7044  153.7015 H   0  0  0  0  0  0  0  0  0  0  0  0  # atno 10765 bound_to 10752
  139.9695  134.9581  156.9351 H   0  0  0  0  0  0  0  0  0  0  0  0  # atno 11005 bound_to 11000
  146.3451  140.2004  142.8589 LP  0  0  0  0  0  0  0  0  0  0  0  0  # atno 17320 bound_to 7965
  145.0126  140.8727  143.5215 LP  0  0  0  0  0  0  0  0  0  0  0  0  # atno 17321 bound_to 7965
  140.7810  143.4042  151.1099 LP  0  0  0  0  0  0  0  0  0  0  0  0  # atno 17342 bound_to 10162
  139.7699  143.8510  152.3118 LP  0  0  0  0  0  0  0  0  0  0  0  0  # atno 17343 bound_to 10162
  157.6793  131.0842  150.7411 LP  0  0  0  0  0  0  0  0  0  0  0  0  # atno 17370 bound_to 10713
  156.7471  130.4757  149.5465 LP  0  0  0  0  0  0  0  0  0  0  0  0  # atno 17371 bound_to 10713
  140.5324  134.0800  155.7319 LP  0  0  0  0  0  0  0  0  0  0  0  0  # atno 17394 bound_to 11000
  141.1374  133.9197  157.2402 LP  0  0  0  0  0  0  0  0  0  0  0  0  # atno 17395 bound_to 11000

$$$$
