AV-unprocessed.smi:1612|AV-procd|sdf|6477|dock8
  -GOLD-   22720 7143D 1   1.00000     0.00000
 Structure written by MMmdl.
 37 38  0  0  0  0  0  0  0  0  1 V2000
  146.8980  140.7126  153.6254 C   0  0  0  0  0  0  0  0  0  0  0  0
  147.7760  139.5250  154.0781 C   0  0  1  0  0  0  0  0  0  0  0  0
  147.5031  138.3027  153.3138 N   0  0  0  0  0  0  0  0  0  0  0  0
  146.3468  137.6234  153.2264 C   0  0  0  0  0  0  0  0  0  0  0  0
  145.2953  137.9872  153.7525 O   0  0  0  0  0  0  0  0  0  0  0  0
  146.4969  136.5117  152.4847 N   0  0  0  0  0  0  0  0  0  0  0  0
  145.5180  135.5360  152.1555 C   0  0  0  0  0  0  0  0  0  0  0  0
  145.5892  135.0394  150.8341 C   0  0  0  0  0  0  0  0  0  0  0  0
  144.6626  134.0680  150.4082 C   0  0  0  0  0  0  0  0  0  0  0  0
  143.6868  133.6180  151.3153 C   0  0  0  0  0  0  0  0  0  0  0  0
  143.6852  134.1639  152.6120 C   0  0  0  0  0  0  0  0  0  0  0  0
  144.5725  135.0945  153.0223 N   0  0  0  0  0  0  0  0  0  0  0  0
  149.2853  139.8396  154.1402 C   0  0  0  0  0  0  0  0  0  0  0  0
  149.6852  140.9306  153.7318 O   0  0  0  0  0  0  0  0  0  0  0  0
  150.1360  138.9091  154.6272 N   0  0  0  0  0  0  0  0  0  0  0  0
  149.7772  137.5846  155.1357 C   0  0  0  0  0  0  0  0  0  0  0  0
  151.0999  136.8473  155.3466 C   0  0  0  0  0  0  0  0  0  0  0  0
  152.1159  137.9593  155.5629 C   0  0  0  0  0  0  0  0  0  0  0  0
  151.5796  139.1204  154.7258 C   0  0  0  0  0  0  0  0  0  0  0  0
  147.0218  141.5626  154.2971 H   0  0  0  0  0  0  0  0  0  0  0  0
  145.8412  140.4438  153.6345 H   0  0  0  0  0  0  0  0  0  0  0  0
  147.1435  141.0591  152.6215 H   0  0  0  0  0  0  0  0  0  0  0  0
  147.4546  139.3058  155.0962 H   0  0  0  0  0  0  0  0  0  0  0  0
  148.2950  137.9142  152.8228 H   0  0  0  0  0  0  0  0  0  0  0  0
  147.4200  136.3408  152.1143 H   0  0  0  0  0  0  0  0  0  0  0  0
  146.3457  135.3960  150.1502 H   0  0  0  0  0  0  0  0  0  0  0  0
  144.7009  133.6757  149.4028 H   0  0  0  0  0  0  0  0  0  0  0  0
  142.9590  132.8744  151.0257 H   0  0  0  0  0  0  0  0  0  0  0  0
  142.9529  133.8452  153.3388 H   0  0  0  0  0  0  0  0  0  0  0  0
  149.2520  137.6980  156.0850 H   0  0  0  0  0  0  0  0  0  0  0  0
  149.1322  137.0334  154.4512 H   0  0  0  0  0  0  0  0  0  0  0  0
  151.0627  136.1405  156.1759 H   0  0  0  0  0  0  0  0  0  0  0  0
  151.3560  136.2908  154.4441 H   0  0  0  0  0  0  0  0  0  0  0  0
  152.1278  138.2421  156.6164 H   0  0  0  0  0  0  0  0  0  0  0  0
  153.1290  137.6690  155.2835 H   0  0  0  0  0  0  0  0  0  0  0  0
  152.0090  139.1004  153.7230 H   0  0  0  0  0  0  0  0  0  0  0  0
  151.8254  140.0816  155.1803 H   0  0  0  0  0  0  0  0  0  0  0  0
  1  2  1  0  0  0  0
  1 20  1  0  0  0  0
  1 21  1  0  0  0  0
  1 22  1  0  0  0  0
  2  3  1  0  0  0  0
  2 13  1  0  0  0  0
  2 23  1  0  0  0  0
  3  4  1  0  0  0  0
  3 24  1  0  0  0  0
  4  5  2  0  0  0  0
  4  6  1  0  0  0  0
  6  7  1  0  0  0  0
  6 25  1  0  0  0  0
  7 12  1  0  0  0  0
  7  8  2  0  0  0  0
  8  9  1  0  0  0  0
  8 26  1  0  0  0  0
  9 10  2  0  0  0  0
  9 27  1  0  0  0  0
 10 11  1  0  0  0  0
 10 28  1  0  0  0  0
 11 12  2  0  0  0  0
 11 29  1  0  0  0  0
 13 14  2  0  0  0  0
 13 15  1  0  0  0  0
 15 19  1  0  0  0  0
 15 16  1  0  0  0  0
 16 17  1  0  0  0  0
 16 30  1  0  0  0  0
 16 31  1  0  0  0  0
 17 18  1  0  0  0  0
 17 32  1  0  0  0  0
 17 33  1  0  0  0  0
 18 19  1  0  0  0  0
 18 34  1  0  0  0  0
 18 35  1  0  0  0  0
 19 36  1  0  0  0  0
 19 37  1  0  0  0  0
M  END
> <s_m_source_file>
AV-unprocessed.smi

> <i_m_source_file_index>
1612

> <i_lp_mmshare_version>
43012

> <i_f3d_flags>
0

> <s_epik_input>
W0NIMl0xW0NIMl1bQ0gyXVtDSDJdTjFDKD1PKVtDQEhdKFtDSDNdKVtOSF1DKD1PKVtOSF1jMltjSF1bY0hdW2NIXVtjSF1uMg==

> <s_epik_cmdline>
J2VwaWtfcHl0aG9uJywgJy1waCcsICc3LjAnLCAnLXRuJywgJzgnLCAnLW1hJywgJzIwMCcsICctbWV0YWxfYmluZGluZycsICctaW1hZScsICc8aW5maWxlLm1hZT4nLCAnLW9tYWUnLCAnPG91dGZpbGUubWFlPic=

> <r_lp_tautomer_probability>
1

> <r_epik_Ionization_Penalty>
3.95281e-05

> <r_epik_Ionization_Penalty_Charging>
0

> <r_epik_Ionization_Penalty_Neutral>
3.95281e-05

> <r_epik_State_Penalty>
-0

> <r_epik_Charging_Adjusted_Penalty>
0

> <i_epik_Tot_Q>
0

> <i_epik_Tot_abs_Q>
0

> <r_epik_Metal_State_Penalty>
-0

> <b_epik_Metal_Only>
0

> <s_lp_Force_Field>
OPLS_2005

> <r_lp_Energy>
35.1648

> <b_lp_Chiralities_Consistent>
1

> <s_lp_Variant>
AV-unprocessed.smi:1612-2

> <Gold.Version>
5.8.1

> <Gold.Id.Protein>
6NUR|6NUR_protein|mol2

> <Gold.PLP.Fitness>
39.3257

> <Gold.PLP.PLP>
-27.2538

> <Gold.PLP.part.hbond>
-4.0000

> <Gold.PLP.part.metal>
0.0000

> <Gold.PLP.part.buried>
-1.0999

> <Gold.PLP.part.nonpolar>
-25.6675

> <Gold.PLP.part.repulsive>
3.0295

> <Gold.PLP.ligand.clash>
0.0000

> <Gold.PLP.ligand.torsion>
0.4063

> <Gold.PLP.Chemscore.Hbond>
3.2473

> <Gold.PLP.Chemscore.CHOScore>
1.0000

> <Gold.PLP.Chemscore.Metal>
0.0000

> <Gold.Chemscore.Hbonds>
donor molecule, donor type, donor heavy atom, donor atom, acceptor molecule, acceptor atom, score
      L1  H     3    24       P1  7948  0.88
      L1  H     6    25       P1  7948  1.00
      P1  H  7989  7998       L1    14  0.38
      P1  H  8011  8017       L1    14  0.97
      L1  C    11    29       P1 10957  0.97

> <Gold.PLP.Chemscore.Internal.Correction>
0.1426

> <Gold.Rescore>
     Score         DG    S(hbond)    S(metal)    S(lipo)     H(rot)  DE(clash)    DE(int)     intcor
     16.09     -19.23       3.15        0.00      55.91       1.30       1.89       1.24       ----

> <Gold.Chemscore.Fitness>
16.0947

> <Gold.Chemscore.DG>
-19.2269

> <Gold.Chemscore.ZeroCoef>
-5.4800

> <Gold.Chemscore.Hbond>
3.1550

> <Gold.Chemscore.Metal>
0.0000

> <Gold.Chemscore.Lipo>
55.9098

> <Gold.Chemscore.Internal_Hbond>
0.0000

> <Gold.Chemscore.DEClash>
1.8899

> <Gold.Chemscore.DEInternal>
1.2423

> <Gold.Chemscore.Rot>
1.3016

> <Gold.Chemscore.Internal.Correction>
   9.000000E+99

> <Gold.Chemscore.Hbonds>
donor molecule, donor type, donor heavy atom, donor atom, acceptor molecule, acceptor atom, score
      L1  H     3    24       P1  7948  0.81
      L1  H     6    25       P1  7948  0.94
      P1  H  7989  7998       L1    14  0.30
      P1  H  8011  8017       L1    14  0.85

> <Gold.Chemscore.Hbond.Weighted>
-10.5376

> <Gold.Chemscore.Metal.Weighted>
-0.0000

> <Gold.Chemscore.Lipo.Weighted>
-6.5414

> <Gold.Chemscore.Internal_Hbond.Weighted>
0.0000

> <Gold.Chemscore.DEClash.Weighted>
1.8899

> <Gold.Chemscore.DEInternal.Weighted>
1.2423

> <Gold.Chemscore.Rot.Weighted>
3.3322

> <Gold.Chemscore.Internal.Correction.Weighted>
   9.000000E+99

> <Gold.Protein.RotatedTorsions>
[ 6907 6896 6895 6894 ] final  -49.71 input  -60.11 | X-H torsion
[ 7974 7965 7964 7962 ] final  110.51 input  175.53 | X-H torsion
[ 8008 7997 7996 7995 ] final   72.78 input   59.86 | X-H torsion
[ 10167 10162 10161 10158 ] final    3.60 input  -65.29 | X-H torsion
[ 10718 10713 10712 10709 ] final   63.93 input   66.30 | X-H torsion
[ 10763 10752 10751 10750 ] final   89.43 input  -60.55 | X-H torsion
[ 11005 11000 10999 10996 ] final  173.17 input  -57.11 | X-H torsion

> <Gold.Protein.ActiveResidues>
 VAL166  LYS551  ARG553  GLY616  TRP617  ASP618  TYR619  PRO620  LYS621  CYS622 
 ASP623  PHE694  ASN695  SER759  ASP760  ASP761  ALA762  ILE779  LEU786  VAL792 
 PHE793  MET794  SER795  GLU796  ALA797  LYS798  CYS799  TRP800  GLU811  SER814 

> <Gold.Protein.RotatedAtoms>
  150.8778  134.8164  159.7202 H   0  0  0  0  0  0  0  0  0  0  0  0  # atno 6907 bound_to 6896
  152.4758  134.4844  159.9685 H   0  0  0  0  0  0  0  0  0  0  0  0  # atno 6908 bound_to 6896
  151.4923  133.3483  159.2891 H   0  0  0  0  0  0  0  0  0  0  0  0  # atno 6909 bound_to 6896
  145.2540  139.2728  143.4052 H   0  0  0  0  0  0  0  0  0  0  0  0  # atno 7974 bound_to 7965
  155.7740  140.3483  155.5262 H   0  0  0  0  0  0  0  0  0  0  0  0  # atno 8008 bound_to 7997
  155.8794  140.0999  157.1516 H   0  0  0  0  0  0  0  0  0  0  0  0  # atno 8009 bound_to 7997
  154.4023  140.1325  156.4165 H   0  0  0  0  0  0  0  0  0  0  0  0  # atno 8010 bound_to 7997
  140.6578  143.7383  150.7684 H   0  0  0  0  0  0  0  0  0  0  0  0  # atno 10167 bound_to 10162
  157.6005  130.9132  149.9779 H   0  0  0  0  0  0  0  0  0  0  0  0  # atno 10718 bound_to 10713
  153.1870  135.4470  155.0101 H   0  0  0  0  0  0  0  0  0  0  0  0  # atno 10763 bound_to 10752
  154.8067  135.3277  154.7416 H   0  0  0  0  0  0  0  0  0  0  0  0  # atno 10764 bound_to 10752
  153.7874  135.6973  153.4932 H   0  0  0  0  0  0  0  0  0  0  0  0  # atno 10765 bound_to 10752
  140.3376  134.7304  157.4179 H   0  0  0  0  0  0  0  0  0  0  0  0  # atno 11005 bound_to 11000
  146.3294  140.2939  142.8617 LP  0  0  0  0  0  0  0  0  0  0  0  0  # atno 17320 bound_to 7965
  144.9477  140.8146  143.5591 LP  0  0  0  0  0  0  0  0  0  0  0  0  # atno 17321 bound_to 7965
  140.1046  143.4756  152.2405 LP  0  0  0  0  0  0  0  0  0  0  0  0  # atno 17342 bound_to 10162
  139.5804  144.7507  151.3655 LP  0  0  0  0  0  0  0  0  0  0  0  0  # atno 17343 bound_to 10162
  156.1077  130.3652  150.0105 LP  0  0  0  0  0  0  0  0  0  0  0  0  # atno 17370 bound_to 10713
  156.8209  130.9358  151.3641 LP  0  0  0  0  0  0  0  0  0  0  0  0  # atno 17371 bound_to 10713
  140.0808  134.5733  155.8542 LP  0  0  0  0  0  0  0  0  0  0  0  0  # atno 17394 bound_to 11000
  141.2047  133.6641  156.6137 LP  0  0  0  0  0  0  0  0  0  0  0  0  # atno 17395 bound_to 11000

$$$$
