AV-unprocessed.smi:3208|AV-procd|sdf|12262|dock3
  -GOLD-   2272018 93D 1   1.00000     0.00000
 Structure written by MMmdl.
 30 30  0  0  0  0  0  0  0  0  3 V2000
  147.1254  141.0350  153.6112 C   0  0  0  0  0  0  0  0  0  0  0  0
  148.2864  141.3785  154.1888 C   0  0  0  0  0  0  0  0  0  0  0  0
  149.0822  140.4842  155.1135 C   0  0  0  0  0  0  0  0  0  0  0  0
  150.4213  140.3638  154.6487 O   0  0  0  0  0  0  0  0  0  0  0  0
  151.3490  139.8164  155.5825 C   0  0  2  0  0  0  0  0  0  0  0  0
  150.9774  138.3406  155.7926 C   0  0  0  0  0  0  0  0  0  0  0  0
  151.3059  140.6003  156.9043 C   0  0  0  0  0  0  0  0  0  0  0  0
  151.0455  140.0130  157.9557 O   0  0  0  0  0  0  0  0  0  0  0  0
  151.5511  141.9203  156.8064 N   0  0  0  0  0  0  0  0  0  0  0  0
  151.5783  142.9007  157.8365 C   0  0  0  0  0  0  0  0  0  0  0  0
  150.9214  144.0828  157.7268 N   0  3  0  0  0  0  0  0  0  0  0  0
  150.9259  145.0321  158.6872 C   0  0  0  0  0  0  0  0  0  0  0  0
  151.6409  144.8169  159.8807 C   0  0  0  0  0  0  0  0  0  0  0  0
  152.3416  143.6060  160.0474 C   0  0  0  0  0  0  0  0  0  0  0  0
  152.3119  142.6398  159.0193 C   0  0  0  0  0  0  0  0  0  0  0  0
  152.9929  141.4656  159.1810 O   0  5  0  0  0  0  0  0  0  0  0  0
  146.6785  140.0661  153.7797 H   0  0  0  0  0  0  0  0  0  0  0  0
  146.6059  141.7220  152.9596 H   0  0  0  0  0  0  0  0  0  0  0  0
  148.7029  142.3565  153.9961 H   0  0  0  0  0  0  0  0  0  0  0  0
  149.0686  140.9259  156.1108 H   0  0  0  0  0  0  0  0  0  0  0  0
  148.6001  139.5079  155.1782 H   0  0  0  0  0  0  0  0  0  0  0  0
  152.3546  139.8568  155.1593 H   0  0  0  0  0  0  0  0  0  0  0  0
  151.6442  137.8617  156.5106 H   0  0  0  0  0  0  0  0  0  0  0  0
  151.0524  137.7875  154.8561 H   0  0  0  0  0  0  0  0  0  0  0  0
  149.9554  138.2304  156.1572 H   0  0  0  0  0  0  0  0  0  0  0  0
  151.7400  142.2752  155.8798 H   0  0  0  0  0  0  0  0  0  0  0  0
  150.3609  145.9273  158.4723 H   0  0  0  0  0  0  0  0  0  0  0  0
  151.6525  145.5678  160.6569 H   0  0  0  0  0  0  0  0  0  0  0  0
  152.8957  143.4214  160.9562 H   0  0  0  0  0  0  0  0  0  0  0  0
  150.3953  144.2622  156.8707 H   0  0  0  0  0  0  0  0  0  0  0  0
  1  2  2  0  0  0  0
  1 17  1  0  0  0  0
  1 18  1  0  0  0  0
  2  3  1  0  0  0  0
  2 19  1  0  0  0  0
  3  4  1  0  0  0  0
  3 20  1  0  0  0  0
  3 21  1  0  0  0  0
  4  5  1  0  0  0  0
  5  6  1  0  0  0  0
  5  7  1  0  0  0  0
  5 22  1  0  0  0  0
  6 23  1  0  0  0  0
  6 24  1  0  0  0  0
  6 25  1  0  0  0  0
  7  8  2  0  0  0  0
  7  9  1  0  0  0  0
  9 26  1  0  0  0  0
  9 10  1  0  0  0  0
 10 15  2  0  0  0  0
 10 11  1  0  0  0  0
 11 30  1  0  0  0  0
 11 12  2  0  0  0  0
 12 27  1  0  0  0  0
 12 13  1  0  0  0  0
 13 28  1  0  0  0  0
 13 14  2  0  0  0  0
 14 15  1  0  0  0  0
 14 29  1  0  0  0  0
 15 16  1  0  0  0  0
M  CHG  1  11   1
M  CHG  1  16  -1
M  END
> <s_m_source_file>
AV-unprocessed.smi

> <i_m_source_file_index>
3208

> <i_lp_mmshare_version>
43012

> <i_f3d_flags>
0

> <s_epik_input>
W0NIMl09W0NIXVtDSDJdT1tDQEhdKFtDSDNdKUMoPU8pW05IXWMxbltjSF1bY0hdW2NIXWMxW09IXQ==

> <s_epik_cmdline>
J2VwaWtfcHl0aG9uJywgJy1waCcsICc3LjAnLCAnLXRuJywgJzgnLCAnLW1hJywgJzIwMCcsICctbWV0YWxfYmluZGluZycsICctaW1hZScsICc8aW5maWxlLm1hZT4nLCAnLW9tYWUnLCAnPG91dGZpbGUubWFlPic=

> <r_lp_tautomer_probability>
0.56342

> <r_epik_Ionization_Penalty>
0.29395

> <r_epik_Ionization_Penalty_Charging>
0.0267837

> <r_epik_Ionization_Penalty_Neutral>
0.267166

> <r_epik_State_Penalty>
0.587031

> <r_epik_Charging_Adjusted_Penalty>
0.613815

> <i_epik_Tot_Q>
0

> <i_epik_Tot_abs_Q>
2

> <r_epik_Metal_State_Penalty>
2.67911

> <b_epik_Metal_Only>
0

> <s_lp_Force_Field>
OPLS_2005

> <r_lp_Energy>
5.5941

> <b_lp_Chiralities_Consistent>
1

> <s_lp_Variant>
AV-unprocessed.smi:3208-3

> <Gold.Version>
5.8.1

> <Gold.Id.Protein>
6NUR|6NUR_protein|mol2

> <Gold.PLP.Fitness>
40.9896

> <Gold.PLP.PLP>
-32.4826

> <Gold.PLP.part.hbond>
-2.0000

> <Gold.PLP.part.metal>
0.0000

> <Gold.PLP.part.buried>
-3.6883

> <Gold.PLP.part.nonpolar>
-27.0525

> <Gold.PLP.part.repulsive>
0.2260

> <Gold.PLP.ligand.clash>
0.0000

> <Gold.PLP.ligand.torsion>
0.5272

> <Gold.PLP.Chemscore.Hbond>
3.0000

> <Gold.PLP.Chemscore.CHOScore>
0.0000

> <Gold.PLP.Chemscore.Metal>
0.0000

> <Gold.Chemscore.Hbonds>
donor molecule, donor type, donor heavy atom, donor atom, acceptor molecule, acceptor atom, score
      L1  H    11    30       P1  8028  2.00
      P1  H  7989  7998       L1     4  0.80

> <Gold.PLP.Chemscore.Internal.Correction>
0.5615

> <Gold.Rescore>
     Score         DG    S(hbond)    S(metal)    S(lipo)     H(rot)  DE(clash)    DE(int)     intcor
     14.67     -16.79       1.85        0.00      80.93       1.70       1.36       0.76       ----

> <Gold.Chemscore.Fitness>
14.6724

> <Gold.Chemscore.DG>
-16.7921

> <Gold.Chemscore.ZeroCoef>
-5.4800

> <Gold.Chemscore.Hbond>
1.8532

> <Gold.Chemscore.Metal>
0.0000

> <Gold.Chemscore.Lipo>
80.9319

> <Gold.Chemscore.Internal_Hbond>
0.0000

> <Gold.Chemscore.DEClash>
1.3641

> <Gold.Chemscore.DEInternal>
0.7556

> <Gold.Chemscore.Rot>
1.6979

> <Gold.Chemscore.Internal.Correction>
   9.000000E+99

> <Gold.Chemscore.Hbonds>
donor molecule, donor type, donor heavy atom, donor atom, acceptor molecule, acceptor atom, score
      L1  H    11    30       P1  8028  0.95
      P1  H  7989  7998       L1     4  0.12

> <Gold.Chemscore.Hbond.Weighted>
-6.1898

> <Gold.Chemscore.Metal.Weighted>
-0.0000

> <Gold.Chemscore.Lipo.Weighted>
-9.4690

> <Gold.Chemscore.Internal_Hbond.Weighted>
0.0000

> <Gold.Chemscore.DEClash.Weighted>
1.3641

> <Gold.Chemscore.DEInternal.Weighted>
0.7556

> <Gold.Chemscore.Rot.Weighted>
4.3467

> <Gold.Chemscore.Internal.Correction.Weighted>
   9.000000E+99

> <Gold.Protein.RotatedTorsions>
[ 6907 6896 6895 6894 ] final   19.50 input  -60.11 | X-H torsion
[ 7974 7965 7964 7962 ] final   98.81 input  175.53 | X-H torsion
[ 8008 7997 7996 7995 ] final  179.44 input   59.86 | X-H torsion
[ 10167 10162 10161 10158 ] final -111.23 input  -65.29 | X-H torsion
[ 10718 10713 10712 10709 ] final  -27.81 input   66.30 | X-H torsion
[ 10763 10752 10751 10750 ] final   32.11 input  -60.55 | X-H torsion
[ 11005 11000 10999 10996 ] final  -68.99 input  -57.11 | X-H torsion

> <Gold.Protein.ActiveResidues>
 VAL166  LYS551  ARG553  GLY616  TRP617  ASP618  TYR619  PRO620  LYS621  CYS622 
 ASP623  PHE694  ASN695  SER759  ASP760  ASP761  ALA762  ILE779  LEU786  VAL792 
 PHE793  MET794  SER795  GLU796  ALA797  LYS798  CYS799  TRP800  GLU811  SER814 

> <Gold.Protein.RotatedAtoms>
  151.8818  135.0450  160.0489 H   0  0  0  0  0  0  0  0  0  0  0  0  # atno 6907 bound_to 6896
  152.2507  133.5208  159.5332 H   0  0  0  0  0  0  0  0  0  0  0  0  # atno 6908 bound_to 6896
  150.7083  134.0881  159.3964 H   0  0  0  0  0  0  0  0  0  0  0  0  # atno 6909 bound_to 6896
  145.4072  139.2339  143.3268 H   0  0  0  0  0  0  0  0  0  0  0  0  # atno 7974 bound_to 7965
  156.0434  140.1308  157.0131 H   0  0  0  0  0  0  0  0  0  0  0  0  # atno 8008 bound_to 7997
  154.4401  140.1025  156.6340 H   0  0  0  0  0  0  0  0  0  0  0  0  # atno 8009 bound_to 7997
  155.5633  140.3465  155.4499 H   0  0  0  0  0  0  0  0  0  0  0  0  # atno 8010 bound_to 7997
  140.1359  143.4321  152.1596 H   0  0  0  0  0  0  0  0  0  0  0  0  # atno 10167 bound_to 10162
  156.4333  130.4449  149.7102 H   0  0  0  0  0  0  0  0  0  0  0  0  # atno 10718 bound_to 10713
  153.0280  135.6422  154.1303 H   0  0  0  0  0  0  0  0  0  0  0  0  # atno 10763 bound_to 10752
  154.1030  135.2858  155.3249 H   0  0  0  0  0  0  0  0  0  0  0  0  # atno 10764 bound_to 10752
  154.6385  135.5468  153.7825 H   0  0  0  0  0  0  0  0  0  0  0  0  # atno 10765 bound_to 10752
  141.1544  133.6754  156.6531 H   0  0  0  0  0  0  0  0  0  0  0  0  # atno 11005 bound_to 11000
  146.2723  140.4778  142.8809 LP  0  0  0  0  0  0  0  0  0  0  0  0  # atno 17320 bound_to 7965
  144.8334  140.6743  143.6276 LP  0  0  0  0  0  0  0  0  0  0  0  0  # atno 17321 bound_to 7965
  139.5496  144.7327  151.4475 LP  0  0  0  0  0  0  0  0  0  0  0  0  # atno 17342 bound_to 10162
  140.6790  143.8126  150.7096 LP  0  0  0  0  0  0  0  0  0  0  0  0  # atno 17343 bound_to 10162
  156.3996  130.7668  151.2675 LP  0  0  0  0  0  0  0  0  0  0  0  0  # atno 17370 bound_to 10713
  157.7508  131.0243  150.3873 LP  0  0  0  0  0  0  0  0  0  0  0  0  # atno 17371 bound_to 10713
  140.3305  134.7933  157.4322 LP  0  0  0  0  0  0  0  0  0  0  0  0  # atno 17394 bound_to 11000
  140.1021  134.5459  155.8343 LP  0  0  0  0  0  0  0  0  0  0  0  0  # atno 17395 bound_to 11000

$$$$
