AV-unprocessed.smi:224|AV-procd|sdf|1710|dock6
  -GOLD-   2262020173D 1   1.00000     0.00000
 Structure written by MMmdl.
 56 59  0  0  0  0  0  0  0  0  2 V2000
  146.0237  133.2749  150.3595 C   0  0  0  0  0  0  0  0  0  0  0  0
  145.1041  134.3688  150.9175 C   0  0  1  0  0  0  0  0  0  0  0  0
  144.5223  135.0540  149.8269 O   0  0  0  0  0  0  0  0  0  0  0  0
  143.9882  133.7848  151.8078 C   0  0  0  0  0  0  0  0  0  0  0  0
  144.3987  133.5686  153.2231 N   0  3  1  0  0  0  0  0  0  0  0  0
  145.6683  132.8009  153.3239 C   0  0  0  0  0  0  0  0  0  0  0  0
  145.9941  132.4459  154.7853 C   0  0  0  0  0  0  0  0  0  0  0  0
  145.9802  133.6357  155.6327 N   0  0  0  0  0  0  0  0  0  0  0  0
  147.1310  134.3360  155.8256 C   0  0  0  0  0  0  0  0  0  0  0  0
  147.0940  135.5162  156.5008 N   0  0  0  0  0  0  0  0  0  0  0  0
  148.2146  136.2093  156.7197 C   0  0  0  0  0  0  0  0  0  0  0  0
  149.4619  135.9125  156.3542 N   0  0  0  0  0  0  0  0  0  0  0  0
  149.5092  134.7374  155.6647 C   0  0  0  0  0  0  0  0  0  0  0  0
  148.4023  133.8966  155.3544 C   0  0  0  0  0  0  0  0  0  0  0  0
  148.8385  132.8001  154.6195 N   0  0  0  0  0  0  0  0  0  0  0  0
  150.1274  132.9749  154.5150 C   0  0  0  0  0  0  0  0  0  0  0  0
  150.6168  134.1079  155.1238 N   0  0  0  0  0  0  0  0  0  0  0  0
  152.0048  134.5441  155.1625 C   0  0  0  0  0  0  0  0  0  0  0  0
  152.2132  135.9881  154.6480 C   0  0  1  0  0  0  0  0  0  0  0  0
  151.3561  136.2103  153.5409 O   0  0  0  0  0  0  0  0  0  0  0  0
  151.9148  137.0443  155.7038 C   0  0  0  0  0  0  0  0  0  0  0  0
  152.8069  138.2029  155.2789 C   0  0  0  0  0  0  0  0  0  0  0  0
  153.9959  137.5544  154.8597 O   0  0  0  0  0  0  0  0  0  0  0  0
  153.6577  136.3248  154.2234 C   0  0  0  0  0  0  0  0  0  0  0  0
  144.7357  134.3986  155.5618 C   0  0  0  0  0  0  0  0  0  0  0  0
  144.3693  134.7759  154.1082 C   0  0  1  0  0  0  0  0  0  0  0  0
  145.2204  135.9505  153.5799 C   0  0  0  0  0  0  0  0  0  0  0  0
  146.5129  132.7276  151.1657 H   0  0  0  0  0  0  0  0  0  0  0  0
  146.8064  133.7009  149.7307 H   0  0  0  0  0  0  0  0  0  0  0  0
  145.4688  132.5541  149.7579 H   0  0  0  0  0  0  0  0  0  0  0  0
  145.7211  135.0686  151.4798 H   0  0  0  0  0  0  0  0  0  0  0  0
  145.0590  134.9180  149.0609 H   0  0  0  0  0  0  0  0  0  0  0  0
  143.1425  134.4742  151.7923 H   0  0  0  0  0  0  0  0  0  0  0  0
  143.6139  132.8521  151.3848 H   0  0  0  0  0  0  0  0  0  0  0  0
  145.5888  131.8798  152.7458 H   0  0  0  0  0  0  0  0  0  0  0  0
  146.4813  133.3762  152.8799 H   0  0  0  0  0  0  0  0  0  0  0  0
  145.2430  131.7536  155.1672 H   0  0  0  0  0  0  0  0  0  0  0  0
  146.9474  131.9202  154.8541 H   0  0  0  0  0  0  0  0  0  0  0  0
  148.0953  137.1321  157.2678 H   0  0  0  0  0  0  0  0  0  0  0  0
  150.7622  132.2756  153.9902 H   0  0  0  0  0  0  0  0  0  0  0  0
  152.3620  134.4548  156.1893 H   0  0  0  0  0  0  0  0  0  0  0  0
  152.5992  133.8456  154.5722 H   0  0  0  0  0  0  0  0  0  0  0  0
  151.6275  135.6438  152.8347 H   0  0  0  0  0  0  0  0  0  0  0  0
  150.8601  137.3150  155.7705 H   0  0  0  0  0  0  0  0  0  0  0  0
  152.2309  136.6953  156.6879 H   0  0  0  0  0  0  0  0  0  0  0  0
  152.3711  138.7465  154.4393 H   0  0  0  0  0  0  0  0  0  0  0  0
  152.9972  138.9093  156.0870 H   0  0  0  0  0  0  0  0  0  0  0  0
  154.3713  135.5733  154.5584 H   0  0  0  0  0  0  0  0  0  0  0  0
  153.7630  136.4140  153.1411 H   0  0  0  0  0  0  0  0  0  0  0  0
  143.9464  133.7732  155.9803 H   0  0  0  0  0  0  0  0  0  0  0  0
  144.7596  135.2950  156.1790 H   0  0  0  0  0  0  0  0  0  0  0  0
  143.3405  135.1303  154.1543 H   0  0  0  0  0  0  0  0  0  0  0  0
  145.2171  136.7783  154.2896 H   0  0  0  0  0  0  0  0  0  0  0  0
  144.8307  136.3415  152.6405 H   0  0  0  0  0  0  0  0  0  0  0  0
  146.2597  135.6678  153.4167 H   0  0  0  0  0  0  0  0  0  0  0  0
  143.6953  132.9521  153.6050 H   0  0  0  0  0  0  0  0  0  0  0  0
  1  2  1  0  0  0  0
  1 28  1  0  0  0  0
  1 29  1  0  0  0  0
  1 30  1  0  0  0  0
  2  3  1  0  0  0  0
  2  4  1  0  0  0  0
  2 31  1  0  0  0  0
  3 32  1  0  0  0  0
  4  5  1  0  0  0  0
  4 33  1  0  0  0  0
  4 34  1  0  0  0  0
  5 26  1  0  0  0  0
  5  6  1  0  0  0  0
  5 56  1  0  0  0  0
  6  7  1  0  0  0  0
  6 35  1  0  0  0  0
  6 36  1  0  0  0  0
  7  8  1  0  0  0  0
  7 37  1  0  0  0  0
  7 38  1  0  0  0  0
  8  9  1  0  0  0  0
  8 25  1  0  0  0  0
  9 14  1  0  0  0  0
  9 10  2  0  0  0  0
 10 11  1  0  0  0  0
 11 12  2  0  0  0  0
 11 39  1  0  0  0  0
 12 13  1  0  0  0  0
 13 17  1  0  0  0  0
 13 14  2  0  0  0  0
 14 15  1  0  0  0  0
 15 16  2  0  0  0  0
 16 17  1  0  0  0  0
 16 40  1  0  0  0  0
 17 18  1  0  0  0  0
 18 19  1  0  0  0  0
 18 41  1  0  0  0  0
 18 42  1  0  0  0  0
 19 24  1  0  0  0  0
 19 20  1  0  0  0  0
 19 21  1  0  0  0  0
 20 43  1  0  0  0  0
 21 22  1  0  0  0  0
 21 44  1  0  0  0  0
 21 45  1  0  0  0  0
 22 23  1  0  0  0  0
 22 46  1  0  0  0  0
 22 47  1  0  0  0  0
 23 24  1  0  0  0  0
 24 48  1  0  0  0  0
 24 49  1  0  0  0  0
 25 26  1  0  0  0  0
 25 50  1  0  0  0  0
 25 51  1  0  0  0  0
 26 27  1  0  0  0  0
 26 52  1  0  0  0  0
 27 53  1  0  0  0  0
 27 54  1  0  0  0  0
 27 55  1  0  0  0  0
M  CHG  1   5   1
M  END
> <s_m_source_file>
AV-unprocessed.smi

> <i_m_source_file_index>
224

> <i_lp_mmshare_version>
43012

> <i_f3d_flags>
0

> <s_epik_input>
W0NIM11bQ0BIXShbT0hdKVtDSDJdTjFbQ0gyXVtDSDJdTihbQ0gyXVtDQEhdMVtDSDNdKWMobltjSF1uMiljKGMyMyluW2NIXW4zW0NIMl1bQ0BAXTQoW09IXSlbQ0gyXVtDSDJdT1tDSDJdNA==

> <s_epik_cmdline>
J2VwaWtfcHl0aG9uJywgJy1waCcsICc3LjAnLCAnLXRuJywgJzgnLCAnLW1hJywgJzIwMCcsICctbWV0YWxfYmluZGluZycsICctaW1hZScsICc8aW5maWxlLm1hZT4nLCAnLW9tYWUnLCAnPG91dGZpbGUubWFlPic=

> <r_lp_tautomer_probability>
1

> <r_epik_Ionization_Penalty>
0.00516958

> <r_epik_Ionization_Penalty_Charging>
0.00509693

> <r_epik_Ionization_Penalty_Neutral>
7.26542e-05

> <r_epik_State_Penalty>
-0

> <r_epik_Charging_Adjusted_Penalty>
0.00509693

> <i_epik_Tot_Q>
1

> <i_epik_Tot_abs_Q>
1

> <r_epik_Metal_State_Penalty>
-0

> <b_epik_Metal_Only>
0

> <s_lp_Force_Field>
OPLS_2005

> <r_lp_Energy>
49.6762

> <b_lp_Chiralities_Consistent>
1

> <s_lp_Variant>
AV-unprocessed.smi:224-4

> <Gold.Version>
5.8.1

> <Gold.Id.Protein>
6NUR|6NUR_protein|mol2

> <Gold.PLP.Fitness>
44.6147

> <Gold.PLP.PLP>
-31.3582

> <Gold.PLP.part.hbond>
-5.8770

> <Gold.PLP.part.metal>
0.0000

> <Gold.PLP.part.buried>
-3.2875

> <Gold.PLP.part.nonpolar>
-22.8194

> <Gold.PLP.part.repulsive>
0.0819

> <Gold.PLP.ligand.clash>
0.0000

> <Gold.PLP.ligand.torsion>
0.9341

> <Gold.PLP.Chemscore.Hbond>
4.9262

> <Gold.PLP.Chemscore.CHOScore>
0.0000

> <Gold.PLP.Chemscore.Metal>
0.0000

> <Gold.Chemscore.Hbonds>
donor molecule, donor type, donor heavy atom, donor atom, acceptor molecule, acceptor atom, score
      L1  H     3    32       P1  7921  1.00
      L1  H     5    56       P1 10957  2.00
      L1  H    20    43       P1  7949  0.30

> <Gold.PLP.Chemscore.Internal.Correction>
0.3458

> <Gold.Rescore>
     Score         DG    S(hbond)    S(metal)    S(lipo)     H(rot)  DE(clash)    DE(int)     intcor
     12.01     -16.26       3.34        0.00      62.92       3.02       0.48       3.76       ----

> <Gold.Chemscore.Fitness>
12.0146

> <Gold.Chemscore.DG>
-16.2560

> <Gold.Chemscore.ZeroCoef>
-5.4800

> <Gold.Chemscore.Hbond>
3.3395

> <Gold.Chemscore.Metal>
0.0000

> <Gold.Chemscore.Lipo>
62.9170

> <Gold.Chemscore.Internal_Hbond>
0.0000

> <Gold.Chemscore.DEClash>
0.4778

> <Gold.Chemscore.DEInternal>
3.7636

> <Gold.Chemscore.Rot>
3.0231

> <Gold.Chemscore.Internal.Correction>
   9.000000E+99

> <Gold.Chemscore.Hbonds>
donor molecule, donor type, donor heavy atom, donor atom, acceptor molecule, acceptor atom, score
      L1  H     3    32       P1  7921  1.00
      L1  H     5    56       P1 10957  0.87
      L1  H    20    43       P1  7949  0.28

> <Gold.Chemscore.Hbond.Weighted>
-11.1538

> <Gold.Chemscore.Metal.Weighted>
-0.0000

> <Gold.Chemscore.Lipo.Weighted>
-7.3613

> <Gold.Chemscore.Internal_Hbond.Weighted>
0.0000

> <Gold.Chemscore.DEClash.Weighted>
0.4778

> <Gold.Chemscore.DEInternal.Weighted>
3.7636

> <Gold.Chemscore.Rot.Weighted>
7.7391

> <Gold.Chemscore.Internal.Correction.Weighted>
   9.000000E+99

> <Gold.Protein.RotatedTorsions>
[ 6907 6896 6895 6894 ] final  137.59 input  -60.11 | X-H torsion
[ 7974 7965 7964 7962 ] final -102.27 input  175.53 | X-H torsion
[ 8008 7997 7996 7995 ] final -134.73 input   59.86 | X-H torsion
[ 10167 10162 10161 10158 ] final -115.71 input  -65.29 | X-H torsion
[ 10718 10713 10712 10709 ] final   52.32 input   66.30 | X-H torsion
[ 10763 10752 10751 10750 ] final    5.42 input  -60.55 | X-H torsion
[ 11005 11000 10999 10996 ] final  -64.79 input  -57.11 | X-H torsion

> <Gold.Protein.ActiveResidues>
 VAL166  LYS551  ARG553  GLY616  TRP617  ASP618  TYR619  PRO620  LYS621  CYS622 
 ASP623  PHE694  ASN695  SER759  ASP760  ASP761  ALA762  ILE779  LEU786  VAL792 
 PHE793  MET794  SER795  GLU796  ALA797  LYS798  CYS799  TRP800  GLU811  SER814 

> <Gold.Protein.RotatedAtoms>
  152.2763  133.5428  159.5469 H   0  0  0  0  0  0  0  0  0  0  0  0  # atno 6907 bound_to 6896
  150.7178  134.0627  159.3846 H   0  0  0  0  0  0  0  0  0  0  0  0  # atno 6908 bound_to 6896
  151.8540  135.0548  160.0513 H   0  0  0  0  0  0  0  0  0  0  0  0  # atno 6909 bound_to 6896
  145.2709  140.9298  143.2987 H   0  0  0  0  0  0  0  0  0  0  0  0  # atno 7974 bound_to 7965
  155.3669  140.0486  157.3046 H   0  0  0  0  0  0  0  0  0  0  0  0  # atno 8008 bound_to 7997
  154.5150  140.2205  155.9047 H   0  0  0  0  0  0  0  0  0  0  0  0  # atno 8009 bound_to 7997
  156.1626  140.3113  155.8838 H   0  0  0  0  0  0  0  0  0  0  0  0  # atno 8010 bound_to 7997
  140.0871  143.4733  152.1891 H   0  0  0  0  0  0  0  0  0  0  0  0  # atno 10167 bound_to 10162
  157.5064  130.8471  149.8380 H   0  0  0  0  0  0  0  0  0  0  0  0  # atno 10718 bound_to 10713
  153.2596  135.6922  153.7592 H   0  0  0  0  0  0  0  0  0  0  0  0  # atno 10763 bound_to 10752
  153.6656  135.3353  155.3140 H   0  0  0  0  0  0  0  0  0  0  0  0  # atno 10764 bound_to 10752
  154.8425  135.4487  154.1582 H   0  0  0  0  0  0  0  0  0  0  0  0  # atno 10765 bound_to 10752
  141.1435  133.6671  156.5887 H   0  0  0  0  0  0  0  0  0  0  0  0  # atno 11005 bound_to 11000
  144.9336  139.4270  143.6483 LP  0  0  0  0  0  0  0  0  0  0  0  0  # atno 17320 bound_to 7965
  146.3246  139.8259  142.8917 LP  0  0  0  0  0  0  0  0  0  0  0  0  # atno 17321 bound_to 7965
  139.5746  144.7480  151.3800 LP  0  0  0  0  0  0  0  0  0  0  0  0  # atno 17342 bound_to 10162
  140.7047  143.7542  150.7462 LP  0  0  0  0  0  0  0  0  0  0  0  0  # atno 17343 bound_to 10162
  156.0261  130.3779  150.1820 LP  0  0  0  0  0  0  0  0  0  0  0  0  # atno 17370 bound_to 10713
  157.0010  130.9922  151.3391 LP  0  0  0  0  0  0  0  0  0  0  0  0  # atno 17371 bound_to 10713
  140.3780  134.7548  157.4642 LP  0  0  0  0  0  0  0  0  0  0  0  0  # atno 17394 bound_to 11000
  140.0659  134.5930  155.8695 LP  0  0  0  0  0  0  0  0  0  0  0  0  # atno 17395 bound_to 11000

$$$$
