AV-unprocessed.smi:113|AV-procd|sdf|1100|dock8
  -GOLD-   2262018213D 1   1.00000     0.00000
 Structure written by MMmdl.
 53 56  0  0  0  0  0  0  0  0  2 V2000
  148.7066  142.0266  154.9974 C   0  0  0  0  0  0  0  0  0  0  0  0
  149.7530  141.6850  156.0369 C   0  0  0  0  0  0  0  0  0  0  0  0
  150.2807  140.3862  156.1690 C   0  0  0  0  0  0  0  0  0  0  0  0
  151.2594  140.1172  157.1580 C   0  0  0  0  0  0  0  0  0  0  0  0
  151.8489  138.7128  157.3275 C   0  0  0  0  0  0  0  0  0  0  0  0
  150.9219  137.5939  157.2338 N   0  0  0  0  0  0  0  0  0  0  0  0
  149.8379  137.5578  158.1427 C   0  0  0  0  0  0  0  0  0  0  0  0
  149.6705  138.4467  158.9807 O   0  0  0  0  0  0  0  0  0  0  0  0
  148.9410  136.4100  157.9949 C   0  0  0  0  0  0  0  0  0  0  0  0
  147.7773  136.2841  158.9662 C   0  0  0  0  0  0  0  0  0  0  0  0
  149.1666  135.4982  157.0176 C   0  0  0  0  0  0  0  0  0  0  0  0
  150.2180  135.5755  156.1146 N   0  0  0  0  0  0  0  0  0  0  0  0
  150.4360  134.5722  154.9961 C   0  0  1  0  0  0  0  0  0  0  0  0
  150.1854  133.1089  155.3503 C   0  0  0  0  0  0  0  0  0  0  0  0
  150.0451  132.5262  153.9591 C   0  0  1  0  0  0  0  0  0  0  0  0
  149.3372  131.3023  153.9911 O   0  0  0  0  0  0  0  0  0  0  0  0
  149.3617  133.6687  153.1710 C   0  0  1  0  0  0  0  0  0  0  0  0
  147.8561  133.5048  152.8879 C   0  0  0  0  0  0  0  0  0  0  0  0
  147.6456  132.6882  151.7548 O   0  0  0  0  0  0  0  0  0  0  0  0
  149.5123  134.8316  153.9876 O   0  0  0  0  0  0  0  0  0  0  0  0
  151.1367  136.6421  156.2124 C   0  0  0  0  0  0  0  0  0  0  0  0
  152.0804  136.7395  155.4235 O   0  0  0  0  0  0  0  0  0  0  0  0
  151.6845  141.1864  157.9937 C   0  0  0  0  0  0  0  0  0  0  0  0
  152.6584  141.0111  159.0059 C   0  0  0  0  0  0  0  0  0  0  0  0
  153.0534  142.0954  159.8139 C   0  0  0  0  0  0  0  0  0  0  0  0
  152.4831  143.3681  159.6233 C   0  0  0  0  0  0  0  0  0  0  0  0
  151.5138  143.5601  158.6215 C   0  0  0  0  0  0  0  0  0  0  0  0
  151.1172  142.4768  157.8121 C   0  0  0  0  0  0  0  0  0  0  0  0
  150.1873  142.6674  156.8525 N   0  3  0  0  0  0  0  0  0  0  0  0
  148.1490  141.1374  154.7017 H   0  0  0  0  0  0  0  0  0  0  0  0
  149.1800  142.4453  154.1092 H   0  0  0  0  0  0  0  0  0  0  0  0
  147.9963  142.7566  155.3871 H   0  0  0  0  0  0  0  0  0  0  0  0
  149.9256  139.6106  155.5071 H   0  0  0  0  0  0  0  0  0  0  0  0
  152.6387  138.5460  156.5933 H   0  0  0  0  0  0  0  0  0  0  0  0
  152.3566  138.6312  158.2900 H   0  0  0  0  0  0  0  0  0  0  0  0
  147.1732  135.3985  158.7670 H   0  0  0  0  0  0  0  0  0  0  0  0
  147.1243  137.1546  158.8940 H   0  0  0  0  0  0  0  0  0  0  0  0
  148.1424  136.2136  159.9914 H   0  0  0  0  0  0  0  0  0  0  0  0
  148.4812  134.6678  156.9737 H   0  0  0  0  0  0  0  0  0  0  0  0
  151.4566  134.7415  154.6455 H   0  0  0  0  0  0  0  0  0  0  0  0
  150.9994  132.6840  155.9384 H   0  0  0  0  0  0  0  0  0  0  0  0
  149.2368  133.0025  155.8778 H   0  0  0  0  0  0  0  0  0  0  0  0
  151.0375  132.3455  153.5430 H   0  0  0  0  0  0  0  0  0  0  0  0
  149.4408  130.9172  154.8485 H   0  0  0  0  0  0  0  0  0  0  0  0
  149.8967  133.8429  152.2363 H   0  0  0  0  0  0  0  0  0  0  0  0
  147.3314  133.0957  153.7518 H   0  0  0  0  0  0  0  0  0  0  0  0
  147.4098  134.4770  152.6772 H   0  0  0  0  0  0  0  0  0  0  0  0
  148.4510  132.6426  151.2625 H   0  0  0  0  0  0  0  0  0  0  0  0
  153.1184  140.0503  159.1814 H   0  0  0  0  0  0  0  0  0  0  0  0
  153.7975  141.9495  160.5834 H   0  0  0  0  0  0  0  0  0  0  0  0
  152.7895  144.1964  160.2455 H   0  0  0  0  0  0  0  0  0  0  0  0
  151.0800  144.5395  158.4795 H   0  0  0  0  0  0  0  0  0  0  0  0
  149.7934  143.6012  156.7390 H   0  0  0  0  0  0  0  0  0  0  0  0
  1  2  1  0  0  0  0
  1 30  1  0  0  0  0
  1 31  1  0  0  0  0
  1 32  1  0  0  0  0
  2 29  1  0  0  0  0
  2  3  2  0  0  0  0
  3  4  1  0  0  0  0
  3 33  1  0  0  0  0
  4  5  1  0  0  0  0
  4 23  2  0  0  0  0
  5  6  1  0  0  0  0
  5 34  1  0  0  0  0
  5 35  1  0  0  0  0
  6 21  1  0  0  0  0
  6  7  1  0  0  0  0
  7  8  2  0  0  0  0
  7  9  1  0  0  0  0
  9 10  1  0  0  0  0
  9 11  2  0  0  0  0
 10 36  1  0  0  0  0
 10 37  1  0  0  0  0
 10 38  1  0  0  0  0
 11 12  1  0  0  0  0
 11 39  1  0  0  0  0
 12 13  1  0  0  0  0
 12 21  1  0  0  0  0
 13 20  1  0  0  0  0
 13 14  1  0  0  0  0
 13 40  1  0  0  0  0
 14 15  1  0  0  0  0
 14 41  1  0  0  0  0
 14 42  1  0  0  0  0
 15 16  1  0  0  0  0
 15 17  1  0  0  0  0
 15 43  1  0  0  0  0
 16 44  1  0  0  0  0
 17 18  1  0  0  0  0
 17 20  1  0  0  0  0
 17 45  1  0  0  0  0
 18 19  1  0  0  0  0
 18 46  1  0  0  0  0
 18 47  1  0  0  0  0
 19 48  1  0  0  0  0
 21 22  2  0  0  0  0
 23 28  1  0  0  0  0
 23 24  1  0  0  0  0
 24 25  2  0  0  0  0
 24 49  1  0  0  0  0
 25 26  1  0  0  0  0
 25 50  1  0  0  0  0
 26 27  2  0  0  0  0
 26 51  1  0  0  0  0
 27 28  1  0  0  0  0
 27 52  1  0  0  0  0
 28 29  2  0  0  0  0
 29 53  1  0  0  0  0
M  CHG  1  29   1
M  END
> <s_m_source_file>
AV-unprocessed.smi

> <i_m_source_file_index>
113

> <i_lp_mmshare_version>
43012

> <i_f3d_flags>
0

> <s_epik_input>
W2NIXTFbY0hdW2NIXVtjSF1jKGMxMiluYyhbQ0gzXSlbY0hdYzJbQ0gyXW4zYyg9TyljKFtDSDNdKVtjSF1uKGMzPU8pW0NAQEhdNFtDSDJdW0NAQEhdKFtPSF0pW0NASF0oTzQpW0NIMl1bT0hd

> <s_epik_cmdline>
J2VwaWtfcHl0aG9uJywgJy1waCcsICc3LjAnLCAnLXRuJywgJzgnLCAnLW1hJywgJzIwMCcsICctbWV0YWxfYmluZGluZycsICctaW1hZScsICc8aW5maWxlLm1hZT4nLCAnLW9tYWUnLCAnPG91dGZpbGUubWFlPic=

> <r_lp_tautomer_probability>
1

> <r_epik_Ionization_Penalty>
0.705471

> <r_epik_Ionization_Penalty_Charging>
0.70547

> <r_epik_Ionization_Penalty_Neutral>
1.19947e-07

> <r_epik_State_Penalty>
0.728574

> <r_epik_Charging_Adjusted_Penalty>
1.43404

> <i_epik_Tot_Q>
1

> <i_epik_Tot_abs_Q>
1

> <r_epik_Metal_State_Penalty>
4.61665

> <b_epik_Metal_Only>
0

> <s_epik_Chemistry_Notes>
This compound contains an acetal/aminal-like group ( X-CH(R)-Y where X, Y are N, S, or O) that may be acid/base labile, releasing an aldehyde.

> <s_lp_Force_Field>
OPLS_2005

> <r_lp_Energy>
46.487

> <b_lp_Chiralities_Consistent>
1

> <s_lp_Variant>
AV-unprocessed.smi:113-10

> <Gold.Version>
5.8.1

> <Gold.Id.Protein>
6NUR|6NUR_protein|mol2

> <Gold.PLP.Fitness>
58.2069

> <Gold.PLP.PLP>
-49.4079

> <Gold.PLP.part.hbond>
-4.1159

> <Gold.PLP.part.metal>
0.0000

> <Gold.PLP.part.buried>
-6.3582

> <Gold.PLP.part.nonpolar>
-39.0173

> <Gold.PLP.part.repulsive>
0.3056

> <Gold.PLP.ligand.clash>
0.0000

> <Gold.PLP.ligand.torsion>
0.9536

> <Gold.PLP.Chemscore.Hbond>
3.5600

> <Gold.PLP.Chemscore.CHOScore>
0.0000

> <Gold.PLP.Chemscore.Metal>
0.0000

> <Gold.Chemscore.Hbonds>
donor molecule, donor type, donor heavy atom, donor atom, acceptor molecule, acceptor atom, score
      L1  H    19    48       P1 10747  0.35
      L1  H    29    53       P1  8028  1.89
      P1  H 10752 10763       L1    22  1.00

> <Gold.PLP.Chemscore.Internal.Correction>
0.0261

> <Gold.Rescore>
     Score         DG    S(hbond)    S(metal)    S(lipo)     H(rot)  DE(clash)    DE(int)     intcor
     17.78     -19.92       2.97        0.00     104.46       3.01       0.02       2.12       ----

> <Gold.Chemscore.Fitness>
17.7842

> <Gold.Chemscore.DG>
-19.9219

> <Gold.Chemscore.ZeroCoef>
-5.4800

> <Gold.Chemscore.Hbond>
2.9733

> <Gold.Chemscore.Metal>
0.0000

> <Gold.Chemscore.Lipo>
104.4598

> <Gold.Chemscore.Internal_Hbond>
0.0000

> <Gold.Chemscore.DEClash>
0.0166

> <Gold.Chemscore.DEInternal>
2.1211

> <Gold.Chemscore.Rot>
3.0120

> <Gold.Chemscore.Internal.Correction>
   9.000000E+99

> <Gold.Chemscore.Hbonds>
donor molecule, donor type, donor heavy atom, donor atom, acceptor molecule, acceptor atom, score
      L1  H    19    48       P1 10747  0.35
      L1  H    29    53       P1  8028  0.91
      P1  H 10752 10763       L1    22  0.96

> <Gold.Chemscore.Hbond.Weighted>
-9.9309

> <Gold.Chemscore.Metal.Weighted>
-0.0000

> <Gold.Chemscore.Lipo.Weighted>
-12.2218

> <Gold.Chemscore.Internal_Hbond.Weighted>
0.0000

> <Gold.Chemscore.DEClash.Weighted>
0.0166

> <Gold.Chemscore.DEInternal.Weighted>
2.1211

> <Gold.Chemscore.Rot.Weighted>
7.7108

> <Gold.Chemscore.Internal.Correction.Weighted>
   9.000000E+99

> <Gold.Protein.RotatedTorsions>
[ 6907 6896 6895 6894 ] final   82.26 input  -60.11 | X-H torsion
[ 7974 7965 7964 7962 ] final  -36.95 input  175.53 | X-H torsion
[ 8008 7997 7996 7995 ] final  -37.27 input   59.86 | X-H torsion
[ 10167 10162 10161 10158 ] final   48.87 input  -65.29 | X-H torsion
[ 10718 10713 10712 10709 ] final  -44.96 input   66.30 | X-H torsion
[ 10763 10752 10751 10750 ] final   72.18 input  -60.55 | X-H torsion
[ 11005 11000 10999 10996 ] final    0.21 input  -57.11 | X-H torsion

> <Gold.Protein.ActiveResidues>
 VAL166  LYS551  ARG553  GLY616  TRP617  ASP618  TYR619  PRO620  LYS621  CYS622 
 ASP623  PHE694  ASN695  SER759  ASP760  ASP761  ALA762  ILE779  LEU786  VAL792 
 PHE793  MET794  SER795  GLU796  ALA797  LYS798  CYS799  TRP800  GLU811  SER814 

> <Gold.Protein.RotatedAtoms>
  152.5293  134.3078  159.9101 H   0  0  0  0  0  0  0  0  0  0  0  0  # atno 6907 bound_to 6896
  151.3028  133.4108  159.2648 H   0  0  0  0  0  0  0  0  0  0  0  0  # atno 6908 bound_to 6896
  151.0105  134.9409  159.8061 H   0  0  0  0  0  0  0  0  0  0  0  0  # atno 6909 bound_to 6896
  146.0617  140.6338  142.8994 H   0  0  0  0  0  0  0  0  0  0  0  0  # atno 7974 bound_to 7965
  154.4057  140.1608  156.2509 H   0  0  0  0  0  0  0  0  0  0  0  0  # atno 8008 bound_to 7997
  155.9120  140.3427  155.6083 H   0  0  0  0  0  0  0  0  0  0  0  0  # atno 8009 bound_to 7997
  155.7325  140.0782  157.2273 H   0  0  0  0  0  0  0  0  0  0  0  0  # atno 8010 bound_to 7997
  140.2888  144.3070  150.6245 H   0  0  0  0  0  0  0  0  0  0  0  0  # atno 10167 bound_to 10162
  156.2332  130.4174  149.8849 H   0  0  0  0  0  0  0  0  0  0  0  0  # atno 10718 bound_to 10713
  153.0443  135.5109  154.7705 H   0  0  0  0  0  0  0  0  0  0  0  0  # atno 10763 bound_to 10752
  154.6617  135.2939  154.9859 H   0  0  0  0  0  0  0  0  0  0  0  0  # atno 10764 bound_to 10752
  154.0708  135.6678  153.4876 H   0  0  0  0  0  0  0  0  0  0  0  0  # atno 10765 bound_to 10752
  140.6290  133.9592  155.8264 H   0  0  0  0  0  0  0  0  0  0  0  0  # atno 11005 bound_to 11000
  144.7179  140.4273  143.7030 LP  0  0  0  0  0  0  0  0  0  0  0  0  # atno 17320 bound_to 7965
  145.6548  139.1571  143.2842 LP  0  0  0  0  0  0  0  0  0  0  0  0  # atno 17321 bound_to 7965
  140.5750  143.2177  151.7532 LP  0  0  0  0  0  0  0  0  0  0  0  0  # atno 17342 bound_to 10162
  139.4943  144.4163  152.0026 LP  0  0  0  0  0  0  0  0  0  0  0  0  # atno 17343 bound_to 10162
  156.6456  130.8723  151.3522 LP  0  0  0  0  0  0  0  0  0  0  0  0  # atno 17370 bound_to 10713
  157.7142  130.9477  150.1197 LP  0  0  0  0  0  0  0  0  0  0  0  0  # atno 17371 bound_to 10713
  141.0688  134.0236  157.3555 LP  0  0  0  0  0  0  0  0  0  0  0  0  # atno 17394 bound_to 11000
  139.9123  135.0192  156.7742 LP  0  0  0  0  0  0  0  0  0  0  0  0  # atno 17395 bound_to 11000

$$$$
