AV-unprocessed.smi:2871|AV-procd|sdf|11030|dock7
  -GOLD-   2272015493D 1   1.00000     0.00000
 Structure written by MMmdl.
 38 40  0  0  0  0  0  0  0  0  1 V2000
  152.0533  144.9439  160.4032 C   0  0  0  0  0  0  0  0  0  0  0  0
  151.9783  144.1130  159.2061 N   0  0  0  0  0  0  0  0  0  0  0  0
  151.7172  144.7216  157.9078 C   0  0  0  0  0  0  0  0  0  0  0  0
  152.2599  142.7319  159.2959 C   0  0  0  0  0  0  0  0  0  0  0  0
  153.2832  142.2259  160.1342 C   0  0  0  0  0  0  0  0  0  0  0  0
  153.4705  140.8252  160.1444 C   0  0  0  0  0  0  0  0  0  0  0  0
  154.5337  140.1581  161.0041 C   0  0  0  0  0  0  0  0  0  0  0  0
  155.7407  140.3882  160.4864 F   0  0  0  0  0  0  0  0  0  0  0  0
  154.5161  140.6202  162.2549 F   0  0  0  0  0  0  0  0  0  0  0  0
  154.3233  138.8421  161.0372 F   0  0  0  0  0  0  0  0  0  0  0  0
  152.7068  140.0046  159.3889 N   0  0  0  0  0  0  0  0  0  0  0  0
  151.7702  140.5748  158.6320 C   0  0  0  0  0  0  0  0  0  0  0  0
  151.0052  139.7067  157.8751 N   0  0  0  0  0  0  0  0  0  0  0  0
  150.0358  140.1221  156.8689 C   0  0  2  0  0  0  0  0  0  0  0  0
  149.4506  138.9474  156.0750 C   0  0  0  0  0  0  0  0  0  0  0  0
  149.7677  139.3533  154.6305 C   0  0  1  0  0  0  0  0  0  0  0  0
  148.9469  140.5668  154.1725 C   0  0  0  0  0  0  0  0  0  0  0  0
  149.6190  141.7059  154.9388 C   0  0  0  0  0  0  0  0  0  0  0  0
  150.6835  140.9559  155.7507 C   0  0  2  0  0  0  0  0  0  0  0  0
  151.0389  139.9503  154.8151 O   0  0  0  0  0  0  0  0  0  0  0  0
  151.5138  141.8839  158.5477 N   0  0  0  0  0  0  0  0  0  0  0  0
  151.3385  144.6008  161.1519 H   0  0  0  0  0  0  0  0  0  0  0  0
  151.8272  145.9864  160.1792 H   0  0  0  0  0  0  0  0  0  0  0  0
  153.0538  144.9038  160.8354 H   0  0  0  0  0  0  0  0  0  0  0  0
  150.8323  144.2798  157.4485 H   0  0  0  0  0  0  0  0  0  0  0  0
  152.5670  144.5791  157.2396 H   0  0  0  0  0  0  0  0  0  0  0  0
  151.5426  145.7936  158.0002 H   0  0  0  0  0  0  0  0  0  0  0  0
  153.8998  142.8683  160.7442 H   0  0  0  0  0  0  0  0  0  0  0  0
  151.0779  138.7222  158.0873 H   0  0  0  0  0  0  0  0  0  0  0  0
  149.2508  140.7012  157.3574 H   0  0  0  0  0  0  0  0  0  0  0  0
  149.9497  138.0081  156.3184 H   0  0  0  0  0  0  0  0  0  0  0  0
  148.3820  138.8155  156.2476 H   0  0  0  0  0  0  0  0  0  0  0  0
  149.7602  138.5213  153.9261 H   0  0  0  0  0  0  0  0  0  0  0  0
  149.0438  140.7201  153.0971 H   0  0  0  0  0  0  0  0  0  0  0  0
  147.8876  140.4624  154.4099 H   0  0  0  0  0  0  0  0  0  0  0  0
  150.0857  142.4078  154.2469 H   0  0  0  0  0  0  0  0  0  0  0  0
  148.9244  142.2607  155.5707 H   0  0  0  0  0  0  0  0  0  0  0  0
  151.5100  141.5891  156.0761 H   0  0  0  0  0  0  0  0  0  0  0  0
  1  2  1  0  0  0  0
  1 22  1  0  0  0  0
  1 23  1  0  0  0  0
  1 24  1  0  0  0  0
  2  3  1  0  0  0  0
  2  4  1  0  0  0  0
  3 25  1  0  0  0  0
  3 26  1  0  0  0  0
  3 27  1  0  0  0  0
  4 21  1  0  0  0  0
  4  5  2  0  0  0  0
  5  6  1  0  0  0  0
  5 28  1  0  0  0  0
  6  7  1  0  0  0  0
  6 11  2  0  0  0  0
  7  8  1  0  0  0  0
  7  9  1  0  0  0  0
  7 10  1  0  0  0  0
 11 12  1  0  0  0  0
 12 13  1  0  0  0  0
 12 21  2  0  0  0  0
 13 14  1  0  0  0  0
 13 29  1  0  0  0  0
 14 19  1  0  0  0  0
 14 15  1  0  0  0  0
 14 30  1  0  0  0  0
 15 16  1  0  0  0  0
 15 31  1  0  0  0  0
 15 32  1  0  0  0  0
 16 20  1  0  0  0  0
 16 17  1  0  0  0  0
 16 33  1  0  0  0  0
 17 18  1  0  0  0  0
 17 34  1  0  0  0  0
 17 35  1  0  0  0  0
 18 19  1  0  0  0  0
 18 36  1  0  0  0  0
 18 37  1  0  0  0  0
 19 20  1  0  0  0  0
 19 38  1  0  0  0  0
M  END
> <s_m_source_file>
AV-unprocessed.smi

> <i_m_source_file_index>
2871

> <i_lp_mmshare_version>
43012

> <i_f3d_flags>
0

> <s_epik_input>
W0NIM11OKFtDSDNdKWMxW2NIXWMoQyhGKShGKUYpbmMobjEpW05IXVtDQEhdKFtDSDJdW0NAQEhdMjMpW0NAQEhdKE8zKVtDSDJdW0NIMl0y

> <s_epik_cmdline>
J2VwaWtfcHl0aG9uJywgJy1waCcsICc3LjAnLCAnLXRuJywgJzgnLCAnLW1hJywgJzIwMCcsICctbWV0YWxfYmluZGluZycsICctaW1hZScsICc8aW5maWxlLm1hZT4nLCAnLW9tYWUnLCAnPG91dGZpbGUubWFlPic=

> <r_lp_tautomer_probability>
1

> <r_epik_Ionization_Penalty>
0.00695968

> <r_epik_Ionization_Penalty_Charging>
0

> <r_epik_Ionization_Penalty_Neutral>
0.00695968

> <r_epik_State_Penalty>
0.0050343

> <r_epik_Charging_Adjusted_Penalty>
0.0050343

> <i_epik_Tot_Q>
0

> <i_epik_Tot_abs_Q>
0

> <r_epik_Metal_State_Penalty>
-0

> <b_epik_Metal_Only>
0

> <s_lp_Force_Field>
OPLS_2005

> <r_lp_Energy>
32.5714

> <b_lp_Chiralities_Consistent>
1

> <s_lp_Variant>
AV-unprocessed.smi:2871-1

> <Gold.Version>
5.8.1

> <Gold.Id.Protein>
6NUR|6NUR_protein|mol2

> <Gold.PLP.Fitness>
46.3744

> <Gold.PLP.PLP>
-45.5106

> <Gold.PLP.part.hbond>
-1.0000

> <Gold.PLP.part.metal>
0.0000

> <Gold.PLP.part.buried>
-3.2823

> <Gold.PLP.part.nonpolar>
-40.9108

> <Gold.PLP.part.repulsive>
0.1483

> <Gold.PLP.ligand.clash>
0.0000

> <Gold.PLP.ligand.torsion>
1.0851

> <Gold.PLP.Chemscore.Hbond>
1.0000

> <Gold.PLP.Chemscore.CHOScore>
0.0000

> <Gold.PLP.Chemscore.Metal>
0.0000

> <Gold.Chemscore.Hbonds>
donor molecule, donor type, donor heavy atom, donor atom, acceptor molecule, acceptor atom, score
      P1  H  7989  7998       L1    20  1.00

> <Gold.PLP.Chemscore.Internal.Correction>
0.0340

> <Gold.Rescore>
     Score         DG    S(hbond)    S(metal)    S(lipo)     H(rot)  DE(clash)    DE(int)     intcor
     15.01     -16.11       0.85        0.00      88.41       1.00       0.52       0.58       ----

> <Gold.Chemscore.Fitness>
15.0069

> <Gold.Chemscore.DG>
-16.1084

> <Gold.Chemscore.ZeroCoef>
-5.4800

> <Gold.Chemscore.Hbond>
0.8516

> <Gold.Chemscore.Metal>
0.0000

> <Gold.Chemscore.Lipo>
88.4108

> <Gold.Chemscore.Internal_Hbond>
0.0000

> <Gold.Chemscore.DEClash>
0.5220

> <Gold.Chemscore.DEInternal>
0.5795

> <Gold.Chemscore.Rot>
1.0000

> <Gold.Chemscore.Internal.Correction>
   9.000000E+99

> <Gold.Chemscore.Hbonds>
donor molecule, donor type, donor heavy atom, donor atom, acceptor molecule, acceptor atom, score
      P1  H  7989  7998       L1    20  0.32

> <Gold.Chemscore.Hbond.Weighted>
-2.8443

> <Gold.Chemscore.Metal.Weighted>
-0.0000

> <Gold.Chemscore.Lipo.Weighted>
-10.3441

> <Gold.Chemscore.Internal_Hbond.Weighted>
0.0000

> <Gold.Chemscore.DEClash.Weighted>
0.5220

> <Gold.Chemscore.DEInternal.Weighted>
0.5795

> <Gold.Chemscore.Rot.Weighted>
2.5600

> <Gold.Chemscore.Internal.Correction.Weighted>
   9.000000E+99

> <Gold.Protein.RotatedTorsions>
[ 6907 6896 6895 6894 ] final   13.74 input  -60.11 | X-H torsion
[ 7974 7965 7964 7962 ] final  -79.00 input  175.53 | X-H torsion
[ 8008 7997 7996 7995 ] final   12.07 input   59.86 | X-H torsion
[ 10167 10162 10161 10158 ] final  -79.62 input  -65.29 | X-H torsion
[ 10718 10713 10712 10709 ] final   18.20 input   66.30 | X-H torsion
[ 10763 10752 10751 10750 ] final  -74.11 input  -60.55 | X-H torsion
[ 11005 11000 10999 10996 ] final  115.52 input  -57.11 | X-H torsion

> <Gold.Protein.ActiveResidues>
 VAL166  LYS551  ARG553  GLY616  TRP617  ASP618  TYR619  PRO620  LYS621  CYS622 
 ASP623  PHE694  ASN695  SER759  ASP760  ASP761  ALA762  ILE779  LEU786  VAL792 
 PHE793  MET794  SER795  GLU796  ALA797  LYS798  CYS799  TRP800  GLU811  SER814 

> <Gold.Protein.RotatedAtoms>
  151.7911  135.0735  160.0387 H   0  0  0  0  0  0  0  0  0  0  0  0  # atno 6907 bound_to 6896
  152.3156  133.5794  159.5718 H   0  0  0  0  0  0  0  0  0  0  0  0  # atno 6908 bound_to 6896
  150.7342  134.0004  159.3678 H   0  0  0  0  0  0  0  0  0  0  0  0  # atno 6909 bound_to 6896
  145.5790  140.9452  143.1354 H   0  0  0  0  0  0  0  0  0  0  0  0  # atno 7974 bound_to 7965
  154.8156  140.2875  155.5823 H   0  0  0  0  0  0  0  0  0  0  0  0  # atno 8008 bound_to 7997
  156.2992  140.2560  156.2983 H   0  0  0  0  0  0  0  0  0  0  0  0  # atno 8009 bound_to 7997
  154.9398  140.0381  157.2080 H   0  0  0  0  0  0  0  0  0  0  0  0  # atno 8010 bound_to 7997
  140.4577  143.2463  151.8395 H   0  0  0  0  0  0  0  0  0  0  0  0  # atno 10167 bound_to 10162
  157.0929  130.6435  149.5853 H   0  0  0  0  0  0  0  0  0  0  0  0  # atno 10718 bound_to 10713
  154.4686  135.5875  153.6305 H   0  0  0  0  0  0  0  0  0  0  0  0  # atno 10763 bound_to 10752
  152.9832  135.6061  154.3396 H   0  0  0  0  0  0  0  0  0  0  0  0  # atno 10764 bound_to 10752
  154.3275  135.2843  155.2468 H   0  0  0  0  0  0  0  0  0  0  0  0  # atno 10765 bound_to 10752
  139.9012  134.9585  156.7057 H   0  0  0  0  0  0  0  0  0  0  0  0  # atno 11005 bound_to 11000
  144.7403  139.7469  143.7313 LP  0  0  0  0  0  0  0  0  0  0  0  0  # atno 17320 bound_to 7965
  146.1730  139.4888  142.9915 LP  0  0  0  0  0  0  0  0  0  0  0  0  # atno 17321 bound_to 7965
  139.4803  144.5045  151.9016 LP  0  0  0  0  0  0  0  0  0  0  0  0  # atno 17342 bound_to 10162
  140.4131  144.2342  150.5888 LP  0  0  0  0  0  0  0  0  0  0  0  0  # atno 17343 bound_to 10162
  155.9893  130.4940  150.7209 LP  0  0  0  0  0  0  0  0  0  0  0  0  # atno 17370 bound_to 10713
  157.4706  131.0892  151.0647 LP  0  0  0  0  0  0  0  0  0  0  0  0  # atno 17371 bound_to 10713
  140.7115  133.9219  155.8088 LP  0  0  0  0  0  0  0  0  0  0  0  0  # atno 17394 bound_to 11000
  141.0296  134.0774  157.4029 LP  0  0  0  0  0  0  0  0  0  0  0  0  # atno 17395 bound_to 11000

$$$$
