AV-unprocessed.smi:2856|AV-procd|sdf|10993|dock4
  -GOLD-   2272015443D 1   1.00000     0.00000
 Structure written by MMmdl.
 37 38  0  0  0  0  0  0  0  0  1 V2000
  151.9721  138.7947  154.6986 C   0  0  0  0  0  0  0  0  0  0  0  0
  150.3797  137.9264  154.7070 S   0  0  0  0  0  0  0  0  0  0  0  0
  149.2587  139.2313  154.1067 C   0  0  2  0  0  0  0  0  0  0  0  0
  149.5895  140.5558  154.8206 C   0  0  0  0  0  0  0  0  0  0  0  0
  148.6503  141.6915  154.3904 C   0  0  0  0  0  0  0  0  0  0  0  0
  147.1845  141.3090  154.6325 C   0  0  0  0  0  0  0  0  0  0  0  0
  146.8314  140.0039  153.9050 C   0  0  0  0  0  0  0  0  0  0  0  0
  147.7711  138.8479  154.3067 C   0  0  1  0  0  0  0  0  0  0  0  0
  147.4399  137.6671  153.5125 N   0  0  0  0  0  0  0  0  0  0  0  0
  146.2134  137.1483  153.3591 C   0  0  0  0  0  0  0  0  0  0  0  0
  145.1981  137.6374  153.8550 O   0  0  0  0  0  0  0  0  0  0  0  0
  146.2481  136.0389  152.6017 N   0  0  0  0  0  0  0  0  0  0  0  0
  145.1620  135.1983  152.2490 C   0  0  0  0  0  0  0  0  0  0  0  0
  145.3544  134.0785  151.3966 C   0  0  0  0  0  0  0  0  0  0  0  0
  144.1008  133.5423  151.3056 C   0  0  0  0  0  0  0  0  0  0  0  0
  143.5529  132.3605  150.5818 C   0  0  0  0  0  0  0  0  0  0  0  0
  143.2185  134.2721  152.0406 O   0  0  0  0  0  0  0  0  0  0  0  0
  143.9051  135.3325  152.6435 N   0  0  0  0  0  0  0  0  0  0  0  0
  152.7562  138.1354  155.0702 H   0  0  0  0  0  0  0  0  0  0  0  0
  151.9302  139.6743  155.3405 H   0  0  0  0  0  0  0  0  0  0  0  0
  152.2415  139.1094  153.6910 H   0  0  0  0  0  0  0  0  0  0  0  0
  149.4501  139.3743  153.0423 H   0  0  0  0  0  0  0  0  0  0  0  0
  149.5171  140.4184  155.9004 H   0  0  0  0  0  0  0  0  0  0  0  0
  150.6224  140.8396  154.6163 H   0  0  0  0  0  0  0  0  0  0  0  0
  148.8922  142.6021  154.9391 H   0  0  0  0  0  0  0  0  0  0  0  0
  148.8037  141.9154  153.3341 H   0  0  0  0  0  0  0  0  0  0  0  0
  147.0068  141.1923  155.7023 H   0  0  0  0  0  0  0  0  0  0  0  0
  146.5290  142.1123  154.2950 H   0  0  0  0  0  0  0  0  0  0  0  0
  145.7962  139.7361  154.1201 H   0  0  0  0  0  0  0  0  0  0  0  0
  146.8889  140.1682  152.8280 H   0  0  0  0  0  0  0  0  0  0  0  0
  147.6209  138.6352  155.3670 H   0  0  0  0  0  0  0  0  0  0  0  0
  148.2115  137.1983  153.0613 H   0  0  0  0  0  0  0  0  0  0  0  0
  147.1511  135.7582  152.2494 H   0  0  0  0  0  0  0  0  0  0  0  0
  146.2602  133.7242  150.9275 H   0  0  0  0  0  0  0  0  0  0  0  0
  144.3368  131.8465  150.0252 H   0  0  0  0  0  0  0  0  0  0  0  0
  142.7806  132.6642  149.8751 H   0  0  0  0  0  0  0  0  0  0  0  0
  143.1126  131.6492  151.2807 H   0  0  0  0  0  0  0  0  0  0  0  0
  1  2  1  0  0  0  0
  1 19  1  0  0  0  0
  1 20  1  0  0  0  0
  1 21  1  0  0  0  0
  2  3  1  0  0  0  0
  3  8  1  0  0  0  0
  3  4  1  0  0  0  0
  3 22  1  0  0  0  0
  4  5  1  0  0  0  0
  4 23  1  0  0  0  0
  4 24  1  0  0  0  0
  5  6  1  0  0  0  0
  5 25  1  0  0  0  0
  5 26  1  0  0  0  0
  6  7  1  0  0  0  0
  6 27  1  0  0  0  0
  6 28  1  0  0  0  0
  7  8  1  0  0  0  0
  7 29  1  0  0  0  0
  7 30  1  0  0  0  0
  8  9  1  0  0  0  0
  8 31  1  0  0  0  0
  9 10  1  0  0  0  0
  9 32  1  0  0  0  0
 10 11  2  0  0  0  0
 10 12  1  0  0  0  0
 12 13  1  0  0  0  0
 12 33  1  0  0  0  0
 13 18  2  0  0  0  0
 13 14  1  0  0  0  0
 14 15  2  0  0  0  0
 14 34  1  0  0  0  0
 15 16  1  0  0  0  0
 15 17  1  0  0  0  0
 16 35  1  0  0  0  0
 16 36  1  0  0  0  0
 16 37  1  0  0  0  0
 17 18  1  0  0  0  0
M  END
> <s_m_source_file>
AV-unprocessed.smi

> <i_m_source_file_index>
2856

> <i_lp_mmshare_version>
43012

> <i_f3d_flags>
0

> <s_epik_input>
W0NIM11TW0NAQEhdMVtDSDJdW0NIMl1bQ0gyXVtDSDJdW0NASF0xW05IXUMoPU8pW05IXWMyW2NIXWMoW0NIM10pb24y

> <s_epik_cmdline>
J2VwaWtfcHl0aG9uJywgJy1waCcsICc3LjAnLCAnLXRuJywgJzgnLCAnLW1hJywgJzIwMCcsICctbWV0YWxfYmluZGluZycsICctaW1hZScsICc8aW5maWxlLm1hZT4nLCAnLW9tYWUnLCAnPG91dGZpbGUubWFlPic=

> <r_lp_tautomer_probability>
1

> <r_epik_Ionization_Penalty>
2.20874e-05

> <r_epik_Ionization_Penalty_Charging>
0

> <r_epik_Ionization_Penalty_Neutral>
2.20874e-05

> <r_epik_State_Penalty>
-0

> <r_epik_Charging_Adjusted_Penalty>
0

> <i_epik_Tot_Q>
0

> <i_epik_Tot_abs_Q>
0

> <r_epik_Metal_State_Penalty>
-0

> <b_epik_Metal_Only>
0

> <s_lp_Force_Field>
OPLS_2005

> <r_lp_Energy>
6.84472

> <b_lp_Chiralities_Consistent>
1

> <s_lp_Variant>
AV-unprocessed.smi:2856-1

> <Gold.Version>
5.8.1

> <Gold.Id.Protein>
6NUR|6NUR_protein|mol2

> <Gold.PLP.Fitness>
35.6860

> <Gold.PLP.PLP>
-30.0255

> <Gold.PLP.part.hbond>
-2.0000

> <Gold.PLP.part.metal>
0.0000

> <Gold.PLP.part.buried>
-3.0737

> <Gold.PLP.part.nonpolar>
-25.2016

> <Gold.PLP.part.repulsive>
0.4761

> <Gold.PLP.ligand.clash>
0.0000

> <Gold.PLP.ligand.torsion>
0.1612

> <Gold.PLP.Chemscore.Hbond>
1.9920

> <Gold.PLP.Chemscore.CHOScore>
0.0000

> <Gold.PLP.Chemscore.Metal>
0.0000

> <Gold.Chemscore.Hbonds>
donor molecule, donor type, donor heavy atom, donor atom, acceptor molecule, acceptor atom, score
      L1  H     9    32       P1  7948  1.00
      L1  H    12    33       P1  7948  0.99

> <Gold.PLP.Chemscore.Internal.Correction>
0.0070

> <Gold.Rescore>
     Score         DG    S(hbond)    S(metal)    S(lipo)     H(rot)  DE(clash)    DE(int)     intcor
     15.71     -17.20       1.96        0.00      70.74       1.21       0.19       1.31       ----

> <Gold.Chemscore.Fitness>
15.7056

> <Gold.Chemscore.DG>
-17.2047

> <Gold.Chemscore.ZeroCoef>
-5.4800

> <Gold.Chemscore.Hbond>
1.9604

> <Gold.Chemscore.Metal>
0.0000

> <Gold.Chemscore.Lipo>
70.7436

> <Gold.Chemscore.Internal_Hbond>
0.0000

> <Gold.Chemscore.DEClash>
0.1910

> <Gold.Chemscore.DEInternal>
1.3081

> <Gold.Chemscore.Rot>
1.2109

> <Gold.Chemscore.Internal.Correction>
   9.000000E+99

> <Gold.Chemscore.Hbonds>
donor molecule, donor type, donor heavy atom, donor atom, acceptor molecule, acceptor atom, score
      L1  H     9    32       P1  7948  0.98
      L1  H    12    33       P1  7948  0.93

> <Gold.Chemscore.Hbond.Weighted>
-6.5477

> <Gold.Chemscore.Metal.Weighted>
-0.0000

> <Gold.Chemscore.Lipo.Weighted>
-8.2770

> <Gold.Chemscore.Internal_Hbond.Weighted>
0.0000

> <Gold.Chemscore.DEClash.Weighted>
0.1910

> <Gold.Chemscore.DEInternal.Weighted>
1.3081

> <Gold.Chemscore.Rot.Weighted>
3.1000

> <Gold.Chemscore.Internal.Correction.Weighted>
   9.000000E+99

> <Gold.Protein.RotatedTorsions>
[ 6907 6896 6895 6894 ] final   65.66 input  -60.11 | X-H torsion
[ 7974 7965 7964 7962 ] final   58.10 input  175.53 | X-H torsion
[ 8008 7997 7996 7995 ] final -161.86 input   59.86 | X-H torsion
[ 10167 10162 10161 10158 ] final   41.37 input  -65.29 | X-H torsion
[ 10718 10713 10712 10709 ] final  -45.37 input   66.30 | X-H torsion
[ 10763 10752 10751 10750 ] final   25.03 input  -60.55 | X-H torsion
[ 11005 11000 10999 10996 ] final  117.14 input  -57.11 | X-H torsion

> <Gold.Protein.ActiveResidues>
 VAL166  LYS551  ARG553  GLY616  TRP617  ASP618  TYR619  PRO620  LYS621  CYS622 
 ASP623  PHE694  ASN695  SER759  ASP760  ASP761  ALA762  ILE779  LEU786  VAL792 
 PHE793  MET794  SER795  GLU796  ALA797  LYS798  CYS799  TRP800  GLU811  SER814 

> <Gold.Protein.RotatedAtoms>
  152.4424  134.5565  159.9881 H   0  0  0  0  0  0  0  0  0  0  0  0  # atno 6907 bound_to 6896
  151.5659  133.3391  159.2988 H   0  0  0  0  0  0  0  0  0  0  0  0  # atno 6908 bound_to 6896
  150.8332  134.7628  159.6935 H   0  0  0  0  0  0  0  0  0  0  0  0  # atno 6909 bound_to 6896
  145.9219  139.3736  143.0473 H   0  0  0  0  0  0  0  0  0  0  0  0  # atno 7974 bound_to 7965
  155.7984  140.0888  157.1970 H   0  0  0  0  0  0  0  0  0  0  0  0  # atno 8008 bound_to 7997
  154.3983  140.1477  156.3304 H   0  0  0  0  0  0  0  0  0  0  0  0  # atno 8009 bound_to 7997
  155.8487  140.3435  155.5682 H   0  0  0  0  0  0  0  0  0  0  0  0  # atno 8010 bound_to 7997
  140.3650  144.2179  150.6136 H   0  0  0  0  0  0  0  0  0  0  0  0  # atno 10167 bound_to 10162
  156.2290  130.4171  149.8898 H   0  0  0  0  0  0  0  0  0  0  0  0  # atno 10718 bound_to 10713
  153.0721  135.6592  154.0225 H   0  0  0  0  0  0  0  0  0  0  0  0  # atno 10763 bound_to 10752
  153.9868  135.2950  155.3417 H   0  0  0  0  0  0  0  0  0  0  0  0  # atno 10764 bound_to 10752
  154.7099  135.5210  153.8720 H   0  0  0  0  0  0  0  0  0  0  0  0  # atno 10765 bound_to 10752
  139.9064  134.9606  156.7305 H   0  0  0  0  0  0  0  0  0  0  0  0  # atno 11005 bound_to 11000
  145.8539  140.9513  143.0735 LP  0  0  0  0  0  0  0  0  0  0  0  0  # atno 17320 bound_to 7965
  144.6754  140.0443  143.7480 LP  0  0  0  0  0  0  0  0  0  0  0  0  # atno 17321 bound_to 7965
  140.5089  143.2296  151.8565 LP  0  0  0  0  0  0  0  0  0  0  0  0  # atno 17342 bound_to 10162
  139.4810  144.4972  151.9107 LP  0  0  0  0  0  0  0  0  0  0  0  0  # atno 17343 bound_to 10162
  156.6518  130.8747  151.3532 LP  0  0  0  0  0  0  0  0  0  0  0  0  # atno 17370 bound_to 10713
  157.7124  130.9456  150.1136 LP  0  0  0  0  0  0  0  0  0  0  0  0  # atno 17371 bound_to 10713
  140.6929  133.9374  155.7977 LP  0  0  0  0  0  0  0  0  0  0  0  0  # atno 17394 bound_to 11000
  141.0428  134.0596  157.3880 LP  0  0  0  0  0  0  0  0  0  0  0  0  # atno 17395 bound_to 11000

$$$$
