AV-unprocessed.smi:34|AV-procd|sdf|238|dock6
  -GOLD-   2262015583D 1   1.00000     0.00000
 Structure written by MMmdl.
 54 58  0  0  0  0  0  0  0  0  2 V2000
  153.7506  141.0239  160.8018 O   0  0  0  0  0  0  0  0  0  0  0  0
  153.0448  141.4933  159.9065 C   0  0  0  0  0  0  0  0  0  0  0  0
  152.6199  140.8804  158.7728 N   0  5  0  0  0  0  0  0  0  0  0  0
  152.5283  139.5427  158.7269 C   0  0  0  0  0  0  0  0  0  0  0  0
  153.4563  138.7705  159.3470 N   0  0  0  0  0  0  0  0  0  0  0  0
  153.3714  137.4367  159.2910 C   0  0  0  0  0  0  0  0  0  0  0  0
  152.4595  136.6787  158.6751 N   0  0  0  0  0  0  0  0  0  0  0  0
  151.5223  137.4415  158.0407 C   0  0  0  0  0  0  0  0  0  0  0  0
  151.4943  138.8672  158.0221 C   0  0  0  0  0  0  0  0  0  0  0  0
  150.4123  139.3300  157.2887 N   0  0  0  0  0  0  0  0  0  0  0  0
  149.8419  138.1908  156.9052 C   0  0  0  0  0  0  0  0  0  0  0  0
  150.4203  137.0388  157.2996 N   0  0  0  0  0  0  0  0  0  0  0  0
  149.9521  135.6501  156.9817 C   0  0  1  0  0  0  0  0  0  0  0  0
  148.5974  135.6805  156.6369 O   0  0  0  0  0  0  0  0  0  0  0  0
  148.4250  135.2357  155.2946 C   0  0  2  0  0  0  0  0  0  0  0  0
  147.0435  134.5968  155.1076 C   0  0  0  0  0  0  0  0  0  0  0  0
  146.7337  134.5371  153.7244 O   0  0  0  0  0  0  0  0  0  0  0  0
  146.7592  133.3551  153.0781 C   0  0  0  0  0  0  0  0  0  0  0  0
  147.4569  132.4009  153.4280 O   0  0  0  0  0  0  0  0  0  0  0  0
  145.8592  133.3241  151.8893 C   0  0  0  0  0  0  0  0  0  0  0  0
  145.7100  132.1184  151.1648 C   0  0  0  0  0  0  0  0  0  0  0  0
  144.8693  132.0585  150.0363 C   0  0  0  0  0  0  0  0  0  0  0  0
  144.1656  133.2036  149.6196 C   0  0  0  0  0  0  0  0  0  0  0  0
  144.3040  134.4087  150.3326 C   0  0  0  0  0  0  0  0  0  0  0  0
  145.1458  134.4708  151.4606 C   0  0  0  0  0  0  0  0  0  0  0  0
  149.6130  134.3037  155.0515 C   0  0  2  0  0  0  0  0  0  0  0  0
  149.3875  133.1002  155.5828 F   0  0  0  0  0  0  0  0  0  0  0  0
  150.7266  134.9909  155.8206 C   0  0  1  0  0  0  0  0  0  0  0  0
  151.4333  135.8952  154.9903 O   0  0  0  0  0  0  0  0  0  0  0  0
  152.6224  142.9356  159.9959 C   0  0  0  0  0  0  0  0  0  0  0  0
  152.5416  143.7166  158.8202 C   0  0  0  0  0  0  0  0  0  0  0  0
  152.1730  145.0745  158.8860 C   0  0  0  0  0  0  0  0  0  0  0  0
  151.8897  145.6691  160.1299 C   0  0  0  0  0  0  0  0  0  0  0  0
  151.9803  144.9058  161.3087 C   0  0  0  0  0  0  0  0  0  0  0  0
  152.3488  143.5477  161.2438 C   0  0  0  0  0  0  0  0  0  0  0  0
  154.1473  136.8988  159.8151 H   0  0  0  0  0  0  0  0  0  0  0  0
  148.9472  138.1945  156.3002 H   0  0  0  0  0  0  0  0  0  0  0  0
  150.0580  135.1036  157.9196 H   0  0  0  0  0  0  0  0  0  0  0  0
  148.5125  136.0993  154.6355 H   0  0  0  0  0  0  0  0  0  0  0  0
  147.0233  133.6004  155.5514 H   0  0  0  0  0  0  0  0  0  0  0  0
  146.2857  135.1946  155.6153 H   0  0  0  0  0  0  0  0  0  0  0  0
  146.2416  131.2266  151.4649 H   0  0  0  0  0  0  0  0  0  0  0  0
  144.7652  131.1324  149.4902 H   0  0  0  0  0  0  0  0  0  0  0  0
  143.5203  133.1574  148.7546 H   0  0  0  0  0  0  0  0  0  0  0  0
  143.7636  135.2881  150.0145 H   0  0  0  0  0  0  0  0  0  0  0  0
  145.2284  135.4112  151.9860 H   0  0  0  0  0  0  0  0  0  0  0  0
  149.8346  134.1534  153.9941 H   0  0  0  0  0  0  0  0  0  0  0  0
  151.4438  134.2743  156.2228 H   0  0  0  0  0  0  0  0  0  0  0  0
  150.8237  136.5347  154.6543 H   0  0  0  0  0  0  0  0  0  0  0  0
  152.7573  143.2757  157.8574 H   0  0  0  0  0  0  0  0  0  0  0  0
  152.1091  145.6603  157.9809 H   0  0  0  0  0  0  0  0  0  0  0  0
  151.6076  146.7102  160.1803 H   0  0  0  0  0  0  0  0  0  0  0  0
  151.7698  145.3619  162.2646 H   0  0  0  0  0  0  0  0  0  0  0  0
  152.4229  142.9828  162.1619 H   0  0  0  0  0  0  0  0  0  0  0  0
  1  2  2  0  0  0  0
  2  3  1  0  0  0  0
  2 30  1  0  0  0  0
  3  4  1  0  0  0  0
  4  9  1  0  0  0  0
  4  5  2  0  0  0  0
  5  6  1  0  0  0  0
  6  7  2  0  0  0  0
  6 36  1  0  0  0  0
  7  8  1  0  0  0  0
  8 12  1  0  0  0  0
  8  9  2  0  0  0  0
  9 10  1  0  0  0  0
 10 11  2  0  0  0  0
 11 12  1  0  0  0  0
 11 37  1  0  0  0  0
 12 13  1  0  0  0  0
 13 28  1  0  0  0  0
 13 14  1  0  0  0  0
 13 38  1  0  0  0  0
 14 15  1  0  0  0  0
 15 16  1  0  0  0  0
 15 26  1  0  0  0  0
 15 39  1  0  0  0  0
 16 17  1  0  0  0  0
 16 40  1  0  0  0  0
 16 41  1  0  0  0  0
 17 18  1  0  0  0  0
 18 19  2  0  0  0  0
 18 20  1  0  0  0  0
 20 25  1  0  0  0  0
 20 21  2  0  0  0  0
 21 22  1  0  0  0  0
 21 42  1  0  0  0  0
 22 23  2  0  0  0  0
 22 43  1  0  0  0  0
 23 24  1  0  0  0  0
 23 44  1  0  0  0  0
 24 25  2  0  0  0  0
 24 45  1  0  0  0  0
 25 46  1  0  0  0  0
 26 27  1  0  0  0  0
 26 28  1  0  0  0  0
 26 47  1  0  0  0  0
 28 29  1  0  0  0  0
 28 48  1  0  0  0  0
 29 49  1  0  0  0  0
 30 35  1  0  0  0  0
 30 31  2  0  0  0  0
 31 32  1  0  0  0  0
 31 50  1  0  0  0  0
 32 33  2  0  0  0  0
 32 51  1  0  0  0  0
 33 34  1  0  0  0  0
 33 52  1  0  0  0  0
 34 35  2  0  0  0  0
 34 53  1  0  0  0  0
 35 54  1  0  0  0  0
M  CHG  1   3  -1
M  END
> <s_m_source_file>
AV-unprocessed.smi

> <i_m_source_file_index>
34

> <i_lp_mmshare_version>
43012

> <i_f3d_flags>
0

> <s_epik_input>
W2NIXTFbY0hdW2NIXVtjSF1bY0hdYzFDKD1PKVtOSF1jKG5bY0hdbjIpYyhjMjMpbltjSF1uM1tDQEBIXTRPW0NASF0oW0NAQEhdKEYpW0NASF00W09IXSlbQ0gyXU9DKD1PKWM1W2NIXVtjSF1bY0hdW2NIXVtjSF01

> <s_epik_cmdline>
J2VwaWtfcHl0aG9uJywgJy1waCcsICc3LjAnLCAnLXRuJywgJzgnLCAnLW1hJywgJzIwMCcsICctbWV0YWxfYmluZGluZycsICctaW1hZScsICc8aW5maWxlLm1hZT4nLCAnLW9tYWUnLCAnPG91dGZpbGUubWFlPic=

> <r_lp_tautomer_probability>
1

> <r_epik_Ionization_Penalty>
4.33227

> <r_epik_Ionization_Penalty_Charging>
3.41027

> <r_epik_Ionization_Penalty_Neutral>
0.922001

> <r_epik_State_Penalty>
3.41358

> <r_epik_Charging_Adjusted_Penalty>
6.82385

> <i_epik_Tot_Q>
-1

> <i_epik_Tot_abs_Q>
1

> <r_epik_Metal_State_Penalty>
0.496292

> <b_epik_Metal_Only>
1

> <s_epik_Chemistry_Notes>
This compound has an ester and may undergo hydrolysis at high or low pH. This compound contains an acetal/aminal-like group ( X-CH(R)-Y where X, Y are N, S, or O) that may be acid/base labile, releasing an aldehyde.

> <s_lp_Force_Field>
OPLS_2005

> <r_lp_Energy>
49.908

> <b_lp_Chiralities_Consistent>
1

> <s_lp_Variant>
AV-unprocessed.smi:34-24

> <Gold.Version>
5.8.1

> <Gold.Id.Protein>
6NUR|6NUR_protein|mol2

> <Gold.PLP.Fitness>
59.8831

> <Gold.PLP.PLP>
-58.7396

> <Gold.PLP.part.hbond>
-2.0000

> <Gold.PLP.part.metal>
0.0000

> <Gold.PLP.part.buried>
-6.9981

> <Gold.PLP.part.nonpolar>
-51.2111

> <Gold.PLP.part.repulsive>
0.1751

> <Gold.PLP.ligand.clash>
0.0000

> <Gold.PLP.ligand.torsion>
2.3204

> <Gold.PLP.Chemscore.Hbond>
1.7680

> <Gold.PLP.Chemscore.CHOScore>
0.0000

> <Gold.PLP.Chemscore.Metal>
0.0000

> <Gold.Chemscore.Hbonds>
donor molecule, donor type, donor heavy atom, donor atom, acceptor molecule, acceptor atom, score
      P1  H  6896  6907       L1     7  0.53
      P1  H 10752 10765       L1    29  1.00

> <Gold.PLP.Chemscore.Internal.Correction>
0.4803

> <Gold.Rescore>
     Score         DG    S(hbond)    S(metal)    S(lipo)     H(rot)  DE(clash)    DE(int)     intcor
     15.90     -19.83       1.53        0.00     138.02       2.69       0.10       3.83       ----

> <Gold.Chemscore.Fitness>
15.9037

> <Gold.Chemscore.DG>
-19.8314

> <Gold.Chemscore.ZeroCoef>
-5.4800

> <Gold.Chemscore.Hbond>
1.5272

> <Gold.Chemscore.Metal>
0.0000

> <Gold.Chemscore.Lipo>
138.0176

> <Gold.Chemscore.Internal_Hbond>
0.0000

> <Gold.Chemscore.DEClash>
0.0981

> <Gold.Chemscore.DEInternal>
3.8296

> <Gold.Chemscore.Rot>
2.6944

> <Gold.Chemscore.Internal.Correction>
   9.000000E+99

> <Gold.Chemscore.Hbonds>
donor molecule, donor type, donor heavy atom, donor atom, acceptor molecule, acceptor atom, score
      P1  H  6896  6907       L1     7  0.35
      P1  H 10752 10765       L1    29  0.96

> <Gold.Chemscore.Hbond.Weighted>
-5.1009

> <Gold.Chemscore.Metal.Weighted>
-0.0000

> <Gold.Chemscore.Lipo.Weighted>
-16.1481

> <Gold.Chemscore.Internal_Hbond.Weighted>
0.0000

> <Gold.Chemscore.DEClash.Weighted>
0.0981

> <Gold.Chemscore.DEInternal.Weighted>
3.8296

> <Gold.Chemscore.Rot.Weighted>
6.8975

> <Gold.Chemscore.Internal.Correction.Weighted>
   9.000000E+99

> <Gold.Protein.RotatedTorsions>
[ 6907 6896 6895 6894 ] final   19.41 input  -60.11 | X-H torsion
[ 7974 7965 7964 7962 ] final  144.45 input  175.53 | X-H torsion
[ 8008 7997 7996 7995 ] final  148.52 input   59.86 | X-H torsion
[ 10167 10162 10161 10158 ] final   30.00 input  -65.29 | X-H torsion
[ 10718 10713 10712 10709 ] final  -22.00 input   66.30 | X-H torsion
[ 10763 10752 10751 10750 ] final  176.73 input  -60.55 | X-H torsion
[ 11005 11000 10999 10996 ] final   41.52 input  -57.11 | X-H torsion

> <Gold.Protein.ActiveResidues>
 VAL166  LYS551  ARG553  GLY616  TRP617  ASP618  TYR619  PRO620  LYS621  CYS622 
 ASP623  PHE694  ASN695  SER759  ASP760  ASP761  ALA762  ILE779  LEU786  VAL792 
 PHE793  MET794  SER795  GLU796  ALA797  LYS798  CYS799  TRP800  GLU811  SER814 

> <Gold.Protein.RotatedAtoms>
  151.8805  135.0455  160.0488 H   0  0  0  0  0  0  0  0  0  0  0  0  # atno 6907 bound_to 6896
  152.2516  133.5216  159.5337 H   0  0  0  0  0  0  0  0  0  0  0  0  # atno 6908 bound_to 6896
  150.7086  134.0868  159.3960 H   0  0  0  0  0  0  0  0  0  0  0  0  # atno 6909 bound_to 6896
  144.8835  139.5664  143.5832 H   0  0  0  0  0  0  0  0  0  0  0  0  # atno 7974 bound_to 7965
  156.2788  140.2126  156.5711 H   0  0  0  0  0  0  0  0  0  0  0  0  # atno 8008 bound_to 7997
  154.7135  140.0510  157.0595 H   0  0  0  0  0  0  0  0  0  0  0  0  # atno 8009 bound_to 7997
  155.0574  140.3163  155.4675 H   0  0  0  0  0  0  0  0  0  0  0  0  # atno 8010 bound_to 7997
  140.4716  144.0753  150.6239 H   0  0  0  0  0  0  0  0  0  0  0  0  # atno 10167 bound_to 10162
  156.5105  130.4609  149.6650 H   0  0  0  0  0  0  0  0  0  0  0  0  # atno 10718 bound_to 10713
  154.4851  135.2776  155.1540 H   0  0  0  0  0  0  0  0  0  0  0  0  # atno 10763 bound_to 10752
  154.3235  135.6205  153.5522 H   0  0  0  0  0  0  0  0  0  0  0  0  # atno 10764 bound_to 10752
  152.9880  135.5748  154.5260 H   0  0  0  0  0  0  0  0  0  0  0  0  # atno 10765 bound_to 10752
  140.1826  134.4085  155.8191 H   0  0  0  0  0  0  0  0  0  0  0  0  # atno 11005 bound_to 11000
  146.3009  139.7424  142.9092 LP  0  0  0  0  0  0  0  0  0  0  0  0  # atno 17320 bound_to 7965
  145.3912  141.0372  143.3123 LP  0  0  0  0  0  0  0  0  0  0  0  0  # atno 17321 bound_to 7965
  140.3970  143.2723  151.9993 LP  0  0  0  0  0  0  0  0  0  0  0  0  # atno 17342 bound_to 10162
  139.4819  144.6030  151.7572 LP  0  0  0  0  0  0  0  0  0  0  0  0  # atno 17343 bound_to 10162
  156.3245  130.7298  151.2216 LP  0  0  0  0  0  0  0  0  0  0  0  0  # atno 17370 bound_to 10713
  157.7451  131.0447  150.4805 LP  0  0  0  0  0  0  0  0  0  0  0  0  # atno 17371 bound_to 10713
  141.2223  133.7008  156.7957 LP  0  0  0  0  0  0  0  0  0  0  0  0  # atno 17394 bound_to 11000
  140.2250  134.8729  157.3417 LP  0  0  0  0  0  0  0  0  0  0  0  0  # atno 17395 bound_to 11000

$$$$
