AV-unprocessed.smi:1669|AV-procd|sdf|6690|dock4
  -GOLD-   22720 7423D 1   1.00000     0.00000
 Structure written by MMmdl.
 49 51  0  0  0  0  0  0  0  0  3 V2000
  146.9407  139.1671  152.5382 C   0  0  0  0  0  0  0  0  0  0  0  0
  146.9661  137.7615  153.0142 N   0  3  2  0  0  0  0  0  0  0  0  0
  145.6565  137.0793  152.8535 C   0  0  0  0  0  0  0  0  0  0  0  0
  145.8096  135.6422  152.3870 C   0  0  0  0  0  0  0  0  0  0  0  0
  145.2026  135.2112  151.1879 C   0  0  0  0  0  0  0  0  0  0  0  0
  145.3499  133.8773  150.7605 C   0  0  0  0  0  0  0  0  0  0  0  0
  146.1025  132.9695  151.5303 C   0  0  0  0  0  0  0  0  0  0  0  0
  146.7078  133.3952  152.7284 C   0  0  0  0  0  0  0  0  0  0  0  0
  146.5611  134.7289  153.1566 C   0  0  0  0  0  0  0  0  0  0  0  0
  147.5047  137.6288  154.3939 C   0  0  0  0  0  0  0  0  0  0  0  0
  148.7749  138.4738  154.6179 C   0  0  2  0  0  0  0  0  0  0  0  0
  149.8957  137.7333  154.1745 O   0  0  0  0  0  0  0  0  0  0  0  0
  148.9590  138.8543  156.1013 C   0  0  0  0  0  0  0  0  0  0  0  0
  149.4166  140.2422  156.2822 N   0  0  0  0  0  0  0  0  0  0  0  0
  149.0143  141.3857  155.6544 C   0  0  0  0  0  0  0  0  0  0  0  0
  147.9626  141.5061  154.5977 C   0  0  0  0  0  0  0  0  0  0  0  0
  147.7487  142.8382  154.1825 O   0  0  0  0  0  0  0  0  0  0  0  0
  149.7447  142.4107  156.1780 N   0  3  0  0  0  0  0  0  0  0  0  0
  150.6221  141.9228  157.1459 C   0  0  0  0  0  0  0  0  0  0  0  0
  151.5568  142.5794  157.9403 C   0  0  0  0  0  0  0  0  0  0  0  0
  152.2984  141.7813  158.8355 C   0  0  0  0  0  0  0  0  0  0  0  0
  152.0961  140.3885  158.9168 C   0  0  0  0  0  0  0  0  0  0  0  0
  151.1442  139.7343  158.1071 C   0  0  0  0  0  0  0  0  0  0  0  0
  150.4155  140.5298  157.2220 C   0  0  0  0  0  0  0  0  0  0  0  0
  146.2379  139.7634  153.1214 H   0  0  0  0  0  0  0  0  0  0  0  0
  146.6446  139.2240  151.4911 H   0  0  0  0  0  0  0  0  0  0  0  0
  147.9215  139.6344  152.6112 H   0  0  0  0  0  0  0  0  0  0  0  0
  145.1270  137.0519  153.8069 H   0  0  0  0  0  0  0  0  0  0  0  0
  145.0245  137.6410  152.1636 H   0  0  0  0  0  0  0  0  0  0  0  0
  144.6240  135.9014  150.5913 H   0  0  0  0  0  0  0  0  0  0  0  0
  144.8848  133.5499  149.8422 H   0  0  0  0  0  0  0  0  0  0  0  0
  146.2143  131.9464  151.2026 H   0  0  0  0  0  0  0  0  0  0  0  0
  147.2841  132.6982  153.3190 H   0  0  0  0  0  0  0  0  0  0  0  0
  147.0279  135.0490  154.0768 H   0  0  0  0  0  0  0  0  0  0  0  0
  146.7281  137.9037  155.1095 H   0  0  0  0  0  0  0  0  0  0  0  0
  147.7512  136.5867  154.6033 H   0  0  0  0  0  0  0  0  0  0  0  0
  148.7271  139.3909  154.0319 H   0  0  0  0  0  0  0  0  0  0  0  0
  149.5947  137.0260  153.6245 H   0  0  0  0  0  0  0  0  0  0  0  0
  148.0089  138.7598  156.6285 H   0  0  0  0  0  0  0  0  0  0  0  0
  149.6491  138.1768  156.6044 H   0  0  0  0  0  0  0  0  0  0  0  0
  148.2449  140.9123  153.7284 H   0  0  0  0  0  0  0  0  0  0  0  0
  147.0268  141.0978  154.9798 H   0  0  0  0  0  0  0  0  0  0  0  0
  148.3137  143.4057  154.6849 H   0  0  0  0  0  0  0  0  0  0  0  0
  151.7132  143.6465  157.8794 H   0  0  0  0  0  0  0  0  0  0  0  0
  153.0368  142.2468  159.4724 H   0  0  0  0  0  0  0  0  0  0  0  0
  152.6836  139.8096  159.6146 H   0  0  0  0  0  0  0  0  0  0  0  0
  151.0027  138.6667  158.1795 H   0  0  0  0  0  0  0  0  0  0  0  0
  147.6101  137.2602  152.4184 H   0  0  0  0  0  0  0  0  0  0  0  0
  149.6475  143.3750  155.8862 H   0  0  0  0  0  0  0  0  0  0  0  0
  1  2  1  0  0  0  0
  1 25  1  0  0  0  0
  1 26  1  0  0  0  0
  1 27  1  0  0  0  0
  2  3  1  0  0  0  0
  2 10  1  0  0  0  0
  2 48  1  0  0  0  0
  3  4  1  0  0  0  0
  3 28  1  0  0  0  0
  3 29  1  0  0  0  0
  4  9  1  0  0  0  0
  4  5  2  0  0  0  0
  5  6  1  0  0  0  0
  5 30  1  0  0  0  0
  6  7  2  0  0  0  0
  6 31  1  0  0  0  0
  7  8  1  0  0  0  0
  7 32  1  0  0  0  0
  8  9  2  0  0  0  0
  8 33  1  0  0  0  0
  9 34  1  0  0  0  0
 10 11  1  0  0  0  0
 10 35  1  0  0  0  0
 10 36  1  0  0  0  0
 11 12  1  0  0  0  0
 11 13  1  0  0  0  0
 11 37  1  0  0  0  0
 12 38  1  0  0  0  0
 13 14  1  0  0  0  0
 13 39  1  0  0  0  0
 13 40  1  0  0  0  0
 14 24  1  0  0  0  0
 14 15  1  0  0  0  0
 15 16  1  0  0  0  0
 15 18  2  0  0  0  0
 16 17  1  0  0  0  0
 16 41  1  0  0  0  0
 16 42  1  0  0  0  0
 17 43  1  0  0  0  0
 18 19  1  0  0  0  0
 18 49  1  0  0  0  0
 19 24  2  0  0  0  0
 19 20  1  0  0  0  0
 20 21  2  0  0  0  0
 20 44  1  0  0  0  0
 21 22  1  0  0  0  0
 21 45  1  0  0  0  0
 22 23  2  0  0  0  0
 22 46  1  0  0  0  0
 23 24  1  0  0  0  0
 23 47  1  0  0  0  0
M  CHG  1   2   1
M  CHG  1  18   1
M  END
> <s_m_source_file>
AV-unprocessed.smi

> <i_m_source_file_index>
1669

> <i_lp_mmshare_version>
43012

> <i_f3d_flags>
0

> <s_epik_input>
W2NIXTFbY0hdW2NIXVtjSF1bY0hdYzFbQ0gyXU4oW0NIM10pW0NIMl1bQ0BIXShbT0hdKVtDSDJdbihjKG4yKVtDSDJdW09IXSljKGMyMylbY0hdW2NIXVtjSF1bY0hdMw==

> <s_epik_cmdline>
J2VwaWtfcHl0aG9uJywgJy1waCcsICc3LjAnLCAnLXRuJywgJzgnLCAnLW1hJywgJzIwMCcsICctbWV0YWxfYmluZGluZycsICctaW1hZScsICc8aW5maWxlLm1hZT4nLCAnLW9tYWUnLCAnPG91dGZpbGUubWFlPic=

> <r_epik_Ionization_Penalty>
1.57484

> <r_epik_Ionization_Penalty_Charging>
1.57398

> <r_epik_Ionization_Penalty_Neutral>
0.000858917

> <r_epik_State_Penalty>
1.64997

> <r_epik_Charging_Adjusted_Penalty>
3.22395

> <i_epik_Tot_Q>
2

> <i_epik_Tot_abs_Q>
2

> <r_epik_Metal_State_Penalty>
5.70481

> <b_epik_Metal_Only>
0

> <s_lp_Force_Field>
OPLS_2005

> <r_lp_Energy>
22.9184

> <b_lp_Chiralities_Consistent>
1

> <s_lp_Variant>
AV-unprocessed.smi:1669-8

> <Gold.Version>
5.8.1

> <Gold.Id.Protein>
6NUR|6NUR_protein|mol2

> <Gold.PLP.Fitness>
54.5803

> <Gold.PLP.PLP>
-39.5104

> <Gold.PLP.part.hbond>
-6.0000

> <Gold.PLP.part.metal>
0.0000

> <Gold.PLP.part.buried>
-3.6889

> <Gold.PLP.part.nonpolar>
-30.2231

> <Gold.PLP.part.repulsive>
0.1444

> <Gold.PLP.ligand.clash>
0.0000

> <Gold.PLP.ligand.torsion>
1.6522

> <Gold.PLP.Chemscore.Hbond>
5.9840

> <Gold.PLP.Chemscore.CHOScore>
0.0000

> <Gold.PLP.Chemscore.Metal>
0.0000

> <Gold.Chemscore.Hbonds>
donor molecule, donor type, donor heavy atom, donor atom, acceptor molecule, acceptor atom, score
      L1  H     2    48       P1  7948  2.00
      L1  H    12    38       P1  7948  1.00
      L1  H    17    43       P1  8028  1.00
      L1  H    18    49       P1  8028  2.00

> <Gold.PLP.Chemscore.Internal.Correction>
0.4224

> <Gold.Rescore>
     Score         DG    S(hbond)    S(metal)    S(lipo)     H(rot)  DE(clash)    DE(int)     intcor
     19.58     -21.19       3.89        0.00      94.83       3.27       0.04       1.58       ----

> <Gold.Chemscore.Fitness>
19.5750

> <Gold.Chemscore.DG>
-21.1881

> <Gold.Chemscore.ZeroCoef>
-5.4800

> <Gold.Chemscore.Hbond>
3.8889

> <Gold.Chemscore.Metal>
0.0000

> <Gold.Chemscore.Lipo>
94.8306

> <Gold.Chemscore.Internal_Hbond>
0.0000

> <Gold.Chemscore.DEClash>
0.0375

> <Gold.Chemscore.DEInternal>
1.5755

> <Gold.Chemscore.Rot>
3.2718

> <Gold.Chemscore.Internal.Correction>
   9.000000E+99

> <Gold.Chemscore.Hbonds>
donor molecule, donor type, donor heavy atom, donor atom, acceptor molecule, acceptor atom, score
      L1  H     2    48       P1  7948  1.00
      L1  H    12    38       P1  7948  0.76
      L1  H    17    43       P1  8028  0.98
      L1  H    18    49       P1  8028  0.95

> <Gold.Chemscore.Hbond.Weighted>
-12.9888

> <Gold.Chemscore.Metal.Weighted>
-0.0000

> <Gold.Chemscore.Lipo.Weighted>
-11.0952

> <Gold.Chemscore.Internal_Hbond.Weighted>
0.0000

> <Gold.Chemscore.DEClash.Weighted>
0.0375

> <Gold.Chemscore.DEInternal.Weighted>
1.5755

> <Gold.Chemscore.Rot.Weighted>
8.3759

> <Gold.Chemscore.Internal.Correction.Weighted>
   9.000000E+99

> <Gold.Protein.RotatedTorsions>
[ 6907 6896 6895 6894 ] final  -72.85 input  -60.11 | X-H torsion
[ 7974 7965 7964 7962 ] final   18.78 input  175.53 | X-H torsion
[ 8008 7997 7996 7995 ] final    9.20 input   59.86 | X-H torsion
[ 10167 10162 10161 10158 ] final  -68.15 input  -65.29 | X-H torsion
[ 10718 10713 10712 10709 ] final   61.68 input   66.30 | X-H torsion
[ 10763 10752 10751 10750 ] final  -25.07 input  -60.55 | X-H torsion
[ 11005 11000 10999 10996 ] final  -53.84 input  -57.11 | X-H torsion

> <Gold.Protein.ActiveResidues>
 VAL166  LYS551  ARG553  GLY616  TRP617  ASP618  TYR619  PRO620  LYS621  CYS622 
 ASP623  PHE694  ASN695  SER759  ASP760  ASP761  ALA762  ILE779  LEU786  VAL792 
 PHE793  MET794  SER795  GLU796  ALA797  LYS798  CYS799  TRP800  GLU811  SER814 

> <Gold.Protein.RotatedAtoms>
  150.7153  134.5103  159.5603 H   0  0  0  0  0  0  0  0  0  0  0  0  # atno 6907 bound_to 6896
  152.2681  134.7960  160.0428 H   0  0  0  0  0  0  0  0  0  0  0  0  # atno 6908 bound_to 6896
  151.8650  133.3429  159.3753 H   0  0  0  0  0  0  0  0  0  0  0  0  # atno 6909 bound_to 6896
  146.2173  139.8408  142.8641 H   0  0  0  0  0  0  0  0  0  0  0  0  # atno 7974 bound_to 7965
  154.7769  140.2812  155.6094 H   0  0  0  0  0  0  0  0  0  0  0  0  # atno 8008 bound_to 7997
  156.2943  140.2630  156.2513 H   0  0  0  0  0  0  0  0  0  0  0  0  # atno 8009 bound_to 7997
  154.9831  140.0374  157.2276 H   0  0  0  0  0  0  0  0  0  0  0  0  # atno 8010 bound_to 7997
  140.5529  143.2312  151.6877 H   0  0  0  0  0  0  0  0  0  0  0  0  # atno 10167 bound_to 10162
  157.5845  130.9008  149.9491 H   0  0  0  0  0  0  0  0  0  0  0  0  # atno 10718 bound_to 10713
  153.6940  135.6960  153.5082 H   0  0  0  0  0  0  0  0  0  0  0  0  # atno 10763 bound_to 10752
  153.2392  135.4311  155.0679 H   0  0  0  0  0  0  0  0  0  0  0  0  # atno 10764 bound_to 10752
  154.8364  135.3503  154.6481 H   0  0  0  0  0  0  0  0  0  0  0  0  # atno 10765 bound_to 10752
  141.0996  133.6620  156.4231 H   0  0  0  0  0  0  0  0  0  0  0  0  # atno 11005 bound_to 11000
  145.2901  141.0164  143.3668 LP  0  0  0  0  0  0  0  0  0  0  0  0  # atno 17320 bound_to 7965
  144.9084  139.4560  143.6599 LP  0  0  0  0  0  0  0  0  0  0  0  0  # atno 17321 bound_to 7965
  139.5035  144.3788  152.0396 LP  0  0  0  0  0  0  0  0  0  0  0  0  # atno 17342 bound_to 10162
  140.2907  144.3757  150.6089 LP  0  0  0  0  0  0  0  0  0  0  0  0  # atno 17343 bound_to 10162
  156.0893  130.3665  150.0425 LP  0  0  0  0  0  0  0  0  0  0  0  0  # atno 17370 bound_to 10713
  156.8559  130.9475  151.3622 LP  0  0  0  0  0  0  0  0  0  0  0  0  # atno 17371 bound_to 10713
  140.5055  134.6445  157.5265 LP  0  0  0  0  0  0  0  0  0  0  0  0  # atno 17394 bound_to 11000
  139.9843  134.7087  155.9802 LP  0  0  0  0  0  0  0  0  0  0  0  0  # atno 17395 bound_to 11000

$$$$
