AV-unprocessed.smi:3285|AV-procd|sdf|12580|dock10
  -GOLD-   2272018503D 1   1.00000     0.00000
 Structure written by MMmdl.
 45 46  0  0  0  0  0  0  0  0  2 V2000
  150.3571  130.4082  154.4558 C   0  0  0  0  0  0  0  0  0  0  0  0
  150.4104  131.6018  155.3661 C   0  0  0  0  0  0  0  0  0  0  0  0
  150.6851  131.4344  156.6485 N   0  0  0  0  0  0  0  0  0  0  0  0
  150.6603  132.7118  157.2161 O   0  0  0  0  0  0  0  0  0  0  0  0
  150.3664  133.6090  156.2414 C   0  0  0  0  0  0  0  0  0  0  0  0
  150.2929  135.0413  156.6503 C   0  0  0  0  0  0  0  0  0  0  0  0
  150.1946  132.9721  155.0430 C   0  0  0  0  0  0  0  0  0  0  0  0
  149.8579  133.5665  153.7023 C   0  0  0  0  0  0  0  0  0  0  0  0
  148.6213  132.9000  153.0857 C   0  0  0  0  0  0  0  0  0  0  0  0
  147.5315  133.8799  152.8965 N   0  3  0  0  0  0  0  0  0  0  0  0
  146.3561  133.3803  152.1489 C   0  0  2  0  0  0  0  0  0  0  0  0
  146.8237  132.6214  150.8941 C   0  0  0  0  0  0  0  0  0  0  0  0
  145.6381  132.1203  150.0544 C   0  0  0  0  0  0  0  0  0  0  0  0
  144.6963  133.2763  149.6660 C   0  0  1  0  0  0  0  0  0  0  0  0
  143.5550  132.8032  148.7510 C   0  0  0  0  0  0  0  0  0  0  0  0
  144.2029  134.0520  150.9137 C   0  0  1  0  0  0  0  0  0  0  0  0
  143.1808  133.2824  151.7747 C   0  0  0  0  0  0  0  0  0  0  0  0
  145.4060  134.5333  151.7527 C   0  0  0  0  0  0  0  0  0  0  0  0
  149.3521  130.2669  154.0587 H   0  0  0  0  0  0  0  0  0  0  0  0
  150.6407  129.4909  154.9734 H   0  0  0  0  0  0  0  0  0  0  0  0
  151.0343  130.5319  153.6108 H   0  0  0  0  0  0  0  0  0  0  0  0
  149.4685  135.5473  156.1483 H   0  0  0  0  0  0  0  0  0  0  0  0
  151.2157  135.5621  156.3950 H   0  0  0  0  0  0  0  0  0  0  0  0
  150.1381  135.1347  157.7254 H   0  0  0  0  0  0  0  0  0  0  0  0
  149.6794  134.6383  153.7967 H   0  0  0  0  0  0  0  0  0  0  0  0
  150.7004  133.4676  153.0167 H   0  0  0  0  0  0  0  0  0  0  0  0
  148.8783  132.4579  152.1221 H   0  0  0  0  0  0  0  0  0  0  0  0
  148.2829  132.0905  153.7320 H   0  0  0  0  0  0  0  0  0  0  0  0
  147.2244  134.2159  153.7981 H   0  0  0  0  0  0  0  0  0  0  0  0
  145.8266  132.6749  152.7908 H   0  0  0  0  0  0  0  0  0  0  0  0
  147.4480  133.2722  150.2799 H   0  0  0  0  0  0  0  0  0  0  0  0
  147.4499  131.7753  151.1802 H   0  0  0  0  0  0  0  0  0  0  0  0
  146.0149  131.6328  149.1547 H   0  0  0  0  0  0  0  0  0  0  0  0
  145.0904  131.3559  150.6066 H   0  0  0  0  0  0  0  0  0  0  0  0
  145.2857  133.9789  149.0744 H   0  0  0  0  0  0  0  0  0  0  0  0
  142.9543  132.0248  149.2219 H   0  0  0  0  0  0  0  0  0  0  0  0
  143.9480  132.3917  147.8206 H   0  0  0  0  0  0  0  0  0  0  0  0
  142.8915  133.6282  148.4896 H   0  0  0  0  0  0  0  0  0  0  0  0
  143.6882  134.9457  150.5576 H   0  0  0  0  0  0  0  0  0  0  0  0
  143.5770  132.3353  152.1393 H   0  0  0  0  0  0  0  0  0  0  0  0
  142.2699  133.0669  151.2166 H   0  0  0  0  0  0  0  0  0  0  0  0
  142.8855  133.8703  152.6443 H   0  0  0  0  0  0  0  0  0  0  0  0
  145.0408  135.0563  152.6363 H   0  0  0  0  0  0  0  0  0  0  0  0
  145.9640  135.2738  151.1772 H   0  0  0  0  0  0  0  0  0  0  0  0
  147.9154  134.6583  152.3796 H   0  0  0  0  0  0  0  0  0  0  0  0
  1  2  1  0  0  0  0
  1 19  1  0  0  0  0
  1 20  1  0  0  0  0
  1 21  1  0  0  0  0
  2  7  1  0  0  0  0
  2  3  2  0  0  0  0
  3  4  1  0  0  0  0
  4  5  1  0  0  0  0
  5  6  1  0  0  0  0
  5  7  2  0  0  0  0
  6 22  1  0  0  0  0
  6 23  1  0  0  0  0
  6 24  1  0  0  0  0
  7  8  1  0  0  0  0
  8  9  1  0  0  0  0
  8 25  1  0  0  0  0
  8 26  1  0  0  0  0
  9 10  1  0  0  0  0
  9 27  1  0  0  0  0
  9 28  1  0  0  0  0
 10 11  1  0  0  0  0
 10 29  1  0  0  0  0
 10 45  1  0  0  0  0
 11 18  1  0  0  0  0
 11 12  1  0  0  0  0
 11 30  1  0  0  0  0
 12 13  1  0  0  0  0
 12 31  1  0  0  0  0
 12 32  1  0  0  0  0
 13 14  1  0  0  0  0
 13 33  1  0  0  0  0
 13 34  1  0  0  0  0
 14 15  1  0  0  0  0
 14 16  1  0  0  0  0
 14 35  1  0  0  0  0
 15 36  1  0  0  0  0
 15 37  1  0  0  0  0
 15 38  1  0  0  0  0
 16 17  1  0  0  0  0
 16 18  1  0  0  0  0
 16 39  1  0  0  0  0
 17 40  1  0  0  0  0
 17 41  1  0  0  0  0
 17 42  1  0  0  0  0
 18 43  1  0  0  0  0
 18 44  1  0  0  0  0
M  CHG  1  10   1
M  END
> <s_m_source_file>
AV-unprocessed.smi

> <i_m_source_file_index>
3285

> <i_lp_mmshare_version>
43012

> <i_f3d_flags>
0

> <s_epik_input>
W0NIM11jMW5vYyhbQ0gzXSljMVtDSDJdW0NIMl1bTkhdW0NAQEhdMltDSDJdW0NIMl1bQ0BASF0oW0NIM10pW0NAQEhdKFtDSDNdKVtDSDJdMg==

> <s_epik_cmdline>
J2VwaWtfcHl0aG9uJywgJy1waCcsICc3LjAnLCAnLXRuJywgJzgnLCAnLW1hJywgJzIwMCcsICctbWV0YWxfYmluZGluZycsICctaW1hZScsICc8aW5maWxlLm1hZT4nLCAnLW9tYWUnLCAnPG91dGZpbGUubWFlPic=

> <r_lp_tautomer_probability>
1

> <r_epik_Ionization_Penalty>
0.000204615

> <r_epik_Ionization_Penalty_Charging>
0.000204615

> <r_epik_Ionization_Penalty_Neutral>
9.28663e-11

> <r_epik_State_Penalty>
-0

> <r_epik_Charging_Adjusted_Penalty>
0.000204615

> <i_epik_Tot_Q>
1

> <i_epik_Tot_abs_Q>
1

> <r_epik_Metal_State_Penalty>
-0

> <b_epik_Metal_Only>
0

> <s_lp_Force_Field>
OPLS_2005

> <r_lp_Energy>
12.1865

> <b_lp_Chiralities_Consistent>
1

> <s_lp_Variant>
AV-unprocessed.smi:3285-1

> <Gold.Version>
5.8.1

> <Gold.Id.Protein>
6NUR|6NUR_protein|mol2

> <Gold.PLP.Fitness>
42.3459

> <Gold.PLP.PLP>
-34.3370

> <Gold.PLP.part.hbond>
-2.0000

> <Gold.PLP.part.metal>
0.0000

> <Gold.PLP.part.buried>
0.3362

> <Gold.PLP.part.nonpolar>
-31.5557

> <Gold.PLP.part.repulsive>
0.0000

> <Gold.PLP.ligand.clash>
0.0000

> <Gold.PLP.ligand.torsion>
0.5032

> <Gold.PLP.Chemscore.Hbond>
3.0000

> <Gold.PLP.Chemscore.CHOScore>
0.0000

> <Gold.PLP.Chemscore.Metal>
0.0000

> <Gold.Chemscore.Hbonds>
donor molecule, donor type, donor heavy atom, donor atom, acceptor molecule, acceptor atom, score
      L1  H    10    45       P1  7948  2.00
      P1  H  6896  6909       L1     4  0.59

> <Gold.PLP.Chemscore.Internal.Correction>
0.0152

> <Gold.Rescore>
     Score         DG    S(hbond)    S(metal)    S(lipo)     H(rot)  DE(clash)    DE(int)     intcor
     17.95     -19.83       1.79        0.00     100.99       1.35       1.43       0.46       ----

> <Gold.Chemscore.Fitness>
17.9458

> <Gold.Chemscore.DG>
-19.8340

> <Gold.Chemscore.ZeroCoef>
-5.4800

> <Gold.Chemscore.Hbond>
1.7919

> <Gold.Chemscore.Metal>
0.0000

> <Gold.Chemscore.Lipo>
100.9911

> <Gold.Chemscore.Internal_Hbond>
0.0000

> <Gold.Chemscore.DEClash>
1.4271

> <Gold.Chemscore.DEInternal>
0.4611

> <Gold.Chemscore.Rot>
1.3465

> <Gold.Chemscore.Internal.Correction>
   9.000000E+99

> <Gold.Chemscore.Hbonds>
donor molecule, donor type, donor heavy atom, donor atom, acceptor molecule, acceptor atom, score
      L1  H    10    45       P1  7948  0.60
      P1  H  6896  6909       L1     4  0.51

> <Gold.Chemscore.Hbond.Weighted>
-5.9850

> <Gold.Chemscore.Metal.Weighted>
-0.0000

> <Gold.Chemscore.Lipo.Weighted>
-11.8160

> <Gold.Chemscore.Internal_Hbond.Weighted>
0.0000

> <Gold.Chemscore.DEClash.Weighted>
1.4271

> <Gold.Chemscore.DEInternal.Weighted>
0.4611

> <Gold.Chemscore.Rot.Weighted>
3.4470

> <Gold.Chemscore.Internal.Correction.Weighted>
   9.000000E+99

> <Gold.Protein.RotatedTorsions>
[ 6907 6896 6895 6894 ] final  -15.35 input  -60.11 | X-H torsion
[ 7974 7965 7964 7962 ] final   90.38 input  175.53 | X-H torsion
[ 8008 7997 7996 7995 ] final  -37.24 input   59.86 | X-H torsion
[ 10167 10162 10161 10158 ] final -115.78 input  -65.29 | X-H torsion
[ 10718 10713 10712 10709 ] final  -18.72 input   66.30 | X-H torsion
[ 10763 10752 10751 10750 ] final -176.98 input  -60.55 | X-H torsion
[ 11005 11000 10999 10996 ] final  125.70 input  -57.11 | X-H torsion

> <Gold.Protein.ActiveResidues>
 VAL166  LYS551  ARG553  GLY616  TRP617  ASP618  TYR619  PRO620  LYS621  CYS622 
 ASP623  PHE694  ASN695  SER759  ASP760  ASP761  ALA762  ILE779  LEU786  VAL792 
 PHE793  MET794  SER795  GLU796  ALA797  LYS798  CYS799  TRP800  GLU811  SER814 

> <Gold.Protein.RotatedAtoms>
  151.3253  135.0828  159.9319 H   0  0  0  0  0  0  0  0  0  0  0  0  # atno 6907 bound_to 6896
  152.5247  133.9597  159.7721 H   0  0  0  0  0  0  0  0  0  0  0  0  # atno 6908 bound_to 6896
  150.9926  133.6082  159.2736 H   0  0  0  0  0  0  0  0  0  0  0  0  # atno 6909 bound_to 6896
  145.5198  139.2279  143.2678 H   0  0  0  0  0  0  0  0  0  0  0  0  # atno 7974 bound_to 7965
  154.4057  140.1609  156.2504 H   0  0  0  0  0  0  0  0  0  0  0  0  # atno 8008 bound_to 7997
  155.9124  140.3426  155.6086 H   0  0  0  0  0  0  0  0  0  0  0  0  # atno 8009 bound_to 7997
  155.7320  140.0781  157.2275 H   0  0  0  0  0  0  0  0  0  0  0  0  # atno 8010 bound_to 7997
  140.0863  143.4740  152.1896 H   0  0  0  0  0  0  0  0  0  0  0  0  # atno 10167 bound_to 10162
  156.5556  130.4712  149.6431 H   0  0  0  0  0  0  0  0  0  0  0  0  # atno 10718 bound_to 10713
  154.5658  135.2824  155.0876 H   0  0  0  0  0  0  0  0  0  0  0  0  # atno 10763 bound_to 10752
  154.2267  135.6381  153.5166 H   0  0  0  0  0  0  0  0  0  0  0  0  # atno 10764 bound_to 10752
  153.0042  135.5527  154.6266 H   0  0  0  0  0  0  0  0  0  0  0  0  # atno 10765 bound_to 10752
  139.9419  134.9634  156.8597 H   0  0  0  0  0  0  0  0  0  0  0  0  # atno 11005 bound_to 11000
  146.2113  140.6010  142.9058 LP  0  0  0  0  0  0  0  0  0  0  0  0  # atno 17320 bound_to 7965
  144.7682  140.5578  143.6688 LP  0  0  0  0  0  0  0  0  0  0  0  0  # atno 17321 bound_to 7965
  139.5750  144.7483  151.3789 LP  0  0  0  0  0  0  0  0  0  0  0  0  # atno 17342 bound_to 10162
  140.7051  143.7533  150.7469 LP  0  0  0  0  0  0  0  0  0  0  0  0  # atno 17343 bound_to 10162
  156.2845  130.7089  151.1922 LP  0  0  0  0  0  0  0  0  0  0  0  0  # atno 17370 bound_to 10713
  157.7379  131.0547  150.5328 LP  0  0  0  0  0  0  0  0  0  0  0  0  # atno 17371 bound_to 10713
  140.5930  134.0244  155.7507 LP  0  0  0  0  0  0  0  0  0  0  0  0  # atno 17394 bound_to 11000
  141.1057  133.9698  157.3001 LP  0  0  0  0  0  0  0  0  0  0  0  0  # atno 17395 bound_to 11000

$$$$
