AV-unprocessed.smi:2585|AV-procd|sdf|10144|dock5
  -GOLD-   2272014153D 1   1.00000     0.00000
 Structure written by MMmdl.
 34 35  0  0  0  0  0  0  0  0  1 V2000
  151.0500  141.2576  156.6087 C   0  0  0  0  0  0  0  0  0  0  0  0
  151.4067  140.0681  155.7682 C   0  0  0  0  0  0  0  0  0  0  0  0
  152.5917  140.0069  155.1976 N   0  0  0  0  0  0  0  0  0  0  0  0
  152.7178  138.5770  154.3259 S   0  0  0  0  0  0  0  0  0  0  0  0
  151.1217  137.9962  154.7163 C   0  0  0  0  0  0  0  0  0  0  0  0
  150.5496  136.8323  154.3122 N   0  0  0  0  0  0  0  0  0  0  0  0
  150.5512  135.6364  154.9256 C   0  0  0  0  0  0  0  0  0  0  0  0
  151.0997  135.3883  155.9990 O   0  0  0  0  0  0  0  0  0  0  0  0
  149.8674  134.7313  154.2052 N   0  0  0  0  0  0  0  0  0  0  0  0
  149.6298  133.3110  154.5054 C   0  0  0  0  0  0  0  0  0  0  0  0
  150.8137  132.7400  155.3158 C   0  0  0  0  0  0  0  0  0  0  0  0
  148.3418  133.2164  155.3522 C   0  0  0  0  0  0  0  0  0  0  0  0
  147.0839  133.5733  154.5375 C   0  0  0  0  0  0  0  0  0  0  0  0
  146.9896  132.7354  153.3917 O   0  0  0  0  0  0  0  0  0  0  0  0
  148.0917  132.8843  152.5046 C   0  0  0  0  0  0  0  0  0  0  0  0
  149.3951  132.4832  153.2182 C   0  0  0  0  0  0  0  0  0  0  0  0
  150.5497  138.9474  155.5166 C   0  0  0  0  0  0  0  0  0  0  0  0
  148.9864  138.8850  156.1888 Cl  0  0  0  0  0  0  0  0  0  0  0  0
  150.1588  141.7551  156.2258 H   0  0  0  0  0  0  0  0  0  0  0  0
  151.8524  141.9964  156.6314 H   0  0  0  0  0  0  0  0  0  0  0  0
  150.8477  140.9633  157.6390 H   0  0  0  0  0  0  0  0  0  0  0  0
  150.0554  136.8804  153.4332 H   0  0  0  0  0  0  0  0  0  0  0  0
  149.4633  135.0597  153.3403 H   0  0  0  0  0  0  0  0  0  0  0  0
  150.6179  131.7148  155.6319 H   0  0  0  0  0  0  0  0  0  0  0  0
  150.9990  133.3288  156.2149 H   0  0  0  0  0  0  0  0  0  0  0  0
  151.7367  132.7224  154.7362 H   0  0  0  0  0  0  0  0  0  0  0  0
  148.2275  132.2002  155.7324 H   0  0  0  0  0  0  0  0  0  0  0  0
  148.4121  133.8612  156.2295 H   0  0  0  0  0  0  0  0  0  0  0  0
  146.1926  133.4303  155.1486 H   0  0  0  0  0  0  0  0  0  0  0  0
  147.0920  134.6213  154.2345 H   0  0  0  0  0  0  0  0  0  0  0  0
  147.9302  132.2442  151.6373 H   0  0  0  0  0  0  0  0  0  0  0  0
  148.1425  133.9095  152.1350 H   0  0  0  0  0  0  0  0  0  0  0  0
  150.2365  132.5662  152.5306 H   0  0  0  0  0  0  0  0  0  0  0  0
  149.3321  131.4255  153.4775 H   0  0  0  0  0  0  0  0  0  0  0  0
  1  2  1  0  0  0  0
  1 19  1  0  0  0  0
  1 20  1  0  0  0  0
  1 21  1  0  0  0  0
  2 17  1  0  0  0  0
  2  3  2  0  0  0  0
  3  4  1  0  0  0  0
  4  5  1  0  0  0  0
  5  6  1  0  0  0  0
  5 17  2  0  0  0  0
  6  7  1  0  0  0  0
  6 22  1  0  0  0  0
  7  8  2  0  0  0  0
  7  9  1  0  0  0  0
  9 10  1  0  0  0  0
  9 23  1  0  0  0  0
 10 16  1  0  0  0  0
 10 11  1  0  0  0  0
 10 12  1  0  0  0  0
 11 24  1  0  0  0  0
 11 25  1  0  0  0  0
 11 26  1  0  0  0  0
 12 13  1  0  0  0  0
 12 27  1  0  0  0  0
 12 28  1  0  0  0  0
 13 14  1  0  0  0  0
 13 29  1  0  0  0  0
 13 30  1  0  0  0  0
 14 15  1  0  0  0  0
 15 16  1  0  0  0  0
 15 31  1  0  0  0  0
 15 32  1  0  0  0  0
 16 33  1  0  0  0  0
 16 34  1  0  0  0  0
 17 18  1  0  0  0  0
M  END
> <s_m_source_file>
AV-unprocessed.smi

> <i_m_source_file_index>
2585

> <i_lp_mmshare_version>
43012

> <i_f3d_flags>
0

> <s_epik_input>
W0NIM11jMW5zYyhjMUNsKVtOSF1DKD1PKVtOSF1DMihbQ0gzXSlbQ0gyXVtDSDJdT1tDSDJdW0NIMl0y

> <s_epik_cmdline>
J2VwaWtfcHl0aG9uJywgJy1waCcsICc3LjAnLCAnLXRuJywgJzgnLCAnLW1hJywgJzIwMCcsICctbWV0YWxfYmluZGluZycsICctaW1hZScsICc8aW5maWxlLm1hZT4nLCAnLW9tYWUnLCAnPG91dGZpbGUubWFlPic=

> <r_lp_tautomer_probability>
1

> <r_epik_Ionization_Penalty>
3.55893e-05

> <r_epik_Ionization_Penalty_Charging>
0

> <r_epik_Ionization_Penalty_Neutral>
3.55893e-05

> <r_epik_State_Penalty>
-0

> <r_epik_Charging_Adjusted_Penalty>
0

> <i_epik_Tot_Q>
0

> <i_epik_Tot_abs_Q>
0

> <r_epik_Metal_State_Penalty>
-0

> <b_epik_Metal_Only>
0

> <s_lp_Force_Field>
OPLS_2005

> <r_lp_Energy>
7.47922

> <b_lp_Chiralities_Consistent>
1

> <s_lp_Variant>
AV-unprocessed.smi:2585-1

> <Gold.Version>
5.8.1

> <Gold.Id.Protein>
6NUR|6NUR_protein|mol2

> <Gold.PLP.Fitness>
36.6732

> <Gold.PLP.PLP>
-30.5401

> <Gold.PLP.part.hbond>
-4.6765

> <Gold.PLP.part.metal>
0.0000

> <Gold.PLP.part.buried>
-3.6511

> <Gold.PLP.part.nonpolar>
-23.0782

> <Gold.PLP.part.repulsive>
0.2225

> <Gold.PLP.ligand.clash>
0.0046

> <Gold.PLP.ligand.torsion>
1.3034

> <Gold.PLP.Chemscore.Hbond>
2.9126

> <Gold.PLP.Chemscore.CHOScore>
0.0000

> <Gold.PLP.Chemscore.Metal>
0.0000

> <Gold.Chemscore.Hbonds>
donor molecule, donor type, donor heavy atom, donor atom, acceptor molecule, acceptor atom, score
      L1  H     6    22       P1  7948  0.85
      L1  H     9    23       P1  7948  0.50
      P1  H  7989  7998       L1     3  0.06
      P1  H  7997  8009       L1     3  1.00
      P1  H 10752 10764       L1     8  0.21

> <Gold.PLP.Chemscore.Internal.Correction>
0.0065

> <Gold.Rescore>
     Score         DG    S(hbond)    S(metal)    S(lipo)     H(rot)  DE(clash)    DE(int)     intcor
     15.82     -18.45       2.59        0.00      58.62       1.00       0.01       2.62       ----

> <Gold.Chemscore.Fitness>
15.8178

> <Gold.Chemscore.DG>
-18.4451

> <Gold.Chemscore.ZeroCoef>
-5.4800

> <Gold.Chemscore.Hbond>
2.5947

> <Gold.Chemscore.Metal>
0.0000

> <Gold.Chemscore.Lipo>
58.6218

> <Gold.Chemscore.Internal_Hbond>
0.0000

> <Gold.Chemscore.DEClash>
0.0110

> <Gold.Chemscore.DEInternal>
2.6163

> <Gold.Chemscore.Rot>
1.0000

> <Gold.Chemscore.Internal.Correction>
   9.000000E+99

> <Gold.Chemscore.Hbonds>
donor molecule, donor type, donor heavy atom, donor atom, acceptor molecule, acceptor atom, score
      L1  H     6    22       P1  7948  0.14
      L1  H     9    23       P1  7948  0.02
      P1  H  7997  8009       L1     3  0.28
      P1  H 10752 10764       L1     8  0.01

> <Gold.Chemscore.Hbond.Weighted>
-8.6663

> <Gold.Chemscore.Metal.Weighted>
-0.0000

> <Gold.Chemscore.Lipo.Weighted>
-6.8587

> <Gold.Chemscore.Internal_Hbond.Weighted>
0.0000

> <Gold.Chemscore.DEClash.Weighted>
0.0110

> <Gold.Chemscore.DEInternal.Weighted>
2.6163

> <Gold.Chemscore.Rot.Weighted>
2.5600

> <Gold.Chemscore.Internal.Correction.Weighted>
   9.000000E+99

> <Gold.Protein.RotatedTorsions>
[ 6907 6896 6895 6894 ] final   23.92 input  -60.11 | X-H torsion
[ 7974 7965 7964 7962 ] final   74.72 input  175.53 | X-H torsion
[ 8008 7997 7996 7995 ] final -130.59 input   59.86 | X-H torsion
[ 10167 10162 10161 10158 ] final   70.56 input  -65.29 | X-H torsion
[ 10718 10713 10712 10709 ] final  -22.82 input   66.30 | X-H torsion
[ 10763 10752 10751 10750 ] final  -37.77 input  -60.55 | X-H torsion
[ 11005 11000 10999 10996 ] final  178.70 input  -57.11 | X-H torsion

> <Gold.Protein.ActiveResidues>
 VAL166  LYS551  ARG553  GLY616  TRP617  ASP618  TYR619  PRO620  LYS621  CYS622 
 ASP623  PHE694  ASN695  SER759  ASP760  ASP761  ALA762  ILE779  LEU786  VAL792 
 PHE793  MET794  SER795  GLU796  ALA797  LYS798  CYS799  TRP800  GLU811  SER814 

> <Gold.Protein.RotatedAtoms>
  151.9497  135.0175  160.0540 H   0  0  0  0  0  0  0  0  0  0  0  0  # atno 6907 bound_to 6896
  152.1964  133.4805  159.5043 H   0  0  0  0  0  0  0  0  0  0  0  0  # atno 6908 bound_to 6896
  150.6945  134.1564  159.4202 H   0  0  0  0  0  0  0  0  0  0  0  0  # atno 6909 bound_to 6896
  145.7247  139.2661  143.1576 H   0  0  0  0  0  0  0  0  0  0  0  0  # atno 7974 bound_to 7965
  155.2983  140.0451  157.3028 H   0  0  0  0  0  0  0  0  0  0  0  0  # atno 8008 bound_to 7997
  154.5501  140.2315  155.8466 H   0  0  0  0  0  0  0  0  0  0  0  0  # atno 8009 bound_to 7997
  156.1959  140.3038  155.9433 H   0  0  0  0  0  0  0  0  0  0  0  0  # atno 8010 bound_to 7997
  140.0556  144.5275  150.7331 H   0  0  0  0  0  0  0  0  0  0  0  0  # atno 10167 bound_to 10162
  156.4993  130.4584  149.6710 H   0  0  0  0  0  0  0  0  0  0  0  0  # atno 10718 bound_to 10713
  153.9018  135.6801  153.4755 H   0  0  0  0  0  0  0  0  0  0  0  0  # atno 10763 bound_to 10752
  153.1125  135.4776  154.9057 H   0  0  0  0  0  0  0  0  0  0  0  0  # atno 10764 bound_to 10752
  154.7571  135.3200  154.8403 H   0  0  0  0  0  0  0  0  0  0  0  0  # atno 10765 bound_to 10752
  140.3980  134.6803  157.4545 H   0  0  0  0  0  0  0  0  0  0  0  0  # atno 11005 bound_to 11000
  146.0593  140.7987  142.9742 LP  0  0  0  0  0  0  0  0  0  0  0  0  # atno 17320 bound_to 7965
  144.6908  140.3173  143.7238 LP  0  0  0  0  0  0  0  0  0  0  0  0  # atno 17321 bound_to 7965
  140.7196  143.2576  151.4322 LP  0  0  0  0  0  0  0  0  0  0  0  0  # atno 17342 bound_to 10162
  139.5926  144.1467  152.2106 LP  0  0  0  0  0  0  0  0  0  0  0  0  # atno 17343 bound_to 10162
  156.3348  130.7351  151.2286 LP  0  0  0  0  0  0  0  0  0  0  0  0  # atno 17370 bound_to 10713
  157.7465  131.0420  150.4672 LP  0  0  0  0  0  0  0  0  0  0  0  0  # atno 17371 bound_to 10713
  140.0357  134.6340  155.9046 LP  0  0  0  0  0  0  0  0  0  0  0  0  # atno 17394 bound_to 11000
  141.1867  133.6558  156.5251 LP  0  0  0  0  0  0  0  0  0  0  0  0  # atno 17395 bound_to 11000

$$$$
