AV-unprocessed.smi:1381|AV-procd|sdf|5613|dock5
  -GOLD-   22720 5223D 1   1.00000     0.00000
 Structure written by MMmdl.
 42 43  0  0  0  0  0  0  0  0  3 V2000
  151.6353  141.0361  157.8614 C   0  0  0  0  0  0  0  0  0  0  0  0
  150.9070  141.0019  156.5616 C   0  0  0  0  0  0  0  0  0  0  0  0
  149.8550  141.7199  156.0678 C   0  0  0  0  0  0  0  0  0  0  0  0
  149.6675  141.1709  154.7700 C   0  0  0  0  0  0  0  0  0  0  0  0
  148.7465  141.5594  153.8746 N   0  5  0  0  0  0  0  0  0  0  0  0
  147.6319  140.8195  153.6784 C   0  0  0  0  0  0  0  0  0  0  0  0
  146.5541  140.9482  154.2641 O   0  0  0  0  0  0  0  0  0  0  0  0
  147.7741  139.8682  152.7443 N   0  0  0  0  0  0  0  0  0  0  0  0
  146.7433  138.9253  152.3279 C   0  0  0  0  0  0  0  0  0  0  0  0
  146.4587  137.8835  153.4258 C   0  0  0  0  0  0  0  0  0  0  0  0
  146.3993  136.5027  152.8867 N   0  3  1  0  0  0  0  0  0  0  0  0
  146.1752  135.4901  153.9453 C   0  0  0  0  0  0  0  0  0  0  0  0
  146.1828  134.0630  153.3627 C   0  0  2  0  0  0  0  0  0  0  0  0
  147.5865  133.5611  152.9792 C   0  0  0  0  0  0  0  0  0  0  0  0
  145.2600  133.9669  152.2775 O   0  0  0  0  0  0  0  0  0  0  0  0
  145.4701  134.9082  151.2278 C   0  0  1  0  0  0  0  0  0  0  0  0
  144.3998  134.6683  150.1576 C   0  0  0  0  0  0  0  0  0  0  0  0
  145.4056  136.3360  151.7989 C   0  0  0  0  0  0  0  0  0  0  0  0
  150.5390  140.2152  154.4944 N   0  0  0  0  0  0  0  0  0  0  0  0
  151.3340  140.0967  155.6405 O   0  0  0  0  0  0  0  0  0  0  0  0
  152.3279  141.8772  157.8923 H   0  0  0  0  0  0  0  0  0  0  0  0
  152.2073  140.1207  158.0150 H   0  0  0  0  0  0  0  0  0  0  0  0
  150.9379  141.1407  158.6927 H   0  0  0  0  0  0  0  0  0  0  0  0
  149.3042  142.5092  156.5569 H   0  0  0  0  0  0  0  0  0  0  0  0
  148.6721  139.7988  152.2879 H   0  0  0  0  0  0  0  0  0  0  0  0
  145.8438  139.4766  152.0527 H   0  0  0  0  0  0  0  0  0  0  0  0
  147.0889  138.4259  151.4225 H   0  0  0  0  0  0  0  0  0  0  0  0
  147.2588  137.9469  154.1647 H   0  0  0  0  0  0  0  0  0  0  0  0
  145.5323  138.1099  153.9562 H   0  0  0  0  0  0  0  0  0  0  0  0
  146.9384  135.5785  154.7198 H   0  0  0  0  0  0  0  0  0  0  0  0
  145.2148  135.6860  154.4251 H   0  0  0  0  0  0  0  0  0  0  0  0
  145.8100  133.3893  154.1348 H   0  0  0  0  0  0  0  0  0  0  0  0
  148.2337  133.5184  153.8556 H   0  0  0  0  0  0  0  0  0  0  0  0
  148.0737  134.2070  152.2493 H   0  0  0  0  0  0  0  0  0  0  0  0
  147.5378  132.5566  152.5581 H   0  0  0  0  0  0  0  0  0  0  0  0
  146.4459  134.7403  150.7711 H   0  0  0  0  0  0  0  0  0  0  0  0
  144.5189  135.3586  149.3221 H   0  0  0  0  0  0  0  0  0  0  0  0
  143.3969  134.8036  150.5636 H   0  0  0  0  0  0  0  0  0  0  0  0
  144.4647  133.6546  149.7620 H   0  0  0  0  0  0  0  0  0  0  0  0
  144.4058  136.5453  152.1834 H   0  0  0  0  0  0  0  0  0  0  0  0
  145.5933  137.0513  150.9988 H   0  0  0  0  0  0  0  0  0  0  0  0
  147.3093  136.3079  152.4943 H   0  0  0  0  0  0  0  0  0  0  0  0
  1  2  1  0  0  0  0
  1 21  1  0  0  0  0
  1 22  1  0  0  0  0
  1 23  1  0  0  0  0
  2 20  1  0  0  0  0
  2  3  2  0  0  0  0
  3  4  1  0  0  0  0
  3 24  1  0  0  0  0
  4  5  1  0  0  0  0
  4 19  2  0  0  0  0
  5  6  1  0  0  0  0
  6  7  2  0  0  0  0
  6  8  1  0  0  0  0
  8  9  1  0  0  0  0
  8 25  1  0  0  0  0
  9 10  1  0  0  0  0
  9 26  1  0  0  0  0
  9 27  1  0  0  0  0
 10 11  1  0  0  0  0
 10 28  1  0  0  0  0
 10 29  1  0  0  0  0
 11 18  1  0  0  0  0
 11 12  1  0  0  0  0
 11 42  1  0  0  0  0
 12 13  1  0  0  0  0
 12 30  1  0  0  0  0
 12 31  1  0  0  0  0
 13 14  1  0  0  0  0
 13 15  1  0  0  0  0
 13 32  1  0  0  0  0
 14 33  1  0  0  0  0
 14 34  1  0  0  0  0
 14 35  1  0  0  0  0
 15 16  1  0  0  0  0
 16 17  1  0  0  0  0
 16 18  1  0  0  0  0
 16 36  1  0  0  0  0
 17 37  1  0  0  0  0
 17 38  1  0  0  0  0
 17 39  1  0  0  0  0
 18 40  1  0  0  0  0
 18 41  1  0  0  0  0
 19 20  1  0  0  0  0
M  CHG  1   5  -1
M  CHG  1  11   1
M  END
> <s_m_source_file>
AV-unprocessed.smi

> <i_m_source_file_index>
1381

> <i_lp_mmshare_version>
43012

> <i_f3d_flags>
0

> <s_epik_input>
W0NIM11jMVtjSF1jKG5vMSlbTkhdQyg9TylbTkhdW0NIMl1bQ0gyXU4yW0NIMl1bQ0BASF0oW0NIM10pT1tDQEBIXShbQ0gzXSlbQ0gyXTI=

> <s_epik_cmdline>
J2VwaWtfcHl0aG9uJywgJy1waCcsICc3LjAnLCAnLXRuJywgJzgnLCAnLW1hJywgJzIwMCcsICctbWV0YWxfYmluZGluZycsICctaW1hZScsICc8aW5maWxlLm1hZT4nLCAnLW9tYWUnLCAnPG91dGZpbGUubWFlPic=

> <r_epik_Ionization_Penalty>
6.73511

> <r_epik_Ionization_Penalty_Charging>
6.73502

> <r_epik_Ionization_Penalty_Neutral>
9.26583e-05

> <r_epik_State_Penalty>
6.93549

> <r_epik_Charging_Adjusted_Penalty>
13.6705

> <i_epik_Tot_Q>
0

> <i_epik_Tot_abs_Q>
2

> <r_epik_Metal_State_Penalty>
2.87211

> <b_epik_Metal_Only>
1

> <s_lp_Force_Field>
OPLS_2005

> <r_lp_Energy>
5.71057

> <b_lp_Chiralities_Consistent>
1

> <s_lp_Variant>
AV-unprocessed.smi:1381-12

> <Gold.Version>
5.8.1

> <Gold.Id.Protein>
6NUR|6NUR_protein|mol2

> <Gold.PLP.Fitness>
42.5164

> <Gold.PLP.PLP>
-32.6345

> <Gold.PLP.part.hbond>
-4.0064

> <Gold.PLP.part.metal>
0.0000

> <Gold.PLP.part.buried>
-2.8747

> <Gold.PLP.part.nonpolar>
-26.0854

> <Gold.PLP.part.repulsive>
0.6298

> <Gold.PLP.ligand.clash>
0.0000

> <Gold.PLP.ligand.torsion>
1.8531

> <Gold.PLP.Chemscore.Hbond>
4.5005

> <Gold.PLP.Chemscore.CHOScore>
0.0000

> <Gold.PLP.Chemscore.Metal>
0.0000

> <Gold.Chemscore.Hbonds>
donor molecule, donor type, donor heavy atom, donor atom, acceptor molecule, acceptor atom, score
      L1  H     8    25       P1  7957  0.86
      L1  H    11    42       P1  7948  2.00
      P1  H  7989  7998       L1    19  0.95
      P1  H  8011  8017       L1     5  0.64

> <Gold.PLP.Chemscore.Internal.Correction>
0.0865

> <Gold.Rescore>
     Score         DG    S(hbond)    S(metal)    S(lipo)     H(rot)  DE(clash)    DE(int)     intcor
     15.65     -17.58       2.80        0.00      58.15       1.58       0.06       1.88       ----

> <Gold.Chemscore.Fitness>
15.6454

> <Gold.Chemscore.DG>
-17.5816

> <Gold.Chemscore.ZeroCoef>
-5.4800

> <Gold.Chemscore.Hbond>
2.7967

> <Gold.Chemscore.Metal>
0.0000

> <Gold.Chemscore.Lipo>
58.1502

> <Gold.Chemscore.Internal_Hbond>
0.0000

> <Gold.Chemscore.DEClash>
0.0574

> <Gold.Chemscore.DEInternal>
1.8788

> <Gold.Chemscore.Rot>
1.5792

> <Gold.Chemscore.Internal.Correction>
   9.000000E+99

> <Gold.Chemscore.Hbonds>
donor molecule, donor type, donor heavy atom, donor atom, acceptor molecule, acceptor atom, score
      L1  H     8    25       P1  7957  0.81
      L1  H    11    42       P1  7948  1.00
      P1  H  7989  7998       L1    19  0.12
      P1  H  8011  8017       L1     5  0.33

> <Gold.Chemscore.Hbond.Weighted>
-9.3409

> <Gold.Chemscore.Metal.Weighted>
-0.0000

> <Gold.Chemscore.Lipo.Weighted>
-6.8036

> <Gold.Chemscore.Internal_Hbond.Weighted>
0.0000

> <Gold.Chemscore.DEClash.Weighted>
0.0574

> <Gold.Chemscore.DEInternal.Weighted>
1.8788

> <Gold.Chemscore.Rot.Weighted>
4.0428

> <Gold.Chemscore.Internal.Correction.Weighted>
   9.000000E+99

> <Gold.Protein.RotatedTorsions>
[ 6907 6896 6895 6894 ] final   87.14 input  -60.11 | X-H torsion
[ 7974 7965 7964 7962 ] final  -60.17 input  175.53 | X-H torsion
[ 8008 7997 7996 7995 ] final  -24.70 input   59.86 | X-H torsion
[ 10167 10162 10161 10158 ] final -130.37 input  -65.29 | X-H torsion
[ 10718 10713 10712 10709 ] final  -31.00 input   66.30 | X-H torsion
[ 10763 10752 10751 10750 ] final  -43.21 input  -60.55 | X-H torsion
[ 11005 11000 10999 10996 ] final   85.37 input  -57.11 | X-H torsion

> <Gold.Protein.ActiveResidues>
 VAL166  LYS551  ARG553  GLY616  TRP617  ASP618  TYR619  PRO620  LYS621  CYS622 
 ASP623  PHE694  ASN695  SER759  ASP760  ASP761  ALA762  ILE779  LEU786  VAL792 
 PHE793  MET794  SER795  GLU796  ALA797  LYS798  CYS799  TRP800  GLU811  SER814 

> <Gold.Protein.RotatedAtoms>
  152.5406  134.2322  159.8829 H   0  0  0  0  0  0  0  0  0  0  0  0  # atno 6907 bound_to 6896
  151.2293  133.4452  159.2611 H   0  0  0  0  0  0  0  0  0  0  0  0  # atno 6908 bound_to 6896
  151.0730  134.9824  159.8374 H   0  0  0  0  0  0  0  0  0  0  0  0  # atno 6909 bound_to 6896
  145.8187  140.8553  143.0144 H   0  0  0  0  0  0  0  0  0  0  0  0  # atno 7974 bound_to 7965
  154.4515  140.1946  156.0505 H   0  0  0  0  0  0  0  0  0  0  0  0  # atno 8008 bound_to 7997
  156.0658  140.3291  155.7488 H   0  0  0  0  0  0  0  0  0  0  0  0  # atno 8009 bound_to 7997
  155.5341  140.0580  157.2874 H   0  0  0  0  0  0  0  0  0  0  0  0  # atno 8010 bound_to 7997
  139.9300  143.6283  152.2532 H   0  0  0  0  0  0  0  0  0  0  0  0  # atno 10167 bound_to 10162
  156.3928  130.4376  149.7382 H   0  0  0  0  0  0  0  0  0  0  0  0  # atno 10718 bound_to 10713
  153.9917  135.6704  153.4754 H   0  0  0  0  0  0  0  0  0  0  0  0  # atno 10763 bound_to 10752
  153.0702  135.4978  154.8284 H   0  0  0  0  0  0  0  0  0  0  0  0  # atno 10764 bound_to 10752
  154.7105  135.3096  154.9167 H   0  0  0  0  0  0  0  0  0  0  0  0  # atno 10765 bound_to 10752
  139.8973  134.8281  156.2572 H   0  0  0  0  0  0  0  0  0  0  0  0  # atno 11005 bound_to 11000
  144.6750  140.0502  143.7479 LP  0  0  0  0  0  0  0  0  0  0  0  0  # atno 17320 bound_to 7965
  145.9698  139.2861  143.1105 LP  0  0  0  0  0  0  0  0  0  0  0  0  # atno 17321 bound_to 7965
  139.6790  144.7657  151.1643 LP  0  0  0  0  0  0  0  0  0  0  0  0  # atno 17342 bound_to 10162
  140.7640  143.5753  150.8952 LP  0  0  0  0  0  0  0  0  0  0  0  0  # atno 17343 bound_to 10162
  156.4428  130.7869  151.2891 LP  0  0  0  0  0  0  0  0  0  0  0  0  # atno 17370 bound_to 10713
  157.7500  131.0119  150.3365 LP  0  0  0  0  0  0  0  0  0  0  0  0  # atno 17371 bound_to 10713
  141.0186  133.7054  156.1229 LP  0  0  0  0  0  0  0  0  0  0  0  0  # atno 17394 bound_to 11000
  140.7266  134.4300  157.5570 LP  0  0  0  0  0  0  0  0  0  0  0  0  # atno 17395 bound_to 11000

$$$$
