AV-unprocessed.smi:653|AV-procd|sdf|3207|dock3
  -GOLD-   22720 0143D 1   1.00000     0.00000
 Structure written by MMmdl.
 44 45  0  0  0  0  0  0  0  0  1 V2000
  151.8387  145.7090  160.1079 C   0  0  0  0  0  0  0  0  0  0  0  0
  151.6575  144.3365  159.4939 C   0  0  0  0  0  0  0  0  0  0  0  0
  152.4695  143.2537  159.8921 C   0  0  0  0  0  0  0  0  0  0  0  0
  152.2577  141.9991  159.2889 C   0  0  0  0  0  0  0  0  0  0  0  0
  151.2462  141.8752  158.3140 C   0  0  0  0  0  0  0  0  0  0  0  0
  150.9845  140.5464  157.6273 C   0  0  0  0  0  0  0  0  0  0  0  0
  150.7898  140.7495  156.1242 C   0  0  0  0  0  0  0  0  0  0  0  0
  151.7028  140.4823  155.3433 O   0  0  0  0  0  0  0  0  0  0  0  0
  149.5953  141.2204  155.7327 N   0  0  0  0  0  0  0  0  0  0  0  0
  149.2123  141.4940  154.3523 C   0  0  0  0  0  0  0  0  0  0  0  0
  147.8055  140.9565  154.0237 C   0  0  1  0  0  0  0  0  0  0  0  0
  147.7205  139.4459  153.9193 C   0  0  0  0  0  0  0  0  0  0  0  0
  146.2227  139.2114  154.0746 C   0  0  0  0  0  0  0  0  0  0  0  0
  145.7748  140.2106  154.9842 O   0  0  0  0  0  0  0  0  0  0  0  0
  146.7590  141.2359  155.1132 C   0  0  2  0  0  0  0  0  0  0  0  0
  146.1126  142.6400  155.0915 C   0  0  0  0  0  0  0  0  0  0  0  0
  144.7738  142.6368  155.8461 C   0  0  0  0  0  0  0  0  0  0  0  0
  145.9320  143.2096  153.6724 C   0  0  0  0  0  0  0  0  0  0  0  0
  150.4871  143.0201  157.9908 C   0  0  0  0  0  0  0  0  0  0  0  0
  150.6837  144.2269  158.5632 N   0  0  0  0  0  0  0  0  0  0  0  0
  152.7908  145.7819  160.6340 H   0  0  0  0  0  0  0  0  0  0  0  0
  151.0378  145.9117  160.8194 H   0  0  0  0  0  0  0  0  0  0  0  0
  151.8186  146.4808  159.3377 H   0  0  0  0  0  0  0  0  0  0  0  0
  153.2382  143.3789  160.6405 H   0  0  0  0  0  0  0  0  0  0  0  0
  152.8641  141.1494  159.5667 H   0  0  0  0  0  0  0  0  0  0  0  0
  151.8221  139.8707  157.8060 H   0  0  0  0  0  0  0  0  0  0  0  0
  150.0992  140.0710  158.0516 H   0  0  0  0  0  0  0  0  0  0  0  0
  148.9051  141.4127  156.4444 H   0  0  0  0  0  0  0  0  0  0  0  0
  149.2485  142.5733  154.2012 H   0  0  0  0  0  0  0  0  0  0  0  0
  149.9512  141.0649  153.6738 H   0  0  0  0  0  0  0  0  0  0  0  0
  147.4721  141.3736  153.0740 H   0  0  0  0  0  0  0  0  0  0  0  0
  148.1142  139.0562  152.9801 H   0  0  0  0  0  0  0  0  0  0  0  0
  148.2608  138.9735  154.7408 H   0  0  0  0  0  0  0  0  0  0  0  0
  145.7147  139.3586  153.1208 H   0  0  0  0  0  0  0  0  0  0  0  0
  145.9893  138.2087  154.4331 H   0  0  0  0  0  0  0  0  0  0  0  0
  147.2356  141.0801  156.0827 H   0  0  0  0  0  0  0  0  0  0  0  0
  146.7754  143.3165  155.6323 H   0  0  0  0  0  0  0  0  0  0  0  0
  144.0478  141.9821  155.3628 H   0  0  0  0  0  0  0  0  0  0  0  0
  144.3431  143.6375  155.8876 H   0  0  0  0  0  0  0  0  0  0  0  0
  144.9001  142.2928  156.8730 H   0  0  0  0  0  0  0  0  0  0  0  0
  145.3029  142.5625  153.0604 H   0  0  0  0  0  0  0  0  0  0  0  0
  146.8834  143.3352  153.1573 H   0  0  0  0  0  0  0  0  0  0  0  0
  145.4582  144.1908  153.7057 H   0  0  0  0  0  0  0  0  0  0  0  0
  149.7042  142.9689  157.2484 H   0  0  0  0  0  0  0  0  0  0  0  0
  1  2  1  0  0  0  0
  1 21  1  0  0  0  0
  1 22  1  0  0  0  0
  1 23  1  0  0  0  0
  2 20  1  0  0  0  0
  2  3  2  0  0  0  0
  3  4  1  0  0  0  0
  3 24  1  0  0  0  0
  4  5  2  0  0  0  0
  4 25  1  0  0  0  0
  5  6  1  0  0  0  0
  5 19  1  0  0  0  0
  6  7  1  0  0  0  0
  6 26  1  0  0  0  0
  6 27  1  0  0  0  0
  7  8  2  0  0  0  0
  7  9  1  0  0  0  0
  9 10  1  0  0  0  0
  9 28  1  0  0  0  0
 10 11  1  0  0  0  0
 10 29  1  0  0  0  0
 10 30  1  0  0  0  0
 11 15  1  0  0  0  0
 11 12  1  0  0  0  0
 11 31  1  0  0  0  0
 12 13  1  0  0  0  0
 12 32  1  0  0  0  0
 12 33  1  0  0  0  0
 13 14  1  0  0  0  0
 13 34  1  0  0  0  0
 13 35  1  0  0  0  0
 14 15  1  0  0  0  0
 15 16  1  0  0  0  0
 15 36  1  0  0  0  0
 16 17  1  0  0  0  0
 16 18  1  0  0  0  0
 16 37  1  0  0  0  0
 17 38  1  0  0  0  0
 17 39  1  0  0  0  0
 17 40  1  0  0  0  0
 18 41  1  0  0  0  0
 18 42  1  0  0  0  0
 18 43  1  0  0  0  0
 19 20  2  0  0  0  0
 19 44  1  0  0  0  0
M  END
> <s_m_source_file>
AV-unprocessed.smi

> <i_m_source_file_index>
653

> <i_lp_mmshare_version>
43012

> <i_f3d_flags>
0

> <s_epik_input>
W0NIM11jMVtjSF1bY0hdYyhbY0hdbjEpW0NIMl1DKD1PKVtOSF1bQ0gyXVtDQEBIXTJbQ0gyXVtDSDJdT1tDQEhdMltDSF0oW0NIM10pW0NIM10=

> <s_epik_cmdline>
J2VwaWtfcHl0aG9uJywgJy1waCcsICc3LjAnLCAnLXRuJywgJzgnLCAnLW1hJywgJzIwMCcsICctbWV0YWxfYmluZGluZycsICctaW1hZScsICc8aW5maWxlLm1hZT4nLCAnLW9tYWUnLCAnPG91dGZpbGUubWFlPic=

> <r_epik_Ionization_Penalty>
0.0166429

> <r_epik_Ionization_Penalty_Charging>
0

> <r_epik_Ionization_Penalty_Neutral>
0.0166429

> <r_epik_State_Penalty>
0.0131478

> <r_epik_Charging_Adjusted_Penalty>
0.0131478

> <i_epik_Tot_Q>
0

> <i_epik_Tot_abs_Q>
0

> <r_epik_Metal_State_Penalty>
0.012786

> <b_epik_Metal_Only>
0

> <s_lp_Force_Field>
OPLS_2005

> <r_lp_Energy>
17.7281

> <b_lp_Chiralities_Consistent>
1

> <s_lp_Variant>
AV-unprocessed.smi:653-4

> <Gold.Version>
5.8.1

> <Gold.Id.Protein>
6NUR|6NUR_protein|mol2

> <Gold.PLP.Fitness>
43.9885

> <Gold.PLP.PLP>
-40.9582

> <Gold.PLP.part.hbond>
-1.0000

> <Gold.PLP.part.metal>
0.0000

> <Gold.PLP.part.buried>
-4.3206

> <Gold.PLP.part.nonpolar>
-35.7107

> <Gold.PLP.part.repulsive>
0.3719

> <Gold.PLP.ligand.clash>
0.0000

> <Gold.PLP.ligand.torsion>
1.1618

> <Gold.PLP.Chemscore.Hbond>
0.7840

> <Gold.PLP.Chemscore.CHOScore>
0.9911

> <Gold.PLP.Chemscore.Metal>
0.0000

> <Gold.Chemscore.Hbonds>
donor molecule, donor type, donor heavy atom, donor atom, acceptor molecule, acceptor atom, score
      P1  H  7989  7998       L1     8  0.77
      L1  C    19    44       P1  8028  0.99

> <Gold.PLP.Chemscore.Internal.Correction>
0.0286

> <Gold.Rescore>
     Score         DG    S(hbond)    S(metal)    S(lipo)     H(rot)  DE(clash)    DE(int)     intcor
     15.52     -17.18       0.92        0.00     106.20       1.48       0.01       1.65       ----

> <Gold.Chemscore.Fitness>
15.5233

> <Gold.Chemscore.DG>
-17.1810

> <Gold.Chemscore.ZeroCoef>
-5.4800

> <Gold.Chemscore.Hbond>
0.9213

> <Gold.Chemscore.Metal>
0.0000

> <Gold.Chemscore.Lipo>
106.1985

> <Gold.Chemscore.Internal_Hbond>
0.0000

> <Gold.Chemscore.DEClash>
0.0077

> <Gold.Chemscore.DEInternal>
1.6499

> <Gold.Chemscore.Rot>
1.4850

> <Gold.Chemscore.Internal.Correction>
   9.000000E+99

> <Gold.Chemscore.Hbonds>
donor molecule, donor type, donor heavy atom, donor atom, acceptor molecule, acceptor atom, score
      P1  H  7989  7998       L1     8  0.77

> <Gold.Chemscore.Hbond.Weighted>
-3.0773

> <Gold.Chemscore.Metal.Weighted>
-0.0000

> <Gold.Chemscore.Lipo.Weighted>
-12.4252

> <Gold.Chemscore.Internal_Hbond.Weighted>
0.0000

> <Gold.Chemscore.DEClash.Weighted>
0.0077

> <Gold.Chemscore.DEInternal.Weighted>
1.6499

> <Gold.Chemscore.Rot.Weighted>
3.8015

> <Gold.Chemscore.Internal.Correction.Weighted>
   9.000000E+99

> <Gold.Protein.RotatedTorsions>
[ 6907 6896 6895 6894 ] final  133.24 input  -60.11 | X-H torsion
[ 7974 7965 7964 7962 ] final -127.20 input  175.53 | X-H torsion
[ 8008 7997 7996 7995 ] final -100.16 input   59.86 | X-H torsion
[ 10167 10162 10161 10158 ] final  163.44 input  -65.29 | X-H torsion
[ 10718 10713 10712 10709 ] final   39.51 input   66.30 | X-H torsion
[ 10763 10752 10751 10750 ] final -100.95 input  -60.55 | X-H torsion
[ 11005 11000 10999 10996 ] final -131.79 input  -57.11 | X-H torsion

> <Gold.Protein.ActiveResidues>
 VAL166  LYS551  ARG553  GLY616  TRP617  ASP618  TYR619  PRO620  LYS621  CYS622 
 ASP623  PHE694  ASN695  SER759  ASP760  ASP761  ALA762  ILE779  LEU786  VAL792 
 PHE793  MET794  SER795  GLU796  ALA797  LYS798  CYS799  TRP800  GLU811  SER814 

> <Gold.Protein.RotatedAtoms>
  152.3240  133.5884  159.5763 H   0  0  0  0  0  0  0  0  0  0  0  0  # atno 6907 bound_to 6896
  150.7386  133.9969  159.3634 H   0  0  0  0  0  0  0  0  0  0  0  0  # atno 6908 bound_to 6896
  151.7850  135.0752  160.0430 H   0  0  0  0  0  0  0  0  0  0  0  0  # atno 6909 bound_to 6896
  144.9795  140.7626  143.4621 H   0  0  0  0  0  0  0  0  0  0  0  0  # atno 7974 bound_to 7965
  154.8248  140.0443  157.1436 H   0  0  0  0  0  0  0  0  0  0  0  0  # atno 8008 bound_to 7997
  154.9218  140.3028  155.5192 H   0  0  0  0  0  0  0  0  0  0  0  0  # atno 8009 bound_to 7997
  156.2983  140.2339  156.4269 H   0  0  0  0  0  0  0  0  0  0  0  0  # atno 8010 bound_to 7997
  139.4874  144.4337  151.9039 H   0  0  0  0  0  0  0  0  0  0  0  0  # atno 10167 bound_to 10162
  157.3715  130.7703  149.7122 H   0  0  0  0  0  0  0  0  0  0  0  0  # atno 10718 bound_to 10713
  154.7619  135.4916  153.9481 H   0  0  0  0  0  0  0  0  0  0  0  0  # atno 10763 bound_to 10752
  153.1262  135.6743  153.9261 H   0  0  0  0  0  0  0  0  0  0  0  0  # atno 10764 bound_to 10752
  153.8979  135.3113  155.3427 H   0  0  0  0  0  0  0  0  0  0  0  0  # atno 10765 bound_to 10752
  140.9228  134.1422  157.4300 H   0  0  0  0  0  0  0  0  0  0  0  0  # atno 11005 bound_to 11000
  145.2442  139.2059  143.4977 LP  0  0  0  0  0  0  0  0  0  0  0  0  # atno 17320 bound_to 7965
  146.3404  140.2343  142.8594 LP  0  0  0  0  0  0  0  0  0  0  0  0  # atno 17321 bound_to 7965
  140.3785  144.2766  150.5911 LP  0  0  0  0  0  0  0  0  0  0  0  0  # atno 17342 bound_to 10162
  140.5254  143.2255  151.8322 LP  0  0  0  0  0  0  0  0  0  0  0  0  # atno 17343 bound_to 10162
  155.9756  130.4086  150.3835 LP  0  0  0  0  0  0  0  0  0  0  0  0  # atno 17370 bound_to 10713
  157.1927  131.0419  151.2692 LP  0  0  0  0  0  0  0  0  0  0  0  0  # atno 17371 bound_to 10713
  139.8779  134.9977  156.5863 LP  0  0  0  0  0  0  0  0  0  0  0  0  # atno 17394 bound_to 11000
  140.7966  133.8539  155.8690 LP  0  0  0  0  0  0  0  0  0  0  0  0  # atno 17395 bound_to 11000

$$$$
