AV-unprocessed.smi:1740|AV-procd|sdf|7006|dock8
  -GOLD-   22720 8213D 1   1.00000     0.00000
 Structure written by MMmdl.
 51 53  0  0  0  0  0  0  0  0  1 V2000
  149.9494  142.3417  156.1091 N   0  0  0  0  0  0  0  0  0  0  0  0
  150.8728  142.2330  157.0672 C   0  0  0  0  0  0  0  0  0  0  0  0
  151.3551  143.2146  157.6282 O   0  0  0  0  0  0  0  0  0  0  0  0
  151.3147  140.8171  157.4574 C   0  0  0  0  0  0  0  0  0  0  0  0
  150.6994  139.7365  156.6533 N   0  0  0  0  0  0  0  0  0  0  0  0
  150.8386  138.4641  157.3699 C   0  0  0  0  0  0  0  0  0  0  0  0
  150.1010  137.3367  156.6268 C   0  0  0  0  0  0  0  0  0  0  0  0
  150.6316  137.1821  155.1927 C   0  0  0  0  0  0  0  0  0  0  0  0
  149.8495  136.1994  154.4492 N   0  0  0  0  0  0  0  0  0  0  0  0
  149.7917  134.8892  154.7254 C   0  0  0  0  0  0  0  0  0  0  0  0
  150.4029  134.3605  155.6542 O   0  0  0  0  0  0  0  0  0  0  0  0
  149.0031  134.2437  153.8504 N   0  0  0  0  0  0  0  0  0  0  0  0
  148.7247  132.8493  153.7844 C   0  0  0  0  0  0  0  0  0  0  0  0
  149.5277  131.9015  154.4649 C   0  0  0  0  0  0  0  0  0  0  0  0
  149.1728  130.5421  154.4265 C   0  0  0  0  0  0  0  0  0  0  0  0
  148.0146  130.1779  153.7202 C   0  0  0  0  0  0  0  0  0  0  0  0
  147.2316  131.0687  153.0797 N   0  0  0  0  0  0  0  0  0  0  0  0
  147.5691  132.3821  153.0951 C   0  0  0  0  0  0  0  0  0  0  0  0
  146.7233  133.2683  152.3896 N   0  0  0  0  0  0  0  0  0  0  0  0
  145.7800  132.6938  151.4343 C   0  0  0  0  0  0  0  0  0  0  0  0
  144.4978  133.5266  151.5367 C   0  0  0  0  0  0  0  0  0  0  0  0
  144.9724  134.8447  152.1402 C   0  0  0  0  0  0  0  0  0  0  0  0
  146.0895  134.3899  153.0750 C   0  0  0  0  0  0  0  0  0  0  0  0
  150.5659  138.5441  154.4890 C   0  0  0  0  0  0  0  0  0  0  0  0
  151.2845  139.6309  155.3082 C   0  0  0  0  0  0  0  0  0  0  0  0
  149.6306  143.2561  155.8234 H   0  0  0  0  0  0  0  0  0  0  0  0
  149.5728  141.5119  155.6746 H   0  0  0  0  0  0  0  0  0  0  0  0
  152.4024  140.7418  157.4010 H   0  0  0  0  0  0  0  0  0  0  0  0
  151.0502  140.6817  158.5070 H   0  0  0  0  0  0  0  0  0  0  0  0
  151.8929  138.2084  157.4907 H   0  0  0  0  0  0  0  0  0  0  0  0
  150.4186  138.5570  158.3723 H   0  0  0  0  0  0  0  0  0  0  0  0
  150.2176  136.4006  157.1739 H   0  0  0  0  0  0  0  0  0  0  0  0
  149.0314  137.5531  156.6090 H   0  0  0  0  0  0  0  0  0  0  0  0
  151.6754  136.8633  155.2283 H   0  0  0  0  0  0  0  0  0  0  0  0
  149.3147  136.5440  153.6654 H   0  0  0  0  0  0  0  0  0  0  0  0
  148.6444  134.7928  153.0829 H   0  0  0  0  0  0  0  0  0  0  0  0
  150.3956  132.1975  155.0341 H   0  0  0  0  0  0  0  0  0  0  0  0
  149.7674  129.7992  154.9369 H   0  0  0  0  0  0  0  0  0  0  0  0
  147.7042  129.1446  153.6730 H   0  0  0  0  0  0  0  0  0  0  0  0
  146.1992  132.7802  150.4314 H   0  0  0  0  0  0  0  0  0  0  0  0
  145.5858  131.6381  151.6304 H   0  0  0  0  0  0  0  0  0  0  0  0
  143.9959  133.6518  150.5768 H   0  0  0  0  0  0  0  0  0  0  0  0
  143.7996  133.0422  152.2209 H   0  0  0  0  0  0  0  0  0  0  0  0
  145.3772  135.4887  151.3583 H   0  0  0  0  0  0  0  0  0  0  0  0
  144.1813  135.3899  152.6555 H   0  0  0  0  0  0  0  0  0  0  0  0
  145.6578  134.0728  154.0253 H   0  0  0  0  0  0  0  0  0  0  0  0
  146.8045  135.1892  153.2719 H   0  0  0  0  0  0  0  0  0  0  0  0
  151.0154  138.4737  153.4979 H   0  0  0  0  0  0  0  0  0  0  0  0
  149.5256  138.8367  154.3367 H   0  0  0  0  0  0  0  0  0  0  0  0
  151.1926  140.5731  154.7680 H   0  0  0  0  0  0  0  0  0  0  0  0
  152.3510  139.4099  155.3778 H   0  0  0  0  0  0  0  0  0  0  0  0
  1  2  1  0  0  0  0
  1 26  1  0  0  0  0
  1 27  1  0  0  0  0
  2  3  2  0  0  0  0
  2  4  1  0  0  0  0
  4  5  1  0  0  0  0
  4 28  1  0  0  0  0
  4 29  1  0  0  0  0
  5 25  1  0  0  0  0
  5  6  1  0  0  0  0
  6  7  1  0  0  0  0
  6 30  1  0  0  0  0
  6 31  1  0  0  0  0
  7  8  1  0  0  0  0
  7 32  1  0  0  0  0
  7 33  1  0  0  0  0
  8  9  1  0  0  0  0
  8 24  1  0  0  0  0
  8 34  1  0  0  0  0
  9 10  1  0  0  0  0
  9 35  1  0  0  0  0
 10 11  2  0  0  0  0
 10 12  1  0  0  0  0
 12 13  1  0  0  0  0
 12 36  1  0  0  0  0
 13 18  1  0  0  0  0
 13 14  2  0  0  0  0
 14 15  1  0  0  0  0
 14 37  1  0  0  0  0
 15 16  2  0  0  0  0
 15 38  1  0  0  0  0
 16 17  1  0  0  0  0
 16 39  1  0  0  0  0
 17 18  2  0  0  0  0
 18 19  1  0  0  0  0
 19 23  1  0  0  0  0
 19 20  1  0  0  0  0
 20 21  1  0  0  0  0
 20 40  1  0  0  0  0
 20 41  1  0  0  0  0
 21 22  1  0  0  0  0
 21 42  1  0  0  0  0
 21 43  1  0  0  0  0
 22 23  1  0  0  0  0
 22 44  1  0  0  0  0
 22 45  1  0  0  0  0
 23 46  1  0  0  0  0
 23 47  1  0  0  0  0
 24 25  1  0  0  0  0
 24 48  1  0  0  0  0
 24 49  1  0  0  0  0
 25 50  1  0  0  0  0
 25 51  1  0  0  0  0
M  END
> <s_m_source_file>
AV-unprocessed.smi

> <i_m_source_file_index>
1740

> <i_lp_mmshare_version>
43012

> <i_f3d_flags>
0

> <s_epik_input>
W05IMl1DKD1PKVtDSDJdTjFbQ0gyXVtDSDJdW0NIXShbQ0gyXVtDSDJdMSlbTkhdQyg9TylbTkhdYzJbY0hdW2NIXVtjSF1uYzJOM1tDSDJdW0NIMl1bQ0gyXVtDSDJdMw==

> <s_epik_cmdline>
J2VwaWtfcHl0aG9uJywgJy1waCcsICc3LjAnLCAnLXRuJywgJzgnLCAnLW1hJywgJzIwMCcsICctbWV0YWxfYmluZGluZycsICctaW1hZScsICc8aW5maWxlLm1hZT4nLCAnLW9tYWUnLCAnPG91dGZpbGUubWFlPic=

> <r_lp_tautomer_probability>
1

> <r_epik_Ionization_Penalty>
0.268698

> <r_epik_Ionization_Penalty_Charging>
0

> <r_epik_Ionization_Penalty_Neutral>
0.268698

> <r_epik_State_Penalty>
0.247497

> <r_epik_Charging_Adjusted_Penalty>
0.247497

> <i_epik_Tot_Q>
0

> <i_epik_Tot_abs_Q>
0

> <r_epik_Metal_State_Penalty>
0.244805

> <b_epik_Metal_Only>
0

> <s_lp_Force_Field>
OPLS_2005

> <r_lp_Energy>
39.8984

> <b_lp_Chiralities_Consistent>
1

> <s_lp_Variant>
AV-unprocessed.smi:1740-1

> <Gold.Version>
5.8.1

> <Gold.Id.Protein>
6NUR|6NUR_protein|mol2

> <Gold.PLP.Fitness>
46.9195

> <Gold.PLP.PLP>
-39.1322

> <Gold.PLP.part.hbond>
-3.5847

> <Gold.PLP.part.metal>
0.0000

> <Gold.PLP.part.buried>
-5.0464

> <Gold.PLP.part.nonpolar>
-31.1395

> <Gold.PLP.part.repulsive>
0.7418

> <Gold.PLP.ligand.clash>
0.0000

> <Gold.PLP.ligand.torsion>
0.4597

> <Gold.PLP.Chemscore.Hbond>
2.7920

> <Gold.PLP.Chemscore.CHOScore>
0.0000

> <Gold.PLP.Chemscore.Metal>
0.0000

> <Gold.Chemscore.Hbonds>
donor molecule, donor type, donor heavy atom, donor atom, acceptor molecule, acceptor atom, score
      L1  H     1    26       P1  8028  1.00
      L1  H     9    35       P1  7948  0.83
      L1  H    12    36       P1  7948  0.93

> <Gold.PLP.Chemscore.Internal.Correction>
0.3307

> <Gold.Rescore>
     Score         DG    S(hbond)    S(metal)    S(lipo)     H(rot)  DE(clash)    DE(int)     intcor
     13.46     -16.29       2.48        0.00      68.98       2.16       0.00       2.83       ----

> <Gold.Chemscore.Fitness>
13.4576

> <Gold.Chemscore.DG>
-16.2889

> <Gold.Chemscore.ZeroCoef>
-5.4800

> <Gold.Chemscore.Hbond>
2.4782

> <Gold.Chemscore.Metal>
0.0000

> <Gold.Chemscore.Lipo>
68.9757

> <Gold.Chemscore.Internal_Hbond>
0.0000

> <Gold.Chemscore.DEClash>
0.0000

> <Gold.Chemscore.DEInternal>
2.8313

> <Gold.Chemscore.Rot>
2.1635

> <Gold.Chemscore.Internal.Correction>
   9.000000E+99

> <Gold.Chemscore.Hbonds>
donor molecule, donor type, donor heavy atom, donor atom, acceptor molecule, acceptor atom, score
      L1  H     1    26       P1  8028  1.00
      L1  H     9    35       P1  7948  0.77
      L1  H    12    36       P1  7948  0.31

> <Gold.Chemscore.Hbond.Weighted>
-8.2773

> <Gold.Chemscore.Metal.Weighted>
-0.0000

> <Gold.Chemscore.Lipo.Weighted>
-8.0702

> <Gold.Chemscore.Internal_Hbond.Weighted>
0.0000

> <Gold.Chemscore.DEClash.Weighted>
0.0000

> <Gold.Chemscore.DEInternal.Weighted>
2.8313

> <Gold.Chemscore.Rot.Weighted>
5.5385

> <Gold.Chemscore.Internal.Correction.Weighted>
   9.000000E+99

> <Gold.Protein.RotatedTorsions>
[ 6907 6896 6895 6894 ] final  140.51 input  -60.11 | X-H torsion
[ 7974 7965 7964 7962 ] final -178.76 input  175.53 | X-H torsion
[ 8008 7997 7996 7995 ] final   29.75 input   59.86 | X-H torsion
[ 10167 10162 10161 10158 ] final   11.51 input  -65.29 | X-H torsion
[ 10718 10713 10712 10709 ] final  -32.74 input   66.30 | X-H torsion
[ 10763 10752 10751 10750 ] final  133.10 input  -60.55 | X-H torsion
[ 11005 11000 10999 10996 ] final  172.15 input  -57.11 | X-H torsion

> <Gold.Protein.ActiveResidues>
 VAL166  LYS551  ARG553  GLY616  TRP617  ASP618  TYR619  PRO620  LYS621  CYS622 
 ASP623  PHE694  ASN695  SER759  ASP760  ASP761  ALA762  ILE779  LEU786  VAL792 
 PHE793  MET794  SER795  GLU796  ALA797  LYS798  CYS799  TRP800  GLU811  SER814 

> <Gold.Protein.RotatedAtoms>
  152.2422  133.5145  159.5276 H   0  0  0  0  0  0  0  0  0  0  0  0  # atno 6907 bound_to 6896
  150.7068  134.1073  159.3996 H   0  0  0  0  0  0  0  0  0  0  0  0  # atno 6908 bound_to 6896
  151.8994  135.0384  160.0556 H   0  0  0  0  0  0  0  0  0  0  0  0  # atno 6909 bound_to 6896
  144.7132  140.0819  143.6425 H   0  0  0  0  0  0  0  0  0  0  0  0  # atno 7974 bound_to 7965
  155.0794  140.3208  155.4606 H   0  0  0  0  0  0  0  0  0  0  0  0  # atno 8008 bound_to 7997
  156.2771  140.2097  156.5867 H   0  0  0  0  0  0  0  0  0  0  0  0  # atno 8009 bound_to 7997
  154.6991  140.0509  157.0427 H   0  0  0  0  0  0  0  0  0  0  0  0  # atno 8010 bound_to 7997
  140.6127  143.8373  150.7084 H   0  0  0  0  0  0  0  0  0  0  0  0  # atno 10167 bound_to 10162
  156.3712  130.4340  149.7544 H   0  0  0  0  0  0  0  0  0  0  0  0  # atno 10718 bound_to 10713
  153.8017  135.3141  155.3391 H   0  0  0  0  0  0  0  0  0  0  0  0  # atno 10763 bound_to 10752
  154.8086  135.4681  154.0461 H   0  0  0  0  0  0  0  0  0  0  0  0  # atno 10764 bound_to 10752
  153.1811  135.6893  153.8565 H   0  0  0  0  0  0  0  0  0  0  0  0  # atno 10765 bound_to 10752
  140.3266  134.7393  157.4103 H   0  0  0  0  0  0  0  0  0  0  0  0  # atno 11005 bound_to 11000
  145.9694  139.2859  143.1108 LP  0  0  0  0  0  0  0  0  0  0  0  0  # atno 17320 bound_to 7965
  145.9133  140.9165  143.0443 LP  0  0  0  0  0  0  0  0  0  0  0  0  # atno 17321 bound_to 7965
  140.1945  143.4009  152.1838 LP  0  0  0  0  0  0  0  0  0  0  0  0  # atno 17342 bound_to 10162
  139.5374  144.7223  151.4847 LP  0  0  0  0  0  0  0  0  0  0  0  0  # atno 17343 bound_to 10162
  156.4670  130.7979  151.2997 LP  0  0  0  0  0  0  0  0  0  0  0  0  # atno 17370 bound_to 10713
  157.7484  131.0048  150.3088 LP  0  0  0  0  0  0  0  0  0  0  0  0  # atno 17371 bound_to 10713
  140.0896  134.5619  155.8457 LP  0  0  0  0  0  0  0  0  0  0  0  0  # atno 17394 bound_to 11000
  141.2074  133.6663  156.6301 LP  0  0  0  0  0  0  0  0  0  0  0  0  # atno 17395 bound_to 11000

$$$$
