AV-unprocessed.smi:203|AV-procd|sdf|1588|dock9
  -GOLD-   2262019483D 1   1.00000     0.00000
 Structure written by MMmdl.
 57 61  0  0  0  0  0  0  0  0  1 V2000
  150.7838  145.6528  159.5047 O   0  0  0  0  0  0  0  0  0  0  0  0
  150.9057  144.5054  159.0825 C   0  0  0  0  0  0  0  0  0  0  0  0
  152.1175  144.0234  158.3037 C   0  0  0  0  0  0  0  0  0  0  0  0
  151.9092  142.4989  158.2115 C   0  0  1  0  0  0  0  0  0  0  0  0
  152.9397  141.6656  159.0382 C   0  0  1  0  0  0  0  0  0  0  0  0
  153.3050  142.3343  160.3903 C   0  0  0  0  0  0  0  0  0  0  0  0
  154.3128  141.4961  161.1873 C   0  0  0  0  0  0  0  0  0  0  0  0
  153.7663  140.0791  161.3898 C   0  0  0  0  0  0  0  0  0  0  0  0
  153.4294  139.4406  160.0361 C   0  0  0  0  0  0  0  0  0  0  0  0
  152.5052  140.2756  159.2691 N   0  0  0  0  0  0  0  0  0  0  0  0
  152.0534  139.6039  158.1867 C   0  0  0  0  0  0  0  0  0  0  0  0
  152.4849  140.0249  156.9725 N   0  0  0  0  0  0  0  0  0  0  0  0
  152.0829  139.3920  155.8660 C   0  0  0  0  0  0  0  0  0  0  0  0
  151.2681  138.3405  155.7541 N   0  0  0  0  0  0  0  0  0  0  0  0
  150.8267  137.9222  156.9753 C   0  0  0  0  0  0  0  0  0  0  0  0
  151.1649  138.4927  158.2339 C   0  0  0  0  0  0  0  0  0  0  0  0
  150.5235  137.8034  159.2561 N   0  0  0  0  0  0  0  0  0  0  0  0
  149.8423  136.8784  158.6364 C   0  0  0  0  0  0  0  0  0  0  0  0
  149.9678  136.8772  157.2657 N   0  0  0  0  0  0  0  0  0  0  0  0
  149.3225  135.9669  156.3368 C   0  0  0  0  0  0  0  0  0  0  0  0
  149.9591  134.5605  156.3574 C   0  0  1  0  0  0  0  0  0  0  0  0
  149.9518  134.0285  157.6672 O   0  0  0  0  0  0  0  0  0  0  0  0
  149.2894  133.5445  155.4091 C   0  0  2  0  0  0  0  0  0  0  0  0
  149.9928  132.1850  155.3408 C   0  0  0  0  0  0  0  0  0  0  0  0
  149.7024  131.6846  153.9321 C   0  0  0  0  0  0  0  0  0  0  0  0
  148.9955  132.8583  153.2529 C   0  0  0  0  0  0  0  0  0  0  0  0
  149.3201  133.9804  154.0580 O   0  0  0  0  0  0  0  0  0  0  0  0
  150.4391  142.2718  158.6310 C   0  0  0  0  0  0  0  0  0  0  0  0
  150.0189  143.5237  159.2296 N   0  0  0  0  0  0  0  0  0  0  0  0
  152.1058  144.4815  157.3140 H   0  0  0  0  0  0  0  0  0  0  0  0
  153.0501  144.3060  158.7923 H   0  0  0  0  0  0  0  0  0  0  0  0
  152.0081  142.2380  157.1574 H   0  0  0  0  0  0  0  0  0  0  0  0
  153.8582  141.6162  158.4525 H   0  0  0  0  0  0  0  0  0  0  0  0
  153.7244  143.3272  160.2324 H   0  0  0  0  0  0  0  0  0  0  0  0
  152.4107  142.4757  160.9973 H   0  0  0  0  0  0  0  0  0  0  0  0
  155.2635  141.4546  160.6541 H   0  0  0  0  0  0  0  0  0  0  0  0
  154.5132  141.9643  162.1514 H   0  0  0  0  0  0  0  0  0  0  0  0
  154.4950  139.4670  161.9215 H   0  0  0  0  0  0  0  0  0  0  0  0
  152.8718  140.1140  162.0130 H   0  0  0  0  0  0  0  0  0  0  0  0
  154.3459  139.2906  159.4634 H   0  0  0  0  0  0  0  0  0  0  0  0
  152.9921  138.4543  160.1993 H   0  0  0  0  0  0  0  0  0  0  0  0
  152.4697  139.7842  154.9371 H   0  0  0  0  0  0  0  0  0  0  0  0
  149.2236  136.1675  159.1648 H   0  0  0  0  0  0  0  0  0  0  0  0
  148.2616  135.9158  156.5851 H   0  0  0  0  0  0  0  0  0  0  0  0
  149.3857  136.4021  155.3394 H   0  0  0  0  0  0  0  0  0  0  0  0
  151.0097  134.6447  156.0763 H   0  0  0  0  0  0  0  0  0  0  0  0
  149.2665  134.4556  158.1586 H   0  0  0  0  0  0  0  0  0  0  0  0
  148.2504  133.3798  155.7033 H   0  0  0  0  0  0  0  0  0  0  0  0
  151.0696  132.2917  155.4732 H   0  0  0  0  0  0  0  0  0  0  0  0
  149.6319  131.5019  156.1101 H   0  0  0  0  0  0  0  0  0  0  0  0
  150.6335  131.4409  153.4191 H   0  0  0  0  0  0  0  0  0  0  0  0
  149.0758  130.7921  153.9321 H   0  0  0  0  0  0  0  0  0  0  0  0
  149.3136  133.0015  152.2198 H   0  0  0  0  0  0  0  0  0  0  0  0
  147.9142  132.7122  153.2601 H   0  0  0  0  0  0  0  0  0  0  0  0
  149.8148  142.0681  157.7601 H   0  0  0  0  0  0  0  0  0  0  0  0
  150.3117  141.4431  159.3275 H   0  0  0  0  0  0  0  0  0  0  0  0
  149.1393  143.6251  159.7152 H   0  0  0  0  0  0  0  0  0  0  0  0
  1  2  2  0  0  0  0
  2 29  1  0  0  0  0
  2  3  1  0  0  0  0
  3  4  1  0  0  0  0
  3 30  1  0  0  0  0
  3 31  1  0  0  0  0
  4  5  1  0  0  0  0
  4 28  1  0  0  0  0
  4 32  1  0  0  0  0
  5 10  1  0  0  0  0
  5  6  1  0  0  0  0
  5 33  1  0  0  0  0
  6  7  1  0  0  0  0
  6 34  1  0  0  0  0
  6 35  1  0  0  0  0
  7  8  1  0  0  0  0
  7 36  1  0  0  0  0
  7 37  1  0  0  0  0
  8  9  1  0  0  0  0
  8 38  1  0  0  0  0
  8 39  1  0  0  0  0
  9 10  1  0  0  0  0
  9 40  1  0  0  0  0
  9 41  1  0  0  0  0
 10 11  1  0  0  0  0
 11 16  1  0  0  0  0
 11 12  2  0  0  0  0
 12 13  1  0  0  0  0
 13 14  2  0  0  0  0
 13 42  1  0  0  0  0
 14 15  1  0  0  0  0
 15 19  1  0  0  0  0
 15 16  2  0  0  0  0
 16 17  1  0  0  0  0
 17 18  2  0  0  0  0
 18 19  1  0  0  0  0
 18 43  1  0  0  0  0
 19 20  1  0  0  0  0
 20 21  1  0  0  0  0
 20 44  1  0  0  0  0
 20 45  1  0  0  0  0
 21 22  1  0  0  0  0
 21 23  1  0  0  0  0
 21 46  1  0  0  0  0
 22 47  1  0  0  0  0
 23 27  1  0  0  0  0
 23 24  1  0  0  0  0
 23 48  1  0  0  0  0
 24 25  1  0  0  0  0
 24 49  1  0  0  0  0
 24 50  1  0  0  0  0
 25 26  1  0  0  0  0
 25 51  1  0  0  0  0
 25 52  1  0  0  0  0
 26 27  1  0  0  0  0
 26 53  1  0  0  0  0
 26 54  1  0  0  0  0
 28 29  1  0  0  0  0
 28 55  1  0  0  0  0
 28 56  1  0  0  0  0
 29 57  1  0  0  0  0
M  END
> <s_m_source_file>
AV-unprocessed.smi

> <i_m_source_file_index>
203

> <i_lp_mmshare_version>
43012

> <i_f3d_flags>
0

> <s_epik_input>
Tz1DMVtDSDJdW0NASF0oW0NIMl1bTkhdMSlbQ0BASF0yW0NIMl1bQ0gyXVtDSDJdW0NIMl1OMmMobltjSF1uMyljKGMzNCluW2NIXW40W0NIMl1bQ0BIXShbT0hdKVtDQEBIXTVbQ0gyXVtDSDJdW0NIMl1PNQ==

> <s_epik_cmdline>
J2VwaWtfcHl0aG9uJywgJy1waCcsICc3LjAnLCAnLXRuJywgJzgnLCAnLW1hJywgJzIwMCcsICctbWV0YWxfYmluZGluZycsICctaW1hZScsICc8aW5maWxlLm1hZT4nLCAnLW9tYWUnLCAnPG91dGZpbGUubWFlPic=

> <r_lp_tautomer_probability>
1

> <r_epik_Ionization_Penalty>
0.00175146

> <r_epik_Ionization_Penalty_Charging>
0

> <r_epik_Ionization_Penalty_Neutral>
0.00175146

> <r_epik_State_Penalty>
0.00109045

> <r_epik_Charging_Adjusted_Penalty>
0.00109045

> <i_epik_Tot_Q>
0

> <i_epik_Tot_abs_Q>
0

> <r_epik_Metal_State_Penalty>
-0

> <b_epik_Metal_Only>
0

> <s_lp_Force_Field>
OPLS_2005

> <r_lp_Energy>
57.1274

> <b_lp_Chiralities_Consistent>
1

> <s_lp_Variant>
AV-unprocessed.smi:203-7

> <Gold.Version>
5.8.1

> <Gold.Id.Protein>
6NUR|6NUR_protein|mol2

> <Gold.PLP.Fitness>
47.2842

> <Gold.PLP.PLP>
-44.2489

> <Gold.PLP.part.hbond>
-4.2147

> <Gold.PLP.part.metal>
0.0000

> <Gold.PLP.part.buried>
-5.4006

> <Gold.PLP.part.nonpolar>
-35.1344

> <Gold.PLP.part.repulsive>
0.6223

> <Gold.PLP.ligand.clash>
0.0000

> <Gold.PLP.ligand.torsion>
0.9929

> <Gold.PLP.Chemscore.Hbond>
1.5760

> <Gold.PLP.Chemscore.CHOScore>
0.0000

> <Gold.PLP.Chemscore.Metal>
0.0000

> <Gold.Chemscore.Hbonds>
donor molecule, donor type, donor heavy atom, donor atom, acceptor molecule, acceptor atom, score
      P1  H  6896  6908       L1    22  0.50
      P1  H  7997  8010       L1    12  1.00

> <Gold.PLP.Chemscore.Internal.Correction>
0.2930

> <Gold.Rescore>
     Score         DG    S(hbond)    S(metal)    S(lipo)     H(rot)  DE(clash)    DE(int)     intcor
     12.45     -14.93       1.31        0.00     102.73       2.72       0.04       2.44       ----

> <Gold.Chemscore.Fitness>
12.4468

> <Gold.Chemscore.DG>
-14.9268

> <Gold.Chemscore.ZeroCoef>
-5.4800

> <Gold.Chemscore.Hbond>
1.3123

> <Gold.Chemscore.Metal>
0.0000

> <Gold.Chemscore.Lipo>
102.7309

> <Gold.Chemscore.Internal_Hbond>
0.0000

> <Gold.Chemscore.DEClash>
0.0383

> <Gold.Chemscore.DEInternal>
2.4417

> <Gold.Chemscore.Rot>
2.7171

> <Gold.Chemscore.Internal.Correction>
   9.000000E+99

> <Gold.Chemscore.Hbonds>
donor molecule, donor type, donor heavy atom, donor atom, acceptor molecule, acceptor atom, score
      P1  H  6896  6908       L1    22  0.09
      P1  H  7997  8010       L1    12  0.32

> <Gold.Chemscore.Hbond.Weighted>
-4.3830

> <Gold.Chemscore.Metal.Weighted>
-0.0000

> <Gold.Chemscore.Lipo.Weighted>
-12.0195

> <Gold.Chemscore.Internal_Hbond.Weighted>
0.0000

> <Gold.Chemscore.DEClash.Weighted>
0.0383

> <Gold.Chemscore.DEInternal.Weighted>
2.4417

> <Gold.Chemscore.Rot.Weighted>
6.9557

> <Gold.Chemscore.Internal.Correction.Weighted>
   9.000000E+99

> <Gold.Protein.RotatedTorsions>
[ 6907 6896 6895 6894 ] final   95.19 input  -60.11 | X-H torsion
[ 7974 7965 7964 7962 ] final -173.40 input  175.53 | X-H torsion
[ 8008 7997 7996 7995 ] final   55.26 input   59.86 | X-H torsion
[ 10167 10162 10161 10158 ] final -108.83 input  -65.29 | X-H torsion
[ 10718 10713 10712 10709 ] final  -20.75 input   66.30 | X-H torsion
[ 10763 10752 10751 10750 ] final   78.08 input  -60.55 | X-H torsion
[ 11005 11000 10999 10996 ] final  -91.29 input  -57.11 | X-H torsion

> <Gold.Protein.ActiveResidues>
 VAL166  LYS551  ARG553  GLY616  TRP617  ASP618  TYR619  PRO620  LYS621  CYS622 
 ASP623  PHE694  ASN695  SER759  ASP760  ASP761  ALA762  ILE779  LEU786  VAL792 
 PHE793  MET794  SER795  GLU796  ALA797  LYS798  CYS799  TRP800  GLU811  SER814 

> <Gold.Protein.RotatedAtoms>
  152.5445  134.1077  159.8344 H   0  0  0  0  0  0  0  0  0  0  0  0  # atno 6907 bound_to 6896
  151.1148  133.5139  159.2611 H   0  0  0  0  0  0  0  0  0  0  0  0  # atno 6908 bound_to 6896
  151.1845  135.0385  159.8861 H   0  0  0  0  0  0  0  0  0  0  0  0  # atno 6909 bound_to 6896
  144.7138  140.1628  143.6374 H   0  0  0  0  0  0  0  0  0  0  0  0  # atno 7974 bound_to 7965
  155.4981  140.3473  155.4366 H   0  0  0  0  0  0  0  0  0  0  0  0  # atno 8008 bound_to 7997
  156.0932  140.1416  156.9593 H   0  0  0  0  0  0  0  0  0  0  0  0  # atno 8009 bound_to 7997
  154.4647  140.0922  156.6966 H   0  0  0  0  0  0  0  0  0  0  0  0  # atno 8010 bound_to 7997
  140.1619  143.4113  152.1419 H   0  0  0  0  0  0  0  0  0  0  0  0  # atno 10167 bound_to 10162
  156.5275  130.4647  149.6564 H   0  0  0  0  0  0  0  0  0  0  0  0  # atno 10718 bound_to 10713
  153.0847  135.4890  154.8572 H   0  0  0  0  0  0  0  0  0  0  0  0  # atno 10763 bound_to 10752
  154.7195  135.3036  154.9072 H   0  0  0  0  0  0  0  0  0  0  0  0  # atno 10764 bound_to 10752
  153.9741  135.6797  153.4801 H   0  0  0  0  0  0  0  0  0  0  0  0  # atno 10765 bound_to 10752
  141.1548  133.7746  156.9858 H   0  0  0  0  0  0  0  0  0  0  0  0  # atno 11005 bound_to 11000
  145.9015  139.2433  143.1491 LP  0  0  0  0  0  0  0  0  0  0  0  0  # atno 17320 bound_to 7965
  145.9806  140.8686  143.0116 LP  0  0  0  0  0  0  0  0  0  0  0  0  # atno 17321 bound_to 7965
  139.5377  144.7226  151.4838 LP  0  0  0  0  0  0  0  0  0  0  0  0  # atno 17342 bound_to 10162
  140.6637  143.8443  150.6917 LP  0  0  0  0  0  0  0  0  0  0  0  0  # atno 17343 bound_to 10162
  156.3091  130.7219  151.2108 LP  0  0  0  0  0  0  0  0  0  0  0  0  # atno 17370 bound_to 10713
  157.7427  131.0486  150.5004 LP  0  0  0  0  0  0  0  0  0  0  0  0  # atno 17371 bound_to 10713
  140.1035  134.9520  157.1959 LP  0  0  0  0  0  0  0  0  0  0  0  0  # atno 17394 bound_to 11000
  140.3286  134.2835  155.7232 LP  0  0  0  0  0  0  0  0  0  0  0  0  # atno 17395 bound_to 11000

$$$$
