AV-unprocessed.smi:1840|AV-procd|sdf|7488|dock7
  -GOLD-   22720 9183D 1   1.00000     0.00000
 Structure written by MMmdl.
 43 44  0  0  0  0  0  0  0  0  1 V2000
  144.6521  135.4912  153.3294 C   0  0  0  0  0  0  0  0  0  0  0  0
  145.1409  136.4827  152.2566 C   0  0  2  0  0  0  0  0  0  0  0  0
  145.2083  135.8630  150.8454 C   0  0  0  0  0  0  0  0  0  0  0  0
  145.4545  134.4322  150.8626 N   0  0  0  0  0  0  0  0  0  0  0  0
  144.6022  133.4107  150.4984 C   0  0  0  0  0  0  0  0  0  0  0  0
  145.2721  132.2360  150.6872 C   0  0  0  0  0  0  0  0  0  0  0  0
  146.5422  132.6467  151.1796 C   0  0  0  0  0  0  0  0  0  0  0  0
  146.6468  133.9614  151.2882 N   0  0  0  0  0  0  0  0  0  0  0  0
  146.4595  136.9995  152.6132 N   0  0  0  0  0  0  0  0  0  0  0  0
  146.7171  137.8390  153.6262 C   0  0  0  0  0  0  0  0  0  0  0  0
  145.8574  138.2925  154.3816 O   0  0  0  0  0  0  0  0  0  0  0  0
  148.0265  138.1111  153.7200 N   0  0  0  0  0  0  0  0  0  0  0  0
  148.6543  138.9621  154.7299 C   0  0  2  0  0  0  0  0  0  0  0  0
  147.9378  140.3267  154.7523 C   0  0  0  0  0  0  0  0  0  0  0  0
  148.5941  141.2952  155.7468 C   0  0  0  0  0  0  0  0  0  0  0  0
  150.0877  141.4690  155.4400 C   0  0  0  0  0  0  0  0  0  0  0  0
  150.8100  140.1132  155.4320 C   0  0  0  0  0  0  0  0  0  0  0  0
  150.1678  139.1226  154.4395 C   0  0  1  0  0  0  0  0  0  0  0  0
  150.9165  137.7775  154.4564 C   0  0  0  0  0  0  0  0  0  0  0  0
  143.6389  135.1459  153.1227 H   0  0  0  0  0  0  0  0  0  0  0  0
  144.6367  135.9529  154.3172 H   0  0  0  0  0  0  0  0  0  0  0  0
  145.2992  134.6152  153.3820 H   0  0  0  0  0  0  0  0  0  0  0  0
  144.4384  137.3178  152.2205 H   0  0  0  0  0  0  0  0  0  0  0  0
  144.2761  136.0432  150.3074 H   0  0  0  0  0  0  0  0  0  0  0  0
  145.9997  136.3381  150.2634 H   0  0  0  0  0  0  0  0  0  0  0  0
  143.6029  133.6025  150.1363 H   0  0  0  0  0  0  0  0  0  0  0  0
  144.9101  131.2356  150.5021 H   0  0  0  0  0  0  0  0  0  0  0  0
  147.3849  132.0327  151.4615 H   0  0  0  0  0  0  0  0  0  0  0  0
  147.2362  136.6844  152.0507 H   0  0  0  0  0  0  0  0  0  0  0  0
  148.6450  137.6840  153.0463 H   0  0  0  0  0  0  0  0  0  0  0  0
  148.5482  138.5119  155.7189 H   0  0  0  0  0  0  0  0  0  0  0  0
  147.9537  140.7695  153.7553 H   0  0  0  0  0  0  0  0  0  0  0  0
  146.8872  140.1920  155.0131 H   0  0  0  0  0  0  0  0  0  0  0  0
  148.0913  142.2622  155.7123 H   0  0  0  0  0  0  0  0  0  0  0  0
  148.4696  140.9173  156.7622 H   0  0  0  0  0  0  0  0  0  0  0  0
  150.2101  141.9565  154.4717 H   0  0  0  0  0  0  0  0  0  0  0  0
  150.5439  142.1286  156.1788 H   0  0  0  0  0  0  0  0  0  0  0  0
  151.8603  140.2647  155.1803 H   0  0  0  0  0  0  0  0  0  0  0  0
  150.7932  139.6891  156.4370 H   0  0  0  0  0  0  0  0  0  0  0  0
  150.2779  139.5445  153.4391 H   0  0  0  0  0  0  0  0  0  0  0  0
  150.8103  137.2785  155.4202 H   0  0  0  0  0  0  0  0  0  0  0  0
  151.9815  137.9191  154.2709 H   0  0  0  0  0  0  0  0  0  0  0  0
  150.5437  137.0990  153.6890 H   0  0  0  0  0  0  0  0  0  0  0  0
  1  2  1  0  0  0  0
  1 20  1  0  0  0  0
  1 21  1  0  0  0  0
  1 22  1  0  0  0  0
  2  3  1  0  0  0  0
  2  9  1  0  0  0  0
  2 23  1  0  0  0  0
  3  4  1  0  0  0  0
  3 24  1  0  0  0  0
  3 25  1  0  0  0  0
  4  8  1  0  0  0  0
  4  5  1  0  0  0  0
  5  6  2  0  0  0  0
  5 26  1  0  0  0  0
  6  7  1  0  0  0  0
  6 27  1  0  0  0  0
  7  8  2  0  0  0  0
  7 28  1  0  0  0  0
  9 10  1  0  0  0  0
  9 29  1  0  0  0  0
 10 11  2  0  0  0  0
 10 12  1  0  0  0  0
 12 13  1  0  0  0  0
 12 30  1  0  0  0  0
 13 18  1  0  0  0  0
 13 14  1  0  0  0  0
 13 31  1  0  0  0  0
 14 15  1  0  0  0  0
 14 32  1  0  0  0  0
 14 33  1  0  0  0  0
 15 16  1  0  0  0  0
 15 34  1  0  0  0  0
 15 35  1  0  0  0  0
 16 17  1  0  0  0  0
 16 36  1  0  0  0  0
 16 37  1  0  0  0  0
 17 18  1  0  0  0  0
 17 38  1  0  0  0  0
 17 39  1  0  0  0  0
 18 19  1  0  0  0  0
 18 40  1  0  0  0  0
 19 41  1  0  0  0  0
 19 42  1  0  0  0  0
 19 43  1  0  0  0  0
M  END
> <s_m_source_file>
AV-unprocessed.smi

> <i_m_source_file_index>
1840

> <i_lp_mmshare_version>
43012

> <i_f3d_flags>
0

> <s_epik_input>
bjFbY0hdW2NIXVtjSF1uMVtDSDJdW0NAQEhdKFtDSDNdKVtOSF1DKD1PKVtOSF1bQ0BASF0yW0NIMl1bQ0gyXVtDSDJdW0NIMl1bQ0BIXTJbQ0gzXQ==

> <s_epik_cmdline>
J2VwaWtfcHl0aG9uJywgJy1waCcsICc3LjAnLCAnLXRuJywgJzgnLCAnLW1hJywgJzIwMCcsICctbWV0YWxfYmluZGluZycsICctaW1hZScsICc8aW5maWxlLm1hZT4nLCAnLW9tYWUnLCAnPG91dGZpbGUubWFlPic=

> <r_lp_tautomer_probability>
1

> <r_epik_Ionization_Penalty>
7.38659e-05

> <r_epik_Ionization_Penalty_Charging>
0

> <r_epik_Ionization_Penalty_Neutral>
7.38659e-05

> <r_epik_State_Penalty>
-0

> <r_epik_Charging_Adjusted_Penalty>
0

> <i_epik_Tot_Q>
0

> <i_epik_Tot_abs_Q>
0

> <r_epik_Metal_State_Penalty>
-0

> <b_epik_Metal_Only>
0

> <s_lp_Force_Field>
OPLS_2005

> <r_lp_Energy>
8.70276

> <b_lp_Chiralities_Consistent>
1

> <s_lp_Variant>
AV-unprocessed.smi:1840-1

> <Gold.Version>
5.8.1

> <Gold.Id.Protein>
6NUR|6NUR_protein|mol2

> <Gold.PLP.Fitness>
42.5275

> <Gold.PLP.PLP>
-31.8201

> <Gold.PLP.part.hbond>
-2.0000

> <Gold.PLP.part.metal>
0.0000

> <Gold.PLP.part.buried>
-3.1436

> <Gold.PLP.part.nonpolar>
-26.8946

> <Gold.PLP.part.repulsive>
0.3441

> <Gold.PLP.ligand.clash>
0.0000

> <Gold.PLP.ligand.torsion>
0.6593

> <Gold.PLP.Chemscore.Hbond>
2.0000

> <Gold.PLP.Chemscore.CHOScore>
2.0000

> <Gold.PLP.Chemscore.Metal>
0.0000

> <Gold.Chemscore.Hbonds>
donor molecule, donor type, donor heavy atom, donor atom, acceptor molecule, acceptor atom, score
      L1  H     9    29       P1  7948  1.00
      L1  H    12    30       P1  7948  0.96
      L1  C     5    26       P1 10186  0.37
      L1  C     7    28       P1 10747  1.00

> <Gold.PLP.Chemscore.Internal.Correction>
0.0260

> <Gold.Rescore>
     Score         DG    S(hbond)    S(metal)    S(lipo)     H(rot)  DE(clash)    DE(int)     intcor
     16.38     -17.45       1.91        0.00      82.00       1.56       0.05       1.03       ----

> <Gold.Chemscore.Fitness>
16.3760

> <Gold.Chemscore.DG>
-17.4526

> <Gold.Chemscore.ZeroCoef>
-5.4800

> <Gold.Chemscore.Hbond>
1.9061

> <Gold.Chemscore.Metal>
0.0000

> <Gold.Chemscore.Lipo>
81.9973

> <Gold.Chemscore.Internal_Hbond>
0.0000

> <Gold.Chemscore.DEClash>
0.0451

> <Gold.Chemscore.DEInternal>
1.0315

> <Gold.Chemscore.Rot>
1.5576

> <Gold.Chemscore.Internal.Correction>
   9.000000E+99

> <Gold.Chemscore.Hbonds>
donor molecule, donor type, donor heavy atom, donor atom, acceptor molecule, acceptor atom, score
      L1  H     9    29       P1  7948  0.97
      L1  H    12    30       P1  7948  0.92

> <Gold.Chemscore.Hbond.Weighted>
-6.3664

> <Gold.Chemscore.Metal.Weighted>
-0.0000

> <Gold.Chemscore.Lipo.Weighted>
-9.5937

> <Gold.Chemscore.Internal_Hbond.Weighted>
0.0000

> <Gold.Chemscore.DEClash.Weighted>
0.0451

> <Gold.Chemscore.DEInternal.Weighted>
1.0315

> <Gold.Chemscore.Rot.Weighted>
3.9875

> <Gold.Chemscore.Internal.Correction.Weighted>
   9.000000E+99

> <Gold.Protein.RotatedTorsions>
[ 6907 6896 6895 6894 ] final -105.12 input  -60.11 | X-H torsion
[ 7974 7965 7964 7962 ] final  -77.14 input  175.53 | X-H torsion
[ 8008 7997 7996 7995 ] final  -41.30 input   59.86 | X-H torsion
[ 10167 10162 10161 10158 ] final -150.51 input  -65.29 | X-H torsion
[ 10718 10713 10712 10709 ] final   98.84 input   66.30 | X-H torsion
[ 10763 10752 10751 10750 ] final   61.78 input  -60.55 | X-H torsion
[ 11005 11000 10999 10996 ] final    5.69 input  -57.11 | X-H torsion

> <Gold.Protein.ActiveResidues>
 VAL166  LYS551  ARG553  GLY616  TRP617  ASP618  TYR619  PRO620  LYS621  CYS622 
 ASP623  PHE694  ASN695  SER759  ASP760  ASP761  ALA762  ILE779  LEU786  VAL792 
 PHE793  MET794  SER795  GLU796  ALA797  LYS798  CYS799  TRP800  GLU811  SER814 

> <Gold.Protein.RotatedAtoms>
  150.7321  134.0174  159.3689 H   0  0  0  0  0  0  0  0  0  0  0  0  # atno 6907 bound_to 6896
  151.8137  135.0671  160.0425 H   0  0  0  0  0  0  0  0  0  0  0  0  # atno 6908 bound_to 6896
  152.3054  133.5662  159.5682 H   0  0  0  0  0  0  0  0  0  0  0  0  # atno 6909 bound_to 6896
  145.6036  140.9403  143.1227 H   0  0  0  0  0  0  0  0  0  0  0  0  # atno 7974 bound_to 7965
  154.4005  140.1503  156.3169 H   0  0  0  0  0  0  0  0  0  0  0  0  # atno 8008 bound_to 7997
  155.8565  140.3455  155.5706 H   0  0  0  0  0  0  0  0  0  0  0  0  # atno 8009 bound_to 7997
  155.7927  140.0859  157.1990 H   0  0  0  0  0  0  0  0  0  0  0  0  # atno 8010 bound_to 7997
  139.7348  143.8753  152.2545 H   0  0  0  0  0  0  0  0  0  0  0  0  # atno 10167 bound_to 10162
  157.6888  131.0652  150.4858 H   0  0  0  0  0  0  0  0  0  0  0  0  # atno 10718 bound_to 10713
  152.9961  135.5488  154.6088 H   0  0  0  0  0  0  0  0  0  0  0  0  # atno 10763 bound_to 10752
  154.5413  135.2820  155.1095 H   0  0  0  0  0  0  0  0  0  0  0  0  # atno 10764 bound_to 10752
  154.2371  135.6423  153.5247 H   0  0  0  0  0  0  0  0  0  0  0  0  # atno 10765 bound_to 10752
  140.5679  134.0130  155.7997 H   0  0  0  0  0  0  0  0  0  0  0  0  # atno 11005 bound_to 11000
  144.7299  139.7757  143.7351 LP  0  0  0  0  0  0  0  0  0  0  0  0  # atno 17320 bound_to 7965
  146.1557  139.4655  143.0020 LP  0  0  0  0  0  0  0  0  0  0  0  0  # atno 17321 bound_to 7965
  139.8686  144.7080  150.9014 LP  0  0  0  0  0  0  0  0  0  0  0  0  # atno 17342 bound_to 10162
  140.7777  143.3757  151.1568 LP  0  0  0  0  0  0  0  0  0  0  0  0  # atno 17343 bound_to 10162
  156.5187  130.4156  149.6262 LP  0  0  0  0  0  0  0  0  0  0  0  0  # atno 17370 bound_to 10713
  156.3174  130.7262  151.2167 LP  0  0  0  0  0  0  0  0  0  0  0  0  # atno 17371 bound_to 10713
  141.1074  133.9671  157.2971 LP  0  0  0  0  0  0  0  0  0  0  0  0  # atno 17394 bound_to 11000
  139.9376  135.0195  156.8606 LP  0  0  0  0  0  0  0  0  0  0  0  0  # atno 17395 bound_to 11000

$$$$
