AV-unprocessed.smi:2142|AV-procd|sdf|8720|dock3
  -GOLD-   2272011483D 1   1.00000     0.00000
 Structure written by MMmdl.
 40 41  0  0  0  0  0  0  0  0  1 V2000
  152.6287  142.2318  160.2843 C   0  0  0  0  0  0  0  0  0  0  0  0
  151.5585  142.3540  159.3640 O   0  0  0  0  0  0  0  0  0  0  0  0
  151.9069  141.9065  158.0645 C   0  0  0  0  0  0  0  0  0  0  0  0
  150.7055  142.0844  157.1316 C   0  0  0  0  0  0  0  0  0  0  0  0
  151.0238  141.5242  155.8609 O   0  0  0  0  0  0  0  0  0  0  0  0
  150.6893  140.2078  155.6190 C   0  0  0  0  0  0  0  0  0  0  0  0
  150.6241  139.3181  156.7098 C   0  0  0  0  0  0  0  0  0  0  0  0
  150.2903  137.9711  156.4718 C   0  0  0  0  0  0  0  0  0  0  0  0
  150.0375  137.5548  155.1434 C   0  0  0  0  0  0  0  0  0  0  0  0
  149.6722  136.2324  154.7759 N   0  0  0  0  0  0  0  0  0  0  0  0
  149.6861  135.1129  155.5290 C   0  0  0  0  0  0  0  0  0  0  0  0
  150.0596  135.0726  156.7013 O   0  0  0  0  0  0  0  0  0  0  0  0
  149.2390  133.8739  154.8349 C   0  0  0  0  0  0  0  0  0  0  0  0
  148.3314  133.9398  153.9112 N   0  0  0  0  0  0  0  0  0  0  0  0
  147.8947  132.8262  153.2249 N   0  0  0  0  0  0  0  0  0  0  0  0
  147.0768  133.1443  152.0544 C   0  0  0  0  0  0  0  0  0  0  0  0
  148.1574  131.5458  153.5932 C   0  0  0  0  0  0  0  0  0  0  0  0
  147.7844  130.5557  152.9645 O   0  0  0  0  0  0  0  0  0  0  0  0
  148.9428  131.3580  154.8945 C   0  0  0  0  0  0  0  0  0  0  0  0
  149.8781  132.5464  155.1905 C   0  0  0  0  0  0  0  0  0  0  0  0
  150.1116  138.5269  154.1246 C   0  0  0  0  0  0  0  0  0  0  0  0
  150.4338  139.8185  154.3454 N   0  0  0  0  0  0  0  0  0  0  0  0
  152.3132  142.5920  161.2635 H   0  0  0  0  0  0  0  0  0  0  0  0
  153.4899  142.8229  159.9696 H   0  0  0  0  0  0  0  0  0  0  0  0
  152.9382  141.1914  160.3920 H   0  0  0  0  0  0  0  0  0  0  0  0
  152.7444  142.5000  157.6946 H   0  0  0  0  0  0  0  0  0  0  0  0
  152.2261  140.8632  158.0814 H   0  0  0  0  0  0  0  0  0  0  0  0
  149.8199  141.6147  157.5630 H   0  0  0  0  0  0  0  0  0  0  0  0
  150.4986  143.1496  157.0166 H   0  0  0  0  0  0  0  0  0  0  0  0
  150.8230  139.6635  157.7136 H   0  0  0  0  0  0  0  0  0  0  0  0
  150.2220  137.2932  157.3083 H   0  0  0  0  0  0  0  0  0  0  0  0
  149.4275  136.1039  153.8043 H   0  0  0  0  0  0  0  0  0  0  0  0
  146.7098  132.2673  151.5198 H   0  0  0  0  0  0  0  0  0  0  0  0
  147.6534  133.7404  151.3460 H   0  0  0  0  0  0  0  0  0  0  0  0
  146.2064  133.7295  152.3538 H   0  0  0  0  0  0  0  0  0  0  0  0
  148.2171  131.2531  155.7018 H   0  0  0  0  0  0  0  0  0  0  0  0
  149.5108  130.4277  154.8602 H   0  0  0  0  0  0  0  0  0  0  0  0
  150.8094  132.4356  154.6338 H   0  0  0  0  0  0  0  0  0  0  0  0
  150.1462  132.5171  156.2474 H   0  0  0  0  0  0  0  0  0  0  0  0
  149.9128  138.2599  153.0969 H   0  0  0  0  0  0  0  0  0  0  0  0
  1  2  1  0  0  0  0
  1 23  1  0  0  0  0
  1 24  1  0  0  0  0
  1 25  1  0  0  0  0
  2  3  1  0  0  0  0
  3  4  1  0  0  0  0
  3 26  1  0  0  0  0
  3 27  1  0  0  0  0
  4  5  1  0  0  0  0
  4 28  1  0  0  0  0
  4 29  1  0  0  0  0
  5  6  1  0  0  0  0
  6 22  1  0  0  0  0
  6  7  2  0  0  0  0
  7  8  1  0  0  0  0
  7 30  1  0  0  0  0
  8  9  2  0  0  0  0
  8 31  1  0  0  0  0
  9 10  1  0  0  0  0
  9 21  1  0  0  0  0
 10 11  1  0  0  0  0
 10 32  1  0  0  0  0
 11 12  2  0  0  0  0
 11 13  1  0  0  0  0
 13 20  1  0  0  0  0
 13 14  2  0  0  0  0
 14 15  1  0  0  0  0
 15 16  1  0  0  0  0
 15 17  1  0  0  0  0
 16 33  1  0  0  0  0
 16 34  1  0  0  0  0
 16 35  1  0  0  0  0
 17 18  2  0  0  0  0
 17 19  1  0  0  0  0
 19 20  1  0  0  0  0
 19 36  1  0  0  0  0
 19 37  1  0  0  0  0
 20 38  1  0  0  0  0
 20 39  1  0  0  0  0
 21 22  2  0  0  0  0
 21 40  1  0  0  0  0
M  END
> <s_m_source_file>
AV-unprocessed.smi

> <i_m_source_file_index>
2142

> <i_lp_mmshare_version>
43012

> <i_f3d_flags>
0

> <s_epik_input>
W0NIM11PW0NIMl1bQ0gyXU9jMVtjSF1bY0hdYyhbY0hdbjEpW05IXUMoPU8pQzI9Tk4oW0NIM10pQyg9TylbQ0gyXVtDSDJdMg==

> <s_epik_cmdline>
J2VwaWtfcHl0aG9uJywgJy1waCcsICc3LjAnLCAnLXRuJywgJzgnLCAnLW1hJywgJzIwMCcsICctbWV0YWxfYmluZGluZycsICctaW1hZScsICc8aW5maWxlLm1hZT4nLCAnLW9tYWUnLCAnPG91dGZpbGUubWFlPic=

> <r_lp_tautomer_probability>
1

> <r_epik_Ionization_Penalty>
2.74522e-05

> <r_epik_Ionization_Penalty_Charging>
0

> <r_epik_Ionization_Penalty_Neutral>
2.74522e-05

> <r_epik_State_Penalty>
-0

> <r_epik_Charging_Adjusted_Penalty>
0

> <i_epik_Tot_Q>
0

> <i_epik_Tot_abs_Q>
0

> <r_epik_Metal_State_Penalty>
0.0227286

> <b_epik_Metal_Only>
0

> <s_epik_Chemistry_Notes>
This compound has an imine and may undergo hydrolysis.

> <s_lp_Force_Field>
OPLS_2005

> <r_lp_Energy>
20.7246

> <b_lp_Chiralities_Consistent>
1

> <s_lp_Variant>
AV-unprocessed.smi:2142-1

> <Gold.Version>
5.8.1

> <Gold.Id.Protein>
6NUR|6NUR_protein|mol2

> <Gold.PLP.Fitness>
42.7462

> <Gold.PLP.PLP>
-33.5322

> <Gold.PLP.part.hbond>
-2.5258

> <Gold.PLP.part.metal>
0.0000

> <Gold.PLP.part.buried>
-5.5684

> <Gold.PLP.part.nonpolar>
-28.5634

> <Gold.PLP.part.repulsive>
3.3430

> <Gold.PLP.ligand.clash>
0.0000

> <Gold.PLP.ligand.torsion>
1.0466

> <Gold.PLP.Chemscore.Hbond>
1.9500

> <Gold.PLP.Chemscore.CHOScore>
1.7967

> <Gold.PLP.Chemscore.Metal>
0.0000

> <Gold.Chemscore.Hbonds>
donor molecule, donor type, donor heavy atom, donor atom, acceptor molecule, acceptor atom, score
      L1  H    10    32       P1  7948  1.00
      P1  H  7989  7998       L1    22  0.95
      L1  C    21    40       P1  7948  1.00
      L1  C    21    40       P1  7957  0.67

> <Gold.PLP.Chemscore.Internal.Correction>
0.0670

> <Gold.Rescore>
     Score         DG    S(hbond)    S(metal)    S(lipo)     H(rot)  DE(clash)    DE(int)     intcor
     11.13     -13.95       1.65        0.00      63.43       1.74       0.50       2.32       ----

> <Gold.Chemscore.Fitness>
11.1300

> <Gold.Chemscore.DG>
-13.9481

> <Gold.Chemscore.ZeroCoef>
-5.4800

> <Gold.Chemscore.Hbond>
1.6481

> <Gold.Chemscore.Metal>
0.0000

> <Gold.Chemscore.Lipo>
63.4314

> <Gold.Chemscore.Internal_Hbond>
0.0000

> <Gold.Chemscore.DEClash>
0.5014

> <Gold.Chemscore.DEInternal>
2.3167

> <Gold.Chemscore.Rot>
1.7414

> <Gold.Chemscore.Internal.Correction>
   9.000000E+99

> <Gold.Chemscore.Hbonds>
donor molecule, donor type, donor heavy atom, donor atom, acceptor molecule, acceptor atom, score
      L1  H    10    32       P1  7948  0.68
      P1  H  7989  7998       L1    22  0.22

> <Gold.Chemscore.Hbond.Weighted>
-5.5046

> <Gold.Chemscore.Metal.Weighted>
-0.0000

> <Gold.Chemscore.Lipo.Weighted>
-7.4215

> <Gold.Chemscore.Internal_Hbond.Weighted>
0.0000

> <Gold.Chemscore.DEClash.Weighted>
0.5014

> <Gold.Chemscore.DEInternal.Weighted>
2.3167

> <Gold.Chemscore.Rot.Weighted>
4.4580

> <Gold.Chemscore.Internal.Correction.Weighted>
   9.000000E+99

> <Gold.Protein.RotatedTorsions>
[ 6907 6896 6895 6894 ] final   72.58 input  -60.11 | X-H torsion
[ 7974 7965 7964 7962 ] final   77.19 input  175.53 | X-H torsion
[ 8008 7997 7996 7995 ] final   84.95 input   59.86 | X-H torsion
[ 10167 10162 10161 10158 ] final  -34.43 input  -65.29 | X-H torsion
[ 10718 10713 10712 10709 ] final   80.34 input   66.30 | X-H torsion
[ 10763 10752 10751 10750 ] final  -52.15 input  -60.55 | X-H torsion
[ 11005 11000 10999 10996 ] final   52.67 input  -57.11 | X-H torsion

> <Gold.Protein.ActiveResidues>
 VAL166  LYS551  ARG553  GLY616  TRP617  ASP618  TYR619  PRO620  LYS621  CYS622 
 ASP623  PHE694  ASN695  SER759  ASP760  ASP761  ALA762  ILE779  LEU786  VAL792 
 PHE793  MET794  SER795  GLU796  ALA797  LYS798  CYS799  TRP800  GLU811  SER814 

> <Gold.Protein.RotatedAtoms>
  152.4876  134.4549  159.9586 H   0  0  0  0  0  0  0  0  0  0  0  0  # atno 6907 bound_to 6896
  151.4543  133.3603  159.2807 H   0  0  0  0  0  0  0  0  0  0  0  0  # atno 6908 bound_to 6896
  150.9000  134.8436  159.7414 H   0  0  0  0  0  0  0  0  0  0  0  0  # atno 6909 bound_to 6896
  145.6932  139.2559  143.1748 H   0  0  0  0  0  0  0  0  0  0  0  0  # atno 7974 bound_to 7965
  155.9437  140.3406  155.6349 H   0  0  0  0  0  0  0  0  0  0  0  0  # atno 8008 bound_to 7997
  155.7007  140.0760  157.2430 H   0  0  0  0  0  0  0  0  0  0  0  0  # atno 8009 bound_to 7997
  154.4107  140.1640  156.2175 H   0  0  0  0  0  0  0  0  0  0  0  0  # atno 8010 bound_to 7997
  140.7186  143.3548  151.2081 H   0  0  0  0  0  0  0  0  0  0  0  0  # atno 10167 bound_to 10162
  157.6803  130.9955  150.2065 H   0  0  0  0  0  0  0  0  0  0  0  0  # atno 10718 bound_to 10713
  154.1380  135.6509  153.4936 H   0  0  0  0  0  0  0  0  0  0  0  0  # atno 10763 bound_to 10752
  153.0174  135.5309  154.6933 H   0  0  0  0  0  0  0  0  0  0  0  0  # atno 10764 bound_to 10752
  154.6187  135.2962  155.0321 H   0  0  0  0  0  0  0  0  0  0  0  0  # atno 10765 bound_to 10752
  140.0830  134.5313  155.8927 H   0  0  0  0  0  0  0  0  0  0  0  0  # atno 11005 bound_to 11000
  146.0863  140.7706  142.9617 LP  0  0  0  0  0  0  0  0  0  0  0  0  # atno 17320 bound_to 7965
  144.6990  140.3568  143.7171 LP  0  0  0  0  0  0  0  0  0  0  0  0  # atno 17321 bound_to 7965
  139.7087  143.9412  152.2938 LP  0  0  0  0  0  0  0  0  0  0  0  0  # atno 17342 bound_to 10162
  139.9130  144.6845  150.8542 LP  0  0  0  0  0  0  0  0  0  0  0  0  # atno 17343 bound_to 10162
  156.2745  130.3726  149.7998 LP  0  0  0  0  0  0  0  0  0  0  0  0  # atno 17370 bound_to 10713
  156.5705  130.8422  151.3355 LP  0  0  0  0  0  0  0  0  0  0  0  0  # atno 17371 bound_to 10713
  141.2053  133.6646  156.6173 LP  0  0  0  0  0  0  0  0  0  0  0  0  # atno 17394 bound_to 11000
  140.3460  134.7808  157.4433 LP  0  0  0  0  0  0  0  0  0  0  0  0  # atno 17395 bound_to 11000

$$$$
