AV-unprocessed.smi:1383|AV-procd|sdf|5625|dock4
  -GOLD-   22720 5243D 1   1.00000     0.00000
 Structure written by MMmdl.
 30 30  0  0  0  0  0  0  0  0  2 V2000
  147.3001  135.3159  163.0043 C   0  0  0  0  0  0  0  0  0  0  0  0
  147.6674  134.2342  161.9763 C   0  0  0  0  0  0  0  0  0  0  0  0
  147.5750  134.6990  160.5053 C   0  0  1  0  0  0  0  0  0  0  0  0
  146.1117  134.7727  160.0367 C   0  0  0  0  0  0  0  0  0  0  0  0
  148.2661  136.0588  160.2868 C   0  0  0  0  0  0  0  0  0  0  0  0
  147.8147  137.0610  160.8451 O   0  0  0  0  0  0  0  0  0  0  0  0
  149.3386  135.9613  159.4643 N   0  5  0  0  0  0  0  0  0  0  0  0
  149.3321  136.6086  158.2889 C   0  0  0  0  0  0  0  0  0  0  0  0
  150.3886  136.6403  157.4694 N   0  0  0  0  0  0  0  0  0  0  0  0
  150.1639  137.3600  156.2921 C   0  0  0  0  0  0  0  0  0  0  0  0
  151.2582  137.4895  155.2720 C   0  0  0  0  0  0  0  0  0  0  0  0
  151.0031  138.6879  154.3544 C   0  0  0  0  0  0  0  0  0  0  0  0
  150.3059  138.4656  153.2364 N   0  0  0  0  0  0  0  0  0  0  0  0
  151.4399  139.7996  154.6452 O   0  0  0  0  0  0  0  0  0  0  0  0
  148.9005  137.8885  156.2200 C   0  0  0  0  0  0  0  0  0  0  0  0
  147.9539  137.4881  157.6247 S   0  0  0  0  0  0  0  0  0  0  0  0
  147.4386  134.9458  164.0202 H   0  0  0  0  0  0  0  0  0  0  0  0
  146.2595  135.6273  162.9081 H   0  0  0  0  0  0  0  0  0  0  0  0
  147.9267  136.2001  162.8840 H   0  0  0  0  0  0  0  0  0  0  0  0
  148.6868  133.9039  162.1783 H   0  0  0  0  0  0  0  0  0  0  0  0
  147.0358  133.3587  162.1328 H   0  0  0  0  0  0  0  0  0  0  0  0
  148.0635  133.9372  159.8931 H   0  0  0  0  0  0  0  0  0  0  0  0
  146.0441  135.1084  159.0011 H   0  0  0  0  0  0  0  0  0  0  0  0
  145.5284  135.4610  160.6495 H   0  0  0  0  0  0  0  0  0  0  0  0
  145.6343  133.7941  160.0934 H   0  0  0  0  0  0  0  0  0  0  0  0
  152.2241  137.6107  155.7638 H   0  0  0  0  0  0  0  0  0  0  0  0
  151.3349  136.5865  154.6651 H   0  0  0  0  0  0  0  0  0  0  0  0
  150.1344  139.2265  152.5941 H   0  0  0  0  0  0  0  0  0  0  0  0
  149.9717  137.5363  153.0272 H   0  0  0  0  0  0  0  0  0  0  0  0
  148.4694  138.4817  155.4278 H   0  0  0  0  0  0  0  0  0  0  0  0
  1  2  1  0  0  0  0
  1 17  1  0  0  0  0
  1 18  1  0  0  0  0
  1 19  1  0  0  0  0
  2  3  1  0  0  0  0
  2 20  1  0  0  0  0
  2 21  1  0  0  0  0
  3  4  1  0  0  0  0
  3  5  1  0  0  0  0
  3 22  1  0  0  0  0
  4 23  1  0  0  0  0
  4 24  1  0  0  0  0
  4 25  1  0  0  0  0
  5  6  2  0  0  0  0
  5  7  1  0  0  0  0
  7  8  1  0  0  0  0
  8 16  1  0  0  0  0
  8  9  2  0  0  0  0
  9 10  1  0  0  0  0
 10 11  1  0  0  0  0
 10 15  2  0  0  0  0
 11 12  1  0  0  0  0
 11 26  1  0  0  0  0
 11 27  1  0  0  0  0
 12 13  1  0  0  0  0
 12 14  2  0  0  0  0
 13 28  1  0  0  0  0
 13 29  1  0  0  0  0
 15 16  1  0  0  0  0
 15 30  1  0  0  0  0
M  CHG  1   7  -1
M  END
> <s_m_source_file>
AV-unprocessed.smi

> <i_m_source_file_index>
1383

> <i_lp_mmshare_version>
43012

> <i_f3d_flags>
0

> <s_epik_input>
W0NIM11bQ0gyXVtDQEhdKFtDSDNdKUMoPU8pW05IXWMxbmMoW2NIXXMxKVtDSDJdQyg9TylbTkgyXQ==

> <s_epik_cmdline>
J2VwaWtfcHl0aG9uJywgJy1waCcsICc3LjAnLCAnLXRuJywgJzgnLCAnLW1hJywgJzIwMCcsICctbWV0YWxfYmluZGluZycsICctaW1hZScsICc8aW5maWxlLm1hZT4nLCAnLW9tYWUnLCAnPG91dGZpbGUubWFlPic=

> <r_lp_tautomer_probability>
1

> <r_epik_Ionization_Penalty>
5.3563

> <r_epik_Ionization_Penalty_Charging>
4.90463

> <r_epik_Ionization_Penalty_Neutral>
0.451677

> <r_epik_State_Penalty>
4.90447

> <r_epik_Charging_Adjusted_Penalty>
9.8091

> <i_epik_Tot_Q>
-1

> <i_epik_Tot_abs_Q>
1

> <r_epik_Metal_State_Penalty>
1.05508

> <b_epik_Metal_Only>
1

> <s_lp_Force_Field>
OPLS_2005

> <r_lp_Energy>
-0.48596

> <b_lp_Chiralities_Consistent>
1

> <s_lp_Variant>
AV-unprocessed.smi:1383-4

> <Gold.Version>
5.8.1

> <Gold.Id.Protein>
6NUR|6NUR_protein|mol2

> <Gold.PLP.Fitness>
43.0744

> <Gold.PLP.PLP>
-25.4442

> <Gold.PLP.part.hbond>
-6.7157

> <Gold.PLP.part.metal>
0.0000

> <Gold.PLP.part.buried>
-1.5000

> <Gold.PLP.part.nonpolar>
-15.7814

> <Gold.PLP.part.repulsive>
0.1873

> <Gold.PLP.ligand.clash>
0.0000

> <Gold.PLP.ligand.torsion>
1.3921

> <Gold.PLP.Chemscore.Hbond>
6.7440

> <Gold.PLP.Chemscore.CHOScore>
0.0000

> <Gold.PLP.Chemscore.Metal>
0.0000

> <Gold.Chemscore.Hbonds>
donor molecule, donor type, donor heavy atom, donor atom, acceptor molecule, acceptor atom, score
      L1  H    13    28       P1  7957  1.00
      L1  H    13    29       P1  7948  1.00
      P1  H  6896  6908       L1     7  2.00
      P1  H  6931  6943       L1     6  0.93
      P1  H  6934  6947       L1     6  0.80
      P1  H  7989  7998       L1    14  1.00

> <Gold.PLP.Chemscore.Internal.Correction>
0.1823

> <Gold.Rescore>
     Score         DG    S(hbond)    S(metal)    S(lipo)     H(rot)  DE(clash)    DE(int)     intcor
     19.46     -22.31       5.35        0.00      38.17       2.15       0.12       2.74       ----

> <Gold.Chemscore.Fitness>
19.4566

> <Gold.Chemscore.DG>
-22.3131

> <Gold.Chemscore.ZeroCoef>
-5.4800

> <Gold.Chemscore.Hbond>
5.3531

> <Gold.Chemscore.Metal>
0.0000

> <Gold.Chemscore.Lipo>
38.1727

> <Gold.Chemscore.Internal_Hbond>
0.0000

> <Gold.Chemscore.DEClash>
0.1166

> <Gold.Chemscore.DEInternal>
2.7400

> <Gold.Chemscore.Rot>
2.1532

> <Gold.Chemscore.Internal.Correction>
   9.000000E+99

> <Gold.Chemscore.Hbonds>
donor molecule, donor type, donor heavy atom, donor atom, acceptor molecule, acceptor atom, score
      L1  H    13    28       P1  7957  0.69
      L1  H    13    29       P1  7948  0.24
      P1  H  6896  6908       L1     7  0.88
      P1  H  6931  6943       L1     6  0.84
      P1  H  6934  6947       L1     6  0.75
      P1  H  7989  7998       L1    14  0.94

> <Gold.Chemscore.Hbond.Weighted>
-17.8792

> <Gold.Chemscore.Metal.Weighted>
-0.0000

> <Gold.Chemscore.Lipo.Weighted>
-4.4662

> <Gold.Chemscore.Internal_Hbond.Weighted>
0.0000

> <Gold.Chemscore.DEClash.Weighted>
0.1166

> <Gold.Chemscore.DEInternal.Weighted>
2.7400

> <Gold.Chemscore.Rot.Weighted>
5.5123

> <Gold.Chemscore.Internal.Correction.Weighted>
   9.000000E+99

> <Gold.Protein.RotatedTorsions>
[ 6907 6896 6895 6894 ] final -177.12 input  -60.11 | X-H torsion
[ 7974 7965 7964 7962 ] final  122.98 input  175.53 | X-H torsion
[ 8008 7997 7996 7995 ] final  169.89 input   59.86 | X-H torsion
[ 10167 10162 10161 10158 ] final  115.92 input  -65.29 | X-H torsion
[ 10718 10713 10712 10709 ] final   69.14 input   66.30 | X-H torsion
[ 10763 10752 10751 10750 ] final   29.13 input  -60.55 | X-H torsion
[ 11005 11000 10999 10996 ] final   71.35 input  -57.11 | X-H torsion

> <Gold.Protein.ActiveResidues>
 VAL166  LYS551  ARG553  GLY616  TRP617  ASP618  TYR619  PRO620  LYS621  CYS622 
 ASP623  PHE694  ASN695  SER759  ASP760  ASP761  ALA762  ILE779  LEU786  VAL792 
 PHE793  MET794  SER795  GLU796  ALA797  LYS798  CYS799  TRP800  GLU811  SER814 

> <Gold.Protein.RotatedAtoms>
  151.6158  133.3343  159.3077 H   0  0  0  0  0  0  0  0  0  0  0  0  # atno 6907 bound_to 6896
  150.8132  134.7302  159.6718 H   0  0  0  0  0  0  0  0  0  0  0  0  # atno 6908 bound_to 6896
  152.4228  134.5928  160.0030 H   0  0  0  0  0  0  0  0  0  0  0  0  # atno 6909 bound_to 6896
  145.1012  139.3517  143.4811 H   0  0  0  0  0  0  0  0  0  0  0  0  # atno 7974 bound_to 7965
  156.1416  140.1552  156.8912 H   0  0  0  0  0  0  0  0  0  0  0  0  # atno 8008 bound_to 7997
  154.4992  140.0830  156.7800 H   0  0  0  0  0  0  0  0  0  0  0  0  # atno 8009 bound_to 7997
  155.4068  140.3417  155.4263 H   0  0  0  0  0  0  0  0  0  0  0  0  # atno 8010 bound_to 7997
  139.6283  144.7111  151.2485 H   0  0  0  0  0  0  0  0  0  0  0  0  # atno 10167 bound_to 10162
  157.6329  130.9410  150.0473 H   0  0  0  0  0  0  0  0  0  0  0  0  # atno 10718 bound_to 10713
  153.0449  135.6496  154.0844 H   0  0  0  0  0  0  0  0  0  0  0  0  # atno 10763 bound_to 10752
  154.0544  135.2893  155.3337 H   0  0  0  0  0  0  0  0  0  0  0  0  # atno 10764 bound_to 10752
  154.6699  135.5360  153.8190 H   0  0  0  0  0  0  0  0  0  0  0  0  # atno 10765 bound_to 10752
  139.9548  134.7163  156.0778 H   0  0  0  0  0  0  0  0  0  0  0  0  # atno 11005 bound_to 11000
  146.3529  140.0890  142.8613 LP  0  0  0  0  0  0  0  0  0  0  0  0  # atno 17320 bound_to 7965
  145.0953  140.9311  143.4744 LP  0  0  0  0  0  0  0  0  0  0  0  0  # atno 17321 bound_to 7965
  140.7424  143.6526  150.8235 LP  0  0  0  0  0  0  0  0  0  0  0  0  # atno 17342 bound_to 10162
  140.0148  143.5605  152.2824 LP  0  0  0  0  0  0  0  0  0  0  0  0  # atno 17343 bound_to 10162
  156.1546  130.3643  149.9388 LP  0  0  0  0  0  0  0  0  0  0  0  0  # atno 17370 bound_to 10713
  156.7400  130.9076  151.3631 LP  0  0  0  0  0  0  0  0  0  0  0  0  # atno 17371 bound_to 10713
  141.1218  133.6610  156.3234 LP  0  0  0  0  0  0  0  0  0  0  0  0  # atno 17394 bound_to 11000
  140.5634  134.5912  157.5439 LP  0  0  0  0  0  0  0  0  0  0  0  0  # atno 17395 bound_to 11000

$$$$
