AV-unprocessed.smi:75|AV-procd|sdf|765|dock6
  -GOLD-   2262017103D 1   1.00000     0.00000
 Structure written by MMmdl.
 51 54  0  0  0  0  0  0  0  0  1 V2000
  150.9831  137.2942  154.2436 N   0  0  0  0  0  0  0  0  0  0  0  0
  150.6945  137.3185  155.5468 C   0  0  0  0  0  0  0  0  0  0  0  0
  151.1589  136.4902  156.3273 O   0  0  0  0  0  0  0  0  0  0  0  0
  149.7458  138.4350  156.0147 C   0  0  0  0  0  0  0  0  0  0  0  0
  149.1654  139.3700  154.9143 C   0  0  2  0  0  0  0  0  0  0  0  0
  149.5873  140.8424  155.1278 C   0  0  0  0  0  0  0  0  0  0  0  0
  149.0882  141.6499  154.0676 O   0  0  0  0  0  0  0  0  0  0  0  0
  147.6667  141.6385  154.0200 C   0  0  0  0  0  0  0  0  0  0  0  0
  147.1814  140.2065  153.7513 C   0  0  0  0  0  0  0  0  0  0  0  0
  147.7059  139.2947  154.7610 N   0  0  0  0  0  0  0  0  0  0  0  0
  147.1665  138.0617  154.6301 C   0  0  0  0  0  0  0  0  0  0  0  0
  147.1691  137.2707  155.7309 N   0  0  0  0  0  0  0  0  0  0  0  0
  146.6538  136.0396  155.6704 C   0  0  0  0  0  0  0  0  0  0  0  0
  146.0922  135.4192  154.6304 N   0  0  0  0  0  0  0  0  0  0  0  0
  146.0774  136.2170  153.5236 C   0  0  0  0  0  0  0  0  0  0  0  0
  146.5858  137.5440  153.4371 C   0  0  0  0  0  0  0  0  0  0  0  0
  146.3823  138.0459  152.1576 N   0  0  0  0  0  0  0  0  0  0  0  0
  145.7912  137.0712  151.5230 C   0  0  0  0  0  0  0  0  0  0  0  0
  145.5769  135.9305  152.2645 N   0  0  0  0  0  0  0  0  0  0  0  0
  144.9373  134.7253  151.8190 C   0  0  0  0  0  0  0  0  0  0  0  0
  145.5776  133.3523  152.0450 C   0  0  0  0  0  0  0  0  0  0  0  0
  144.9871  132.8696  150.6986 C   0  0  0  0  0  0  0  0  0  0  0  0
  145.8881  131.9965  149.8027 C   0  0  0  0  0  0  0  0  0  0  0  0
  146.4514  130.9040  150.5016 O   0  0  0  0  0  0  0  0  0  0  0  0
  143.6189  132.1682  150.7914 C   0  0  0  0  0  0  0  0  0  0  0  0
  143.0036  132.0571  149.5240 O   0  0  0  0  0  0  0  0  0  0  0  0
  144.9014  134.3693  150.3314 C   0  0  0  0  0  0  0  0  0  0  0  0
  151.5991  136.5806  153.8817 H   0  0  0  0  0  0  0  0  0  0  0  0
  150.5848  137.9845  153.6238 H   0  0  0  0  0  0  0  0  0  0  0  0
  148.9129  137.9696  156.5437 H   0  0  0  0  0  0  0  0  0  0  0  0
  150.2711  139.0233  156.7674 H   0  0  0  0  0  0  0  0  0  0  0  0
  149.6066  139.0615  153.9665 H   0  0  0  0  0  0  0  0  0  0  0  0
  149.2296  141.2334  156.0812 H   0  0  0  0  0  0  0  0  0  0  0  0
  150.6744  140.9237  155.1414 H   0  0  0  0  0  0  0  0  0  0  0  0
  147.2539  142.0221  154.9546 H   0  0  0  0  0  0  0  0  0  0  0  0
  147.3315  142.3042  153.2247 H   0  0  0  0  0  0  0  0  0  0  0  0
  146.0908  140.1805  153.7541 H   0  0  0  0  0  0  0  0  0  0  0  0
  147.5088  139.8835  152.7620 H   0  0  0  0  0  0  0  0  0  0  0  0
  146.6977  135.4698  156.5869 H   0  0  0  0  0  0  0  0  0  0  0  0
  145.4901  137.1613  150.4893 H   0  0  0  0  0  0  0  0  0  0  0  0
  143.9263  134.7323  152.2293 H   0  0  0  0  0  0  0  0  0  0  0  0
  146.6676  133.3887  152.0530 H   0  0  0  0  0  0  0  0  0  0  0  0
  145.2061  132.8281  152.9258 H   0  0  0  0  0  0  0  0  0  0  0  0
  145.3307  131.5921  148.9575 H   0  0  0  0  0  0  0  0  0  0  0  0
  146.7066  132.5849  149.3869 H   0  0  0  0  0  0  0  0  0  0  0  0
  147.3584  131.0988  150.6821 H   0  0  0  0  0  0  0  0  0  0  0  0
  143.7152  131.1634  151.2033 H   0  0  0  0  0  0  0  0  0  0  0  0
  142.9469  132.7077  151.4599 H   0  0  0  0  0  0  0  0  0  0  0  0
  142.7645  132.9227  149.2295 H   0  0  0  0  0  0  0  0  0  0  0  0
  143.9827  134.6643  149.8234 H   0  0  0  0  0  0  0  0  0  0  0  0
  145.7745  134.7437  149.7950 H   0  0  0  0  0  0  0  0  0  0  0  0
  1  2  1  0  0  0  0
  1 28  1  0  0  0  0
  1 29  1  0  0  0  0
  2  3  2  0  0  0  0
  2  4  1  0  0  0  0
  4  5  1  0  0  0  0
  4 30  1  0  0  0  0
  4 31  1  0  0  0  0
  5 10  1  0  0  0  0
  5  6  1  0  0  0  0
  5 32  1  0  0  0  0
  6  7  1  0  0  0  0
  6 33  1  0  0  0  0
  6 34  1  0  0  0  0
  7  8  1  0  0  0  0
  8  9  1  0  0  0  0
  8 35  1  0  0  0  0
  8 36  1  0  0  0  0
  9 10  1  0  0  0  0
  9 37  1  0  0  0  0
  9 38  1  0  0  0  0
 10 11  1  0  0  0  0
 11 16  1  0  0  0  0
 11 12  2  0  0  0  0
 12 13  1  0  0  0  0
 13 14  2  0  0  0  0
 13 39  1  0  0  0  0
 14 15  1  0  0  0  0
 15 19  1  0  0  0  0
 15 16  2  0  0  0  0
 16 17  1  0  0  0  0
 17 18  2  0  0  0  0
 18 19  1  0  0  0  0
 18 40  1  0  0  0  0
 19 20  1  0  0  0  0
 20 27  1  0  0  0  0
 20 21  1  0  0  0  0
 20 41  1  0  0  0  0
 21 22  1  0  0  0  0
 21 42  1  0  0  0  0
 21 43  1  0  0  0  0
 22 23  1  0  0  0  0
 22 25  1  0  0  0  0
 22 27  1  0  0  0  0
 23 24  1  0  0  0  0
 23 44  1  0  0  0  0
 23 45  1  0  0  0  0
 24 46  1  0  0  0  0
 25 26  1  0  0  0  0
 25 47  1  0  0  0  0
 25 48  1  0  0  0  0
 26 49  1  0  0  0  0
 27 50  1  0  0  0  0
 27 51  1  0  0  0  0
M  END
> <s_m_source_file>
AV-unprocessed.smi

> <i_m_source_file_index>
75

> <i_lp_mmshare_version>
43012

> <i_f3d_flags>
0

> <s_epik_input>
W05IMl1DKD1PKVtDSDJdW0NAQEhdMVtDSDJdT1tDSDJdW0NIMl1OMWMobltjSF1uMiljKGMyMyluW2NIXW4zW0NIXShbQ0gyXTQpW0NIMl1DNChbQ0gyXVtPSF0pW0NIMl1bT0hd

> <s_epik_cmdline>
J2VwaWtfcHl0aG9uJywgJy1waCcsICc3LjAnLCAnLXRuJywgJzgnLCAnLW1hJywgJzIwMCcsICctbWV0YWxfYmluZGluZycsICctaW1hZScsICc8aW5maWxlLm1hZT4nLCAnLW9tYWUnLCAnPG91dGZpbGUubWFlPic=

> <r_lp_tautomer_probability>
1

> <r_epik_Ionization_Penalty>
5.29078e-05

> <r_epik_Ionization_Penalty_Charging>
0

> <r_epik_Ionization_Penalty_Neutral>
5.29078e-05

> <r_epik_State_Penalty>
-0

> <r_epik_Charging_Adjusted_Penalty>
0

> <i_epik_Tot_Q>
0

> <i_epik_Tot_abs_Q>
0

> <r_epik_Metal_State_Penalty>
-0

> <b_epik_Metal_Only>
0

> <s_lp_Force_Field>
OPLS_2005

> <r_lp_Energy>
38.8238

> <b_lp_Chiralities_Consistent>
1

> <s_lp_Variant>
AV-unprocessed.smi:75-1

> <Gold.Version>
5.8.1

> <Gold.Id.Protein>
6NUR|6NUR_protein|mol2

> <Gold.PLP.Fitness>
52.6982

> <Gold.PLP.PLP>
-39.9603

> <Gold.PLP.part.hbond>
-8.0089

> <Gold.PLP.part.metal>
0.0000

> <Gold.PLP.part.buried>
-1.4249

> <Gold.PLP.part.nonpolar>
-31.7783

> <Gold.PLP.part.repulsive>
0.8999

> <Gold.PLP.ligand.clash>
0.1348

> <Gold.PLP.ligand.torsion>
1.9762

> <Gold.PLP.Chemscore.Hbond>
4.3845

> <Gold.PLP.Chemscore.CHOScore>
1.0000

> <Gold.PLP.Chemscore.Metal>
0.0000

> <Gold.Chemscore.Hbonds>
donor molecule, donor type, donor heavy atom, donor atom, acceptor molecule, acceptor atom, score
      L1  H    24    46       P1 10747  0.94
      L1  H    26    49       P1 10186  0.20
      P1  H  8011  8017       L1     7  0.59
      P1  H 10785 10796       L1    26  0.88
      L1  C    18    40       P1 10171  0.87

> <Gold.PLP.Chemscore.Internal.Correction>
0.6717

> <Gold.Rescore>
     Score         DG    S(hbond)    S(metal)    S(lipo)     H(rot)  DE(clash)    DE(int)     intcor
     10.31     -16.94       4.30        0.00      76.46       4.63       1.87       4.75       ----

> <Gold.Chemscore.Fitness>
10.3137

> <Gold.Chemscore.DG>
-16.9379

> <Gold.Chemscore.ZeroCoef>
-5.4800

> <Gold.Chemscore.Hbond>
4.2980

> <Gold.Chemscore.Metal>
0.0000

> <Gold.Chemscore.Lipo>
76.4561

> <Gold.Chemscore.Internal_Hbond>
0.0000

> <Gold.Chemscore.DEClash>
1.8736

> <Gold.Chemscore.DEInternal>
4.7507

> <Gold.Chemscore.Rot>
4.6261

> <Gold.Chemscore.Internal.Correction>
   9.000000E+99

> <Gold.Chemscore.Hbonds>
donor molecule, donor type, donor heavy atom, donor atom, acceptor molecule, acceptor atom, score
      L1  H    24    46       P1 10747  0.91
      L1  H    26    49       P1 10186  0.20
      P1  H  8011  8017       L1     7  0.40
      P1  H 10785 10796       L1    26  0.70

> <Gold.Chemscore.Hbond.Weighted>
-14.3554

> <Gold.Chemscore.Metal.Weighted>
-0.0000

> <Gold.Chemscore.Lipo.Weighted>
-8.9454

> <Gold.Chemscore.Internal_Hbond.Weighted>
0.0000

> <Gold.Chemscore.DEClash.Weighted>
1.8736

> <Gold.Chemscore.DEInternal.Weighted>
4.7507

> <Gold.Chemscore.Rot.Weighted>
11.8429

> <Gold.Chemscore.Internal.Correction.Weighted>
   9.000000E+99

> <Gold.Protein.RotatedTorsions>
[ 6907 6896 6895 6894 ] final   44.35 input  -60.11 | X-H torsion
[ 7974 7965 7964 7962 ] final  -57.57 input  175.53 | X-H torsion
[ 8008 7997 7996 7995 ] final   52.31 input   59.86 | X-H torsion
[ 10167 10162 10161 10158 ] final -105.32 input  -65.29 | X-H torsion
[ 10718 10713 10712 10709 ] final  -29.28 input   66.30 | X-H torsion
[ 10763 10752 10751 10750 ] final -159.94 input  -60.55 | X-H torsion
[ 11005 11000 10999 10996 ] final   86.50 input  -57.11 | X-H torsion

> <Gold.Protein.ActiveResidues>
 VAL166  LYS551  ARG553  GLY616  TRP617  ASP618  TYR619  PRO620  LYS621  CYS622 
 ASP623  PHE694  ASN695  SER759  ASP760  ASP761  ALA762  ILE779  LEU786  VAL792 
 PHE793  MET794  SER795  GLU796  ALA797  LYS798  CYS799  TRP800  GLU811  SER814 

> <Gold.Protein.RotatedAtoms>
  152.2315  134.8317  160.0472 H   0  0  0  0  0  0  0  0  0  0  0  0  # atno 6907 bound_to 6896
  151.9065  133.3545  159.3857 H   0  0  0  0  0  0  0  0  0  0  0  0  # atno 6908 bound_to 6896
  150.7027  134.4701  159.5465 H   0  0  0  0  0  0  0  0  0  0  0  0  # atno 6909 bound_to 6896
  145.8494  140.8362  142.9993 H   0  0  0  0  0  0  0  0  0  0  0  0  # atno 7974 bound_to 7965
  155.4497  140.3457  155.4299 H   0  0  0  0  0  0  0  0  0  0  0  0  # atno 8008 bound_to 7997
  156.1228  140.1492  156.9210 H   0  0  0  0  0  0  0  0  0  0  0  0  # atno 8009 bound_to 7997
  154.4835  140.0862  156.7413 H   0  0  0  0  0  0  0  0  0  0  0  0  # atno 8010 bound_to 7997
  140.1998  143.3827  152.1138 H   0  0  0  0  0  0  0  0  0  0  0  0  # atno 10167 bound_to 10162
  156.4145  130.4414  149.7228 H   0  0  0  0  0  0  0  0  0  0  0  0  # atno 10718 bound_to 10713
  154.7433  135.3074  154.8690 H   0  0  0  0  0  0  0  0  0  0  0  0  # atno 10763 bound_to 10752
  153.9498  135.6765  153.4748 H   0  0  0  0  0  0  0  0  0  0  0  0  # atno 10764 bound_to 10752
  153.1030  135.4902  154.8827 H   0  0  0  0  0  0  0  0  0  0  0  0  # atno 10765 bound_to 10752
  139.8943  134.8359  156.2729 H   0  0  0  0  0  0  0  0  0  0  0  0  # atno 11005 bound_to 11000
  144.6730  140.0931  143.7464 LP  0  0  0  0  0  0  0  0  0  0  0  0  # atno 17320 bound_to 7965
  145.9374  139.2646  143.1289 LP  0  0  0  0  0  0  0  0  0  0  0  0  # atno 17321 bound_to 7965
  139.5222  144.7055  151.5366 LP  0  0  0  0  0  0  0  0  0  0  0  0  # atno 17342 bound_to 10162
  140.6398  143.8911  150.6681 LP  0  0  0  0  0  0  0  0  0  0  0  0  # atno 17343 bound_to 10162
  156.4193  130.7761  151.2777 LP  0  0  0  0  0  0  0  0  0  0  0  0  # atno 17370 bound_to 10713
  157.7507  131.0187  150.3639 LP  0  0  0  0  0  0  0  0  0  0  0  0  # atno 17371 bound_to 10713
  141.0089  133.7107  156.1079 LP  0  0  0  0  0  0  0  0  0  0  0  0  # atno 17394 bound_to 11000
  140.7395  134.4165  157.5556 LP  0  0  0  0  0  0  0  0  0  0  0  0  # atno 17395 bound_to 11000

$$$$
