AV-unprocessed.smi:193|AV-procd|sdf|1509|dock7
  -GOLD-   2262019343D 1   1.00000     0.00000
 Structure written by MMmdl.
 62 66  0  0  0  0  0  0  0  0  2 V2000
  150.4135  132.7290  155.3116 C   0  0  0  0  0  0  0  0  0  0  0  0
  149.5044  133.9579  155.1557 C   0  0  1  0  0  0  0  0  0  0  0  0
  150.3174  135.1796  154.6841 C   0  0  0  0  0  0  0  0  0  0  0  0
  149.7319  136.4394  155.1489 N   0  0  0  0  0  0  0  0  0  0  0  0
  150.5959  137.4585  155.3789 C   0  0  0  0  0  0  0  0  0  0  0  0
  151.9366  137.2423  155.3102 N   0  0  0  0  0  0  0  0  0  0  0  0
  152.7908  138.2499  155.5156 C   0  0  0  0  0  0  0  0  0  0  0  0
  152.5229  139.5277  155.7929 N   0  0  0  0  0  0  0  0  0  0  0  0
  151.1788  139.7486  155.8615 C   0  0  0  0  0  0  0  0  0  0  0  0
  150.1556  138.7785  155.6706 C   0  0  0  0  0  0  0  0  0  0  0  0
  148.9063  139.3666  155.8247 N   0  0  0  0  0  0  0  0  0  0  0  0
  149.1756  140.6171  156.0846 C   0  0  0  0  0  0  0  0  0  0  0  0
  150.5148  140.9358  156.1160 N   0  0  0  0  0  0  0  0  0  0  0  0
  151.0901  142.2472  156.3722 C   0  0  0  0  0  0  0  0  0  0  0  0
  151.2609  142.5720  157.8768 C   0  0  0  0  0  0  0  0  0  0  0  0
  149.9976  142.4098  158.4991 O   0  0  0  0  0  0  0  0  0  0  0  0
  152.2528  141.5897  158.5308 C   0  0  0  0  0  0  0  0  0  0  0  0
  152.5795  141.9774  159.9839 C   0  0  0  0  0  0  0  0  0  0  0  0
  153.0691  143.3119  160.0327 O   0  0  0  0  0  0  0  0  0  0  0  0
  152.1093  144.2666  159.5960 C   0  0  0  0  0  0  0  0  0  0  0  0
  151.7447  144.0183  158.1214 C   0  0  0  0  0  0  0  0  0  0  0  0
  148.4552  136.8934  154.6003 C   0  0  0  0  0  0  0  0  0  0  0  0
  147.3275  135.8571  154.7165 C   0  0  0  0  0  0  0  0  0  0  0  0
  147.5248  134.7645  153.7349 N   0  3  2  0  0  0  0  0  0  0  0  0
  146.2564  134.3287  153.1087 C   0  0  1  0  0  0  0  0  0  0  0  0
  145.8993  135.1122  151.8671 C   0  0  0  0  0  0  0  0  0  0  0  0
  146.4310  133.7002  151.7439 C   0  0  2  0  0  0  0  0  0  0  0  0
  145.5211  132.5809  151.2883 C   0  0  0  0  0  0  0  0  0  0  0  0
  148.3118  133.6075  154.2354 C   0  0  0  0  0  0  0  0  0  0  0  0
  150.8780  132.4544  154.3639 H   0  0  0  0  0  0  0  0  0  0  0  0
  149.8515  131.8659  155.6701 H   0  0  0  0  0  0  0  0  0  0  0  0
  151.2118  132.9184  156.0298 H   0  0  0  0  0  0  0  0  0  0  0  0
  149.1208  134.1761  156.1538 H   0  0  0  0  0  0  0  0  0  0  0  0
  151.3271  135.0967  155.0901 H   0  0  0  0  0  0  0  0  0  0  0  0
  150.4199  135.1855  153.5981 H   0  0  0  0  0  0  0  0  0  0  0  0
  153.8386  137.9971  155.4446 H   0  0  0  0  0  0  0  0  0  0  0  0
  148.3999  141.3495  156.2559 H   0  0  0  0  0  0  0  0  0  0  0  0
  152.0526  142.3009  155.8615 H   0  0  0  0  0  0  0  0  0  0  0  0
  150.4541  142.9953  155.8971 H   0  0  0  0  0  0  0  0  0  0  0  0
  149.3875  143.0107  158.0994 H   0  0  0  0  0  0  0  0  0  0  0  0
  151.8638  140.5715  158.4937 H   0  0  0  0  0  0  0  0  0  0  0  0
  153.1821  141.5816  157.9597 H   0  0  0  0  0  0  0  0  0  0  0  0
  151.7033  141.8749  160.6261 H   0  0  0  0  0  0  0  0  0  0  0  0
  153.3422  141.3096  160.3847 H   0  0  0  0  0  0  0  0  0  0  0  0
  151.2239  144.2260  160.2322 H   0  0  0  0  0  0  0  0  0  0  0  0
  152.5326  145.2647  159.7103 H   0  0  0  0  0  0  0  0  0  0  0  0
  152.6279  144.2090  157.5105 H   0  0  0  0  0  0  0  0  0  0  0  0
  150.9913  144.7406  157.8048 H   0  0  0  0  0  0  0  0  0  0  0  0
  148.1342  137.7966  155.1200 H   0  0  0  0  0  0  0  0  0  0  0  0
  148.5948  137.1802  153.5570 H   0  0  0  0  0  0  0  0  0  0  0  0
  147.2137  135.4777  155.7328 H   0  0  0  0  0  0  0  0  0  0  0  0
  146.3943  136.3743  154.4889 H   0  0  0  0  0  0  0  0  0  0  0  0
  145.4768  133.9830  153.7856 H   0  0  0  0  0  0  0  0  0  0  0  0
  144.8422  135.2731  151.6644 H   0  0  0  0  0  0  0  0  0  0  0  0
  146.5577  135.9237  151.5621 H   0  0  0  0  0  0  0  0  0  0  0  0
  147.4504  133.6087  151.3722 H   0  0  0  0  0  0  0  0  0  0  0  0
  144.5097  132.7229  151.6703 H   0  0  0  0  0  0  0  0  0  0  0  0
  145.8973  131.6234  151.6483 H   0  0  0  0  0  0  0  0  0  0  0  0
  145.4801  132.5521  150.1994 H   0  0  0  0  0  0  0  0  0  0  0  0
  148.6693  133.0580  153.3637 H   0  0  0  0  0  0  0  0  0  0  0  0
  147.6476  132.9284  154.7724 H   0  0  0  0  0  0  0  0  0  0  0  0
  148.0703  135.1747  152.9901 H   0  0  0  0  0  0  0  0  0  0  0  0
  1  2  1  0  0  0  0
  1 30  1  0  0  0  0
  1 31  1  0  0  0  0
  1 32  1  0  0  0  0
  2 29  1  0  0  0  0
  2  3  1  0  0  0  0
  2 33  1  0  0  0  0
  3  4  1  0  0  0  0
  3 34  1  0  0  0  0
  3 35  1  0  0  0  0
  4  5  1  0  0  0  0
  4 22  1  0  0  0  0
  5 10  1  0  0  0  0
  5  6  2  0  0  0  0
  6  7  1  0  0  0  0
  7  8  2  0  0  0  0
  7 36  1  0  0  0  0
  8  9  1  0  0  0  0
  9 13  1  0  0  0  0
  9 10  2  0  0  0  0
 10 11  1  0  0  0  0
 11 12  2  0  0  0  0
 12 13  1  0  0  0  0
 12 37  1  0  0  0  0
 13 14  1  0  0  0  0
 14 15  1  0  0  0  0
 14 38  1  0  0  0  0
 14 39  1  0  0  0  0
 15 21  1  0  0  0  0
 15 16  1  0  0  0  0
 15 17  1  0  0  0  0
 16 40  1  0  0  0  0
 17 18  1  0  0  0  0
 17 41  1  0  0  0  0
 17 42  1  0  0  0  0
 18 19  1  0  0  0  0
 18 43  1  0  0  0  0
 18 44  1  0  0  0  0
 19 20  1  0  0  0  0
 20 21  1  0  0  0  0
 20 45  1  0  0  0  0
 20 46  1  0  0  0  0
 21 47  1  0  0  0  0
 21 48  1  0  0  0  0
 22 23  1  0  0  0  0
 22 49  1  0  0  0  0
 22 50  1  0  0  0  0
 23 24  1  0  0  0  0
 23 51  1  0  0  0  0
 23 52  1  0  0  0  0
 24 25  1  0  0  0  0
 24 29  1  0  0  0  0
 24 62  1  0  0  0  0
 25 27  1  0  0  0  0
 25 26  1  0  0  0  0
 25 53  1  0  0  0  0
 26 27  1  0  0  0  0
 26 54  1  0  0  0  0
 26 55  1  0  0  0  0
 27 28  1  0  0  0  0
 27 56  1  0  0  0  0
 28 57  1  0  0  0  0
 28 58  1  0  0  0  0
 28 59  1  0  0  0  0
 29 60  1  0  0  0  0
 29 61  1  0  0  0  0
M  CHG  1  24   1
M  END
> <s_m_source_file>
AV-unprocessed.smi

> <i_m_source_file_index>
193

> <i_lp_mmshare_version>
43012

> <i_f3d_flags>
0

> <s_epik_input>
W0NIM11bQ0BASF0xW0NIMl1bQ0BIXTFOKFtDSDJdMilbQ0gyXVtDSDJdTihbQ0gyXVtDQEhdMltDSDNdKWMobltjSF1uMyljKGMzNCluW2NIXW40W0NIMl1DNShbT0hdKVtDSDJdW0NIMl1PW0NIMl1bQ0gyXTU=

> <s_epik_cmdline>
J2VwaWtfcHl0aG9uJywgJy1waCcsICc3LjAnLCAnLXRuJywgJzgnLCAnLW1hJywgJzIwMCcsICctbWV0YWxfYmluZGluZycsICctaW1hZScsICc8aW5maWxlLm1hZT4nLCAnLW9tYWUnLCAnPG91dGZpbGUubWFlPic=

> <r_lp_tautomer_probability>
1

> <r_epik_Ionization_Penalty>
0.0540825

> <r_epik_Ionization_Penalty_Charging>
0.0538476

> <r_epik_Ionization_Penalty_Neutral>
0.000234891

> <r_epik_State_Penalty>
0.0200719

> <r_epik_Charging_Adjusted_Penalty>
0.0739194

> <i_epik_Tot_Q>
1

> <i_epik_Tot_abs_Q>
1

> <r_epik_Metal_State_Penalty>
0.0199414

> <b_epik_Metal_Only>
0

> <s_lp_Force_Field>
OPLS_2005

> <r_lp_Energy>
55.1026

> <b_lp_Chiralities_Consistent>
1

> <s_lp_Variant>
AV-unprocessed.smi:193-14

> <Gold.Version>
5.8.1

> <Gold.Id.Protein>
6NUR|6NUR_protein|mol2

> <Gold.PLP.Fitness>
57.0686

> <Gold.PLP.PLP>
-46.3205

> <Gold.PLP.part.hbond>
-3.0000

> <Gold.PLP.part.metal>
0.0000

> <Gold.PLP.part.buried>
-5.3033

> <Gold.PLP.part.nonpolar>
-39.1705

> <Gold.PLP.part.repulsive>
0.2154

> <Gold.PLP.ligand.clash>
0.0000

> <Gold.PLP.ligand.torsion>
1.4346

> <Gold.PLP.Chemscore.Hbond>
3.9357

> <Gold.PLP.Chemscore.CHOScore>
0.0000

> <Gold.PLP.Chemscore.Metal>
0.0000

> <Gold.Chemscore.Hbonds>
donor molecule, donor type, donor heavy atom, donor atom, acceptor molecule, acceptor atom, score
      L1  H    24    62       P1  7948  2.00
      P1  H  7997  8010       L1     8  0.95
      P1  H 10752 10764       L1     6  0.91

> <Gold.PLP.Chemscore.Internal.Correction>
1.8101

> <Gold.Rescore>
     Score         DG    S(hbond)    S(metal)    S(lipo)     H(rot)  DE(clash)    DE(int)     intcor
     16.08     -19.80       2.13        0.00     109.65       2.20       0.83       2.89       ----

> <Gold.Chemscore.Fitness>
16.0809

> <Gold.Chemscore.DG>
-19.7996

> <Gold.Chemscore.ZeroCoef>
-5.4800

> <Gold.Chemscore.Hbond>
2.1338

> <Gold.Chemscore.Metal>
0.0000

> <Gold.Chemscore.Lipo>
109.6518

> <Gold.Chemscore.Internal_Hbond>
0.0000

> <Gold.Chemscore.DEClash>
0.8322

> <Gold.Chemscore.DEInternal>
2.8865

> <Gold.Chemscore.Rot>
2.2018

> <Gold.Chemscore.Internal.Correction>
   9.000000E+99

> <Gold.Chemscore.Hbonds>
donor molecule, donor type, donor heavy atom, donor atom, acceptor molecule, acceptor atom, score
      L1  H    24    62       P1  7948  0.98
      P1  H  7997  8010       L1     8  0.21
      P1  H 10752 10764       L1     6  0.58

> <Gold.Chemscore.Hbond.Weighted>
-7.1269

> <Gold.Chemscore.Metal.Weighted>
-0.0000

> <Gold.Chemscore.Lipo.Weighted>
-12.8293

> <Gold.Chemscore.Internal_Hbond.Weighted>
0.0000

> <Gold.Chemscore.DEClash.Weighted>
0.8322

> <Gold.Chemscore.DEInternal.Weighted>
2.8865

> <Gold.Chemscore.Rot.Weighted>
5.6366

> <Gold.Chemscore.Internal.Correction.Weighted>
   9.000000E+99

> <Gold.Protein.RotatedTorsions>
[ 6907 6896 6895 6894 ] final  -39.34 input  -60.11 | X-H torsion
[ 7974 7965 7964 7962 ] final   23.06 input  175.53 | X-H torsion
[ 8008 7997 7996 7995 ] final   88.13 input   59.86 | X-H torsion
[ 10167 10162 10161 10158 ] final  -21.19 input  -65.29 | X-H torsion
[ 10718 10713 10712 10709 ] final   26.85 input   66.30 | X-H torsion
[ 10763 10752 10751 10750 ] final  -55.12 input  -60.55 | X-H torsion
[ 11005 11000 10999 10996 ] final -172.43 input  -57.11 | X-H torsion

> <Gold.Protein.ActiveResidues>
 VAL166  LYS551  ARG553  GLY616  TRP617  ASP618  TYR619  PRO620  LYS621  CYS622 
 ASP623  PHE694  ASN695  SER759  ASP760  ASP761  ALA762  ILE779  LEU786  VAL792 
 PHE793  MET794  SER795  GLU796  ALA797  LYS798  CYS799  TRP800  GLU811  SER814 

> <Gold.Protein.RotatedAtoms>
  150.9915  134.9249  159.7902 H   0  0  0  0  0  0  0  0  0  0  0  0  # atno 6907 bound_to 6896
  152.5252  134.3275  159.9181 H   0  0  0  0  0  0  0  0  0  0  0  0  # atno 6908 bound_to 6896
  151.3281  133.3971  159.2694 H   0  0  0  0  0  0  0  0  0  0  0  0  # atno 6909 bound_to 6896
  146.2001  139.7797  142.8768 H   0  0  0  0  0  0  0  0  0  0  0  0  # atno 7974 bound_to 7965
  155.9840  140.3375  155.6689 H   0  0  0  0  0  0  0  0  0  0  0  0  # atno 8008 bound_to 7997
  155.6511  140.0705  157.2604 H   0  0  0  0  0  0  0  0  0  0  0  0  # atno 8009 bound_to 7997
  154.4200  140.1725  156.1663 H   0  0  0  0  0  0  0  0  0  0  0  0  # atno 8010 bound_to 7997
  140.7280  143.4651  151.0325 H   0  0  0  0  0  0  0  0  0  0  0  0  # atno 10167 bound_to 10162
  157.2124  130.6940  149.6234 H   0  0  0  0  0  0  0  0  0  0  0  0  # atno 10718 bound_to 10713
  154.1858  135.6435  153.5046 H   0  0  0  0  0  0  0  0  0  0  0  0  # atno 10763 bound_to 10752
  153.0047  135.5417  154.6467 H   0  0  0  0  0  0  0  0  0  0  0  0  # atno 10764 bound_to 10752
  154.5843  135.2928  155.0674 H   0  0  0  0  0  0  0  0  0  0  0  0  # atno 10765 bound_to 10752
  140.4970  134.5930  157.4975 H   0  0  0  0  0  0  0  0  0  0  0  0  # atno 11005 bound_to 11000
  145.3512  141.0308  143.3337 LP  0  0  0  0  0  0  0  0  0  0  0  0  # atno 17320 bound_to 7965
  144.8665  139.5100  143.6788 LP  0  0  0  0  0  0  0  0  0  0  0  0  # atno 17321 bound_to 7965
  139.8338  143.7655  152.3180 LP  0  0  0  0  0  0  0  0  0  0  0  0  # atno 17342 bound_to 10162
  139.7780  144.7454  151.0129 LP  0  0  0  0  0  0  0  0  0  0  0  0  # atno 17343 bound_to 10162
  155.9689  130.4547  150.5859 LP  0  0  0  0  0  0  0  0  0  0  0  0  # atno 17370 bound_to 10713
  157.3659  131.0757  151.1598 LP  0  0  0  0  0  0  0  0  0  0  0  0  # atno 17371 bound_to 10713
  139.9735  134.7253  155.9994 LP  0  0  0  0  0  0  0  0  0  0  0  0  # atno 17394 bound_to 11000
  141.1455  133.6557  156.3854 LP  0  0  0  0  0  0  0  0  0  0  0  0  # atno 17395 bound_to 11000

$$$$
