AV-unprocessed.smi:1522|AV-procd|sdf|6135|dock10
  -GOLD-   22720 6283D 1   1.00000     0.00000
 Structure written by MMmdl.
 35 36  0  0  0  0  0  0  0  0  2 V2000
  143.8963  136.4556  152.4021 C   0  0  0  0  0  0  0  0  0  0  0  0
  145.4329  136.6111  152.3441 C   0  0  1  0  0  0  0  0  0  0  0  0
  146.0063  136.9524  153.7406 C   0  0  0  0  0  0  0  0  0  0  0  0
  147.4291  137.2742  153.6863 N   0  0  0  0  0  0  0  0  0  0  0  0
  148.0509  138.1311  154.5083 C   0  0  0  0  0  0  0  0  0  0  0  0
  147.4786  138.7331  155.4168 O   0  0  0  0  0  0  0  0  0  0  0  0
  149.3569  138.2374  154.2058 N   0  0  0  0  0  0  0  0  0  0  0  0
  150.3381  139.0585  154.8225 C   0  0  0  0  0  0  0  0  0  0  0  0
  151.6413  138.7426  154.8838 N   0  0  0  0  0  0  0  0  0  0  0  0
  152.3812  139.7154  155.5432 N   0  0  0  0  0  0  0  0  0  0  0  0
  151.6083  140.7250  155.9532 C   0  0  0  0  0  0  0  0  0  0  0  0
  149.9002  140.5862  155.5741 S   0  0  0  0  0  0  0  0  0  0  0  0
  146.0723  135.3818  151.7886 N   0  3  0  0  0  0  0  0  0  0  0  0
  146.2072  134.2553  152.7377 C   0  0  0  0  0  0  0  0  0  0  0  0
  146.4214  133.0030  151.8846 C   0  0  0  0  0  0  0  0  0  0  0  0
  145.8941  133.3603  150.4929 C   0  0  0  0  0  0  0  0  0  0  0  0
  145.4099  134.8086  150.5964 C   0  0  0  0  0  0  0  0  0  0  0  0
  143.4130  137.3428  152.8113 H   0  0  0  0  0  0  0  0  0  0  0  0
  143.6088  135.6086  153.0259 H   0  0  0  0  0  0  0  0  0  0  0  0
  143.4629  136.3054  151.4135 H   0  0  0  0  0  0  0  0  0  0  0  0
  145.6614  137.4393  151.6713 H   0  0  0  0  0  0  0  0  0  0  0  0
  145.4405  137.7815  154.1698 H   0  0  0  0  0  0  0  0  0  0  0  0
  145.9018  136.1107  154.4252 H   0  0  0  0  0  0  0  0  0  0  0  0
  147.9761  136.8164  152.9717 H   0  0  0  0  0  0  0  0  0  0  0  0
  149.6881  137.6721  153.4381 H   0  0  0  0  0  0  0  0  0  0  0  0
  152.0476  141.5574  156.4826 H   0  0  0  0  0  0  0  0  0  0  0  0
  147.0281  134.4084  153.4389 H   0  0  0  0  0  0  0  0  0  0  0  0
  145.2857  134.1513  153.3131 H   0  0  0  0  0  0  0  0  0  0  0  0
  147.4836  132.7617  151.8263 H   0  0  0  0  0  0  0  0  0  0  0  0
  145.9112  132.1376  152.3087 H   0  0  0  0  0  0  0  0  0  0  0  0
  146.6983  133.2800  149.7604 H   0  0  0  0  0  0  0  0  0  0  0  0
  145.0920  132.6938  150.1739 H   0  0  0  0  0  0  0  0  0  0  0  0
  144.3281  134.8223  150.7391 H   0  0  0  0  0  0  0  0  0  0  0  0
  145.6387  135.3732  149.6920 H   0  0  0  0  0  0  0  0  0  0  0  0
  147.0095  135.6286  151.5034 H   0  0  0  0  0  0  0  0  0  0  0  0
  1  2  1  0  0  0  0
  1 18  1  0  0  0  0
  1 19  1  0  0  0  0
  1 20  1  0  0  0  0
  2  3  1  0  0  0  0
  2 13  1  0  0  0  0
  2 21  1  0  0  0  0
  3  4  1  0  0  0  0
  3 22  1  0  0  0  0
  3 23  1  0  0  0  0
  4  5  1  0  0  0  0
  4 24  1  0  0  0  0
  5  6  2  0  0  0  0
  5  7  1  0  0  0  0
  7  8  1  0  0  0  0
  7 25  1  0  0  0  0
  8 12  1  0  0  0  0
  8  9  2  0  0  0  0
  9 10  1  0  0  0  0
 10 11  2  0  0  0  0
 11 12  1  0  0  0  0
 11 26  1  0  0  0  0
 13 17  1  0  0  0  0
 13 14  1  0  0  0  0
 13 35  1  0  0  0  0
 14 15  1  0  0  0  0
 14 27  1  0  0  0  0
 14 28  1  0  0  0  0
 15 16  1  0  0  0  0
 15 29  1  0  0  0  0
 15 30  1  0  0  0  0
 16 17  1  0  0  0  0
 16 31  1  0  0  0  0
 16 32  1  0  0  0  0
 17 33  1  0  0  0  0
 17 34  1  0  0  0  0
M  CHG  1  13   1
M  END
> <s_m_source_file>
AV-unprocessed.smi

> <i_m_source_file_index>
1522

> <i_lp_mmshare_version>
43012

> <i_f3d_flags>
0

> <s_epik_input>
W0NIMl0xW0NIMl1bQ0gyXVtDSDJdTjFbQ0BIXShbQ0gzXSlbQ0gyXVtOSF1DKD1PKVtOSF1jMm5uW2NIXXMy

> <s_epik_cmdline>
J2VwaWtfcHl0aG9uJywgJy1waCcsICc3LjAnLCAnLXRuJywgJzgnLCAnLW1hJywgJzIwMCcsICctbWV0YWxfYmluZGluZycsICctaW1hZScsICc8aW5maWxlLm1hZT4nLCAnLW9tYWUnLCAnPG91dGZpbGUubWFlPic=

> <r_lp_tautomer_probability>
1

> <r_epik_Ionization_Penalty>
0.00457064

> <r_epik_Ionization_Penalty_Charging>
0.000848324

> <r_epik_Ionization_Penalty_Neutral>
0.00372231

> <r_epik_State_Penalty>
-0

> <r_epik_Charging_Adjusted_Penalty>
0.000848324

> <i_epik_Tot_Q>
1

> <i_epik_Tot_abs_Q>
1

> <r_epik_Metal_State_Penalty>
0.370178

> <b_epik_Metal_Only>
0

> <s_lp_Force_Field>
OPLS_2005

> <r_lp_Energy>
30.6198

> <b_lp_Chiralities_Consistent>
1

> <s_lp_Variant>
AV-unprocessed.smi:1522-2

> <Gold.Version>
5.8.1

> <Gold.Id.Protein>
6NUR|6NUR_protein|mol2

> <Gold.PLP.Fitness>
36.6871

> <Gold.PLP.PLP>
-24.2263

> <Gold.PLP.part.hbond>
-3.9648

> <Gold.PLP.part.metal>
0.0000

> <Gold.PLP.part.buried>
-3.4175

> <Gold.PLP.part.nonpolar>
-17.2578

> <Gold.PLP.part.repulsive>
0.1716

> <Gold.PLP.ligand.clash>
0.0000

> <Gold.PLP.ligand.torsion>
0.6194

> <Gold.PLP.Chemscore.Hbond>
4.5564

> <Gold.PLP.Chemscore.CHOScore>
0.0000

> <Gold.PLP.Chemscore.Metal>
0.0000

> <Gold.Chemscore.Hbonds>
donor molecule, donor type, donor heavy atom, donor atom, acceptor molecule, acceptor atom, score
      L1  H     4    24       P1  7948  1.00
      L1  H     7    25       P1  7948  0.45
      L1  H    13    35       P1  7948  2.00
      P1  H  7997  8009       L1    10  0.78

> <Gold.PLP.Chemscore.Internal.Correction>
0.0304

> <Gold.Rescore>
     Score         DG    S(hbond)    S(metal)    S(lipo)     H(rot)  DE(clash)    DE(int)     intcor
     14.65     -16.33       2.90        0.00      47.32       1.70       0.54       1.14       ----

> <Gold.Chemscore.Fitness>
14.6527

> <Gold.Chemscore.DG>
-16.3282

> <Gold.Chemscore.ZeroCoef>
-5.4800

> <Gold.Chemscore.Hbond>
2.8955

> <Gold.Chemscore.Metal>
0.0000

> <Gold.Chemscore.Lipo>
47.3196

> <Gold.Chemscore.Internal_Hbond>
0.0000

> <Gold.Chemscore.DEClash>
0.5353

> <Gold.Chemscore.DEInternal>
1.1402

> <Gold.Chemscore.Rot>
1.7028

> <Gold.Chemscore.Internal.Correction>
   9.000000E+99

> <Gold.Chemscore.Hbonds>
donor molecule, donor type, donor heavy atom, donor atom, acceptor molecule, acceptor atom, score
      L1  H     4    24       P1  7948  0.98
      L1  H     7    25       P1  7948  0.35
      L1  H    13    35       P1  7948  0.91
      P1  H  7997  8009       L1    10  0.50

> <Gold.Chemscore.Hbond.Weighted>
-9.6710

> <Gold.Chemscore.Metal.Weighted>
-0.0000

> <Gold.Chemscore.Lipo.Weighted>
-5.5364

> <Gold.Chemscore.Internal_Hbond.Weighted>
0.0000

> <Gold.Chemscore.DEClash.Weighted>
0.5353

> <Gold.Chemscore.DEInternal.Weighted>
1.1402

> <Gold.Chemscore.Rot.Weighted>
4.3592

> <Gold.Chemscore.Internal.Correction.Weighted>
   9.000000E+99

> <Gold.Protein.RotatedTorsions>
[ 6907 6896 6895 6894 ] final   48.32 input  -60.11 | X-H torsion
[ 7974 7965 7964 7962 ] final  -69.71 input  175.53 | X-H torsion
[ 8008 7997 7996 7995 ] final -142.98 input   59.86 | X-H torsion
[ 10167 10162 10161 10158 ] final -129.34 input  -65.29 | X-H torsion
[ 10718 10713 10712 10709 ] final  137.09 input   66.30 | X-H torsion
[ 10763 10752 10751 10750 ] final  -68.70 input  -60.55 | X-H torsion
[ 11005 11000 10999 10996 ] final    7.19 input  -57.11 | X-H torsion

> <Gold.Protein.ActiveResidues>
 VAL166  LYS551  ARG553  GLY616  TRP617  ASP618  TYR619  PRO620  LYS621  CYS622 
 ASP623  PHE694  ASN695  SER759  ASP760  ASP761  ALA762  ILE779  LEU786  VAL792 
 PHE793  MET794  SER795  GLU796  ALA797  LYS798  CYS799  TRP800  GLU811  SER814 

> <Gold.Protein.RotatedAtoms>
  152.2781  134.7859  160.0401 H   0  0  0  0  0  0  0  0  0  0  0  0  # atno 6907 bound_to 6896
  151.8448  133.3424  159.3662 H   0  0  0  0  0  0  0  0  0  0  0  0  # atno 6908 bound_to 6896
  150.7178  134.5285  159.5733 H   0  0  0  0  0  0  0  0  0  0  0  0  # atno 6909 bound_to 6896
  145.7003  140.9119  143.0734 H   0  0  0  0  0  0  0  0  0  0  0  0  # atno 7974 bound_to 7965
  155.5032  140.0577  157.2936 H   0  0  0  0  0  0  0  0  0  0  0  0  # atno 8008 bound_to 7997
  154.4579  140.1982  156.0276 H   0  0  0  0  0  0  0  0  0  0  0  0  # atno 8009 bound_to 7997
  156.0835  140.3243  155.7728 H   0  0  0  0  0  0  0  0  0  0  0  0  # atno 8010 bound_to 7997
  139.9408  143.6165  152.2504 H   0  0  0  0  0  0  0  0  0  0  0  0  # atno 10167 bound_to 10162
  157.4398  131.1056  151.0157 H   0  0  0  0  0  0  0  0  0  0  0  0  # atno 10718 bound_to 10713
  154.3928  135.6049  153.5853 H   0  0  0  0  0  0  0  0  0  0  0  0  # atno 10763 bound_to 10752
  152.9787  135.5888  154.4277 H   0  0  0  0  0  0  0  0  0  0  0  0  # atno 10764 bound_to 10752
  154.4063  135.2843  155.2043 H   0  0  0  0  0  0  0  0  0  0  0  0  # atno 10765 bound_to 10752
  140.5511  134.0283  155.7937 H   0  0  0  0  0  0  0  0  0  0  0  0  # atno 11005 bound_to 11000
  144.6970  139.8939  143.7454 LP  0  0  0  0  0  0  0  0  0  0  0  0  # atno 17320 bound_to 7965
  146.0803  139.3791  143.0468 LP  0  0  0  0  0  0  0  0  0  0  0  0  # atno 17321 bound_to 7965
  139.6706  144.7661  151.1791 LP  0  0  0  0  0  0  0  0  0  0  0  0  # atno 17342 bound_to 10162
  140.7611  143.5871  150.8834 LP  0  0  0  0  0  0  0  0  0  0  0  0  # atno 17343 bound_to 10162
  157.1024  130.5987  149.5463 LP  0  0  0  0  0  0  0  0  0  0  0  0  # atno 17370 bound_to 10713
  155.9944  130.5008  150.7419 LP  0  0  0  0  0  0  0  0  0  0  0  0  # atno 17371 bound_to 10713
  141.1171  133.9522  157.2801 LP  0  0  0  0  0  0  0  0  0  0  0  0  # atno 17394 bound_to 11000
  139.9455  135.0185  156.8838 LP  0  0  0  0  0  0  0  0  0  0  0  0  # atno 17395 bound_to 11000

$$$$
