AV-unprocessed.smi:672|AV-procd|sdf|3291|dock3
  -GOLD-   22720 0253D 1   1.00000     0.00000
 Structure written by MMmdl.
 36 37  0  0  0  0  0  0  0  0  1 V2000
  151.0376  141.6398  157.5511 C   0  0  0  0  0  0  0  0  0  0  0  0
  150.4253  142.0690  156.2135 C   0  0  0  0  0  0  0  0  0  0  0  0
  150.1187  140.9099  155.3248 C   0  0  0  0  0  0  0  0  0  0  0  0
  151.0535  140.0401  154.9222 N   0  0  0  0  0  0  0  0  0  0  0  0
  150.5272  139.0323  154.1263 N   0  0  0  0  0  0  0  0  0  0  0  0
  149.2034  139.1633  153.9644 C   0  0  0  0  0  0  0  0  0  0  0  0
  148.4099  138.2703  153.1967 N   0  0  0  0  0  0  0  0  0  0  0  0
  147.0729  138.2551  153.0548 C   0  0  0  0  0  0  0  0  0  0  0  0
  146.2912  139.0502  153.5773 O   0  0  0  0  0  0  0  0  0  0  0  0
  146.6811  137.2484  152.2606 N   0  0  0  0  0  0  0  0  0  0  0  0
  145.2966  136.9532  151.8998 C   0  0  2  0  0  0  0  0  0  0  0  0
  144.4844  136.4692  153.1176 C   0  0  0  0  0  0  0  0  0  0  0  0
  144.2671  134.9713  152.9062 C   0  0  0  0  0  0  0  0  0  0  0  0
  144.1903  134.8196  151.3893 C   0  0  2  0  0  0  0  0  0  0  0  0
  144.4889  133.1128  150.8458 S   0  0  0  0  0  0  0  0  0  0  0  0
  146.2203  132.9173  151.3432 C   0  0  0  0  0  0  0  0  0  0  0  0
  145.2320  135.8140  150.8640 C   0  0  0  0  0  0  0  0  0  0  0  0
  148.4862  140.5429  154.7789 S   0  0  0  0  0  0  0  0  0  0  0  0
  151.2491  142.5068  158.1772 H   0  0  0  0  0  0  0  0  0  0  0  0
  151.9737  141.1015  157.4001 H   0  0  0  0  0  0  0  0  0  0  0  0
  150.3606  140.9867  158.1026 H   0  0  0  0  0  0  0  0  0  0  0  0
  149.5057  142.6280  156.3887 H   0  0  0  0  0  0  0  0  0  0  0  0
  151.1055  142.7439  155.6925 H   0  0  0  0  0  0  0  0  0  0  0  0
  148.9211  137.5565  152.6988 H   0  0  0  0  0  0  0  0  0  0  0  0
  147.3896  136.6412  151.8755 H   0  0  0  0  0  0  0  0  0  0  0  0
  144.8308  137.8492  151.4848 H   0  0  0  0  0  0  0  0  0  0  0  0
  144.9619  136.6820  154.0752 H   0  0  0  0  0  0  0  0  0  0  0  0
  143.5173  136.9736  153.1251 H   0  0  0  0  0  0  0  0  0  0  0  0
  145.1246  134.4206  153.2962 H   0  0  0  0  0  0  0  0  0  0  0  0
  143.3744  134.6019  153.4117 H   0  0  0  0  0  0  0  0  0  0  0  0
  143.1974  135.1271  151.0573 H   0  0  0  0  0  0  0  0  0  0  0  0
  146.5825  131.9299  151.0570 H   0  0  0  0  0  0  0  0  0  0  0  0
  146.3239  133.0219  152.4230 H   0  0  0  0  0  0  0  0  0  0  0  0
  146.8440  133.6681  150.8578 H   0  0  0  0  0  0  0  0  0  0  0  0
  144.9749  136.1822  149.8702 H   0  0  0  0  0  0  0  0  0  0  0  0
  146.2009  135.3182  150.7810 H   0  0  0  0  0  0  0  0  0  0  0  0
  1  2  1  0  0  0  0
  1 19  1  0  0  0  0
  1 20  1  0  0  0  0
  1 21  1  0  0  0  0
  2  3  1  0  0  0  0
  2 22  1  0  0  0  0
  2 23  1  0  0  0  0
  3 18  1  0  0  0  0
  3  4  2  0  0  0  0
  4  5  1  0  0  0  0
  5  6  2  0  0  0  0
  6  7  1  0  0  0  0
  6 18  1  0  0  0  0
  7  8  1  0  0  0  0
  7 24  1  0  0  0  0
  8  9  2  0  0  0  0
  8 10  1  0  0  0  0
 10 11  1  0  0  0  0
 10 25  1  0  0  0  0
 11 17  1  0  0  0  0
 11 12  1  0  0  0  0
 11 26  1  0  0  0  0
 12 13  1  0  0  0  0
 12 27  1  0  0  0  0
 12 28  1  0  0  0  0
 13 14  1  0  0  0  0
 13 29  1  0  0  0  0
 13 30  1  0  0  0  0
 14 15  1  0  0  0  0
 14 17  1  0  0  0  0
 14 31  1  0  0  0  0
 15 16  1  0  0  0  0
 16 32  1  0  0  0  0
 16 33  1  0  0  0  0
 16 34  1  0  0  0  0
 17 35  1  0  0  0  0
 17 36  1  0  0  0  0
M  END
> <s_m_source_file>
AV-unprocessed.smi

> <i_m_source_file_index>
672

> <i_lp_mmshare_version>
43012

> <i_f3d_flags>
0

> <s_epik_input>
W0NIM11bQ0gyXWMxbm5jKHMxKVtOSF1DKD1PKVtOSF1bQ0BASF0yW0NIMl1bQ0gyXVtDQEhdKFtDSDJdMilTW0NIM10=

> <s_epik_cmdline>
J2VwaWtfcHl0aG9uJywgJy1waCcsICc3LjAnLCAnLXRuJywgJzgnLCAnLW1hJywgJzIwMCcsICctbWV0YWxfYmluZGluZycsICctaW1hZScsICc8aW5maWxlLm1hZT4nLCAnLW9tYWUnLCAnPG91dGZpbGUubWFlPic=

> <r_lp_tautomer_probability>
1

> <r_epik_Ionization_Penalty>
0.000422169

> <r_epik_Ionization_Penalty_Charging>
0

> <r_epik_Ionization_Penalty_Neutral>
0.000422169

> <r_epik_State_Penalty>
-0

> <r_epik_Charging_Adjusted_Penalty>
0

> <i_epik_Tot_Q>
0

> <i_epik_Tot_abs_Q>
0

> <r_epik_Metal_State_Penalty>
0.200061

> <b_epik_Metal_Only>
0

> <s_lp_Force_Field>
OPLS_2005

> <r_lp_Energy>
11.3394

> <b_lp_Chiralities_Consistent>
1

> <s_lp_Variant>
AV-unprocessed.smi:672-3

> <Gold.Version>
5.8.1

> <Gold.Id.Protein>
6NUR|6NUR_protein|mol2

> <Gold.PLP.Fitness>
35.8263

> <Gold.PLP.PLP>
-28.4266

> <Gold.PLP.part.hbond>
-4.2234

> <Gold.PLP.part.metal>
0.0000

> <Gold.PLP.part.buried>
0.4387

> <Gold.PLP.part.nonpolar>
-25.3996

> <Gold.PLP.part.repulsive>
0.5618

> <Gold.PLP.ligand.clash>
0.0000

> <Gold.PLP.ligand.torsion>
0.0764

> <Gold.PLP.Chemscore.Hbond>
2.5100

> <Gold.PLP.Chemscore.CHOScore>
0.0000

> <Gold.PLP.Chemscore.Metal>
0.0000

> <Gold.Chemscore.Hbonds>
donor molecule, donor type, donor heavy atom, donor atom, acceptor molecule, acceptor atom, score
      L1  H     7    24       P1  7948  1.00
      L1  H    10    25       P1  7948  0.96
      P1  H  7989  7998       L1     4  0.50

> <Gold.PLP.Chemscore.Internal.Correction>
0.0225

> <Gold.Rescore>
     Score         DG    S(hbond)    S(metal)    S(lipo)     H(rot)  DE(clash)    DE(int)     intcor
     14.30     -15.65       1.95        0.00      61.20       1.37       0.06       1.29       ----

> <Gold.Chemscore.Fitness>
14.3029

> <Gold.Chemscore.DG>
-15.6535

> <Gold.Chemscore.ZeroCoef>
-5.4800

> <Gold.Chemscore.Hbond>
1.9497

> <Gold.Chemscore.Metal>
0.0000

> <Gold.Chemscore.Lipo>
61.2039

> <Gold.Chemscore.Internal_Hbond>
0.0000

> <Gold.Chemscore.DEClash>
0.0579

> <Gold.Chemscore.DEInternal>
1.2927

> <Gold.Chemscore.Rot>
1.3669

> <Gold.Chemscore.Internal.Correction>
   9.000000E+99

> <Gold.Chemscore.Hbonds>
donor molecule, donor type, donor heavy atom, donor atom, acceptor molecule, acceptor atom, score
      L1  H     7    24       P1  7948  0.91
      L1  H    10    25       P1  7948  0.91
      P1  H  7989  7998       L1     4  0.01

> <Gold.Chemscore.Hbond.Weighted>
-6.5119

> <Gold.Chemscore.Metal.Weighted>
-0.0000

> <Gold.Chemscore.Lipo.Weighted>
-7.1609

> <Gold.Chemscore.Internal_Hbond.Weighted>
0.0000

> <Gold.Chemscore.DEClash.Weighted>
0.0579

> <Gold.Chemscore.DEInternal.Weighted>
1.2927

> <Gold.Chemscore.Rot.Weighted>
3.4992

> <Gold.Chemscore.Internal.Correction.Weighted>
   9.000000E+99

> <Gold.Protein.RotatedTorsions>
[ 6907 6896 6895 6894 ] final   21.58 input  -60.11 | X-H torsion
[ 7974 7965 7964 7962 ] final -137.76 input  175.53 | X-H torsion
[ 8008 7997 7996 7995 ] final   65.71 input   59.86 | X-H torsion
[ 10167 10162 10161 10158 ] final   73.24 input  -65.29 | X-H torsion
[ 10718 10713 10712 10709 ] final   45.48 input   66.30 | X-H torsion
[ 10763 10752 10751 10750 ] final   11.99 input  -60.55 | X-H torsion
[ 11005 11000 10999 10996 ] final   28.66 input  -57.11 | X-H torsion

> <Gold.Protein.ActiveResidues>
 VAL166  LYS551  ARG553  GLY616  TRP617  ASP618  TYR619  PRO620  LYS621  CYS622 
 ASP623  PHE694  ASN695  SER759  ASP760  ASP761  ALA762  ILE779  LEU786  VAL792 
 PHE793  MET794  SER795  GLU796  ALA797  LYS798  CYS799  TRP800  GLU811  SER814 

> <Gold.Protein.RotatedAtoms>
  151.9139  135.0327  160.0516 H   0  0  0  0  0  0  0  0  0  0  0  0  # atno 6907 bound_to 6896
  152.2256  133.5013  159.5195 H   0  0  0  0  0  0  0  0  0  0  0  0  # atno 6908 bound_to 6896
  150.7011  134.1201  159.4074 H   0  0  0  0  0  0  0  0  0  0  0  0  # atno 6909 bound_to 6896
  144.8815  140.6514  143.5203 H   0  0  0  0  0  0  0  0  0  0  0  0  # atno 7974 bound_to 7965
  155.6660  140.3497  155.4800 H   0  0  0  0  0  0  0  0  0  0  0  0  # atno 8008 bound_to 7997
  155.9728  140.1159  157.0820 H   0  0  0  0  0  0  0  0  0  0  0  0  # atno 8009 bound_to 7997
  154.4171  140.1153  156.5316 H   0  0  0  0  0  0  0  0  0  0  0  0  # atno 8010 bound_to 7997
  140.0267  144.5498  150.7539 H   0  0  0  0  0  0  0  0  0  0  0  0  # atno 10167 bound_to 10162
  157.4380  130.8064  149.7667 H   0  0  0  0  0  0  0  0  0  0  0  0  # atno 10718 bound_to 10713
  153.1869  135.6836  153.8404 H   0  0  0  0  0  0  0  0  0  0  0  0  # atno 10763 bound_to 10752
  153.7716  135.3195  155.3354 H   0  0  0  0  0  0  0  0  0  0  0  0  # atno 10764 bound_to 10752
  154.8094  135.4727  154.0573 H   0  0  0  0  0  0  0  0  0  0  0  0  # atno 10765 bound_to 10752
  140.3132  134.2626  155.7730 H   0  0  0  0  0  0  0  0  0  0  0  0  # atno 11005 bound_to 11000
  145.3946  139.1609  143.4210 LP  0  0  0  0  0  0  0  0  0  0  0  0  # atno 17320 bound_to 7965
  146.2997  140.4038  142.8708 LP  0  0  0  0  0  0  0  0  0  0  0  0  # atno 17321 bound_to 7965
  140.7320  143.2700  151.3918 LP  0  0  0  0  0  0  0  0  0  0  0  0  # atno 17342 bound_to 10162
  139.6104  144.1111  152.2292 LP  0  0  0  0  0  0  0  0  0  0  0  0  # atno 17343 bound_to 10162
  155.9938  130.3922  150.2886 LP  0  0  0  0  0  0  0  0  0  0  0  0  # atno 17370 bound_to 10713
  157.1048  131.0205  151.3071 LP  0  0  0  0  0  0  0  0  0  0  0  0  # atno 17371 bound_to 10713
  141.2103  133.7722  156.9938 LP  0  0  0  0  0  0  0  0  0  0  0  0  # atno 17394 bound_to 11000
  140.1006  134.9537  157.1917 LP  0  0  0  0  0  0  0  0  0  0  0  0  # atno 17395 bound_to 11000

$$$$
