AV-unprocessed.smi:3311|AV-procd|sdf|12723|dock4
  -GOLD-   2272019 63D 1   1.00000     0.00000
 Structure written by MMmdl.
 43 44  0  0  0  0  0  0  0  0  1 V2000
  145.9883  135.9671  153.3419 C   0  0  0  0  0  0  0  0  0  0  0  0
  145.6123  136.3727  151.9062 C   0  0  2  0  0  0  0  0  0  0  0  0
  145.3351  137.8131  151.9044 N   0  0  0  0  0  0  0  0  0  0  0  0
  146.5184  138.6704  151.7988 C   0  0  0  0  0  0  0  0  0  0  0  0
  146.8780  139.3553  153.1361 C   0  0  0  0  0  0  0  0  0  0  0  0
  145.7315  139.2704  153.9634 O   0  0  0  0  0  0  0  0  0  0  0  0
  148.0872  138.6943  153.8450 C   0  0  0  0  0  0  0  0  0  0  0  0
  148.5348  139.4583  155.1039 C   0  0  0  0  0  0  0  0  0  0  0  0
  148.8284  140.9320  154.7927 C   0  0  0  0  0  0  0  0  0  0  0  0
  147.6122  141.6091  154.1461 C   0  0  0  0  0  0  0  0  0  0  0  0
  147.1585  140.8556  152.8828 C   0  0  0  0  0  0  0  0  0  0  0  0
  144.3971  135.5608  151.3689 C   0  0  2  0  0  0  0  0  0  0  0  0
  143.2649  135.3983  152.4007 C   0  0  0  0  0  0  0  0  0  0  0  0
  144.7902  134.2467  150.8733 N   0  0  0  0  0  0  0  0  0  0  0  0
  144.0040  133.2650  150.3015 C   0  0  0  0  0  0  0  0  0  0  0  0
  144.8143  132.2010  150.0265 C   0  0  0  0  0  0  0  0  0  0  0  0
  146.0951  132.6273  150.4750 C   0  0  0  0  0  0  0  0  0  0  0  0
  146.0782  133.8504  150.9781 N   0  0  0  0  0  0  0  0  0  0  0  0
  146.3446  134.9386  153.3925 H   0  0  0  0  0  0  0  0  0  0  0  0
  145.1391  136.0635  154.0191 H   0  0  0  0  0  0  0  0  0  0  0  0
  146.7917  136.5962  153.7270 H   0  0  0  0  0  0  0  0  0  0  0  0
  146.4817  136.1685  151.2790 H   0  0  0  0  0  0  0  0  0  0  0  0
  144.7094  138.0297  151.1344 H   0  0  0  0  0  0  0  0  0  0  0  0
  147.3619  138.0668  151.4621 H   0  0  0  0  0  0  0  0  0  0  0  0
  146.3773  139.4354  151.0375 H   0  0  0  0  0  0  0  0  0  0  0  0
  145.1088  139.9211  153.6779 H   0  0  0  0  0  0  0  0  0  0  0  0
  147.8569  137.6642  154.1195 H   0  0  0  0  0  0  0  0  0  0  0  0
  148.9251  138.6418  153.1485 H   0  0  0  0  0  0  0  0  0  0  0  0
  147.7610  139.3926  155.8698 H   0  0  0  0  0  0  0  0  0  0  0  0
  149.4221  138.9854  155.5256 H   0  0  0  0  0  0  0  0  0  0  0  0
  149.1051  141.4578  155.7070 H   0  0  0  0  0  0  0  0  0  0  0  0
  149.6865  141.0015  154.1230 H   0  0  0  0  0  0  0  0  0  0  0  0
  146.7932  141.6569  154.8644 H   0  0  0  0  0  0  0  0  0  0  0  0
  147.8561  142.6410  153.8923 H   0  0  0  0  0  0  0  0  0  0  0  0
  147.9385  140.9507  152.1260 H   0  0  0  0  0  0  0  0  0  0  0  0
  146.2749  141.3402  152.4647 H   0  0  0  0  0  0  0  0  0  0  0  0
  143.9755  136.1124  150.5258 H   0  0  0  0  0  0  0  0  0  0  0  0
  142.8010  136.3537  152.6439 H   0  0  0  0  0  0  0  0  0  0  0  0
  143.6291  134.9566  153.3285 H   0  0  0  0  0  0  0  0  0  0  0  0
  142.4741  134.7547  152.0139 H   0  0  0  0  0  0  0  0  0  0  0  0
  142.9442  133.4013  150.1453 H   0  0  0  0  0  0  0  0  0  0  0  0
  144.5341  131.2594  149.5783 H   0  0  0  0  0  0  0  0  0  0  0  0
  147.0306  132.0881  150.4515 H   0  0  0  0  0  0  0  0  0  0  0  0
  1  2  1  0  0  0  0
  1 19  1  0  0  0  0
  1 20  1  0  0  0  0
  1 21  1  0  0  0  0
  2  3  1  0  0  0  0
  2 12  1  0  0  0  0
  2 22  1  0  0  0  0
  3  4  1  0  0  0  0
  3 23  1  0  0  0  0
  4  5  1  0  0  0  0
  4 24  1  0  0  0  0
  4 25  1  0  0  0  0
  5 11  1  0  0  0  0
  5  6  1  0  0  0  0
  5  7  1  0  0  0  0
  6 26  1  0  0  0  0
  7  8  1  0  0  0  0
  7 27  1  0  0  0  0
  7 28  1  0  0  0  0
  8  9  1  0  0  0  0
  8 29  1  0  0  0  0
  8 30  1  0  0  0  0
  9 10  1  0  0  0  0
  9 31  1  0  0  0  0
  9 32  1  0  0  0  0
 10 11  1  0  0  0  0
 10 33  1  0  0  0  0
 10 34  1  0  0  0  0
 11 35  1  0  0  0  0
 11 36  1  0  0  0  0
 12 13  1  0  0  0  0
 12 14  1  0  0  0  0
 12 37  1  0  0  0  0
 13 38  1  0  0  0  0
 13 39  1  0  0  0  0
 13 40  1  0  0  0  0
 14 18  1  0  0  0  0
 14 15  1  0  0  0  0
 15 16  2  0  0  0  0
 15 41  1  0  0  0  0
 16 17  1  0  0  0  0
 16 42  1  0  0  0  0
 17 18  2  0  0  0  0
 17 43  1  0  0  0  0
M  END
> <s_m_source_file>
AV-unprocessed.smi

> <i_m_source_file_index>
3311

> <i_lp_mmshare_version>
43012

> <i_f3d_flags>
0

> <s_epik_input>
bjFbY0hdW2NIXVtjSF1uMVtDQEBIXShbQ0gzXSlbQ0BIXShbQ0gzXSlbTkhdW0NIMl1DMihbT0hdKVtDSDJdW0NIMl1bQ0gyXVtDSDJdW0NIMl0y

> <s_epik_cmdline>
J2VwaWtfcHl0aG9uJywgJy1waCcsICc3LjAnLCAnLXRuJywgJzgnLCAnLW1hJywgJzIwMCcsICctbWV0YWxfYmluZGluZycsICctaW1hZScsICc8aW5maWxlLm1hZT4nLCAnLW9tYWUnLCAnPG91dGZpbGUubWFlPic=

> <r_lp_tautomer_probability>
1

> <r_epik_Ionization_Penalty>
2.222

> <r_epik_Ionization_Penalty_Charging>
0

> <r_epik_Ionization_Penalty_Neutral>
2.222

> <r_epik_State_Penalty>
2.36562

> <r_epik_Charging_Adjusted_Penalty>
2.36562

> <i_epik_Tot_Q>
0

> <i_epik_Tot_abs_Q>
0

> <r_epik_Metal_State_Penalty>
2.36435

> <b_epik_Metal_Only>
0

> <s_lp_Force_Field>
OPLS_2005

> <r_lp_Energy>
30.3398

> <b_lp_Chiralities_Consistent>
1

> <s_lp_Variant>
AV-unprocessed.smi:3311-5

> <Gold.Version>
5.8.1

> <Gold.Id.Protein>
6NUR|6NUR_protein|mol2

> <Gold.PLP.Fitness>
45.5472

> <Gold.PLP.PLP>
-37.3408

> <Gold.PLP.part.hbond>
-2.5843

> <Gold.PLP.part.metal>
0.0000

> <Gold.PLP.part.buried>
-4.8172

> <Gold.PLP.part.nonpolar>
-31.3194

> <Gold.PLP.part.repulsive>
0.1984

> <Gold.PLP.ligand.clash>
0.0000

> <Gold.PLP.ligand.torsion>
1.9340

> <Gold.PLP.Chemscore.Hbond>
2.0000

> <Gold.PLP.Chemscore.CHOScore>
2.0000

> <Gold.PLP.Chemscore.Metal>
0.0000

> <Gold.Chemscore.Hbonds>
donor molecule, donor type, donor heavy atom, donor atom, acceptor molecule, acceptor atom, score
      L1  H     3    23       P1 10171  1.00
      L1  H     6    26       P1 10175  1.00
      L1  C    15    41       P1 10186  1.00
      L1  C    17    43       P1 10747  1.00

> <Gold.PLP.Chemscore.Internal.Correction>
0.0743

> <Gold.Rescore>
     Score         DG    S(hbond)    S(metal)    S(lipo)     H(rot)  DE(clash)    DE(int)     intcor
     15.80     -17.63       1.98        0.00      92.40       2.07       0.01       1.81       ----

> <Gold.Chemscore.Fitness>
15.8005

> <Gold.Chemscore.DG>
-17.6250

> <Gold.Chemscore.ZeroCoef>
-5.4800

> <Gold.Chemscore.Hbond>
1.9849

> <Gold.Chemscore.Metal>
0.0000

> <Gold.Chemscore.Lipo>
92.4017

> <Gold.Chemscore.Internal_Hbond>
0.0000

> <Gold.Chemscore.DEClash>
0.0127

> <Gold.Chemscore.DEInternal>
1.8119

> <Gold.Chemscore.Rot>
2.0686

> <Gold.Chemscore.Internal.Correction>
   9.000000E+99

> <Gold.Chemscore.Hbonds>
donor molecule, donor type, donor heavy atom, donor atom, acceptor molecule, acceptor atom, score
      L1  H     3    23       P1 10171  1.00
      L1  H     6    26       P1 10175  0.93

> <Gold.Chemscore.Hbond.Weighted>
-6.6297

> <Gold.Chemscore.Metal.Weighted>
-0.0000

> <Gold.Chemscore.Lipo.Weighted>
-10.8110

> <Gold.Chemscore.Internal_Hbond.Weighted>
0.0000

> <Gold.Chemscore.DEClash.Weighted>
0.0127

> <Gold.Chemscore.DEInternal.Weighted>
1.8119

> <Gold.Chemscore.Rot.Weighted>
5.2957

> <Gold.Chemscore.Internal.Correction.Weighted>
   9.000000E+99

> <Gold.Protein.RotatedTorsions>
[ 6907 6896 6895 6894 ] final   78.97 input  -60.11 | X-H torsion
[ 7974 7965 7964 7962 ] final  -42.04 input  175.53 | X-H torsion
[ 8008 7997 7996 7995 ] final  108.39 input   59.86 | X-H torsion
[ 10167 10162 10161 10158 ] final -135.99 input  -65.29 | X-H torsion
[ 10718 10713 10712 10709 ] final   48.31 input   66.30 | X-H torsion
[ 10763 10752 10751 10750 ] final  162.81 input  -60.55 | X-H torsion
[ 11005 11000 10999 10996 ] final   80.74 input  -57.11 | X-H torsion

> <Gold.Protein.ActiveResidues>
 VAL166  LYS551  ARG553  GLY616  TRP617  ASP618  TYR619  PRO620  LYS621  CYS622 
 ASP623  PHE694  ASN695  SER759  ASP760  ASP761  ALA762  ILE779  LEU786  VAL792 
 PHE793  MET794  SER795  GLU796  ALA797  LYS798  CYS799  TRP800  GLU811  SER814 

> <Gold.Protein.RotatedAtoms>
  152.5180  134.3582  159.9275 H   0  0  0  0  0  0  0  0  0  0  0  0  # atno 6907 bound_to 6896
  151.3534  133.3910  159.2690 H   0  0  0  0  0  0  0  0  0  0  0  0  # atno 6908 bound_to 6896
  150.9709  134.9100  159.7845 H   0  0  0  0  0  0  0  0  0  0  0  0  # atno 6909 bound_to 6896
  146.0153  140.6915  142.9204 H   0  0  0  0  0  0  0  0  0  0  0  0  # atno 7974 bound_to 7965
  156.1899  140.3077  155.9311 H   0  0  0  0  0  0  0  0  0  0  0  0  # atno 8008 bound_to 7997
  155.3197  140.0455  157.3056 H   0  0  0  0  0  0  0  0  0  0  0  0  # atno 8009 bound_to 7997
  154.5440  140.2270  155.8604 H   0  0  0  0  0  0  0  0  0  0  0  0  # atno 8010 bound_to 7997
  139.8723  143.6942  152.2638 H   0  0  0  0  0  0  0  0  0  0  0  0  # atno 10167 bound_to 10162
  157.4673  130.8233  149.7950 H   0  0  0  0  0  0  0  0  0  0  0  0  # atno 10718 bound_to 10713
  154.2840  135.2762  155.2684 H   0  0  0  0  0  0  0  0  0  0  0  0  # atno 10763 bound_to 10752
  154.5193  135.5761  153.6671 H   0  0  0  0  0  0  0  0  0  0  0  0  # atno 10764 bound_to 10752
  152.9924  135.6200  154.3001 H   0  0  0  0  0  0  0  0  0  0  0  0  # atno 10765 bound_to 10752
  139.9123  134.7943  156.1949 H   0  0  0  0  0  0  0  0  0  0  0  0  # atno 11005 bound_to 11000
  144.6968  140.3471  143.7188 LP  0  0  0  0  0  0  0  0  0  0  0  0  # atno 17320 bound_to 7965
  145.7278  139.1727  143.2448 LP  0  0  0  0  0  0  0  0  0  0  0  0  # atno 17321 bound_to 7965
  139.7272  144.7590  151.0859 LP  0  0  0  0  0  0  0  0  0  0  0  0  # atno 17342 bound_to 10162
  140.7758  143.5133  150.9626 LP  0  0  0  0  0  0  0  0  0  0  0  0  # atno 17343 bound_to 10162
  156.0056  130.3857  150.2442 LP  0  0  0  0  0  0  0  0  0  0  0  0  # atno 17370 bound_to 10713
  157.0623  131.0093  151.3218 LP  0  0  0  0  0  0  0  0  0  0  0  0  # atno 17371 bound_to 10713
  141.0561  133.6865  156.1862 LP  0  0  0  0  0  0  0  0  0  0  0  0  # atno 17394 bound_to 11000
  140.6735  134.4842  157.5588 LP  0  0  0  0  0  0  0  0  0  0  0  0  # atno 17395 bound_to 11000

$$$$
