AV-unprocessed.smi:2209|AV-procd|sdf|8947|dock5
  -GOLD-   2272012163D 1   1.00000     0.00000
 Structure written by MMmdl.
 26 27  0  0  0  0  0  0  0  0  2 V2000
  154.0136  138.4588  154.4369 C   0  0  0  0  0  0  0  0  0  0  0  0
  152.5263  138.4715  154.5393 C   0  0  0  0  0  0  0  0  0  0  0  0
  151.8191  137.3499  154.4787 N   0  0  0  0  0  0  0  0  0  0  0  0
  150.4954  137.7938  154.6107 O   0  0  0  0  0  0  0  0  0  0  0  0
  150.5673  139.1409  154.7353 C   0  0  0  0  0  0  0  0  0  0  0  0
  149.3009  139.9216  154.8992 C   0  0  2  0  0  0  0  0  0  0  0  0
  148.2920  139.6319  153.7718 C   0  0  0  0  0  0  0  0  0  0  0  0
  147.0131  140.4610  153.9672 C   0  0  0  0  0  0  0  0  0  0  0  0
  147.3421  141.9572  154.1003 C   0  0  0  0  0  0  0  0  0  0  0  0
  148.3031  142.1849  155.2015 N   0  3  0  0  0  0  0  0  0  0  0  0
  149.5677  141.4349  155.0315 C   0  0  0  0  0  0  0  0  0  0  0  0
  151.8100  139.6179  154.7012 N   0  0  0  0  0  0  0  0  0  0  0  0
  154.3885  137.4429  154.3075 H   0  0  0  0  0  0  0  0  0  0  0  0
  154.4567  138.8766  155.3411 H   0  0  0  0  0  0  0  0  0  0  0  0
  154.3370  139.0560  153.5842 H   0  0  0  0  0  0  0  0  0  0  0  0
  148.8455  139.5899  155.8340 H   0  0  0  0  0  0  0  0  0  0  0  0
  148.7355  139.8725  152.8046 H   0  0  0  0  0  0  0  0  0  0  0  0
  148.0471  138.5694  153.7466 H   0  0  0  0  0  0  0  0  0  0  0  0
  146.3334  140.3009  153.1296 H   0  0  0  0  0  0  0  0  0  0  0  0
  146.4883  140.1207  154.8609 H   0  0  0  0  0  0  0  0  0  0  0  0
  147.7636  142.3383  153.1690 H   0  0  0  0  0  0  0  0  0  0  0  0
  146.4342  142.5280  154.2967 H   0  0  0  0  0  0  0  0  0  0  0  0
  148.5120  143.1717  155.2551 H   0  0  0  0  0  0  0  0  0  0  0  0
  150.2123  141.6342  155.8882 H   0  0  0  0  0  0  0  0  0  0  0  0
  150.0865  141.8111  154.1485 H   0  0  0  0  0  0  0  0  0  0  0  0
  147.8712  141.8965  156.0680 H   0  0  0  0  0  0  0  0  0  0  0  0
  1  2  1  0  0  0  0
  1 13  1  0  0  0  0
  1 14  1  0  0  0  0
  1 15  1  0  0  0  0
  2 12  1  0  0  0  0
  2  3  2  0  0  0  0
  3  4  1  0  0  0  0
  4  5  1  0  0  0  0
  5  6  1  0  0  0  0
  5 12  2  0  0  0  0
  6 11  1  0  0  0  0
  6  7  1  0  0  0  0
  6 16  1  0  0  0  0
  7  8  1  0  0  0  0
  7 17  1  0  0  0  0
  7 18  1  0  0  0  0
  8  9  1  0  0  0  0
  8 19  1  0  0  0  0
  8 20  1  0  0  0  0
  9 10  1  0  0  0  0
  9 21  1  0  0  0  0
  9 22  1  0  0  0  0
 10 11  1  0  0  0  0
 10 23  1  0  0  0  0
 10 26  1  0  0  0  0
 11 24  1  0  0  0  0
 11 25  1  0  0  0  0
M  CHG  1  10   1
M  END
> <s_m_source_file>
AV-unprocessed.smi

> <i_m_source_file_index>
2209

> <i_lp_mmshare_version>
43012

> <i_f3d_flags>
0

> <s_epik_input>
W0NIM11jMW5vYyhuMSlbQ0BASF0yW0NIMl1bQ0gyXVtDSDJdW05IXVtDSDJdMg==

> <s_epik_cmdline>
J2VwaWtfcHl0aG9uJywgJy1waCcsICc3LjAnLCAnLXRuJywgJzgnLCAnLW1hJywgJzIwMCcsICctbWV0YWxfYmluZGluZycsICctaW1hZScsICc8aW5maWxlLm1hZT4nLCAnLW9tYWUnLCAnPG91dGZpbGUubWFlPic=

> <r_lp_tautomer_probability>
1

> <r_epik_Ionization_Penalty>
0.000532935

> <r_epik_Ionization_Penalty_Charging>
0.000532935

> <r_epik_Ionization_Penalty_Neutral>
4.97553e-13

> <r_epik_State_Penalty>
0.000332992

> <r_epik_Charging_Adjusted_Penalty>
0.000865928

> <i_epik_Tot_Q>
1

> <i_epik_Tot_abs_Q>
1

> <r_epik_Metal_State_Penalty>
-0

> <b_epik_Metal_Only>
0

> <s_lp_Force_Field>
OPLS_2005

> <r_lp_Energy>
10.4199

> <b_lp_Chiralities_Consistent>
1

> <s_lp_Variant>
AV-unprocessed.smi:2209-1

> <Gold.Version>
5.8.1

> <Gold.Id.Protein>
6NUR|6NUR_protein|mol2

> <Gold.PLP.Fitness>
35.1162

> <Gold.PLP.PLP>
-23.1497

> <Gold.PLP.part.hbond>
-3.0000

> <Gold.PLP.part.metal>
0.0000

> <Gold.PLP.part.buried>
-1.3005

> <Gold.PLP.part.nonpolar>
-19.7923

> <Gold.PLP.part.repulsive>
0.5494

> <Gold.PLP.ligand.clash>
0.0000

> <Gold.PLP.ligand.torsion>
0.0335

> <Gold.PLP.Chemscore.Hbond>
4.0000

> <Gold.PLP.Chemscore.CHOScore>
0.0000

> <Gold.PLP.Chemscore.Metal>
0.0000

> <Gold.Chemscore.Hbonds>
donor molecule, donor type, donor heavy atom, donor atom, acceptor molecule, acceptor atom, score
      L1  H    10    23       P1  8028  2.00
      P1  H  7989  7998       L1    12  1.00
      P1  H 10752 10765       L1     3  1.00

> <Gold.PLP.Chemscore.Internal.Correction>
0.0335

> <Gold.Rescore>
     Score         DG    S(hbond)    S(metal)    S(lipo)     H(rot)  DE(clash)    DE(int)     intcor
     15.93     -16.04       2.55        0.00      39.32       1.00       0.09       0.02       ----

> <Gold.Chemscore.Fitness>
15.9270

> <Gold.Chemscore.DG>
-16.0355

> <Gold.Chemscore.ZeroCoef>
-5.4800

> <Gold.Chemscore.Hbond>
2.5494

> <Gold.Chemscore.Metal>
0.0000

> <Gold.Chemscore.Lipo>
39.3200

> <Gold.Chemscore.Internal_Hbond>
0.0000

> <Gold.Chemscore.DEClash>
0.0914

> <Gold.Chemscore.DEInternal>
0.0172

> <Gold.Chemscore.Rot>
1.0000

> <Gold.Chemscore.Internal.Correction>
   9.000000E+99

> <Gold.Chemscore.Hbonds>
donor molecule, donor type, donor heavy atom, donor atom, acceptor molecule, acceptor atom, score
      L1  H    10    23       P1  8028  0.99
      P1  H  7989  7998       L1    12  0.28
      P1  H 10752 10765       L1     3  0.78

> <Gold.Chemscore.Hbond.Weighted>
-8.5150

> <Gold.Chemscore.Metal.Weighted>
-0.0000

> <Gold.Chemscore.Lipo.Weighted>
-4.6004

> <Gold.Chemscore.Internal_Hbond.Weighted>
0.0000

> <Gold.Chemscore.DEClash.Weighted>
0.0914

> <Gold.Chemscore.DEInternal.Weighted>
0.0172

> <Gold.Chemscore.Rot.Weighted>
2.5600

> <Gold.Chemscore.Internal.Correction.Weighted>
   9.000000E+99

> <Gold.Protein.RotatedTorsions>
[ 6907 6896 6895 6894 ] final -136.39 input  -60.11 | X-H torsion
[ 7974 7965 7964 7962 ] final  111.17 input  175.53 | X-H torsion
[ 8008 7997 7996 7995 ] final   37.63 input   59.86 | X-H torsion
[ 10167 10162 10161 10158 ] final   76.01 input  -65.29 | X-H torsion
[ 10718 10713 10712 10709 ] final   30.52 input   66.30 | X-H torsion
[ 10763 10752 10751 10750 ] final  161.25 input  -60.55 | X-H torsion
[ 11005 11000 10999 10996 ] final   85.64 input  -57.11 | X-H torsion

> <Gold.Protein.ActiveResidues>
 VAL166  LYS551  ARG553  GLY616  TRP617  ASP618  TYR619  PRO620  LYS621  CYS622 
 ASP623  PHE694  ASN695  SER759  ASP760  ASP761  ALA762  ILE779  LEU786  VAL792 
 PHE793  MET794  SER795  GLU796  ALA797  LYS798  CYS799  TRP800  GLU811  SER814 

> <Gold.Protein.RotatedAtoms>
  151.0095  133.5978  159.2684 H   0  0  0  0  0  0  0  0  0  0  0  0  # atno 6907 bound_to 6896
  151.3135  135.0799  159.9290 H   0  0  0  0  0  0  0  0  0  0  0  0  # atno 6908 bound_to 6896
  152.5296  133.9756  159.7836 H   0  0  0  0  0  0  0  0  0  0  0  0  # atno 6909 bound_to 6896
  145.2456  139.2760  143.4094 H   0  0  0  0  0  0  0  0  0  0  0  0  # atno 7974 bound_to 7965
  155.2070  140.3320  155.4334 H   0  0  0  0  0  0  0  0  0  0  0  0  # atno 8008 bound_to 7997
  156.2385  140.1884  156.7102 H   0  0  0  0  0  0  0  0  0  0  0  0  # atno 8009 bound_to 7997
  154.6103  140.0610  156.9471 H   0  0  0  0  0  0  0  0  0  0  0  0  # atno 8010 bound_to 7997
  139.9968  144.5716  150.7771 H   0  0  0  0  0  0  0  0  0  0  0  0  # atno 10167 bound_to 10162
  157.2606  130.7159  149.6452 H   0  0  0  0  0  0  0  0  0  0  0  0  # atno 10718 bound_to 10713
  154.2601  135.2769  155.2781 H   0  0  0  0  0  0  0  0  0  0  0  0  # atno 10763 bound_to 10752
  154.5391  135.5707  153.6827 H   0  0  0  0  0  0  0  0  0  0  0  0  # atno 10764 bound_to 10752
  152.9964  135.6246  154.2751 H   0  0  0  0  0  0  0  0  0  0  0  0  # atno 10765 bound_to 10752
  139.8966  134.8300  156.2610 H   0  0  0  0  0  0  0  0  0  0  0  0  # atno 11005 bound_to 11000
  146.3316  140.2832  142.8611 LP  0  0  0  0  0  0  0  0  0  0  0  0  # atno 17320 bound_to 7965
  144.9549  140.8216  143.5549 LP  0  0  0  0  0  0  0  0  0  0  0  0  # atno 17321 bound_to 7965
  140.7434  143.2845  151.3502 LP  0  0  0  0  0  0  0  0  0  0  0  0  # atno 17342 bound_to 10162
  139.6300  144.0739  152.2468 LP  0  0  0  0  0  0  0  0  0  0  0  0  # atno 17343 bound_to 10162
  155.9664  130.4398  150.5276 LP  0  0  0  0  0  0  0  0  0  0  0  0  # atno 17370 bound_to 10713
  157.3179  131.0676  151.1953 LP  0  0  0  0  0  0  0  0  0  0  0  0  # atno 17371 bound_to 10713
  141.0162  133.7067  156.1193 LP  0  0  0  0  0  0  0  0  0  0  0  0  # atno 17394 bound_to 11000
  140.7298  134.4267  157.5567 LP  0  0  0  0  0  0  0  0  0  0  0  0  # atno 17395 bound_to 11000

$$$$
