AV-unprocessed.smi:3295|AV-procd|sdf|12635|dock1
  -GOLD-   2272018573D 1   1.00000     0.00000
 Structure written by MMmdl.
 37 38  0  0  0  0  0  0  0  0  1 V2000
  151.2541  137.5325  154.3382 C   0  0  0  0  0  0  0  0  0  0  0  0
  150.5711  138.8628  154.6038 C   0  0  0  0  0  0  0  0  0  0  0  0
  151.3273  139.9611  155.0668 C   0  0  0  0  0  0  0  0  0  0  0  0
  150.8000  141.1758  155.3225 N   0  0  0  0  0  0  0  0  0  0  0  0
  149.4776  141.3421  155.1168 C   0  0  0  0  0  0  0  0  0  0  0  0
  148.6285  140.3162  154.6579 C   0  0  0  0  0  0  0  0  0  0  0  0
  149.1795  139.0365  154.4040 C   0  0  0  0  0  0  0  0  0  0  0  0
  148.4162  137.9347  153.9221 N   0  0  0  0  0  0  0  0  0  0  0  0
  147.1518  137.5863  154.2187 C   0  0  0  0  0  0  0  0  0  0  0  0
  146.4065  138.1891  154.9905 O   0  0  0  0  0  0  0  0  0  0  0  0
  146.7978  136.4673  153.5712 N   0  0  0  0  0  0  0  0  0  0  0  0
  145.4896  135.8231  153.6527 C   0  0  0  0  0  0  0  0  0  0  0  0
  144.5885  136.1158  152.4252 C   0  0  0  0  0  0  0  0  0  0  0  0
  144.3121  137.5025  152.3948 O   0  0  0  0  0  0  0  0  0  0  0  0
  145.1514  135.6277  151.0804 C   0  0  0  0  0  0  0  0  0  0  0  0
  144.7892  134.1404  151.0213 C   0  0  0  0  0  0  0  0  0  0  0  0
  143.5298  133.9773  151.8866 C   0  0  0  0  0  0  0  0  0  0  0  0
  143.2611  135.3496  152.5212 C   0  0  0  0  0  0  0  0  0  0  0  0
  152.3204  137.5833  154.5598 H   0  0  0  0  0  0  0  0  0  0  0  0
  151.1407  137.2483  153.2917 H   0  0  0  0  0  0  0  0  0  0  0  0
  150.8176  136.7496  154.9590 H   0  0  0  0  0  0  0  0  0  0  0  0
  152.3897  139.8652  155.2370 H   0  0  0  0  0  0  0  0  0  0  0  0
  149.0833  142.3271  155.3185 H   0  0  0  0  0  0  0  0  0  0  0  0
  147.5843  140.5363  154.4997 H   0  0  0  0  0  0  0  0  0  0  0  0
  148.9193  137.2941  153.3263 H   0  0  0  0  0  0  0  0  0  0  0  0
  147.4770  136.0350  152.9627 H   0  0  0  0  0  0  0  0  0  0  0  0
  145.6853  134.7524  153.7155 H   0  0  0  0  0  0  0  0  0  0  0  0
  144.9774  136.0817  154.5814 H   0  0  0  0  0  0  0  0  0  0  0  0
  144.3448  137.7968  151.4975 H   0  0  0  0  0  0  0  0  0  0  0  0
  144.6427  136.1413  150.2629 H   0  0  0  0  0  0  0  0  0  0  0  0
  146.2183  135.8079  150.9485 H   0  0  0  0  0  0  0  0  0  0  0  0
  144.6323  133.8025  149.9966 H   0  0  0  0  0  0  0  0  0  0  0  0
  145.6011  133.5450  151.4406 H   0  0  0  0  0  0  0  0  0  0  0  0
  142.6747  133.6455  151.2967 H   0  0  0  0  0  0  0  0  0  0  0  0
  143.7032  133.2263  152.6581 H   0  0  0  0  0  0  0  0  0  0  0  0
  142.8854  135.2739  153.5424 H   0  0  0  0  0  0  0  0  0  0  0  0
  142.4934  135.8570  151.9343 H   0  0  0  0  0  0  0  0  0  0  0  0
  1  2  1  0  0  0  0
  1 19  1  0  0  0  0
  1 20  1  0  0  0  0
  1 21  1  0  0  0  0
  2  7  1  0  0  0  0
  2  3  2  0  0  0  0
  3  4  1  0  0  0  0
  3 22  1  0  0  0  0
  4  5  2  0  0  0  0
  5  6  1  0  0  0  0
  5 23  1  0  0  0  0
  6  7  2  0  0  0  0
  6 24  1  0  0  0  0
  7  8  1  0  0  0  0
  8  9  1  0  0  0  0
  8 25  1  0  0  0  0
  9 10  2  0  0  0  0
  9 11  1  0  0  0  0
 11 12  1  0  0  0  0
 11 26  1  0  0  0  0
 12 13  1  0  0  0  0
 12 27  1  0  0  0  0
 12 28  1  0  0  0  0
 13 18  1  0  0  0  0
 13 14  1  0  0  0  0
 13 15  1  0  0  0  0
 14 29  1  0  0  0  0
 15 16  1  0  0  0  0
 15 30  1  0  0  0  0
 15 31  1  0  0  0  0
 16 17  1  0  0  0  0
 16 32  1  0  0  0  0
 16 33  1  0  0  0  0
 17 18  1  0  0  0  0
 17 34  1  0  0  0  0
 17 35  1  0  0  0  0
 18 36  1  0  0  0  0
 18 37  1  0  0  0  0
M  END
> <s_m_source_file>
AV-unprocessed.smi

> <i_m_source_file_index>
3295

> <i_lp_mmshare_version>
43012

> <i_f3d_flags>
0

> <s_epik_input>
W0NIM11jMVtjSF1uW2NIXVtjSF1jMVtOSF1DKD1PKVtOSF1bQ0gyXUMyKFtPSF0pW0NIMl1bQ0gyXVtDSDJdW0NIMl0y

> <s_epik_cmdline>
J2VwaWtfcHl0aG9uJywgJy1waCcsICc3LjAnLCAnLXRuJywgJzgnLCAnLW1hJywgJzIwMCcsICctbWV0YWxfYmluZGluZycsICctaW1hZScsICc8aW5maWxlLm1hZT4nLCAnLW9tYWUnLCAnPG91dGZpbGUubWFlPic=

> <r_epik_Ionization_Penalty>
0.224243

> <r_epik_Ionization_Penalty_Charging>
0

> <r_epik_Ionization_Penalty_Neutral>
0.224243

> <r_epik_State_Penalty>
0.214648

> <r_epik_Charging_Adjusted_Penalty>
0.214648

> <i_epik_Tot_Q>
0

> <i_epik_Tot_abs_Q>
0

> <r_epik_Metal_State_Penalty>
0.155078

> <b_epik_Metal_Only>
0

> <s_lp_Force_Field>
OPLS_2005

> <r_lp_Energy>
30.8814

> <b_lp_Chiralities_Consistent>
1

> <s_lp_Variant>
AV-unprocessed.smi:3295-1

> <Gold.Version>
5.8.1

> <Gold.Id.Protein>
6NUR|6NUR_protein|mol2

> <Gold.PLP.Fitness>
43.2816

> <Gold.PLP.PLP>
-32.1449

> <Gold.PLP.part.hbond>
-5.0000

> <Gold.PLP.part.metal>
0.0000

> <Gold.PLP.part.buried>
-1.2113

> <Gold.PLP.part.nonpolar>
-26.2024

> <Gold.PLP.part.repulsive>
0.1483

> <Gold.PLP.ligand.clash>
0.0000

> <Gold.PLP.ligand.torsion>
0.3916

> <Gold.PLP.Chemscore.Hbond>
2.9680

> <Gold.PLP.Chemscore.CHOScore>
1.0000

> <Gold.PLP.Chemscore.Metal>
0.0000

> <Gold.Chemscore.Hbonds>
donor molecule, donor type, donor heavy atom, donor atom, acceptor molecule, acceptor atom, score
      L1  H     8    25       P1  7948  1.00
      L1  H    11    26       P1  7948  0.98
      L1  H    14    29       P1 10171  1.00
      L1  C     5    23       P1  8028  1.00

> <Gold.PLP.Chemscore.Internal.Correction>
0.0159

> <Gold.Rescore>
     Score         DG    S(hbond)    S(metal)    S(lipo)     H(rot)  DE(clash)    DE(int)     intcor
     18.55     -19.28       2.96        0.00      70.80       1.71       0.27       0.46       ----

> <Gold.Chemscore.Fitness>
18.5535

> <Gold.Chemscore.DG>
-19.2849

> <Gold.Chemscore.ZeroCoef>
-5.4800

> <Gold.Chemscore.Hbond>
2.9639

> <Gold.Chemscore.Metal>
0.0000

> <Gold.Chemscore.Lipo>
70.8036

> <Gold.Chemscore.Internal_Hbond>
0.0000

> <Gold.Chemscore.DEClash>
0.2715

> <Gold.Chemscore.DEInternal>
0.4599

> <Gold.Chemscore.Rot>
1.7103

> <Gold.Chemscore.Internal.Correction>
   9.000000E+99

> <Gold.Chemscore.Hbonds>
donor molecule, donor type, donor heavy atom, donor atom, acceptor molecule, acceptor atom, score
      L1  H     8    25       P1  7948  0.94
      L1  H    11    26       P1  7948  0.93
      L1  H    14    29       P1 10171  0.99

> <Gold.Chemscore.Hbond.Weighted>
-9.8993

> <Gold.Chemscore.Metal.Weighted>
-0.0000

> <Gold.Chemscore.Lipo.Weighted>
-8.2840

> <Gold.Chemscore.Internal_Hbond.Weighted>
0.0000

> <Gold.Chemscore.DEClash.Weighted>
0.2715

> <Gold.Chemscore.DEInternal.Weighted>
0.4599

> <Gold.Chemscore.Rot.Weighted>
4.3785

> <Gold.Chemscore.Internal.Correction.Weighted>
   9.000000E+99

> <Gold.Protein.RotatedTorsions>
[ 6907 6896 6895 6894 ] final  151.55 input  -60.11 | X-H torsion
[ 7974 7965 7964 7962 ] final  132.69 input  175.53 | X-H torsion
[ 8008 7997 7996 7995 ] final -112.29 input   59.86 | X-H torsion
[ 10167 10162 10161 10158 ] final  -91.97 input  -65.29 | X-H torsion
[ 10718 10713 10712 10709 ] final   99.91 input   66.30 | X-H torsion
[ 10763 10752 10751 10750 ] final  138.35 input  -60.55 | X-H torsion
[ 11005 11000 10999 10996 ] final  124.95 input  -57.11 | X-H torsion

> <Gold.Protein.ActiveResidues>
 VAL166  LYS551  ARG553  GLY616  TRP617  ASP618  TYR619  PRO620  LYS621  CYS622 
 ASP623  PHE694  ASN695  SER759  ASP760  ASP761  ALA762  ILE779  LEU786  VAL792 
 PHE793  MET794  SER795  GLU796  ALA797  LYS798  CYS799  TRP800  GLU811  SER814 

> <Gold.Protein.RotatedAtoms>
  152.0991  133.4240  159.4578 H   0  0  0  0  0  0  0  0  0  0  0  0  # atno 6907 bound_to 6896
  150.6863  134.2782  159.4625 H   0  0  0  0  0  0  0  0  0  0  0  0  # atno 6908 bound_to 6896
  152.0641  134.9575  160.0625 H   0  0  0  0  0  0  0  0  0  0  0  0  # atno 6909 bound_to 6896
  144.9942  139.4376  143.5324 H   0  0  0  0  0  0  0  0  0  0  0  0  # atno 7974 bound_to 7965
  155.0030  140.0394  157.2368 H   0  0  0  0  0  0  0  0  0  0  0  0  # atno 8008 bound_to 7997
  154.7527  140.2770  155.6256 H   0  0  0  0  0  0  0  0  0  0  0  0  # atno 8009 bound_to 7997
  156.2888  140.2644  156.2285 H   0  0  0  0  0  0  0  0  0  0  0  0  # atno 8010 bound_to 7997
  140.3395  143.2950  151.9851 H   0  0  0  0  0  0  0  0  0  0  0  0  # atno 10167 bound_to 10162
  157.6866  131.0683  150.5020 H   0  0  0  0  0  0  0  0  0  0  0  0  # atno 10718 bound_to 10713
  153.8882  135.3036  155.3447 H   0  0  0  0  0  0  0  0  0  0  0  0  # atno 10763 bound_to 10752
  154.7729  135.4876  153.9688 H   0  0  0  0  0  0  0  0  0  0  0  0  # atno 10764 bound_to 10752
  153.1313  135.6804  153.9273 H   0  0  0  0  0  0  0  0  0  0  0  0  # atno 10765 bound_to 10752
  139.9383  134.9638  156.8485 H   0  0  0  0  0  0  0  0  0  0  0  0  # atno 11005 bound_to 11000
  146.3438  139.9292  142.8756 LP  0  0  0  0  0  0  0  0  0  0  0  0  # atno 17320 bound_to 7965
  145.2243  140.9947  143.4028 LP  0  0  0  0  0  0  0  0  0  0  0  0  # atno 17321 bound_to 7965
  139.4843  144.6168  151.7330 LP  0  0  0  0  0  0  0  0  0  0  0  0  # atno 17342 bound_to 10162
  140.5322  144.0712  150.6057 LP  0  0  0  0  0  0  0  0  0  0  0  0  # atno 17343 bound_to 10162
  156.5341  130.4192  149.6187 LP  0  0  0  0  0  0  0  0  0  0  0  0  # atno 17370 bound_to 10713
  156.3043  130.7194  151.2073 LP  0  0  0  0  0  0  0  0  0  0  0  0  # atno 17371 bound_to 10713
  140.6018  134.0165  155.7540 LP  0  0  0  0  0  0  0  0  0  0  0  0  # atno 17394 bound_to 11000
  141.1006  133.9773  157.3084 LP  0  0  0  0  0  0  0  0  0  0  0  0  # atno 17395 bound_to 11000

$$$$
