AV-unprocessed.smi:148|AV-procd|sdf|1220|dock7
  -GOLD-   2262018413D 1   1.00000     0.00000
 Structure written by MMmdl.
 63 67  0  0  0  0  0  0  0  0  1 V2000
  147.0485  135.1350  153.5973 O   0  0  0  0  0  0  0  0  0  0  0  0
  146.2663  134.5138  152.5986 C   0  0  0  0  0  0  0  0  0  0  0  0
  145.5462  133.2571  153.1452 C   0  0  2  0  0  0  0  0  0  0  0  0
  146.4500  132.4539  154.1171 C   0  0  0  0  0  0  0  0  0  0  0  0
  146.4400  132.9842  155.4690 N   0  0  0  0  0  0  0  0  0  0  0  0
  145.3354  133.4009  156.1773 C   0  0  0  0  0  0  0  0  0  0  0  0
  145.5787  133.8335  157.3845 N   0  0  0  0  0  0  0  0  0  0  0  0
  146.9555  133.7053  157.5157 C   0  0  0  0  0  0  0  0  0  0  0  0
  147.8772  133.9933  158.5565 C   0  0  0  0  0  0  0  0  0  0  0  0
  147.4733  134.4862  159.7520 N   0  0  0  0  0  0  0  0  0  0  0  0
  147.2012  133.3629  160.6517 C   0  0  0  0  0  0  0  0  0  0  0  0
  146.5377  133.8219  161.9552 C   0  0  0  0  0  0  0  0  0  0  0  0
  147.3910  134.8981  162.6306 C   0  0  0  0  0  0  0  0  0  0  0  0
  147.6020  136.0653  161.6595 C   0  0  0  0  0  0  0  0  0  0  0  0
  148.2508  135.6025  160.3271 C   0  0  2  0  0  0  0  0  0  0  0  0
  148.4789  136.7824  159.3241 C   0  0  2  0  0  0  0  0  0  0  0  0
  147.2045  137.2815  158.6161 C   0  0  0  0  0  0  0  0  0  0  0  0
  147.6512  137.8492  157.2586 C   0  0  0  0  0  0  0  0  0  0  0  0
  149.1745  137.7005  157.2108 C   0  0  0  0  0  0  0  0  0  0  0  0
  149.4787  136.5557  158.1762 C   0  0  1  0  0  0  0  0  0  0  0  0
  150.8251  136.6004  158.6001 O   0  0  0  0  0  0  0  0  0  0  0  0
  149.1905  133.7174  158.3348 N   0  0  0  0  0  0  0  0  0  0  0  0
  149.5784  133.2145  157.1588 C   0  0  0  0  0  0  0  0  0  0  0  0
  148.8329  132.9074  156.0947 N   0  0  0  0  0  0  0  0  0  0  0  0
  147.5135  133.1688  156.3226 C   0  0  0  0  0  0  0  0  0  0  0  0
  144.9505  132.3947  151.9966 C   0  0  1  0  0  0  0  0  0  0  0  0
  143.6387  132.8783  151.3782 C   0  0  0  0  0  0  0  0  0  0  0  0
  143.8046  132.5973  149.8818 C   0  0  0  0  0  0  0  0  0  0  0  0
  144.9340  131.7414  149.7900 O   0  0  0  0  0  0  0  0  0  0  0  0
  145.8536  132.1658  150.7813 C   0  0  0  0  0  0  0  0  0  0  0  0
  147.4443  135.9105  153.2299 H   0  0  0  0  0  0  0  0  0  0  0  0
  145.5481  135.2322  152.2025 H   0  0  0  0  0  0  0  0  0  0  0  0
  146.9421  134.2594  151.7830 H   0  0  0  0  0  0  0  0  0  0  0  0
  144.6987  133.6124  153.7337 H   0  0  0  0  0  0  0  0  0  0  0  0
  146.1328  131.4149  154.1840 H   0  0  0  0  0  0  0  0  0  0  0  0
  147.4815  132.4365  153.7667 H   0  0  0  0  0  0  0  0  0  0  0  0
  144.3363  133.3729  155.7668 H   0  0  0  0  0  0  0  0  0  0  0  0
  146.5542  132.6349  160.1599 H   0  0  0  0  0  0  0  0  0  0  0  0
  148.1378  132.8508  160.8780 H   0  0  0  0  0  0  0  0  0  0  0  0
  145.5427  134.2159  161.7434 H   0  0  0  0  0  0  0  0  0  0  0  0
  146.4017  132.9727  162.6253 H   0  0  0  0  0  0  0  0  0  0  0  0
  146.9033  135.2481  163.5406 H   0  0  0  0  0  0  0  0  0  0  0  0
  148.3540  134.4812  162.9284 H   0  0  0  0  0  0  0  0  0  0  0  0
  146.6304  136.5208  161.4713 H   0  0  0  0  0  0  0  0  0  0  0  0
  148.2083  136.8241  162.1511 H   0  0  0  0  0  0  0  0  0  0  0  0
  149.2334  135.1979  160.5751 H   0  0  0  0  0  0  0  0  0  0  0  0
  148.8346  137.6540  159.8735 H   0  0  0  0  0  0  0  0  0  0  0  0
  146.4845  136.4822  158.4489 H   0  0  0  0  0  0  0  0  0  0  0  0
  146.6980  138.0370  159.2178 H   0  0  0  0  0  0  0  0  0  0  0  0
  147.1962  137.2720  156.4526 H   0  0  0  0  0  0  0  0  0  0  0  0
  147.3463  138.8877  157.1276 H   0  0  0  0  0  0  0  0  0  0  0  0
  149.5473  137.5121  156.2035 H   0  0  0  0  0  0  0  0  0  0  0  0
  149.6360  138.6231  157.5672 H   0  0  0  0  0  0  0  0  0  0  0  0
  149.2928  135.6129  157.6639 H   0  0  0  0  0  0  0  0  0  0  0  0
  151.1919  137.4343  158.3494 H   0  0  0  0  0  0  0  0  0  0  0  0
  150.6377  133.0304  157.0568 H   0  0  0  0  0  0  0  0  0  0  0  0
  144.7552  131.3974  152.3932 H   0  0  0  0  0  0  0  0  0  0  0  0
  142.7984  132.3203  151.7932 H   0  0  0  0  0  0  0  0  0  0  0  0
  143.4397  133.9356  151.5461 H   0  0  0  0  0  0  0  0  0  0  0  0
  142.9207  132.1368  149.4400 H   0  0  0  0  0  0  0  0  0  0  0  0
  144.0131  133.5215  149.3411 H   0  0  0  0  0  0  0  0  0  0  0  0
  146.3436  133.0749  150.4353 H   0  0  0  0  0  0  0  0  0  0  0  0
  146.6202  131.4128  150.9648 H   0  0  0  0  0  0  0  0  0  0  0  0
  1  2  1  0  0  0  0
  1 31  1  0  0  0  0
  2  3  1  0  0  0  0
  2 32  1  0  0  0  0
  2 33  1  0  0  0  0
  3  4  1  0  0  0  0
  3 26  1  0  0  0  0
  3 34  1  0  0  0  0
  4  5  1  0  0  0  0
  4 35  1  0  0  0  0
  4 36  1  0  0  0  0
  5 25  1  0  0  0  0
  5  6  1  0  0  0  0
  6  7  2  0  0  0  0
  6 37  1  0  0  0  0
  7  8  1  0  0  0  0
  8 25  2  0  0  0  0
  8  9  1  0  0  0  0
  9 10  1  0  0  0  0
  9 22  2  0  0  0  0
 10 15  1  0  0  0  0
 10 11  1  0  0  0  0
 11 12  1  0  0  0  0
 11 38  1  0  0  0  0
 11 39  1  0  0  0  0
 12 13  1  0  0  0  0
 12 40  1  0  0  0  0
 12 41  1  0  0  0  0
 13 14  1  0  0  0  0
 13 42  1  0  0  0  0
 13 43  1  0  0  0  0
 14 15  1  0  0  0  0
 14 44  1  0  0  0  0
 14 45  1  0  0  0  0
 15 16  1  0  0  0  0
 15 46  1  0  0  0  0
 16 20  1  0  0  0  0
 16 17  1  0  0  0  0
 16 47  1  0  0  0  0
 17 18  1  0  0  0  0
 17 48  1  0  0  0  0
 17 49  1  0  0  0  0
 18 19  1  0  0  0  0
 18 50  1  0  0  0  0
 18 51  1  0  0  0  0
 19 20  1  0  0  0  0
 19 52  1  0  0  0  0
 19 53  1  0  0  0  0
 20 21  1  0  0  0  0
 20 54  1  0  0  0  0
 21 55  1  0  0  0  0
 22 23  1  0  0  0  0
 23 24  2  0  0  0  0
 23 56  1  0  0  0  0
 24 25  1  0  0  0  0
 26 30  1  0  0  0  0
 26 27  1  0  0  0  0
 26 57  1  0  0  0  0
 27 28  1  0  0  0  0
 27 58  1  0  0  0  0
 27 59  1  0  0  0  0
 28 29  1  0  0  0  0
 28 60  1  0  0  0  0
 28 61  1  0  0  0  0
 29 30  1  0  0  0  0
 30 62  1  0  0  0  0
 30 63  1  0  0  0  0
M  END
> <s_m_source_file>
AV-unprocessed.smi

> <i_m_source_file_index>
148

> <i_lp_mmshare_version>
43012

> <i_f3d_flags>
0

> <s_epik_input>
W0NIMl0xT1tDSDJdW0NIMl1bQ0BIXTFbQ0BIXShbQ0gyXVtPSF0pW0NIMl1uKFtjSF1uMiljKGMyMyluW2NIXW5jM040W0NIMl1bQ0gyXVtDSDJdW0NIMl1bQ0BIXTRbQ0BASF01W0NIMl1bQ0gyXVtDSDJdW0NASF01W09IXQ==

> <s_epik_cmdline>
J2VwaWtfcHl0aG9uJywgJy1waCcsICc3LjAnLCAnLXRuJywgJzgnLCAnLW1hJywgJzIwMCcsICctbWV0YWxfYmluZGluZycsICctaW1hZScsICc8aW5maWxlLm1hZT4nLCAnLW9tYWUnLCAnPG91dGZpbGUubWFlPic=

> <r_lp_tautomer_probability>
1

> <r_epik_Ionization_Penalty>
0.00556303

> <r_epik_Ionization_Penalty_Charging>
0

> <r_epik_Ionization_Penalty_Neutral>
0.00556303

> <r_epik_State_Penalty>
0.00401767

> <r_epik_Charging_Adjusted_Penalty>
0.00401767

> <i_epik_Tot_Q>
0

> <i_epik_Tot_abs_Q>
0

> <r_epik_Metal_State_Penalty>
-0

> <b_epik_Metal_Only>
0

> <s_lp_Force_Field>
OPLS_2005

> <r_lp_Energy>
68.7494

> <b_lp_Chiralities_Consistent>
1

> <s_lp_Variant>
AV-unprocessed.smi:148-19

> <Gold.Version>
5.8.1

> <Gold.Id.Protein>
6NUR|6NUR_protein|mol2

> <Gold.PLP.Fitness>
45.4514

> <Gold.PLP.PLP>
-38.6921

> <Gold.PLP.part.hbond>
-3.5356

> <Gold.PLP.part.metal>
0.0000

> <Gold.PLP.part.buried>
-6.4729

> <Gold.PLP.part.nonpolar>
-29.3633

> <Gold.PLP.part.repulsive>
0.1709

> <Gold.PLP.ligand.clash>
0.0000

> <Gold.PLP.ligand.torsion>
1.8262

> <Gold.PLP.Chemscore.Hbond>
2.3440

> <Gold.PLP.Chemscore.CHOScore>
1.0000

> <Gold.PLP.Chemscore.Metal>
0.0000

> <Gold.Chemscore.Hbonds>
donor molecule, donor type, donor heavy atom, donor atom, acceptor molecule, acceptor atom, score
      L1  H     1    31       P1  7948  0.62
      P1  H  6896  6908       L1    22  1.00
      P1  H  6896  6909       L1    21  0.55
      L1  C     6    37       P1 10957  1.00

> <Gold.PLP.Chemscore.Internal.Correction>
0.3795

> <Gold.Rescore>
     Score         DG    S(hbond)    S(metal)    S(lipo)     H(rot)  DE(clash)    DE(int)     intcor
     12.80     -15.94       2.53        0.00      89.74       3.32       0.29       2.85       ----

> <Gold.Chemscore.Fitness>
12.8010

> <Gold.Chemscore.DG>
-15.9416

> <Gold.Chemscore.ZeroCoef>
-5.4800

> <Gold.Chemscore.Hbond>
2.5336

> <Gold.Chemscore.Metal>
0.0000

> <Gold.Chemscore.Lipo>
89.7396

> <Gold.Chemscore.Internal_Hbond>
0.0000

> <Gold.Chemscore.DEClash>
0.2890

> <Gold.Chemscore.DEInternal>
2.8516

> <Gold.Chemscore.Rot>
3.3203

> <Gold.Chemscore.Internal.Correction>
   9.000000E+99

> <Gold.Chemscore.Hbonds>
donor molecule, donor type, donor heavy atom, donor atom, acceptor molecule, acceptor atom, score
      L1  H     1    31       P1  7948  0.59
      P1  H  6896  6908       L1    22  0.34
      P1  H  6896  6909       L1    21  0.54

> <Gold.Chemscore.Hbond.Weighted>
-8.4621

> <Gold.Chemscore.Metal.Weighted>
-0.0000

> <Gold.Chemscore.Lipo.Weighted>
-10.4995

> <Gold.Chemscore.Internal_Hbond.Weighted>
0.0000

> <Gold.Chemscore.DEClash.Weighted>
0.2890

> <Gold.Chemscore.DEInternal.Weighted>
2.8516

> <Gold.Chemscore.Rot.Weighted>
8.5000

> <Gold.Chemscore.Internal.Correction.Weighted>
   9.000000E+99

> <Gold.Protein.RotatedTorsions>
[ 6907 6896 6895 6894 ] final  117.26 input  -60.11 | X-H torsion
[ 7974 7965 7964 7962 ] final -130.76 input  175.53 | X-H torsion
[ 8008 7997 7996 7995 ] final  115.10 input   59.86 | X-H torsion
[ 10167 10162 10161 10158 ] final -131.94 input  -65.29 | X-H torsion
[ 10718 10713 10712 10709 ] final -160.82 input   66.30 | X-H torsion
[ 10763 10752 10751 10750 ] final -160.15 input  -60.55 | X-H torsion
[ 11005 11000 10999 10996 ] final  148.63 input  -57.11 | X-H torsion

> <Gold.Protein.ActiveResidues>
 VAL166  LYS551  ARG553  GLY616  TRP617  ASP618  TYR619  PRO620  LYS621  CYS622 
 ASP623  PHE694  ASN695  SER759  ASP760  ASP761  ALA762  ILE779  LEU786  VAL792 
 PHE793  MET794  SER795  GLU796  ALA797  LYS798  CYS799  TRP800  GLU811  SER814 

> <Gold.Protein.RotatedAtoms>
  152.4623  133.7849  159.6870 H   0  0  0  0  0  0  0  0  0  0  0  0  # atno 6907 bound_to 6896
  150.8573  133.7687  159.3011 H   0  0  0  0  0  0  0  0  0  0  0  0  # atno 6908 bound_to 6896
  151.5263  135.1071  159.9943 H   0  0  0  0  0  0  0  0  0  0  0  0  # atno 6909 bound_to 6896
  144.9443  140.7274  143.4827 H   0  0  0  0  0  0  0  0  0  0  0  0  # atno 7974 bound_to 7965
  156.2361  140.2945  156.0317 H   0  0  0  0  0  0  0  0  0  0  0  0  # atno 8008 bound_to 7997
  155.2086  140.0412  157.2947 H   0  0  0  0  0  0  0  0  0  0  0  0  # atno 8009 bound_to 7997
  154.6082  140.2445  155.7710 H   0  0  0  0  0  0  0  0  0  0  0  0  # atno 8010 bound_to 7997
  139.9137  143.6464  152.2569 H   0  0  0  0  0  0  0  0  0  0  0  0  # atno 10167 bound_to 10162
  156.5875  130.8756  151.2881 H   0  0  0  0  0  0  0  0  0  0  0  0  # atno 10718 bound_to 10713
  154.7414  135.3069  154.8721 H   0  0  0  0  0  0  0  0  0  0  0  0  # atno 10763 bound_to 10752
  153.9534  135.6761  153.4748 H   0  0  0  0  0  0  0  0  0  0  0  0  # atno 10764 bound_to 10752
  153.1013  135.4910  154.8797 H   0  0  0  0  0  0  0  0  0  0  0  0  # atno 10765 bound_to 10752
  140.0976  134.9003  157.1746 H   0  0  0  0  0  0  0  0  0  0  0  0  # atno 11005 bound_to 11000
  145.2942  139.1873  143.4724 LP  0  0  0  0  0  0  0  0  0  0  0  0  # atno 17320 bound_to 7965
  146.3298  140.2923  142.8616 LP  0  0  0  0  0  0  0  0  0  0  0  0  # atno 17321 bound_to 7965
  139.6921  144.7645  151.1421 LP  0  0  0  0  0  0  0  0  0  0  0  0  # atno 17342 bound_to 10162
  140.7679  143.5575  150.9136 LP  0  0  0  0  0  0  0  0  0  0  0  0  # atno 17343 bound_to 10162
  157.7311  130.9696  150.1867 LP  0  0  0  0  0  0  0  0  0  0  0  0  # atno 17370 bound_to 10713
  156.2578  130.3707  149.8163 LP  0  0  0  0  0  0  0  0  0  0  0  0  # atno 17371 bound_to 10713
  140.3265  134.2857  155.7236 LP  0  0  0  0  0  0  0  0  0  0  0  0  # atno 17394 bound_to 11000
  141.2096  133.7743  156.9984 LP  0  0  0  0  0  0  0  0  0  0  0  0  # atno 17395 bound_to 11000

$$$$
