AV-unprocessed.smi:3335|AV-procd|sdf|12850|dock10
  -GOLD-   2272019243D 1   1.00000     0.00000
 Structure written by MMmdl.
 46 47  0  0  0  0  0  0  0  0  1 V2000
  146.1833  134.1454  162.6818 C   0  0  0  0  0  0  0  0  0  0  0  0
  146.9226  135.1536  161.8506 C   0  0  0  0  0  0  0  0  0  0  0  0
  146.9488  136.5677  162.0081 C   0  0  0  0  0  0  0  0  0  0  0  0
  147.7087  137.1700  161.1092 N   0  0  0  0  0  0  0  0  0  0  0  0
  148.1890  136.1685  160.3374 N   0  0  0  0  0  0  0  0  0  0  0  0
  149.1102  136.4472  159.2372 C   0  0  1  0  0  0  0  0  0  0  0  0
  148.7380  135.6797  157.9530 C   0  0  0  0  0  0  0  0  0  0  0  0
  149.3379  137.9657  159.0007 C   0  0  2  0  0  0  0  0  0  0  0  0
  148.2239  138.5810  158.1292 C   0  0  0  0  0  0  0  0  0  0  0  0
  150.6701  138.1743  158.4251 N   0  0  0  0  0  0  0  0  0  0  0  0
  151.4125  139.3678  158.8690 C   0  0  1  0  0  0  0  0  0  0  0  0
  152.9190  139.1227  158.6933 C   0  0  0  0  0  0  0  0  0  0  0  0
  151.0084  140.6391  158.0928 C   0  0  0  0  0  0  0  0  0  0  0  0
  150.1573  140.5456  157.2065 O   0  0  0  0  0  0  0  0  0  0  0  0
  151.5829  141.8212  158.4044 N   0  0  0  0  0  0  0  0  0  0  0  0
  151.2246  143.0788  157.7507 C   0  0  0  0  0  0  0  0  0  0  0  0
  151.9035  144.1799  158.5646 C   0  0  0  0  0  0  0  0  0  0  0  0
  153.0946  143.4845  159.2071 C   0  0  0  0  0  0  0  0  0  0  0  0
  152.6222  142.0448  159.4090 C   0  0  0  0  0  0  0  0  0  0  0  0
  147.7333  134.9402  160.7721 C   0  0  0  0  0  0  0  0  0  0  0  0
  145.6627  134.6124  163.5181 H   0  0  0  0  0  0  0  0  0  0  0  0
  146.8575  133.3983  163.1006 H   0  0  0  0  0  0  0  0  0  0  0  0
  145.4352  133.6124  162.0951 H   0  0  0  0  0  0  0  0  0  0  0  0
  146.4442  137.1711  162.7482 H   0  0  0  0  0  0  0  0  0  0  0  0
  150.0727  136.0380  159.5482 H   0  0  0  0  0  0  0  0  0  0  0  0
  149.4932  135.8251  157.1800 H   0  0  0  0  0  0  0  0  0  0  0  0
  147.7815  136.0045  157.5430 H   0  0  0  0  0  0  0  0  0  0  0  0
  148.6681  134.6088  158.1450 H   0  0  0  0  0  0  0  0  0  0  0  0
  149.3097  138.4507  159.9774 H   0  0  0  0  0  0  0  0  0  0  0  0
  147.2394  138.2787  158.4865 H   0  0  0  0  0  0  0  0  0  0  0  0
  148.3062  138.2715  157.0869 H   0  0  0  0  0  0  0  0  0  0  0  0
  148.2417  139.6695  158.1609 H   0  0  0  0  0  0  0  0  0  0  0  0
  150.6597  138.0756  157.4192 H   0  0  0  0  0  0  0  0  0  0  0  0
  151.2309  139.4899  159.9356 H   0  0  0  0  0  0  0  0  0  0  0  0
  153.5029  139.9771  159.0381 H   0  0  0  0  0  0  0  0  0  0  0  0
  153.1787  138.9420  157.6491 H   0  0  0  0  0  0  0  0  0  0  0  0
  153.2425  138.2546  159.2684 H   0  0  0  0  0  0  0  0  0  0  0  0
  151.6035  143.0682  156.7278 H   0  0  0  0  0  0  0  0  0  0  0  0
  150.1443  143.2273  157.7113 H   0  0  0  0  0  0  0  0  0  0  0  0
  152.1905  145.0388  157.9575 H   0  0  0  0  0  0  0  0  0  0  0  0
  151.2240  144.5314  159.3421 H   0  0  0  0  0  0  0  0  0  0  0  0
  153.9399  143.4988  158.5178 H   0  0  0  0  0  0  0  0  0  0  0  0
  153.4124  143.9598  160.1353 H   0  0  0  0  0  0  0  0  0  0  0  0
  152.1893  141.9241  160.4031 H   0  0  0  0  0  0  0  0  0  0  0  0
  153.4523  141.3445  159.3071 H   0  0  0  0  0  0  0  0  0  0  0  0
  148.0258  134.0221  160.2844 H   0  0  0  0  0  0  0  0  0  0  0  0
  1  2  1  0  0  0  0
  1 21  1  0  0  0  0
  1 22  1  0  0  0  0
  1 23  1  0  0  0  0
  2 20  2  0  0  0  0
  2  3  1  0  0  0  0
  3  4  2  0  0  0  0
  3 24  1  0  0  0  0
  4  5  1  0  0  0  0
  5  6  1  0  0  0  0
  5 20  1  0  0  0  0
  6  7  1  0  0  0  0
  6  8  1  0  0  0  0
  6 25  1  0  0  0  0
  7 26  1  0  0  0  0
  7 27  1  0  0  0  0
  7 28  1  0  0  0  0
  8  9  1  0  0  0  0
  8 10  1  0  0  0  0
  8 29  1  0  0  0  0
  9 30  1  0  0  0  0
  9 31  1  0  0  0  0
  9 32  1  0  0  0  0
 10 11  1  0  0  0  0
 10 33  1  0  0  0  0
 11 12  1  0  0  0  0
 11 13  1  0  0  0  0
 11 34  1  0  0  0  0
 12 35  1  0  0  0  0
 12 36  1  0  0  0  0
 12 37  1  0  0  0  0
 13 14  2  0  0  0  0
 13 15  1  0  0  0  0
 15 19  1  0  0  0  0
 15 16  1  0  0  0  0
 16 17  1  0  0  0  0
 16 38  1  0  0  0  0
 16 39  1  0  0  0  0
 17 18  1  0  0  0  0
 17 40  1  0  0  0  0
 17 41  1  0  0  0  0
 18 19  1  0  0  0  0
 18 42  1  0  0  0  0
 18 43  1  0  0  0  0
 19 44  1  0  0  0  0
 19 45  1  0  0  0  0
 20 46  1  0  0  0  0
M  END
> <s_m_source_file>
AV-unprocessed.smi

> <i_m_source_file_index>
3335

> <i_lp_mmshare_version>
43012

> <i_f3d_flags>
0

> <s_epik_input>
W0NIM11jMVtjSF1ubihbY0hdMSlbQ0BIXShbQ0gzXSlbQ0BIXShbQ0gzXSlbTkhdW0NASF0oW0NIM10pQyg9TylOMltDSDJdW0NIMl1bQ0gyXVtDSDJdMg==

> <s_epik_cmdline>
J2VwaWtfcHl0aG9uJywgJy1waCcsICc3LjAnLCAnLXRuJywgJzgnLCAnLW1hJywgJzIwMCcsICctbWV0YWxfYmluZGluZycsICctaW1hZScsICc8aW5maWxlLm1hZT4nLCAnLW9tYWUnLCAnPG91dGZpbGUubWFlPic=

> <r_lp_tautomer_probability>
1

> <r_epik_Ionization_Penalty>
0.918803

> <r_epik_Ionization_Penalty_Charging>
0

> <r_epik_Ionization_Penalty_Neutral>
0.918803

> <r_epik_State_Penalty>
0.958258

> <r_epik_Charging_Adjusted_Penalty>
0.958258

> <i_epik_Tot_Q>
0

> <i_epik_Tot_abs_Q>
0

> <r_epik_Metal_State_Penalty>
0.956786

> <b_epik_Metal_Only>
0

> <s_lp_Force_Field>
OPLS_2005

> <r_lp_Energy>
40.2433

> <b_lp_Chiralities_Consistent>
1

> <s_lp_Variant>
AV-unprocessed.smi:3335-14

> <Gold.Version>
5.8.1

> <Gold.Id.Protein>
6NUR|6NUR_protein|mol2

> <Gold.PLP.Fitness>
42.5959

> <Gold.PLP.PLP>
-39.6080

> <Gold.PLP.part.hbond>
-2.0000

> <Gold.PLP.part.metal>
0.0000

> <Gold.PLP.part.buried>
-5.2167

> <Gold.PLP.part.nonpolar>
-34.1819

> <Gold.PLP.part.repulsive>
0.0149

> <Gold.PLP.ligand.clash>
0.0000

> <Gold.PLP.ligand.torsion>
1.3398

> <Gold.PLP.Chemscore.Hbond>
1.8080

> <Gold.PLP.Chemscore.CHOScore>
0.0000

> <Gold.PLP.Chemscore.Metal>
0.0000

> <Gold.Chemscore.Hbonds>
donor molecule, donor type, donor heavy atom, donor atom, acceptor molecule, acceptor atom, score
      P1  H  6931  6943       L1     4  0.93
      P1  H  6934  6947       L1     4  0.86

> <Gold.PLP.Chemscore.Internal.Correction>
0.2435

> <Gold.Rescore>
     Score         DG    S(hbond)    S(metal)    S(lipo)     H(rot)  DE(clash)    DE(int)     intcor
     16.12     -17.81       1.49        0.00      98.18       1.62       0.01       1.68       ----

> <Gold.Chemscore.Fitness>
16.1219

> <Gold.Chemscore.DG>
-17.8125

> <Gold.Chemscore.ZeroCoef>
-5.4800

> <Gold.Chemscore.Hbond>
1.4950

> <Gold.Chemscore.Metal>
0.0000

> <Gold.Chemscore.Lipo>
98.1841

> <Gold.Chemscore.Internal_Hbond>
0.0000

> <Gold.Chemscore.DEClash>
0.0098

> <Gold.Chemscore.DEInternal>
1.6808

> <Gold.Chemscore.Rot>
1.6204

> <Gold.Chemscore.Internal.Correction>
   9.000000E+99

> <Gold.Chemscore.Hbonds>
donor molecule, donor type, donor heavy atom, donor atom, acceptor molecule, acceptor atom, score
      P1  H  6931  6943       L1     4  0.68
      P1  H  6934  6947       L1     4  0.63

> <Gold.Chemscore.Hbond.Weighted>
-4.9932

> <Gold.Chemscore.Metal.Weighted>
-0.0000

> <Gold.Chemscore.Lipo.Weighted>
-11.4875

> <Gold.Chemscore.Internal_Hbond.Weighted>
0.0000

> <Gold.Chemscore.DEClash.Weighted>
0.0098

> <Gold.Chemscore.DEInternal.Weighted>
1.6808

> <Gold.Chemscore.Rot.Weighted>
4.1482

> <Gold.Chemscore.Internal.Correction.Weighted>
   9.000000E+99

> <Gold.Protein.RotatedTorsions>
[ 6907 6896 6895 6894 ] final  143.92 input  -60.11 | X-H torsion
[ 7974 7965 7964 7962 ] final   92.81 input  175.53 | X-H torsion
[ 8008 7997 7996 7995 ] final    8.78 input   59.86 | X-H torsion
[ 10167 10162 10161 10158 ] final   59.01 input  -65.29 | X-H torsion
[ 10718 10713 10712 10709 ] final -167.43 input   66.30 | X-H torsion
[ 10763 10752 10751 10750 ] final   69.91 input  -60.55 | X-H torsion
[ 11005 11000 10999 10996 ] final  -48.90 input  -57.11 | X-H torsion

> <Gold.Protein.ActiveResidues>
 VAL166  LYS551  ARG553  GLY616  TRP617  ASP618  TYR619  PRO620  LYS621  CYS622 
 ASP623  PHE694  ASN695  SER759  ASP760  ASP761  ALA762  ILE779  LEU786  VAL792 
 PHE793  MET794  SER795  GLU796  ALA797  LYS798  CYS799  TRP800  GLU811  SER814 

> <Gold.Protein.RotatedAtoms>
  152.2002  133.4835  159.5054 H   0  0  0  0  0  0  0  0  0  0  0  0  # atno 6907 bound_to 6896
  150.6968  134.1600  159.4181 H   0  0  0  0  0  0  0  0  0  0  0  0  # atno 6908 bound_to 6896
  151.9517  135.0165  160.0593 H   0  0  0  0  0  0  0  0  0  0  0  0  # atno 6909 bound_to 6896
  145.4873  139.2277  143.2849 H   0  0  0  0  0  0  0  0  0  0  0  0  # atno 7974 bound_to 7965
  154.7713  140.2802  155.6135 H   0  0  0  0  0  0  0  0  0  0  0  0  # atno 8008 bound_to 7997
  156.2934  140.2641  156.2444 H   0  0  0  0  0  0  0  0  0  0  0  0  # atno 8009 bound_to 7997
  154.9896  140.0374  157.2303 H   0  0  0  0  0  0  0  0  0  0  0  0  # atno 8010 bound_to 7997
  140.1811  144.4181  150.6615 H   0  0  0  0  0  0  0  0  0  0  0  0  # atno 10167 bound_to 10162
  156.6822  130.9126  151.3058 H   0  0  0  0  0  0  0  0  0  0  0  0  # atno 10718 bound_to 10713
  153.0312  135.5193  154.7360 H   0  0  0  0  0  0  0  0  0  0  0  0  # atno 10763 bound_to 10752
  154.6373  135.2908  155.0147 H   0  0  0  0  0  0  0  0  0  0  0  0  # atno 10764 bound_to 10752
  154.1078  135.6626  153.4932 H   0  0  0  0  0  0  0  0  0  0  0  0  # atno 10765 bound_to 10752
  141.0728  133.6674  156.3508 H   0  0  0  0  0  0  0  0  0  0  0  0  # atno 11005 bound_to 11000
  146.2305  140.5665  142.8977 LP  0  0  0  0  0  0  0  0  0  0  0  0  # atno 17320 bound_to 7965
  144.7854  140.5925  143.6577 LP  0  0  0  0  0  0  0  0  0  0  0  0  # atno 17321 bound_to 7965
  140.6519  143.2227  151.6057 LP  0  0  0  0  0  0  0  0  0  0  0  0  # atno 17342 bound_to 10162
  139.5296  144.2956  152.1116 LP  0  0  0  0  0  0  0  0  0  0  0  0  # atno 17343 bound_to 10162
  157.7039  130.9363  150.0871 LP  0  0  0  0  0  0  0  0  0  0  0  0  # atno 17370 bound_to 10713
  156.1859  130.3652  149.8973 LP  0  0  0  0  0  0  0  0  0  0  0  0  # atno 17371 bound_to 10713
  140.5637  134.5908  157.5440 LP  0  0  0  0  0  0  0  0  0  0  0  0  # atno 17394 bound_to 11000
  139.9541  134.7566  156.0382 LP  0  0  0  0  0  0  0  0  0  0  0  0  # atno 17395 bound_to 11000

$$$$
