AV-unprocessed.smi:533|AV-procd|sdf|2855|dock5
  -GOLD-   2262023343D 1   1.00000     0.00000
 Structure written by MMmdl.
 35 36  0  0  0  0  0  0  0  0  2 V2000
  152.8272  144.2748  158.7201 C   0  0  0  0  0  0  0  0  0  0  0  0
  151.8530  144.5997  157.5843 C   0  0  0  0  0  0  0  0  0  0  0  0
  151.0554  143.4455  157.2186 N   0  0  0  0  0  0  0  0  0  0  0  0
  151.1259  142.1122  157.6031 C   0  0  0  0  0  0  0  0  0  0  0  0
  152.0280  141.6192  158.4529 N   0  0  0  0  0  0  0  0  0  0  0  0
  151.6925  140.2732  158.4981 C   0  0  0  0  0  0  0  0  0  0  0  0
  150.6287  139.9976  157.6961 C   0  0  0  0  0  0  0  0  0  0  0  0
  150.0539  138.6449  157.5300 C   0  0  0  0  0  0  0  0  0  0  0  0
  149.0978  138.4462  156.7834 O   0  0  0  0  0  0  0  0  0  0  0  0
  150.7112  137.7093  158.2864 N   0  5  0  0  0  0  0  0  0  0  0  0
  151.7881  137.9447  159.1147 C   0  0  0  0  0  0  0  0  0  0  0  0
  152.3153  137.0370  159.7579 O   0  0  0  0  0  0  0  0  0  0  0  0
  152.2916  139.2154  159.2324 N   0  0  0  0  0  0  0  0  0  0  0  0
  153.4331  139.5476  160.0906 C   0  0  0  0  0  0  0  0  0  0  0  0
  150.2453  141.2072  157.1087 N   0  0  0  0  0  0  0  0  0  0  0  0
  149.1570  141.4643  156.1684 C   0  0  0  0  0  0  0  0  0  0  0  0
  149.4206  140.8404  154.7899 C   0  0  0  0  0  0  0  0  0  0  0  0
  148.8172  141.6270  153.7761 O   0  0  0  0  0  0  0  0  0  0  0  0
  147.4601  141.9241  154.0494 C   0  0  0  0  0  0  0  0  0  0  0  0
  153.4203  145.1512  158.9824 H   0  0  0  0  0  0  0  0  0  0  0  0
  153.5173  143.4811  158.4326 H   0  0  0  0  0  0  0  0  0  0  0  0
  152.2961  143.9525  159.6163 H   0  0  0  0  0  0  0  0  0  0  0  0
  151.1854  145.4090  157.8813 H   0  0  0  0  0  0  0  0  0  0  0  0
  152.4012  144.9419  156.7060 H   0  0  0  0  0  0  0  0  0  0  0  0
  150.3195  143.6519  156.5592 H   0  0  0  0  0  0  0  0  0  0  0  0
  153.8426  138.7022  160.6440 H   0  0  0  0  0  0  0  0  0  0  0  0
  153.1402  140.3014  160.8221 H   0  0  0  0  0  0  0  0  0  0  0  0
  154.2410  139.9626  159.4876 H   0  0  0  0  0  0  0  0  0  0  0  0
  148.2192  141.0989  156.5828 H   0  0  0  0  0  0  0  0  0  0  0  0
  149.0233  142.5415  156.0671 H   0  0  0  0  0  0  0  0  0  0  0  0
  150.4955  140.7702  154.6178 H   0  0  0  0  0  0  0  0  0  0  0  0
  149.0199  139.8259  154.7587 H   0  0  0  0  0  0  0  0  0  0  0  0
  147.0477  142.5247  153.2388 H   0  0  0  0  0  0  0  0  0  0  0  0
  147.3597  142.4927  154.9747 H   0  0  0  0  0  0  0  0  0  0  0  0
  146.8653  141.0134  154.1302 H   0  0  0  0  0  0  0  0  0  0  0  0
  1  2  1  0  0  0  0
  1 20  1  0  0  0  0
  1 21  1  0  0  0  0
  1 22  1  0  0  0  0
  2  3  1  0  0  0  0
  2 23  1  0  0  0  0
  2 24  1  0  0  0  0
  3  4  1  0  0  0  0
  3 25  1  0  0  0  0
  4 15  1  0  0  0  0
  4  5  2  0  0  0  0
  5  6  1  0  0  0  0
  6 13  1  0  0  0  0
  6  7  2  0  0  0  0
  7  8  1  0  0  0  0
  7 15  1  0  0  0  0
  8  9  2  0  0  0  0
  8 10  1  0  0  0  0
 10 11  1  0  0  0  0
 11 12  2  0  0  0  0
 11 13  1  0  0  0  0
 13 14  1  0  0  0  0
 14 26  1  0  0  0  0
 14 27  1  0  0  0  0
 14 28  1  0  0  0  0
 15 16  1  0  0  0  0
 16 17  1  0  0  0  0
 16 29  1  0  0  0  0
 16 30  1  0  0  0  0
 17 18  1  0  0  0  0
 17 31  1  0  0  0  0
 17 32  1  0  0  0  0
 18 19  1  0  0  0  0
 19 33  1  0  0  0  0
 19 34  1  0  0  0  0
 19 35  1  0  0  0  0
M  CHG  1  10  -1
M  END
> <s_m_source_file>
AV-unprocessed.smi

> <i_m_source_file_index>
533

> <i_lp_mmshare_version>
43012

> <i_f3d_flags>
0

> <s_epik_input>
W0NIM11bQ0gyXVtOSF1jKG4xKW4oW0NIMl1bQ0gyXU9bQ0gzXSljKGMxMiljKD1PKVtuSF1jKD1PKW4yW0NIM10=

> <s_epik_cmdline>
J2VwaWtfcHl0aG9uJywgJy1waCcsICc3LjAnLCAnLXRuJywgJzgnLCAnLW1hJywgJzIwMCcsICctbWV0YWxfYmluZGluZycsICctaW1hZScsICc8aW5maWxlLm1hZT4nLCAnLW9tYWUnLCAnPG91dGZpbGUubWFlPic=

> <r_lp_tautomer_probability>
1

> <r_epik_Ionization_Penalty>
5.85583

> <r_epik_Ionization_Penalty_Charging>
1.37787e-08

> <r_epik_Ionization_Penalty_Neutral>
5.85583

> <r_epik_State_Penalty>
5.8557

> <r_epik_Charging_Adjusted_Penalty>
5.8557

> <i_epik_Tot_Q>
-1

> <i_epik_Tot_abs_Q>
1

> <r_epik_Metal_State_Penalty>
1.82051

> <b_epik_Metal_Only>
1

> <s_lp_Force_Field>
OPLS_2005

> <r_lp_Energy>
24.2596

> <b_lp_Chiralities_Consistent>
1

> <s_lp_Variant>
AV-unprocessed.smi:533-2

> <Gold.Version>
5.8.1

> <Gold.Id.Protein>
6NUR|6NUR_protein|mol2

> <Gold.PLP.Fitness>
41.6042

> <Gold.PLP.PLP>
-34.2085

> <Gold.PLP.part.hbond>
-3.0167

> <Gold.PLP.part.metal>
0.0000

> <Gold.PLP.part.buried>
-6.9583

> <Gold.PLP.part.nonpolar>
-25.3164

> <Gold.PLP.part.repulsive>
0.1929

> <Gold.PLP.ligand.clash>
0.0000

> <Gold.PLP.ligand.torsion>
0.3350

> <Gold.PLP.Chemscore.Hbond>
2.6880

> <Gold.PLP.Chemscore.CHOScore>
0.0000

> <Gold.PLP.Chemscore.Metal>
0.0000

> <Gold.Chemscore.Hbonds>
donor molecule, donor type, donor heavy atom, donor atom, acceptor molecule, acceptor atom, score
      L1  H     3    25       P1  8028  1.00
      P1  H  6896  6907       L1    12  1.00
      P1  H  8011  8017       L1    18  0.66

> <Gold.PLP.Chemscore.Internal.Correction>
0.0016

> <Gold.Rescore>
     Score         DG    S(hbond)    S(metal)    S(lipo)     H(rot)  DE(clash)    DE(int)     intcor
     14.67     -16.63       2.66        0.00      59.63       1.83       0.28       1.67       ----

> <Gold.Chemscore.Fitness>
14.6735

> <Gold.Chemscore.DG>
-16.6297

> <Gold.Chemscore.ZeroCoef>
-5.4800

> <Gold.Chemscore.Hbond>
2.6551

> <Gold.Chemscore.Metal>
0.0000

> <Gold.Chemscore.Lipo>
59.6347

> <Gold.Chemscore.Internal_Hbond>
0.0000

> <Gold.Chemscore.DEClash>
0.2836

> <Gold.Chemscore.DEInternal>
1.6726

> <Gold.Chemscore.Rot>
1.8342

> <Gold.Chemscore.Internal.Correction>
   9.000000E+99

> <Gold.Chemscore.Hbonds>
donor molecule, donor type, donor heavy atom, donor atom, acceptor molecule, acceptor atom, score
      L1  H     3    25       P1  8028  0.96
      P1  H  6896  6907       L1    12  0.95
      P1  H  8011  8017       L1    18  0.65

> <Gold.Chemscore.Hbond.Weighted>
-8.8681

> <Gold.Chemscore.Metal.Weighted>
-0.0000

> <Gold.Chemscore.Lipo.Weighted>
-6.9773

> <Gold.Chemscore.Internal_Hbond.Weighted>
0.0000

> <Gold.Chemscore.DEClash.Weighted>
0.2836

> <Gold.Chemscore.DEInternal.Weighted>
1.6726

> <Gold.Chemscore.Rot.Weighted>
4.6957

> <Gold.Chemscore.Internal.Correction.Weighted>
   9.000000E+99

> <Gold.Protein.RotatedTorsions>
[ 6907 6896 6895 6894 ] final   26.13 input  -60.11 | X-H torsion
[ 7974 7965 7964 7962 ] final   -3.00 input  175.53 | X-H torsion
[ 8008 7997 7996 7995 ] final   87.54 input   59.86 | X-H torsion
[ 10167 10162 10161 10158 ] final   70.75 input  -65.29 | X-H torsion
[ 10718 10713 10712 10709 ] final  -55.37 input   66.30 | X-H torsion
[ 10763 10752 10751 10750 ] final  -68.24 input  -60.55 | X-H torsion
[ 11005 11000 10999 10996 ] final  142.86 input  -57.11 | X-H torsion

> <Gold.Protein.ActiveResidues>
 VAL166  LYS551  ARG553  GLY616  TRP617  ASP618  TYR619  PRO620  LYS621  CYS622 
 ASP623  PHE694  ASN695  SER759  ASP760  ASP761  ALA762  ILE779  LEU786  VAL792 
 PHE793  MET794  SER795  GLU796  ALA797  LYS798  CYS799  TRP800  GLU811  SER814 

> <Gold.Protein.RotatedAtoms>
  151.9829  135.0019  160.0557 H   0  0  0  0  0  0  0  0  0  0  0  0  # atno 6907 bound_to 6896
  152.1680  133.4620  159.4903 H   0  0  0  0  0  0  0  0  0  0  0  0  # atno 6908 bound_to 6896
  150.6897  134.1907  159.4327 H   0  0  0  0  0  0  0  0  0  0  0  0  # atno 6909 bound_to 6896
  146.2396  140.1655  142.8332 H   0  0  0  0  0  0  0  0  0  0  0  0  # atno 7974 bound_to 7965
  155.9766  140.3381  155.6625 H   0  0  0  0  0  0  0  0  0  0  0  0  # atno 8008 bound_to 7997
  155.6604  140.0715  157.2574 H   0  0  0  0  0  0  0  0  0  0  0  0  # atno 8009 bound_to 7997
  154.4180  140.1709  156.1757 H   0  0  0  0  0  0  0  0  0  0  0  0  # atno 8010 bound_to 7997
  140.0535  144.5292  150.7346 H   0  0  0  0  0  0  0  0  0  0  0  0  # atno 10167 bound_to 10162
  156.1374  130.4156  150.0162 H   0  0  0  0  0  0  0  0  0  0  0  0  # atno 10718 bound_to 10713
  154.3862  135.6063  153.5818 H   0  0  0  0  0  0  0  0  0  0  0  0  # atno 10763 bound_to 10752
  152.9787  135.5872  154.4352 H   0  0  0  0  0  0  0  0  0  0  0  0  # atno 10764 bound_to 10752
  154.4129  135.2844  155.2003 H   0  0  0  0  0  0  0  0  0  0  0  0  # atno 10765 bound_to 10752
  140.0509  134.9256  157.1015 H   0  0  0  0  0  0  0  0  0  0  0  0  # atno 11005 bound_to 11000
  145.0054  140.8668  143.5256 LP  0  0  0  0  0  0  0  0  0  0  0  0  # atno 17320 bound_to 7965
  145.1680  139.2420  143.5356 LP  0  0  0  0  0  0  0  0  0  0  0  0  # atno 17321 bound_to 7965
  140.7205  143.2585  151.4293 LP  0  0  0  0  0  0  0  0  0  0  0  0  # atno 17342 bound_to 10162
  139.5938  144.1442  152.2120 LP  0  0  0  0  0  0  0  0  0  0  0  0  # atno 17343 bound_to 10162
  156.8057  130.9306  151.3645 LP  0  0  0  0  0  0  0  0  0  0  0  0  # atno 17370 bound_to 10713
  157.6545  130.8912  149.9700 LP  0  0  0  0  0  0  0  0  0  0  0  0  # atno 17371 bound_to 10713
  140.3919  134.2175  155.7166 LP  0  0  0  0  0  0  0  0  0  0  0  0  # atno 17394 bound_to 11000
  141.1930  133.8161  157.0818 LP  0  0  0  0  0  0  0  0  0  0  0  0  # atno 17395 bound_to 11000

$$$$
