AV-unprocessed.smi:2192|AV-procd|sdf|8897|dock8
  -GOLD-   2272012103D 1   1.00000     0.00000
 Structure written by MMmdl.
 42 44  0  0  0  0  0  0  0  0  1 V2000
  154.8257  139.6285  160.9637 C   0  0  0  0  0  0  0  0  0  0  0  0
  153.8641  140.6091  160.4252 N   0  0  0  0  0  0  0  0  0  0  0  0
  153.2833  140.3483  159.2118 C   0  0  0  0  0  0  0  0  0  0  0  0
  153.5123  139.3549  158.5205 O   0  0  0  0  0  0  0  0  0  0  0  0
  152.3330  141.3763  158.7754 C   0  0  0  0  0  0  0  0  0  0  0  0
  152.0699  142.4907  159.4998 C   0  0  0  0  0  0  0  0  0  0  0  0
  151.1410  143.3039  158.8607 N   0  0  0  0  0  0  0  0  0  0  0  0
  150.8861  142.6127  157.7491 C   0  0  0  0  0  0  0  0  0  0  0  0
  151.5554  141.4489  157.6198 N   0  0  0  0  0  0  0  0  0  0  0  0
  151.4518  140.5207  156.5038 C   0  0  0  0  0  0  0  0  0  0  0  0
  150.4273  140.9806  155.4465 C   0  0  1  0  0  0  0  0  0  0  0  0
  150.4597  140.1706  154.2883 O   0  0  0  0  0  0  0  0  0  0  0  0
  148.9841  141.0437  155.9709 C   0  0  0  0  0  0  0  0  0  0  0  0
  148.0767  141.1046  154.8772 O   0  0  0  0  0  0  0  0  0  0  0  0
  147.0140  141.9781  154.9577 C   0  0  0  0  0  0  0  0  0  0  0  0
  146.5448  142.2959  156.2491 C   0  0  0  0  0  0  0  0  0  0  0  0
  145.4609  143.1772  156.4261 C   0  0  0  0  0  0  0  0  0  0  0  0
  144.8343  143.7541  155.3063 C   0  0  0  0  0  0  0  0  0  0  0  0
  143.7912  144.6010  155.4737 F   0  0  0  0  0  0  0  0  0  0  0  0
  145.2942  143.4490  154.0119 C   0  0  0  0  0  0  0  0  0  0  0  0
  146.3777  142.5664  153.8349 C   0  0  0  0  0  0  0  0  0  0  0  0
  152.7356  142.6707  160.7375 N   0  0  0  0  0  0  0  0  0  0  0  0
  152.4309  143.8916  161.4896 C   0  0  0  0  0  0  0  0  0  0  0  0
  153.6260  141.7320  161.2003 C   0  0  0  0  0  0  0  0  0  0  0  0
  154.2002  141.8880  162.2816 O   0  0  0  0  0  0  0  0  0  0  0  0
  154.9752  138.7437  160.3445 H   0  0  0  0  0  0  0  0  0  0  0  0
  154.4960  139.2676  161.9395 H   0  0  0  0  0  0  0  0  0  0  0  0
  155.8070  140.0889  161.0904 H   0  0  0  0  0  0  0  0  0  0  0  0
  150.1889  142.9649  157.0029 H   0  0  0  0  0  0  0  0  0  0  0  0
  152.4380  140.3722  156.0662 H   0  0  0  0  0  0  0  0  0  0  0  0
  151.1541  139.5489  156.8997 H   0  0  0  0  0  0  0  0  0  0  0  0
  150.7032  141.9831  155.1176 H   0  0  0  0  0  0  0  0  0  0  0  0
  150.3716  139.2674  154.5541 H   0  0  0  0  0  0  0  0  0  0  0  0
  148.7805  140.1441  156.5536 H   0  0  0  0  0  0  0  0  0  0  0  0
  148.8610  141.9031  156.6325 H   0  0  0  0  0  0  0  0  0  0  0  0
  147.0196  141.8562  157.1141 H   0  0  0  0  0  0  0  0  0  0  0  0
  145.1108  143.4094  157.4211 H   0  0  0  0  0  0  0  0  0  0  0  0
  144.8147  143.8928  153.1519 H   0  0  0  0  0  0  0  0  0  0  0  0
  146.7022  142.3580  152.8269 H   0  0  0  0  0  0  0  0  0  0  0  0
  152.9508  143.9763  162.4442 H   0  0  0  0  0  0  0  0  0  0  0  0
  151.3620  143.9430  161.6991 H   0  0  0  0  0  0  0  0  0  0  0  0
  152.6967  144.7676  160.8971 H   0  0  0  0  0  0  0  0  0  0  0  0
  1  2  1  0  0  0  0
  1 26  1  0  0  0  0
  1 27  1  0  0  0  0
  1 28  1  0  0  0  0
  2 24  1  0  0  0  0
  2  3  1  0  0  0  0
  3  4  2  0  0  0  0
  3  5  1  0  0  0  0
  5  9  1  0  0  0  0
  5  6  2  0  0  0  0
  6  7  1  0  0  0  0
  6 22  1  0  0  0  0
  7  8  2  0  0  0  0
  8  9  1  0  0  0  0
  8 29  1  0  0  0  0
  9 10  1  0  0  0  0
 10 11  1  0  0  0  0
 10 30  1  0  0  0  0
 10 31  1  0  0  0  0
 11 12  1  0  0  0  0
 11 13  1  0  0  0  0
 11 32  1  0  0  0  0
 12 33  1  0  0  0  0
 13 14  1  0  0  0  0
 13 34  1  0  0  0  0
 13 35  1  0  0  0  0
 14 15  1  0  0  0  0
 15 21  1  0  0  0  0
 15 16  2  0  0  0  0
 16 17  1  0  0  0  0
 16 36  1  0  0  0  0
 17 18  2  0  0  0  0
 17 37  1  0  0  0  0
 18 19  1  0  0  0  0
 18 20  1  0  0  0  0
 20 21  2  0  0  0  0
 20 38  1  0  0  0  0
 21 39  1  0  0  0  0
 22 23  1  0  0  0  0
 22 24  1  0  0  0  0
 23 40  1  0  0  0  0
 23 41  1  0  0  0  0
 23 42  1  0  0  0  0
 24 25  2  0  0  0  0
M  END
> <s_m_source_file>
AV-unprocessed.smi

> <i_m_source_file_index>
2192

> <i_lp_mmshare_version>
43012

> <i_f3d_flags>
0

> <s_epik_input>
Tz1jMW4oW0NIM10pYyg9TyluKFtDSDNdKWMoYzEyKW5bY0hdbjJbQ0gyXVtDQEhdKFtPSF0pW0NIMl1PYzNbY0hdW2NIXWMoRilbY0hdW2NIXTM=

> <s_epik_cmdline>
J2VwaWtfcHl0aG9uJywgJy1waCcsICc3LjAnLCAnLXRuJywgJzgnLCAnLW1hJywgJzIwMCcsICctbWV0YWxfYmluZGluZycsICctaW1hZScsICc8aW5maWxlLm1hZT4nLCAnLW9tYWUnLCAnPG91dGZpbGUubWFlPic=

> <r_lp_tautomer_probability>
1

> <r_epik_Ionization_Penalty>
1.0344e-06

> <r_epik_Ionization_Penalty_Charging>
3.2247e-09

> <r_epik_Ionization_Penalty_Neutral>
1.03118e-06

> <r_epik_State_Penalty>
-0

> <r_epik_Charging_Adjusted_Penalty>
3.2247e-09

> <i_epik_Tot_Q>
0

> <i_epik_Tot_abs_Q>
0

> <r_epik_Metal_State_Penalty>
-0

> <b_epik_Metal_Only>
0

> <s_lp_Force_Field>
OPLS_2005

> <r_lp_Energy>
39.8918

> <b_lp_Chiralities_Consistent>
1

> <s_lp_Variant>
AV-unprocessed.smi:2192-2

> <Gold.Version>
5.8.1

> <Gold.Id.Protein>
6NUR|6NUR_protein|mol2

> <Gold.PLP.Fitness>
59.7831

> <Gold.PLP.PLP>
-52.4485

> <Gold.PLP.part.hbond>
-3.3945

> <Gold.PLP.part.metal>
0.0000

> <Gold.PLP.part.buried>
-7.2550

> <Gold.PLP.part.nonpolar>
-41.8374

> <Gold.PLP.part.repulsive>
0.1850

> <Gold.PLP.ligand.clash>
0.0000

> <Gold.PLP.ligand.torsion>
0.8647

> <Gold.PLP.Chemscore.Hbond>
2.0000

> <Gold.PLP.Chemscore.CHOScore>
0.9979

> <Gold.PLP.Chemscore.Metal>
0.0000

> <Gold.Chemscore.Hbonds>
donor molecule, donor type, donor heavy atom, donor atom, acceptor molecule, acceptor atom, score
      P1  H  7989  7998       L1    12  1.00
      P1  H  7997  8009       L1     4  1.00
      L1  C     8    29       P1  8028  0.93

> <Gold.PLP.Chemscore.Internal.Correction>
0.0702

> <Gold.Rescore>
     Score         DG    S(hbond)    S(metal)    S(lipo)     H(rot)  DE(clash)    DE(int)     intcor
      9.98     -11.85       1.57        0.00      72.65       2.88       0.34       1.53       ----

> <Gold.Chemscore.Fitness>
9.9762

> <Gold.Chemscore.DG>
-11.8488

> <Gold.Chemscore.ZeroCoef>
-5.4800

> <Gold.Chemscore.Hbond>
1.5665

> <Gold.Chemscore.Metal>
0.0000

> <Gold.Chemscore.Lipo>
72.6494

> <Gold.Chemscore.Internal_Hbond>
0.0000

> <Gold.Chemscore.DEClash>
0.3425

> <Gold.Chemscore.DEInternal>
1.5301

> <Gold.Chemscore.Rot>
2.8762

> <Gold.Chemscore.Internal.Correction>
   9.000000E+99

> <Gold.Chemscore.Hbonds>
donor molecule, donor type, donor heavy atom, donor atom, acceptor molecule, acceptor atom, score
      P1  H  7989  7998       L1    12  0.25
      P1  H  7997  8009       L1     4  0.46

> <Gold.Chemscore.Hbond.Weighted>
-5.2320

> <Gold.Chemscore.Metal.Weighted>
-0.0000

> <Gold.Chemscore.Lipo.Weighted>
-8.5000

> <Gold.Chemscore.Internal_Hbond.Weighted>
0.0000

> <Gold.Chemscore.DEClash.Weighted>
0.3425

> <Gold.Chemscore.DEInternal.Weighted>
1.5301

> <Gold.Chemscore.Rot.Weighted>
7.3631

> <Gold.Chemscore.Internal.Correction.Weighted>
   9.000000E+99

> <Gold.Protein.RotatedTorsions>
[ 6907 6896 6895 6894 ] final  172.46 input  -60.11 | X-H torsion
[ 7974 7965 7964 7962 ] final   -0.87 input  175.53 | X-H torsion
[ 8008 7997 7996 7995 ] final  163.45 input   59.86 | X-H torsion
[ 10167 10162 10161 10158 ] final  -26.10 input  -65.29 | X-H torsion
[ 10718 10713 10712 10709 ] final -123.42 input   66.30 | X-H torsion
[ 10763 10752 10751 10750 ] final  -22.22 input  -60.55 | X-H torsion
[ 11005 11000 10999 10996 ] final   85.91 input  -57.11 | X-H torsion

> <Gold.Protein.ActiveResidues>
 VAL166  LYS551  ARG553  GLY616  TRP617  ASP618  TYR619  PRO620  LYS621  CYS622 
 ASP623  PHE694  ASN695  SER759  ASP760  ASP761  ALA762  ILE779  LEU786  VAL792 
 PHE793  MET794  SER795  GLU796  ALA797  LYS798  CYS799  TRP800  GLU811  SER814 

> <Gold.Protein.RotatedAtoms>
  151.7839  133.3352  159.3479 H   0  0  0  0  0  0  0  0  0  0  0  0  # atno 6907 bound_to 6896
  150.7416  134.5905  159.5994 H   0  0  0  0  0  0  0  0  0  0  0  0  # atno 6908 bound_to 6896
  152.3257  134.7325  160.0354 H   0  0  0  0  0  0  0  0  0  0  0  0  # atno 6909 bound_to 6896
  146.2423  140.1334  142.8337 H   0  0  0  0  0  0  0  0  0  0  0  0  # atno 7974 bound_to 7965
  156.1956  140.1723  156.8005 H   0  0  0  0  0  0  0  0  0  0  0  0  # atno 8008 bound_to 7997
  154.5525  140.0715  156.8722 H   0  0  0  0  0  0  0  0  0  0  0  0  # atno 8009 bound_to 7997
  155.3001  140.3361  155.4250 H   0  0  0  0  0  0  0  0  0  0  0  0  # atno 8010 bound_to 7997
  140.7284  143.4207  151.0955 H   0  0  0  0  0  0  0  0  0  0  0  0  # atno 10167 bound_to 10162
  156.1500  130.6528  150.9900 H   0  0  0  0  0  0  0  0  0  0  0  0  # atno 10718 bound_to 10713
  153.6484  135.6982  153.5217 H   0  0  0  0  0  0  0  0  0  0  0  0  # atno 10763 bound_to 10752
  153.2726  135.4210  155.1001 H   0  0  0  0  0  0  0  0  0  0  0  0  # atno 10764 bound_to 10752
  154.8482  135.3582  154.6029 H   0  0  0  0  0  0  0  0  0  0  0  0  # atno 10765 bound_to 10752
  139.8959  134.8319  156.2647 H   0  0  0  0  0  0  0  0  0  0  0  0  # atno 11005 bound_to 11000
  145.0307  140.8868  143.5111 LP  0  0  0  0  0  0  0  0  0  0  0  0  # atno 17320 bound_to 7965
  145.1398  139.2579  143.5496 LP  0  0  0  0  0  0  0  0  0  0  0  0  # atno 17321 bound_to 7965
  139.7853  143.8297  152.3144 LP  0  0  0  0  0  0  0  0  0  0  0  0  # atno 17342 bound_to 10162
  139.8262  144.7274  150.9509 LP  0  0  0  0  0  0  0  0  0  0  0  0  # atno 17343 bound_to 10162
  157.6649  131.0873  150.7752 LP  0  0  0  0  0  0  0  0  0  0  0  0  # atno 17370 bound_to 10713
  156.7821  130.4862  149.5399 LP  0  0  0  0  0  0  0  0  0  0  0  0  # atno 17371 bound_to 10713
  141.0140  133.7079  156.1157 LP  0  0  0  0  0  0  0  0  0  0  0  0  # atno 17394 bound_to 11000
  140.7328  134.4236  157.5564 LP  0  0  0  0  0  0  0  0  0  0  0  0  # atno 17395 bound_to 11000

$$$$
