AV-unprocessed.smi:1586|AV-procd|sdf|6383|dock7
  -GOLD-   22720 7 13D 1   1.00000     0.00000
 Structure written by MMmdl.
 46 47  0  0  0  0  0  0  0  0  3 V2000
  143.9107  132.4387  150.8647 C   0  0  0  0  0  0  0  0  0  0  0  0
  144.9609  132.5883  151.9752 C   0  0  0  0  0  0  0  0  0  0  0  0
  146.2089  133.1695  151.4744 N   0  0  0  0  0  0  0  0  0  0  0  0
  146.1365  134.5916  151.1292 C   0  0  0  0  0  0  0  0  0  0  0  0
  145.9844  135.4944  152.3717 C   0  0  0  0  0  0  0  0  0  0  0  0
  147.1085  135.2843  153.3254 N   0  3  0  0  0  0  0  0  0  0  0  0
  147.1139  136.1622  154.5409 C   0  0  2  0  0  0  0  0  0  0  0  0
  147.2998  137.6658  154.2196 C   0  0  0  0  0  0  0  0  0  0  0  0
  148.2074  135.6863  155.5270 C   0  0  0  0  0  0  0  0  0  0  0  0
  148.1363  136.3875  156.8041 N   0  0  0  0  0  0  0  0  0  0  0  0
  148.7419  136.0028  157.9354 C   0  0  0  0  0  0  0  0  0  0  0  0
  149.4049  134.9634  157.9535 O   0  0  0  0  0  0  0  0  0  0  0  0
  148.5430  136.8485  158.9721 N   0  5  0  0  0  0  0  0  0  0  0  0
  148.1523  136.3740  160.1653 C   0  0  0  0  0  0  0  0  0  0  0  0
  147.9621  135.0056  160.5017 C   0  0  0  0  0  0  0  0  0  0  0  0
  147.5622  135.0577  161.8069 C   0  0  0  0  0  0  0  0  0  0  0  0
  147.1995  134.0042  162.7971 C   0  0  0  0  0  0  0  0  0  0  0  0
  147.5005  136.3488  162.2305 O   0  0  0  0  0  0  0  0  0  0  0  0
  147.8732  137.1854  161.1716 N   0  0  0  0  0  0  0  0  0  0  0  0
  147.1952  133.8380  153.6658 C   0  0  0  0  0  0  0  0  0  0  0  0
  147.3299  132.9736  152.3947 C   0  0  0  0  0  0  0  0  0  0  0  0
  143.0465  131.8843  151.2307 H   0  0  0  0  0  0  0  0  0  0  0  0
  144.3122  131.8940  150.0097 H   0  0  0  0  0  0  0  0  0  0  0  0
  143.5462  133.4031  150.5126 H   0  0  0  0  0  0  0  0  0  0  0  0
  144.5516  133.1638  152.8046 H   0  0  0  0  0  0  0  0  0  0  0  0
  145.1785  131.5938  152.3668 H   0  0  0  0  0  0  0  0  0  0  0  0
  147.0509  134.8615  150.5992 H   0  0  0  0  0  0  0  0  0  0  0  0
  145.3242  134.7736  150.4268 H   0  0  0  0  0  0  0  0  0  0  0  0
  145.9802  136.5226  152.0116 H   0  0  0  0  0  0  0  0  0  0  0  0
  145.0288  135.3271  152.8696 H   0  0  0  0  0  0  0  0  0  0  0  0
  146.1413  136.0646  155.0265 H   0  0  0  0  0  0  0  0  0  0  0  0
  147.3160  138.2740  155.1242 H   0  0  0  0  0  0  0  0  0  0  0  0
  146.4818  138.0604  153.6171 H   0  0  0  0  0  0  0  0  0  0  0  0
  148.2356  137.8479  153.6903 H   0  0  0  0  0  0  0  0  0  0  0  0
  148.1234  134.6218  155.7403 H   0  0  0  0  0  0  0  0  0  0  0  0
  149.1898  135.8393  155.0761 H   0  0  0  0  0  0  0  0  0  0  0  0
  147.6005  137.2428  156.8323 H   0  0  0  0  0  0  0  0  0  0  0  0
  148.1024  134.1294  159.8866 H   0  0  0  0  0  0  0  0  0  0  0  0
  148.0596  133.3724  163.0185 H   0  0  0  0  0  0  0  0  0  0  0  0
  146.4029  133.3692  162.4097 H   0  0  0  0  0  0  0  0  0  0  0  0
  146.8550  134.4449  163.7329 H   0  0  0  0  0  0  0  0  0  0  0  0
  148.0603  133.6446  154.2974 H   0  0  0  0  0  0  0  0  0  0  0  0
  146.3224  133.5392  154.2477 H   0  0  0  0  0  0  0  0  0  0  0  0
  147.4065  131.9186  152.6605 H   0  0  0  0  0  0  0  0  0  0  0  0
  148.2565  133.2259  151.8773 H   0  0  0  0  0  0  0  0  0  0  0  0
  147.9470  135.5154  152.8118 H   0  0  0  0  0  0  0  0  0  0  0  0
  1  2  1  0  0  0  0
  1 22  1  0  0  0  0
  1 23  1  0  0  0  0
  1 24  1  0  0  0  0
  2  3  1  0  0  0  0
  2 25  1  0  0  0  0
  2 26  1  0  0  0  0
  3 21  1  0  0  0  0
  3  4  1  0  0  0  0
  4  5  1  0  0  0  0
  4 27  1  0  0  0  0
  4 28  1  0  0  0  0
  5  6  1  0  0  0  0
  5 29  1  0  0  0  0
  5 30  1  0  0  0  0
  6  7  1  0  0  0  0
  6 20  1  0  0  0  0
  6 46  1  0  0  0  0
  7  8  1  0  0  0  0
  7  9  1  0  0  0  0
  7 31  1  0  0  0  0
  8 32  1  0  0  0  0
  8 33  1  0  0  0  0
  8 34  1  0  0  0  0
  9 10  1  0  0  0  0
  9 35  1  0  0  0  0
  9 36  1  0  0  0  0
 10 11  1  0  0  0  0
 10 37  1  0  0  0  0
 11 12  2  0  0  0  0
 11 13  1  0  0  0  0
 13 14  1  0  0  0  0
 14 19  2  0  0  0  0
 14 15  1  0  0  0  0
 15 16  2  0  0  0  0
 15 38  1  0  0  0  0
 16 17  1  0  0  0  0
 16 18  1  0  0  0  0
 17 39  1  0  0  0  0
 17 40  1  0  0  0  0
 17 41  1  0  0  0  0
 18 19  1  0  0  0  0
 20 21  1  0  0  0  0
 20 42  1  0  0  0  0
 20 43  1  0  0  0  0
 21 44  1  0  0  0  0
 21 45  1  0  0  0  0
M  CHG  1   6   1
M  CHG  1  13  -1
M  END
> <s_m_source_file>
AV-unprocessed.smi

> <i_m_source_file_index>
1586

> <i_lp_mmshare_version>
43012

> <i_f3d_flags>
0

> <s_epik_input>
W0NIM11bQ0gyXU4xW0NIMl1bQ0gyXU4oW0NIMl1bQ0gyXTEpW0NASF0oW0NIM10pW0NIMl1bTkhdQyg9TylbTkhdYzJbY0hdYyhbQ0gzXSlvbjI=

> <s_epik_cmdline>
J2VwaWtfcHl0aG9uJywgJy1waCcsICc3LjAnLCAnLXRuJywgJzgnLCAnLW1hJywgJzIwMCcsICctbWV0YWxfYmluZGluZycsICctaW1hZScsICc8aW5maWxlLm1hZT4nLCAnLW9tYWUnLCAnPG91dGZpbGUubWFlPic=

> <r_epik_Ionization_Penalty>
6.35599

> <r_epik_Ionization_Penalty_Charging>
6.35441

> <r_epik_Ionization_Penalty_Neutral>
0.00158318

> <r_epik_State_Penalty>
7.1902

> <r_epik_Charging_Adjusted_Penalty>
13.5446

> <i_epik_Tot_Q>
0

> <i_epik_Tot_abs_Q>
2

> <r_epik_Metal_State_Penalty>
3.12491

> <b_epik_Metal_Only>
1

> <s_lp_Force_Field>
OPLS_2005

> <r_lp_Energy>
12.1212

> <b_lp_Chiralities_Consistent>
1

> <s_lp_Variant>
AV-unprocessed.smi:1586-11

> <Gold.Version>
5.8.1

> <Gold.Id.Protein>
6NUR|6NUR_protein|mol2

> <Gold.PLP.Fitness>
41.1805

> <Gold.PLP.PLP>
-28.8646

> <Gold.PLP.part.hbond>
-4.0000

> <Gold.PLP.part.metal>
0.0000

> <Gold.PLP.part.buried>
-4.5222

> <Gold.PLP.part.nonpolar>
-21.3880

> <Gold.PLP.part.repulsive>
0.1526

> <Gold.PLP.ligand.clash>
0.0000

> <Gold.PLP.ligand.torsion>
0.7534

> <Gold.PLP.Chemscore.Hbond>
4.5728

> <Gold.PLP.Chemscore.CHOScore>
0.0000

> <Gold.PLP.Chemscore.Metal>
0.0000

> <Gold.Chemscore.Hbonds>
donor molecule, donor type, donor heavy atom, donor atom, acceptor molecule, acceptor atom, score
      L1  H     6    46       P1  7948  2.00
      P1  H  6896  6908       L1    12  0.84
      P1  H  6931  6943       L1    19  0.99
      P1  H  6934  6947       L1    19  0.77

> <Gold.PLP.Chemscore.Internal.Correction>
0.1043

> <Gold.Rescore>
     Score         DG    S(hbond)    S(metal)    S(lipo)     H(rot)  DE(clash)    DE(int)     intcor
     17.11     -18.94       3.27        0.00      59.41       1.73       0.01       1.83       ----

> <Gold.Chemscore.Fitness>
17.1078

> <Gold.Chemscore.DG>
-18.9448

> <Gold.Chemscore.ZeroCoef>
-5.4800

> <Gold.Chemscore.Hbond>
3.2723

> <Gold.Chemscore.Metal>
0.0000

> <Gold.Chemscore.Lipo>
59.4150

> <Gold.Chemscore.Internal_Hbond>
0.0000

> <Gold.Chemscore.DEClash>
0.0073

> <Gold.Chemscore.DEInternal>
1.8297

> <Gold.Chemscore.Rot>
1.7250

> <Gold.Chemscore.Internal.Correction>
   9.000000E+99

> <Gold.Chemscore.Hbonds>
donor molecule, donor type, donor heavy atom, donor atom, acceptor molecule, acceptor atom, score
      L1  H     6    46       P1  7948  0.94
      P1  H  6896  6908       L1    12  0.78
      P1  H  6931  6943       L1    19  0.37
      P1  H  6934  6947       L1    19  0.75

> <Gold.Chemscore.Hbond.Weighted>
-10.9294

> <Gold.Chemscore.Metal.Weighted>
-0.0000

> <Gold.Chemscore.Lipo.Weighted>
-6.9516

> <Gold.Chemscore.Internal_Hbond.Weighted>
0.0000

> <Gold.Chemscore.DEClash.Weighted>
0.0073

> <Gold.Chemscore.DEInternal.Weighted>
1.8297

> <Gold.Chemscore.Rot.Weighted>
4.4161

> <Gold.Chemscore.Internal.Correction.Weighted>
   9.000000E+99

> <Gold.Protein.RotatedTorsions>
[ 6907 6896 6895 6894 ] final  135.53 input  -60.11 | X-H torsion
[ 7974 7965 7964 7962 ] final  123.97 input  175.53 | X-H torsion
[ 8008 7997 7996 7995 ] final -161.92 input   59.86 | X-H torsion
[ 10167 10162 10161 10158 ] final  111.76 input  -65.29 | X-H torsion
[ 10718 10713 10712 10709 ] final  -94.35 input   66.30 | X-H torsion
[ 10763 10752 10751 10750 ] final    6.41 input  -60.55 | X-H torsion
[ 11005 11000 10999 10996 ] final  -78.32 input  -57.11 | X-H torsion

> <Gold.Protein.ActiveResidues>
 VAL166  LYS551  ARG553  GLY616  TRP617  ASP618  TYR619  PRO620  LYS621  CYS622 
 ASP623  PHE694  ASN695  SER759  ASP760  ASP761  ALA762  ILE779  LEU786  VAL792 
 PHE793  MET794  SER795  GLU796  ALA797  LYS798  CYS799  TRP800  GLU811  SER814 

> <Gold.Protein.RotatedAtoms>
  152.2994  133.5640  159.5608 H   0  0  0  0  0  0  0  0  0  0  0  0  # atno 6907 bound_to 6896
  150.7271  134.0313  159.3743 H   0  0  0  0  0  0  0  0  0  0  0  0  # atno 6908 bound_to 6896
  151.8214  135.0651  160.0476 H   0  0  0  0  0  0  0  0  0  0  0  0  # atno 6909 bound_to 6896
  145.0898  139.3595  143.4866 H   0  0  0  0  0  0  0  0  0  0  0  0  # atno 7974 bound_to 7965
  155.7993  140.0889  157.1966 H   0  0  0  0  0  0  0  0  0  0  0  0  # atno 8008 bound_to 7997
  154.3982  140.1475  156.3314 H   0  0  0  0  0  0  0  0  0  0  0  0  # atno 8009 bound_to 7997
  155.8479  140.3436  155.5677 H   0  0  0  0  0  0  0  0  0  0  0  0  # atno 8010 bound_to 7997
  139.6587  144.7129  151.1907 H   0  0  0  0  0  0  0  0  0  0  0  0  # atno 10167 bound_to 10162
  156.0026  130.5064  150.5914 H   0  0  0  0  0  0  0  0  0  0  0  0  # atno 10718 bound_to 10713
  153.2481  135.6911  153.7709 H   0  0  0  0  0  0  0  0  0  0  0  0  # atno 10763 bound_to 10752
  153.6814  135.3328  155.3180 H   0  0  0  0  0  0  0  0  0  0  0  0  # atno 10764 bound_to 10752
  154.8383  135.4523  154.1428 H   0  0  0  0  0  0  0  0  0  0  0  0  # atno 10765 bound_to 10752
  141.1664  133.7058  156.7953 H   0  0  0  0  0  0  0  0  0  0  0  0  # atno 11005 bound_to 11000
  146.3531  140.0727  142.8622 LP  0  0  0  0  0  0  0  0  0  0  0  0  # atno 17320 bound_to 7965
  145.1080  140.9387  143.4673 LP  0  0  0  0  0  0  0  0  0  0  0  0  # atno 17321 bound_to 7965
  140.7570  143.6030  150.8681 LP  0  0  0  0  0  0  0  0  0  0  0  0  # atno 17342 bound_to 10162
  139.9685  143.6083  152.2981 LP  0  0  0  0  0  0  0  0  0  0  0  0  # atno 17343 bound_to 10162
  157.3778  131.0776  151.1503 LP  0  0  0  0  0  0  0  0  0  0  0  0  # atno 17370 bound_to 10713
  157.2235  130.6492  149.5821 LP  0  0  0  0  0  0  0  0  0  0  0  0  # atno 17371 bound_to 10713
  140.2295  134.8696  157.3462 LP  0  0  0  0  0  0  0  0  0  0  0  0  # atno 17394 bound_to 11000
  140.1905  134.4377  155.7718 LP  0  0  0  0  0  0  0  0  0  0  0  0  # atno 17395 bound_to 11000

$$$$
