AV-unprocessed.smi:1421|AV-procd|sdf|5791|dock9
  -GOLD-   22720 5443D 1   1.00000     0.00000
 Structure written by MMmdl.
 44 45  0  0  0  0  0  0  0  0  2 V2000
  146.0943  135.4048  162.5869 C   0  0  0  0  0  0  0  0  0  0  0  0
  145.9831  136.9645  161.6097 S   0  0  0  0  0  0  0  0  0  0  0  0
  144.8729  137.7131  162.2175 O   0  0  0  0  0  0  0  0  0  0  0  0
  147.3161  137.5870  161.6751 O   0  0  0  0  0  0  0  0  0  0  0  0
  145.5789  136.4235  160.1299 N   0  5  0  0  0  0  0  0  0  0  0  0
  146.0361  137.1020  158.9257 C   0  0  0  0  0  0  0  0  0  0  0  0
  147.1465  136.2689  158.2493 C   0  0  0  0  0  0  0  0  0  0  0  0
  148.5649  136.7859  158.5332 C   0  0  0  0  0  0  0  0  0  0  0  0
  149.3640  136.1129  159.1885 O   0  0  0  0  0  0  0  0  0  0  0  0
  148.8573  138.0085  158.0634 N   0  0  0  0  0  0  0  0  0  0  0  0
  150.1462  138.6696  158.2177 C   0  0  0  0  0  0  0  0  0  0  0  0
  150.9562  138.6912  156.9236 C   0  0  0  0  0  0  0  0  0  0  0  0
  150.6546  137.7647  155.8996 C   0  0  0  0  0  0  0  0  0  0  0  0
  151.4207  137.7628  154.7205 C   0  0  0  0  0  0  0  0  0  0  0  0
  152.4733  138.6878  154.6102 C   0  0  0  0  0  0  0  0  0  0  0  0
  152.7801  139.5745  155.5787 N   0  0  0  0  0  0  0  0  0  0  0  0
  152.0440  139.5833  156.7171 C   0  0  0  0  0  0  0  0  0  0  0  0
  152.3802  140.5423  157.6893 N   0  0  0  0  0  0  0  0  0  0  0  0
  151.4259  141.6239  157.9084 C   0  0  0  0  0  0  0  0  0  0  0  0
  152.0426  142.6783  158.8435 C   0  0  0  0  0  0  0  0  0  0  0  0
  152.4450  142.0576  160.0617 O   0  0  0  0  0  0  0  0  0  0  0  0
  153.4258  141.0451  159.8506 C   0  0  0  0  0  0  0  0  0  0  0  0
  152.8521  139.9503  158.9346 C   0  0  0  0  0  0  0  0  0  0  0  0
  146.2652  135.6521  163.6339 H   0  0  0  0  0  0  0  0  0  0  0  0
  146.9214  134.7947  162.2263 H   0  0  0  0  0  0  0  0  0  0  0  0
  145.1609  134.8503  162.4949 H   0  0  0  0  0  0  0  0  0  0  0  0
  145.2228  137.2538  158.2151 H   0  0  0  0  0  0  0  0  0  0  0  0
  146.4229  138.0963  159.1533 H   0  0  0  0  0  0  0  0  0  0  0  0
  147.0755  135.2279  158.5699 H   0  0  0  0  0  0  0  0  0  0  0  0
  146.9980  136.2642  157.1685 H   0  0  0  0  0  0  0  0  0  0  0  0
  148.1430  138.5065  157.5524 H   0  0  0  0  0  0  0  0  0  0  0  0
  149.9680  139.6696  158.6111 H   0  0  0  0  0  0  0  0  0  0  0  0
  150.7365  138.1420  158.9683 H   0  0  0  0  0  0  0  0  0  0  0  0
  149.8482  137.0552  156.0145 H   0  0  0  0  0  0  0  0  0  0  0  0
  151.2101  137.0660  153.9228 H   0  0  0  0  0  0  0  0  0  0  0  0
  153.0862  138.7168  153.7215 H   0  0  0  0  0  0  0  0  0  0  0  0
  151.1542  142.0785  156.9550 H   0  0  0  0  0  0  0  0  0  0  0  0
  150.5120  141.2286  158.3543 H   0  0  0  0  0  0  0  0  0  0  0  0
  152.8975  143.1650  158.3710 H   0  0  0  0  0  0  0  0  0  0  0  0
  151.3135  143.4577  159.0650 H   0  0  0  0  0  0  0  0  0  0  0  0
  154.3267  141.4816  159.4165 H   0  0  0  0  0  0  0  0  0  0  0  0
  153.7100  140.6189  160.8128 H   0  0  0  0  0  0  0  0  0  0  0  0
  152.0203  139.4472  159.4298 H   0  0  0  0  0  0  0  0  0  0  0  0
  153.6111  139.1927  158.7357 H   0  0  0  0  0  0  0  0  0  0  0  0
  1  2  1  0  0  0  0
  1 24  1  0  0  0  0
  1 25  1  0  0  0  0
  1 26  1  0  0  0  0
  2  3  2  0  0  0  0
  2  4  2  0  0  0  0
  2  5  1  0  0  0  0
  5  6  1  0  0  0  0
  6  7  1  0  0  0  0
  6 27  1  0  0  0  0
  6 28  1  0  0  0  0
  7  8  1  0  0  0  0
  7 29  1  0  0  0  0
  7 30  1  0  0  0  0
  8  9  2  0  0  0  0
  8 10  1  0  0  0  0
 10 11  1  0  0  0  0
 10 31  1  0  0  0  0
 11 12  1  0  0  0  0
 11 32  1  0  0  0  0
 11 33  1  0  0  0  0
 12 17  1  0  0  0  0
 12 13  2  0  0  0  0
 13 14  1  0  0  0  0
 13 34  1  0  0  0  0
 14 15  2  0  0  0  0
 14 35  1  0  0  0  0
 15 16  1  0  0  0  0
 15 36  1  0  0  0  0
 16 17  2  0  0  0  0
 17 18  1  0  0  0  0
 18 23  1  0  0  0  0
 18 19  1  0  0  0  0
 19 20  1  0  0  0  0
 19 37  1  0  0  0  0
 19 38  1  0  0  0  0
 20 21  1  0  0  0  0
 20 39  1  0  0  0  0
 20 40  1  0  0  0  0
 21 22  1  0  0  0  0
 22 23  1  0  0  0  0
 22 41  1  0  0  0  0
 22 42  1  0  0  0  0
 23 43  1  0  0  0  0
 23 44  1  0  0  0  0
M  CHG  1   5  -1
M  END
> <s_m_source_file>
AV-unprocessed.smi

> <i_m_source_file_index>
1421

> <i_lp_mmshare_version>
43012

> <i_f3d_flags>
0

> <s_epik_input>
W0NIM11TKD1PKSg9TylbTkhdW0NIMl1bQ0gyXUMoPU8pW05IXVtDSDJdYzFbY0hdW2NIXVtjSF1uYzFOMltDSDJdW0NIMl1PW0NIMl1bQ0gyXTI=

> <s_epik_cmdline>
J2VwaWtfcHl0aG9uJywgJy1waCcsICc3LjAnLCAnLXRuJywgJzgnLCAnLW1hJywgJzIwMCcsICctbWV0YWxfYmluZGluZycsICctaW1hZScsICc8aW5maWxlLm1hZT4nLCAnLW9tYWUnLCAnPG91dGZpbGUubWFlPic=

> <r_lp_tautomer_probability>
1

> <r_epik_Ionization_Penalty>
6.31253

> <r_epik_Ionization_Penalty_Charging>
6.30704

> <r_epik_Ionization_Penalty_Neutral>
0.00548981

> <r_epik_State_Penalty>
6.31049

> <r_epik_Charging_Adjusted_Penalty>
12.6175

> <i_epik_Tot_Q>
-1

> <i_epik_Tot_abs_Q>
1

> <r_epik_Metal_State_Penalty>
2.24651

> <b_epik_Metal_Only>
1

> <s_lp_Force_Field>
OPLS_2005

> <r_lp_Energy>
12.571

> <b_lp_Chiralities_Consistent>
1

> <s_lp_Variant>
AV-unprocessed.smi:1421-2

> <Gold.Version>
5.8.1

> <Gold.Id.Protein>
6NUR|6NUR_protein|mol2

> <Gold.PLP.Fitness>
42.8537

> <Gold.PLP.PLP>
-33.5369

> <Gold.PLP.part.hbond>
-4.8715

> <Gold.PLP.part.metal>
0.0000

> <Gold.PLP.part.buried>
-5.5731

> <Gold.PLP.part.nonpolar>
-23.1330

> <Gold.PLP.part.repulsive>
0.1176

> <Gold.PLP.ligand.clash>
0.0000

> <Gold.PLP.ligand.torsion>
1.4226

> <Gold.PLP.Chemscore.Hbond>
3.6373

> <Gold.PLP.Chemscore.CHOScore>
0.0000

> <Gold.PLP.Chemscore.Metal>
0.0000

> <Gold.Chemscore.Hbonds>
donor molecule, donor type, donor heavy atom, donor atom, acceptor molecule, acceptor atom, score
      P1  H  6896  6908       L1     9  1.00
      P1  H  6931  6943       L1     4  0.69
      P1  H  6934  6947       L1     4  0.77
      P1  H  7997  8008       L1    16  1.00

> <Gold.PLP.Chemscore.Internal.Correction>
1.2502

> <Gold.Rescore>
     Score         DG    S(hbond)    S(metal)    S(lipo)     H(rot)  DE(clash)    DE(int)     intcor
     17.18     -18.71       3.35        0.00      71.39       2.46       0.17       1.36       ----

> <Gold.Chemscore.Fitness>
17.1819

> <Gold.Chemscore.DG>
-18.7145

> <Gold.Chemscore.ZeroCoef>
-5.4800

> <Gold.Chemscore.Hbond>
3.3491

> <Gold.Chemscore.Metal>
0.0000

> <Gold.Chemscore.Lipo>
71.3878

> <Gold.Chemscore.Internal_Hbond>
0.0000

> <Gold.Chemscore.DEClash>
0.1748

> <Gold.Chemscore.DEInternal>
1.3577

> <Gold.Chemscore.Rot>
2.4625

> <Gold.Chemscore.Internal.Correction>
   9.000000E+99

> <Gold.Chemscore.Hbonds>
donor molecule, donor type, donor heavy atom, donor atom, acceptor molecule, acceptor atom, score
      P1  H  6896  6908       L1     9  0.93
      P1  H  6931  6943       L1     4  0.70
      P1  H  6934  6947       L1     4  0.46
      P1  H  7997  8008       L1    16  0.40

> <Gold.Chemscore.Hbond.Weighted>
-11.1861

> <Gold.Chemscore.Metal.Weighted>
-0.0000

> <Gold.Chemscore.Lipo.Weighted>
-8.3524

> <Gold.Chemscore.Internal_Hbond.Weighted>
0.0000

> <Gold.Chemscore.DEClash.Weighted>
0.1748

> <Gold.Chemscore.DEInternal.Weighted>
1.3577

> <Gold.Chemscore.Rot.Weighted>
6.3040

> <Gold.Chemscore.Internal.Correction.Weighted>
   9.000000E+99

> <Gold.Protein.RotatedTorsions>
[ 6907 6896 6895 6894 ] final  171.96 input  -60.11 | X-H torsion
[ 7974 7965 7964 7962 ] final  -32.82 input  175.53 | X-H torsion
[ 8008 7997 7996 7995 ] final  -30.51 input   59.86 | X-H torsion
[ 10167 10162 10161 10158 ] final  -47.46 input  -65.29 | X-H torsion
[ 10718 10713 10712 10709 ] final  -10.52 input   66.30 | X-H torsion
[ 10763 10752 10751 10750 ] final    0.69 input  -60.55 | X-H torsion
[ 11005 11000 10999 10996 ] final   49.56 input  -57.11 | X-H torsion

> <Gold.Protein.ActiveResidues>
 VAL166  LYS551  ARG553  GLY616  TRP617  ASP618  TYR619  PRO620  LYS621  CYS622 
 ASP623  PHE694  ASN695  SER759  ASP760  ASP761  ALA762  ILE779  LEU786  VAL792 
 PHE793  MET794  SER795  GLU796  ALA797  LYS798  CYS799  TRP800  GLU811  SER814 

> <Gold.Protein.RotatedAtoms>
  151.7918  133.3360  159.3501 H   0  0  0  0  0  0  0  0  0  0  0  0  # atno 6907 bound_to 6896
  150.7389  134.5835  159.5960 H   0  0  0  0  0  0  0  0  0  0  0  0  # atno 6908 bound_to 6896
  152.3204  134.7388  160.0366 H   0  0  0  0  0  0  0  0  0  0  0  0  # atno 6909 bound_to 6896
  146.0959  140.5840  142.8843 H   0  0  0  0  0  0  0  0  0  0  0  0  # atno 7974 bound_to 7965
  154.4248  140.1789  156.1418 H   0  0  0  0  0  0  0  0  0  0  0  0  # atno 8008 bound_to 7997
  155.9985  140.3362  155.6798 H   0  0  0  0  0  0  0  0  0  0  0  0  # atno 8009 bound_to 7997
  155.6275  140.0666  157.2650 H   0  0  0  0  0  0  0  0  0  0  0  0  # atno 8010 bound_to 7997
  140.6774  143.2783  151.3930 H   0  0  0  0  0  0  0  0  0  0  0  0  # atno 10167 bound_to 10162
  156.6723  130.5013  149.5996 H   0  0  0  0  0  0  0  0  0  0  0  0  # atno 10718 bound_to 10713
  153.3175  135.6967  153.7060 H   0  0  0  0  0  0  0  0  0  0  0  0  # atno 10763 bound_to 10752
  153.5913  135.3479  155.2912 H   0  0  0  0  0  0  0  0  0  0  0  0  # atno 10764 bound_to 10752
  154.8590  135.4318  154.2330 H   0  0  0  0  0  0  0  0  0  0  0  0  # atno 10765 bound_to 10752
  140.1093  134.4976  155.8692 H   0  0  0  0  0  0  0  0  0  0  0  0  # atno 11005 bound_to 11000
  144.7395  140.4903  143.6879 LP  0  0  0  0  0  0  0  0  0  0  0  0  # atno 17320 bound_to 7965
  145.5948  139.1498  143.3162 LP  0  0  0  0  0  0  0  0  0  0  0  0  # atno 17321 bound_to 7965
  139.6074  144.1168  152.2264 LP  0  0  0  0  0  0  0  0  0  0  0  0  # atno 17342 bound_to 10162
  140.0571  144.5886  150.7291 LP  0  0  0  0  0  0  0  0  0  0  0  0  # atno 17343 bound_to 10162
  156.1930  130.6571  151.1082 LP  0  0  0  0  0  0  0  0  0  0  0  0  # atno 17370 bound_to 10713
  157.7073  131.0750  150.6623 LP  0  0  0  0  0  0  0  0  0  0  0  0  # atno 17371 bound_to 10713
  141.2126  133.6722  156.6673 LP  0  0  0  0  0  0  0  0  0  0  0  0  # atno 17394 bound_to 11000
  140.3113  134.8084  157.4178 LP  0  0  0  0  0  0  0  0  0  0  0  0  # atno 17395 bound_to 11000

$$$$
