AV-unprocessed.smi:1901|AV-procd|sdf|7717|dock9
  -GOLD-   22720 9453D 1   1.00000     0.00000
 Structure written by MMmdl.
 28 29  0  0  0  0  0  0  0  0  1 V2000
  144.6829  136.6816  153.1879 O   0  0  0  0  0  0  0  0  0  0  0  0
  145.8449  136.5331  152.8085 C   0  0  0  0  0  0  0  0  0  0  0  0
  146.8305  137.3998  153.0835 N   0  0  0  0  0  0  0  0  0  0  0  0
  146.6878  138.6268  153.8614 C   0  0  0  0  0  0  0  0  0  0  0  0
  147.8886  139.5721  153.6694 C   0  0  1  0  0  0  0  0  0  0  0  0
  147.7505  140.8916  154.4002 C   0  0  0  0  0  0  0  0  0  0  0  0
  149.1908  141.3945  154.4243 C   0  0  0  0  0  0  0  0  0  0  0  0
  150.0106  140.2297  154.4552 O   0  0  0  0  0  0  0  0  0  0  0  0
  149.2157  139.0676  154.2397 C   0  0  0  0  0  0  0  0  0  0  0  0
  146.2975  135.5000  152.0768 N   0  0  0  0  0  0  0  0  0  0  0  0
  145.5737  134.3728  151.6072 C   0  0  0  0  0  0  0  0  0  0  0  0
  144.2535  134.3606  151.3880 N   0  0  0  0  0  0  0  0  0  0  0  0
  143.8095  133.1182  150.9283 C   0  0  0  0  0  0  0  0  0  0  0  0
  144.8120  132.1887  150.8034 C   0  0  0  0  0  0  0  0  0  0  0  0
  146.3629  132.8410  151.2605 S   0  0  0  0  0  0  0  0  0  0  0  0
  147.7532  137.1954  152.7286 H   0  0  0  0  0  0  0  0  0  0  0  0
  145.7779  139.1241  153.5249 H   0  0  0  0  0  0  0  0  0  0  0  0
  146.5378  138.4026  154.9190 H   0  0  0  0  0  0  0  0  0  0  0  0
  148.0201  139.7803  152.6061 H   0  0  0  0  0  0  0  0  0  0  0  0
  147.0677  141.5855  153.9087 H   0  0  0  0  0  0  0  0  0  0  0  0
  147.3958  140.7273  155.4188 H   0  0  0  0  0  0  0  0  0  0  0  0
  149.4153  141.9507  153.5133 H   0  0  0  0  0  0  0  0  0  0  0  0
  149.3889  142.0456  155.2759 H   0  0  0  0  0  0  0  0  0  0  0  0
  149.0608  138.5759  155.2011 H   0  0  0  0  0  0  0  0  0  0  0  0
  149.7163  138.3619  153.5765 H   0  0  0  0  0  0  0  0  0  0  0  0
  147.2766  135.5177  151.8326 H   0  0  0  0  0  0  0  0  0  0  0  0
  142.7599  132.9823  150.7136 H   0  0  0  0  0  0  0  0  0  0  0  0
  144.7321  131.1644  150.4712 H   0  0  0  0  0  0  0  0  0  0  0  0
  1  2  2  0  0  0  0
  2  3  1  0  0  0  0
  2 10  1  0  0  0  0
  3  4  1  0  0  0  0
  3 16  1  0  0  0  0
  4  5  1  0  0  0  0
  4 17  1  0  0  0  0
  4 18  1  0  0  0  0
  5  9  1  0  0  0  0
  5  6  1  0  0  0  0
  5 19  1  0  0  0  0
  6  7  1  0  0  0  0
  6 20  1  0  0  0  0
  6 21  1  0  0  0  0
  7  8  1  0  0  0  0
  7 22  1  0  0  0  0
  7 23  1  0  0  0  0
  8  9  1  0  0  0  0
  9 24  1  0  0  0  0
  9 25  1  0  0  0  0
 10 11  1  0  0  0  0
 10 26  1  0  0  0  0
 11 15  1  0  0  0  0
 11 12  2  0  0  0  0
 12 13  1  0  0  0  0
 13 14  2  0  0  0  0
 13 27  1  0  0  0  0
 14 15  1  0  0  0  0
 14 28  1  0  0  0  0
M  END
> <s_m_source_file>
AV-unprocessed.smi

> <i_m_source_file_index>
1901

> <i_lp_mmshare_version>
43012

> <i_f3d_flags>
0

> <s_epik_input>
czFbY0hdW2NIXW5jMVtOSF1DKD1PKVtOSF1bQ0gyXVtDQEBIXTJbQ0gyXVtDSDJdT1tDSDJdMg==

> <s_epik_cmdline>
J2VwaWtfcHl0aG9uJywgJy1waCcsICc3LjAnLCAnLXRuJywgJzgnLCAnLW1hJywgJzIwMCcsICctbWV0YWxfYmluZGluZycsICctaW1hZScsICc8aW5maWxlLm1hZT4nLCAnLW9tYWUnLCAnPG91dGZpbGUubWFlPic=

> <r_lp_tautomer_probability>
0.999

> <r_epik_Ionization_Penalty>
0.000365592

> <r_epik_Ionization_Penalty_Charging>
0

> <r_epik_Ionization_Penalty_Neutral>
0.000365592

> <r_epik_State_Penalty>
0.000177984

> <r_epik_Charging_Adjusted_Penalty>
0.000177984

> <i_epik_Tot_Q>
0

> <i_epik_Tot_abs_Q>
0

> <r_epik_Metal_State_Penalty>
0.00682492

> <b_epik_Metal_Only>
0

> <s_lp_Force_Field>
OPLS_2005

> <r_lp_Energy>
17.1136

> <b_lp_Chiralities_Consistent>
1

> <s_lp_Variant>
AV-unprocessed.smi:1901-2

> <Gold.Version>
5.8.1

> <Gold.Id.Protein>
6NUR|6NUR_protein|mol2

> <Gold.PLP.Fitness>
35.9690

> <Gold.PLP.PLP>
-24.4980

> <Gold.PLP.part.hbond>
-3.0000

> <Gold.PLP.part.metal>
0.0000

> <Gold.PLP.part.buried>
-2.1067

> <Gold.PLP.part.nonpolar>
-18.9665

> <Gold.PLP.part.repulsive>
0.4494

> <Gold.PLP.ligand.clash>
0.0000

> <Gold.PLP.ligand.torsion>
0.2558

> <Gold.PLP.Chemscore.Hbond>
2.9920

> <Gold.PLP.Chemscore.CHOScore>
1.0000

> <Gold.PLP.Chemscore.Metal>
0.0000

> <Gold.Chemscore.Hbonds>
donor molecule, donor type, donor heavy atom, donor atom, acceptor molecule, acceptor atom, score
      L1  H     3    16       P1  7948  1.00
      L1  H    10    26       P1  7948  1.00
      P1  H  7989  7998       L1     8  0.98
      L1  C    13    27       P1 10186  0.96

> <Gold.PLP.Chemscore.Internal.Correction>
0.0067

> <Gold.Rescore>
     Score         DG    S(hbond)    S(metal)    S(lipo)     H(rot)  DE(clash)    DE(int)     intcor
     15.77     -16.96       2.60        0.00      52.79       1.32       0.06       1.12       ----

> <Gold.Chemscore.Fitness>
15.7732

> <Gold.Chemscore.DG>
-16.9552

> <Gold.Chemscore.ZeroCoef>
-5.4800

> <Gold.Chemscore.Hbond>
2.5953

> <Gold.Chemscore.Metal>
0.0000

> <Gold.Chemscore.Lipo>
52.7944

> <Gold.Chemscore.Internal_Hbond>
0.0000

> <Gold.Chemscore.DEClash>
0.0611

> <Gold.Chemscore.DEInternal>
1.1209

> <Gold.Chemscore.Rot>
1.3163

> <Gold.Chemscore.Internal.Correction>
   9.000000E+99

> <Gold.Chemscore.Hbonds>
donor molecule, donor type, donor heavy atom, donor atom, acceptor molecule, acceptor atom, score
      L1  H     3    16       P1  7948  0.98
      L1  H    10    26       P1  7948  0.98
      P1  H  7989  7998       L1     8  0.27

> <Gold.Chemscore.Hbond.Weighted>
-8.6681

> <Gold.Chemscore.Metal.Weighted>
-0.0000

> <Gold.Chemscore.Lipo.Weighted>
-6.1769

> <Gold.Chemscore.Internal_Hbond.Weighted>
0.0000

> <Gold.Chemscore.DEClash.Weighted>
0.0611

> <Gold.Chemscore.DEInternal.Weighted>
1.1209

> <Gold.Chemscore.Rot.Weighted>
3.3698

> <Gold.Chemscore.Internal.Correction.Weighted>
   9.000000E+99

> <Gold.Protein.RotatedTorsions>
[ 6907 6896 6895 6894 ] final   86.48 input  -60.11 | X-H torsion
[ 7974 7965 7964 7962 ] final  -83.76 input  175.53 | X-H torsion
[ 8008 7997 7996 7995 ] final  131.02 input   59.86 | X-H torsion
[ 10167 10162 10161 10158 ] final   62.83 input  -65.29 | X-H torsion
[ 10718 10713 10712 10709 ] final  115.41 input   66.30 | X-H torsion
[ 10763 10752 10751 10750 ] final   79.69 input  -60.55 | X-H torsion
[ 11005 11000 10999 10996 ] final -159.13 input  -57.11 | X-H torsion

> <Gold.Protein.ActiveResidues>
 VAL166  LYS551  ARG553  GLY616  TRP617  ASP618  TYR619  PRO620  LYS621  CYS622 
 ASP623  PHE694  ASN695  SER759  ASP760  ASP761  ALA762  ILE779  LEU786  VAL792 
 PHE793  MET794  SER795  GLU796  ALA797  LYS798  CYS799  TRP800  GLU811  SER814 

> <Gold.Protein.RotatedAtoms>
  152.5395  134.2425  159.8867 H   0  0  0  0  0  0  0  0  0  0  0  0  # atno 6907 bound_to 6896
  151.2391  133.4402  159.2614 H   0  0  0  0  0  0  0  0  0  0  0  0  # atno 6908 bound_to 6896
  151.0643  134.9771  159.8332 H   0  0  0  0  0  0  0  0  0  0  0  0  # atno 6909 bound_to 6896
  145.5156  140.9536  143.1683 H   0  0  0  0  0  0  0  0  0  0  0  0  # atno 7974 bound_to 7965
  156.2964  140.2581  156.2858 H   0  0  0  0  0  0  0  0  0  0  0  0  # atno 8008 bound_to 7997
  154.9558  140.0393  157.2184 H   0  0  0  0  0  0  0  0  0  0  0  0  # atno 8009 bound_to 7997
  154.7993  140.2825  155.5937 H   0  0  0  0  0  0  0  0  0  0  0  0  # atno 8010 bound_to 7997
  140.1397  144.4565  150.6818 H   0  0  0  0  0  0  0  0  0  0  0  0  # atno 10167 bound_to 10162
  157.6224  131.1012  150.7325 H   0  0  0  0  0  0  0  0  0  0  0  0  # atno 10718 bound_to 10713
  153.0973  135.4830  154.8802 H   0  0  0  0  0  0  0  0  0  0  0  0  # atno 10763 bound_to 10752
  154.7339  135.3066  154.8847 H   0  0  0  0  0  0  0  0  0  0  0  0  # atno 10764 bound_to 10752
  153.9474  135.6827  153.4797 H   0  0  0  0  0  0  0  0  0  0  0  0  # atno 10765 bound_to 10752
  140.6460  134.4501  157.5234 H   0  0  0  0  0  0  0  0  0  0  0  0  # atno 11005 bound_to 11000
  144.7703  139.6749  143.7197 LP  0  0  0  0  0  0  0  0  0  0  0  0  # atno 17320 bound_to 7965
  146.2139  139.5514  142.9663 LP  0  0  0  0  0  0  0  0  0  0  0  0  # atno 17321 bound_to 7965
  140.6768  143.2308  151.5487 LP  0  0  0  0  0  0  0  0  0  0  0  0  # atno 17342 bound_to 10162
  139.5478  144.2475  152.1475 LP  0  0  0  0  0  0  0  0  0  0  0  0  # atno 17343 bound_to 10162
  156.7680  130.4820  149.5424 LP  0  0  0  0  0  0  0  0  0  0  0  0  # atno 17370 bound_to 10713
  156.1376  130.6222  151.0422 LP  0  0  0  0  0  0  0  0  0  0  0  0  # atno 17371 bound_to 10713
  139.9063  134.8443  156.1695 LP  0  0  0  0  0  0  0  0  0  0  0  0  # atno 17394 bound_to 11000
  141.0572  133.6859  156.1882 LP  0  0  0  0  0  0  0  0  0  0  0  0  # atno 17395 bound_to 11000

$$$$
