AV-unprocessed.smi:3142|AV-procd|sdf|11971|dock4
  -GOLD-   2272017373D 1   1.00000     0.00000
 Structure written by MMmdl.
 36 38  0  0  0  0  0  0  0  0  1 V2000
  150.9332  137.7148  158.0758 C   0  0  0  0  0  0  0  0  0  0  0  0
  150.6496  139.1811  157.6964 C   0  0  1  0  0  0  0  0  0  0  0  0
  151.7436  140.1443  158.1808 C   0  0  0  0  0  0  0  0  0  0  0  0
  152.9289  139.9283  157.9257 O   0  0  0  0  0  0  0  0  0  0  0  0
  151.3223  141.2130  158.8754 N   0  0  0  0  0  0  0  0  0  0  0  0
  152.1695  142.2752  159.4061 C   0  0  0  0  0  0  0  0  0  0  0  0
  152.3595  142.1750  160.9111 C   0  0  0  0  0  0  0  0  0  0  0  0
  152.8437  143.3540  161.7223 C   0  0  0  0  0  0  0  0  0  0  0  0
  153.7358  142.1490  161.5338 C   0  0  0  0  0  0  0  0  0  0  0  0
  151.6350  143.6454  159.0322 C   0  0  0  0  0  0  0  0  0  0  0  0
  151.5860  144.0954  157.5919 C   0  0  0  0  0  0  0  0  0  0  0  0
  152.5516  144.7475  158.5563 C   0  0  0  0  0  0  0  0  0  0  0  0
  150.4505  139.3336  156.2620 N   0  0  0  0  0  0  0  0  0  0  0  0
  150.3246  138.3291  155.3074 C   0  0  0  0  0  0  0  0  0  0  0  0
  150.1818  138.9556  154.0903 C   0  0  0  0  0  0  0  0  0  0  0  0
  150.2305  140.3360  154.2656 N   0  0  0  0  0  0  0  0  0  0  0  0
  150.3964  140.4832  155.5736 C   0  0  0  0  0  0  0  0  0  0  0  0
  151.0366  137.6009  159.1554 H   0  0  0  0  0  0  0  0  0  0  0  0
  151.8483  137.3419  157.6144 H   0  0  0  0  0  0  0  0  0  0  0  0
  150.1164  137.0666  157.7569 H   0  0  0  0  0  0  0  0  0  0  0  0
  149.7192  139.4679  158.1900 H   0  0  0  0  0  0  0  0  0  0  0  0
  150.3298  141.3077  159.0344 H   0  0  0  0  0  0  0  0  0  0  0  0
  153.1546  142.1852  158.9434 H   0  0  0  0  0  0  0  0  0  0  0  0
  151.6110  141.5523  161.3979 H   0  0  0  0  0  0  0  0  0  0  0  0
  153.1183  144.2632  161.1915 H   0  0  0  0  0  0  0  0  0  0  0  0
  152.4000  143.5038  162.7043 H   0  0  0  0  0  0  0  0  0  0  0  0
  153.8860  141.4933  162.3890 H   0  0  0  0  0  0  0  0  0  0  0  0
  154.5963  142.2634  160.8777 H   0  0  0  0  0  0  0  0  0  0  0  0
  150.7987  143.9660  159.6511 H   0  0  0  0  0  0  0  0  0  0  0  0
  152.0018  143.4298  156.8380 H   0  0  0  0  0  0  0  0  0  0  0  0
  150.7195  144.6733  157.2769 H   0  0  0  0  0  0  0  0  0  0  0  0
  152.3298  145.7609  158.8842 H   0  0  0  0  0  0  0  0  0  0  0  0
  153.6080  144.5176  158.4338 H   0  0  0  0  0  0  0  0  0  0  0  0
  150.3473  137.2805  155.5654 H   0  0  0  0  0  0  0  0  0  0  0  0
  150.0560  138.5220  153.1092 H   0  0  0  0  0  0  0  0  0  0  0  0
  150.4824  141.4526  156.0421 H   0  0  0  0  0  0  0  0  0  0  0  0
  1  2  1  0  0  0  0
  1 18  1  0  0  0  0
  1 19  1  0  0  0  0
  1 20  1  0  0  0  0
  2  3  1  0  0  0  0
  2 13  1  0  0  0  0
  2 21  1  0  0  0  0
  3  4  2  0  0  0  0
  3  5  1  0  0  0  0
  5  6  1  0  0  0  0
  5 22  1  0  0  0  0
  6  7  1  0  0  0  0
  6 10  1  0  0  0  0
  6 23  1  0  0  0  0
  7  9  1  0  0  0  0
  7  8  1  0  0  0  0
  7 24  1  0  0  0  0
  8  9  1  0  0  0  0
  8 25  1  0  0  0  0
  8 26  1  0  0  0  0
  9 27  1  0  0  0  0
  9 28  1  0  0  0  0
 10 12  1  0  0  0  0
 10 11  1  0  0  0  0
 10 29  1  0  0  0  0
 11 12  1  0  0  0  0
 11 30  1  0  0  0  0
 11 31  1  0  0  0  0
 12 32  1  0  0  0  0
 12 33  1  0  0  0  0
 13 17  1  0  0  0  0
 13 14  1  0  0  0  0
 14 15  2  0  0  0  0
 14 34  1  0  0  0  0
 15 16  1  0  0  0  0
 15 35  1  0  0  0  0
 16 17  2  0  0  0  0
 17 36  1  0  0  0  0
M  END
> <s_m_source_file>
AV-unprocessed.smi

> <i_m_source_file_index>
3142

> <i_lp_mmshare_version>
43012

> <i_f3d_flags>
0

> <s_epik_input>
W2NIXTFuW2NIXVtjSF1uMVtDQEhdKFtDSDNdKUMoPU8pW05IXVtDSF0oW0NIXTJbQ0gyXVtDSDJdMilbQ0hdM1tDSDJdW0NIMl0z

> <s_epik_cmdline>
J2VwaWtfcHl0aG9uJywgJy1waCcsICc3LjAnLCAnLXRuJywgJzgnLCAnLW1hJywgJzIwMCcsICctbWV0YWxfYmluZGluZycsICctaW1hZScsICc8aW5maWxlLm1hZT4nLCAnLW9tYWUnLCAnPG91dGZpbGUubWFlPic=

> <r_lp_tautomer_probability>
1

> <r_epik_Ionization_Penalty>
0.32285

> <r_epik_Ionization_Penalty_Charging>
0.32285

> <r_epik_Ionization_Penalty_Neutral>
3.37967e-08

> <r_epik_State_Penalty>
0.317502

> <r_epik_Charging_Adjusted_Penalty>
0.640352

> <i_epik_Tot_Q>
0

> <i_epik_Tot_abs_Q>
0

> <r_epik_Metal_State_Penalty>
0.20415

> <b_epik_Metal_Only>
0

> <s_lp_Force_Field>
OPLS_2005

> <r_lp_Energy>
29.1263

> <b_lp_Chiralities_Consistent>
1

> <s_lp_Variant>
AV-unprocessed.smi:3142-2

> <Gold.Version>
5.8.1

> <Gold.Id.Protein>
6NUR|6NUR_protein|mol2

> <Gold.PLP.Fitness>
44.8804

> <Gold.PLP.PLP>
-37.9841

> <Gold.PLP.part.hbond>
-1.9936

> <Gold.PLP.part.metal>
0.0000

> <Gold.PLP.part.buried>
-4.3150

> <Gold.PLP.part.nonpolar>
-32.3549

> <Gold.PLP.part.repulsive>
0.2800

> <Gold.PLP.ligand.clash>
0.0000

> <Gold.PLP.ligand.torsion>
2.1827

> <Gold.PLP.Chemscore.Hbond>
2.0000

> <Gold.PLP.Chemscore.CHOScore>
1.0068

> <Gold.PLP.Chemscore.Metal>
0.0000

> <Gold.Chemscore.Hbonds>
donor molecule, donor type, donor heavy atom, donor atom, acceptor molecule, acceptor atom, score
      P1  H  7989  7998       L1    16  0.96
      P1  H  7997  8008       L1     4  0.96
      L1  C    15    35       P1  7948  0.37
      L1  C    15    35       P1  7957  0.80

> <Gold.PLP.Chemscore.Internal.Correction>
2.2411

> <Gold.Rescore>
     Score         DG    S(hbond)    S(metal)    S(lipo)     H(rot)  DE(clash)    DE(int)     intcor
     17.12     -19.24       1.86        0.00     104.96       1.85       0.05       2.07       ----

> <Gold.Chemscore.Fitness>
17.1184

> <Gold.Chemscore.DG>
-19.2385

> <Gold.Chemscore.ZeroCoef>
-5.4800

> <Gold.Chemscore.Hbond>
1.8608

> <Gold.Chemscore.Metal>
0.0000

> <Gold.Chemscore.Lipo>
104.9636

> <Gold.Chemscore.Internal_Hbond>
0.0000

> <Gold.Chemscore.DEClash>
0.0458

> <Gold.Chemscore.DEInternal>
2.0743

> <Gold.Chemscore.Rot>
1.8505

> <Gold.Chemscore.Internal.Correction>
   9.000000E+99

> <Gold.Chemscore.Hbonds>
donor molecule, donor type, donor heavy atom, donor atom, acceptor molecule, acceptor atom, score
      P1  H  7989  7998       L1    16  0.39
      P1  H  7997  8008       L1     4  0.92

> <Gold.Chemscore.Hbond.Weighted>
-6.2151

> <Gold.Chemscore.Metal.Weighted>
-0.0000

> <Gold.Chemscore.Lipo.Weighted>
-12.2807

> <Gold.Chemscore.Internal_Hbond.Weighted>
0.0000

> <Gold.Chemscore.DEClash.Weighted>
0.0458

> <Gold.Chemscore.DEInternal.Weighted>
2.0743

> <Gold.Chemscore.Rot.Weighted>
4.7373

> <Gold.Chemscore.Internal.Correction.Weighted>
   9.000000E+99

> <Gold.Protein.RotatedTorsions>
[ 6907 6896 6895 6894 ] final   52.08 input  -60.11 | X-H torsion
[ 7974 7965 7964 7962 ] final   68.02 input  175.53 | X-H torsion
[ 8008 7997 7996 7995 ] final  -92.44 input   59.86 | X-H torsion
[ 10167 10162 10161 10158 ] final -138.77 input  -65.29 | X-H torsion
[ 10718 10713 10712 10709 ] final   53.41 input   66.30 | X-H torsion
[ 10763 10752 10751 10750 ] final  -56.40 input  -60.55 | X-H torsion
[ 11005 11000 10999 10996 ] final   -3.79 input  -57.11 | X-H torsion

> <Gold.Protein.ActiveResidues>
 VAL166  LYS551  ARG553  GLY616  TRP617  ASP618  TYR619  PRO620  LYS621  CYS622 
 ASP623  PHE694  ASN695  SER759  ASP760  ASP761  ALA762  ILE779  LEU786  VAL792 
 PHE793  MET794  SER795  GLU796  ALA797  LYS798  CYS799  TRP800  GLU811  SER814 

> <Gold.Protein.RotatedAtoms>
  152.3195  134.7398  160.0316 H   0  0  0  0  0  0  0  0  0  0  0  0  # atno 6907 bound_to 6896
  151.7851  133.3348  159.3491 H   0  0  0  0  0  0  0  0  0  0  0  0  # atno 6908 bound_to 6896
  150.7362  134.5825  159.5990 H   0  0  0  0  0  0  0  0  0  0  0  0  # atno 6909 bound_to 6896
  145.8076  139.3015  143.1118 H   0  0  0  0  0  0  0  0  0  0  0  0  # atno 7974 bound_to 7965
  154.7232  140.0509  157.0659 H   0  0  0  0  0  0  0  0  0  0  0  0  # atno 8008 bound_to 7997
  155.0400  140.3167  155.4709 H   0  0  0  0  0  0  0  0  0  0  0  0  # atno 8009 bound_to 7997
  156.2822  140.2134  156.5523 H   0  0  0  0  0  0  0  0  0  0  0  0  # atno 8010 bound_to 7997
  139.8446  143.7278  152.2661 H   0  0  0  0  0  0  0  0  0  0  0  0  # atno 10167 bound_to 10162
  157.5164  130.8535  149.8502 H   0  0  0  0  0  0  0  0  0  0  0  0  # atno 10718 bound_to 10713
  154.2061  135.6402  153.5101 H   0  0  0  0  0  0  0  0  0  0  0  0  # atno 10763 bound_to 10752
  153.0000  135.5463  154.6264 H   0  0  0  0  0  0  0  0  0  0  0  0  # atno 10764 bound_to 10752
  154.5690  135.2915  155.0820 H   0  0  0  0  0  0  0  0  0  0  0  0  # atno 10765 bound_to 10752
  140.6731  133.9219  155.8507 H   0  0  0  0  0  0  0  0  0  0  0  0  # atno 11005 bound_to 11000
  145.9811  140.8682  143.0114 LP  0  0  0  0  0  0  0  0  0  0  0  0  # atno 17320 bound_to 7965
  144.6761  140.2081  143.7380 LP  0  0  0  0  0  0  0  0  0  0  0  0  # atno 17321 bound_to 7965
  139.7525  144.7530  151.0484 LP  0  0  0  0  0  0  0  0  0  0  0  0  # atno 17342 bound_to 10162
  140.7794  143.4843  150.9977 LP  0  0  0  0  0  0  0  0  0  0  0  0  # atno 17343 bound_to 10162
  156.0323  130.3761  150.1653 LP  0  0  0  0  0  0  0  0  0  0  0  0  # atno 17370 bound_to 10713
  156.9842  130.9873  151.3430 LP  0  0  0  0  0  0  0  0  0  0  0  0  # atno 17371 bound_to 10713
  141.0376  134.0667  157.3940 LP  0  0  0  0  0  0  0  0  0  0  0  0  # atno 17394 bound_to 11000
  139.8975  135.0150  156.7104 LP  0  0  0  0  0  0  0  0  0  0  0  0  # atno 17395 bound_to 11000

$$$$
