AV-unprocessed.smi:265|AV-procd|sdf|2021|dock9
  -GOLD-   2262021223D 1   1.00000     0.00000
 Structure written by MMmdl.
 52 56  0  0  0  0  0  0  0  0  1 V2000
  150.5441  141.8709  156.4103 C   0  0  0  0  0  0  0  0  0  0  0  0
  149.5724  140.8034  155.8803 C   0  0  2  0  0  0  0  0  0  0  0  0
  149.7280  140.7386  154.4637 O   0  0  0  0  0  0  0  0  0  0  0  0
  148.4668  140.5035  153.8626 C   0  0  0  0  0  0  0  0  0  0  0  0
  147.5299  141.3254  154.7318 C   0  0  0  0  0  0  0  0  0  0  0  0
  148.0607  141.0549  156.1389 C   0  0  2  0  0  0  0  0  0  0  0  0
  147.8250  142.2031  156.9356 O   0  0  0  0  0  0  0  0  0  0  0  0
  147.4056  139.8309  156.8340 C   0  0  0  0  0  0  0  0  0  0  0  0
  147.3924  138.6162  156.0318 N   0  0  0  0  0  0  0  0  0  0  0  0
  148.3253  137.6038  156.0606 C   0  0  0  0  0  0  0  0  0  0  0  0
  148.0926  136.6080  155.2503 N   0  0  0  0  0  0  0  0  0  0  0  0
  146.9026  136.9536  154.6205 C   0  0  0  0  0  0  0  0  0  0  0  0
  146.0825  136.3270  153.6400 C   0  0  0  0  0  0  0  0  0  0  0  0
  146.3983  135.1336  153.0757 N   0  0  0  0  0  0  0  0  0  0  0  0
  146.6208  133.9956  153.9671 C   0  0  0  0  0  0  0  0  0  0  0  0
  147.3558  132.8651  153.2311 C   0  0  0  0  0  0  0  0  0  0  0  0
  146.6389  132.4677  151.9302 C   0  0  1  0  0  0  0  0  0  0  0  0
  145.3966  131.8413  152.2229 O   0  0  0  0  0  0  0  0  0  0  0  0
  144.7520  131.2781  151.0788 C   0  0  0  0  0  0  0  0  0  0  0  0
  144.6828  132.2660  149.8994 C   0  0  0  0  0  0  0  0  0  0  0  0
  143.9196  132.0483  148.9613 O   0  0  0  0  0  0  0  0  0  0  0  0
  145.5026  133.3294  149.9160 N   0  0  0  0  0  0  0  0  0  0  0  0
  146.3425  133.7013  151.0498 C   0  0  1  0  0  0  0  0  0  0  0  0
  145.6544  134.8209  151.8572 C   0  0  0  0  0  0  0  0  0  0  0  0
  144.9430  136.9729  153.2734 N   0  0  0  0  0  0  0  0  0  0  0  0
  144.6287  138.1511  153.8198 C   0  0  0  0  0  0  0  0  0  0  0  0
  145.3001  138.8512  154.7360 N   0  0  0  0  0  0  0  0  0  0  0  0
  146.4424  138.2084  155.1111 C   0  0  0  0  0  0  0  0  0  0  0  0
  147.2698  131.7599  151.3889 H   0  0  0  0  0  0  0  0  0  0  0  0
  147.2845  134.0856  150.6565 H   0  0  0  0  0  0  0  0  0  0  0  0
  150.4879  141.9537  157.4960 H   0  0  0  0  0  0  0  0  0  0  0  0
  150.3283  142.8510  155.9834 H   0  0  0  0  0  0  0  0  0  0  0  0
  151.5730  141.6185  156.1534 H   0  0  0  0  0  0  0  0  0  0  0  0
  149.8658  139.8356  156.2898 H   0  0  0  0  0  0  0  0  0  0  0  0
  148.4554  140.8136  152.8177 H   0  0  0  0  0  0  0  0  0  0  0  0
  148.2230  139.4413  153.9127 H   0  0  0  0  0  0  0  0  0  0  0  0
  147.6534  142.3788  154.4740 H   0  0  0  0  0  0  0  0  0  0  0  0
  146.4804  141.0779  154.5813 H   0  0  0  0  0  0  0  0  0  0  0  0
  147.9459  142.9715  156.3991 H   0  0  0  0  0  0  0  0  0  0  0  0
  147.9256  139.6065  157.7662 H   0  0  0  0  0  0  0  0  0  0  0  0
  146.3773  140.0651  157.1136 H   0  0  0  0  0  0  0  0  0  0  0  0
  149.1938  137.6303  156.7029 H   0  0  0  0  0  0  0  0  0  0  0  0
  147.2091  134.3037  154.8328 H   0  0  0  0  0  0  0  0  0  0  0  0
  145.6608  133.6364  154.3404 H   0  0  0  0  0  0  0  0  0  0  0  0
  148.3676  133.1958  152.9933 H   0  0  0  0  0  0  0  0  0  0  0  0
  147.4607  131.9976  153.8831 H   0  0  0  0  0  0  0  0  0  0  0  0
  145.2925  130.3860  150.7604 H   0  0  0  0  0  0  0  0  0  0  0  0
  143.7456  130.9647  151.3572 H   0  0  0  0  0  0  0  0  0  0  0  0
  145.4854  133.9587  149.1263 H   0  0  0  0  0  0  0  0  0  0  0  0
  144.6481  134.5106  152.1437 H   0  0  0  0  0  0  0  0  0  0  0  0
  145.5356  135.7006  151.2255 H   0  0  0  0  0  0  0  0  0  0  0  0
  143.7077  138.5964  153.4734 H   0  0  0  0  0  0  0  0  0  0  0  0
  1  2  1  0  0  0  0
  1 31  1  0  0  0  0
  1 32  1  0  0  0  0
  1 33  1  0  0  0  0
  2  6  1  0  0  0  0
  2  3  1  0  0  0  0
  2 34  1  0  0  0  0
  3  4  1  0  0  0  0
  4  5  1  0  0  0  0
  4 35  1  0  0  0  0
  4 36  1  0  0  0  0
  5  6  1  0  0  0  0
  5 37  1  0  0  0  0
  5 38  1  0  0  0  0
  6  7  1  0  0  0  0
  6  8  1  0  0  0  0
  7 39  1  0  0  0  0
  8  9  1  0  0  0  0
  8 40  1  0  0  0  0
  8 41  1  0  0  0  0
  9 28  1  0  0  0  0
  9 10  1  0  0  0  0
 10 11  2  0  0  0  0
 10 42  1  0  0  0  0
 11 12  1  0  0  0  0
 12 28  2  0  0  0  0
 12 13  1  0  0  0  0
 13 14  1  0  0  0  0
 13 25  2  0  0  0  0
 14 24  1  0  0  0  0
 14 15  1  0  0  0  0
 15 16  1  0  0  0  0
 15 43  1  0  0  0  0
 15 44  1  0  0  0  0
 16 17  1  0  0  0  0
 16 45  1  0  0  0  0
 16 46  1  0  0  0  0
 17 29  1  0  0  0  0
 17 23  1  0  0  0  0
 17 18  1  0  0  0  0
 18 19  1  0  0  0  0
 19 20  1  0  0  0  0
 19 47  1  0  0  0  0
 19 48  1  0  0  0  0
 20 21  2  0  0  0  0
 20 22  1  0  0  0  0
 22 23  1  0  0  0  0
 22 49  1  0  0  0  0
 23 30  1  0  0  0  0
 23 24  1  0  0  0  0
 24 50  1  0  0  0  0
 24 51  1  0  0  0  0
 25 26  1  0  0  0  0
 26 27  2  0  0  0  0
 26 52  1  0  0  0  0
 27 28  1  0  0  0  0
M  END
> <s_m_source_file>
AV-unprocessed.smi

> <i_m_source_file_index>
265

> <i_lp_mmshare_version>
43012

> <i_f3d_flags>
0

> <s_epik_input>
W0NIMl0xW0NIMl1PW0NAQEhdKFtDSDNdKVtDQEBdMShbT0hdKVtDSDJdbihbY0hdbjIpYyhjMjMpbltjSF1uYzNOKFtDSDJdW0NIMl00KVtDSDJdW0NAQEhdKFtDQEhdNDUpW05IXUMoPU8pW0NIMl1PNQ==

> <s_epik_cmdline>
J2VwaWtfcHl0aG9uJywgJy1waCcsICc3LjAnLCAnLXRuJywgJzgnLCAnLW1hJywgJzIwMCcsICctbWV0YWxfYmluZGluZycsICctaW1hZScsICc8aW5maWxlLm1hZT4nLCAnLW9tYWUnLCAnPG91dGZpbGUubWFlPic=

> <r_lp_tautomer_probability>
1

> <r_epik_Ionization_Penalty>
0.00221504

> <r_epik_Ionization_Penalty_Charging>
0

> <r_epik_Ionization_Penalty_Neutral>
0.00221504

> <r_epik_State_Penalty>
-0

> <r_epik_Charging_Adjusted_Penalty>
0

> <i_epik_Tot_Q>
0

> <i_epik_Tot_abs_Q>
0

> <r_epik_Metal_State_Penalty>
-0

> <b_epik_Metal_Only>
0

> <s_lp_Force_Field>
OPLS_2005

> <r_lp_Energy>
45.2978

> <b_lp_Chiralities_Consistent>
1

> <s_lp_Variant>
AV-unprocessed.smi:265-7

> <Gold.Version>
5.8.1

> <Gold.Id.Protein>
6NUR|6NUR_protein|mol2

> <Gold.PLP.Fitness>
42.3835

> <Gold.PLP.PLP>
-29.6901

> <Gold.PLP.part.hbond>
-4.0000

> <Gold.PLP.part.metal>
0.0000

> <Gold.PLP.part.buried>
-3.1986

> <Gold.PLP.part.nonpolar>
-24.6795

> <Gold.PLP.part.repulsive>
2.2626

> <Gold.PLP.ligand.clash>
0.0000

> <Gold.PLP.ligand.torsion>
0.6254

> <Gold.PLP.Chemscore.Hbond>
3.5792

> <Gold.PLP.Chemscore.CHOScore>
0.9430

> <Gold.PLP.Chemscore.Metal>
0.0000

> <Gold.Chemscore.Hbonds>
donor molecule, donor type, donor heavy atom, donor atom, acceptor molecule, acceptor atom, score
      L1  H     7    39       P1  8028  0.83
      L1  H    22    49       P1  7921  1.00
      P1  H  7989  7998       L1     3  0.53
      P1  H 10785 10796       L1    21  0.67
      L1  C    26    52       P1 10175  0.86

> <Gold.PLP.Chemscore.Internal.Correction>
0.3777

> <Gold.Rescore>
     Score         DG    S(hbond)    S(metal)    S(lipo)     H(rot)  DE(clash)    DE(int)     intcor
     14.28     -16.45       2.78        0.00      63.46       2.25       0.96       1.21       ----

> <Gold.Chemscore.Fitness>
14.2811

> <Gold.Chemscore.DG>
-16.4521

> <Gold.Chemscore.ZeroCoef>
-5.4800

> <Gold.Chemscore.Hbond>
2.7829

> <Gold.Chemscore.Metal>
0.0000

> <Gold.Chemscore.Lipo>
63.4642

> <Gold.Chemscore.Internal_Hbond>
0.0000

> <Gold.Chemscore.DEClash>
0.9645

> <Gold.Chemscore.DEInternal>
1.2065

> <Gold.Chemscore.Rot>
2.2453

> <Gold.Chemscore.Internal.Correction>
   9.000000E+99

> <Gold.Chemscore.Hbonds>
donor molecule, donor type, donor heavy atom, donor atom, acceptor molecule, acceptor atom, score
      L1  H     7    39       P1  8028  0.28
      L1  H    22    49       P1  7921  0.69
      P1  H  7989  7998       L1     3  0.53
      P1  H 10785 10796       L1    21  0.59

> <Gold.Chemscore.Hbond.Weighted>
-9.2947

> <Gold.Chemscore.Metal.Weighted>
-0.0000

> <Gold.Chemscore.Lipo.Weighted>
-7.4253

> <Gold.Chemscore.Internal_Hbond.Weighted>
0.0000

> <Gold.Chemscore.DEClash.Weighted>
0.9645

> <Gold.Chemscore.DEInternal.Weighted>
1.2065

> <Gold.Chemscore.Rot.Weighted>
5.7479

> <Gold.Chemscore.Internal.Correction.Weighted>
   9.000000E+99

> <Gold.Protein.RotatedTorsions>
[ 6907 6896 6895 6894 ] final   23.75 input  -60.11 | X-H torsion
[ 7974 7965 7964 7962 ] final   32.82 input  175.53 | X-H torsion
[ 8008 7997 7996 7995 ] final  -27.23 input   59.86 | X-H torsion
[ 10167 10162 10161 10158 ] final  -27.22 input  -65.29 | X-H torsion
[ 10718 10713 10712 10709 ] final  -65.93 input   66.30 | X-H torsion
[ 10763 10752 10751 10750 ] final  -39.99 input  -60.55 | X-H torsion
[ 11005 11000 10999 10996 ] final -104.82 input  -57.11 | X-H torsion

> <Gold.Protein.ActiveResidues>
 VAL166  LYS551  ARG553  GLY616  TRP617  ASP618  TYR619  PRO620  LYS621  CYS622 
 ASP623  PHE694  ASN695  SER759  ASP760  ASP761  ALA762  ILE779  LEU786  VAL792 
 PHE793  MET794  SER795  GLU796  ALA797  LYS798  CYS799  TRP800  GLU811  SER814 

> <Gold.Protein.RotatedAtoms>
  151.9471  135.0186  160.0539 H   0  0  0  0  0  0  0  0  0  0  0  0  # atno 6907 bound_to 6896
  152.1985  133.4819  159.5054 H   0  0  0  0  0  0  0  0  0  0  0  0  # atno 6908 bound_to 6896
  150.6949  134.1538  159.4193 H   0  0  0  0  0  0  0  0  0  0  0  0  # atno 6909 bound_to 6896
  146.1461  139.6477  142.9130 H   0  0  0  0  0  0  0  0  0  0  0  0  # atno 7974 bound_to 7965
  154.4387  140.1878  156.0900 H   0  0  0  0  0  0  0  0  0  0  0  0  # atno 8008 bound_to 7997
  156.0373  140.3324  155.7179 H   0  0  0  0  0  0  0  0  0  0  0  0  # atno 8009 bound_to 7997
  155.5751  140.0616  157.2788 H   0  0  0  0  0  0  0  0  0  0  0  0  # atno 8010 bound_to 7997
  140.7278  143.4112  151.1103 H   0  0  0  0  0  0  0  0  0  0  0  0  # atno 10167 bound_to 10162
  156.0641  130.4254  150.1635 H   0  0  0  0  0  0  0  0  0  0  0  0  # atno 10718 bound_to 10713
  153.9386  135.6764  153.4744 H   0  0  0  0  0  0  0  0  0  0  0  0  # atno 10763 bound_to 10752
  153.0943  135.4859  154.8746 H   0  0  0  0  0  0  0  0  0  0  0  0  # atno 10764 bound_to 10752
  154.7389  135.3156  154.8720 H   0  0  0  0  0  0  0  0  0  0  0  0  # atno 10765 bound_to 10752
  141.1082  133.8755  157.1658 H   0  0  0  0  0  0  0  0  0  0  0  0  # atno 11005 bound_to 11000
  145.4933  141.0438  143.2581 LP  0  0  0  0  0  0  0  0  0  0  0  0  # atno 17320 bound_to 7965
  144.7848  139.6449  143.7138 LP  0  0  0  0  0  0  0  0  0  0  0  0  # atno 17321 bound_to 7965
  139.7745  143.8445  152.3127 LP  0  0  0  0  0  0  0  0  0  0  0  0  # atno 17342 bound_to 10162
  139.8375  144.7225  150.9373 LP  0  0  0  0  0  0  0  0  0  0  0  0  # atno 17343 bound_to 10162
  156.9698  130.9831  151.3461 LP  0  0  0  0  0  0  0  0  0  0  0  0  # atno 17370 bound_to 10713
  157.5671  130.8285  149.8342 LP  0  0  0  0  0  0  0  0  0  0  0  0  # atno 17371 bound_to 10713
  139.9963  135.0045  157.0090 LP  0  0  0  0  0  0  0  0  0  0  0  0  # atno 17394 bound_to 11000
  140.4845  134.1256  155.7222 LP  0  0  0  0  0  0  0  0  0  0  0  0  # atno 17395 bound_to 11000

$$$$
