AV-unprocessed.smi:261|AV-procd|sdf|1990|dock10
  -GOLD-   2262021173D 1   1.00000     0.00000
 Structure written by MMmdl.
 51 54  0  0  0  0  0  0  0  0  1 V2000
  152.8740  142.8093  161.8336 C   0  0  0  0  0  0  0  0  0  0  0  0
  152.0174  143.1788  160.7651 O   0  0  0  0  0  0  0  0  0  0  0  0
  152.6896  143.3808  159.5276 C   0  0  2  0  0  0  0  0  0  0  0  0
  151.8140  144.1181  158.5054 C   0  0  0  0  0  0  0  0  0  0  0  0
  150.9334  143.0268  157.8751 C   0  0  2  0  0  0  0  0  0  0  0  0
  149.5898  142.8803  158.6211 C   0  0  0  0  0  0  0  0  0  0  0  0
  148.4588  142.8206  157.9097 N   0  0  0  0  0  0  0  0  0  0  0  0
  149.5785  142.8328  159.8490 O   0  0  0  0  0  0  0  0  0  0  0  0
  151.7895  141.8411  157.9376 N   0  0  0  0  0  0  0  0  0  0  0  0
  151.6641  140.7368  157.1496 C   0  0  0  0  0  0  0  0  0  0  0  0
  151.3057  140.9234  155.8512 N   0  0  0  0  0  0  0  0  0  0  0  0
  151.1677  139.8858  155.0222 C   0  0  0  0  0  0  0  0  0  0  0  0
  151.3386  138.5889  155.2763 N   0  0  0  0  0  0  0  0  0  0  0  0
  151.6995  138.3861  156.5747 C   0  0  0  0  0  0  0  0  0  0  0  0
  151.8840  139.3893  157.5714 C   0  0  0  0  0  0  0  0  0  0  0  0
  152.2533  138.7824  158.7680 N   0  0  0  0  0  0  0  0  0  0  0  0
  152.2827  137.5073  158.4973 C   0  0  0  0  0  0  0  0  0  0  0  0
  151.9555  137.1806  157.2027 N   0  0  0  0  0  0  0  0  0  0  0  0
  151.8945  135.8483  156.6302 C   0  0  0  0  0  0  0  0  0  0  0  0
  150.7768  135.6916  155.5770 C   0  0  1  0  0  0  0  0  0  0  0  0
  151.2974  136.1439  154.3432 O   0  0  0  0  0  0  0  0  0  0  0  0
  150.2558  134.2468  155.4076 C   0  0  2  0  0  0  0  0  0  0  0  0
  151.3505  133.1784  155.3598 C   0  0  0  0  0  0  0  0  0  0  0  0
  150.7028  132.0290  154.6039 C   0  0  0  0  0  0  0  0  0  0  0  0
  149.4882  132.6685  153.9283 C   0  0  0  0  0  0  0  0  0  0  0  0
  149.6433  134.0637  154.1396 O   0  0  0  0  0  0  0  0  0  0  0  0
  152.8991  142.0127  158.8711 C   0  0  0  0  0  0  0  0  0  0  0  0
  153.6451  143.8810  159.6942 H   0  0  0  0  0  0  0  0  0  0  0  0
  150.7309  143.3055  156.8411 H   0  0  0  0  0  0  0  0  0  0  0  0
  152.2815  142.6565  162.7356 H   0  0  0  0  0  0  0  0  0  0  0  0
  153.6128  143.5808  162.0492 H   0  0  0  0  0  0  0  0  0  0  0  0
  153.3956  141.8768  161.6150 H   0  0  0  0  0  0  0  0  0  0  0  0
  151.2483  144.9481  158.9289 H   0  0  0  0  0  0  0  0  0  0  0  0
  152.4557  144.5425  157.7320 H   0  0  0  0  0  0  0  0  0  0  0  0
  147.5717  142.7359  158.3842 H   0  0  0  0  0  0  0  0  0  0  0  0
  148.4963  142.8715  156.9022 H   0  0  0  0  0  0  0  0  0  0  0  0
  150.8792  140.1302  154.0106 H   0  0  0  0  0  0  0  0  0  0  0  0
  152.5357  136.7668  159.2420 H   0  0  0  0  0  0  0  0  0  0  0  0
  152.8657  135.6267  156.1857 H   0  0  0  0  0  0  0  0  0  0  0  0
  151.7522  135.1323  157.4410 H   0  0  0  0  0  0  0  0  0  0  0  0
  149.9417  136.3439  155.8359 H   0  0  0  0  0  0  0  0  0  0  0  0
  150.5943  136.1722  153.7125 H   0  0  0  0  0  0  0  0  0  0  0  0
  149.5357  134.0058  156.1922 H   0  0  0  0  0  0  0  0  0  0  0  0
  152.2091  133.5463  154.7962 H   0  0  0  0  0  0  0  0  0  0  0  0
  151.6997  132.8880  156.3509 H   0  0  0  0  0  0  0  0  0  0  0  0
  151.3937  131.6012  153.8770 H   0  0  0  0  0  0  0  0  0  0  0  0
  150.3896  131.2331  155.2803 H   0  0  0  0  0  0  0  0  0  0  0  0
  149.4296  132.4388  152.8644 H   0  0  0  0  0  0  0  0  0  0  0  0
  148.5639  132.3340  154.4011 H   0  0  0  0  0  0  0  0  0  0  0  0
  153.8347  142.0080  158.3099 H   0  0  0  0  0  0  0  0  0  0  0  0
  152.9427  141.2101  159.6088 H   0  0  0  0  0  0  0  0  0  0  0  0
  1  2  1  0  0  0  0
  1 30  1  0  0  0  0
  1 31  1  0  0  0  0
  1 32  1  0  0  0  0
  2  3  1  0  0  0  0
  3 28  1  0  0  0  0
  3 27  1  0  0  0  0
  3  4  1  0  0  0  0
  4  5  1  0  0  0  0
  4 33  1  0  0  0  0
  4 34  1  0  0  0  0
  5 29  1  0  0  0  0
  5  6  1  0  0  0  0
  5  9  1  0  0  0  0
  6  7  1  0  0  0  0
  6  8  2  0  0  0  0
  7 35  1  0  0  0  0
  7 36  1  0  0  0  0
  9 10  1  0  0  0  0
  9 27  1  0  0  0  0
 10 15  1  0  0  0  0
 10 11  2  0  0  0  0
 11 12  1  0  0  0  0
 12 13  2  0  0  0  0
 12 37  1  0  0  0  0
 13 14  1  0  0  0  0
 14 18  1  0  0  0  0
 14 15  2  0  0  0  0
 15 16  1  0  0  0  0
 16 17  2  0  0  0  0
 17 18  1  0  0  0  0
 17 38  1  0  0  0  0
 18 19  1  0  0  0  0
 19 20  1  0  0  0  0
 19 39  1  0  0  0  0
 19 40  1  0  0  0  0
 20 21  1  0  0  0  0
 20 22  1  0  0  0  0
 20 41  1  0  0  0  0
 21 42  1  0  0  0  0
 22 26  1  0  0  0  0
 22 23  1  0  0  0  0
 22 43  1  0  0  0  0
 23 24  1  0  0  0  0
 23 44  1  0  0  0  0
 23 45  1  0  0  0  0
 24 25  1  0  0  0  0
 24 46  1  0  0  0  0
 24 47  1  0  0  0  0
 25 26  1  0  0  0  0
 25 48  1  0  0  0  0
 25 49  1  0  0  0  0
 27 50  1  0  0  0  0
 27 51  1  0  0  0  0
M  END
> <s_m_source_file>
AV-unprocessed.smi

> <i_m_source_file_index>
261

> <i_lp_mmshare_version>
43012

> <i_f3d_flags>
0

> <s_epik_input>
W0NIM11PW0NASF0xW0NIMl1bQ0BASF0oQyg9TylbTkgyXSlOKFtDSDJdMSljKG5bY0hdbjIpYyhjMjMpbltjSF1uM1tDSDJdW0NASF0oW09IXSlbQ0BASF00W0NIMl1bQ0gyXVtDSDJdTzQ=

> <s_epik_cmdline>
J2VwaWtfcHl0aG9uJywgJy1waCcsICc3LjAnLCAnLXRuJywgJzgnLCAnLW1hJywgJzIwMCcsICctbWV0YWxfYmluZGluZycsICctaW1hZScsICc8aW5maWxlLm1hZT4nLCAnLW9tYWUnLCAnPG91dGZpbGUubWFlPic=

> <r_lp_tautomer_probability>
1

> <r_epik_Ionization_Penalty>
0.000713824

> <r_epik_Ionization_Penalty_Charging>
0

> <r_epik_Ionization_Penalty_Neutral>
0.000713824

> <r_epik_State_Penalty>
0.000402132

> <r_epik_Charging_Adjusted_Penalty>
0.000402132

> <i_epik_Tot_Q>
0

> <i_epik_Tot_abs_Q>
0

> <r_epik_Metal_State_Penalty>
-0

> <b_epik_Metal_Only>
0

> <s_lp_Force_Field>
OPLS_2005

> <r_lp_Energy>
44.1373

> <b_lp_Chiralities_Consistent>
1

> <s_lp_Variant>
AV-unprocessed.smi:261-8

> <Gold.Version>
5.8.1

> <Gold.Id.Protein>
6NUR|6NUR_protein|mol2

> <Gold.PLP.Fitness>
47.0845

> <Gold.PLP.PLP>
-45.6082

> <Gold.PLP.part.hbond>
-6.1815

> <Gold.PLP.part.metal>
0.0000

> <Gold.PLP.part.buried>
-3.2864

> <Gold.PLP.part.nonpolar>
-36.7852

> <Gold.PLP.part.repulsive>
1.2990

> <Gold.PLP.ligand.clash>
0.0000

> <Gold.PLP.ligand.torsion>
2.0178

> <Gold.PLP.Chemscore.Hbond>
1.7899

> <Gold.PLP.Chemscore.CHOScore>
0.0000

> <Gold.PLP.Chemscore.Metal>
0.0000

> <Gold.Chemscore.Hbonds>
donor molecule, donor type, donor heavy atom, donor atom, acceptor molecule, acceptor atom, score
      L1  H     7    36       P1  8028  0.24
      L1  H    21    42       P1  7949  0.05
      P1  H 10752 10763       L1    21  1.00

> <Gold.PLP.Chemscore.Internal.Correction>
0.1420

> <Gold.Rescore>
     Score         DG    S(hbond)    S(metal)    S(lipo)     H(rot)  DE(clash)    DE(int)     intcor
      8.14     -12.89       1.50        0.00      90.12       3.18       0.40       4.35       ----

> <Gold.Chemscore.Fitness>
8.1399

> <Gold.Chemscore.DG>
-12.8908

> <Gold.Chemscore.ZeroCoef>
-5.4800

> <Gold.Chemscore.Hbond>
1.5015

> <Gold.Chemscore.Metal>
0.0000

> <Gold.Chemscore.Lipo>
90.1222

> <Gold.Chemscore.Internal_Hbond>
0.0000

> <Gold.Chemscore.DEClash>
0.4047

> <Gold.Chemscore.DEInternal>
4.3462

> <Gold.Chemscore.Rot>
3.1831

> <Gold.Chemscore.Internal.Correction>
   9.000000E+99

> <Gold.Chemscore.Hbonds>
donor molecule, donor type, donor heavy atom, donor atom, acceptor molecule, acceptor atom, score
      L1  H     7    36       P1  8028  0.15
      P1  H  6933  6944       L1     8  0.05
      P1  H 10752 10763       L1    21  0.40

> <Gold.Chemscore.Hbond.Weighted>
-5.0151

> <Gold.Chemscore.Metal.Weighted>
-0.0000

> <Gold.Chemscore.Lipo.Weighted>
-10.5443

> <Gold.Chemscore.Internal_Hbond.Weighted>
0.0000

> <Gold.Chemscore.DEClash.Weighted>
0.4047

> <Gold.Chemscore.DEInternal.Weighted>
4.3462

> <Gold.Chemscore.Rot.Weighted>
8.1486

> <Gold.Chemscore.Internal.Correction.Weighted>
   9.000000E+99

> <Gold.Protein.RotatedTorsions>
[ 6907 6896 6895 6894 ] final   37.42 input  -60.11 | X-H torsion
[ 7974 7965 7964 7962 ] final -110.95 input  175.53 | X-H torsion
[ 8008 7997 7996 7995 ] final -154.10 input   59.86 | X-H torsion
[ 10167 10162 10161 10158 ] final   51.26 input  -65.29 | X-H torsion
[ 10718 10713 10712 10709 ] final -138.47 input   66.30 | X-H torsion
[ 10763 10752 10751 10750 ] final   48.80 input  -60.55 | X-H torsion
[ 11005 11000 10999 10996 ] final  -73.87 input  -57.11 | X-H torsion

> <Gold.Protein.ActiveResidues>
 VAL166  LYS551  ARG553  GLY616  TRP617  ASP618  TYR619  PRO620  LYS621  CYS622 
 ASP623  PHE694  ASN695  SER759  ASP760  ASP761  ALA762  ILE779  LEU786  VAL792 
 PHE793  MET794  SER795  GLU796  ALA797  LYS798  CYS799  TRP800  GLU811  SER814 

> <Gold.Protein.RotatedAtoms>
  152.1429  134.9049  160.0552 H   0  0  0  0  0  0  0  0  0  0  0  0  # atno 6907 bound_to 6896
  152.0110  133.3856  159.4228 H   0  0  0  0  0  0  0  0  0  0  0  0  # atno 6908 bound_to 6896
  150.6867  134.3652  159.5012 H   0  0  0  0  0  0  0  0  0  0  0  0  # atno 6909 bound_to 6896
  145.1620  140.8883  143.3585 H   0  0  0  0  0  0  0  0  0  0  0  0  # atno 7974 bound_to 7965
  155.6811  140.0744  157.2484 H   0  0  0  0  0  0  0  0  0  0  0  0  # atno 8008 bound_to 7997
  154.4105  140.1681  156.2035 H   0  0  0  0  0  0  0  0  0  0  0  0  # atno 8009 bound_to 7997
  155.9534  140.3375  155.6430 H   0  0  0  0  0  0  0  0  0  0  0  0  # atno 8010 bound_to 7997
  140.2637  144.3344  150.6310 H   0  0  0  0  0  0  0  0  0  0  0  0  # atno 10167 bound_to 10162
  156.2997  130.7422  151.1470 H   0  0  0  0  0  0  0  0  0  0  0  0  # atno 10718 bound_to 10713
  152.9790  135.5932  154.3985 H   0  0  0  0  0  0  0  0  0  0  0  0  # atno 10763 bound_to 10752
  154.3633  135.2767  155.2309 H   0  0  0  0  0  0  0  0  0  0  0  0  # atno 10764 bound_to 10752
  154.4297  135.6039  153.6116 H   0  0  0  0  0  0  0  0  0  0  0  0  # atno 10765 bound_to 10752
  141.1628  133.6892  156.7277 H   0  0  0  0  0  0  0  0  0  0  0  0  # atno 11005 bound_to 11000
  145.0321  139.3332  143.6019 LP  0  0  0  0  0  0  0  0  0  0  0  0  # atno 17320 bound_to 7965
  146.3481  139.9663  142.8711 LP  0  0  0  0  0  0  0  0  0  0  0  0  # atno 17321 bound_to 7965
  140.5945  143.2167  151.7190 LP  0  0  0  0  0  0  0  0  0  0  0  0  # atno 17342 bound_to 10162
  139.5009  144.3888  152.0301 LP  0  0  0  0  0  0  0  0  0  0  0  0  # atno 17343 bound_to 10162
  157.7365  131.0562  150.5412 LP  0  0  0  0  0  0  0  0  0  0  0  0  # atno 17370 bound_to 10713
  156.5538  130.4238  149.6095 LP  0  0  0  0  0  0  0  0  0  0  0  0  # atno 17371 bound_to 10713
  140.2768  134.8348  157.3897 LP  0  0  0  0  0  0  0  0  0  0  0  0  # atno 17394 bound_to 11000
  140.1470  134.4899  155.7989 LP  0  0  0  0  0  0  0  0  0  0  0  0  # atno 17395 bound_to 11000

$$$$
