AV-unprocessed.smi:2196|AV-procd|sdf|8908|dock4
  -GOLD-   2272012123D 1   1.00000     0.00000
 Structure written by MMmdl.
 45 46  0  0  0  0  0  0  0  0  1 V2000
  147.9196  141.9415  156.7932 C   0  0  0  0  0  0  0  0  0  0  0  0
  148.9695  141.1893  157.6213 C   0  0  0  0  0  0  0  0  0  0  0  0
  150.1489  140.8408  156.8336 N   0  0  0  0  0  0  0  0  0  0  0  0
  151.0463  141.9418  156.4822 C   0  0  0  0  0  0  0  0  0  0  0  0
  151.5948  142.6942  157.6820 C   0  0  0  0  0  0  0  0  0  0  0  0
  152.0864  141.9827  158.7962 C   0  0  0  0  0  0  0  0  0  0  0  0
  152.6232  142.6766  159.8980 C   0  0  0  0  0  0  0  0  0  0  0  0
  152.6713  144.0839  159.8884 C   0  0  0  0  0  0  0  0  0  0  0  0
  152.1828  144.7974  158.7768 C   0  0  0  0  0  0  0  0  0  0  0  0
  151.6453  144.1040  157.6751 C   0  0  0  0  0  0  0  0  0  0  0  0
  150.3494  139.5449  156.3569 C   0  0  0  0  0  0  0  0  0  0  0  0
  149.4595  138.5252  156.5395 C   0  0  0  0  0  0  0  0  0  0  0  0
  148.2990  138.7395  157.2665 N   0  0  0  0  0  0  0  0  0  0  0  0
  149.6756  137.2507  156.0079 N   0  0  0  0  0  0  0  0  0  0  0  0
  148.7446  136.1505  156.1571 C   0  0  0  0  0  0  0  0  0  0  0  0
  149.3529  134.9684  156.9255 C   0  0  0  0  0  0  0  0  0  0  0  0
  149.4639  135.3214  158.2935 O   0  0  0  0  0  0  0  0  0  0  0  0
  148.2071  135.6041  158.8833 C   0  0  0  0  0  0  0  0  0  0  0  0
  150.8231  136.9965  155.2202 C   0  0  0  0  0  0  0  0  0  0  0  0
  151.0540  135.9129  154.6826 O   0  0  0  0  0  0  0  0  0  0  0  0
  151.7209  138.0443  155.0549 N   0  0  0  0  0  0  0  0  0  0  0  0
  151.5753  139.3265  155.5780 C   0  0  0  0  0  0  0  0  0  0  0  0
  152.4424  140.1700  155.3516 O   0  0  0  0  0  0  0  0  0  0  0  0
  152.5437  137.8640  154.4988 H   0  0  0  0  0  0  0  0  0  0  0  0
  147.0408  142.1671  157.3974 H   0  0  0  0  0  0  0  0  0  0  0  0
  147.5923  141.3457  155.9407 H   0  0  0  0  0  0  0  0  0  0  0  0
  148.3095  142.8861  156.4133 H   0  0  0  0  0  0  0  0  0  0  0  0
  149.2729  141.7900  158.4795 H   0  0  0  0  0  0  0  0  0  0  0  0
  148.5170  140.2852  158.0311 H   0  0  0  0  0  0  0  0  0  0  0  0
  151.8683  141.5607  155.8763 H   0  0  0  0  0  0  0  0  0  0  0  0
  150.5246  142.6632  155.8516 H   0  0  0  0  0  0  0  0  0  0  0  0
  152.0611  140.9027  158.8027 H   0  0  0  0  0  0  0  0  0  0  0  0
  153.0017  142.1288  160.7484 H   0  0  0  0  0  0  0  0  0  0  0  0
  153.0853  144.6158  160.7322 H   0  0  0  0  0  0  0  0  0  0  0  0
  152.2232  145.8765  158.7677 H   0  0  0  0  0  0  0  0  0  0  0  0
  151.2816  144.6569  156.8214 H   0  0  0  0  0  0  0  0  0  0  0  0
  148.0887  139.6405  157.6711 H   0  0  0  0  0  0  0  0  0  0  0  0
  147.6560  137.9904  157.4792 H   0  0  0  0  0  0  0  0  0  0  0  0
  147.8391  136.5290  156.6346 H   0  0  0  0  0  0  0  0  0  0  0  0
  148.4332  135.8571  155.1551 H   0  0  0  0  0  0  0  0  0  0  0  0
  148.7202  134.0856  156.8188 H   0  0  0  0  0  0  0  0  0  0  0  0
  150.3363  134.7194  156.5235 H   0  0  0  0  0  0  0  0  0  0  0  0
  148.3453  135.8686  159.9315 H   0  0  0  0  0  0  0  0  0  0  0  0
  147.5470  134.7368  158.8396 H   0  0  0  0  0  0  0  0  0  0  0  0
  147.7177  136.4424  158.3858 H   0  0  0  0  0  0  0  0  0  0  0  0
  1  2  1  0  0  0  0
  1 25  1  0  0  0  0
  1 26  1  0  0  0  0
  1 27  1  0  0  0  0
  2  3  1  0  0  0  0
  2 28  1  0  0  0  0
  2 29  1  0  0  0  0
  3  4  1  0  0  0  0
  3 11  1  0  0  0  0
  4  5  1  0  0  0  0
  4 30  1  0  0  0  0
  4 31  1  0  0  0  0
  5 10  1  0  0  0  0
  5  6  2  0  0  0  0
  6  7  1  0  0  0  0
  6 32  1  0  0  0  0
  7  8  2  0  0  0  0
  7 33  1  0  0  0  0
  8  9  1  0  0  0  0
  8 34  1  0  0  0  0
  9 10  2  0  0  0  0
  9 35  1  0  0  0  0
 10 36  1  0  0  0  0
 11 22  1  0  0  0  0
 11 12  2  0  0  0  0
 12 13  1  0  0  0  0
 12 14  1  0  0  0  0
 13 37  1  0  0  0  0
 13 38  1  0  0  0  0
 14 15  1  0  0  0  0
 14 19  1  0  0  0  0
 15 16  1  0  0  0  0
 15 39  1  0  0  0  0
 15 40  1  0  0  0  0
 16 17  1  0  0  0  0
 16 41  1  0  0  0  0
 16 42  1  0  0  0  0
 17 18  1  0  0  0  0
 18 43  1  0  0  0  0
 18 44  1  0  0  0  0
 18 45  1  0  0  0  0
 19 20  2  0  0  0  0
 19 21  1  0  0  0  0
 21 24  1  0  0  0  0
 21 22  1  0  0  0  0
 22 23  2  0  0  0  0
M  END
> <s_m_source_file>
AV-unprocessed.smi

> <i_m_source_file_index>
2196

> <i_lp_mmshare_version>
43012

> <i_f3d_flags>
0

> <s_epik_input>
W0NIM11PW0NIMl1bQ0gyXW4oYyg9TylbbkhdYzE9TyljKFtOSDJdKWMxTihbQ0gyXVtDSDNdKVtDSDJdYzJbY0hdW2NIXVtjSF1bY0hdW2NIXTI=

> <s_epik_cmdline>
J2VwaWtfcHl0aG9uJywgJy1waCcsICc3LjAnLCAnLXRuJywgJzgnLCAnLW1hJywgJzIwMCcsICctbWV0YWxfYmluZGluZycsICctaW1hZScsICc8aW5maWxlLm1hZT4nLCAnLW9tYWUnLCAnPG91dGZpbGUubWFlPic=

> <r_lp_tautomer_probability>
1

> <r_epik_Ionization_Penalty>
0.000571321

> <r_epik_Ionization_Penalty_Charging>
3.00664e-06

> <r_epik_Ionization_Penalty_Neutral>
0.000568314

> <r_epik_State_Penalty>
-0

> <r_epik_Charging_Adjusted_Penalty>
3.00664e-06

> <i_epik_Tot_Q>
0

> <i_epik_Tot_abs_Q>
0

> <r_epik_Metal_State_Penalty>
-0

> <b_epik_Metal_Only>
0

> <s_lp_Force_Field>
OPLS_2005

> <r_lp_Energy>
20.6449

> <b_lp_Chiralities_Consistent>
1

> <s_lp_Variant>
AV-unprocessed.smi:2196-1

> <Gold.Version>
5.8.1

> <Gold.Id.Protein>
6NUR|6NUR_protein|mol2

> <Gold.PLP.Fitness>
46.1988

> <Gold.PLP.PLP>
-37.3241

> <Gold.PLP.part.hbond>
-3.8571

> <Gold.PLP.part.metal>
0.0000

> <Gold.PLP.part.buried>
-4.3673

> <Gold.PLP.part.nonpolar>
-29.0919

> <Gold.PLP.part.repulsive>
0.3827

> <Gold.PLP.ligand.clash>
21.3695

> <Gold.PLP.ligand.torsion>
0.4771

> <Gold.PLP.Chemscore.Hbond>
3.2249

> <Gold.PLP.Chemscore.CHOScore>
0.0000

> <Gold.PLP.Chemscore.Metal>
0.0000

> <Gold.Chemscore.Hbonds>
donor molecule, donor type, donor heavy atom, donor atom, acceptor molecule, acceptor atom, score
      P1  H  6896  6909       L1    17  1.00
      P1  H  7989  7998       L1    23  0.41
      P1  H  7997  8010       L1    23  0.81
      P1  H 10752 10763       L1    20  1.00

> <Gold.PLP.Chemscore.Internal.Correction>
21.5237

> <Gold.Rescore>
     Score         DG    S(hbond)    S(metal)    S(lipo)     H(rot)  DE(clash)    DE(int)     intcor
     15.41     -20.22       2.89        0.00      88.48       2.06       0.09       4.72       ----

> <Gold.Chemscore.Fitness>
15.4095

> <Gold.Chemscore.DG>
-20.2185

> <Gold.Chemscore.ZeroCoef>
-5.4800

> <Gold.Chemscore.Hbond>
2.8899

> <Gold.Chemscore.Metal>
0.0000

> <Gold.Chemscore.Lipo>
88.4805

> <Gold.Chemscore.Internal_Hbond>
0.0000

> <Gold.Chemscore.DEClash>
0.0901

> <Gold.Chemscore.DEInternal>
4.7189

> <Gold.Chemscore.Rot>
2.0571

> <Gold.Chemscore.Internal.Correction>
   9.000000E+99

> <Gold.Chemscore.Hbonds>
donor molecule, donor type, donor heavy atom, donor atom, acceptor molecule, acceptor atom, score
      P1  H  6896  6909       L1    17  0.84
      P1  H  7989  7998       L1    23  0.08
      P1  H  7997  8010       L1    23  0.77
      P1  H 10752 10763       L1    20  0.82

> <Gold.Chemscore.Hbond.Weighted>
-9.6524

> <Gold.Chemscore.Metal.Weighted>
-0.0000

> <Gold.Chemscore.Lipo.Weighted>
-10.3522

> <Gold.Chemscore.Internal_Hbond.Weighted>
0.0000

> <Gold.Chemscore.DEClash.Weighted>
0.0901

> <Gold.Chemscore.DEInternal.Weighted>
4.7189

> <Gold.Chemscore.Rot.Weighted>
5.2661

> <Gold.Chemscore.Internal.Correction.Weighted>
   9.000000E+99

> <Gold.Protein.RotatedTorsions>
[ 6907 6896 6895 6894 ] final   39.49 input  -60.11 | X-H torsion
[ 7974 7965 7964 7962 ] final -172.67 input  175.53 | X-H torsion
[ 8008 7997 7996 7995 ] final   80.69 input   59.86 | X-H torsion
[ 10167 10162 10161 10158 ] final   83.66 input  -65.29 | X-H torsion
[ 10718 10713 10712 10709 ] final   97.13 input   66.30 | X-H torsion
[ 10763 10752 10751 10750 ] final   57.15 input  -60.55 | X-H torsion
[ 11005 11000 10999 10996 ] final  -74.03 input  -57.11 | X-H torsion

> <Gold.Protein.ActiveResidues>
 VAL166  LYS551  ARG553  GLY616  TRP617  ASP618  TYR619  PRO620  LYS621  CYS622 
 ASP623  PHE694  ASN695  SER759  ASP760  ASP761  ALA762  ILE779  LEU786  VAL792 
 PHE793  MET794  SER795  GLU796  ALA797  LYS798  CYS799  TRP800  GLU811  SER814 

> <Gold.Protein.RotatedAtoms>
  152.1703  134.8840  160.0534 H   0  0  0  0  0  0  0  0  0  0  0  0  # atno 6907 bound_to 6896
  151.9802  133.3750  159.4113 H   0  0  0  0  0  0  0  0  0  0  0  0  # atno 6908 bound_to 6896
  150.6901  134.3970  159.5145 H   0  0  0  0  0  0  0  0  0  0  0  0  # atno 6909 bound_to 6896
  144.7144  140.1738  143.6365 H   0  0  0  0  0  0  0  0  0  0  0  0  # atno 7974 bound_to 7965
  155.8869  140.3441  155.5928 H   0  0  0  0  0  0  0  0  0  0  0  0  # atno 8008 bound_to 7997
  155.7655  140.0838  157.2153 H   0  0  0  0  0  0  0  0  0  0  0  0  # atno 8009 bound_to 7997
  154.4029  140.1528  156.2869 H   0  0  0  0  0  0  0  0  0  0  0  0  # atno 8010 bound_to 7997
  139.9161  144.6242  150.8488 H   0  0  0  0  0  0  0  0  0  0  0  0  # atno 10167 bound_to 10162
  157.6917  131.0600  150.4597 H   0  0  0  0  0  0  0  0  0  0  0  0  # atno 10718 bound_to 10713
  152.9844  135.5651  154.5344 H   0  0  0  0  0  0  0  0  0  0  0  0  # atno 10763 bound_to 10752
  154.4810  135.2788  155.1572 H   0  0  0  0  0  0  0  0  0  0  0  0  # atno 10764 bound_to 10752
  154.3081  135.6294  153.5507 H   0  0  0  0  0  0  0  0  0  0  0  0  # atno 10765 bound_to 10752
  141.1630  133.6898  156.7302 H   0  0  0  0  0  0  0  0  0  0  0  0  # atno 11005 bound_to 11000
  145.8919  139.2381  143.1544 LP  0  0  0  0  0  0  0  0  0  0  0  0  # atno 17320 bound_to 7965
  145.9895  140.8615  143.0074 LP  0  0  0  0  0  0  0  0  0  0  0  0  # atno 17321 bound_to 7965
  140.7674  143.3331  151.2368 LP  0  0  0  0  0  0  0  0  0  0  0  0  # atno 17342 bound_to 10162
  139.6901  143.9706  152.2855 LP  0  0  0  0  0  0  0  0  0  0  0  0  # atno 17343 bound_to 10162
  156.4942  130.4102  149.6389 LP  0  0  0  0  0  0  0  0  0  0  0  0  # atno 17370 bound_to 10713
  156.3388  130.7371  151.2313 LP  0  0  0  0  0  0  0  0  0  0  0  0  # atno 17371 bound_to 10713
  140.2751  134.8361  157.3882 LP  0  0  0  0  0  0  0  0  0  0  0  0  # atno 17394 bound_to 11000
  140.1485  134.4880  155.7978 LP  0  0  0  0  0  0  0  0  0  0  0  0  # atno 17395 bound_to 11000

$$$$
