AV-unprocessed.smi:2526|AV-procd|sdf|9940|dock4
  -GOLD-   2272013583D 1   1.00000     0.00000
 Structure written by MMmdl.
 28 29  0  0  0  0  0  0  0  0  1 V2000
  152.1735  139.2781  155.7591 C   0  0  0  0  0  0  0  0  0  0  0  0
  151.0026  140.0987  155.5355 N   0  0  0  0  0  0  0  0  0  0  0  0
  150.1677  140.1261  154.4401 C   0  0  0  0  0  0  0  0  0  0  0  0
  149.2004  141.0649  154.6778 C   0  0  0  0  0  0  0  0  0  0  0  0
  148.0392  141.5004  153.8045 C   0  0  2  0  0  0  0  0  0  0  0  0
  147.3058  142.6036  154.4317 N   0  0  0  0  0  0  0  0  0  0  0  0
  146.1662  142.5087  155.1427 C   0  0  0  0  0  0  0  0  0  0  0  0
  145.6941  143.4813  155.7267 O   0  0  0  0  0  0  0  0  0  0  0  0
  145.4126  141.1679  155.1828 C   0  0  0  0  0  0  0  0  0  0  0  0
  146.2344  139.9636  154.6896 C   0  0  0  0  0  0  0  0  0  0  0  0
  147.0706  140.3421  153.4608 C   0  0  2  0  0  0  0  0  0  0  0  0
  147.7578  139.1812  152.9238 N   0  0  0  0  0  0  0  0  0  0  0  0
  149.5407  141.5551  155.9723 C   0  0  0  0  0  0  0  0  0  0  0  0
  150.6161  140.9774  156.4816 N   0  0  0  0  0  0  0  0  0  0  0  0
  152.3588  138.6462  154.8901 H   0  0  0  0  0  0  0  0  0  0  0  0
  152.0188  138.6436  156.6323 H   0  0  0  0  0  0  0  0  0  0  0  0
  153.0435  139.9138  155.9262 H   0  0  0  0  0  0  0  0  0  0  0  0
  150.3315  139.4851  153.5864 H   0  0  0  0  0  0  0  0  0  0  0  0
  148.4290  141.8943  152.8652 H   0  0  0  0  0  0  0  0  0  0  0  0
  147.7477  143.5106  154.3909 H   0  0  0  0  0  0  0  0  0  0  0  0
  145.0496  140.9831  156.1941 H   0  0  0  0  0  0  0  0  0  0  0  0
  144.5294  141.2788  154.5530 H   0  0  0  0  0  0  0  0  0  0  0  0
  146.8790  139.6024  155.4924 H   0  0  0  0  0  0  0  0  0  0  0  0
  145.5595  139.1416  154.4480 H   0  0  0  0  0  0  0  0  0  0  0  0
  146.3866  140.6861  152.6837 H   0  0  0  0  0  0  0  0  0  0  0  0
  148.4409  139.4751  152.2402 H   0  0  0  0  0  0  0  0  0  0  0  0
  148.2673  138.7150  153.6608 H   0  0  0  0  0  0  0  0  0  0  0  0
  149.0381  142.3144  156.5531 H   0  0  0  0  0  0  0  0  0  0  0  0
  1  2  1  0  0  0  0
  1 15  1  0  0  0  0
  1 16  1  0  0  0  0
  1 17  1  0  0  0  0
  2 14  1  0  0  0  0
  2  3  1  0  0  0  0
  3  4  2  0  0  0  0
  3 18  1  0  0  0  0
  4  5  1  0  0  0  0
  4 13  1  0  0  0  0
  5 11  1  0  0  0  0
  5  6  1  0  0  0  0
  5 19  1  0  0  0  0
  6  7  1  0  0  0  0
  6 20  1  0  0  0  0
  7  8  2  0  0  0  0
  7  9  1  0  0  0  0
  9 10  1  0  0  0  0
  9 21  1  0  0  0  0
  9 22  1  0  0  0  0
 10 11  1  0  0  0  0
 10 23  1  0  0  0  0
 10 24  1  0  0  0  0
 11 12  1  0  0  0  0
 11 25  1  0  0  0  0
 12 26  1  0  0  0  0
 12 27  1  0  0  0  0
 13 14  2  0  0  0  0
 13 28  1  0  0  0  0
M  END
> <s_m_source_file>
AV-unprocessed.smi

> <i_m_source_file_index>
2526

> <i_lp_mmshare_version>
43012

> <i_f3d_flags>
0

> <s_epik_input>
W0NIM11uMVtjSF1jKFtjSF1uMSlbQ0BASF0yW05IXUMoPU8pW0NIMl1bQ0gyXVtDQEhdMltOSDJd

> <s_epik_cmdline>
J2VwaWtfcHl0aG9uJywgJy1waCcsICc3LjAnLCAnLXRuJywgJzgnLCAnLW1hJywgJzIwMCcsICctbWV0YWxfYmluZGluZycsICctaW1hZScsICc8aW5maWxlLm1hZT4nLCAnLW9tYWUnLCAnPG91dGZpbGUubWFlPic=

> <r_lp_tautomer_probability>
1

> <r_epik_Ionization_Penalty>
2.50279

> <r_epik_Ionization_Penalty_Charging>
0

> <r_epik_Ionization_Penalty_Neutral>
2.50279

> <r_epik_State_Penalty>
2.66754

> <r_epik_Charging_Adjusted_Penalty>
2.66754

> <i_epik_Tot_Q>
0

> <i_epik_Tot_abs_Q>
0

> <r_epik_Metal_State_Penalty>
2.66721

> <b_epik_Metal_Only>
0

> <s_lp_Force_Field>
OPLS_2005

> <r_lp_Energy>
9.07017

> <b_lp_Chiralities_Consistent>
1

> <s_lp_Variant>
AV-unprocessed.smi:2526-7

> <Gold.Version>
5.8.1

> <Gold.Id.Protein>
6NUR|6NUR_protein|mol2

> <Gold.PLP.Fitness>
33.9006

> <Gold.PLP.PLP>
-23.5907

> <Gold.PLP.part.hbond>
-2.0000

> <Gold.PLP.part.metal>
0.0000

> <Gold.PLP.part.buried>
1.6865

> <Gold.PLP.part.nonpolar>
-22.4479

> <Gold.PLP.part.repulsive>
0.3685

> <Gold.PLP.ligand.clash>
0.0000

> <Gold.PLP.ligand.torsion>
0.0147

> <Gold.PLP.Chemscore.Hbond>
1.7680

> <Gold.PLP.Chemscore.CHOScore>
1.6726

> <Gold.PLP.Chemscore.Metal>
0.0000

> <Gold.Chemscore.Hbonds>
donor molecule, donor type, donor heavy atom, donor atom, acceptor molecule, acceptor atom, score
      L1  H     6    20       P1  8028  0.76
      L1  H    12    26       P1  7957  1.00
      L1  C     3    18       P1  7957  0.79
      L1  C    13    28       P1  8028  0.73

> <Gold.PLP.Chemscore.Internal.Correction>
0.0176

> <Gold.Rescore>
     Score         DG    S(hbond)    S(metal)    S(lipo)     H(rot)  DE(clash)    DE(int)     intcor
     13.89     -14.95       1.96        0.00      46.79       1.00       0.07       0.99       ----

> <Gold.Chemscore.Fitness>
13.8887

> <Gold.Chemscore.DG>
-14.9454

> <Gold.Chemscore.ZeroCoef>
-5.4800

> <Gold.Chemscore.Hbond>
1.9614

> <Gold.Chemscore.Metal>
0.0000

> <Gold.Chemscore.Lipo>
46.7895

> <Gold.Chemscore.Internal_Hbond>
0.0000

> <Gold.Chemscore.DEClash>
0.0695

> <Gold.Chemscore.DEInternal>
0.9872

> <Gold.Chemscore.Rot>
1.0000

> <Gold.Chemscore.Internal.Correction>
   9.000000E+99

> <Gold.Chemscore.Hbonds>
donor molecule, donor type, donor heavy atom, donor atom, acceptor molecule, acceptor atom, score
      L1  H     6    20       P1  8028  0.40
      L1  H    12    26       P1  7957  1.00

> <Gold.Chemscore.Hbond.Weighted>
-6.5510

> <Gold.Chemscore.Metal.Weighted>
-0.0000

> <Gold.Chemscore.Lipo.Weighted>
-5.4744

> <Gold.Chemscore.Internal_Hbond.Weighted>
0.0000

> <Gold.Chemscore.DEClash.Weighted>
0.0695

> <Gold.Chemscore.DEInternal.Weighted>
0.9872

> <Gold.Chemscore.Rot.Weighted>
2.5600

> <Gold.Chemscore.Internal.Correction.Weighted>
   9.000000E+99

> <Gold.Protein.RotatedTorsions>
[ 6907 6896 6895 6894 ] final  173.76 input  -60.11 | X-H torsion
[ 7974 7965 7964 7962 ] final   84.20 input  175.53 | X-H torsion
[ 8008 7997 7996 7995 ] final -178.18 input   59.86 | X-H torsion
[ 10167 10162 10161 10158 ] final  170.35 input  -65.29 | X-H torsion
[ 10718 10713 10712 10709 ] final  176.61 input   66.30 | X-H torsion
[ 10763 10752 10751 10750 ] final  -75.29 input  -60.55 | X-H torsion
[ 11005 11000 10999 10996 ] final   31.13 input  -57.11 | X-H torsion

> <Gold.Protein.ActiveResidues>
 VAL166  LYS551  ARG553  GLY616  TRP617  ASP618  TYR619  PRO620  LYS621  CYS622 
 ASP623  PHE694  ASN695  SER759  ASP760  ASP761  ALA762  ILE779  LEU786  VAL792 
 PHE793  MET794  SER795  GLU796  ALA797  LYS798  CYS799  TRP800  GLU811  SER814 

> <Gold.Protein.RotatedAtoms>
  151.7632  133.3335  159.3423 H   0  0  0  0  0  0  0  0  0  0  0  0  # atno 6907 bound_to 6896
  150.7490  134.6086  159.6084 H   0  0  0  0  0  0  0  0  0  0  0  0  # atno 6908 bound_to 6896
  152.3391  134.7160  160.0320 H   0  0  0  0  0  0  0  0  0  0  0  0  # atno 6909 bound_to 6896
  145.6019  139.2354  143.2241 H   0  0  0  0  0  0  0  0  0  0  0  0  # atno 7974 bound_to 7965
  156.0157  140.1250  157.0409 H   0  0  0  0  0  0  0  0  0  0  0  0  # atno 8008 bound_to 7997
  154.4292  140.1079  156.5962 H   0  0  0  0  0  0  0  0  0  0  0  0  # atno 8009 bound_to 7997
  155.6016  140.3470  155.4598 H   0  0  0  0  0  0  0  0  0  0  0  0  # atno 8010 bound_to 7997
  139.5016  144.3606  151.9829 H   0  0  0  0  0  0  0  0  0  0  0  0  # atno 10167 bound_to 10162
  156.9175  130.9930  151.3010 H   0  0  0  0  0  0  0  0  0  0  0  0  # atno 10718 bound_to 10713
  154.4846  135.5836  153.6414 H   0  0  0  0  0  0  0  0  0  0  0  0  # atno 10763 bound_to 10752
  152.9852  135.6098  154.3203 H   0  0  0  0  0  0  0  0  0  0  0  0  # atno 10764 bound_to 10752
  154.3097  135.2845  155.2551 H   0  0  0  0  0  0  0  0  0  0  0  0  # atno 10765 bound_to 10752
  140.2871  134.2906  155.7785 H   0  0  0  0  0  0  0  0  0  0  0  0  # atno 11005 bound_to 11000
  146.1570  140.6844  142.9295 LP  0  0  0  0  0  0  0  0  0  0  0  0  # atno 17320 bound_to 7965
  144.7306  140.4660  143.6940 LP  0  0  0  0  0  0  0  0  0  0  0  0  # atno 17321 bound_to 7965
  140.3042  144.3612  150.6051 LP  0  0  0  0  0  0  0  0  0  0  0  0  # atno 17342 bound_to 10162
  140.5849  143.2170  151.7360 LP  0  0  0  0  0  0  0  0  0  0  0  0  # atno 17343 bound_to 10162
  157.5929  130.8456  149.8685 LP  0  0  0  0  0  0  0  0  0  0  0  0  # atno 17370 bound_to 10713
  156.0506  130.3718  150.1209 LP  0  0  0  0  0  0  0  0  0  0  0  0  # atno 17371 bound_to 10713
  141.2153  133.7562  156.9569 LP  0  0  0  0  0  0  0  0  0  0  0  0  # atno 17394 bound_to 11000
  140.1229  134.9405  157.2229 LP  0  0  0  0  0  0  0  0  0  0  0  0  # atno 17395 bound_to 11000

$$$$
