AV-unprocessed.smi:1216|AV-procd|sdf|5098|dock1
  -GOLD-   22720 4153D 1   1.00000     0.00000
 Structure written by MMmdl.
 43 44  0  0  0  0  0  0  0  0  2 V2000
  147.8198  141.9613  154.0883 C   0  0  0  0  0  0  0  0  0  0  0  0
  148.8405  141.1609  154.9080 C   0  0  2  0  0  0  0  0  0  0  0  0
  148.3781  139.7016  155.1093 C   0  0  0  0  0  0  0  0  0  0  0  0
  149.4360  138.7237  154.8309 N   0  0  0  0  0  0  0  0  0  0  0  0
  150.0234  137.8589  155.7183 C   0  0  0  0  0  0  0  0  0  0  0  0
  150.9371  137.1270  155.0045 C   0  0  0  0  0  0  0  0  0  0  0  0
  150.8734  137.5798  153.7140 N   0  3  0  0  0  0  0  0  0  0  0  0
  149.9649  138.5550  153.6120 C   0  0  0  0  0  0  0  0  0  0  0  0
  149.0426  141.8254  156.1950 N   0  0  0  0  0  0  0  0  0  0  0  0
  150.2229  141.9933  156.8119 C   0  0  0  0  0  0  0  0  0  0  0  0
  151.2963  141.6301  156.3288 O   0  0  0  0  0  0  0  0  0  0  0  0
  150.1738  142.6692  158.1880 C   0  0  0  0  0  0  0  0  0  0  0  0
  151.4818  142.6889  158.8608 N   0  0  0  0  0  0  0  0  0  0  0  0
  152.0549  144.0120  159.1553 C   0  0  0  0  0  0  0  0  0  0  0  0
  152.0898  144.3543  160.6626 C   0  0  0  0  0  0  0  0  0  0  0  0
  152.2501  143.1627  161.6273 C   0  0  0  0  0  0  0  0  0  0  0  0
  153.4330  142.2231  161.3137 C   0  0  0  0  0  0  0  0  0  0  0  0
  153.4952  141.6437  159.8801 C   0  0  0  0  0  0  0  0  0  0  0  0
  152.1329  141.5402  159.1750 C   0  0  0  0  0  0  0  0  0  0  0  0
  151.6840  140.4226  158.9167 O   0  0  0  0  0  0  0  0  0  0  0  0
  147.6607  141.5083  153.1093 H   0  0  0  0  0  0  0  0  0  0  0  0
  148.1629  142.9834  153.9240 H   0  0  0  0  0  0  0  0  0  0  0  0
  146.8540  142.0106  154.5927 H   0  0  0  0  0  0  0  0  0  0  0  0
  149.7743  141.1575  154.3426 H   0  0  0  0  0  0  0  0  0  0  0  0
  148.0170  139.5451  156.1271 H   0  0  0  0  0  0  0  0  0  0  0  0
  147.5468  139.4727  154.4412 H   0  0  0  0  0  0  0  0  0  0  0  0
  149.7476  137.8227  156.7621 H   0  0  0  0  0  0  0  0  0  0  0  0
  151.6084  136.3376  155.3098 H   0  0  0  0  0  0  0  0  0  0  0  0
  149.6990  139.0869  152.7159 H   0  0  0  0  0  0  0  0  0  0  0  0
  148.2154  142.1667  156.6633 H   0  0  0  0  0  0  0  0  0  0  0  0
  149.7928  143.6831  158.0607 H   0  0  0  0  0  0  0  0  0  0  0  0
  149.4417  142.1632  158.8203 H   0  0  0  0  0  0  0  0  0  0  0  0
  153.0612  144.0674  158.7402 H   0  0  0  0  0  0  0  0  0  0  0  0
  151.5119  144.7952  158.6251 H   0  0  0  0  0  0  0  0  0  0  0  0
  152.8855  145.0783  160.8405 H   0  0  0  0  0  0  0  0  0  0  0  0
  151.1633  144.8677  160.9224 H   0  0  0  0  0  0  0  0  0  0  0  0
  152.3644  143.5459  162.6419 H   0  0  0  0  0  0  0  0  0  0  0  0
  151.3240  142.5864  161.6474 H   0  0  0  0  0  0  0  0  0  0  0  0
  154.3657  142.7513  161.5140 H   0  0  0  0  0  0  0  0  0  0  0  0
  153.4080  141.3964  162.0246 H   0  0  0  0  0  0  0  0  0  0  0  0
  154.1675  142.2402  159.2636 H   0  0  0  0  0  0  0  0  0  0  0  0
  153.9558  140.6556  159.9144 H   0  0  0  0  0  0  0  0  0  0  0  0
  151.4281  137.2266  152.9445 H   0  0  0  0  0  0  0  0  0  0  0  0
  1  2  1  0  0  0  0
  1 21  1  0  0  0  0
  1 22  1  0  0  0  0
  1 23  1  0  0  0  0
  2  3  1  0  0  0  0
  2  9  1  0  0  0  0
  2 24  1  0  0  0  0
  3  4  1  0  0  0  0
  3 25  1  0  0  0  0
  3 26  1  0  0  0  0
  4  8  1  0  0  0  0
  4  5  1  0  0  0  0
  5  6  2  0  0  0  0
  5 27  1  0  0  0  0
  6  7  1  0  0  0  0
  6 28  1  0  0  0  0
  7  8  2  0  0  0  0
  7 43  1  0  0  0  0
  8 29  1  0  0  0  0
  9 10  1  0  0  0  0
  9 30  1  0  0  0  0
 10 11  2  0  0  0  0
 10 12  1  0  0  0  0
 12 13  1  0  0  0  0
 12 31  1  0  0  0  0
 12 32  1  0  0  0  0
 13 19  1  0  0  0  0
 13 14  1  0  0  0  0
 14 15  1  0  0  0  0
 14 33  1  0  0  0  0
 14 34  1  0  0  0  0
 15 16  1  0  0  0  0
 15 35  1  0  0  0  0
 15 36  1  0  0  0  0
 16 17  1  0  0  0  0
 16 37  1  0  0  0  0
 16 38  1  0  0  0  0
 17 18  1  0  0  0  0
 17 39  1  0  0  0  0
 17 40  1  0  0  0  0
 18 19  1  0  0  0  0
 18 41  1  0  0  0  0
 18 42  1  0  0  0  0
 19 20  2  0  0  0  0
M  CHG  1   7   1
M  END
> <s_m_source_file>
AV-unprocessed.smi

> <i_m_source_file_index>
1216

> <i_lp_mmshare_version>
43012

> <i_f3d_flags>
0

> <s_epik_input>
W2NIXTFuW2NIXVtjSF1uMVtDSDJdW0NAQEhdKFtDSDNdKVtOSF1DKD1PKVtDSDJdTjJbQ0gyXVtDSDJdW0NIMl1bQ0gyXVtDSDJdQzI9Tw==

> <s_epik_cmdline>
J2VwaWtfcHl0aG9uJywgJy1waCcsICc3LjAnLCAnLXRuJywgJzgnLCAnLW1hJywgJzIwMCcsICctbWV0YWxfYmluZGluZycsICctaW1hZScsICc8aW5maWxlLm1hZT4nLCAnLW9tYWUnLCAnPG91dGZpbGUubWFlPic=

> <r_lp_tautomer_probability>
1

> <r_epik_Ionization_Penalty>
0.254232

> <r_epik_Ionization_Penalty_Charging>
0

> <r_epik_Ionization_Penalty_Neutral>
0.254232

> <r_epik_State_Penalty>
0.245698

> <r_epik_Charging_Adjusted_Penalty>
0.245698

> <i_epik_Tot_Q>
1

> <i_epik_Tot_abs_Q>
1

> <r_epik_Metal_State_Penalty>
0.535799

> <b_epik_Metal_Only>
0

> <s_lp_Force_Field>
OPLS_2005

> <r_lp_Energy>
19.3608

> <b_lp_Chiralities_Consistent>
1

> <s_lp_Variant>
AV-unprocessed.smi:1216-1

> <Gold.Version>
5.8.1

> <Gold.Id.Protein>
6NUR|6NUR_protein|mol2

> <Gold.PLP.Fitness>
46.6380

> <Gold.PLP.PLP>
-39.5686

> <Gold.PLP.part.hbond>
-3.0000

> <Gold.PLP.part.metal>
0.0000

> <Gold.PLP.part.buried>
-2.4809

> <Gold.PLP.part.nonpolar>
-34.0116

> <Gold.PLP.part.repulsive>
0.1744

> <Gold.PLP.ligand.clash>
0.0000

> <Gold.PLP.ligand.torsion>
0.9961

> <Gold.PLP.Chemscore.Hbond>
1.9666

> <Gold.PLP.Chemscore.CHOScore>
1.0233

> <Gold.PLP.Chemscore.Metal>
0.0000

> <Gold.Chemscore.Hbonds>
donor molecule, donor type, donor heavy atom, donor atom, acceptor molecule, acceptor atom, score
      L1  H     7    43       P1  7949  1.47
      L1  C     8    29       P1  7957  0.46

> <Gold.PLP.Chemscore.Internal.Correction>
0.0918

> <Gold.Rescore>
     Score         DG    S(hbond)    S(metal)    S(lipo)     H(rot)  DE(clash)    DE(int)     intcor
     10.42     -11.48       0.42        0.00      87.71       2.22       0.04       1.02       ----

> <Gold.Chemscore.Fitness>
10.4151

> <Gold.Chemscore.DG>
-11.4753

> <Gold.Chemscore.ZeroCoef>
-5.4800

> <Gold.Chemscore.Hbond>
0.4210

> <Gold.Chemscore.Metal>
0.0000

> <Gold.Chemscore.Lipo>
87.7142

> <Gold.Chemscore.Internal_Hbond>
0.0000

> <Gold.Chemscore.DEClash>
0.0449

> <Gold.Chemscore.DEInternal>
1.0152

> <Gold.Chemscore.Rot>
2.2161

> <Gold.Chemscore.Internal.Correction>
   9.000000E+99

> <Gold.Chemscore.Hbonds>
donor molecule, donor type, donor heavy atom, donor atom, acceptor molecule, acceptor atom, score
      L1  H     7    43       P1  7949  0.63

> <Gold.Chemscore.Hbond.Weighted>
-1.4060

> <Gold.Chemscore.Metal.Weighted>
-0.0000

> <Gold.Chemscore.Lipo.Weighted>
-10.2626

> <Gold.Chemscore.Internal_Hbond.Weighted>
0.0000

> <Gold.Chemscore.DEClash.Weighted>
0.0449

> <Gold.Chemscore.DEInternal.Weighted>
1.0152

> <Gold.Chemscore.Rot.Weighted>
5.6733

> <Gold.Chemscore.Internal.Correction.Weighted>
   9.000000E+99

> <Gold.Protein.RotatedTorsions>
[ 6907 6896 6895 6894 ] final   99.61 input  -60.11 | X-H torsion
[ 7974 7965 7964 7962 ] final  -63.63 input  175.53 | X-H torsion
[ 8008 7997 7996 7995 ] final  171.83 input   59.86 | X-H torsion
[ 10167 10162 10161 10158 ] final -172.03 input  -65.29 | X-H torsion
[ 10718 10713 10712 10709 ] final    8.88 input   66.30 | X-H torsion
[ 10763 10752 10751 10750 ] final   56.33 input  -60.55 | X-H torsion
[ 11005 11000 10999 10996 ] final -118.84 input  -57.11 | X-H torsion

> <Gold.Protein.ActiveResidues>
 VAL166  LYS551  ARG553  GLY616  TRP617  ASP618  TYR619  PRO620  LYS621  CYS622 
 ASP623  PHE694  ASN695  SER759  ASP760  ASP761  ALA762  ILE779  LEU786  VAL792 
 PHE793  MET794  SER795  GLU796  ALA797  LYS798  CYS799  TRP800  GLU811  SER814 

> <Gold.Protein.RotatedAtoms>
  152.5389  134.0403  159.8064 H   0  0  0  0  0  0  0  0  0  0  0  0  # atno 6907 bound_to 6896
  151.0560  133.5576  159.2645 H   0  0  0  0  0  0  0  0  0  0  0  0  # atno 6908 bound_to 6896
  151.2493  135.0624  159.9109 H   0  0  0  0  0  0  0  0  0  0  0  0  # atno 6909 bound_to 6896
  145.7767  140.8784  143.0352 H   0  0  0  0  0  0  0  0  0  0  0  0  # atno 7974 bound_to 7965
  156.1233  140.1501  156.9173 H   0  0  0  0  0  0  0  0  0  0  0  0  # atno 8008 bound_to 7997
  154.4852  140.0867  156.7511 H   0  0  0  0  0  0  0  0  0  0  0  0  # atno 8009 bound_to 7997
  155.4389  140.3430  155.4290 H   0  0  0  0  0  0  0  0  0  0  0  0  # atno 8010 bound_to 7997
  139.5768  144.1515  152.1461 H   0  0  0  0  0  0  0  0  0  0  0  0  # atno 10167 bound_to 10162
  156.9581  130.5922  149.5660 H   0  0  0  0  0  0  0  0  0  0  0  0  # atno 10718 bound_to 10713
  152.9830  135.5680  154.5212 H   0  0  0  0  0  0  0  0  0  0  0  0  # atno 10763 bound_to 10752
  154.4700  135.2784  155.1652 H   0  0  0  0  0  0  0  0  0  0  0  0  # atno 10764 bound_to 10752
  154.3204  135.6270  153.5558 H   0  0  0  0  0  0  0  0  0  0  0  0  # atno 10765 bound_to 10752
  141.0257  134.0057  157.3217 H   0  0  0  0  0  0  0  0  0  0  0  0  # atno 11005 bound_to 11000
  144.6803  139.9931  143.7484 LP  0  0  0  0  0  0  0  0  0  0  0  0  # atno 17320 bound_to 7965
  146.0115  139.3174  143.0867 LP  0  0  0  0  0  0  0  0  0  0  0  0  # atno 17321 bound_to 7965
  140.1059  144.5499  150.6957 LP  0  0  0  0  0  0  0  0  0  0  0  0  # atno 17342 bound_to 10162
  140.7050  143.2461  151.4754 LP  0  0  0  0  0  0  0  0  0  0  0  0  # atno 17343 bound_to 10162
  156.0334  130.5423  150.8592 LP  0  0  0  0  0  0  0  0  0  0  0  0  # atno 17370 bound_to 10713
  157.5676  131.0946  150.9466 LP  0  0  0  0  0  0  0  0  0  0  0  0  # atno 17371 bound_to 10713
  139.9174  135.0198  156.7936 LP  0  0  0  0  0  0  0  0  0  0  0  0  # atno 17394 bound_to 11000
  140.6495  133.9744  155.7748 LP  0  0  0  0  0  0  0  0  0  0  0  0  # atno 17395 bound_to 11000

$$$$
