AV-unprocessed.smi:244|AV-procd|sdf|1866|dock9
  -GOLD-   2262020503D 1   1.00000     0.00000
 Structure written by MMmdl.
 57 61  0  0  0  0  0  0  0  0  2 V2000
  145.3330  141.1284  155.3047 C   0  0  0  0  0  0  0  0  0  0  0  0
  146.0735  140.5331  154.1681 N   0  3  1  0  0  0  0  0  0  0  0  0
  146.8359  141.5218  153.3656 C   0  0  0  0  0  0  0  0  0  0  0  0
  148.1379  141.9438  154.0642 C   0  0  0  0  0  0  0  0  0  0  0  0
  149.0090  140.7124  154.3822 C   0  0  1  0  0  0  0  0  0  0  0  0
  150.2386  141.0638  155.0179 O   0  0  0  0  0  0  0  0  0  0  0  0
  150.1040  141.5077  156.3649 C   0  0  0  0  0  0  0  0  0  0  0  0
  149.4103  140.4258  157.2014 C   0  0  0  0  0  0  0  0  0  0  0  0
  148.1297  140.0595  156.6079 N   0  0  0  0  0  0  0  0  0  0  0  0
  147.4366  139.2539  157.4467 C   0  0  0  0  0  0  0  0  0  0  0  0
  146.1351  139.5172  157.7378 N   0  0  0  0  0  0  0  0  0  0  0  0
  145.4604  138.7137  158.5658 C   0  0  0  0  0  0  0  0  0  0  0  0
  145.8877  137.6184  159.1981 N   0  0  0  0  0  0  0  0  0  0  0  0
  147.1907  137.3481  158.8993 C   0  0  0  0  0  0  0  0  0  0  0  0
  148.0277  138.1045  158.0335 C   0  0  0  0  0  0  0  0  0  0  0  0
  149.2898  137.5302  157.9643 N   0  0  0  0  0  0  0  0  0  0  0  0
  149.2061  136.4920  158.7511 C   0  0  0  0  0  0  0  0  0  0  0  0
  147.9858  136.3152  159.3648 N   0  0  0  0  0  0  0  0  0  0  0  0
  147.6254  135.2540  160.2932 C   0  0  0  0  0  0  0  0  0  0  0  0
  147.2817  135.7554  161.7227 C   0  0  0  0  0  0  0  0  0  0  0  0
  148.2962  136.6632  162.1129 O   0  0  0  0  0  0  0  0  0  0  0  0
  145.9319  136.4986  161.8220 C   0  0  0  0  0  0  0  0  0  0  0  0
  144.7455  135.5231  161.7253 C   0  0  0  0  0  0  0  0  0  0  0  0
  144.8524  134.5297  162.7391 O   0  0  0  0  0  0  0  0  0  0  0  0
  146.0208  133.7267  162.6120 C   0  0  0  0  0  0  0  0  0  0  0  0
  147.2794  134.6029  162.7466 C   0  0  0  0  0  0  0  0  0  0  0  0
  148.2379  139.6497  155.2018 C   0  0  1  0  0  0  0  0  0  0  0  0
  146.8764  139.3303  154.5185 C   0  0  0  0  0  0  0  0  0  0  0  0
  145.9975  141.6179  156.0151 H   0  0  0  0  0  0  0  0  0  0  0  0
  144.7652  140.3658  155.8389 H   0  0  0  0  0  0  0  0  0  0  0  0
  144.6247  141.8745  154.9442 H   0  0  0  0  0  0  0  0  0  0  0  0
  147.0709  141.0733  152.3995 H   0  0  0  0  0  0  0  0  0  0  0  0
  146.2134  142.3926  153.1566 H   0  0  0  0  0  0  0  0  0  0  0  0
  148.6922  142.6306  153.4244 H   0  0  0  0  0  0  0  0  0  0  0  0
  147.8937  142.5000  154.9678 H   0  0  0  0  0  0  0  0  0  0  0  0
  149.2852  140.2600  153.4289 H   0  0  0  0  0  0  0  0  0  0  0  0
  151.0978  141.7049  156.7670 H   0  0  0  0  0  0  0  0  0  0  0  0
  149.5603  142.4506  156.4158 H   0  0  0  0  0  0  0  0  0  0  0  0
  150.0462  139.5411  157.2620 H   0  0  0  0  0  0  0  0  0  0  0  0
  149.2678  140.7879  158.2207 H   0  0  0  0  0  0  0  0  0  0  0  0
  144.4320  138.9882  158.7497 H   0  0  0  0  0  0  0  0  0  0  0  0
  150.0409  135.8255  158.9149 H   0  0  0  0  0  0  0  0  0  0  0  0
  146.7903  134.7013  159.8636 H   0  0  0  0  0  0  0  0  0  0  0  0
  148.4573  134.5494  160.3351 H   0  0  0  0  0  0  0  0  0  0  0  0
  148.7038  136.3372  162.9008 H   0  0  0  0  0  0  0  0  0  0  0  0
  145.8687  137.0117  162.7828 H   0  0  0  0  0  0  0  0  0  0  0  0
  145.8473  137.2771  161.0640 H   0  0  0  0  0  0  0  0  0  0  0  0
  143.8090  136.0636  161.8626 H   0  0  0  0  0  0  0  0  0  0  0  0
  144.6949  135.0508  160.7441 H   0  0  0  0  0  0  0  0  0  0  0  0
  146.0107  132.9702  163.3968 H   0  0  0  0  0  0  0  0  0  0  0  0
  146.0071  133.1911  161.6624 H   0  0  0  0  0  0  0  0  0  0  0  0
  148.1773  133.9924  162.6431 H   0  0  0  0  0  0  0  0  0  0  0  0
  147.3025  135.0102  163.7587 H   0  0  0  0  0  0  0  0  0  0  0  0
  148.8355  138.7368  155.1908 H   0  0  0  0  0  0  0  0  0  0  0  0
  146.2703  138.6339  155.0974 H   0  0  0  0  0  0  0  0  0  0  0  0
  147.0857  138.8116  153.5822 H   0  0  0  0  0  0  0  0  0  0  0  0
  145.3484  140.1927  153.5527 H   0  0  0  0  0  0  0  0  0  0  0  0
  1  2  1  0  0  0  0
  1 29  1  0  0  0  0
  1 30  1  0  0  0  0
  1 31  1  0  0  0  0
  2 28  1  0  0  0  0
  2  3  1  0  0  0  0
  2 57  1  0  0  0  0
  3  4  1  0  0  0  0
  3 32  1  0  0  0  0
  3 33  1  0  0  0  0
  4  5  1  0  0  0  0
  4 34  1  0  0  0  0
  4 35  1  0  0  0  0
  5 27  1  0  0  0  0
  5  6  1  0  0  0  0
  5 36  1  0  0  0  0
  6  7  1  0  0  0  0
  7  8  1  0  0  0  0
  7 37  1  0  0  0  0
  7 38  1  0  0  0  0
  8  9  1  0  0  0  0
  8 39  1  0  0  0  0
  8 40  1  0  0  0  0
  9 10  1  0  0  0  0
  9 27  1  0  0  0  0
 10 15  1  0  0  0  0
 10 11  2  0  0  0  0
 11 12  1  0  0  0  0
 12 13  2  0  0  0  0
 12 41  1  0  0  0  0
 13 14  1  0  0  0  0
 14 18  1  0  0  0  0
 14 15  2  0  0  0  0
 15 16  1  0  0  0  0
 16 17  2  0  0  0  0
 17 18  1  0  0  0  0
 17 42  1  0  0  0  0
 18 19  1  0  0  0  0
 19 20  1  0  0  0  0
 19 43  1  0  0  0  0
 19 44  1  0  0  0  0
 20 26  1  0  0  0  0
 20 21  1  0  0  0  0
 20 22  1  0  0  0  0
 21 45  1  0  0  0  0
 22 23  1  0  0  0  0
 22 46  1  0  0  0  0
 22 47  1  0  0  0  0
 23 24  1  0  0  0  0
 23 48  1  0  0  0  0
 23 49  1  0  0  0  0
 24 25  1  0  0  0  0
 25 26  1  0  0  0  0
 25 50  1  0  0  0  0
 25 51  1  0  0  0  0
 26 52  1  0  0  0  0
 26 53  1  0  0  0  0
 27 28  1  0  0  0  0
 27 54  1  0  0  0  0
 28 55  1  0  0  0  0
 28 56  1  0  0  0  0
M  CHG  1   2   1
M  END
> <s_m_source_file>
AV-unprocessed.smi

> <i_m_source_file_index>
244

> <i_lp_mmshare_version>
43012

> <i_f3d_flags>
0

> <s_epik_input>
W0NIMl0xW0NIMl1OKFtDSDNdKVtDSDJdW0NAQEhdKFtDQEhdMTIpTihbQ0gyXVtDSDJdTzIpYyhuW2NIXW4zKWMoYzM0KW5bY0hdbjRbQ0gyXUM1KFtPSF0pW0NIMl1bQ0gyXU9bQ0gyXVtDSDJdNQ==

> <s_epik_cmdline>
J2VwaWtfcHl0aG9uJywgJy1waCcsICc3LjAnLCAnLXRuJywgJzgnLCAnLW1hJywgJzIwMCcsICctbWV0YWxfYmluZGluZycsICctaW1hZScsICc8aW5maWxlLm1hZT4nLCAnLW9tYWUnLCAnPG91dGZpbGUubWFlPic=

> <r_lp_tautomer_probability>
1

> <r_epik_Ionization_Penalty>
0.0136215

> <r_epik_Ionization_Penalty_Charging>
0.0131385

> <r_epik_Ionization_Penalty_Neutral>
0.000483022

> <r_epik_State_Penalty>
0.0104001

> <r_epik_Charging_Adjusted_Penalty>
0.0235387

> <i_epik_Tot_Q>
1

> <i_epik_Tot_abs_Q>
1

> <r_epik_Metal_State_Penalty>
0.0104469

> <b_epik_Metal_Only>
0

> <s_lp_Force_Field>
OPLS_2005

> <r_lp_Energy>
49.6468

> <b_lp_Chiralities_Consistent>
1

> <s_lp_Variant>
AV-unprocessed.smi:244-3

> <Gold.Version>
5.8.1

> <Gold.Id.Protein>
6NUR|6NUR_protein|mol2

> <Gold.PLP.Fitness>
45.6809

> <Gold.PLP.PLP>
-35.7316

> <Gold.PLP.part.hbond>
-3.0000

> <Gold.PLP.part.metal>
0.0000

> <Gold.PLP.part.buried>
-4.5710

> <Gold.PLP.part.nonpolar>
-28.0577

> <Gold.PLP.part.repulsive>
0.1578

> <Gold.PLP.ligand.clash>
0.0000

> <Gold.PLP.ligand.torsion>
0.5737

> <Gold.PLP.Chemscore.Hbond>
3.6484

> <Gold.PLP.Chemscore.CHOScore>
0.0000

> <Gold.PLP.Chemscore.Metal>
0.0000

> <Gold.Chemscore.Hbonds>
donor molecule, donor type, donor heavy atom, donor atom, acceptor molecule, acceptor atom, score
      L1  H     2    57       P1 10175  2.00
      P1  H  6931  6943       L1    21  1.00
      P1  H  7989  7998       L1     6  0.62

> <Gold.PLP.Chemscore.Internal.Correction>
0.1514

> <Gold.Rescore>
     Score         DG    S(hbond)    S(metal)    S(lipo)     H(rot)  DE(clash)    DE(int)     intcor
     15.88     -18.52       2.60        0.00      83.08       2.09       0.65       1.99       ----

> <Gold.Chemscore.Fitness>
15.8752

> <Gold.Chemscore.DG>
-18.5150

> <Gold.Chemscore.ZeroCoef>
-5.4800

> <Gold.Chemscore.Hbond>
2.5950

> <Gold.Chemscore.Metal>
0.0000

> <Gold.Chemscore.Lipo>
83.0838

> <Gold.Chemscore.Internal_Hbond>
0.0000

> <Gold.Chemscore.DEClash>
0.6514

> <Gold.Chemscore.DEInternal>
1.9883

> <Gold.Chemscore.Rot>
2.0911

> <Gold.Chemscore.Internal.Correction>
   9.000000E+99

> <Gold.Chemscore.Hbonds>
donor molecule, donor type, donor heavy atom, donor atom, acceptor molecule, acceptor atom, score
      L1  H     2    57       P1 10175  0.92
      P1  H  6931  6943       L1    21  0.35
      P1  H  7989  7998       L1     6  0.24

> <Gold.Chemscore.Hbond.Weighted>
-8.6673

> <Gold.Chemscore.Metal.Weighted>
-0.0000

> <Gold.Chemscore.Lipo.Weighted>
-9.7208

> <Gold.Chemscore.Internal_Hbond.Weighted>
0.0000

> <Gold.Chemscore.DEClash.Weighted>
0.6514

> <Gold.Chemscore.DEInternal.Weighted>
1.9883

> <Gold.Chemscore.Rot.Weighted>
5.3531

> <Gold.Chemscore.Internal.Correction.Weighted>
   9.000000E+99

> <Gold.Protein.RotatedTorsions>
[ 6907 6896 6895 6894 ] final  159.69 input  -60.11 | X-H torsion
[ 7974 7965 7964 7962 ] final  163.30 input  175.53 | X-H torsion
[ 8008 7997 7996 7995 ] final  -83.51 input   59.86 | X-H torsion
[ 10167 10162 10161 10158 ] final  -99.42 input  -65.29 | X-H torsion
[ 10718 10713 10712 10709 ] final  151.40 input   66.30 | X-H torsion
[ 10763 10752 10751 10750 ] final -129.63 input  -60.55 | X-H torsion
[ 11005 11000 10999 10996 ] final  -93.05 input  -57.11 | X-H torsion

> <Gold.Protein.ActiveResidues>
 VAL166  LYS551  ARG553  GLY616  TRP617  ASP618  TYR619  PRO620  LYS621  CYS622 
 ASP623  PHE694  ASN695  SER759  ASP760  ASP761  ALA762  ILE779  LEU786  VAL792 
 PHE793  MET794  SER795  GLU796  ALA797  LYS798  CYS799  TRP800  GLU811  SER814 

> <Gold.Protein.RotatedAtoms>
  151.9818  133.3760  159.4109 H   0  0  0  0  0  0  0  0  0  0  0  0  # atno 6907 bound_to 6896
  150.6934  134.4031  159.5137 H   0  0  0  0  0  0  0  0  0  0  0  0  # atno 6908 bound_to 6896
  152.1751  134.8801  160.0582 H   0  0  0  0  0  0  0  0  0  0  0  0  # atno 6909 bound_to 6896
  144.7596  139.8163  143.6337 H   0  0  0  0  0  0  0  0  0  0  0  0  # atno 7974 bound_to 7965
  154.6198  140.0618  156.9601 H   0  0  0  0  0  0  0  0  0  0  0  0  # atno 8008 bound_to 7997
  155.1836  140.3301  155.4352 H   0  0  0  0  0  0  0  0  0  0  0  0  # atno 8009 bound_to 7997
  156.2425  140.1893  156.6930 H   0  0  0  0  0  0  0  0  0  0  0  0  # atno 8010 bound_to 7997
  140.2626  143.3397  152.0611 H   0  0  0  0  0  0  0  0  0  0  0  0  # atno 10167 bound_to 10162
  157.2712  131.0817  151.1598 H   0  0  0  0  0  0  0  0  0  0  0  0  # atno 10718 bound_to 10713
  154.8757  135.3889  154.3951 H   0  0  0  0  0  0  0  0  0  0  0  0  # atno 10763 bound_to 10752
  153.4682  135.7029  153.6014 H   0  0  0  0  0  0  0  0  0  0  0  0  # atno 10764 bound_to 10752
  153.4483  135.3840  155.2237 H   0  0  0  0  0  0  0  0  0  0  0  0  # atno 10765 bound_to 10752
  141.1507  133.7862  157.0106 H   0  0  0  0  0  0  0  0  0  0  0  0  # atno 11005 bound_to 11000
  146.1645  139.4771  142.9967 LP  0  0  0  0  0  0  0  0  0  0  0  0  # atno 17320 bound_to 7965
  145.6663  141.0228  143.1681 LP  0  0  0  0  0  0  0  0  0  0  0  0  # atno 17321 bound_to 7965
  139.5012  144.6709  151.6245 LP  0  0  0  0  0  0  0  0  0  0  0  0  # atno 17342 bound_to 10162
  140.5954  143.9706  150.6351 LP  0  0  0  0  0  0  0  0  0  0  0  0  # atno 17343 bound_to 10162
  157.3070  130.6871  149.6194 LP  0  0  0  0  0  0  0  0  0  0  0  0  # atno 17370 bound_to 10713
  155.9663  130.4375  150.5178 LP  0  0  0  0  0  0  0  0  0  0  0  0  # atno 17371 bound_to 10713
  140.0880  134.9609  157.1731 LP  0  0  0  0  0  0  0  0  0  0  0  0  # atno 17394 bound_to 11000
  140.3484  134.2625  155.7202 LP  0  0  0  0  0  0  0  0  0  0  0  0  # atno 17395 bound_to 11000

$$$$
