AV-unprocessed.smi:61|AV-procd|sdf|599|dock10
  -GOLD-   2262016493D 1   1.00000     0.00000
 Structure written by MMmdl.
 29 30  0  0  0  0  0  0  0  0  2 V2000
  146.9041  138.0079  152.8207 N   0  0  0  0  0  0  0  0  0  0  0  0
  145.8474  137.2108  152.4538 C   0  0  0  0  0  0  0  0  0  0  0  0
  144.6138  137.5894  152.8037 N   0  0  0  0  0  0  0  0  0  0  0  0
  143.5709  136.8142  152.4474 C   0  0  0  0  0  0  0  0  0  0  0  0
  143.7540  135.6247  151.7229 C   0  0  0  0  0  0  0  0  0  0  0  0
  145.0819  135.2796  151.3878 C   0  0  0  0  0  0  0  0  0  0  0  0
  145.4217  134.1249  150.6682 N   0  0  0  0  0  0  0  0  0  0  0  0
  144.3518  133.6077  149.8203 C   0  0  0  0  0  0  0  0  0  0  0  0
  144.3933  132.0758  149.9289 C   0  0  0  0  0  0  0  0  0  0  0  0
  145.7451  131.7790  150.5738 C   0  0  0  0  0  0  0  0  0  0  0  0
  145.9481  133.0137  151.4520 C   0  0  1  0  0  0  0  0  0  0  0  0
  147.3816  133.2487  151.9711 C   0  0  0  0  0  0  0  0  0  0  0  0
  148.0157  132.0359  152.3217 O   0  0  0  0  0  0  0  0  0  0  0  0
  146.1022  136.0907  151.7632 N   0  3  0  0  0  0  0  0  0  0  0  0
  147.8487  137.7502  152.5727 H   0  0  0  0  0  0  0  0  0  0  0  0
  146.7509  138.8603  153.3399 H   0  0  0  0  0  0  0  0  0  0  0  0
  142.5863  137.1457  152.7419 H   0  0  0  0  0  0  0  0  0  0  0  0
  142.9118  135.0115  151.4377 H   0  0  0  0  0  0  0  0  0  0  0  0
  143.3695  133.9955  150.0938 H   0  0  0  0  0  0  0  0  0  0  0  0
  144.5521  133.9179  148.7944 H   0  0  0  0  0  0  0  0  0  0  0  0
  143.5918  131.7349  150.5852 H   0  0  0  0  0  0  0  0  0  0  0  0
  144.2681  131.5810  148.9652 H   0  0  0  0  0  0  0  0  0  0  0  0
  145.7516  130.8476  151.1406 H   0  0  0  0  0  0  0  0  0  0  0  0
  146.5120  131.7129  149.8010 H   0  0  0  0  0  0  0  0  0  0  0  0
  145.3077  132.8918  152.3265 H   0  0  0  0  0  0  0  0  0  0  0  0
  147.9878  133.7732  151.2317 H   0  0  0  0  0  0  0  0  0  0  0  0
  147.3507  133.8816  152.8584 H   0  0  0  0  0  0  0  0  0  0  0  0
  148.5142  131.7300  151.5790 H   0  0  0  0  0  0  0  0  0  0  0  0
  147.0596  135.8385  151.5171 H   0  0  0  0  0  0  0  0  0  0  0  0
  1  2  1  0  0  0  0
  1 15  1  0  0  0  0
  1 16  1  0  0  0  0
  2 14  1  0  0  0  0
  2  3  2  0  0  0  0
  3  4  1  0  0  0  0
  4  5  2  0  0  0  0
  4 17  1  0  0  0  0
  5  6  1  0  0  0  0
  5 18  1  0  0  0  0
  6  7  1  0  0  0  0
  6 14  2  0  0  0  0
  7 11  1  0  0  0  0
  7  8  1  0  0  0  0
  8  9  1  0  0  0  0
  8 19  1  0  0  0  0
  8 20  1  0  0  0  0
  9 10  1  0  0  0  0
  9 21  1  0  0  0  0
  9 22  1  0  0  0  0
 10 11  1  0  0  0  0
 10 23  1  0  0  0  0
 10 24  1  0  0  0  0
 11 12  1  0  0  0  0
 11 25  1  0  0  0  0
 12 13  1  0  0  0  0
 12 26  1  0  0  0  0
 12 27  1  0  0  0  0
 13 28  1  0  0  0  0
 14 29  1  0  0  0  0
M  CHG  1  14   1
M  END
> <s_m_source_file>
AV-unprocessed.smi

> <i_m_source_file_index>
61

> <i_lp_mmshare_version>
43012

> <i_f3d_flags>
0

> <s_epik_input>
W05IMl1jMW5bY0hdW2NIXWMobjEpTjJbQ0gyXVtDSDJdW0NIMl1bQ0BIXTJbQ0gyXVtPSF0=

> <s_epik_cmdline>
J2VwaWtfcHl0aG9uJywgJy1waCcsICc3LjAnLCAnLXRuJywgJzgnLCAnLW1hJywgJzIwMCcsICctbWV0YWxfYmluZGluZycsICctaW1hZScsICc8aW5maWxlLm1hZT4nLCAnLW9tYWUnLCAnPG91dGZpbGUubWFlPic=

> <r_lp_tautomer_probability>
0.424989

> <r_epik_Ionization_Penalty>
0.696162

> <r_epik_Ionization_Penalty_Charging>
0.696158

> <r_epik_Ionization_Penalty_Neutral>
4.43138e-06

> <r_epik_State_Penalty>
0.906374

> <r_epik_Charging_Adjusted_Penalty>
1.60253

> <i_epik_Tot_Q>
1

> <i_epik_Tot_abs_Q>
1

> <r_epik_Metal_State_Penalty>
1.16703

> <b_epik_Metal_Only>
0

> <s_lp_Force_Field>
OPLS_2005

> <r_lp_Energy>
33.2177

> <b_lp_Chiralities_Consistent>
1

> <s_lp_Variant>
AV-unprocessed.smi:61-5

> <Gold.Version>
5.8.1

> <Gold.Id.Protein>
6NUR|6NUR_protein|mol2

> <Gold.PLP.Fitness>
37.8119

> <Gold.PLP.PLP>
-25.4059

> <Gold.PLP.part.hbond>
-3.0000

> <Gold.PLP.part.metal>
0.0000

> <Gold.PLP.part.buried>
-4.2060

> <Gold.PLP.part.nonpolar>
-19.6860

> <Gold.PLP.part.repulsive>
0.4373

> <Gold.PLP.ligand.clash>
0.0000

> <Gold.PLP.ligand.torsion>
0.7918

> <Gold.PLP.Chemscore.Hbond>
4.6480

> <Gold.PLP.Chemscore.CHOScore>
0.0000

> <Gold.PLP.Chemscore.Metal>
0.0000

> <Gold.Chemscore.Hbonds>
donor molecule, donor type, donor heavy atom, donor atom, acceptor molecule, acceptor atom, score
      L1  H     1    15       P1  7948  1.73
      L1  H    13    28       P1 10747  1.00
      L1  H    14    29       P1  7948  1.86

> <Gold.PLP.Chemscore.Internal.Correction>
0.0457

> <Gold.Rescore>
     Score         DG    S(hbond)    S(metal)    S(lipo)     H(rot)  DE(clash)    DE(int)     intcor
     14.59     -15.44       2.73        0.00      50.44       1.98       0.00       0.84       ----

> <Gold.Chemscore.Fitness>
14.5919

> <Gold.Chemscore.DG>
-15.4364

> <Gold.Chemscore.ZeroCoef>
-5.4800

> <Gold.Chemscore.Hbond>
2.7346

> <Gold.Chemscore.Metal>
0.0000

> <Gold.Chemscore.Lipo>
50.4408

> <Gold.Chemscore.Internal_Hbond>
0.0000

> <Gold.Chemscore.DEClash>
0.0004

> <Gold.Chemscore.DEInternal>
0.8441

> <Gold.Chemscore.Rot>
1.9838

> <Gold.Chemscore.Internal.Correction>
   9.000000E+99

> <Gold.Chemscore.Hbonds>
donor molecule, donor type, donor heavy atom, donor atom, acceptor molecule, acceptor atom, score
      L1  H     1    15       P1  7948  0.82
      L1  H    13    28       P1 10747  0.99
      L1  H    14    29       P1  7948  0.89

> <Gold.Chemscore.Hbond.Weighted>
-9.1334

> <Gold.Chemscore.Metal.Weighted>
-0.0000

> <Gold.Chemscore.Lipo.Weighted>
-5.9016

> <Gold.Chemscore.Internal_Hbond.Weighted>
0.0000

> <Gold.Chemscore.DEClash.Weighted>
0.0004

> <Gold.Chemscore.DEInternal.Weighted>
0.8441

> <Gold.Chemscore.Rot.Weighted>
5.0786

> <Gold.Chemscore.Internal.Correction.Weighted>
   9.000000E+99

> <Gold.Protein.RotatedTorsions>
[ 6907 6896 6895 6894 ] final  148.46 input  -60.11 | X-H torsion
[ 7974 7965 7964 7962 ] final   52.17 input  175.53 | X-H torsion
[ 8008 7997 7996 7995 ] final   63.66 input   59.86 | X-H torsion
[ 10167 10162 10161 10158 ] final  -28.29 input  -65.29 | X-H torsion
[ 10718 10713 10712 10709 ] final -108.47 input   66.30 | X-H torsion
[ 10763 10752 10751 10750 ] final  148.26 input  -60.55 | X-H torsion
[ 11005 11000 10999 10996 ] final  154.70 input  -57.11 | X-H torsion

> <Gold.Protein.ActiveResidues>
 VAL166  LYS551  ARG553  GLY616  TRP617  ASP618  TYR619  PRO620  LYS621  CYS622 
 ASP623  PHE694  ASN695  SER759  ASP760  ASP761  ALA762  ILE779  LEU786  VAL792 
 PHE793  MET794  SER795  GLU796  ALA797  LYS798  CYS799  TRP800  GLU811  SER814 

> <Gold.Protein.RotatedAtoms>
  152.1412  133.4465  159.4767 H   0  0  0  0  0  0  0  0  0  0  0  0  # atno 6907 bound_to 6896
  150.6886  134.2303  159.4441 H   0  0  0  0  0  0  0  0  0  0  0  0  # atno 6908 bound_to 6896
  152.0194  134.9831  160.0621 H   0  0  0  0  0  0  0  0  0  0  0  0  # atno 6909 bound_to 6896
  145.9840  139.4271  143.0114 H   0  0  0  0  0  0  0  0  0  0  0  0  # atno 7974 bound_to 7965
  155.6337  140.3496  155.4691 H   0  0  0  0  0  0  0  0  0  0  0  0  # atno 8008 bound_to 7997
  155.9982  140.1208  157.0596 H   0  0  0  0  0  0  0  0  0  0  0  0  # atno 8009 bound_to 7997
  154.4240  140.1106  156.5646 H   0  0  0  0  0  0  0  0  0  0  0  0  # atno 8010 bound_to 7997
  140.7271  143.4023  151.1245 H   0  0  0  0  0  0  0  0  0  0  0  0  # atno 10167 bound_to 10162
  156.0487  130.5714  150.7965 H   0  0  0  0  0  0  0  0  0  0  0  0  # atno 10718 bound_to 10713
  154.0519  135.2881  155.3339 H   0  0  0  0  0  0  0  0  0  0  0  0  # atno 10763 bound_to 10752
  154.6863  135.5244  153.8335 H   0  0  0  0  0  0  0  0  0  0  0  0  # atno 10764 bound_to 10752
  153.0557  135.6594  154.0715 H   0  0  0  0  0  0  0  0  0  0  0  0  # atno 10765 bound_to 10752
  140.1513  134.8673  157.2458 H   0  0  0  0  0  0  0  0  0  0  0  0  # atno 11005 bound_to 11000
  145.7728  140.9889  143.1141 LP  0  0  0  0  0  0  0  0  0  0  0  0  # atno 17320 bound_to 7965
  144.6869  139.9467  143.7477 LP  0  0  0  0  0  0  0  0  0  0  0  0  # atno 17321 bound_to 7965
  139.7644  143.8587  152.3107 LP  0  0  0  0  0  0  0  0  0  0  0  0  # atno 17342 bound_to 10162
  139.8484  144.7176  150.9244 LP  0  0  0  0  0  0  0  0  0  0  0  0  # atno 17343 bound_to 10162
  157.5391  131.0940  150.9852 LP  0  0  0  0  0  0  0  0  0  0  0  0  # atno 17370 bound_to 10713
  157.0139  130.5647  149.5324 LP  0  0  0  0  0  0  0  0  0  0  0  0  # atno 17371 bound_to 10713
  140.2601  134.3581  155.7410 LP  0  0  0  0  0  0  0  0  0  0  0  0  # atno 17394 bound_to 11000
  141.2199  133.7364  156.9067 LP  0  0  0  0  0  0  0  0  0  0  0  0  # atno 17395 bound_to 11000

$$$$
