AV-unprocessed.smi:918|AV-procd|sdf|4163|dock5
  -GOLD-   22720 2 73D 1   1.00000     0.00000
 Structure written by MMmdl.
 31 32  0  0  0  0  0  0  0  0  2 V2000
  149.8554  135.8129  158.5670 O   0  0  0  0  0  0  0  0  0  0  0  0
  150.1102  137.0278  158.4072 C   0  0  0  0  0  0  0  0  0  0  0  0
  150.0116  137.8846  159.3099 O   0  5  0  0  0  0  0  0  0  0  0  0
  150.5884  137.4465  156.9281 C   0  0  0  0  0  0  0  0  0  0  0  0
  150.5500  136.4905  155.9737 C   0  0  0  0  0  0  0  0  0  0  0  0
  150.9580  136.7784  154.6306 C   0  0  0  0  0  0  0  0  0  0  0  0
  151.3827  138.0056  154.3120 C   0  0  0  0  0  0  0  0  0  0  0  0
  151.4469  139.0811  155.2991 C   0  0  0  0  0  0  0  0  0  0  0  0
  151.8480  140.1837  154.9325 O   0  0  0  0  0  0  0  0  0  0  0  0
  151.0478  138.7803  156.5905 N   0  0  0  0  0  0  0  0  0  0  0  0
  151.0775  139.8135  157.6704 C   0  0  0  0  0  0  0  0  0  0  0  0
  152.3748  140.5552  158.0594 C   0  0  0  0  0  0  0  0  0  0  0  0
  152.0156  141.7918  158.6609 O   0  0  0  0  0  0  0  0  0  0  0  0
  152.4702  142.0588  159.9358 C   0  0  0  0  0  0  0  0  0  0  0  0
  153.3029  141.1815  160.6774 C   0  0  0  0  0  0  0  0  0  0  0  0
  153.7270  141.5242  161.9757 C   0  0  0  0  0  0  0  0  0  0  0  0
  153.3272  142.7440  162.5508 C   0  0  0  0  0  0  0  0  0  0  0  0
  152.5016  143.6216  161.8247 C   0  0  0  0  0  0  0  0  0  0  0  0
  152.0759  143.2811  160.5255 C   0  0  0  0  0  0  0  0  0  0  0  0
  151.0626  144.3786  159.6580 Cl  0  0  0  0  0  0  0  0  0  0  0  0
  150.2134  135.4874  156.1909 H   0  0  0  0  0  0  0  0  0  0  0  0
  150.9222  136.0048  153.8779 H   0  0  0  0  0  0  0  0  0  0  0  0
  151.6871  138.2078  153.2954 H   0  0  0  0  0  0  0  0  0  0  0  0
  150.3700  140.5963  157.3960 H   0  0  0  0  0  0  0  0  0  0  0  0
  150.7312  139.3390  158.5889 H   0  0  0  0  0  0  0  0  0  0  0  0
  152.9504  139.9664  158.7755 H   0  0  0  0  0  0  0  0  0  0  0  0
  152.9803  140.7542  157.1736 H   0  0  0  0  0  0  0  0  0  0  0  0
  153.6313  140.2368  160.2718 H   0  0  0  0  0  0  0  0  0  0  0  0
  154.3608  140.8485  162.5308 H   0  0  0  0  0  0  0  0  0  0  0  0
  153.6529  143.0061  163.5468 H   0  0  0  0  0  0  0  0  0  0  0  0
  152.1944  144.5583  162.2660 H   0  0  0  0  0  0  0  0  0  0  0  0
  1  2  2  0  0  0  0
  2  3  1  0  0  0  0
  2  4  1  0  0  0  0
  4 10  1  0  0  0  0
  4  5  2  0  0  0  0
  5  6  1  0  0  0  0
  5 21  1  0  0  0  0
  6  7  2  0  0  0  0
  6 22  1  0  0  0  0
  7  8  1  0  0  0  0
  7 23  1  0  0  0  0
  8  9  2  0  0  0  0
  8 10  1  0  0  0  0
 10 11  1  0  0  0  0
 11 12  1  0  0  0  0
 11 24  1  0  0  0  0
 11 25  1  0  0  0  0
 12 13  1  0  0  0  0
 12 26  1  0  0  0  0
 12 27  1  0  0  0  0
 13 14  1  0  0  0  0
 14 19  1  0  0  0  0
 14 15  2  0  0  0  0
 15 16  1  0  0  0  0
 15 28  1  0  0  0  0
 16 17  2  0  0  0  0
 16 29  1  0  0  0  0
 17 18  1  0  0  0  0
 17 30  1  0  0  0  0
 18 19  2  0  0  0  0
 18 31  1  0  0  0  0
 19 20  1  0  0  0  0
M  CHG  1   3  -1
M  END
> <s_m_source_file>
AV-unprocessed.smi

> <i_m_source_file_index>
918

> <i_lp_mmshare_version>
43012

> <i_f3d_flags>
0

> <s_epik_input>
Tz1DKFtPSF0pYzFbY0hdW2NIXVtjSF1jKD1PKW4xW0NIMl1bQ0gyXU9jMltjSF1bY0hdW2NIXVtjSF1jMkNs

> <s_epik_cmdline>
J2VwaWtfcHl0aG9uJywgJy1waCcsICc3LjAnLCAnLXRuJywgJzgnLCAnLW1hJywgJzIwMCcsICctbWV0YWxfYmluZGluZycsICctaW1hZScsICc8aW5maWxlLm1hZT4nLCAnLW9tYWUnLCAnPG91dGZpbGUubWFlPic=

> <r_lp_tautomer_probability>
1

> <r_epik_Ionization_Penalty>
4.91901e-05

> <r_epik_Ionization_Penalty_Charging>
4.91901e-05

> <r_epik_Ionization_Penalty_Neutral>
0

> <r_epik_State_Penalty>
-0

> <r_epik_Charging_Adjusted_Penalty>
4.91901e-05

> <i_epik_Tot_Q>
-1

> <i_epik_Tot_abs_Q>
1

> <r_epik_Metal_State_Penalty>
-0

> <b_epik_Metal_Only>
0

> <s_lp_Force_Field>
OPLS_2005

> <r_lp_Energy>
37.328

> <b_lp_Chiralities_Consistent>
1

> <s_lp_Variant>
AV-unprocessed.smi:918-1

> <Gold.Version>
5.8.1

> <Gold.Id.Protein>
6NUR|6NUR_protein|mol2

> <Gold.PLP.Fitness>
51.3495

> <Gold.PLP.PLP>
-43.8838

> <Gold.PLP.part.hbond>
-2.8578

> <Gold.PLP.part.metal>
0.0000

> <Gold.PLP.part.buried>
-5.9728

> <Gold.PLP.part.nonpolar>
-34.3889

> <Gold.PLP.part.repulsive>
0.0475

> <Gold.PLP.ligand.clash>
0.1179

> <Gold.PLP.ligand.torsion>
0.5256

> <Gold.PLP.Chemscore.Hbond>
2.8320

> <Gold.PLP.Chemscore.CHOScore>
0.0000

> <Gold.PLP.Chemscore.Metal>
0.0000

> <Gold.Chemscore.Hbonds>
donor molecule, donor type, donor heavy atom, donor atom, acceptor molecule, acceptor atom, score
      P1  H  6896  6909       L1     1  2.00
      P1  H  7989  7998       L1     9  0.88

> <Gold.PLP.Chemscore.Internal.Correction>
0.1387

> <Gold.Rescore>
     Score         DG    S(hbond)    S(metal)    S(lipo)     H(rot)  DE(clash)    DE(int)     intcor
     18.19     -20.14       1.89        0.00     107.16       1.64       0.02       1.94       ----

> <Gold.Chemscore.Fitness>
18.1853

> <Gold.Chemscore.DG>
-20.1449

> <Gold.Chemscore.ZeroCoef>
-5.4800

> <Gold.Chemscore.Hbond>
1.8943

> <Gold.Chemscore.Metal>
0.0000

> <Gold.Chemscore.Lipo>
107.1567

> <Gold.Chemscore.Internal_Hbond>
0.0000

> <Gold.Chemscore.DEClash>
0.0153

> <Gold.Chemscore.DEInternal>
1.9443

> <Gold.Chemscore.Rot>
1.6405

> <Gold.Chemscore.Internal.Correction>
   9.000000E+99

> <Gold.Chemscore.Hbonds>
donor molecule, donor type, donor heavy atom, donor atom, acceptor molecule, acceptor atom, score
      P1  H  6896  6909       L1     1  0.98
      P1  H  7989  7998       L1     9  0.85

> <Gold.Chemscore.Hbond.Weighted>
-6.3271

> <Gold.Chemscore.Metal.Weighted>
-0.0000

> <Gold.Chemscore.Lipo.Weighted>
-12.5373

> <Gold.Chemscore.Internal_Hbond.Weighted>
0.0000

> <Gold.Chemscore.DEClash.Weighted>
0.0153

> <Gold.Chemscore.DEInternal.Weighted>
1.9443

> <Gold.Chemscore.Rot.Weighted>
4.1996

> <Gold.Chemscore.Internal.Correction.Weighted>
   9.000000E+99

> <Gold.Protein.RotatedTorsions>
[ 6907 6896 6895 6894 ] final   51.63 input  -60.11 | X-H torsion
[ 7974 7965 7964 7962 ] final  -20.71 input  175.53 | X-H torsion
[ 8008 7997 7996 7995 ] final   66.70 input   59.86 | X-H torsion
[ 10167 10162 10161 10158 ] final  139.98 input  -65.29 | X-H torsion
[ 10718 10713 10712 10709 ] final  107.92 input   66.30 | X-H torsion
[ 10763 10752 10751 10750 ] final    7.76 input  -60.55 | X-H torsion
[ 11005 11000 10999 10996 ] final   21.59 input  -57.11 | X-H torsion

> <Gold.Protein.ActiveResidues>
 VAL166  LYS551  ARG553  GLY616  TRP617  ASP618  TYR619  PRO620  LYS621  CYS622 
 ASP623  PHE694  ASN695  SER759  ASP760  ASP761  ALA762  ILE779  LEU786  VAL792 
 PHE793  MET794  SER795  GLU796  ALA797  LYS798  CYS799  TRP800  GLU811  SER814 

> <Gold.Protein.RotatedAtoms>
  152.3147  134.7455  160.0327 H   0  0  0  0  0  0  0  0  0  0  0  0  # atno 6907 bound_to 6896
  151.7924  133.3355  159.3511 H   0  0  0  0  0  0  0  0  0  0  0  0  # atno 6908 bound_to 6896
  150.7338  134.5761  159.5959 H   0  0  0  0  0  0  0  0  0  0  0  0  # atno 6909 bound_to 6896
  146.1773  140.4240  142.8508 H   0  0  0  0  0  0  0  0  0  0  0  0  # atno 7974 bound_to 7965
  155.6814  140.3496  155.4857 H   0  0  0  0  0  0  0  0  0  0  0  0  # atno 8008 bound_to 7997
  155.9603  140.1136  157.0924 H   0  0  0  0  0  0  0  0  0  0  0  0  # atno 8009 bound_to 7997
  154.4141  140.1177  156.5156 H   0  0  0  0  0  0  0  0  0  0  0  0  # atno 8010 bound_to 7997
  139.5062  144.6262  151.5932 H   0  0  0  0  0  0  0  0  0  0  0  0  # atno 10167 bound_to 10162
  157.6608  131.0883  150.6228 H   0  0  0  0  0  0  0  0  0  0  0  0  # atno 10718 bound_to 10713
  153.2327  135.6894  153.7872 H   0  0  0  0  0  0  0  0  0  0  0  0  # atno 10763 bound_to 10752
  153.7031  135.3294  155.3230 H   0  0  0  0  0  0  0  0  0  0  0  0  # atno 10764 bound_to 10752
  154.8321  135.4572  154.1218 H   0  0  0  0  0  0  0  0  0  0  0  0  # atno 10765 bound_to 10752
  140.3899  134.1831  155.7662 H   0  0  0  0  0  0  0  0  0  0  0  0  # atno 11005 bound_to 11000
  144.8257  140.6624  143.6324 LP  0  0  0  0  0  0  0  0  0  0  0  0  # atno 17320 bound_to 7965
  145.4175  139.1569  143.4092 LP  0  0  0  0  0  0  0  0  0  0  0  0  # atno 17321 bound_to 7965
  140.5979  143.9662  150.6367 LP  0  0  0  0  0  0  0  0  0  0  0  0  # atno 17342 bound_to 10162
  140.2864  143.3354  152.1103 LP  0  0  0  0  0  0  0  0  0  0  0  0  # atno 17343 bound_to 10162
  156.6531  130.4491  149.5713 LP  0  0  0  0  0  0  0  0  0  0  0  0  # atno 17370 bound_to 10713
  156.2123  130.6686  151.1282 LP  0  0  0  0  0  0  0  0  0  0  0  0  # atno 17371 bound_to 10713
  141.1894  133.8238  157.0956 LP  0  0  0  0  0  0  0  0  0  0  0  0  # atno 17394 bound_to 11000
  140.0415  134.9852  157.0970 LP  0  0  0  0  0  0  0  0  0  0  0  0  # atno 17395 bound_to 11000

$$$$
