AV-unprocessed.smi:1222|AV-procd|sdf|5121|dock1
  -GOLD-   22720 4183D 1   1.00000     0.00000
 Structure written by MMmdl.
 37 39  0  0  0  0  0  0  0  0  2 V2000
  150.8897  140.8432  157.2242 O   0  0  0  0  0  0  0  0  0  0  0  0
  150.4465  141.8867  156.7436 C   0  0  0  0  0  0  0  0  0  0  0  0
  150.5472  143.1057  157.3023 N   0  0  0  0  0  0  0  0  0  0  0  0
  151.1666  143.4592  158.5299 C   0  0  0  0  0  0  0  0  0  0  0  0
  151.7685  142.5893  159.3494 N   0  0  0  0  0  0  0  0  0  0  0  0
  152.2906  143.2137  160.4851 C   0  0  0  0  0  0  0  0  0  0  0  0
  152.0757  144.5692  160.5141 C   0  0  0  0  0  0  0  0  0  0  0  0
  151.2036  145.1185  159.1078 S   0  0  0  0  0  0  0  0  0  0  0  0
  149.7934  141.9394  155.5733 N   0  0  0  0  0  0  0  0  0  0  0  0
  149.5086  140.7890  154.7203 C   0  0  2  0  0  0  0  0  0  0  0  0
  148.2928  140.0010  155.2445 C   0  0  0  0  0  0  0  0  0  0  0  0
  148.0489  138.7315  154.4066 C   0  0  0  0  0  0  0  0  0  0  0  0
  149.2547  137.8668  154.3347 N   0  3  2  0  0  0  0  0  0  0  0  0
  149.5169  137.1214  155.5883 C   0  0  0  0  0  0  0  0  0  0  0  0
  150.9478  136.6576  155.7312 C   0  0  0  0  0  0  0  0  0  0  0  0
  149.8643  135.6680  155.3657 C   0  0  0  0  0  0  0  0  0  0  0  0
  150.4415  138.6029  153.8276 C   0  0  0  0  0  0  0  0  0  0  0  0
  150.7377  139.8676  154.6560 C   0  0  0  0  0  0  0  0  0  0  0  0
  150.1333  143.8710  156.7910 H   0  0  0  0  0  0  0  0  0  0  0  0
  152.8015  142.6154  161.2251 H   0  0  0  0  0  0  0  0  0  0  0  0
  152.3760  145.2744  161.2746 H   0  0  0  0  0  0  0  0  0  0  0  0
  149.4635  142.8385  155.2537 H   0  0  0  0  0  0  0  0  0  0  0  0
  149.2945  141.1414  153.7093 H   0  0  0  0  0  0  0  0  0  0  0  0
  148.4452  139.7317  156.2904 H   0  0  0  0  0  0  0  0  0  0  0  0
  147.4001  140.6269  155.2192 H   0  0  0  0  0  0  0  0  0  0  0  0
  147.2079  138.1658  154.8092 H   0  0  0  0  0  0  0  0  0  0  0  0
  147.7692  139.0157  153.3914 H   0  0  0  0  0  0  0  0  0  0  0  0
  148.9488  137.4210  156.4668 H   0  0  0  0  0  0  0  0  0  0  0  0
  151.6600  136.9317  154.9550 H   0  0  0  0  0  0  0  0  0  0  0  0
  151.3578  136.5983  156.7374 H   0  0  0  0  0  0  0  0  0  0  0  0
  149.5605  134.9564  156.1307 H   0  0  0  0  0  0  0  0  0  0  0  0
  149.8577  135.2853  154.3465 H   0  0  0  0  0  0  0  0  0  0  0  0
  151.3109  137.9448  153.8133 H   0  0  0  0  0  0  0  0  0  0  0  0
  150.2535  138.8842  152.7907 H   0  0  0  0  0  0  0  0  0  0  0  0
  151.5806  140.4023  154.2165 H   0  0  0  0  0  0  0  0  0  0  0  0
  151.0477  139.5858  155.6633 H   0  0  0  0  0  0  0  0  0  0  0  0
  149.0494  137.1584  153.6445 H   0  0  0  0  0  0  0  0  0  0  0  0
  1  2  2  0  0  0  0
  2  3  1  0  0  0  0
  2  9  1  0  0  0  0
  3  4  1  0  0  0  0
  3 19  1  0  0  0  0
  4  8  1  0  0  0  0
  4  5  2  0  0  0  0
  5  6  1  0  0  0  0
  6  7  2  0  0  0  0
  6 20  1  0  0  0  0
  7  8  1  0  0  0  0
  7 21  1  0  0  0  0
  9 10  1  0  0  0  0
  9 22  1  0  0  0  0
 10 18  1  0  0  0  0
 10 11  1  0  0  0  0
 10 23  1  0  0  0  0
 11 12  1  0  0  0  0
 11 24  1  0  0  0  0
 11 25  1  0  0  0  0
 12 13  1  0  0  0  0
 12 26  1  0  0  0  0
 12 27  1  0  0  0  0
 13 14  1  0  0  0  0
 13 17  1  0  0  0  0
 13 37  1  0  0  0  0
 14 16  1  0  0  0  0
 14 15  1  0  0  0  0
 14 28  1  0  0  0  0
 15 16  1  0  0  0  0
 15 29  1  0  0  0  0
 15 30  1  0  0  0  0
 16 31  1  0  0  0  0
 16 32  1  0  0  0  0
 17 18  1  0  0  0  0
 17 33  1  0  0  0  0
 17 34  1  0  0  0  0
 18 35  1  0  0  0  0
 18 36  1  0  0  0  0
M  CHG  1  13   1
M  END
> <s_m_source_file>
AV-unprocessed.smi

> <i_m_source_file_index>
1222

> <i_lp_mmshare_version>
43012

> <i_f3d_flags>
0

> <s_epik_input>
czFbY0hdW2NIXW5jMVtOSF1DKD1PKVtOSF1bQ0hdMltDSDJdW0NIMl1OKFtDSDJdW0NIMl0yKVtDSF0zW0NIMl1bQ0gyXTM=

> <s_epik_cmdline>
J2VwaWtfcHl0aG9uJywgJy1waCcsICc3LjAnLCAnLXRuJywgJzgnLCAnLW1hJywgJzIwMCcsICctbWV0YWxfYmluZGluZycsICctaW1hZScsICc8aW5maWxlLm1hZT4nLCAnLW9tYWUnLCAnPG91dGZpbGUubWFlPic=

> <r_lp_tautomer_probability>
0.999

> <r_epik_Ionization_Penalty>
0.124652

> <r_epik_Ionization_Penalty_Charging>
0.124514

> <r_epik_Ionization_Penalty_Neutral>
0.000138693

> <r_epik_State_Penalty>
0.113992

> <r_epik_Charging_Adjusted_Penalty>
0.238505

> <i_epik_Tot_Q>
1

> <i_epik_Tot_abs_Q>
1

> <r_epik_Metal_State_Penalty>
0.160715

> <b_epik_Metal_Only>
0

> <s_lp_Force_Field>
OPLS_2005

> <r_lp_Energy>
26.0033

> <b_lp_Chiralities_Consistent>
1

> <s_lp_Variant>
AV-unprocessed.smi:1222-2

> <Gold.Version>
5.8.1

> <Gold.Id.Protein>
6NUR|6NUR_protein|mol2

> <Gold.PLP.Fitness>
42.9226

> <Gold.PLP.PLP>
-31.9108

> <Gold.PLP.part.hbond>
-3.0000

> <Gold.PLP.part.metal>
0.0000

> <Gold.PLP.part.buried>
-2.9138

> <Gold.PLP.part.nonpolar>
-26.2732

> <Gold.PLP.part.repulsive>
0.1830

> <Gold.PLP.ligand.clash>
0.0000

> <Gold.PLP.ligand.torsion>
1.1203

> <Gold.PLP.Chemscore.Hbond>
3.9920

> <Gold.PLP.Chemscore.CHOScore>
0.0000

> <Gold.PLP.Chemscore.Metal>
0.0000

> <Gold.Chemscore.Hbonds>
donor molecule, donor type, donor heavy atom, donor atom, acceptor molecule, acceptor atom, score
      L1  H     3    19       P1  8028  1.00
      L1  H     9    22       P1  8028  1.00
      L1  H    13    37       P1  7948  2.00

> <Gold.PLP.Chemscore.Internal.Correction>
1.2765

> <Gold.Rescore>
     Score         DG    S(hbond)    S(metal)    S(lipo)     H(rot)  DE(clash)    DE(int)     intcor
     16.76     -21.08       2.94        0.00      76.85       1.26       1.42       2.90       ----

> <Gold.Chemscore.Fitness>
16.7584

> <Gold.Chemscore.DG>
-21.0782

> <Gold.Chemscore.ZeroCoef>
-5.4800

> <Gold.Chemscore.Hbond>
2.9446

> <Gold.Chemscore.Metal>
0.0000

> <Gold.Chemscore.Lipo>
76.8463

> <Gold.Chemscore.Internal_Hbond>
0.0000

> <Gold.Chemscore.DEClash>
1.4242

> <Gold.Chemscore.DEInternal>
2.8956

> <Gold.Chemscore.Rot>
1.2609

> <Gold.Chemscore.Internal.Correction>
   9.000000E+99

> <Gold.Chemscore.Hbonds>
donor molecule, donor type, donor heavy atom, donor atom, acceptor molecule, acceptor atom, score
      L1  H     3    19       P1  8028  0.99
      L1  H     9    22       P1  8028  0.92
      L1  H    13    37       P1  7948  0.96

> <Gold.Chemscore.Hbond.Weighted>
-9.8351

> <Gold.Chemscore.Metal.Weighted>
-0.0000

> <Gold.Chemscore.Lipo.Weighted>
-8.9910

> <Gold.Chemscore.Internal_Hbond.Weighted>
0.0000

> <Gold.Chemscore.DEClash.Weighted>
1.4242

> <Gold.Chemscore.DEInternal.Weighted>
2.8956

> <Gold.Chemscore.Rot.Weighted>
3.2279

> <Gold.Chemscore.Internal.Correction.Weighted>
   9.000000E+99

> <Gold.Protein.RotatedTorsions>
[ 6907 6896 6895 6894 ] final  -55.78 input  -60.11 | X-H torsion
[ 7974 7965 7964 7962 ] final  154.94 input  175.53 | X-H torsion
[ 8008 7997 7996 7995 ] final   26.17 input   59.86 | X-H torsion
[ 10167 10162 10161 10158 ] final -118.42 input  -65.29 | X-H torsion
[ 10718 10713 10712 10709 ] final   53.14 input   66.30 | X-H torsion
[ 10763 10752 10751 10750 ] final  129.27 input  -60.55 | X-H torsion
[ 11005 11000 10999 10996 ] final  -11.68 input  -57.11 | X-H torsion

> <Gold.Protein.ActiveResidues>
 VAL166  LYS551  ARG553  GLY616  TRP617  ASP618  TYR619  PRO620  LYS621  CYS622 
 ASP623  PHE694  ASN695  SER759  ASP760  ASP761  ALA762  ILE779  LEU786  VAL792 
 PHE793  MET794  SER795  GLU796  ALA797  LYS798  CYS799  TRP800  GLU811  SER814 

> <Gold.Protein.RotatedAtoms>
  150.8222  134.7436  159.6781 H   0  0  0  0  0  0  0  0  0  0  0  0  # atno 6907 bound_to 6896
  152.4337  134.5725  159.9935 H   0  0  0  0  0  0  0  0  0  0  0  0  # atno 6908 bound_to 6896
  151.5907  133.3329  159.3063 H   0  0  0  0  0  0  0  0  0  0  0  0  # atno 6909 bound_to 6896
  144.8057  139.7000  143.6163 H   0  0  0  0  0  0  0  0  0  0  0  0  # atno 7974 bound_to 7965
  155.0231  140.3150  155.4786 H   0  0  0  0  0  0  0  0  0  0  0  0  # atno 8008 bound_to 7997
  156.2888  140.2194  156.5292 H   0  0  0  0  0  0  0  0  0  0  0  0  # atno 8009 bound_to 7997
  154.7435  140.0472  157.0819 H   0  0  0  0  0  0  0  0  0  0  0  0  # atno 8010 bound_to 7997
  140.0577  143.4998  152.2048 H   0  0  0  0  0  0  0  0  0  0  0  0  # atno 10167 bound_to 10162
  157.5139  130.8519  149.8471 H   0  0  0  0  0  0  0  0  0  0  0  0  # atno 10718 bound_to 10713
  153.7391  135.3227  155.3300 H   0  0  0  0  0  0  0  0  0  0  0  0  # atno 10763 bound_to 10752
  154.8301  135.4540  154.1044 H   0  0  0  0  0  0  0  0  0  0  0  0  # atno 10764 bound_to 10752
  153.2214  135.6948  153.8077 H   0  0  0  0  0  0  0  0  0  0  0  0  # atno 10765 bound_to 10752
  140.7578  133.8539  155.9099 H   0  0  0  0  0  0  0  0  0  0  0  0  # atno 11005 bound_to 11000
  146.2347  139.5882  142.9531 LP  0  0  0  0  0  0  0  0  0  0  0  0  # atno 17320 bound_to 7965
  145.5445  141.0418  143.2312 LP  0  0  0  0  0  0  0  0  0  0  0  0  # atno 17321 bound_to 7965
  139.5913  144.7551  151.3393 LP  0  0  0  0  0  0  0  0  0  0  0  0  # atno 17342 bound_to 10162
  140.7187  143.7196  150.7706 LP  0  0  0  0  0  0  0  0  0  0  0  0  # atno 17343 bound_to 10162
  156.0307  130.3765  150.1695 LP  0  0  0  0  0  0  0  0  0  0  0  0  # atno 17370 bound_to 10713
  156.9884  130.9886  151.3420 LP  0  0  0  0  0  0  0  0  0  0  0  0  # atno 17371 bound_to 10713
  140.9691  134.1555  157.4591 LP  0  0  0  0  0  0  0  0  0  0  0  0  # atno 17394 bound_to 11000
  139.8776  134.9972  156.5835 LP  0  0  0  0  0  0  0  0  0  0  0  0  # atno 17395 bound_to 11000

$$$$
