AV-unprocessed.smi:2226|AV-procd|sdf|9016|dock8
  -GOLD-   2272012223D 1   1.00000     0.00000
 Structure written by MMmdl.
 40 42  0  0  0  0  0  0  0  0  2 V2000
  145.9329  142.9921  154.0427 C   0  0  0  0  0  0  0  0  0  0  0  0
  146.0156  141.5122  154.0475 N   0  3  1  0  0  0  0  0  0  0  0  0
  147.1677  140.9493  153.3019 C   0  0  1  0  0  0  0  0  0  0  0  0
  148.5049  141.2306  154.0338 C   0  0  0  0  0  0  0  0  0  0  0  0
  148.5088  140.8112  155.5160 C   0  0  0  0  0  0  0  0  0  0  0  0
  147.1913  141.1645  156.2319 C   0  0  0  0  0  0  0  0  0  0  0  0
  145.9208  140.8863  155.3888 C   0  0  2  0  0  0  0  0  0  0  0  0
  145.5702  139.3902  155.2173 C   0  0  0  0  0  0  0  0  0  0  0  0
  146.5010  138.6195  154.2499 C   0  0  1  0  0  0  0  0  0  0  0  0
  145.8271  137.3985  153.8104 N   0  0  0  0  0  0  0  0  0  0  0  0
  146.2685  136.1400  153.9602 C   0  0  0  0  0  0  0  0  0  0  0  0
  147.3433  135.8877  154.5137 O   0  0  0  0  0  0  0  0  0  0  0  0
  145.3507  135.2542  153.4137 N   0  0  0  0  0  0  0  0  0  0  0  0
  145.7111  134.4400  152.4691 C   0  0  0  0  0  0  0  0  0  0  0  0
  146.9182  134.2236  151.8096 N   0  0  0  0  0  0  0  0  0  0  0  0
  146.7292  133.2312  150.8891 C   0  0  0  0  0  0  0  0  0  0  0  0
  145.4614  132.8376  150.9624 C   0  0  0  0  0  0  0  0  0  0  0  0
  144.8139  133.5591  151.9199 O   0  0  0  0  0  0  0  0  0  0  0  0
  146.8901  139.4572  153.0077 C   0  0  0  0  0  0  0  0  0  0  0  0
  146.7733  143.4558  154.5585 H   0  0  0  0  0  0  0  0  0  0  0  0
  145.0147  143.3222  154.5292 H   0  0  0  0  0  0  0  0  0  0  0  0
  145.9162  143.3677  153.0193 H   0  0  0  0  0  0  0  0  0  0  0  0
  147.2162  141.4511  152.3343 H   0  0  0  0  0  0  0  0  0  0  0  0
  149.3291  140.7442  153.5111 H   0  0  0  0  0  0  0  0  0  0  0  0
  148.7180  142.2985  153.9780 H   0  0  0  0  0  0  0  0  0  0  0  0
  148.7170  139.7488  155.6085 H   0  0  0  0  0  0  0  0  0  0  0  0
  149.3411  141.2954  156.0280 H   0  0  0  0  0  0  0  0  0  0  0  0
  147.1351  140.6339  157.1830 H   0  0  0  0  0  0  0  0  0  0  0  0
  147.2149  142.2227  156.4932 H   0  0  0  0  0  0  0  0  0  0  0  0
  145.0788  141.3428  155.9113 H   0  0  0  0  0  0  0  0  0  0  0  0
  145.5450  138.8925  156.1875 H   0  0  0  0  0  0  0  0  0  0  0  0
  144.5493  139.3380  154.8342 H   0  0  0  0  0  0  0  0  0  0  0  0
  147.4086  138.3524  154.7839 H   0  0  0  0  0  0  0  0  0  0  0  0
  144.9380  137.5186  153.3466 H   0  0  0  0  0  0  0  0  0  0  0  0
  147.8020  134.6916  151.9517 H   0  0  0  0  0  0  0  0  0  0  0  0
  147.5454  132.9035  150.2624 H   0  0  0  0  0  0  0  0  0  0  0  0
  144.8928  132.0916  150.4272 H   0  0  0  0  0  0  0  0  0  0  0  0
  146.0700  139.4152  152.2884 H   0  0  0  0  0  0  0  0  0  0  0  0
  147.7450  139.0039  152.5043 H   0  0  0  0  0  0  0  0  0  0  0  0
  145.1924  141.2095  153.5465 H   0  0  0  0  0  0  0  0  0  0  0  0
  1  2  1  0  0  0  0
  1 20  1  0  0  0  0
  1 21  1  0  0  0  0
  1 22  1  0  0  0  0
  2  7  1  0  0  0  0
  2  3  1  0  0  0  0
  2 40  1  0  0  0  0
  3 19  1  0  0  0  0
  3  4  1  0  0  0  0
  3 23  1  0  0  0  0
  4  5  1  0  0  0  0
  4 24  1  0  0  0  0
  4 25  1  0  0  0  0
  5  6  1  0  0  0  0
  5 26  1  0  0  0  0
  5 27  1  0  0  0  0
  6  7  1  0  0  0  0
  6 28  1  0  0  0  0
  6 29  1  0  0  0  0
  7  8  1  0  0  0  0
  7 30  1  0  0  0  0
  8  9  1  0  0  0  0
  8 31  1  0  0  0  0
  8 32  1  0  0  0  0
  9 10  1  0  0  0  0
  9 19  1  0  0  0  0
  9 33  1  0  0  0  0
 10 34  1  0  0  0  0
 10 11  1  0  0  0  0
 11 13  1  0  0  0  0
 11 12  2  0  0  0  0
 13 14  2  0  0  0  0
 14 18  1  0  0  0  0
 14 15  1  0  0  0  0
 15 35  1  0  0  0  0
 15 16  1  0  0  0  0
 16 36  1  0  0  0  0
 16 17  2  0  0  0  0
 17 37  1  0  0  0  0
 17 18  1  0  0  0  0
 19 38  1  0  0  0  0
 19 39  1  0  0  0  0
M  CHG  1   2   1
M  END
> <s_m_source_file>
AV-unprocessed.smi

> <i_m_source_file_index>
2226

> <i_lp_mmshare_version>
43012

> <i_f3d_flags>
0

> <s_epik_input>
W0NIMl0xW0NIMl1bQ0gyXVtDQEhdKE4oW0NIM10pW0NIXTEyKVtDSDJdW0NASF0oW0NIMl0yKVtOSF1DKD1PKVtOSF1jM25bY0hdW2NIXW8z

> <s_epik_cmdline>
J2VwaWtfcHl0aG9uJywgJy1waCcsICc3LjAnLCAnLXRuJywgJzgnLCAnLW1hJywgJzIwMCcsICctbWV0YWxfYmluZGluZycsICctaW1hZScsICc8aW5maWxlLm1hZT4nLCAnLW9tYWUnLCAnPG91dGZpbGUubWFlPic=

> <r_lp_tautomer_probability>
0.107061

> <r_epik_Ionization_Penalty>
1.08307

> <r_epik_Ionization_Penalty_Charging>
1.08272

> <r_epik_Ionization_Penalty_Neutral>
0.000345913

> <r_epik_State_Penalty>
2.5744

> <r_epik_Charging_Adjusted_Penalty>
3.65713

> <i_epik_Tot_Q>
1

> <i_epik_Tot_abs_Q>
1

> <r_epik_Metal_State_Penalty>
3.72133

> <b_epik_Metal_Only>
0

> <s_lp_Force_Field>
OPLS_2005

> <r_lp_Energy>
58.4837

> <b_lp_Chiralities_Consistent>
1

> <s_lp_Variant>
AV-unprocessed.smi:2226-16

> <Gold.Version>
5.8.1

> <Gold.Id.Protein>
6NUR|6NUR_protein|mol2

> <Gold.PLP.Fitness>
34.9536

> <Gold.PLP.PLP>
-24.0631

> <Gold.PLP.part.hbond>
-2.0000

> <Gold.PLP.part.metal>
0.0000

> <Gold.PLP.part.buried>
-4.7349

> <Gold.PLP.part.nonpolar>
-18.9438

> <Gold.PLP.part.repulsive>
0.6014

> <Gold.PLP.ligand.clash>
0.0000

> <Gold.PLP.ligand.torsion>
0.5574

> <Gold.PLP.Chemscore.Hbond>
3.0000

> <Gold.PLP.Chemscore.CHOScore>
1.0000

> <Gold.PLP.Chemscore.Metal>
0.0000

> <Gold.Chemscore.Hbonds>
donor molecule, donor type, donor heavy atom, donor atom, acceptor molecule, acceptor atom, score
      L1  H     2    40       P1 10175  2.00
      L1  H    15    35       P1  7948  1.00
      L1  C    16    36       P1 10747  1.00

> <Gold.PLP.Chemscore.Internal.Correction>
0.0054

> <Gold.Rescore>
     Score         DG    S(hbond)    S(metal)    S(lipo)     H(rot)  DE(clash)    DE(int)     intcor
     13.39     -14.03       1.48        0.00      52.75       1.00       0.01       0.64       ----

> <Gold.Chemscore.Fitness>
13.3872

> <Gold.Chemscore.DG>
-14.0318

> <Gold.Chemscore.ZeroCoef>
-5.4800

> <Gold.Chemscore.Hbond>
1.4792

> <Gold.Chemscore.Metal>
0.0000

> <Gold.Chemscore.Lipo>
52.7459

> <Gold.Chemscore.Internal_Hbond>
0.0000

> <Gold.Chemscore.DEClash>
0.0089

> <Gold.Chemscore.DEInternal>
0.6357

> <Gold.Chemscore.Rot>
1.0000

> <Gold.Chemscore.Internal.Correction>
   9.000000E+99

> <Gold.Chemscore.Hbonds>
donor molecule, donor type, donor heavy atom, donor atom, acceptor molecule, acceptor atom, score
      L1  H     2    40       P1 10175  0.39
      L1  H    15    35       P1  7948  0.38

> <Gold.Chemscore.Hbond.Weighted>
-4.9405

> <Gold.Chemscore.Metal.Weighted>
-0.0000

> <Gold.Chemscore.Lipo.Weighted>
-6.1713

> <Gold.Chemscore.Internal_Hbond.Weighted>
0.0000

> <Gold.Chemscore.DEClash.Weighted>
0.0089

> <Gold.Chemscore.DEInternal.Weighted>
0.6357

> <Gold.Chemscore.Rot.Weighted>
2.5600

> <Gold.Chemscore.Internal.Correction.Weighted>
   9.000000E+99

> <Gold.Protein.RotatedTorsions>
[ 6907 6896 6895 6894 ] final  142.24 input  -60.11 | X-H torsion
[ 7974 7965 7964 7962 ] final   74.93 input  175.53 | X-H torsion
[ 8008 7997 7996 7995 ] final  -55.06 input   59.86 | X-H torsion
[ 10167 10162 10161 10158 ] final   31.19 input  -65.29 | X-H torsion
[ 10718 10713 10712 10709 ] final   48.29 input   66.30 | X-H torsion
[ 10763 10752 10751 10750 ] final -135.32 input  -60.55 | X-H torsion
[ 11005 11000 10999 10996 ] final  133.17 input  -57.11 | X-H torsion

> <Gold.Protein.ActiveResidues>
 VAL166  LYS551  ARG553  GLY616  TRP617  ASP618  TYR619  PRO620  LYS621  CYS622 
 ASP623  PHE694  ASN695  SER759  ASP760  ASP761  ALA762  ILE779  LEU786  VAL792 
 PHE793  MET794  SER795  GLU796  ALA797  LYS798  CYS799  TRP800  GLU811  SER814 

> <Gold.Protein.RotatedAtoms>
  152.2212  133.4985  159.5163 H   0  0  0  0  0  0  0  0  0  0  0  0  # atno 6907 bound_to 6896
  150.7013  134.1340  159.4089 H   0  0  0  0  0  0  0  0  0  0  0  0  # atno 6908 bound_to 6896
  151.9261  135.0277  160.0576 H   0  0  0  0  0  0  0  0  0  0  0  0  # atno 6909 bound_to 6896
  145.7221  139.2652  143.1590 H   0  0  0  0  0  0  0  0  0  0  0  0  # atno 7974 bound_to 7965
  154.4182  140.1161  156.5416 H   0  0  0  0  0  0  0  0  0  0  0  0  # atno 8008 bound_to 7997
  155.6502  140.3496  155.4726 H   0  0  0  0  0  0  0  0  0  0  0  0  # atno 8009 bound_to 7997
  155.9799  140.1158  157.0726 H   0  0  0  0  0  0  0  0  0  0  0  0  # atno 8010 bound_to 7997
  140.4611  144.0905  150.6213 H   0  0  0  0  0  0  0  0  0  0  0  0  # atno 10167 bound_to 10162
  157.4672  130.8233  149.7949 H   0  0  0  0  0  0  0  0  0  0  0  0  # atno 10718 bound_to 10713
  154.8705  135.3707  154.4880 H   0  0  0  0  0  0  0  0  0  0  0  0  # atno 10763 bound_to 10752
  153.5528  135.7024  153.5588 H   0  0  0  0  0  0  0  0  0  0  0  0  # atno 10764 bound_to 10752
  153.3699  135.4024  155.1745 H   0  0  0  0  0  0  0  0  0  0  0  0  # atno 10765 bound_to 10752
  139.9835  134.9540  156.9687 H   0  0  0  0  0  0  0  0  0  0  0  0  # atno 11005 bound_to 11000
  146.0616  140.7964  142.9732 LP  0  0  0  0  0  0  0  0  0  0  0  0  # atno 17320 bound_to 7965
  144.6914  140.3206  143.7233 LP  0  0  0  0  0  0  0  0  0  0  0  0  # atno 17321 bound_to 7965
  140.4092  143.2665  151.9853 LP  0  0  0  0  0  0  0  0  0  0  0  0  # atno 17342 bound_to 10162
  139.4806  144.5930  151.7739 LP  0  0  0  0  0  0  0  0  0  0  0  0  # atno 17343 bound_to 10162
  156.0056  130.3857  150.2444 LP  0  0  0  0  0  0  0  0  0  0  0  0  # atno 17370 bound_to 10713
  157.0625  131.0094  151.3218 LP  0  0  0  0  0  0  0  0  0  0  0  0  # atno 17371 bound_to 10713
  140.5049  134.1060  155.7258 LP  0  0  0  0  0  0  0  0  0  0  0  0  # atno 17394 bound_to 11000
  141.1504  133.8980  157.2113 LP  0  0  0  0  0  0  0  0  0  0  0  0  # atno 17395 bound_to 11000

$$$$
