AV-unprocessed.smi:2706|AV-procd|sdf|10447|dock6
  -GOLD-   2272014493D 1   1.00000     0.00000
 Structure written by MMmdl.
 43 46  0  0  0  0  0  0  0  0  1 V2000
  153.2891  142.5202  162.6317 C   0  0  0  0  0  0  0  0  0  0  0  0
  153.0291  142.2819  161.2153 N   0  0  0  0  0  0  0  0  0  0  0  0
  153.4665  141.0380  160.5946 C   0  0  0  0  0  0  0  0  0  0  0  0
  152.3026  143.2350  160.4658 C   0  0  0  0  0  0  0  0  0  0  0  0
  152.1601  144.5730  160.9059 C   0  0  0  0  0  0  0  0  0  0  0  0
  151.4262  145.4747  160.1145 C   0  0  0  0  0  0  0  0  0  0  0  0
  150.8566  145.0202  158.9115 C   0  0  0  0  0  0  0  0  0  0  0  0
  151.0349  143.6734  158.5316 C   0  0  0  0  0  0  0  0  0  0  0  0
  150.4256  143.3043  157.3030 N   0  0  0  0  0  0  0  0  0  0  0  0
  150.4318  142.1011  156.7020 C   0  0  0  0  0  0  0  0  0  0  0  0
  150.9766  141.0879  157.1421 O   0  0  0  0  0  0  0  0  0  0  0  0
  149.7595  142.1384  155.5438 N   0  0  0  0  0  0  0  0  0  0  0  0
  149.5631  141.0387  154.6551 C   0  0  2  0  0  0  0  0  0  0  0  0
  148.3030  140.9130  153.8180 C   0  0  2  0  0  0  0  0  0  0  0  0
  146.8678  141.3824  154.0817 C   0  0  2  0  0  0  0  0  0  0  0  0
  146.7421  142.2974  155.3166 C   0  0  0  0  0  0  0  0  0  0  0  0
  146.9993  141.3170  156.4818 C   0  0  0  0  0  0  0  0  0  0  0  0
  147.2362  139.9833  155.7448 C   0  0  1  0  0  0  0  0  0  0  0  0
  146.2212  140.1084  154.6141 C   0  0  0  0  0  0  0  0  0  0  0  0
  148.5590  139.9443  154.9702 C   0  0  2  0  0  0  0  0  0  0  0  0
  151.7447  142.8161  159.3042 N   0  0  0  0  0  0  0  0  0  0  0  0
  153.8375  143.4527  162.7704 H   0  0  0  0  0  0  0  0  0  0  0  0
  153.8830  141.7176  163.0687 H   0  0  0  0  0  0  0  0  0  0  0  0
  152.3523  142.5843  163.1862 H   0  0  0  0  0  0  0  0  0  0  0  0
  154.1695  141.2409  159.7864 H   0  0  0  0  0  0  0  0  0  0  0  0
  152.6154  140.4891  160.1903 H   0  0  0  0  0  0  0  0  0  0  0  0
  153.9657  140.3902  161.3151 H   0  0  0  0  0  0  0  0  0  0  0  0
  152.5956  144.9234  161.8293 H   0  0  0  0  0  0  0  0  0  0  0  0
  151.3018  146.5010  160.4265 H   0  0  0  0  0  0  0  0  0  0  0  0
  150.2903  145.7009  158.2922 H   0  0  0  0  0  0  0  0  0  0  0  0
  149.9297  144.0424  156.8258 H   0  0  0  0  0  0  0  0  0  0  0  0
  149.3463  143.0166  155.2659 H   0  0  0  0  0  0  0  0  0  0  0  0
  150.4661  140.6815  154.1617 H   0  0  0  0  0  0  0  0  0  0  0  0
  148.4430  140.5038  152.8190 H   0  0  0  0  0  0  0  0  0  0  0  0
  146.3999  141.7864  153.1835 H   0  0  0  0  0  0  0  0  0  0  0  0
  147.4221  143.1479  155.2908 H   0  0  0  0  0  0  0  0  0  0  0  0
  145.7321  142.7034  155.3855 H   0  0  0  0  0  0  0  0  0  0  0  0
  147.8271  141.6017  157.1299 H   0  0  0  0  0  0  0  0  0  0  0  0
  146.1133  141.2469  157.1141 H   0  0  0  0  0  0  0  0  0  0  0  0
  147.1065  139.1023  156.3737 H   0  0  0  0  0  0  0  0  0  0  0  0
  145.1929  140.2433  154.9556 H   0  0  0  0  0  0  0  0  0  0  0  0
  146.2571  139.2772  153.9072 H   0  0  0  0  0  0  0  0  0  0  0  0
  148.8573  138.9377  154.6823 H   0  0  0  0  0  0  0  0  0  0  0  0
  1  2  1  0  0  0  0
  1 22  1  0  0  0  0
  1 23  1  0  0  0  0
  1 24  1  0  0  0  0
  2  3  1  0  0  0  0
  2  4  1  0  0  0  0
  3 25  1  0  0  0  0
  3 26  1  0  0  0  0
  3 27  1  0  0  0  0
  4 21  1  0  0  0  0
  4  5  2  0  0  0  0
  5  6  1  0  0  0  0
  5 28  1  0  0  0  0
  6  7  2  0  0  0  0
  6 29  1  0  0  0  0
  7  8  1  0  0  0  0
  7 30  1  0  0  0  0
  8  9  1  0  0  0  0
  8 21  2  0  0  0  0
  9 10  1  0  0  0  0
  9 31  1  0  0  0  0
 10 11  2  0  0  0  0
 10 12  1  0  0  0  0
 12 13  1  0  0  0  0
 12 32  1  0  0  0  0
 13 20  1  0  0  0  0
 13 14  1  0  0  0  0
 13 33  1  0  0  0  0
 14 20  1  0  0  0  0
 14 15  1  0  0  0  0
 14 34  1  0  0  0  0
 15 19  1  0  0  0  0
 15 16  1  0  0  0  0
 15 35  1  0  0  0  0
 16 17  1  0  0  0  0
 16 36  1  0  0  0  0
 16 37  1  0  0  0  0
 17 18  1  0  0  0  0
 17 38  1  0  0  0  0
 17 39  1  0  0  0  0
 18 19  1  0  0  0  0
 18 20  1  0  0  0  0
 18 40  1  0  0  0  0
 19 41  1  0  0  0  0
 19 42  1  0  0  0  0
 20 43  1  0  0  0  0
M  END
> <s_m_source_file>
AV-unprocessed.smi

> <i_m_source_file_index>
2706

> <i_lp_mmshare_version>
43012

> <i_f3d_flags>
0

> <s_epik_input>
W0NIM11OKFtDSDNdKWMxW2NIXVtjSF1bY0hdYyhuMSlbTkhdQyg9TylbTkhdW0NASF0yW0NAQEhdM1tDQEBIXShbQ0gyXTQpW0NIMl1bQ0gyXVtDQEBIXTRbQ0BIXTIz

> <s_epik_cmdline>
J2VwaWtfcHl0aG9uJywgJy1waCcsICc3LjAnLCAnLXRuJywgJzgnLCAnLW1hJywgJzIwMCcsICctbWV0YWxfYmluZGluZycsICctaW1hZScsICc8aW5maWxlLm1hZT4nLCAnLW9tYWUnLCAnPG91dGZpbGUubWFlPic=

> <r_lp_tautomer_probability>
1

> <r_epik_Ionization_Penalty>
0.0296788

> <r_epik_Ionization_Penalty_Charging>
0

> <r_epik_Ionization_Penalty_Neutral>
0.0296788

> <r_epik_State_Penalty>
0.0248512

> <r_epik_Charging_Adjusted_Penalty>
0.0248512

> <i_epik_Tot_Q>
0

> <i_epik_Tot_abs_Q>
0

> <r_epik_Metal_State_Penalty>
0.0237882

> <b_epik_Metal_Only>
0

> <s_lp_Force_Field>
OPLS_2005

> <r_lp_Energy>
85.7316

> <b_lp_Chiralities_Consistent>
1

> <s_lp_Variant>
AV-unprocessed.smi:2706-4

> <Gold.Version>
5.8.1

> <Gold.Id.Protein>
6NUR|6NUR_protein|mol2

> <Gold.PLP.Fitness>
52.2421

> <Gold.PLP.PLP>
-47.0272

> <Gold.PLP.part.hbond>
-2.0000

> <Gold.PLP.part.metal>
0.0000

> <Gold.PLP.part.buried>
-4.9113

> <Gold.PLP.part.nonpolar>
-40.1914

> <Gold.PLP.part.repulsive>
0.2073

> <Gold.PLP.ligand.clash>
0.0000

> <Gold.PLP.ligand.torsion>
0.4300

> <Gold.PLP.Chemscore.Hbond>
2.0000

> <Gold.PLP.Chemscore.CHOScore>
0.0000

> <Gold.PLP.Chemscore.Metal>
0.0000

> <Gold.Chemscore.Hbonds>
donor molecule, donor type, donor heavy atom, donor atom, acceptor molecule, acceptor atom, score
      L1  H     9    31       P1  8028  1.00
      L1  H    12    32       P1  8028  1.00

> <Gold.PLP.Chemscore.Internal.Correction>
0.0750

> <Gold.Rescore>
     Score         DG    S(hbond)    S(metal)    S(lipo)     H(rot)  DE(clash)    DE(int)     intcor
     18.58     -20.39       1.93        0.00      94.25       1.00       0.23       1.58       ----

> <Gold.Chemscore.Fitness>
18.5807

> <Gold.Chemscore.DG>
-20.3911

> <Gold.Chemscore.ZeroCoef>
-5.4800

> <Gold.Chemscore.Hbond>
1.9293

> <Gold.Chemscore.Metal>
0.0000

> <Gold.Chemscore.Lipo>
94.2493

> <Gold.Chemscore.Internal_Hbond>
0.0000

> <Gold.Chemscore.DEClash>
0.2264

> <Gold.Chemscore.DEInternal>
1.5840

> <Gold.Chemscore.Rot>
1.0000

> <Gold.Chemscore.Internal.Correction>
   9.000000E+99

> <Gold.Chemscore.Hbonds>
donor molecule, donor type, donor heavy atom, donor atom, acceptor molecule, acceptor atom, score
      L1  H     9    31       P1  8028  0.95
      L1  H    12    32       P1  8028  0.95

> <Gold.Chemscore.Hbond.Weighted>
-6.4440

> <Gold.Chemscore.Metal.Weighted>
-0.0000

> <Gold.Chemscore.Lipo.Weighted>
-11.0272

> <Gold.Chemscore.Internal_Hbond.Weighted>
0.0000

> <Gold.Chemscore.DEClash.Weighted>
0.2264

> <Gold.Chemscore.DEInternal.Weighted>
1.5840

> <Gold.Chemscore.Rot.Weighted>
2.5600

> <Gold.Chemscore.Internal.Correction.Weighted>
   9.000000E+99

> <Gold.Protein.RotatedTorsions>
[ 6907 6896 6895 6894 ] final -152.21 input  -60.11 | X-H torsion
[ 7974 7965 7964 7962 ] final  -93.55 input  175.53 | X-H torsion
[ 8008 7997 7996 7995 ] final  -76.50 input   59.86 | X-H torsion
[ 10167 10162 10161 10158 ] final  144.33 input  -65.29 | X-H torsion
[ 10718 10713 10712 10709 ] final   54.77 input   66.30 | X-H torsion
[ 10763 10752 10751 10750 ] final  -49.49 input  -60.55 | X-H torsion
[ 11005 11000 10999 10996 ] final -154.05 input  -57.11 | X-H torsion

> <Gold.Protein.ActiveResidues>
 VAL166  LYS551  ARG553  GLY616  TRP617  ASP618  TYR619  PRO620  LYS621  CYS622 
 ASP623  PHE694  ASN695  SER759  ASP760  ASP761  ALA762  ILE779  LEU786  VAL792 
 PHE793  MET794  SER795  GLU796  ALA797  LYS798  CYS799  TRP800  GLU811  SER814 

> <Gold.Protein.RotatedAtoms>
  151.2244  133.4485  159.2601 H   0  0  0  0  0  0  0  0  0  0  0  0  # atno 6907 bound_to 6896
  151.0854  134.9884  159.8387 H   0  0  0  0  0  0  0  0  0  0  0  0  # atno 6908 bound_to 6896
  152.5429  134.2181  159.8829 H   0  0  0  0  0  0  0  0  0  0  0  0  # atno 6909 bound_to 6896
  145.3850  140.9522  143.2372 H   0  0  0  0  0  0  0  0  0  0  0  0  # atno 7974 bound_to 7965
  154.5511  140.0726  156.8669 H   0  0  0  0  0  0  0  0  0  0  0  0  # atno 8008 bound_to 7997
  155.2992  140.3383  155.4230 H   0  0  0  0  0  0  0  0  0  0  0  0  # atno 8009 bound_to 7997
  156.1962  140.1704  156.7980 H   0  0  0  0  0  0  0  0  0  0  0  0  # atno 8010 bound_to 7997
  139.4949  144.5979  151.6544 H   0  0  0  0  0  0  0  0  0  0  0  0  # atno 10167 bound_to 10162
  157.5286  130.8615  149.8656 H   0  0  0  0  0  0  0  0  0  0  0  0  # atno 10718 bound_to 10713
  154.0950  135.6572  153.4858 H   0  0  0  0  0  0  0  0  0  0  0  0  # atno 10763 bound_to 10752
  153.0308  135.5211  154.7343 H   0  0  0  0  0  0  0  0  0  0  0  0  # atno 10764 bound_to 10752
  154.6478  135.2997  154.9993 H   0  0  0  0  0  0  0  0  0  0  0  0  # atno 10765 bound_to 10752
  140.7015  134.3932  157.5209 H   0  0  0  0  0  0  0  0  0  0  0  0  # atno 11005 bound_to 11000
  144.8481  139.5365  143.6869 LP  0  0  0  0  0  0  0  0  0  0  0  0  # atno 17320 bound_to 7965
  146.2824  139.6914  142.9219 LP  0  0  0  0  0  0  0  0  0  0  0  0  # atno 17321 bound_to 7965
  140.5621  144.0250  150.6175 LP  0  0  0  0  0  0  0  0  0  0  0  0  # atno 17342 bound_to 10162
  140.3340  143.3060  152.0658 LP  0  0  0  0  0  0  0  0  0  0  0  0  # atno 17343 bound_to 10162
  156.0406  130.3740  150.1446 LP  0  0  0  0  0  0  0  0  0  0  0  0  # atno 17370 bound_to 10713
  156.9632  130.9811  151.3475 LP  0  0  0  0  0  0  0  0  0  0  0  0  # atno 17371 bound_to 10713
  139.8895  134.8827  156.2415 LP  0  0  0  0  0  0  0  0  0  0  0  0  # atno 17394 bound_to 11000
  141.0160  133.7068  156.1189 LP  0  0  0  0  0  0  0  0  0  0  0  0  # atno 17395 bound_to 11000

$$$$
