AV-unprocessed.smi:1364|AV-procd|sdf|5567|dock3
  -GOLD-   22720 5163D 1   1.00000     0.00000
 Structure written by MMmdl.
 40 41  0  0  0  0  0  0  0  0  1 V2000
  154.9571  134.1510  161.3139 C   0  0  0  0  0  0  0  0  0  0  0  0
  155.5915  135.5252  161.6133 C   0  0  0  0  0  0  0  0  0  0  0  0
  155.5677  135.7688  163.1367 C   0  0  0  0  0  0  0  0  0  0  0  0
  157.0627  135.5122  161.1335 C   0  0  0  0  0  0  0  0  0  0  0  0
  154.7454  136.6239  160.9218 C   0  0  0  0  0  0  0  0  0  0  0  0
  153.7710  136.2893  160.2471 O   0  0  0  0  0  0  0  0  0  0  0  0
  155.1353  137.9050  161.0767 N   0  0  0  0  0  0  0  0  0  0  0  0
  154.5385  139.0862  160.5593 C   0  0  0  0  0  0  0  0  0  0  0  0
  154.5512  140.3390  161.2144 C   0  0  0  0  0  0  0  0  0  0  0  0
  153.9414  141.4427  160.5877 C   0  0  0  0  0  0  0  0  0  0  0  0
  153.3386  141.2743  159.3186 C   0  0  0  0  0  0  0  0  0  0  0  0
  152.7194  142.3678  158.6742 N   0  0  0  0  0  0  0  0  0  0  0  0
  151.3629  142.1844  158.1608 C   0  0  0  0  0  0  0  0  0  0  0  0
  150.9718  143.3577  157.2466 C   0  0  0  0  0  0  0  0  0  0  0  0
  151.1320  144.5859  157.9484 O   0  0  0  0  0  0  0  0  0  0  0  0
  152.4837  144.7973  158.3423 C   0  0  0  0  0  0  0  0  0  0  0  0
  152.9321  143.6740  159.2933 C   0  0  0  0  0  0  0  0  0  0  0  0
  153.3484  140.0759  158.6847 N   0  0  0  0  0  0  0  0  0  0  0  0
  153.9331  139.0207  159.2891 C   0  0  0  0  0  0  0  0  0  0  0  0
  155.5165  133.3455  161.7908 H   0  0  0  0  0  0  0  0  0  0  0  0
  154.9398  133.9453  160.2426 H   0  0  0  0  0  0  0  0  0  0  0  0
  153.9304  134.0880  161.6776 H   0  0  0  0  0  0  0  0  0  0  0  0
  154.5540  135.7377  163.5389 H   0  0  0  0  0  0  0  0  0  0  0  0
  155.9936  136.7401  163.3918 H   0  0  0  0  0  0  0  0  0  0  0  0
  156.1463  135.0111  163.6664 H   0  0  0  0  0  0  0  0  0  0  0  0
  157.6319  134.7324  161.6406 H   0  0  0  0  0  0  0  0  0  0  0  0
  157.5652  136.4585  161.3392 H   0  0  0  0  0  0  0  0  0  0  0  0
  157.1387  135.3165  160.0629 H   0  0  0  0  0  0  0  0  0  0  0  0
  156.0016  138.0417  161.5774 H   0  0  0  0  0  0  0  0  0  0  0  0
  155.0289  140.4810  162.1711 H   0  0  0  0  0  0  0  0  0  0  0  0
  153.9613  142.4043  161.0780 H   0  0  0  0  0  0  0  0  0  0  0  0
  151.2939  141.2521  157.5988 H   0  0  0  0  0  0  0  0  0  0  0  0
  150.6665  142.1149  158.9977 H   0  0  0  0  0  0  0  0  0  0  0  0
  151.5776  143.3628  156.3389 H   0  0  0  0  0  0  0  0  0  0  0  0
  149.9321  143.2597  156.9342 H   0  0  0  0  0  0  0  0  0  0  0  0
  153.1278  144.8418  157.4626 H   0  0  0  0  0  0  0  0  0  0  0  0
  152.5604  145.7631  158.8417 H   0  0  0  0  0  0  0  0  0  0  0  0
  152.3590  143.7200  160.2202 H   0  0  0  0  0  0  0  0  0  0  0  0
  153.9761  143.8322  159.5590 H   0  0  0  0  0  0  0  0  0  0  0  0
  153.9117  138.0910  158.7395 H   0  0  0  0  0  0  0  0  0  0  0  0
  1  2  1  0  0  0  0
  1 20  1  0  0  0  0
  1 21  1  0  0  0  0
  1 22  1  0  0  0  0
  2  3  1  0  0  0  0
  2  4  1  0  0  0  0
  2  5  1  0  0  0  0
  3 23  1  0  0  0  0
  3 24  1  0  0  0  0
  3 25  1  0  0  0  0
  4 26  1  0  0  0  0
  4 27  1  0  0  0  0
  4 28  1  0  0  0  0
  5  6  2  0  0  0  0
  5  7  1  0  0  0  0
  7  8  1  0  0  0  0
  7 29  1  0  0  0  0
  8 19  1  0  0  0  0
  8  9  2  0  0  0  0
  9 10  1  0  0  0  0
  9 30  1  0  0  0  0
 10 11  2  0  0  0  0
 10 31  1  0  0  0  0
 11 12  1  0  0  0  0
 11 18  1  0  0  0  0
 12 17  1  0  0  0  0
 12 13  1  0  0  0  0
 13 14  1  0  0  0  0
 13 32  1  0  0  0  0
 13 33  1  0  0  0  0
 14 15  1  0  0  0  0
 14 34  1  0  0  0  0
 14 35  1  0  0  0  0
 15 16  1  0  0  0  0
 16 17  1  0  0  0  0
 16 36  1  0  0  0  0
 16 37  1  0  0  0  0
 17 38  1  0  0  0  0
 17 39  1  0  0  0  0
 18 19  2  0  0  0  0
 19 40  1  0  0  0  0
M  END
> <s_m_source_file>
AV-unprocessed.smi

> <i_m_source_file_index>
1364

> <i_lp_mmshare_version>
43012

> <i_f3d_flags>
0

> <s_epik_input>
W0NIM11DKFtDSDNdKShbQ0gzXSlDKD1PKVtOSF1jMVtjSF1bY0hdYyhuW2NIXTEpTjJbQ0gyXVtDSDJdT1tDSDJdW0NIMl0y

> <s_epik_cmdline>
J2VwaWtfcHl0aG9uJywgJy1waCcsICc3LjAnLCAnLXRuJywgJzgnLCAnLW1hJywgJzIwMCcsICctbWV0YWxfYmluZGluZycsICctaW1hZScsICc8aW5maWxlLm1hZT4nLCAnLW9tYWUnLCAnPG91dGZpbGUubWFlPic=

> <r_lp_tautomer_probability>
1

> <r_epik_Ionization_Penalty>
0.000770434

> <r_epik_Ionization_Penalty_Charging>
0

> <r_epik_Ionization_Penalty_Neutral>
0.000770434

> <r_epik_State_Penalty>
0.00047801

> <r_epik_Charging_Adjusted_Penalty>
0.00047801

> <i_epik_Tot_Q>
0

> <i_epik_Tot_abs_Q>
0

> <r_epik_Metal_State_Penalty>
-0

> <b_epik_Metal_Only>
0

> <s_lp_Force_Field>
OPLS_2005

> <r_lp_Energy>
28.9923

> <b_lp_Chiralities_Consistent>
1

> <s_lp_Variant>
AV-unprocessed.smi:1364-1

> <Gold.Version>
5.8.1

> <Gold.Id.Protein>
6NUR|6NUR_protein|mol2

> <Gold.PLP.Fitness>
37.6118

> <Gold.PLP.PLP>
-32.3798

> <Gold.PLP.part.hbond>
-2.0000

> <Gold.PLP.part.metal>
0.0000

> <Gold.PLP.part.buried>
-2.9795

> <Gold.PLP.part.nonpolar>
-26.9116

> <Gold.PLP.part.repulsive>
0.1613

> <Gold.PLP.ligand.clash>
0.0000

> <Gold.PLP.ligand.torsion>
0.4004

> <Gold.PLP.Chemscore.Hbond>
1.8938

> <Gold.PLP.Chemscore.CHOScore>
0.0000

> <Gold.PLP.Chemscore.Metal>
0.0000

> <Gold.Chemscore.Hbonds>
donor molecule, donor type, donor heavy atom, donor atom, acceptor molecule, acceptor atom, score
      P1  H  6896  6907       L1     6  0.93
      P1  H  7997  8008       L1    18  0.51

> <Gold.PLP.Chemscore.Internal.Correction>
0.3515

> <Gold.Rescore>
     Score         DG    S(hbond)    S(metal)    S(lipo)     H(rot)  DE(clash)    DE(int)     intcor
     15.73     -17.65       1.24        0.00      94.03       1.17       0.09       1.83       ----

> <Gold.Chemscore.Fitness>
15.7313

> <Gold.Chemscore.DG>
-17.6512

> <Gold.Chemscore.ZeroCoef>
-5.4800

> <Gold.Chemscore.Hbond>
1.2449

> <Gold.Chemscore.Metal>
0.0000

> <Gold.Chemscore.Lipo>
94.0348

> <Gold.Chemscore.Internal_Hbond>
0.0000

> <Gold.Chemscore.DEClash>
0.0859

> <Gold.Chemscore.DEInternal>
1.8340

> <Gold.Chemscore.Rot>
1.1675

> <Gold.Chemscore.Internal.Correction>
   9.000000E+99

> <Gold.Chemscore.Hbonds>
donor molecule, donor type, donor heavy atom, donor atom, acceptor molecule, acceptor atom, score
      P1  H  6896  6907       L1     6  0.89
      P1  H  7997  8008       L1    18  0.02

> <Gold.Chemscore.Hbond.Weighted>
-4.1579

> <Gold.Chemscore.Metal.Weighted>
-0.0000

> <Gold.Chemscore.Lipo.Weighted>
-11.0021

> <Gold.Chemscore.Internal_Hbond.Weighted>
0.0000

> <Gold.Chemscore.DEClash.Weighted>
0.0859

> <Gold.Chemscore.DEInternal.Weighted>
1.8340

> <Gold.Chemscore.Rot.Weighted>
2.9888

> <Gold.Chemscore.Internal.Correction.Weighted>
   9.000000E+99

> <Gold.Protein.RotatedTorsions>
[ 6907 6896 6895 6894 ] final   42.40 input  -60.11 | X-H torsion
[ 7974 7965 7964 7962 ] final  115.99 input  175.53 | X-H torsion
[ 8008 7997 7996 7995 ] final  -99.34 input   59.86 | X-H torsion
[ 10167 10162 10161 10158 ] final  -37.51 input  -65.29 | X-H torsion
[ 10718 10713 10712 10709 ] final   15.20 input   66.30 | X-H torsion
[ 10763 10752 10751 10750 ] final  -70.36 input  -60.55 | X-H torsion
[ 11005 11000 10999 10996 ] final  -80.41 input  -57.11 | X-H torsion

> <Gold.Protein.ActiveResidues>
 VAL166  LYS551  ARG553  GLY616  TRP617  ASP618  TYR619  PRO620  LYS621  CYS622 
 ASP623  PHE694  ASN695  SER759  ASP760  ASP761  ALA762  ILE779  LEU786  VAL792 
 PHE793  MET794  SER795  GLU796  ALA797  LYS798  CYS799  TRP800  GLU811  SER814 

> <Gold.Protein.RotatedAtoms>
  152.2073  134.8533  160.0501 H   0  0  0  0  0  0  0  0  0  0  0  0  # atno 6907 bound_to 6896
  151.9364  133.3620  159.3957 H   0  0  0  0  0  0  0  0  0  0  0  0  # atno 6908 bound_to 6896
  150.6968  134.4408  159.5335 H   0  0  0  0  0  0  0  0  0  0  0  0  # atno 6909 bound_to 6896
  145.1852  139.3029  143.4397 H   0  0  0  0  0  0  0  0  0  0  0  0  # atno 7974 bound_to 7965
  154.8135  140.0448  157.1359 H   0  0  0  0  0  0  0  0  0  0  0  0  # atno 8008 bound_to 7997
  154.9341  140.3044  155.5133 H   0  0  0  0  0  0  0  0  0  0  0  0  # atno 8009 bound_to 7997
  156.2974  140.2317  156.4404 H   0  0  0  0  0  0  0  0  0  0  0  0  # atno 8010 bound_to 7997
  140.7116  143.3337  151.2510 H   0  0  0  0  0  0  0  0  0  0  0  0  # atno 10167 bound_to 10162
  157.0501  130.6266  149.5766 H   0  0  0  0  0  0  0  0  0  0  0  0  # atno 10718 bound_to 10713
  154.4165  135.5996  153.5984 H   0  0  0  0  0  0  0  0  0  0  0  0  # atno 10763 bound_to 10752
  152.9792  135.5942  154.4006 H   0  0  0  0  0  0  0  0  0  0  0  0  # atno 10764 bound_to 10752
  154.3826  135.2841  155.2181 H   0  0  0  0  0  0  0  0  0  0  0  0  # atno 10765 bound_to 10752
  141.1668  133.7149  156.8268 H   0  0  0  0  0  0  0  0  0  0  0  0  # atno 11005 bound_to 11000
  146.3446  140.2045  142.8589 LP  0  0  0  0  0  0  0  0  0  0  0  0  # atno 17320 bound_to 7965
  145.0096  140.8703  143.5232 LP  0  0  0  0  0  0  0  0  0  0  0  0  # atno 17321 bound_to 7965
  139.6827  143.9827  152.2817 LP  0  0  0  0  0  0  0  0  0  0  0  0  # atno 17342 bound_to 10162
  139.9462  144.6649  150.8216 LP  0  0  0  0  0  0  0  0  0  0  0  0  # atno 17343 bound_to 10162
  156.0010  130.5089  150.7663 LP  0  0  0  0  0  0  0  0  0  0  0  0  # atno 17370 bound_to 10713
  157.5037  131.0920  151.0284 LP  0  0  0  0  0  0  0  0  0  0  0  0  # atno 17371 bound_to 10713
  140.2079  134.8849  157.3242 LP  0  0  0  0  0  0  0  0  0  0  0  0  # atno 17394 bound_to 11000
  140.2117  134.4130  155.7609 LP  0  0  0  0  0  0  0  0  0  0  0  0  # atno 17395 bound_to 11000

$$$$
