AV-unprocessed.smi:697|AV-procd|sdf|3395|dock10
  -GOLD-   22720 0373D 1   1.00000     0.00000
 Structure written by MMmdl.
 43 44  0  0  0  0  0  0  0  0  2 V2000
  158.7610  135.3371  160.4523 C   0  0  0  0  0  0  0  0  0  0  0  0
  157.4338  135.1320  160.9207 O   0  0  0  0  0  0  0  0  0  0  0  0
  156.8970  136.1083  161.8237 C   0  0  1  0  0  0  0  0  0  0  0  0
  157.7115  136.1464  163.1230 C   0  0  0  0  0  0  0  0  0  0  0  0
  156.6122  137.4232  161.0730 C   0  0  0  0  0  0  0  0  0  0  0  0
  155.2835  136.8046  160.6431 C   0  0  2  0  0  0  0  0  0  0  0  0
  154.1915  137.7724  160.6281 N   0  0  0  0  0  0  0  0  0  0  0  0
  154.0276  138.7172  159.6927 C   0  0  0  0  0  0  0  0  0  0  0  0
  154.8086  138.8754  158.7546 O   0  0  0  0  0  0  0  0  0  0  0  0
  152.9181  139.4392  159.9338 N   0  0  0  0  0  0  0  0  0  0  0  0
  152.3490  140.4899  159.1928 C   0  0  0  0  0  0  0  0  0  0  0  0
  152.4285  141.8101  159.5190 C   0  0  0  0  0  0  0  0  0  0  0  0
  151.8279  142.8547  158.6990 C   0  0  0  0  0  0  0  0  0  0  0  0
  151.8155  144.3235  159.0841 C   0  0  0  0  0  0  0  0  0  0  0  0
  150.5709  144.7987  159.1296 F   0  0  0  0  0  0  0  0  0  0  0  0
  152.3808  144.5087  160.2770 F   0  0  0  0  0  0  0  0  0  0  0  0
  152.4983  145.0330  158.1869 F   0  0  0  0  0  0  0  0  0  0  0  0
  151.1804  142.3442  157.5907 C   0  0  0  0  0  0  0  0  0  0  0  0
  151.0775  141.0607  157.1822 N   0  5  0  0  0  0  0  0  0  0  0  0
  151.6441  140.0922  157.9562 C   0  0  0  0  0  0  0  0  0  0  0  0
  151.5812  138.9020  157.6454 O   0  0  0  0  0  0  0  0  0  0  0  0
  155.3480  135.9088  161.9072 C   0  0  0  0  0  0  0  0  0  0  0  0
  154.8308  134.4756  161.7393 C   0  0  0  0  0  0  0  0  0  0  0  0
  154.6647  136.4534  163.1761 C   0  0  0  0  0  0  0  0  0  0  0  0
  158.9709  134.6229  159.6566 H   0  0  0  0  0  0  0  0  0  0  0  0
  159.4948  135.1658  161.2398 H   0  0  0  0  0  0  0  0  0  0  0  0
  158.9098  136.3372  160.0466 H   0  0  0  0  0  0  0  0  0  0  0  0
  157.2617  136.8058  163.8642 H   0  0  0  0  0  0  0  0  0  0  0  0
  158.7213  136.5219  162.9599 H   0  0  0  0  0  0  0  0  0  0  0  0
  157.7894  135.1556  163.5711 H   0  0  0  0  0  0  0  0  0  0  0  0
  156.5013  138.2771  161.7436 H   0  0  0  0  0  0  0  0  0  0  0  0
  157.2815  137.6605  160.2468 H   0  0  0  0  0  0  0  0  0  0  0  0
  155.3846  136.2381  159.7145 H   0  0  0  0  0  0  0  0  0  0  0  0
  153.5101  137.7097  161.3703 H   0  0  0  0  0  0  0  0  0  0  0  0
  152.4139  139.2127  160.7786 H   0  0  0  0  0  0  0  0  0  0  0  0
  152.9603  142.1354  160.3971 H   0  0  0  0  0  0  0  0  0  0  0  0
  150.6643  143.0775  156.9348 H   0  0  0  0  0  0  0  0  0  0  0  0
  153.7409  134.4418  161.7259 H   0  0  0  0  0  0  0  0  0  0  0  0
  155.1718  133.8306  162.5494 H   0  0  0  0  0  0  0  0  0  0  0  0
  155.1667  134.0271  160.8040 H   0  0  0  0  0  0  0  0  0  0  0  0
  153.5778  136.4358  163.0878 H   0  0  0  0  0  0  0  0  0  0  0  0
  154.9485  137.4846  163.3874 H   0  0  0  0  0  0  0  0  0  0  0  0
  154.9244  135.8622  164.0545 H   0  0  0  0  0  0  0  0  0  0  0  0
  1  2  1  0  0  0  0
  1 25  1  0  0  0  0
  1 26  1  0  0  0  0
  1 27  1  0  0  0  0
  2  3  1  0  0  0  0
  3 22  1  0  0  0  0
  3  4  1  0  0  0  0
  3  5  1  0  0  0  0
  4 28  1  0  0  0  0
  4 29  1  0  0  0  0
  4 30  1  0  0  0  0
  5  6  1  0  0  0  0
  5 31  1  0  0  0  0
  5 32  1  0  0  0  0
  6  7  1  0  0  0  0
  6 22  1  0  0  0  0
  6 33  1  0  0  0  0
  7  8  1  0  0  0  0
  7 34  1  0  0  0  0
  8  9  2  0  0  0  0
  8 10  1  0  0  0  0
 10 11  1  0  0  0  0
 10 35  1  0  0  0  0
 11 20  1  0  0  0  0
 11 12  2  0  0  0  0
 12 13  1  0  0  0  0
 12 36  1  0  0  0  0
 13 14  1  0  0  0  0
 13 18  2  0  0  0  0
 14 15  1  0  0  0  0
 14 16  1  0  0  0  0
 14 17  1  0  0  0  0
 18 19  1  0  0  0  0
 18 37  1  0  0  0  0
 19 20  1  0  0  0  0
 20 21  2  0  0  0  0
 22 23  1  0  0  0  0
 22 24  1  0  0  0  0
 23 38  1  0  0  0  0
 23 39  1  0  0  0  0
 23 40  1  0  0  0  0
 24 41  1  0  0  0  0
 24 42  1  0  0  0  0
 24 43  1  0  0  0  0
M  CHG  1  19  -1
M  END
> <s_m_source_file>
AV-unprocessed.smi

> <i_m_source_file_index>
697

> <i_lp_mmshare_version>
43012

> <i_f3d_flags>
0

> <s_epik_input>
W0NIM11PW0NAQF0xKFtDSDNdKVtDSDJdW0NASF0oQzEoW0NIM10pW0NIM10pW05IXUMoPU8pW05IXWMyW2NIXWMoQyhGKShGKUYpW2NIXVtuSF1jMj1P

> <s_epik_cmdline>
J2VwaWtfcHl0aG9uJywgJy1waCcsICc3LjAnLCAnLXRuJywgJzgnLCAnLW1hJywgJzIwMCcsICctbWV0YWxfYmluZGluZycsICctaW1hZScsICc8aW5maWxlLm1hZT4nLCAnLW9tYWUnLCAnPG91dGZpbGUubWFlPic=

> <r_lp_tautomer_probability>
1

> <r_epik_Ionization_Penalty>
3.20094

> <r_epik_Ionization_Penalty_Charging>
0.180017

> <r_epik_Ionization_Penalty_Neutral>
3.02092

> <r_epik_State_Penalty>
3.01726

> <r_epik_Charging_Adjusted_Penalty>
3.19727

> <i_epik_Tot_Q>
-1

> <i_epik_Tot_abs_Q>
1

> <r_epik_Metal_State_Penalty>
0.455096

> <b_epik_Metal_Only>
1

> <s_lp_Force_Field>
OPLS_2005

> <r_lp_Energy>
36.256

> <b_lp_Chiralities_Consistent>
1

> <s_lp_Variant>
AV-unprocessed.smi:697-7

> <Gold.Version>
5.8.1

> <Gold.Id.Protein>
6NUR|6NUR_protein|mol2

> <Gold.PLP.Fitness>
35.4913

> <Gold.PLP.PLP>
-34.0671

> <Gold.PLP.part.hbond>
-1.0000

> <Gold.PLP.part.metal>
0.0000

> <Gold.PLP.part.buried>
-5.8948

> <Gold.PLP.part.nonpolar>
-27.0478

> <Gold.PLP.part.repulsive>
0.1445

> <Gold.PLP.ligand.clash>
0.0000

> <Gold.PLP.ligand.torsion>
1.0033

> <Gold.PLP.Chemscore.Hbond>
1.0000

> <Gold.PLP.Chemscore.CHOScore>
0.0000

> <Gold.PLP.Chemscore.Metal>
0.0000

> <Gold.Chemscore.Hbonds>
donor molecule, donor type, donor heavy atom, donor atom, acceptor molecule, acceptor atom, score
      P1  H  7997  8008       L1     9  1.00

> <Gold.PLP.Chemscore.Internal.Correction>
0.4308

> <Gold.Rescore>
     Score         DG    S(hbond)    S(metal)    S(lipo)     H(rot)  DE(clash)    DE(int)     intcor
     13.34     -14.56       0.99        0.00      77.87       1.30       0.20       1.02       ----

> <Gold.Chemscore.Fitness>
13.3401

> <Gold.Chemscore.DG>
-14.5646

> <Gold.Chemscore.ZeroCoef>
-5.4800

> <Gold.Chemscore.Hbond>
0.9863

> <Gold.Chemscore.Metal>
0.0000

> <Gold.Chemscore.Lipo>
77.8739

> <Gold.Chemscore.Internal_Hbond>
0.0000

> <Gold.Chemscore.DEClash>
0.2002

> <Gold.Chemscore.DEInternal>
1.0244

> <Gold.Chemscore.Rot>
1.2973

> <Gold.Chemscore.Internal.Correction>
   9.000000E+99

> <Gold.Chemscore.Hbonds>
donor molecule, donor type, donor heavy atom, donor atom, acceptor molecule, acceptor atom, score
      P1  H  7997  8008       L1     9  1.00

> <Gold.Chemscore.Hbond.Weighted>
-3.2944

> <Gold.Chemscore.Metal.Weighted>
-0.0000

> <Gold.Chemscore.Lipo.Weighted>
-9.1112

> <Gold.Chemscore.Internal_Hbond.Weighted>
0.0000

> <Gold.Chemscore.DEClash.Weighted>
0.2002

> <Gold.Chemscore.DEInternal.Weighted>
1.0244

> <Gold.Chemscore.Rot.Weighted>
3.3210

> <Gold.Chemscore.Internal.Correction.Weighted>
   9.000000E+99

> <Gold.Protein.RotatedTorsions>
[ 6907 6896 6895 6894 ] final  110.96 input  -60.11 | X-H torsion
[ 7974 7965 7964 7962 ] final   -6.29 input  175.53 | X-H torsion
[ 8008 7997 7996 7995 ] final -118.66 input   59.86 | X-H torsion
[ 10167 10162 10161 10158 ] final -176.06 input  -65.29 | X-H torsion
[ 10718 10713 10712 10709 ] final  105.45 input   66.30 | X-H torsion
[ 10763 10752 10751 10750 ] final   -5.10 input  -60.55 | X-H torsion
[ 11005 11000 10999 10996 ] final   35.15 input  -57.11 | X-H torsion

> <Gold.Protein.ActiveResidues>
 VAL166  LYS551  ARG553  GLY616  TRP617  ASP618  TYR619  PRO620  LYS621  CYS622 
 ASP623  PHE694  ASN695  SER759  ASP760  ASP761  ALA762  ILE779  LEU786  VAL792 
 PHE793  MET794  SER795  GLU796  ALA797  LYS798  CYS799  TRP800  GLU811  SER814 

> <Gold.Protein.RotatedAtoms>
  152.4994  133.8726  159.7305 H   0  0  0  0  0  0  0  0  0  0  0  0  # atno 6907 bound_to 6896
  150.9209  133.6873  159.2839 H   0  0  0  0  0  0  0  0  0  0  0  0  # atno 6908 bound_to 6896
  151.4250  135.1007  159.9678 H   0  0  0  0  0  0  0  0  0  0  0  0  # atno 6909 bound_to 6896
  146.2334  140.2149  142.8336 H   0  0  0  0  0  0  0  0  0  0  0  0  # atno 7974 bound_to 7965
  155.1032  140.0396  157.2703 H   0  0  0  0  0  0  0  0  0  0  0  0  # atno 8008 bound_to 7997
  154.6742  140.2619  155.6950 H   0  0  0  0  0  0  0  0  0  0  0  0  # atno 8009 bound_to 7997
  156.2670  140.2791  156.1262 H   0  0  0  0  0  0  0  0  0  0  0  0  # atno 8010 bound_to 7997
  139.5549  144.2015  152.1142 H   0  0  0  0  0  0  0  0  0  0  0  0  # atno 10167 bound_to 10162
  157.6705  131.0828  150.5858 H   0  0  0  0  0  0  0  0  0  0  0  0  # atno 10718 bound_to 10713
  153.3938  135.7003  153.6475 H   0  0  0  0  0  0  0  0  0  0  0  0  # atno 10763 bound_to 10752
  153.5036  135.3647  155.2553 H   0  0  0  0  0  0  0  0  0  0  0  0  # atno 10764 bound_to 10752
  154.8705  135.4118  154.3260 H   0  0  0  0  0  0  0  0  0  0  0  0  # atno 10765 bound_to 10752
  140.2456  134.3363  155.7909 H   0  0  0  0  0  0  0  0  0  0  0  0  # atno 11005 bound_to 11000
  144.9677  140.8338  143.5474 LP  0  0  0  0  0  0  0  0  0  0  0  0  # atno 17320 bound_to 7965
  145.2127  139.2197  143.5134 LP  0  0  0  0  0  0  0  0  0  0  0  0  # atno 17321 bound_to 7965
  140.1517  144.5108  150.6683 LP  0  0  0  0  0  0  0  0  0  0  0  0  # atno 17342 bound_to 10162
  140.6820  143.2331  151.5360 LP  0  0  0  0  0  0  0  0  0  0  0  0  # atno 17343 bound_to 10162
  156.6158  130.4392  149.5841 LP  0  0  0  0  0  0  0  0  0  0  0  0  # atno 17370 bound_to 10713
  156.2394  130.6842  151.1541 LP  0  0  0  0  0  0  0  0  0  0  0  0  # atno 17371 bound_to 10713
  141.2206  133.7324  156.8956 LP  0  0  0  0  0  0  0  0  0  0  0  0  # atno 17394 bound_to 11000
  140.1609  134.9166  157.2713 LP  0  0  0  0  0  0  0  0  0  0  0  0  # atno 17395 bound_to 11000

$$$$
