AV-unprocessed.smi:1033|AV-procd|sdf|4495|dock2
  -GOLD-   22720 2483D 1   1.00000     0.00000
 Structure written by MMmdl.
 56 58  0  0  0  0  0  0  0  0  2 V2000
  153.6646  142.3192  162.2778 C   0  0  0  0  0  0  0  0  0  0  0  0
  153.0643  142.0025  160.9192 C   0  0  0  0  0  0  0  0  0  0  0  0
  152.1946  142.9396  160.3174 C   0  0  0  0  0  0  0  0  0  0  0  0
  151.6132  142.6824  159.0566 C   0  0  0  0  0  0  0  0  0  0  0  0
  150.7459  143.4456  158.2939 N   0  0  0  0  0  0  0  0  0  0  0  0
  150.5679  142.6672  157.2305 C   0  0  0  0  0  0  0  0  0  0  0  0
  151.2156  141.4859  157.2156 N   0  0  0  0  0  0  0  0  0  0  0  0
  151.1736  140.4766  156.1730 C   0  0  0  0  0  0  0  0  0  0  0  0
  150.1287  140.8044  155.0889 C   0  0  1  0  0  0  0  0  0  0  0  0
  150.3542  140.0248  153.9311 O   0  0  0  0  0  0  0  0  0  0  0  0
  148.6444  140.6825  155.5017 C   0  0  0  0  0  0  0  0  0  0  0  0
  147.6961  140.3084  154.4416 N   0  0  0  0  0  0  0  0  0  0  0  0
  146.4708  139.6523  154.9137 C   0  0  0  0  0  0  0  0  0  0  0  0
  145.4976  140.6002  155.6471 C   0  0  0  0  0  0  0  0  0  0  0  0
  145.1541  141.7626  154.7859 N   0  3  0  0  0  0  0  0  0  0  0  0
  144.1846  142.7006  155.4064 C   0  0  0  0  0  0  0  0  0  0  0  0
  144.2661  144.1234  154.8175 C   0  0  2  0  0  0  0  0  0  0  0  0
  144.0142  145.2232  155.8593 C   0  0  0  0  0  0  0  0  0  0  0  0
  143.2880  144.2429  153.8065 O   0  0  0  0  0  0  0  0  0  0  0  0
  146.3879  142.4460  154.3232 C   0  0  0  0  0  0  0  0  0  0  0  0
  147.3088  141.4428  153.6027 C   0  0  0  0  0  0  0  0  0  0  0  0
  151.9284  141.4520  158.4090 C   0  0  0  0  0  0  0  0  0  0  0  0
  152.7940  140.5127  158.9962 C   0  0  0  0  0  0  0  0  0  0  0  0
  153.3655  140.7851  160.2569 C   0  0  0  0  0  0  0  0  0  0  0  0
  154.2974  139.7635  160.8840 C   0  0  0  0  0  0  0  0  0  0  0  0
  153.3576  143.3050  162.6284 H   0  0  0  0  0  0  0  0  0  0  0  0
  154.7537  142.3071  162.2279 H   0  0  0  0  0  0  0  0  0  0  0  0
  153.3428  141.5856  163.0172 H   0  0  0  0  0  0  0  0  0  0  0  0
  151.9647  143.8669  160.8215 H   0  0  0  0  0  0  0  0  0  0  0  0
  149.9261  142.9711  156.4163 H   0  0  0  0  0  0  0  0  0  0  0  0
  152.1704  140.4041  155.7378 H   0  0  0  0  0  0  0  0  0  0  0  0
  150.9506  139.5159  156.6386 H   0  0  0  0  0  0  0  0  0  0  0  0
  150.2800  141.8416  154.7871 H   0  0  0  0  0  0  0  0  0  0  0  0
  149.7237  140.2751  153.2729 H   0  0  0  0  0  0  0  0  0  0  0  0
  148.5590  140.0005  156.3467 H   0  0  0  0  0  0  0  0  0  0  0  0
  148.3603  141.6568  155.9021 H   0  0  0  0  0  0  0  0  0  0  0  0
  145.9534  139.2215  154.0553 H   0  0  0  0  0  0  0  0  0  0  0  0
  146.7014  138.8113  155.5617 H   0  0  0  0  0  0  0  0  0  0  0  0
  144.5971  140.0433  155.9025 H   0  0  0  0  0  0  0  0  0  0  0  0
  145.9236  140.9468  156.5890 H   0  0  0  0  0  0  0  0  0  0  0  0
  143.1766  142.2969  155.2970 H   0  0  0  0  0  0  0  0  0  0  0  0
  144.3742  142.7599  156.4795 H   0  0  0  0  0  0  0  0  0  0  0  0
  145.2323  144.2876  154.3417 H   0  0  0  0  0  0  0  0  0  0  0  0
  144.7707  145.2061  156.6442 H   0  0  0  0  0  0  0  0  0  0  0  0
  143.0393  145.1077  156.3344 H   0  0  0  0  0  0  0  0  0  0  0  0
  144.0448  146.2120  155.4002 H   0  0  0  0  0  0  0  0  0  0  0  0
  143.2769  143.4473  153.2960 H   0  0  0  0  0  0  0  0  0  0  0  0
  146.1255  143.2499  153.6346 H   0  0  0  0  0  0  0  0  0  0  0  0
  146.9000  142.9069  155.1694 H   0  0  0  0  0  0  0  0  0  0  0  0
  148.1993  141.9537  153.2344 H   0  0  0  0  0  0  0  0  0  0  0  0
  146.7974  141.0691  152.7142 H   0  0  0  0  0  0  0  0  0  0  0  0
  153.0147  139.5896  158.4810 H   0  0  0  0  0  0  0  0  0  0  0  0
  154.4059  138.8827  160.2506 H   0  0  0  0  0  0  0  0  0  0  0  0
  153.9125  139.4357  161.8498 H   0  0  0  0  0  0  0  0  0  0  0  0
  155.2885  140.1923  161.0326 H   0  0  0  0  0  0  0  0  0  0  0  0
  144.7104  141.3952  153.9562 H   0  0  0  0  0  0  0  0  0  0  0  0
  1  2  1  0  0  0  0
  1 26  1  0  0  0  0
  1 27  1  0  0  0  0
  1 28  1  0  0  0  0
  2 24  1  0  0  0  0
  2  3  2  0  0  0  0
  3  4  1  0  0  0  0
  3 29  1  0  0  0  0
  4 22  2  0  0  0  0
  4  5  1  0  0  0  0
  5  6  2  0  0  0  0
  6  7  1  0  0  0  0
  6 30  1  0  0  0  0
  7  8  1  0  0  0  0
  7 22  1  0  0  0  0
  8  9  1  0  0  0  0
  8 31  1  0  0  0  0
  8 32  1  0  0  0  0
  9 10  1  0  0  0  0
  9 11  1  0  0  0  0
  9 33  1  0  0  0  0
 10 34  1  0  0  0  0
 11 12  1  0  0  0  0
 11 35  1  0  0  0  0
 11 36  1  0  0  0  0
 12 21  1  0  0  0  0
 12 13  1  0  0  0  0
 13 14  1  0  0  0  0
 13 37  1  0  0  0  0
 13 38  1  0  0  0  0
 14 15  1  0  0  0  0
 14 39  1  0  0  0  0
 14 40  1  0  0  0  0
 15 16  1  0  0  0  0
 15 20  1  0  0  0  0
 15 56  1  0  0  0  0
 16 17  1  0  0  0  0
 16 41  1  0  0  0  0
 16 42  1  0  0  0  0
 17 18  1  0  0  0  0
 17 19  1  0  0  0  0
 17 43  1  0  0  0  0
 18 44  1  0  0  0  0
 18 45  1  0  0  0  0
 18 46  1  0  0  0  0
 19 47  1  0  0  0  0
 20 21  1  0  0  0  0
 20 48  1  0  0  0  0
 20 49  1  0  0  0  0
 21 50  1  0  0  0  0
 21 51  1  0  0  0  0
 22 23  1  0  0  0  0
 23 24  2  0  0  0  0
 23 52  1  0  0  0  0
 24 25  1  0  0  0  0
 25 53  1  0  0  0  0
 25 54  1  0  0  0  0
 25 55  1  0  0  0  0
M  CHG  1  15   1
M  END
> <s_m_source_file>
AV-unprocessed.smi

> <i_m_source_file_index>
1033

> <i_lp_mmshare_version>
43012

> <i_f3d_flags>
0

> <s_epik_input>
W0NIM11jKFtjSF0xKWMoW0NIM10pW2NIXWMoYzEyKW4oW2NIXW4yKVtDSDJdW0NASF0oW09IXSlbQ0gyXU4zW0NIMl1bQ0gyXU4oW0NIMl1bQ0gyXTMpW0NIMl1bQ0BIXShbQ0gzXSlbT0hd

> <s_epik_cmdline>
J2VwaWtfcHl0aG9uJywgJy1waCcsICc3LjAnLCAnLXRuJywgJzgnLCAnLW1hJywgJzIwMCcsICctbWV0YWxfYmluZGluZycsICctaW1hZScsICc8aW5maWxlLm1hZT4nLCAnLW9tYWUnLCAnPG91dGZpbGUubWFlPic=

> <r_epik_Ionization_Penalty>
0.129152

> <r_epik_Ionization_Penalty_Charging>
0.00083231

> <r_epik_Ionization_Penalty_Neutral>
0.128319

> <r_epik_State_Penalty>
0.556973

> <r_epik_Charging_Adjusted_Penalty>
0.557805

> <i_epik_Tot_Q>
1

> <i_epik_Tot_abs_Q>
1

> <r_epik_Metal_State_Penalty>
0.490047

> <b_epik_Metal_Only>
0

> <s_lp_Force_Field>
OPLS_2005

> <r_lp_Energy>
40.305

> <b_lp_Chiralities_Consistent>
1

> <s_lp_Variant>
AV-unprocessed.smi:1033-6

> <Gold.Version>
5.8.1

> <Gold.Id.Protein>
6NUR|6NUR_protein|mol2

> <Gold.PLP.Fitness>
60.6640

> <Gold.PLP.PLP>
-47.9326

> <Gold.PLP.part.hbond>
-3.9051

> <Gold.PLP.part.metal>
0.0000

> <Gold.PLP.part.buried>
-4.0391

> <Gold.PLP.part.nonpolar>
-39.1248

> <Gold.PLP.part.repulsive>
0.2419

> <Gold.PLP.ligand.clash>
0.0145

> <Gold.PLP.ligand.torsion>
1.6122

> <Gold.PLP.Chemscore.Hbond>
4.2310

> <Gold.PLP.Chemscore.CHOScore>
1.0000

> <Gold.PLP.Chemscore.Metal>
0.0000

> <Gold.Chemscore.Hbonds>
donor molecule, donor type, donor heavy atom, donor atom, acceptor molecule, acceptor atom, score
      L1  H    10    34       P1  7957  0.51
      L1  H    15    56       P1 10175  2.00
      L1  H    19    47       P1 10174  1.00
      P1  H  7989  7998       L1    10  0.69
      L1  C     6    30       P1  8028  1.00

> <Gold.PLP.Chemscore.Internal.Correction>
0.2771

> <Gold.Rescore>
     Score         DG    S(hbond)    S(metal)    S(lipo)     H(rot)  DE(clash)    DE(int)     intcor
     17.30     -19.56       2.31        0.00     121.60       3.07       0.40       1.87       ----

> <Gold.Chemscore.Fitness>
17.3036

> <Gold.Chemscore.DG>
-19.5647

> <Gold.Chemscore.ZeroCoef>
-5.4800

> <Gold.Chemscore.Hbond>
2.3064

> <Gold.Chemscore.Metal>
0.0000

> <Gold.Chemscore.Lipo>
121.6045

> <Gold.Chemscore.Internal_Hbond>
0.0000

> <Gold.Chemscore.DEClash>
0.3953

> <Gold.Chemscore.DEInternal>
1.8657

> <Gold.Chemscore.Rot>
3.0650

> <Gold.Chemscore.Internal.Correction>
   9.000000E+99

> <Gold.Chemscore.Hbonds>
donor molecule, donor type, donor heavy atom, donor atom, acceptor molecule, acceptor atom, score
      L1  H    10    34       P1  7957  0.51
      L1  H    15    56       P1 10175  0.34
      L1  H    19    47       P1 10174  0.91
      P1  H  7989  7998       L1    10  0.02

> <Gold.Chemscore.Hbond.Weighted>
-7.7034

> <Gold.Chemscore.Metal.Weighted>
-0.0000

> <Gold.Chemscore.Lipo.Weighted>
-14.2277

> <Gold.Chemscore.Internal_Hbond.Weighted>
0.0000

> <Gold.Chemscore.DEClash.Weighted>
0.3953

> <Gold.Chemscore.DEInternal.Weighted>
1.8657

> <Gold.Chemscore.Rot.Weighted>
7.8465

> <Gold.Chemscore.Internal.Correction.Weighted>
   9.000000E+99

> <Gold.Protein.RotatedTorsions>
[ 6907 6896 6895 6894 ] final  -56.56 input  -60.11 | X-H torsion
[ 7974 7965 7964 7962 ] final   26.42 input  175.53 | X-H torsion
[ 8008 7997 7996 7995 ] final  -65.80 input   59.86 | X-H torsion
[ 10167 10162 10161 10158 ] final   14.50 input  -65.29 | X-H torsion
[ 10718 10713 10712 10709 ] final -132.77 input   66.30 | X-H torsion
[ 10763 10752 10751 10750 ] final   -8.86 input  -60.55 | X-H torsion
[ 11005 11000 10999 10996 ] final  117.65 input  -57.11 | X-H torsion

> <Gold.Protein.ActiveResidues>
 VAL166  LYS551  ARG553  GLY616  TRP617  ASP618  TYR619  PRO620  LYS621  CYS622 
 ASP623  PHE694  ASN695  SER759  ASP760  ASP761  ALA762  ILE779  LEU786  VAL792 
 PHE793  MET794  SER795  GLU796  ALA797  LYS798  CYS799  TRP800  GLU811  SER814 

> <Gold.Protein.RotatedAtoms>
  150.8158  134.7338  159.6727 H   0  0  0  0  0  0  0  0  0  0  0  0  # atno 6907 bound_to 6896
  152.4276  134.5835  159.9964 H   0  0  0  0  0  0  0  0  0  0  0  0  # atno 6908 bound_to 6896
  151.6033  133.3317  159.3088 H   0  0  0  0  0  0  0  0  0  0  0  0  # atno 6909 bound_to 6896
  146.1838  139.7331  142.8881 H   0  0  0  0  0  0  0  0  0  0  0  0  # atno 7974 bound_to 7965
  154.4694  140.0925  156.7106 H   0  0  0  0  0  0  0  0  0  0  0  0  # atno 8008 bound_to 7997
  155.4765  140.3466  155.4315 H   0  0  0  0  0  0  0  0  0  0  0  0  # atno 8009 bound_to 7997
  156.1014  140.1423  156.9451 H   0  0  0  0  0  0  0  0  0  0  0  0  # atno 8010 bound_to 7997
  140.5931  143.8755  150.6892 H   0  0  0  0  0  0  0  0  0  0  0  0  # atno 10167 bound_to 10162
  156.2380  130.7078  151.0927 H   0  0  0  0  0  0  0  0  0  0  0  0  # atno 10718 bound_to 10713
  153.4465  135.7014  153.6136 H   0  0  0  0  0  0  0  0  0  0  0  0  # atno 10763 bound_to 10752
  153.4489  135.3763  155.2272 H   0  0  0  0  0  0  0  0  0  0  0  0  # atno 10764 bound_to 10752
  154.8728  135.3992  154.3871 H   0  0  0  0  0  0  0  0  0  0  0  0  # atno 10765 bound_to 10752
  139.9082  134.9612  156.7383 H   0  0  0  0  0  0  0  0  0  0  0  0  # atno 11005 bound_to 11000
  145.3998  141.0383  143.3077 LP  0  0  0  0  0  0  0  0  0  0  0  0  # atno 17320 bound_to 7965
  144.8362  139.5547  143.6921 LP  0  0  0  0  0  0  0  0  0  0  0  0  # atno 17321 bound_to 7965
  140.2283  143.3755  152.1587 LP  0  0  0  0  0  0  0  0  0  0  0  0  # atno 17342 bound_to 10162
  139.5240  144.7079  151.5298 LP  0  0  0  0  0  0  0  0  0  0  0  0  # atno 17343 bound_to 10162
  157.7163  131.0708  150.6315 LP  0  0  0  0  0  0  0  0  0  0  0  0  # atno 17370 bound_to 10713
  156.6386  130.4452  149.5760 LP  0  0  0  0  0  0  0  0  0  0  0  0  # atno 17371 bound_to 10713
  140.6870  133.9424  155.7943 LP  0  0  0  0  0  0  0  0  0  0  0  0  # atno 17394 bound_to 11000
  141.0469  134.0541  157.3832 LP  0  0  0  0  0  0  0  0  0  0  0  0  # atno 17395 bound_to 11000

$$$$
