AV-unprocessed.smi:743|AV-procd|sdf|3561|dock6
  -GOLD-   22720 0563D 1   1.00000     0.00000
 Structure written by MMmdl.
 29 30  0  0  0  0  0  0  0  0  2 V2000
  149.8605  130.4317  154.8390 C   0  0  0  0  0  0  0  0  0  0  0  0
  149.2775  131.5902  154.1969 N   0  0  0  0  0  0  0  0  0  0  0  0
  148.4056  131.6342  153.1310 C   0  0  0  0  0  0  0  0  0  0  0  0
  148.1338  132.9503  152.8735 C   0  0  0  0  0  0  0  0  0  0  0  0
  147.2358  133.5536  151.8200 C   0  0  1  0  0  0  0  0  0  0  0  0
  146.6939  132.5111  150.9443 N   0  0  0  0  0  0  0  0  0  0  0  0
  145.4800  132.4940  150.3650 C   0  0  0  0  0  0  0  0  0  0  0  0
  145.1518  131.5971  149.5929 O   0  0  0  0  0  0  0  0  0  0  0  0
  144.4707  133.6008  150.7075 C   0  0  0  0  0  0  0  0  0  0  0  0
  145.1027  134.8265  151.3878 C   0  0  0  0  0  0  0  0  0  0  0  0
  146.1105  134.3990  152.4611 C   0  0  2  0  0  0  0  0  0  0  0  0
  146.6480  135.5672  153.1824 N   0  3  0  0  0  0  0  0  0  0  0  0
  148.9066  133.6390  153.8530 C   0  0  0  0  0  0  0  0  0  0  0  0
  149.5853  132.8248  154.6431 N   0  0  0  0  0  0  0  0  0  0  0  0
  145.5845  133.7893  153.1979 H   0  0  0  0  0  0  0  0  0  0  0  0
  149.2959  129.5364  154.5770 H   0  0  0  0  0  0  0  0  0  0  0  0
  149.8424  130.5557  155.9226 H   0  0  0  0  0  0  0  0  0  0  0  0
  150.8929  130.3110  154.5094 H   0  0  0  0  0  0  0  0  0  0  0  0
  148.0524  130.7339  152.6493 H   0  0  0  0  0  0  0  0  0  0  0  0
  147.8227  134.2046  151.1698 H   0  0  0  0  0  0  0  0  0  0  0  0
  147.3204  131.7525  150.7149 H   0  0  0  0  0  0  0  0  0  0  0  0
  143.9438  133.9056  149.8025 H   0  0  0  0  0  0  0  0  0  0  0  0
  143.7224  133.1654  151.3704 H   0  0  0  0  0  0  0  0  0  0  0  0
  145.5949  135.4494  150.6392 H   0  0  0  0  0  0  0  0  0  0  0  0
  144.3165  135.4394  151.8305 H   0  0  0  0  0  0  0  0  0  0  0  0
  147.5157  135.8589  152.7555 H   0  0  0  0  0  0  0  0  0  0  0  0
  146.8136  135.3179  154.1471 H   0  0  0  0  0  0  0  0  0  0  0  0
  148.9908  134.7036  154.0141 H   0  0  0  0  0  0  0  0  0  0  0  0
  145.9812  136.3248  153.1411 H   0  0  0  0  0  0  0  0  0  0  0  0
  1  2  1  0  0  0  0
  1 16  1  0  0  0  0
  1 17  1  0  0  0  0
  1 18  1  0  0  0  0
  2 14  1  0  0  0  0
  2  3  1  0  0  0  0
  3  4  2  0  0  0  0
  3 19  1  0  0  0  0
  4  5  1  0  0  0  0
  4 13  1  0  0  0  0
  5 11  1  0  0  0  0
  5  6  1  0  0  0  0
  5 20  1  0  0  0  0
  6  7  1  0  0  0  0
  6 21  1  0  0  0  0
  7  8  2  0  0  0  0
  7  9  1  0  0  0  0
  9 10  1  0  0  0  0
  9 22  1  0  0  0  0
  9 23  1  0  0  0  0
 10 11  1  0  0  0  0
 10 24  1  0  0  0  0
 10 25  1  0  0  0  0
 11 15  1  0  0  0  0
 11 12  1  0  0  0  0
 12 26  1  0  0  0  0
 12 27  1  0  0  0  0
 12 29  1  0  0  0  0
 13 14  2  0  0  0  0
 13 28  1  0  0  0  0
M  CHG  1  12   1
M  END
> <s_m_source_file>
AV-unprocessed.smi

> <i_m_source_file_index>
743

> <i_lp_mmshare_version>
43012

> <i_f3d_flags>
0

> <s_epik_input>
W0NIM11uMVtjSF1jKFtjSF1uMSlbQ0BASF0yW05IXUMoPU8pW0NIMl1bQ0gyXVtDQEBIXTJbTkgyXQ==

> <s_epik_cmdline>
J2VwaWtfcHl0aG9uJywgJy1waCcsICc3LjAnLCAnLXRuJywgJzgnLCAnLW1hJywgJzIwMCcsICctbWV0YWxfYmluZGluZycsICctaW1hZScsICc8aW5maWxlLm1hZT4nLCAnLW9tYWUnLCAnPG91dGZpbGUubWFlPic=

> <r_lp_tautomer_probability>
1

> <r_epik_Ionization_Penalty>
0.00878543

> <r_epik_Ionization_Penalty_Charging>
0.00874185

> <r_epik_Ionization_Penalty_Neutral>
4.35793e-05

> <r_epik_State_Penalty>
0.00660351

> <r_epik_Charging_Adjusted_Penalty>
0.0153454

> <i_epik_Tot_Q>
1

> <i_epik_Tot_abs_Q>
1

> <r_epik_Metal_State_Penalty>
0.00660727

> <b_epik_Metal_Only>
0

> <s_lp_Force_Field>
OPLS_2005

> <r_lp_Energy>
10.7235

> <b_lp_Chiralities_Consistent>
1

> <s_lp_Variant>
AV-unprocessed.smi:743-2

> <Gold.Version>
5.8.1

> <Gold.Id.Protein>
6NUR|6NUR_protein|mol2

> <Gold.PLP.Fitness>
37.3469

> <Gold.PLP.PLP>
-24.6826

> <Gold.PLP.part.hbond>
-2.9069

> <Gold.PLP.part.metal>
0.0000

> <Gold.PLP.part.buried>
0.1927

> <Gold.PLP.part.nonpolar>
-21.6115

> <Gold.PLP.part.repulsive>
0.2482

> <Gold.PLP.ligand.clash>
0.0000

> <Gold.PLP.ligand.torsion>
0.0183

> <Gold.PLP.Chemscore.Hbond>
3.0000

> <Gold.PLP.Chemscore.CHOScore>
1.2264

> <Gold.PLP.Chemscore.Metal>
0.0000

> <Gold.Chemscore.Hbonds>
donor molecule, donor type, donor heavy atom, donor atom, acceptor molecule, acceptor atom, score
      L1  H     6    21       P1 10747  1.00
      L1  H    12    26       P1  7948  2.00
      L1  C     3    19       P1 10747  0.50
      L1  C    13    28       P1  7948  0.58

> <Gold.PLP.Chemscore.Internal.Correction>
0.0215

> <Gold.Rescore>
     Score         DG    S(hbond)    S(metal)    S(lipo)     H(rot)  DE(clash)    DE(int)     intcor
     13.73     -14.94       2.00        0.00      45.68       1.00       0.38       0.83       ----

> <Gold.Chemscore.Fitness>
13.7285

> <Gold.Chemscore.DG>
-14.9436

> <Gold.Chemscore.ZeroCoef>
-5.4800

> <Gold.Chemscore.Hbond>
1.9996

> <Gold.Chemscore.Metal>
0.0000

> <Gold.Chemscore.Lipo>
45.6826

> <Gold.Chemscore.Internal_Hbond>
0.0000

> <Gold.Chemscore.DEClash>
0.3838

> <Gold.Chemscore.DEInternal>
0.8313

> <Gold.Chemscore.Rot>
1.0000

> <Gold.Chemscore.Internal.Correction>
   9.000000E+99

> <Gold.Chemscore.Hbonds>
donor molecule, donor type, donor heavy atom, donor atom, acceptor molecule, acceptor atom, score
      L1  H     6    21       P1 10747  0.99
      L1  H    12    26       P1  7948  1.00

> <Gold.Chemscore.Hbond.Weighted>
-6.6788

> <Gold.Chemscore.Metal.Weighted>
-0.0000

> <Gold.Chemscore.Lipo.Weighted>
-5.3449

> <Gold.Chemscore.Internal_Hbond.Weighted>
0.0000

> <Gold.Chemscore.DEClash.Weighted>
0.3838

> <Gold.Chemscore.DEInternal.Weighted>
0.8313

> <Gold.Chemscore.Rot.Weighted>
2.5600

> <Gold.Chemscore.Internal.Correction.Weighted>
   9.000000E+99

> <Gold.Protein.RotatedTorsions>
[ 6907 6896 6895 6894 ] final   22.80 input  -60.11 | X-H torsion
[ 7974 7965 7964 7962 ] final  103.78 input  175.53 | X-H torsion
[ 8008 7997 7996 7995 ] final -116.35 input   59.86 | X-H torsion
[ 10167 10162 10161 10158 ] final  160.16 input  -65.29 | X-H torsion
[ 10718 10713 10712 10709 ] final  165.82 input   66.30 | X-H torsion
[ 10763 10752 10751 10750 ] final   39.60 input  -60.55 | X-H torsion
[ 11005 11000 10999 10996 ] final  108.67 input  -57.11 | X-H torsion

> <Gold.Protein.ActiveResidues>
 VAL166  LYS551  ARG553  GLY616  TRP617  ASP618  TYR619  PRO620  LYS621  CYS622 
 ASP623  PHE694  ASN695  SER759  ASP760  ASP761  ALA762  ILE779  LEU786  VAL792 
 PHE793  MET794  SER795  GLU796  ALA797  LYS798  CYS799  TRP800  GLU811  SER814 

> <Gold.Protein.RotatedAtoms>
  151.9327  135.0249  160.0530 H   0  0  0  0  0  0  0  0  0  0  0  0  # atno 6907 bound_to 6896
  152.2104  133.4902  159.5115 H   0  0  0  0  0  0  0  0  0  0  0  0  # atno 6908 bound_to 6896
  150.6975  134.1391  159.4141 H   0  0  0  0  0  0  0  0  0  0  0  0  # atno 6909 bound_to 6896
  145.3414  139.2461  143.3607 H   0  0  0  0  0  0  0  0  0  0  0  0  # atno 7974 bound_to 7965
  155.0664  140.0393  157.2594 H   0  0  0  0  0  0  0  0  0  0  0  0  # atno 8008 bound_to 7997
  154.7018  140.2674  155.6688 H   0  0  0  0  0  0  0  0  0  0  0  0  # atno 8009 bound_to 7997
  156.2762  140.2739  156.1630 H   0  0  0  0  0  0  0  0  0  0  0  0  # atno 8010 bound_to 7997
  139.4838  144.4660  151.8641 H   0  0  0  0  0  0  0  0  0  0  0  0  # atno 10167 bound_to 10162
  157.0747  131.0375  151.2598 H   0  0  0  0  0  0  0  0  0  0  0  0  # atno 10718 bound_to 10713
  152.9962  135.6216  154.2491 H   0  0  0  0  0  0  0  0  0  0  0  0  # atno 10763 bound_to 10752
  154.2230  135.2795  155.2919 H   0  0  0  0  0  0  0  0  0  0  0  0  # atno 10764 bound_to 10752
  154.5513  135.5732  153.6983 H   0  0  0  0  0  0  0  0  0  0  0  0  # atno 10765 bound_to 10752
  139.8848  134.9437  156.6008 H   0  0  0  0  0  0  0  0  0  0  0  0  # atno 11005 bound_to 11000
  146.3006  140.4012  142.8705 LP  0  0  0  0  0  0  0  0  0  0  0  0  # atno 17320 bound_to 7965
  144.8787  140.7371  143.6000 LP  0  0  0  0  0  0  0  0  0  0  0  0  # atno 17321 bound_to 7965
  140.4126  144.2349  150.5888 LP  0  0  0  0  0  0  0  0  0  0  0  0  # atno 17342 bound_to 10162
  140.4952  143.2335  151.8760 LP  0  0  0  0  0  0  0  0  0  0  0  0  # atno 17343 bound_to 10162
  157.4850  130.7787  149.7451 LP  0  0  0  0  0  0  0  0  0  0  0  0  # atno 17370 bound_to 10713
  155.9940  130.3920  150.2875 LP  0  0  0  0  0  0  0  0  0  0  0  0  # atno 17371 bound_to 10713
  140.7885  133.8601  155.8626 LP  0  0  0  0  0  0  0  0  0  0  0  0  # atno 17394 bound_to 11000
  140.9698  134.1546  157.4586 LP  0  0  0  0  0  0  0  0  0  0  0  0  # atno 17395 bound_to 11000

$$$$
