AV-unprocessed.smi:1407|AV-procd|sdf|5725|dock6
  -GOLD-   22720 5353D 1   1.00000     0.00000
 Structure written by MMmdl.
 50 51  0  0  0  0  0  0  0  0  2 V2000
  149.5720  134.7400  154.9722 C   0  0  0  0  0  0  0  0  0  0  0  0
  149.1213  136.1354  154.7201 N   0  3  0  0  0  0  0  0  0  0  0  0
  147.6456  136.2293  154.9015 C   0  0  0  0  0  0  0  0  0  0  0  0
  149.9446  137.2240  155.3756 C   0  0  0  0  0  0  0  0  0  0  0  0
  150.1940  136.8117  156.8654 C   0  0  0  0  0  0  0  0  0  0  0  0
  148.9644  136.4895  157.5870 N   0  0  0  0  0  0  0  0  0  0  0  0
  148.7219  135.3926  158.3231 C   0  0  0  0  0  0  0  0  0  0  0  0
  149.5545  134.5030  158.4887 O   0  0  0  0  0  0  0  0  0  0  0  0
  147.3293  135.2441  158.9599 C   0  0  0  0  0  0  0  0  0  0  0  0
  147.3203  135.2825  160.4339 N   0  0  0  0  0  0  0  0  0  0  0  0
  146.9711  134.0902  161.0991 C   0  0  0  0  0  0  0  0  0  0  0  0
  146.9073  134.0164  162.4378 C   0  0  0  0  0  0  0  0  0  0  0  0
  147.2133  135.2026  163.2016 C   0  0  0  0  0  0  0  0  0  0  0  0
  147.5465  136.3488  162.5755 C   0  0  0  0  0  0  0  0  0  0  0  0
  147.6065  136.4368  161.1119 C   0  0  0  0  0  0  0  0  0  0  0  0
  147.8842  137.4857  160.5309 O   0  0  0  0  0  0  0  0  0  0  0  0
  151.3236  137.3419  154.6413 C   0  0  0  0  0  0  0  0  0  0  0  0
  151.9733  138.7265  154.4530 C   0  0  0  0  0  0  0  0  0  0  0  0
  152.0700  139.6181  155.6968 C   0  0  0  0  0  0  0  0  0  0  0  0
  150.8207  140.4864  155.8864 C   0  0  0  0  0  0  0  0  0  0  0  0
  149.5618  139.7149  156.2975 C   0  0  0  0  0  0  0  0  0  0  0  0
  149.1364  138.5717  155.3449 C   0  0  0  0  0  0  0  0  0  0  0  0
  149.5960  134.5113  156.0377 H   0  0  0  0  0  0  0  0  0  0  0  0
  150.5572  134.5404  154.5531 H   0  0  0  0  0  0  0  0  0  0  0  0
  148.8966  134.0269  154.4976 H   0  0  0  0  0  0  0  0  0  0  0  0
  147.3391  135.9509  155.9095 H   0  0  0  0  0  0  0  0  0  0  0  0
  147.1477  135.5441  154.2150 H   0  0  0  0  0  0  0  0  0  0  0  0
  147.2411  137.2157  154.6898 H   0  0  0  0  0  0  0  0  0  0  0  0
  150.9061  135.9936  156.9595 H   0  0  0  0  0  0  0  0  0  0  0  0
  150.6755  137.6196  157.4114 H   0  0  0  0  0  0  0  0  0  0  0  0
  148.2192  137.1679  157.5148 H   0  0  0  0  0  0  0  0  0  0  0  0
  146.6927  136.0389  158.5681 H   0  0  0  0  0  0  0  0  0  0  0  0
  146.8787  134.3198  158.5942 H   0  0  0  0  0  0  0  0  0  0  0  0
  146.7530  133.2514  160.4538 H   0  0  0  0  0  0  0  0  0  0  0  0
  146.6339  133.0948  162.9303 H   0  0  0  0  0  0  0  0  0  0  0  0
  147.1776  135.1705  164.2809 H   0  0  0  0  0  0  0  0  0  0  0  0
  147.7741  137.2258  163.1638 H   0  0  0  0  0  0  0  0  0  0  0  0
  152.0454  136.6845  155.1282 H   0  0  0  0  0  0  0  0  0  0  0  0
  151.2415  136.9479  153.6292 H   0  0  0  0  0  0  0  0  0  0  0  0
  152.9839  138.5597  154.0779 H   0  0  0  0  0  0  0  0  0  0  0  0
  151.4649  139.2660  153.6530 H   0  0  0  0  0  0  0  0  0  0  0  0
  152.3016  139.0388  156.5894 H   0  0  0  0  0  0  0  0  0  0  0  0
  152.9166  140.2924  155.5606 H   0  0  0  0  0  0  0  0  0  0  0  0
  151.0280  141.2380  156.6489 H   0  0  0  0  0  0  0  0  0  0  0  0
  150.6228  141.0449  154.9707 H   0  0  0  0  0  0  0  0  0  0  0  0
  149.6542  139.3748  157.3271 H   0  0  0  0  0  0  0  0  0  0  0  0
  148.7438  140.4358  156.3292 H   0  0  0  0  0  0  0  0  0  0  0  0
  149.1001  138.9699  154.3302 H   0  0  0  0  0  0  0  0  0  0  0  0
  148.1000  138.3493  155.6039 H   0  0  0  0  0  0  0  0  0  0  0  0
  149.2664  136.2755  153.7301 H   0  0  0  0  0  0  0  0  0  0  0  0
  1  2  1  0  0  0  0
  1 23  1  0  0  0  0
  1 24  1  0  0  0  0
  1 25  1  0  0  0  0
  2  3  1  0  0  0  0
  2  4  1  0  0  0  0
  2 50  1  0  0  0  0
  3 26  1  0  0  0  0
  3 27  1  0  0  0  0
  3 28  1  0  0  0  0
  4 22  1  0  0  0  0
  4  5  1  0  0  0  0
  4 17  1  0  0  0  0
  5  6  1  0  0  0  0
  5 29  1  0  0  0  0
  5 30  1  0  0  0  0
  6  7  1  0  0  0  0
  6 31  1  0  0  0  0
  7  8  2  0  0  0  0
  7  9  1  0  0  0  0
  9 10  1  0  0  0  0
  9 32  1  0  0  0  0
  9 33  1  0  0  0  0
 10 15  1  0  0  0  0
 10 11  1  0  0  0  0
 11 12  2  0  0  0  0
 11 34  1  0  0  0  0
 12 13  1  0  0  0  0
 12 35  1  0  0  0  0
 13 14  2  0  0  0  0
 13 36  1  0  0  0  0
 14 15  1  0  0  0  0
 14 37  1  0  0  0  0
 15 16  2  0  0  0  0
 17 18  1  0  0  0  0
 17 38  1  0  0  0  0
 17 39  1  0  0  0  0
 18 19  1  0  0  0  0
 18 40  1  0  0  0  0
 18 41  1  0  0  0  0
 19 20  1  0  0  0  0
 19 42  1  0  0  0  0
 19 43  1  0  0  0  0
 20 21  1  0  0  0  0
 20 44  1  0  0  0  0
 20 45  1  0  0  0  0
 21 22  1  0  0  0  0
 21 46  1  0  0  0  0
 21 47  1  0  0  0  0
 22 48  1  0  0  0  0
 22 49  1  0  0  0  0
M  CHG  1   2   1
M  END
> <s_m_source_file>
AV-unprocessed.smi

> <i_m_source_file_index>
1407

> <i_lp_mmshare_version>
43012

> <i_f3d_flags>
0

> <s_epik_input>
W0NIMl0xW0NIMl1bQ0gyXVtDSDJdW0NIMl1bQ0gyXUMxKE4oW0NIM10pW0NIM10pW0NIMl1bTkhdQyg9TylbQ0gyXW4yW2NIXVtjSF1bY0hdW2NIXWMyPU8=

> <s_epik_cmdline>
J2VwaWtfcHl0aG9uJywgJy1waCcsICc3LjAnLCAnLXRuJywgJzgnLCAnLW1hJywgJzIwMCcsICctbWV0YWxfYmluZGluZycsICctaW1hZScsICc8aW5maWxlLm1hZT4nLCAnLW9tYWUnLCAnPG91dGZpbGUubWFlPic=

> <r_lp_tautomer_probability>
1

> <r_epik_Ionization_Penalty>
0.00225809

> <r_epik_Ionization_Penalty_Charging>
0.00225802

> <r_epik_Ionization_Penalty_Neutral>
7.38919e-08

> <r_epik_State_Penalty>
0.00155497

> <r_epik_Charging_Adjusted_Penalty>
0.00381299

> <i_epik_Tot_Q>
1

> <i_epik_Tot_abs_Q>
1

> <r_epik_Metal_State_Penalty>
-0

> <b_epik_Metal_Only>
0

> <s_lp_Force_Field>
OPLS_2005

> <r_lp_Energy>
50.9808

> <b_lp_Chiralities_Consistent>
1

> <s_lp_Variant>
AV-unprocessed.smi:1407-1

> <Gold.Version>
5.8.1

> <Gold.Id.Protein>
6NUR|6NUR_protein|mol2

> <Gold.PLP.Fitness>
50.6393

> <Gold.PLP.PLP>
-38.4560

> <Gold.PLP.part.hbond>
-4.0000

> <Gold.PLP.part.metal>
0.0000

> <Gold.PLP.part.buried>
-3.3891

> <Gold.PLP.part.nonpolar>
-31.8094

> <Gold.PLP.part.repulsive>
0.0475

> <Gold.PLP.ligand.clash>
0.0000

> <Gold.PLP.ligand.torsion>
0.7345

> <Gold.PLP.Chemscore.Hbond>
4.5040

> <Gold.PLP.Chemscore.CHOScore>
0.0000

> <Gold.PLP.Chemscore.Metal>
0.0000

> <Gold.Chemscore.Hbonds>
donor molecule, donor type, donor heavy atom, donor atom, acceptor molecule, acceptor atom, score
      L1  H     2    50       P1  7948  2.00
      P1  H  6896  6909       L1     8  0.88
      P1  H  6931  6943       L1    16  0.59
      P1  H  6934  6947       L1    16  0.75

> <Gold.PLP.Chemscore.Internal.Correction>
0.1403

> <Gold.Rescore>
     Score         DG    S(hbond)    S(metal)    S(lipo)     H(rot)  DE(clash)    DE(int)     intcor
     21.05     -22.09       3.54        0.00      80.78       1.81       0.02       1.02       ----

> <Gold.Chemscore.Fitness>
21.0509

> <Gold.Chemscore.DG>
-22.0932

> <Gold.Chemscore.ZeroCoef>
-5.4800

> <Gold.Chemscore.Hbond>
3.5351

> <Gold.Chemscore.Metal>
0.0000

> <Gold.Chemscore.Lipo>
80.7772

> <Gold.Chemscore.Internal_Hbond>
0.0000

> <Gold.Chemscore.DEClash>
0.0249

> <Gold.Chemscore.DEInternal>
1.0174

> <Gold.Chemscore.Rot>
1.8145

> <Gold.Chemscore.Internal.Correction>
   9.000000E+99

> <Gold.Chemscore.Hbonds>
donor molecule, donor type, donor heavy atom, donor atom, acceptor molecule, acceptor atom, score
      L1  H     2    50       P1  7948  0.90
      P1  H  6896  6909       L1     8  0.82
      P1  H  6931  6943       L1    16  0.14
      P1  H  6934  6947       L1    16  0.76

> <Gold.Chemscore.Hbond.Weighted>
-11.8073

> <Gold.Chemscore.Metal.Weighted>
-0.0000

> <Gold.Chemscore.Lipo.Weighted>
-9.4509

> <Gold.Chemscore.Internal_Hbond.Weighted>
0.0000

> <Gold.Chemscore.DEClash.Weighted>
0.0249

> <Gold.Chemscore.DEInternal.Weighted>
1.0174

> <Gold.Chemscore.Rot.Weighted>
4.6451

> <Gold.Chemscore.Internal.Correction.Weighted>
   9.000000E+99

> <Gold.Protein.RotatedTorsions>
[ 6907 6896 6895 6894 ] final    5.27 input  -60.11 | X-H torsion
[ 7974 7965 7964 7962 ] final -173.61 input  175.53 | X-H torsion
[ 8008 7997 7996 7995 ] final  -26.63 input   59.86 | X-H torsion
[ 10167 10162 10161 10158 ] final -108.21 input  -65.29 | X-H torsion
[ 10718 10713 10712 10709 ] final  -64.41 input   66.30 | X-H torsion
[ 10763 10752 10751 10750 ] final   26.78 input  -60.55 | X-H torsion
[ 11005 11000 10999 10996 ] final  -24.84 input  -57.11 | X-H torsion

> <Gold.Protein.ActiveResidues>
 VAL166  LYS551  ARG553  GLY616  TRP617  ASP618  TYR619  PRO620  LYS621  CYS622 
 ASP623  PHE694  ASN695  SER759  ASP760  ASP761  ALA762  ILE779  LEU786  VAL792 
 PHE793  MET794  SER795  GLU796  ALA797  LYS798  CYS799  TRP800  GLU811  SER814 

> <Gold.Protein.RotatedAtoms>
  151.6547  135.0997  160.0167 H   0  0  0  0  0  0  0  0  0  0  0  0  # atno 6907 bound_to 6896
  152.3980  133.6772  159.6301 H   0  0  0  0  0  0  0  0  0  0  0  0  # atno 6908 bound_to 6896
  150.7884  133.8756  159.3312 H   0  0  0  0  0  0  0  0  0  0  0  0  # atno 6909 bound_to 6896
  144.7137  140.1595  143.6377 H   0  0  0  0  0  0  0  0  0  0  0  0  # atno 7974 bound_to 7965
  154.4416  140.1894  156.0806 H   0  0  0  0  0  0  0  0  0  0  0  0  # atno 8008 bound_to 7997
  156.0442  140.3316  155.7251 H   0  0  0  0  0  0  0  0  0  0  0  0  # atno 8009 bound_to 7997
  155.5655  140.0607  157.2810 H   0  0  0  0  0  0  0  0  0  0  0  0  # atno 8010 bound_to 7997
  140.1686  143.4061  152.1372 H   0  0  0  0  0  0  0  0  0  0  0  0  # atno 10167 bound_to 10162
  156.0731  130.4233  150.1416 H   0  0  0  0  0  0  0  0  0  0  0  0  # atno 10718 bound_to 10713
  153.0599  135.6552  154.0487 H   0  0  0  0  0  0  0  0  0  0  0  0  # atno 10763 bound_to 10752
  154.0157  135.2924  155.3388 H   0  0  0  0  0  0  0  0  0  0  0  0  # atno 10764 bound_to 10752
  154.6933  135.5274  153.8490 H   0  0  0  0  0  0  0  0  0  0  0  0  # atno 10765 bound_to 10752
  140.8883  133.7606  156.0388 H   0  0  0  0  0  0  0  0  0  0  0  0  # atno 11005 bound_to 11000
  145.9043  139.2449  143.1475 LP  0  0  0  0  0  0  0  0  0  0  0  0  # atno 17320 bound_to 7965
  145.9780  140.8706  143.0129 LP  0  0  0  0  0  0  0  0  0  0  0  0  # atno 17321 bound_to 7965
  139.5348  144.7198  151.4930 LP  0  0  0  0  0  0  0  0  0  0  0  0  # atno 17342 bound_to 10162
  140.6597  143.8525  150.6874 LP  0  0  0  0  0  0  0  0  0  0  0  0  # atno 17343 bound_to 10162
  156.9463  130.9760  151.3507 LP  0  0  0  0  0  0  0  0  0  0  0  0  # atno 17370 bound_to 10713
  157.5812  130.8378  149.8525 LP  0  0  0  0  0  0  0  0  0  0  0  0  # atno 17371 bound_to 10713
  140.8378  134.3102  157.5325 LP  0  0  0  0  0  0  0  0  0  0  0  0  # atno 17394 bound_to 11000
  139.8727  134.9399  156.3755 LP  0  0  0  0  0  0  0  0  0  0  0  0  # atno 17395 bound_to 11000

$$$$
