AV-unprocessed.smi:2923|AV-procd|sdf|11217|dock6
  -GOLD-   2272016103D 1   1.00000     0.00000
 Structure written by MMmdl.
 46 48  0  0  0  0  0  0  0  0  1 V2000
  151.7353  129.0576  154.8254 C   0  0  0  0  0  0  0  0  0  0  0  0
  150.3416  129.3227  155.1482 N   0  0  0  0  0  0  0  0  0  0  0  0
  149.3749  128.3386  154.6865 C   0  0  0  0  0  0  0  0  0  0  0  0
  149.9553  130.6396  154.8672 C   0  0  0  0  0  0  0  0  0  0  0  0
  149.0335  130.9313  153.8362 C   0  0  0  0  0  0  0  0  0  0  0  0
  148.6846  132.2745  153.5983 C   0  0  0  0  0  0  0  0  0  0  0  0
  149.2629  133.2839  154.4040 C   0  0  0  0  0  0  0  0  0  0  0  0
  149.0128  134.6736  154.2480 N   0  0  0  0  0  0  0  0  0  0  0  0
  148.9654  135.6272  155.1934 C   0  0  0  0  0  0  0  0  0  0  0  0
  149.1733  135.4541  156.3941 O   0  0  0  0  0  0  0  0  0  0  0  0
  148.6735  136.8201  154.6594 N   0  0  0  0  0  0  0  0  0  0  0  0
  148.5694  138.0716  155.4172 C   0  0  1  0  0  0  0  0  0  0  0  0
  149.9365  138.6126  155.8436 C   0  0  1  0  0  0  0  0  0  0  0  0
  151.3090  138.0570  155.9694 C   0  0  0  0  0  0  0  0  0  0  0  0
  152.0666  139.2743  155.3727 C   0  0  0  0  0  0  0  0  0  0  0  0
  151.0486  140.1428  154.8120 O   0  0  0  0  0  0  0  0  0  0  0  0
  149.9968  139.2600  154.4751 C   0  0  2  0  0  0  0  0  0  0  0  0
  148.4592  139.3902  154.5515 C   0  0  0  0  0  0  0  0  0  0  0  0
  147.7230  139.2894  153.2109 C   0  0  0  0  0  0  0  0  0  0  0  0
  147.8953  140.6443  155.2443 C   0  0  0  0  0  0  0  0  0  0  0  0
  150.1801  132.8850  155.3982 C   0  0  0  0  0  0  0  0  0  0  0  0
  150.5181  131.5995  155.6325 N   0  0  0  0  0  0  0  0  0  0  0  0
  152.3821  129.8388  155.2269 H   0  0  0  0  0  0  0  0  0  0  0  0
  151.8855  129.0059  153.7467 H   0  0  0  0  0  0  0  0  0  0  0  0
  152.0475  128.1072  155.2591 H   0  0  0  0  0  0  0  0  0  0  0  0
  148.3619  128.6246  154.9730 H   0  0  0  0  0  0  0  0  0  0  0  0
  149.5878  127.3660  155.1306 H   0  0  0  0  0  0  0  0  0  0  0  0
  149.4102  128.2343  153.6016 H   0  0  0  0  0  0  0  0  0  0  0  0
  148.6037  130.1445  153.2336 H   0  0  0  0  0  0  0  0  0  0  0  0
  147.9974  132.5013  152.7983 H   0  0  0  0  0  0  0  0  0  0  0  0
  148.9040  134.9881  153.2950 H   0  0  0  0  0  0  0  0  0  0  0  0
  148.5209  136.8745  153.6630 H   0  0  0  0  0  0  0  0  0  0  0  0
  147.8544  138.0319  156.2407 H   0  0  0  0  0  0  0  0  0  0  0  0
  149.7818  139.3363  156.6476 H   0  0  0  0  0  0  0  0  0  0  0  0
  151.5920  137.8509  157.0019 H   0  0  0  0  0  0  0  0  0  0  0  0
  151.4469  137.1549  155.3720 H   0  0  0  0  0  0  0  0  0  0  0  0
  152.6311  139.8157  156.1325 H   0  0  0  0  0  0  0  0  0  0  0  0
  152.7633  138.9551  154.5965 H   0  0  0  0  0  0  0  0  0  0  0  0
  150.3114  138.5835  153.6737 H   0  0  0  0  0  0  0  0  0  0  0  0
  147.7972  140.2165  152.6415 H   0  0  0  0  0  0  0  0  0  0  0  0
  146.6637  139.0744  153.3544 H   0  0  0  0  0  0  0  0  0  0  0  0
  148.1299  138.5005  152.5784 H   0  0  0  0  0  0  0  0  0  0  0  0
  148.1396  141.5468  154.6832 H   0  0  0  0  0  0  0  0  0  0  0  0
  148.2735  140.7920  156.2543 H   0  0  0  0  0  0  0  0  0  0  0  0
  146.8089  140.5965  155.3262 H   0  0  0  0  0  0  0  0  0  0  0  0
  150.6572  133.6196  156.0302 H   0  0  0  0  0  0  0  0  0  0  0  0
  1  2  1  0  0  0  0
  1 23  1  0  0  0  0
  1 24  1  0  0  0  0
  1 25  1  0  0  0  0
  2  3  1  0  0  0  0
  2  4  1  0  0  0  0
  3 26  1  0  0  0  0
  3 27  1  0  0  0  0
  3 28  1  0  0  0  0
  4 22  1  0  0  0  0
  4  5  2  0  0  0  0
  5  6  1  0  0  0  0
  5 29  1  0  0  0  0
  6  7  2  0  0  0  0
  6 30  1  0  0  0  0
  7  8  1  0  0  0  0
  7 21  1  0  0  0  0
  8  9  1  0  0  0  0
  8 31  1  0  0  0  0
  9 10  2  0  0  0  0
  9 11  1  0  0  0  0
 11 12  1  0  0  0  0
 11 32  1  0  0  0  0
 12 18  1  0  0  0  0
 12 13  1  0  0  0  0
 12 33  1  0  0  0  0
 13 17  1  0  0  0  0
 13 14  1  0  0  0  0
 13 34  1  0  0  0  0
 14 15  1  0  0  0  0
 14 35  1  0  0  0  0
 14 36  1  0  0  0  0
 15 16  1  0  0  0  0
 15 37  1  0  0  0  0
 15 38  1  0  0  0  0
 16 17  1  0  0  0  0
 17 18  1  0  0  0  0
 17 39  1  0  0  0  0
 18 19  1  0  0  0  0
 18 20  1  0  0  0  0
 19 40  1  0  0  0  0
 19 41  1  0  0  0  0
 19 42  1  0  0  0  0
 20 43  1  0  0  0  0
 20 44  1  0  0  0  0
 20 45  1  0  0  0  0
 21 22  2  0  0  0  0
 21 46  1  0  0  0  0
M  END
> <s_m_source_file>
AV-unprocessed.smi

> <i_m_source_file_index>
2923

> <i_lp_mmshare_version>
43012

> <i_f3d_flags>
0

> <s_epik_input>
W0NIM11OKFtDSDNdKWMxW2NIXVtjSF1jKFtjSF1uMSlbTkhdQyg9TylbTkhdW0NASF0yQyhbQ0gzXSkoW0NIM10pW0NAQEhdKFtDQEhdMjMpT1tDSDJdW0NIMl0z

> <s_epik_cmdline>
J2VwaWtfcHl0aG9uJywgJy1waCcsICc3LjAnLCAnLXRuJywgJzgnLCAnLW1hJywgJzIwMCcsICctbWV0YWxfYmluZGluZycsICctaW1hZScsICc8aW5maWxlLm1hZT4nLCAnLW9tYWUnLCAnPG91dGZpbGUubWFlPic=

> <r_lp_tautomer_probability>
1

> <r_epik_Ionization_Penalty>
0.628785

> <r_epik_Ionization_Penalty_Charging>
0

> <r_epik_Ionization_Penalty_Neutral>
0.628785

> <r_epik_State_Penalty>
0.644286

> <r_epik_Charging_Adjusted_Penalty>
0.644286

> <i_epik_Tot_Q>
0

> <i_epik_Tot_abs_Q>
0

> <r_epik_Metal_State_Penalty>
0.308404

> <b_epik_Metal_Only>
0

> <s_lp_Force_Field>
OPLS_2005

> <r_lp_Energy>
70.0187

> <b_lp_Chiralities_Consistent>
1

> <s_lp_Variant>
AV-unprocessed.smi:2923-16

> <Gold.Version>
5.8.1

> <Gold.Id.Protein>
6NUR|6NUR_protein|mol2

> <Gold.PLP.Fitness>
39.8389

> <Gold.PLP.PLP>
-31.9756

> <Gold.PLP.part.hbond>
-2.9978

> <Gold.PLP.part.metal>
0.0000

> <Gold.PLP.part.buried>
-2.9317

> <Gold.PLP.part.nonpolar>
-26.2187

> <Gold.PLP.part.repulsive>
0.1620

> <Gold.PLP.ligand.clash>
0.0066

> <Gold.PLP.ligand.torsion>
0.7405

> <Gold.PLP.Chemscore.Hbond>
2.9600

> <Gold.PLP.Chemscore.CHOScore>
0.0000

> <Gold.PLP.Chemscore.Metal>
0.0000

> <Gold.Chemscore.Hbonds>
donor molecule, donor type, donor heavy atom, donor atom, acceptor molecule, acceptor atom, score
      L1  H     8    31       P1  7948  1.00
      L1  H    11    32       P1  7948  0.96
      P1  H  7989  7998       L1    16  1.00

> <Gold.PLP.Chemscore.Internal.Correction>
0.4708

> <Gold.Rescore>
     Score         DG    S(hbond)    S(metal)    S(lipo)     H(rot)  DE(clash)    DE(int)     intcor
     14.30     -17.67       1.92        0.00      75.43       1.19       1.37       2.00       ----

> <Gold.Chemscore.Fitness>
14.2962

> <Gold.Chemscore.DG>
-17.6671

> <Gold.Chemscore.ZeroCoef>
-5.4800

> <Gold.Chemscore.Hbond>
1.9215

> <Gold.Chemscore.Metal>
0.0000

> <Gold.Chemscore.Lipo>
75.4283

> <Gold.Chemscore.Internal_Hbond>
0.0000

> <Gold.Chemscore.DEClash>
1.3714

> <Gold.Chemscore.DEInternal>
1.9995

> <Gold.Chemscore.Rot>
1.1937

> <Gold.Chemscore.Internal.Correction>
   9.000000E+99

> <Gold.Chemscore.Hbonds>
donor molecule, donor type, donor heavy atom, donor atom, acceptor molecule, acceptor atom, score
      L1  H     8    31       P1  7948  0.34
      L1  H    11    32       P1  7948  0.91
      P1  H  7989  7998       L1    16  0.54

> <Gold.Chemscore.Hbond.Weighted>
-6.4178

> <Gold.Chemscore.Metal.Weighted>
-0.0000

> <Gold.Chemscore.Lipo.Weighted>
-8.8251

> <Gold.Chemscore.Internal_Hbond.Weighted>
0.0000

> <Gold.Chemscore.DEClash.Weighted>
1.3714

> <Gold.Chemscore.DEInternal.Weighted>
1.9995

> <Gold.Chemscore.Rot.Weighted>
3.0559

> <Gold.Chemscore.Internal.Correction.Weighted>
   9.000000E+99

> <Gold.Protein.RotatedTorsions>
[ 6907 6896 6895 6894 ] final   44.82 input  -60.11 | X-H torsion
[ 7974 7965 7964 7962 ] final  -45.84 input  175.53 | X-H torsion
[ 8008 7997 7996 7995 ] final  176.50 input   59.86 | X-H torsion
[ 10167 10162 10161 10158 ] final   29.22 input  -65.29 | X-H torsion
[ 10718 10713 10712 10709 ] final    8.60 input   66.30 | X-H torsion
[ 10763 10752 10751 10750 ] final -165.60 input  -60.55 | X-H torsion
[ 11005 11000 10999 10996 ] final  108.55 input  -57.11 | X-H torsion

> <Gold.Protein.ActiveResidues>
 VAL166  LYS551  ARG553  GLY616  TRP617  ASP618  TYR619  PRO620  LYS621  CYS622 
 ASP623  PHE694  ASN695  SER759  ASP760  ASP761  ALA762  ILE779  LEU786  VAL792 
 PHE793  MET794  SER795  GLU796  ALA797  LYS798  CYS799  TRP800  GLU811  SER814 

> <Gold.Protein.RotatedAtoms>
  152.2371  134.8265  160.0465 H   0  0  0  0  0  0  0  0  0  0  0  0  # atno 6907 bound_to 6896
  151.8992  133.3529  159.3833 H   0  0  0  0  0  0  0  0  0  0  0  0  # atno 6908 bound_to 6896
  150.7042  134.4771  159.5497 H   0  0  0  0  0  0  0  0  0  0  0  0  # atno 6909 bound_to 6896
  145.9780  140.7313  142.9377 H   0  0  0  0  0  0  0  0  0  0  0  0  # atno 7974 bound_to 7965
  156.0758  140.1382  156.9773 H   0  0  0  0  0  0  0  0  0  0  0  0  # atno 8008 bound_to 7997
  154.4557  140.0962  156.6799 H   0  0  0  0  0  0  0  0  0  0  0  0  # atno 8009 bound_to 7997
  155.5156  140.3455  155.4399 H   0  0  0  0  0  0  0  0  0  0  0  0  # atno 8010 bound_to 7997
  140.4785  144.0653  150.6258 H   0  0  0  0  0  0  0  0  0  0  0  0  # atno 10167 bound_to 10162
  156.9540  130.5907  149.5658 H   0  0  0  0  0  0  0  0  0  0  0  0  # atno 10718 bound_to 10713
  154.6916  135.2972  154.9471 H   0  0  0  0  0  0  0  0  0  0  0  0  # atno 10763 bound_to 10752
  154.0432  135.6654  153.4796 H   0  0  0  0  0  0  0  0  0  0  0  0  # atno 10764 bound_to 10752
  153.0616  135.5112  154.8011 H   0  0  0  0  0  0  0  0  0  0  0  0  # atno 10765 bound_to 10752
  139.8846  134.9434  156.5990 H   0  0  0  0  0  0  0  0  0  0  0  0  # atno 11005 bound_to 11000
  144.6854  140.2861  143.7285 LP  0  0  0  0  0  0  0  0  0  0  0  0  # atno 17320 bound_to 7965
  145.7810  139.1891  143.2157 LP  0  0  0  0  0  0  0  0  0  0  0  0  # atno 17321 bound_to 7965
  140.3888  143.2763  152.0084 LP  0  0  0  0  0  0  0  0  0  0  0  0  # atno 17342 bound_to 10162
  139.4829  144.6094  151.7461 LP  0  0  0  0  0  0  0  0  0  0  0  0  # atno 17343 bound_to 10162
  156.0350  130.5439  150.8632 LP  0  0  0  0  0  0  0  0  0  0  0  0  # atno 17370 bound_to 10713
  157.5703  131.0946  150.9428 LP  0  0  0  0  0  0  0  0  0  0  0  0  # atno 17371 bound_to 10713
  140.7898  133.8592  155.8636 LP  0  0  0  0  0  0  0  0  0  0  0  0  # atno 17394 bound_to 11000
  140.9687  134.1559  157.4594 LP  0  0  0  0  0  0  0  0  0  0  0  0  # atno 17395 bound_to 11000

$$$$
