AV-unprocessed.smi:3252|AV-procd|sdf|12439|dock5
  -GOLD-   2272018333D 1   1.00000     0.00000
 Structure written by MMmdl.
 37 38  0  0  0  0  0  0  0  0  2 V2000
  144.4009  141.0795  157.5622 C   0  0  0  0  0  0  0  0  0  0  0  0
  143.8849  140.7603  156.1519 C   0  0  0  0  0  0  0  0  0  0  0  0
  144.6555  141.4549  155.0903 N   0  3  1  0  0  0  0  0  0  0  0  0
  144.5697  142.9298  155.2073 C   0  0  0  0  0  0  0  0  0  0  0  0
  145.3440  143.6072  154.0650 C   0  0  0  0  0  0  0  0  0  0  0  0
  146.6928  143.1576  154.0748 O   0  0  0  0  0  0  0  0  0  0  0  0
  146.7949  141.7540  153.8570 C   0  0  1  0  0  0  0  0  0  0  0  0
  148.2865  141.3815  153.8001 C   0  0  0  0  0  0  0  0  0  0  0  0
  149.0725  142.0562  154.8262 N   0  0  0  0  0  0  0  0  0  0  0  0
  149.9930  141.3647  155.6273 C   0  0  0  0  0  0  0  0  0  0  0  0
  150.1389  141.7552  156.9752 C   0  0  0  0  0  0  0  0  0  0  0  0
  151.0617  141.0672  157.7874 C   0  0  0  0  0  0  0  0  0  0  0  0
  151.8073  140.0135  157.2231 C   0  0  0  0  0  0  0  0  0  0  0  0
  152.7735  139.2749  158.0179 C   0  0  0  0  0  0  0  0  0  0  0  0
  153.5428  138.6868  158.6510 N   0  0  0  0  0  0  0  0  0  0  0  0
  151.5925  139.6946  155.8670 C   0  0  0  0  0  0  0  0  0  0  0  0
  150.7086  140.3506  155.0840 N   0  0  0  0  0  0  0  0  0  0  0  0
  146.0741  141.0266  155.0084 C   0  0  0  0  0  0  0  0  0  0  0  0
  143.8761  140.4793  158.3054 H   0  0  0  0  0  0  0  0  0  0  0  0
  144.2476  142.1250  157.8282 H   0  0  0  0  0  0  0  0  0  0  0  0
  145.4650  140.8601  157.6527 H   0  0  0  0  0  0  0  0  0  0  0  0
  143.9675  139.6829  156.0022 H   0  0  0  0  0  0  0  0  0  0  0  0
  142.8250  141.0038  156.0666 H   0  0  0  0  0  0  0  0  0  0  0  0
  143.5260  143.2454  155.1799 H   0  0  0  0  0  0  0  0  0  0  0  0
  144.9755  143.2442  156.1703 H   0  0  0  0  0  0  0  0  0  0  0  0
  144.8823  143.3961  153.0990 H   0  0  0  0  0  0  0  0  0  0  0  0
  145.3321  144.6897  154.1936 H   0  0  0  0  0  0  0  0  0  0  0  0
  146.3129  141.4936  152.9130 H   0  0  0  0  0  0  0  0  0  0  0  0
  148.4047  140.3050  153.9273 H   0  0  0  0  0  0  0  0  0  0  0  0
  148.6989  141.6178  152.8184 H   0  0  0  0  0  0  0  0  0  0  0  0
  148.9594  143.0529  154.9446 H   0  0  0  0  0  0  0  0  0  0  0  0
  149.5558  142.5673  157.3846 H   0  0  0  0  0  0  0  0  0  0  0  0
  151.1908  141.3485  158.8228 H   0  0  0  0  0  0  0  0  0  0  0  0
  152.1425  138.8952  155.3916 H   0  0  0  0  0  0  0  0  0  0  0  0
  146.5736  141.2341  155.9564 H   0  0  0  0  0  0  0  0  0  0  0  0
  146.1343  139.9512  154.8442 H   0  0  0  0  0  0  0  0  0  0  0  0
  144.2217  141.2133  154.2106 H   0  0  0  0  0  0  0  0  0  0  0  0
  1  2  1  0  0  0  0
  1 19  1  0  0  0  0
  1 20  1  0  0  0  0
  1 21  1  0  0  0  0
  2  3  1  0  0  0  0
  2 22  1  0  0  0  0
  2 23  1  0  0  0  0
  3 18  1  0  0  0  0
  3  4  1  0  0  0  0
  3 37  1  0  0  0  0
  4  5  1  0  0  0  0
  4 24  1  0  0  0  0
  4 25  1  0  0  0  0
  5  6  1  0  0  0  0
  5 26  1  0  0  0  0
  5 27  1  0  0  0  0
  6  7  1  0  0  0  0
  7  8  1  0  0  0  0
  7 18  1  0  0  0  0
  7 28  1  0  0  0  0
  8  9  1  0  0  0  0
  8 29  1  0  0  0  0
  8 30  1  0  0  0  0
  9 10  1  0  0  0  0
  9 31  1  0  0  0  0
 10 17  1  0  0  0  0
 10 11  2  0  0  0  0
 11 12  1  0  0  0  0
 11 32  1  0  0  0  0
 12 13  2  0  0  0  0
 12 33  1  0  0  0  0
 13 14  1  0  0  0  0
 13 16  1  0  0  0  0
 14 15  3  0  0  0  0
 16 17  2  0  0  0  0
 16 34  1  0  0  0  0
 18 35  1  0  0  0  0
 18 36  1  0  0  0  0
M  CHG  1   3   1
M  END
> <s_m_source_file>
AV-unprocessed.smi

> <i_m_source_file_index>
3252

> <i_lp_mmshare_version>
43012

> <i_f3d_flags>
0

> <s_epik_input>
W0NIM11bQ0gyXU4xW0NIMl1bQ0gyXU9bQ0BIXShbQ0gyXTEpW0NIMl1bTkhdYzJbY0hdW2NIXWMoQyNOKVtjSF1uMg==

> <s_epik_cmdline>
J2VwaWtfcHl0aG9uJywgJy1waCcsICc3LjAnLCAnLXRuJywgJzgnLCAnLW1hJywgJzIwMCcsICctbWV0YWxfYmluZGluZycsICctaW1hZScsICc8aW5maWxlLm1hZT4nLCAnLW9tYWUnLCAnPG91dGZpbGUubWFlPic=

> <r_epik_Ionization_Penalty>
0.178512

> <r_epik_Ionization_Penalty_Charging>
0.178504

> <r_epik_Ionization_Penalty_Neutral>
8.15545e-06

> <r_epik_State_Penalty>
0.167974

> <r_epik_Charging_Adjusted_Penalty>
0.346478

> <i_epik_Tot_Q>
1

> <i_epik_Tot_abs_Q>
1

> <r_epik_Metal_State_Penalty>
0.167974

> <b_epik_Metal_Only>
0

> <s_lp_Force_Field>
OPLS_2005

> <r_lp_Energy>
17.3379

> <b_lp_Chiralities_Consistent>
1

> <s_lp_Variant>
AV-unprocessed.smi:3252-1

> <Gold.Version>
5.8.1

> <Gold.Id.Protein>
6NUR|6NUR_protein|mol2

> <Gold.PLP.Fitness>
40.7487

> <Gold.PLP.PLP>
-29.6824

> <Gold.PLP.part.hbond>
-3.8482

> <Gold.PLP.part.metal>
0.0000

> <Gold.PLP.part.buried>
-3.7850

> <Gold.PLP.part.nonpolar>
-22.8996

> <Gold.PLP.part.repulsive>
0.9349

> <Gold.PLP.ligand.clash>
0.0000

> <Gold.PLP.ligand.torsion>
0.4756

> <Gold.PLP.Chemscore.Hbond>
4.0000

> <Gold.PLP.Chemscore.CHOScore>
0.0000

> <Gold.PLP.Chemscore.Metal>
0.0000

> <Gold.Chemscore.Hbonds>
donor molecule, donor type, donor heavy atom, donor atom, acceptor molecule, acceptor atom, score
      L1  H     3    37       P1 10175  2.00
      L1  H     9    31       P1  8028  1.00
      P1  H  7989  7998       L1    17  1.00

> <Gold.PLP.Chemscore.Internal.Correction>
0.0174

> <Gold.Rescore>
     Score         DG    S(hbond)    S(metal)    S(lipo)     H(rot)  DE(clash)    DE(int)     intcor
     16.54     -17.13       2.82        0.00      51.11       1.47       0.11       0.48       ----

> <Gold.Chemscore.Fitness>
16.5422

> <Gold.Chemscore.DG>
-17.1309

> <Gold.Chemscore.ZeroCoef>
-5.4800

> <Gold.Chemscore.Hbond>
2.8231

> <Gold.Chemscore.Metal>
0.0000

> <Gold.Chemscore.Lipo>
51.1130

> <Gold.Chemscore.Internal_Hbond>
0.0000

> <Gold.Chemscore.DEClash>
0.1100

> <Gold.Chemscore.DEInternal>
0.4787

> <Gold.Chemscore.Rot>
1.4681

> <Gold.Chemscore.Internal.Correction>
   9.000000E+99

> <Gold.Chemscore.Hbonds>
donor molecule, donor type, donor heavy atom, donor atom, acceptor molecule, acceptor atom, score
      L1  H     3    37       P1 10175  0.65
      L1  H     9    31       P1  8028  1.00
      P1  H  7989  7998       L1    17  0.48

> <Gold.Chemscore.Hbond.Weighted>
-9.4291

> <Gold.Chemscore.Metal.Weighted>
-0.0000

> <Gold.Chemscore.Lipo.Weighted>
-5.9802

> <Gold.Chemscore.Internal_Hbond.Weighted>
0.0000

> <Gold.Chemscore.DEClash.Weighted>
0.1100

> <Gold.Chemscore.DEInternal.Weighted>
0.4787

> <Gold.Chemscore.Rot.Weighted>
3.7584

> <Gold.Chemscore.Internal.Correction.Weighted>
   9.000000E+99

> <Gold.Protein.RotatedTorsions>
[ 6907 6896 6895 6894 ] final   33.46 input  -60.11 | X-H torsion
[ 7974 7965 7964 7962 ] final  157.85 input  175.53 | X-H torsion
[ 8008 7997 7996 7995 ] final  -75.11 input   59.86 | X-H torsion
[ 10167 10162 10161 10158 ] final -176.54 input  -65.29 | X-H torsion
[ 10718 10713 10712 10709 ] final  108.56 input   66.30 | X-H torsion
[ 10763 10752 10751 10750 ] final   48.97 input  -60.55 | X-H torsion
[ 11005 11000 10999 10996 ] final -165.33 input  -57.11 | X-H torsion

> <Gold.Protein.ActiveResidues>
 VAL166  LYS551  ARG553  GLY616  TRP617  ASP618  TYR619  PRO620  LYS621  CYS622 
 ASP623  PHE694  ASN695  SER759  ASP760  ASP761  ALA762  ILE779  LEU786  VAL792 
 PHE793  MET794  SER795  GLU796  ALA797  LYS798  CYS799  TRP800  GLU811  SER814 

> <Gold.Protein.RotatedAtoms>
  152.0889  134.9421  160.0572 H   0  0  0  0  0  0  0  0  0  0  0  0  # atno 6907 bound_to 6896
  152.0680  133.4088  159.4455 H   0  0  0  0  0  0  0  0  0  0  0  0  # atno 6908 bound_to 6896
  150.6836  134.3044  159.4763 H   0  0  0  0  0  0  0  0  0  0  0  0  # atno 6909 bound_to 6896
  144.7879  139.7397  143.6233 H   0  0  0  0  0  0  0  0  0  0  0  0  # atno 7974 bound_to 7965
  154.5389  140.0749  156.8475 H   0  0  0  0  0  0  0  0  0  0  0  0  # atno 8008 bound_to 7997
  155.3222  140.3397  155.4223 H   0  0  0  0  0  0  0  0  0  0  0  0  # atno 8009 bound_to 7997
  156.1855  140.1667  156.8180 H   0  0  0  0  0  0  0  0  0  0  0  0  # atno 8010 bound_to 7997
  139.5525  144.2073  152.1102 H   0  0  0  0  0  0  0  0  0  0  0  0  # atno 10167 bound_to 10162
  157.6580  131.0896  150.6324 H   0  0  0  0  0  0  0  0  0  0  0  0  # atno 10718 bound_to 10713
  152.9789  135.5927  154.4013 H   0  0  0  0  0  0  0  0  0  0  0  0  # atno 10763 bound_to 10752
  154.3658  135.2767  155.2296 H   0  0  0  0  0  0  0  0  0  0  0  0  # atno 10764 bound_to 10752
  154.4273  135.6045  153.6101 H   0  0  0  0  0  0  0  0  0  0  0  0  # atno 10765 bound_to 10752
  140.5769  134.5181  157.5171 H   0  0  0  0  0  0  0  0  0  0  0  0  # atno 11005 bound_to 11000
  146.2119  139.5482  142.9675 LP  0  0  0  0  0  0  0  0  0  0  0  0  # atno 17320 bound_to 7965
  145.5871  141.0375  143.2090 LP  0  0  0  0  0  0  0  0  0  0  0  0  # atno 17321 bound_to 7965
  140.1571  144.5060  150.6653 LP  0  0  0  0  0  0  0  0  0  0  0  0  # atno 17342 bound_to 10162
  140.6790  143.2318  151.5432 LP  0  0  0  0  0  0  0  0  0  0  0  0  # atno 17343 bound_to 10162
  156.6629  130.4517  149.5682 LP  0  0  0  0  0  0  0  0  0  0  0  0  # atno 17370 bound_to 10713
  156.2054  130.6646  151.1212 LP  0  0  0  0  0  0  0  0  0  0  0  0  # atno 17371 bound_to 10713
  139.9335  134.7918  156.0865 LP  0  0  0  0  0  0  0  0  0  0  0  0  # atno 17394 bound_to 11000
  141.1021  133.6673  156.2778 LP  0  0  0  0  0  0  0  0  0  0  0  0  # atno 17395 bound_to 11000

$$$$
