AV-unprocessed.smi:1867|AV-procd|sdf|7564|dock7
  -GOLD-   22720 9283D 1   1.00000     0.00000
 Structure written by MMmdl.
 52 55  0  0  0  0  0  0  0  0  2 V2000
  145.3819  138.0388  154.0790 O   0  0  0  0  0  0  0  0  0  0  0  0
  146.2642  137.5926  153.3497 C   0  0  0  0  0  0  0  0  0  0  0  0
  147.5698  137.9142  153.4352 N   0  0  0  0  0  0  0  0  0  0  0  0
  148.2184  138.7673  154.3677 C   0  0  0  0  0  0  0  0  0  0  0  0
  147.7034  139.1003  155.6423 C   0  0  0  0  0  0  0  0  0  0  0  0
  148.4551  139.9448  156.4817 C   0  0  0  0  0  0  0  0  0  0  0  0
  149.7075  140.4280  156.0338 C   0  0  0  0  0  0  0  0  0  0  0  0
  150.4869  141.2800  156.8411 N   0  0  0  0  0  0  0  0  0  0  0  0
  150.2217  141.4446  158.2619 C   0  0  0  0  0  0  0  0  0  0  0  0
  151.1893  142.5382  158.7111 C   0  0  0  0  0  0  0  0  0  0  0  0
  151.3067  143.4267  157.4729 C   0  0  0  0  0  0  0  0  0  0  0  0
  151.1553  142.4542  156.2970 C   0  0  0  0  0  0  0  0  0  0  0  0
  150.2011  140.1014  154.8156 N   0  0  0  0  0  0  0  0  0  0  0  0
  149.4777  139.2916  154.0154 C   0  0  0  0  0  0  0  0  0  0  0  0
  145.9740  136.7288  152.3601 N   0  0  0  0  0  0  0  0  0  0  0  0
  144.6668  136.1779  151.9941 C   0  0  2  0  0  0  0  0  0  0  0  0
  143.8886  135.6446  153.1904 C   0  0  0  0  0  0  0  0  0  0  0  0
  142.8451  134.7274  152.5452 C   0  0  0  0  0  0  0  0  0  0  0  0
  143.4237  134.2541  151.2637 N   0  3  2  0  0  0  0  0  0  0  0  0
  143.4776  132.7730  151.1358 C   0  0  0  0  0  0  0  0  0  0  0  0
  144.4193  132.3540  149.9975 C   0  0  0  0  0  0  0  0  0  0  0  0
  145.8650  132.8155  150.2623 C   0  0  0  0  0  0  0  0  0  0  0  0
  145.9334  134.0214  151.2188 C   0  0  0  0  0  0  0  0  0  0  0  0
  144.7169  134.9635  151.0449 C   0  0  2  0  0  0  0  0  0  0  0  0
  148.1649  137.5385  152.7119 H   0  0  0  0  0  0  0  0  0  0  0  0
  146.7591  138.7202  155.9991 H   0  0  0  0  0  0  0  0  0  0  0  0
  148.0605  140.2106  157.4512 H   0  0  0  0  0  0  0  0  0  0  0  0
  149.1883  141.7630  158.4050 H   0  0  0  0  0  0  0  0  0  0  0  0
  150.3779  140.5166  158.8127 H   0  0  0  0  0  0  0  0  0  0  0  0
  150.8415  143.0767  159.5929 H   0  0  0  0  0  0  0  0  0  0  0  0
  152.1611  142.0999  158.9430 H   0  0  0  0  0  0  0  0  0  0  0  0
  150.4844  144.1434  157.4620 H   0  0  0  0  0  0  0  0  0  0  0  0
  152.2405  143.9880  157.4398 H   0  0  0  0  0  0  0  0  0  0  0  0
  152.1316  142.1572  155.9124 H   0  0  0  0  0  0  0  0  0  0  0  0
  150.5899  142.9120  155.4846 H   0  0  0  0  0  0  0  0  0  0  0  0
  149.9202  139.0585  153.0579 H   0  0  0  0  0  0  0  0  0  0  0  0
  146.7516  136.4284  151.7896 H   0  0  0  0  0  0  0  0  0  0  0  0
  144.0596  136.9622  151.5368 H   0  0  0  0  0  0  0  0  0  0  0  0
  144.5433  135.0597  153.8386 H   0  0  0  0  0  0  0  0  0  0  0  0
  143.4394  136.4352  153.7924 H   0  0  0  0  0  0  0  0  0  0  0  0
  142.5563  133.9151  153.2138 H   0  0  0  0  0  0  0  0  0  0  0  0
  141.9418  135.2933  152.3149 H   0  0  0  0  0  0  0  0  0  0  0  0
  143.8239  132.3261  152.0695 H   0  0  0  0  0  0  0  0  0  0  0  0
  142.4700  132.3950  150.9603 H   0  0  0  0  0  0  0  0  0  0  0  0
  144.3932  131.2729  149.8571 H   0  0  0  0  0  0  0  0  0  0  0  0
  144.0618  132.7906  149.0638 H   0  0  0  0  0  0  0  0  0  0  0  0
  146.4485  131.9963  150.6840 H   0  0  0  0  0  0  0  0  0  0  0  0
  146.3372  133.0653  149.3115 H   0  0  0  0  0  0  0  0  0  0  0  0
  145.9678  133.6636  152.2490 H   0  0  0  0  0  0  0  0  0  0  0  0
  146.8712  134.5516  151.0516 H   0  0  0  0  0  0  0  0  0  0  0  0
  144.7289  135.3234  150.0150 H   0  0  0  0  0  0  0  0  0  0  0  0
  142.8043  134.5825  150.5367 H   0  0  0  0  0  0  0  0  0  0  0  0
  1  2  2  0  0  0  0
  2  3  1  0  0  0  0
  2 15  1  0  0  0  0
  3  4  1  0  0  0  0
  3 25  1  0  0  0  0
  4 14  1  0  0  0  0
  4  5  2  0  0  0  0
  5  6  1  0  0  0  0
  5 26  1  0  0  0  0
  6  7  2  0  0  0  0
  6 27  1  0  0  0  0
  7  8  1  0  0  0  0
  7 13  1  0  0  0  0
  8 12  1  0  0  0  0
  8  9  1  0  0  0  0
  9 10  1  0  0  0  0
  9 28  1  0  0  0  0
  9 29  1  0  0  0  0
 10 11  1  0  0  0  0
 10 30  1  0  0  0  0
 10 31  1  0  0  0  0
 11 12  1  0  0  0  0
 11 32  1  0  0  0  0
 11 33  1  0  0  0  0
 12 34  1  0  0  0  0
 12 35  1  0  0  0  0
 13 14  2  0  0  0  0
 14 36  1  0  0  0  0
 15 16  1  0  0  0  0
 15 37  1  0  0  0  0
 16 24  1  0  0  0  0
 16 17  1  0  0  0  0
 16 38  1  0  0  0  0
 17 18  1  0  0  0  0
 17 39  1  0  0  0  0
 17 40  1  0  0  0  0
 18 19  1  0  0  0  0
 18 41  1  0  0  0  0
 18 42  1  0  0  0  0
 19 24  1  0  0  0  0
 19 20  1  0  0  0  0
 19 52  1  0  0  0  0
 20 21  1  0  0  0  0
 20 43  1  0  0  0  0
 20 44  1  0  0  0  0
 21 22  1  0  0  0  0
 21 45  1  0  0  0  0
 21 46  1  0  0  0  0
 22 23  1  0  0  0  0
 22 47  1  0  0  0  0
 22 48  1  0  0  0  0
 23 24  1  0  0  0  0
 23 49  1  0  0  0  0
 23 50  1  0  0  0  0
 24 51  1  0  0  0  0
M  CHG  1  19   1
M  END
> <s_m_source_file>
AV-unprocessed.smi

> <i_m_source_file_index>
1867

> <i_lp_mmshare_version>
43012

> <i_f3d_flags>
0

> <s_epik_input>
W0NIMl0xW0NIMl1bQ0gyXVtDSDJdW0NASF0oTjEyKVtDQEBIXShbQ0gyXVtDSDJdMilbTkhdQyg9TylbTkhdYzNbY0hdW2NIXWMobltjSF0zKU40W0NIMl1bQ0gyXVtDSDJdW0NIMl00

> <s_epik_cmdline>
J2VwaWtfcHl0aG9uJywgJy1waCcsICc3LjAnLCAnLXRuJywgJzgnLCAnLW1hJywgJzIwMCcsICctbWV0YWxfYmluZGluZycsICctaW1hZScsICc8aW5maWxlLm1hZT4nLCAnLW9tYWUnLCAnPG91dGZpbGUubWFlPic=

> <r_lp_tautomer_probability>
1

> <r_epik_Ionization_Penalty>
0.0751123

> <r_epik_Ionization_Penalty_Charging>
0.000974069

> <r_epik_Ionization_Penalty_Neutral>
0.0741382

> <r_epik_State_Penalty>
0.0647261

> <r_epik_Charging_Adjusted_Penalty>
0.0657002

> <i_epik_Tot_Q>
1

> <i_epik_Tot_abs_Q>
1

> <r_epik_Metal_State_Penalty>
0.0580571

> <b_epik_Metal_Only>
0

> <s_lp_Force_Field>
OPLS_2005

> <r_lp_Energy>
76.8202

> <b_lp_Chiralities_Consistent>
1

> <s_lp_Variant>
AV-unprocessed.smi:1867-5

> <Gold.Version>
5.8.1

> <Gold.Id.Protein>
6NUR|6NUR_protein|mol2

> <Gold.PLP.Fitness>
51.9843

> <Gold.PLP.PLP>
-37.0682

> <Gold.PLP.part.hbond>
-3.9720

> <Gold.PLP.part.metal>
0.0000

> <Gold.PLP.part.buried>
-5.4054

> <Gold.PLP.part.nonpolar>
-28.7778

> <Gold.PLP.part.repulsive>
0.2555

> <Gold.PLP.ligand.clash>
0.0000

> <Gold.PLP.ligand.torsion>
0.6489

> <Gold.PLP.Chemscore.Hbond>
4.3424

> <Gold.PLP.Chemscore.CHOScore>
1.0000

> <Gold.PLP.Chemscore.Metal>
0.0000

> <Gold.Chemscore.Hbonds>
donor molecule, donor type, donor heavy atom, donor atom, acceptor molecule, acceptor atom, score
      L1  H     3    25       P1  7948  1.00
      L1  H    15    37       P1  7948  0.52
      L1  H    19    52       P1 10186  1.90
      P1  H  7989  7998       L1    13  0.86
      L1  C    14    36       P1  7957  0.99

> <Gold.PLP.Chemscore.Internal.Correction>
0.1867

> <Gold.Rescore>
     Score         DG    S(hbond)    S(metal)    S(lipo)     H(rot)  DE(clash)    DE(int)     intcor
     19.10     -22.09       2.37        0.00      96.14       1.00       0.05       2.94       ----

> <Gold.Chemscore.Fitness>
19.0953

> <Gold.Chemscore.DG>
-22.0869

> <Gold.Chemscore.ZeroCoef>
-5.4800

> <Gold.Chemscore.Hbond>
2.3709

> <Gold.Chemscore.Metal>
0.0000

> <Gold.Chemscore.Lipo>
96.1384

> <Gold.Chemscore.Internal_Hbond>
0.0000

> <Gold.Chemscore.DEClash>
0.0537

> <Gold.Chemscore.DEInternal>
2.9380

> <Gold.Chemscore.Rot>
1.0000

> <Gold.Chemscore.Internal.Correction>
   9.000000E+99

> <Gold.Chemscore.Hbonds>
donor molecule, donor type, donor heavy atom, donor atom, acceptor molecule, acceptor atom, score
      L1  H     3    25       P1  7948  0.98
      L1  H    15    37       P1  7948  0.50
      L1  H    19    52       P1 10186  0.30
      P1  H  7989  7998       L1    13  0.29

> <Gold.Chemscore.Hbond.Weighted>
-7.9187

> <Gold.Chemscore.Metal.Weighted>
-0.0000

> <Gold.Chemscore.Lipo.Weighted>
-11.2482

> <Gold.Chemscore.Internal_Hbond.Weighted>
0.0000

> <Gold.Chemscore.DEClash.Weighted>
0.0537

> <Gold.Chemscore.DEInternal.Weighted>
2.9380

> <Gold.Chemscore.Rot.Weighted>
2.5600

> <Gold.Chemscore.Internal.Correction.Weighted>
   9.000000E+99

> <Gold.Protein.RotatedTorsions>
[ 6907 6896 6895 6894 ] final   72.96 input  -60.11 | X-H torsion
[ 7974 7965 7964 7962 ] final  137.16 input  175.53 | X-H torsion
[ 8008 7997 7996 7995 ] final   25.05 input   59.86 | X-H torsion
[ 10167 10162 10161 10158 ] final   60.91 input  -65.29 | X-H torsion
[ 10718 10713 10712 10709 ] final   31.37 input   66.30 | X-H torsion
[ 10763 10752 10751 10750 ] final   51.51 input  -60.55 | X-H torsion
[ 11005 11000 10999 10996 ] final -154.79 input  -57.11 | X-H torsion

> <Gold.Protein.ActiveResidues>
 VAL166  LYS551  ARG553  GLY616  TRP617  ASP618  TYR619  PRO620  LYS621  CYS622 
 ASP623  PHE694  ASN695  SER759  ASP760  ASP761  ALA762  ILE779  LEU786  VAL792 
 PHE793  MET794  SER795  GLU796  ALA797  LYS798  CYS799  TRP800  GLU811  SER814 

> <Gold.Protein.RotatedAtoms>
  152.4897  134.4493  159.9568 H   0  0  0  0  0  0  0  0  0  0  0  0  # atno 6907 bound_to 6896
  151.4482  133.3618  159.2799 H   0  0  0  0  0  0  0  0  0  0  0  0  # atno 6908 bound_to 6896
  150.9040  134.8478  159.7440 H   0  0  0  0  0  0  0  0  0  0  0  0  # atno 6909 bound_to 6896
  144.9495  139.4836  143.5533 H   0  0  0  0  0  0  0  0  0  0  0  0  # atno 7974 bound_to 7965
  155.0057  140.3130  155.4849 H   0  0  0  0  0  0  0  0  0  0  0  0  # atno 8008 bound_to 7997
  156.2917  140.2223  156.5110 H   0  0  0  0  0  0  0  0  0  0  0  0  # atno 8009 bound_to 7997
  154.7578  140.0461  157.0936 H   0  0  0  0  0  0  0  0  0  0  0  0  # atno 8010 bound_to 7997
  140.1605  144.4375  150.6712 H   0  0  0  0  0  0  0  0  0  0  0  0  # atno 10167 bound_to 10162
  157.2715  130.7210  149.6507 H   0  0  0  0  0  0  0  0  0  0  0  0  # atno 10718 bound_to 10713
  152.9785  135.5843  154.4426 H   0  0  0  0  0  0  0  0  0  0  0  0  # atno 10763 bound_to 10752
  154.4026  135.2769  155.2089 H   0  0  0  0  0  0  0  0  0  0  0  0  # atno 10764 bound_to 10752
  154.3914  135.6124  153.5899 H   0  0  0  0  0  0  0  0  0  0  0  0  # atno 10765 bound_to 10752
  140.6935  134.4015  157.5217 H   0  0  0  0  0  0  0  0  0  0  0  0  # atno 11005 bound_to 11000
  146.3316  139.8570  142.8863 LP  0  0  0  0  0  0  0  0  0  0  0  0  # atno 17320 bound_to 7965
  145.2866  141.0155  143.3687 LP  0  0  0  0  0  0  0  0  0  0  0  0  # atno 17321 bound_to 7965
  140.6646  143.2263  151.5774 LP  0  0  0  0  0  0  0  0  0  0  0  0  # atno 17342 bound_to 10162
  139.5383  144.2718  152.1299 LP  0  0  0  0  0  0  0  0  0  0  0  0  # atno 17343 bound_to 10162
  155.9663  130.4366  150.5140 LP  0  0  0  0  0  0  0  0  0  0  0  0  # atno 17370 bound_to 10713
  157.3066  131.0655  151.2031 LP  0  0  0  0  0  0  0  0  0  0  0  0  # atno 17371 bound_to 10713
  139.8916  134.8774  156.2309 LP  0  0  0  0  0  0  0  0  0  0  0  0  # atno 17394 bound_to 11000
  141.0222  133.7035  156.1287 LP  0  0  0  0  0  0  0  0  0  0  0  0  # atno 17395 bound_to 11000

$$$$
