AV-unprocessed.smi:1875|AV-procd|sdf|7617|dock5
  -GOLD-   22720 9343D 1   1.00000     0.00000
 Structure written by MMmdl.
 49 51  0  0  0  0  0  0  0  0  3 V2000
  145.5512  132.6408  156.0032 C   0  0  0  0  0  0  0  0  0  0  0  0
  146.6409  132.8090  154.9646 C   0  0  0  0  0  0  0  0  0  0  0  0
  146.4498  132.2136  153.7834 N   0  0  0  0  0  0  0  0  0  0  0  0
  147.4198  132.3664  152.8556 C   0  0  0  0  0  0  0  0  0  0  0  0
  148.5833  133.1185  153.1172 C   0  0  0  0  0  0  0  0  0  0  0  0
  148.6715  133.7032  154.3980 C   0  0  0  0  0  0  0  0  0  0  0  0
  149.8766  134.5208  154.8129 C   0  0  0  0  0  0  0  0  0  0  0  0
  149.5880  135.9599  154.6725 N   0  3  0  0  0  0  0  0  0  0  0  0
  150.7182  136.8428  155.0244 C   0  0  0  0  0  0  0  0  0  0  0  0
  150.2216  138.2174  155.5024 C   0  0  1  0  0  0  0  0  0  0  0  0
  149.4184  138.0391  156.6536 O   0  0  0  0  0  0  0  0  0  0  0  0
  151.3833  139.1761  155.8356 C   0  0  0  0  0  0  0  0  0  0  0  0
  150.9416  140.5653  156.0239 N   0  0  0  0  0  0  0  0  0  0  0  0
  150.1204  141.3365  155.2595 C   0  0  0  0  0  0  0  0  0  0  0  0
  150.0336  142.5583  155.8543 N   0  3  0  0  0  0  0  0  0  0  0  0
  150.8054  142.5664  157.0180 C   0  0  0  0  0  0  0  0  0  0  0  0
  151.0342  143.5693  157.9526 C   0  0  0  0  0  0  0  0  0  0  0  0
  151.8790  143.2559  159.0413 C   0  0  0  0  0  0  0  0  0  0  0  0
  152.1506  144.3300  160.0809 C   0  0  0  0  0  0  0  0  0  0  0  0
  152.4615  141.9678  159.1664 C   0  0  0  0  0  0  0  0  0  0  0  0
  153.3632  141.6400  160.3441 C   0  0  0  0  0  0  0  0  0  0  0  0
  152.2179  140.9617  158.2039 C   0  0  0  0  0  0  0  0  0  0  0  0
  151.3858  141.2888  157.1361 C   0  0  0  0  0  0  0  0  0  0  0  0
  147.6993  133.5427  155.3233 N   0  0  0  0  0  0  0  0  0  0  0  0
  144.8160  131.8971  155.6935 H   0  0  0  0  0  0  0  0  0  0  0  0
  145.0326  133.5867  156.1613 H   0  0  0  0  0  0  0  0  0  0  0  0
  145.9764  132.3189  156.9544 H   0  0  0  0  0  0  0  0  0  0  0  0
  147.2685  131.8849  151.9009 H   0  0  0  0  0  0  0  0  0  0  0  0
  149.3584  133.2370  152.3744 H   0  0  0  0  0  0  0  0  0  0  0  0
  150.1390  134.2952  155.8473 H   0  0  0  0  0  0  0  0  0  0  0  0
  150.7334  134.2507  154.1937 H   0  0  0  0  0  0  0  0  0  0  0  0
  149.3246  136.1362  153.7134 H   0  0  0  0  0  0  0  0  0  0  0  0
  151.3366  136.3706  155.7895 H   0  0  0  0  0  0  0  0  0  0  0  0
  151.3437  136.9645  154.1390 H   0  0  0  0  0  0  0  0  0  0  0  0
  149.6019  138.6645  154.7241 H   0  0  0  0  0  0  0  0  0  0  0  0
  148.6885  138.6383  156.6112 H   0  0  0  0  0  0  0  0  0  0  0  0
  151.8827  138.8641  156.7540 H   0  0  0  0  0  0  0  0  0  0  0  0
  152.1407  139.1611  155.0507 H   0  0  0  0  0  0  0  0  0  0  0  0
  149.6310  141.0375  154.3436 H   0  0  0  0  0  0  0  0  0  0  0  0
  150.5856  144.5470  157.8520 H   0  0  0  0  0  0  0  0  0  0  0  0
  151.7775  144.0203  161.0572 H   0  0  0  0  0  0  0  0  0  0  0  0
  151.6639  145.2702  159.8205 H   0  0  0  0  0  0  0  0  0  0  0  0
  153.2204  144.5230  160.1638 H   0  0  0  0  0  0  0  0  0  0  0  0
  153.7171  140.6095  160.3013 H   0  0  0  0  0  0  0  0  0  0  0  0
  152.8267  141.7687  161.2845 H   0  0  0  0  0  0  0  0  0  0  0  0
  154.2371  142.2918  160.3510 H   0  0  0  0  0  0  0  0  0  0  0  0
  152.6607  139.9817  158.2994 H   0  0  0  0  0  0  0  0  0  0  0  0
  148.8037  136.1874  155.2671 H   0  0  0  0  0  0  0  0  0  0  0  0
  149.4873  143.3289  155.4905 H   0  0  0  0  0  0  0  0  0  0  0  0
  1  2  1  0  0  0  0
  1 25  1  0  0  0  0
  1 26  1  0  0  0  0
  1 27  1  0  0  0  0
  2 24  1  0  0  0  0
  2  3  2  0  0  0  0
  3  4  1  0  0  0  0
  4  5  2  0  0  0  0
  4 28  1  0  0  0  0
  5  6  1  0  0  0  0
  5 29  1  0  0  0  0
  6  7  1  0  0  0  0
  6 24  2  0  0  0  0
  7  8  1  0  0  0  0
  7 30  1  0  0  0  0
  7 31  1  0  0  0  0
  8  9  1  0  0  0  0
  8 32  1  0  0  0  0
  8 48  1  0  0  0  0
  9 10  1  0  0  0  0
  9 33  1  0  0  0  0
  9 34  1  0  0  0  0
 10 11  1  0  0  0  0
 10 12  1  0  0  0  0
 10 35  1  0  0  0  0
 11 36  1  0  0  0  0
 12 13  1  0  0  0  0
 12 37  1  0  0  0  0
 12 38  1  0  0  0  0
 13 23  1  0  0  0  0
 13 14  1  0  0  0  0
 14 15  2  0  0  0  0
 14 39  1  0  0  0  0
 15 16  1  0  0  0  0
 15 49  1  0  0  0  0
 16 23  2  0  0  0  0
 16 17  1  0  0  0  0
 17 18  2  0  0  0  0
 17 40  1  0  0  0  0
 18 19  1  0  0  0  0
 18 20  1  0  0  0  0
 19 41  1  0  0  0  0
 19 42  1  0  0  0  0
 19 43  1  0  0  0  0
 20 21  1  0  0  0  0
 20 22  2  0  0  0  0
 21 44  1  0  0  0  0
 21 45  1  0  0  0  0
 21 46  1  0  0  0  0
 22 23  1  0  0  0  0
 22 47  1  0  0  0  0
M  CHG  1   8   1
M  CHG  1  15   1
M  END
> <s_m_source_file>
AV-unprocessed.smi

> <i_m_source_file_index>
1875

> <i_lp_mmshare_version>
43012

> <i_f3d_flags>
0

> <s_epik_input>
W0NIM11jMW5bY0hdW2NIXWMobjEpW0NIMl1bTkhdW0NIMl1bQ0BIXShbT0hdKVtDSDJdbihbY0hdbjIpYyhjMjMpW2NIXWMoW0NIM10pYyhbY0hdMylbQ0gzXQ==

> <s_epik_cmdline>
J2VwaWtfcHl0aG9uJywgJy1waCcsICc3LjAnLCAnLXRuJywgJzgnLCAnLW1hJywgJzIwMCcsICctbWV0YWxfYmluZGluZycsICctaW1hZScsICc8aW5maWxlLm1hZT4nLCAnLW9tYWUnLCAnPG91dGZpbGUubWFlPic=

> <r_lp_tautomer_probability>
1

> <r_epik_Ionization_Penalty>
1.27527

> <r_epik_Ionization_Penalty_Charging>
1.27526

> <r_epik_Ionization_Penalty_Neutral>
8.72389e-06

> <r_epik_State_Penalty>
1.28654

> <r_epik_Charging_Adjusted_Penalty>
2.5618

> <i_epik_Tot_Q>
2

> <i_epik_Tot_abs_Q>
2

> <r_epik_Metal_State_Penalty>
1.36882

> <b_epik_Metal_Only>
0

> <s_epik_Chemistry_Notes>
This compound contains an electron-poor aromatic ring that is susceptible to covalent hydrolysis at low pH, typically resulting in measured values for nitrogen ring protonation that are around two units higher than predicted values.

> <s_lp_Force_Field>
OPLS_2005

> <r_lp_Energy>
13.7453

> <b_lp_Chiralities_Consistent>
1

> <s_lp_Variant>
AV-unprocessed.smi:1875-6

> <Gold.Version>
5.8.1

> <Gold.Id.Protein>
6NUR|6NUR_protein|mol2

> <Gold.PLP.Fitness>
58.7286

> <Gold.PLP.PLP>
-45.0172

> <Gold.PLP.part.hbond>
-2.0000

> <Gold.PLP.part.metal>
0.0000

> <Gold.PLP.part.buried>
-5.1964

> <Gold.PLP.part.nonpolar>
-39.1351

> <Gold.PLP.part.repulsive>
0.3028

> <Gold.PLP.ligand.clash>
0.0000

> <Gold.PLP.ligand.torsion>
0.6662

> <Gold.PLP.Chemscore.Hbond>
4.0000

> <Gold.PLP.Chemscore.CHOScore>
1.0000

> <Gold.PLP.Chemscore.Metal>
0.0000

> <Gold.Chemscore.Hbonds>
donor molecule, donor type, donor heavy atom, donor atom, acceptor molecule, acceptor atom, score
      L1  H     8    32       P1  7948  2.00
      L1  H    15    49       P1  8028  1.95
      L1  C     4    28       P1 10747  0.89

> <Gold.PLP.Chemscore.Internal.Correction>
0.0437

> <Gold.Rescore>
     Score         DG    S(hbond)    S(metal)    S(lipo)     H(rot)  DE(clash)    DE(int)     intcor
     17.75     -18.34       1.91        0.00     118.50       2.88       0.08       0.52       ----

> <Gold.Chemscore.Fitness>
17.7475

> <Gold.Chemscore.DG>
-18.3449

> <Gold.Chemscore.ZeroCoef>
-5.4800

> <Gold.Chemscore.Hbond>
1.9109

> <Gold.Chemscore.Metal>
0.0000

> <Gold.Chemscore.Lipo>
118.5031

> <Gold.Chemscore.Internal_Hbond>
0.0000

> <Gold.Chemscore.DEClash>
0.0788

> <Gold.Chemscore.DEInternal>
0.5186

> <Gold.Chemscore.Rot>
2.8838

> <Gold.Chemscore.Internal.Correction>
   9.000000E+99

> <Gold.Chemscore.Hbonds>
donor molecule, donor type, donor heavy atom, donor atom, acceptor molecule, acceptor atom, score
      L1  H     8    32       P1  7948  0.78
      L1  H    15    49       P1  8028  0.87

> <Gold.Chemscore.Hbond.Weighted>
-6.3824

> <Gold.Chemscore.Metal.Weighted>
-0.0000

> <Gold.Chemscore.Lipo.Weighted>
-13.8649

> <Gold.Chemscore.Internal_Hbond.Weighted>
0.0000

> <Gold.Chemscore.DEClash.Weighted>
0.0788

> <Gold.Chemscore.DEInternal.Weighted>
0.5186

> <Gold.Chemscore.Rot.Weighted>
7.3824

> <Gold.Chemscore.Internal.Correction.Weighted>
   9.000000E+99

> <Gold.Protein.RotatedTorsions>
[ 6907 6896 6895 6894 ] final  -30.66 input  -60.11 | X-H torsion
[ 7974 7965 7964 7962 ] final -139.42 input  175.53 | X-H torsion
[ 8008 7997 7996 7995 ] final  -49.81 input   59.86 | X-H torsion
[ 10167 10162 10161 10158 ] final  -86.44 input  -65.29 | X-H torsion
[ 10718 10713 10712 10709 ] final   54.07 input   66.30 | X-H torsion
[ 10763 10752 10751 10750 ] final   80.89 input  -60.55 | X-H torsion
[ 11005 11000 10999 10996 ] final   16.10 input  -57.11 | X-H torsion

> <Gold.Protein.ActiveResidues>
 VAL166  LYS551  ARG553  GLY616  TRP617  ASP618  TYR619  PRO620  LYS621  CYS622 
 ASP623  PHE694  ASN695  SER759  ASP760  ASP761  ALA762  ILE779  LEU786  VAL792 
 PHE793  MET794  SER795  GLU796  ALA797  LYS798  CYS799  TRP800  GLU811  SER814 

> <Gold.Protein.RotatedAtoms>
  151.1025  134.9980  159.8455 H   0  0  0  0  0  0  0  0  0  0  0  0  # atno 6907 bound_to 6896
  152.5438  134.1933  159.8693 H   0  0  0  0  0  0  0  0  0  0  0  0  # atno 6908 bound_to 6896
  151.1977  133.4585  159.2629 H   0  0  0  0  0  0  0  0  0  0  0  0  # atno 6909 bound_to 6896
  144.8678  140.6320  143.5286 H   0  0  0  0  0  0  0  0  0  0  0  0  # atno 7974 bound_to 7965
  154.4050  140.1287  156.4564 H   0  0  0  0  0  0  0  0  0  0  0  0  # atno 8008 bound_to 7997
  155.7316  140.3491  155.5042 H   0  0  0  0  0  0  0  0  0  0  0  0  # atno 8009 bound_to 7997
  155.9122  140.1038  157.1261 H   0  0  0  0  0  0  0  0  0  0  0  0  # atno 8010 bound_to 7997
  140.3941  143.2691  151.9227 H   0  0  0  0  0  0  0  0  0  0  0  0  # atno 10167 bound_to 10162
  157.5224  130.8574  149.8576 H   0  0  0  0  0  0  0  0  0  0  0  0  # atno 10718 bound_to 10713
  153.1071  135.4786  154.8970 H   0  0  0  0  0  0  0  0  0  0  0  0  # atno 10763 bound_to 10752
  154.7442  135.3089  154.8677 H   0  0  0  0  0  0  0  0  0  0  0  0  # atno 10764 bound_to 10752
  153.9277  135.6848  153.4799 H   0  0  0  0  0  0  0  0  0  0  0  0  # atno 10765 bound_to 10752
  140.4509  134.1225  155.7702 H   0  0  0  0  0  0  0  0  0  0  0  0  # atno 11005 bound_to 11000
  145.4188  139.1567  143.4085 LP  0  0  0  0  0  0  0  0  0  0  0  0  # atno 17320 bound_to 7965
  146.2908  140.4297  142.8740 LP  0  0  0  0  0  0  0  0  0  0  0  0  # atno 17321 bound_to 7965
  139.4787  144.5698  151.8106 LP  0  0  0  0  0  0  0  0  0  0  0  0  # atno 17342 bound_to 10162
  140.4809  144.1451  150.5932 LP  0  0  0  0  0  0  0  0  0  0  0  0  # atno 17343 bound_to 10162
  156.0363  130.3750  150.1553 LP  0  0  0  0  0  0  0  0  0  0  0  0  # atno 17370 bound_to 10713
  156.9740  130.9843  151.3452 LP  0  0  0  0  0  0  0  0  0  0  0  0  # atno 17371 bound_to 10713
  141.1664  133.8694  157.1700 LP  0  0  0  0  0  0  0  0  0  0  0  0  # atno 17394 bound_to 11000
  140.0008  135.0028  157.0184 LP  0  0  0  0  0  0  0  0  0  0  0  0  # atno 17395 bound_to 11000

$$$$
