AV-unprocessed.smi:77|AV-procd|sdf|771|dock7
  -GOLD-   2262017113D 1   1.00000     0.00000
 Structure written by MMmdl.
 57 61  0  0  0  0  0  0  0  0  1 V2000
  152.7386  139.9636  157.7275 O   0  0  0  0  0  0  0  0  0  0  0  0
  151.8692  140.8049  157.4952 C   0  0  0  0  0  0  0  0  0  0  0  0
  150.9593  140.6725  156.2667 C   0  0  0  0  0  0  0  0  0  0  0  0
  149.5772  140.3220  156.6118 N   0  0  0  0  0  0  0  0  0  0  0  0
  148.6364  140.8812  155.8172 C   0  0  0  0  0  0  0  0  0  0  0  0
  148.7551  140.8005  154.4656 N   0  0  0  0  0  0  0  0  0  0  0  0
  147.8268  141.3589  153.6822 C   0  0  0  0  0  0  0  0  0  0  0  0
  146.7275  142.0294  154.0360 N   0  0  0  0  0  0  0  0  0  0  0  0
  146.6096  142.1064  155.3929 C   0  0  0  0  0  0  0  0  0  0  0  0
  147.5088  141.5591  156.3486 C   0  0  0  0  0  0  0  0  0  0  0  0
  147.0615  141.8268  157.6359 N   0  0  0  0  0  0  0  0  0  0  0  0
  145.9625  142.5066  157.4523 C   0  0  0  0  0  0  0  0  0  0  0  0
  145.6226  142.7283  156.1361 N   0  0  0  0  0  0  0  0  0  0  0  0
  144.4661  143.4542  155.6439 C   0  0  0  0  0  0  0  0  0  0  0  0
  144.4849  144.9701  155.9777 C   0  0  2  0  0  0  0  0  0  0  0  0
  144.4173  145.2415  157.5029 C   0  0  0  0  0  0  0  0  0  0  0  0
  144.8116  146.5597  157.8246 O   0  0  0  0  0  0  0  0  0  0  0  0
  143.3398  145.7023  155.2302 C   0  0  2  0  0  0  0  0  0  0  0  0
  141.9385  145.2334  155.5864 C   0  0  0  0  0  0  0  0  0  0  0  0
  141.1164  145.7524  154.4138 C   0  0  0  0  0  0  0  0  0  0  0  0
  141.9746  145.6612  153.2839 O   0  0  0  0  0  0  0  0  0  0  0  0
  143.3228  145.4882  153.7101 C   0  0  0  0  0  0  0  0  0  0  0  0
  149.3165  138.9150  156.8823 C   0  0  0  0  0  0  0  0  0  0  0  0
  148.2270  138.5404  157.8610 C   0  0  0  0  0  0  0  0  0  0  0  0
  149.6803  138.3650  158.2399 C   0  0  0  0  0  0  0  0  0  0  0  0
  151.6671  141.8869  158.2609 N   0  0  0  0  0  0  0  0  0  0  0  0
  152.3903  142.2086  159.4485 C   0  0  0  0  0  0  0  0  0  0  0  0
  151.9232  143.4040  160.2505 C   0  0  0  0  0  0  0  0  0  0  0  0
  153.1978  143.4884  159.4570 C   0  0  0  0  0  0  0  0  0  0  0  0
  150.9883  141.5906  155.6769 H   0  0  0  0  0  0  0  0  0  0  0  0
  151.3780  139.8903  155.6317 H   0  0  0  0  0  0  0  0  0  0  0  0
  147.9898  141.2573  152.6194 H   0  0  0  0  0  0  0  0  0  0  0  0
  145.3711  142.8748  158.2778 H   0  0  0  0  0  0  0  0  0  0  0  0
  144.4271  143.2966  154.5661 H   0  0  0  0  0  0  0  0  0  0  0  0
  143.5680  142.9920  156.0558 H   0  0  0  0  0  0  0  0  0  0  0  0
  145.4234  145.3856  155.6067 H   0  0  0  0  0  0  0  0  0  0  0  0
  143.4026  145.1284  157.8811 H   0  0  0  0  0  0  0  0  0  0  0  0
  145.0354  144.5301  158.0512 H   0  0  0  0  0  0  0  0  0  0  0  0
  145.7425  146.6399  157.6824 H   0  0  0  0  0  0  0  0  0  0  0  0
  143.4031  146.7735  155.4303 H   0  0  0  0  0  0  0  0  0  0  0  0
  141.8967  144.1436  155.6194 H   0  0  0  0  0  0  0  0  0  0  0  0
  141.5816  145.6194  156.5416 H   0  0  0  0  0  0  0  0  0  0  0  0
  140.1953  145.1885  154.2646 H   0  0  0  0  0  0  0  0  0  0  0  0
  140.8532  146.7996  154.5683 H   0  0  0  0  0  0  0  0  0  0  0  0
  143.9815  146.1793  153.1841 H   0  0  0  0  0  0  0  0  0  0  0  0
  143.6304  144.4726  153.4574 H   0  0  0  0  0  0  0  0  0  0  0  0
  149.4562  138.2376  156.0416 H   0  0  0  0  0  0  0  0  0  0  0  0
  147.6774  139.3437  158.3479 H   0  0  0  0  0  0  0  0  0  0  0  0
  147.6496  137.6433  157.6480 H   0  0  0  0  0  0  0  0  0  0  0  0
  150.0713  137.3506  158.2813 H   0  0  0  0  0  0  0  0  0  0  0  0
  150.0952  139.0556  158.9718 H   0  0  0  0  0  0  0  0  0  0  0  0
  150.9369  142.5282  157.9866 H   0  0  0  0  0  0  0  0  0  0  0  0
  152.7983  141.3800  160.0259 H   0  0  0  0  0  0  0  0  0  0  0  0
  151.0643  143.9617  159.8814 H   0  0  0  0  0  0  0  0  0  0  0  0
  152.0092  143.3460  161.3338 H   0  0  0  0  0  0  0  0  0  0  0  0
  154.1351  143.4859  160.0098 H   0  0  0  0  0  0  0  0  0  0  0  0
  153.1900  144.1010  158.5574 H   0  0  0  0  0  0  0  0  0  0  0  0
  1  2  2  0  0  0  0
  2  3  1  0  0  0  0
  2 26  1  0  0  0  0
  3  4  1  0  0  0  0
  3 30  1  0  0  0  0
  3 31  1  0  0  0  0
  4  5  1  0  0  0  0
  4 23  1  0  0  0  0
  5 10  1  0  0  0  0
  5  6  2  0  0  0  0
  6  7  1  0  0  0  0
  7  8  2  0  0  0  0
  7 32  1  0  0  0  0
  8  9  1  0  0  0  0
  9 13  1  0  0  0  0
  9 10  2  0  0  0  0
 10 11  1  0  0  0  0
 11 12  2  0  0  0  0
 12 13  1  0  0  0  0
 12 33  1  0  0  0  0
 13 14  1  0  0  0  0
 14 15  1  0  0  0  0
 14 34  1  0  0  0  0
 14 35  1  0  0  0  0
 15 16  1  0  0  0  0
 15 18  1  0  0  0  0
 15 36  1  0  0  0  0
 16 17  1  0  0  0  0
 16 37  1  0  0  0  0
 16 38  1  0  0  0  0
 17 39  1  0  0  0  0
 18 22  1  0  0  0  0
 18 19  1  0  0  0  0
 18 40  1  0  0  0  0
 19 20  1  0  0  0  0
 19 41  1  0  0  0  0
 19 42  1  0  0  0  0
 20 21  1  0  0  0  0
 20 43  1  0  0  0  0
 20 44  1  0  0  0  0
 21 22  1  0  0  0  0
 22 45  1  0  0  0  0
 22 46  1  0  0  0  0
 23 25  1  0  0  0  0
 23 24  1  0  0  0  0
 23 47  1  0  0  0  0
 24 25  1  0  0  0  0
 24 48  1  0  0  0  0
 24 49  1  0  0  0  0
 25 50  1  0  0  0  0
 25 51  1  0  0  0  0
 26 27  1  0  0  0  0
 26 52  1  0  0  0  0
 27 29  1  0  0  0  0
 27 28  1  0  0  0  0
 27 53  1  0  0  0  0
 28 29  1  0  0  0  0
 28 54  1  0  0  0  0
 28 55  1  0  0  0  0
 29 56  1  0  0  0  0
 29 57  1  0  0  0  0
M  END
> <s_m_source_file>
AV-unprocessed.smi

> <i_m_source_file_index>
77

> <i_lp_mmshare_version>
43012

> <i_f3d_flags>
0

> <s_epik_input>
W0NIMl0xW0NIMl1bQ0hdMVtOSF1DKD1PKVtDSDJdTihbQ0hdMltDSDJdW0NIMl0yKWMobltjSF1uMyljKGMzNCluW2NIXW40W0NIMl1bQ0BIXShbQ0gyXVtPSF0pW0NAQEhdNVtDSDJdW0NIMl1PW0NIMl01

> <s_epik_cmdline>
J2VwaWtfcHl0aG9uJywgJy1waCcsICc3LjAnLCAnLXRuJywgJzgnLCAnLW1hJywgJzIwMCcsICctbWV0YWxfYmluZGluZycsICctaW1hZScsICc8aW5maWxlLm1hZT4nLCAnLW9tYWUnLCAnPG91dGZpbGUubWFlPic=

> <r_lp_tautomer_probability>
1

> <r_epik_Ionization_Penalty>
0.000703847

> <r_epik_Ionization_Penalty_Charging>
0

> <r_epik_Ionization_Penalty_Neutral>
0.000703847

> <r_epik_State_Penalty>
0.00034025

> <r_epik_Charging_Adjusted_Penalty>
0.00034025

> <i_epik_Tot_Q>
0

> <i_epik_Tot_abs_Q>
0

> <r_epik_Metal_State_Penalty>
-0

> <b_epik_Metal_Only>
0

> <s_lp_Force_Field>
OPLS_2005

> <r_lp_Energy>
55.2708

> <b_lp_Chiralities_Consistent>
1

> <s_lp_Variant>
AV-unprocessed.smi:77-1

> <Gold.Version>
5.8.1

> <Gold.Id.Protein>
6NUR|6NUR_protein|mol2

> <Gold.PLP.Fitness>
48.1885

> <Gold.PLP.PLP>
-40.5268

> <Gold.PLP.part.hbond>
-3.0000

> <Gold.PLP.part.metal>
0.0000

> <Gold.PLP.part.buried>
-8.3417

> <Gold.PLP.part.nonpolar>
-30.0432

> <Gold.PLP.part.repulsive>
0.5963

> <Gold.PLP.ligand.clash>
0.0000

> <Gold.PLP.ligand.torsion>
1.6973

> <Gold.PLP.Chemscore.Hbond>
2.0000

> <Gold.PLP.Chemscore.CHOScore>
0.9997

> <Gold.PLP.Chemscore.Metal>
0.0000

> <Gold.Chemscore.Hbonds>
donor molecule, donor type, donor heavy atom, donor atom, acceptor molecule, acceptor atom, score
      L1  H    17    39       P1  8029  0.55
      P1  H  7997  8009       L1     1  0.99
      L1  C     7    32       P1  7957  1.00

> <Gold.PLP.Chemscore.Internal.Correction>
2.0571

> <Gold.Rescore>
     Score         DG    S(hbond)    S(metal)    S(lipo)     H(rot)  DE(clash)    DE(int)     intcor
      9.79     -11.97       1.93        0.00      82.81       3.77       0.18       2.00       ----

> <Gold.Chemscore.Fitness>
9.7893

> <Gold.Chemscore.DG>
-11.9706

> <Gold.Chemscore.ZeroCoef>
-5.4800

> <Gold.Chemscore.Hbond>
1.9331

> <Gold.Chemscore.Metal>
0.0000

> <Gold.Chemscore.Lipo>
82.8102

> <Gold.Chemscore.Internal_Hbond>
0.0000

> <Gold.Chemscore.DEClash>
0.1830

> <Gold.Chemscore.DEInternal>
1.9983

> <Gold.Chemscore.Rot>
3.7714

> <Gold.Chemscore.Internal.Correction>
   9.000000E+99

> <Gold.Chemscore.Hbonds>
donor molecule, donor type, donor heavy atom, donor atom, acceptor molecule, acceptor atom, score
      L1  H    17    39       P1  8029  0.49
      P1  H  7997  8009       L1     1  0.92

> <Gold.Chemscore.Hbond.Weighted>
-6.4566

> <Gold.Chemscore.Metal.Weighted>
-0.0000

> <Gold.Chemscore.Lipo.Weighted>
-9.6888

> <Gold.Chemscore.Internal_Hbond.Weighted>
0.0000

> <Gold.Chemscore.DEClash.Weighted>
0.1830

> <Gold.Chemscore.DEInternal.Weighted>
1.9983

> <Gold.Chemscore.Rot.Weighted>
9.6548

> <Gold.Chemscore.Internal.Correction.Weighted>
   9.000000E+99

> <Gold.Protein.RotatedTorsions>
[ 6907 6896 6895 6894 ] final  127.76 input  -60.11 | X-H torsion
[ 7974 7965 7964 7962 ] final  -62.43 input  175.53 | X-H torsion
[ 8008 7997 7996 7995 ] final  154.99 input   59.86 | X-H torsion
[ 10167 10162 10161 10158 ] final  -60.13 input  -65.29 | X-H torsion
[ 10718 10713 10712 10709 ] final -134.32 input   66.30 | X-H torsion
[ 10763 10752 10751 10750 ] final -156.37 input  -60.55 | X-H torsion
[ 11005 11000 10999 10996 ] final -134.70 input  -57.11 | X-H torsion

> <Gold.Protein.ActiveResidues>
 VAL166  LYS551  ARG553  GLY616  TRP617  ASP618  TYR619  PRO620  LYS621  CYS622 
 ASP623  PHE694  ASN695  SER759  ASP760  ASP761  ALA762  ILE779  LEU786  VAL792 
 PHE793  MET794  SER795  GLU796  ALA797  LYS798  CYS799  TRP800  GLU811  SER814 

> <Gold.Protein.RotatedAtoms>
  152.3782  133.6510  159.6140 H   0  0  0  0  0  0  0  0  0  0  0  0  # atno 6907 bound_to 6896
  150.7720  133.9157  159.3392 H   0  0  0  0  0  0  0  0  0  0  0  0  # atno 6908 bound_to 6896
  151.6968  135.0938  160.0295 H   0  0  0  0  0  0  0  0  0  0  0  0  # atno 6909 bound_to 6896
  145.7914  140.8707  143.0279 H   0  0  0  0  0  0  0  0  0  0  0  0  # atno 7974 bound_to 7965
  156.2502  140.1951  156.6732 H   0  0  0  0  0  0  0  0  0  0  0  0  # atno 8008 bound_to 7997
  154.6377  140.0587  156.9834 H   0  0  0  0  0  0  0  0  0  0  0  0  # atno 8009 bound_to 7997
  155.1611  140.3260  155.4414 H   0  0  0  0  0  0  0  0  0  0  0  0  # atno 8010 bound_to 7997
  140.6091  143.2382  151.5752 H   0  0  0  0  0  0  0  0  0  0  0  0  # atno 10167 bound_to 10162
  156.2542  130.7171  151.1081 H   0  0  0  0  0  0  0  0  0  0  0  0  # atno 10718 bound_to 10713
  154.7718  135.3147  154.8174 H   0  0  0  0  0  0  0  0  0  0  0  0  # atno 10763 bound_to 10752
  153.8907  135.6825  153.4765 H   0  0  0  0  0  0  0  0  0  0  0  0  # atno 10764 bound_to 10752
  153.1333  135.4770  154.9318 H   0  0  0  0  0  0  0  0  0  0  0  0  # atno 10765 bound_to 10752
  140.8966  134.1744  157.4490 H   0  0  0  0  0  0  0  0  0  0  0  0  # atno 11005 bound_to 11000
  144.6781  140.0128  143.7484 LP  0  0  0  0  0  0  0  0  0  0  0  0  # atno 17320 bound_to 7965
  145.9973  139.3063  143.0949 LP  0  0  0  0  0  0  0  0  0  0  0  0  # atno 17321 bound_to 7965
  139.5347  144.2815  152.1226 LP  0  0  0  0  0  0  0  0  0  0  0  0  # atno 17342 bound_to 10162
  140.2010  144.4658  150.6431 LP  0  0  0  0  0  0  0  0  0  0  0  0  # atno 17343 bound_to 10162
  157.7226  131.0671  150.6071 LP  0  0  0  0  0  0  0  0  0  0  0  0  # atno 17370 bound_to 10713
  156.6153  130.4391  149.5843 LP  0  0  0  0  0  0  0  0  0  0  0  0  # atno 17371 bound_to 10713
  139.8736  134.9881  156.5396 LP  0  0  0  0  0  0  0  0  0  0  0  0  # atno 17394 bound_to 11000
  140.8282  133.8300  155.8958 LP  0  0  0  0  0  0  0  0  0  0  0  0  # atno 17395 bound_to 11000

$$$$
