AV-unprocessed.smi:1828|AV-procd|sdf|7425|dock4
  -GOLD-   22720 9103D 1   1.00000     0.00000
 Structure written by MMmdl.
 39 41  0  0  0  0  0  0  0  0  1 V2000
  153.5819  139.0358  157.8760 O   0  0  0  0  0  0  0  0  0  0  0  0
  152.2561  139.4332  158.1565 C   0  0  0  0  0  0  0  0  0  0  0  0
  152.1524  140.8836  158.5338 C   0  0  0  0  0  0  0  0  0  0  0  0
  152.7255  141.3456  159.6469 N   0  0  0  0  0  0  0  0  0  0  0  0
  152.3910  142.6841  159.6344 C   0  0  0  0  0  0  0  0  0  0  0  0
  152.6959  143.7156  160.5510 C   0  0  0  0  0  0  0  0  0  0  0  0
  152.2358  145.0294  160.3258 C   0  0  0  0  0  0  0  0  0  0  0  0
  151.4659  145.3297  159.1836 C   0  0  0  0  0  0  0  0  0  0  0  0
  151.1519  144.3163  158.2577 C   0  0  0  0  0  0  0  0  0  0  0  0
  151.6144  143.0062  158.4869 C   0  0  0  0  0  0  0  0  0  0  0  0
  151.4848  141.8077  157.7912 N   0  0  0  0  0  0  0  0  0  0  0  0
  150.7614  141.6409  156.5357 C   0  0  0  0  0  0  0  0  0  0  0  0
  149.3664  141.0162  156.7405 C   0  0  1  0  0  0  0  0  0  0  0  0
  148.9919  141.2008  158.0905 O   0  0  0  0  0  0  0  0  0  0  0  0
  148.3299  141.5645  155.7689 C   0  0  0  0  0  0  0  0  0  0  0  0
  148.5105  141.4488  154.3732 C   0  0  0  0  0  0  0  0  0  0  0  0
  147.5320  141.9419  153.4899 C   0  0  0  0  0  0  0  0  0  0  0  0
  146.3652  142.5464  153.9949 C   0  0  0  0  0  0  0  0  0  0  0  0
  146.1677  142.6591  155.3881 C   0  0  0  0  0  0  0  0  0  0  0  0
  144.9071  143.3074  155.9401 C   0  0  0  0  0  0  0  0  0  0  0  0
  144.0329  142.3798  156.3319 F   0  0  0  0  0  0  0  0  0  0  0  0
  145.2276  144.0655  156.9879 F   0  0  0  0  0  0  0  0  0  0  0  0
  144.3184  144.0729  155.0205 F   0  0  0  0  0  0  0  0  0  0  0  0
  147.1592  142.1748  156.2681 C   0  0  0  0  0  0  0  0  0  0  0  0
  153.6495  138.1027  158.0074 H   0  0  0  0  0  0  0  0  0  0  0  0
  151.6410  139.2572  157.2740 H   0  0  0  0  0  0  0  0  0  0  0  0
  151.8775  138.7823  158.9402 H   0  0  0  0  0  0  0  0  0  0  0  0
  153.2837  143.4948  161.4295 H   0  0  0  0  0  0  0  0  0  0  0  0
  152.4742  145.8102  161.0333 H   0  0  0  0  0  0  0  0  0  0  0  0
  151.1168  146.3387  159.0186 H   0  0  0  0  0  0  0  0  0  0  0  0
  150.5614  144.5433  157.3825 H   0  0  0  0  0  0  0  0  0  0  0  0
  150.6533  142.6307  156.0902 H   0  0  0  0  0  0  0  0  0  0  0  0
  151.3561  141.0698  155.8244 H   0  0  0  0  0  0  0  0  0  0  0  0
  149.4379  139.9378  156.5918 H   0  0  0  0  0  0  0  0  0  0  0  0
  149.4456  141.9593  158.4255 H   0  0  0  0  0  0  0  0  0  0  0  0
  149.3962  140.9763  153.9743 H   0  0  0  0  0  0  0  0  0  0  0  0
  147.6743  141.8533  152.4230 H   0  0  0  0  0  0  0  0  0  0  0  0
  145.6219  142.9207  153.3067 H   0  0  0  0  0  0  0  0  0  0  0  0
  147.0152  142.2588  157.3354 H   0  0  0  0  0  0  0  0  0  0  0  0
  1  2  1  0  0  0  0
  1 25  1  0  0  0  0
  2  3  1  0  0  0  0
  2 26  1  0  0  0  0
  2 27  1  0  0  0  0
  3 11  1  0  0  0  0
  3  4  2  0  0  0  0
  4  5  1  0  0  0  0
  5 10  2  0  0  0  0
  5  6  1  0  0  0  0
  6  7  2  0  0  0  0
  6 28  1  0  0  0  0
  7  8  1  0  0  0  0
  7 29  1  0  0  0  0
  8  9  2  0  0  0  0
  8 30  1  0  0  0  0
  9 10  1  0  0  0  0
  9 31  1  0  0  0  0
 10 11  1  0  0  0  0
 11 12  1  0  0  0  0
 12 13  1  0  0  0  0
 12 32  1  0  0  0  0
 12 33  1  0  0  0  0
 13 14  1  0  0  0  0
 13 15  1  0  0  0  0
 13 34  1  0  0  0  0
 14 35  1  0  0  0  0
 15 24  1  0  0  0  0
 15 16  2  0  0  0  0
 16 17  1  0  0  0  0
 16 36  1  0  0  0  0
 17 18  2  0  0  0  0
 17 37  1  0  0  0  0
 18 19  1  0  0  0  0
 18 38  1  0  0  0  0
 19 20  1  0  0  0  0
 19 24  2  0  0  0  0
 20 21  1  0  0  0  0
 20 22  1  0  0  0  0
 20 23  1  0  0  0  0
 24 39  1  0  0  0  0
M  END
> <s_m_source_file>
AV-unprocessed.smi

> <i_m_source_file_index>
1828

> <i_lp_mmshare_version>
43012

> <i_f3d_flags>
0

> <s_epik_input>
W2NIXTFbY0hdW2NIXVtjSF1jKGMxMiluKGMobjIpW0NIMl1bT0hdKVtDSDJdW0NASF0oW09IXSljM1tjSF1bY0hdW2NIXWMoQyhGKShGKUYpW2NIXTM=

> <s_epik_cmdline>
J2VwaWtfcHl0aG9uJywgJy1waCcsICc3LjAnLCAnLXRuJywgJzgnLCAnLW1hJywgJzIwMCcsICctbWV0YWxfYmluZGluZycsICctaW1hZScsICc8aW5maWxlLm1hZT4nLCAnLW9tYWUnLCAnPG91dGZpbGUubWFlPic=

> <r_epik_Ionization_Penalty>
0.0634719

> <r_epik_Ionization_Penalty_Charging>
0

> <r_epik_Ionization_Penalty_Neutral>
0.0634719

> <r_epik_State_Penalty>
0.0551572

> <r_epik_Charging_Adjusted_Penalty>
0.0551572

> <i_epik_Tot_Q>
0

> <i_epik_Tot_abs_Q>
0

> <r_epik_Metal_State_Penalty>
5.78034e-05

> <b_epik_Metal_Only>
0

> <s_lp_Force_Field>
OPLS_2005

> <r_lp_Energy>
14.211

> <b_lp_Chiralities_Consistent>
1

> <s_lp_Variant>
AV-unprocessed.smi:1828-2

> <Gold.Version>
5.8.1

> <Gold.Id.Protein>
6NUR|6NUR_protein|mol2

> <Gold.PLP.Fitness>
49.9044

> <Gold.PLP.PLP>
-49.0152

> <Gold.PLP.part.hbond>
-1.0000

> <Gold.PLP.part.metal>
0.0000

> <Gold.PLP.part.buried>
-6.8846

> <Gold.PLP.part.nonpolar>
-40.3245

> <Gold.PLP.part.repulsive>
0.0000

> <Gold.PLP.ligand.clash>
0.0000

> <Gold.PLP.ligand.torsion>
1.6455

> <Gold.PLP.Chemscore.Hbond>
1.0000

> <Gold.PLP.Chemscore.CHOScore>
0.0000

> <Gold.PLP.Chemscore.Metal>
0.0000

> <Gold.Chemscore.Hbonds>
donor molecule, donor type, donor heavy atom, donor atom, acceptor molecule, acceptor atom, score
      P1  H  7997  8009       L1     1  1.00

> <Gold.PLP.Chemscore.Internal.Correction>
1.1803

> <Gold.Rescore>
     Score         DG    S(hbond)    S(metal)    S(lipo)     H(rot)  DE(clash)    DE(int)     intcor
     13.27     -15.65       0.96        0.00     123.19       2.91       1.26       1.13       ----

> <Gold.Chemscore.Fitness>
13.2656

> <Gold.Chemscore.DG>
-15.6528

> <Gold.Chemscore.ZeroCoef>
-5.4800

> <Gold.Chemscore.Hbond>
0.9639

> <Gold.Chemscore.Metal>
0.0000

> <Gold.Chemscore.Lipo>
123.1927

> <Gold.Chemscore.Internal_Hbond>
0.0000

> <Gold.Chemscore.DEClash>
1.2593

> <Gold.Chemscore.DEInternal>
1.1280

> <Gold.Chemscore.Rot>
2.9141

> <Gold.Chemscore.Internal.Correction>
   9.000000E+99

> <Gold.Chemscore.Hbonds>
donor molecule, donor type, donor heavy atom, donor atom, acceptor molecule, acceptor atom, score
      P1  H  7997  8009       L1     1  0.94

> <Gold.Chemscore.Hbond.Weighted>
-3.2193

> <Gold.Chemscore.Metal.Weighted>
-0.0000

> <Gold.Chemscore.Lipo.Weighted>
-14.4136

> <Gold.Chemscore.Internal_Hbond.Weighted>
0.0000

> <Gold.Chemscore.DEClash.Weighted>
1.2593

> <Gold.Chemscore.DEInternal.Weighted>
1.1280

> <Gold.Chemscore.Rot.Weighted>
7.4600

> <Gold.Chemscore.Internal.Correction.Weighted>
   9.000000E+99

> <Gold.Protein.RotatedTorsions>
[ 6907 6896 6895 6894 ] final -178.44 input  -60.11 | X-H torsion
[ 7974 7965 7964 7962 ] final   -0.22 input  175.53 | X-H torsion
[ 8008 7997 7996 7995 ] final  167.87 input   59.86 | X-H torsion
[ 10167 10162 10161 10158 ] final -168.59 input  -65.29 | X-H torsion
[ 10718 10713 10712 10709 ] final  -40.49 input   66.30 | X-H torsion
[ 10763 10752 10751 10750 ] final   75.06 input  -60.55 | X-H torsion
[ 11005 11000 10999 10996 ] final  -62.84 input  -57.11 | X-H torsion

> <Gold.Protein.ActiveResidues>
 VAL166  LYS551  ARG553  GLY616  TRP617  ASP618  TYR619  PRO620  LYS621  CYS622 
 ASP623  PHE694  ASN695  SER759  ASP760  ASP761  ALA762  ILE779  LEU786  VAL792 
 PHE793  MET794  SER795  GLU796  ALA797  LYS798  CYS799  TRP800  GLU811  SER814 

> <Gold.Protein.RotatedAtoms>
  151.6372  133.3328  159.3121 H   0  0  0  0  0  0  0  0  0  0  0  0  # atno 6907 bound_to 6896
  150.8026  134.7134  159.6626 H   0  0  0  0  0  0  0  0  0  0  0  0  # atno 6908 bound_to 6896
  152.4119  134.6113  160.0078 H   0  0  0  0  0  0  0  0  0  0  0  0  # atno 6909 bound_to 6896
  146.2429  140.1237  142.8340 H   0  0  0  0  0  0  0  0  0  0  0  0  # atno 7974 bound_to 7965
  156.1597  140.1605  156.8634 H   0  0  0  0  0  0  0  0  0  0  0  0  # atno 8008 bound_to 7997
  154.5148  140.0792  156.8096 H   0  0  0  0  0  0  0  0  0  0  0  0  # atno 8009 bound_to 7997
  155.3733  140.3401  155.4246 H   0  0  0  0  0  0  0  0  0  0  0  0  # atno 8010 bound_to 7997
  139.5976  144.1079  152.1706 H   0  0  0  0  0  0  0  0  0  0  0  0  # atno 10167 bound_to 10162
  156.2807  130.4217  149.8340 H   0  0  0  0  0  0  0  0  0  0  0  0  # atno 10718 bound_to 10713
  153.0629  135.5003  154.8134 H   0  0  0  0  0  0  0  0  0  0  0  0  # atno 10763 bound_to 10752
  154.6909  135.2984  154.9482 H   0  0  0  0  0  0  0  0  0  0  0  0  # atno 10764 bound_to 10752
  154.0237  135.6738  153.4827 H   0  0  0  0  0  0  0  0  0  0  0  0  # atno 10765 bound_to 10752
  141.1373  133.6644  156.5589 H   0  0  0  0  0  0  0  0  0  0  0  0  # atno 11005 bound_to 11000
  145.0384  140.8926  143.5067 LP  0  0  0  0  0  0  0  0  0  0  0  0  # atno 17320 bound_to 7965
  145.1313  139.2630  143.5537 LP  0  0  0  0  0  0  0  0  0  0  0  0  # atno 17321 bound_to 7965
  140.0668  144.5812  150.7221 LP  0  0  0  0  0  0  0  0  0  0  0  0  # atno 17342 bound_to 10162
  140.7224  143.2602  151.4234 LP  0  0  0  0  0  0  0  0  0  0  0  0  # atno 17343 bound_to 10162
  156.5788  130.8457  151.3377 LP  0  0  0  0  0  0  0  0  0  0  0  0  # atno 17370 bound_to 10713
  157.7313  130.9699  150.1875 LP  0  0  0  0  0  0  0  0  0  0  0  0  # atno 17371 bound_to 10713
  140.4004  134.7362  157.4776 LP  0  0  0  0  0  0  0  0  0  0  0  0  # atno 17394 bound_to 11000
  140.0500  134.6144  155.8873 LP  0  0  0  0  0  0  0  0  0  0  0  0  # atno 17395 bound_to 11000

$$$$
