AV-unprocessed.smi:1429|AV-procd|sdf|5819|dock5
  -GOLD-   22720 5473D 1   1.00000     0.00000
 Structure written by MMmdl.
 30 31  0  0  0  0  0  0  0  0  1 V2000
  144.1100  131.9880  149.9189 C   0  0  0  0  0  0  0  0  0  0  0  0
  144.4818  133.1946  150.7112 C   0  0  0  0  0  0  0  0  0  0  0  0
  143.5875  133.9176  151.3966 N   0  0  0  0  0  0  0  0  0  0  0  0
  144.1720  134.9920  152.0528 N   0  0  0  0  0  0  0  0  0  0  0  0
  145.4943  135.0476  151.8413 C   0  0  0  0  0  0  0  0  0  0  0  0
  146.3412  136.0436  152.3953 N   0  0  0  0  0  0  0  0  0  0  0  0
  146.0142  137.0449  153.2309 C   0  0  0  0  0  0  0  0  0  0  0  0
  144.8815  137.2781  153.6534 O   0  0  0  0  0  0  0  0  0  0  0  0
  147.0917  137.7708  153.5625 N   0  0  0  0  0  0  0  0  0  0  0  0
  147.0966  138.9110  154.4742 C   0  0  0  0  0  0  0  0  0  0  0  0
  148.2945  139.8431  154.2137 C   0  0  1  0  0  0  0  0  0  0  0  0
  148.3360  141.0583  155.1174 C   0  0  0  0  0  0  0  0  0  0  0  0
  149.7846  141.5161  154.9689 C   0  0  0  0  0  0  0  0  0  0  0  0
  150.5427  140.3391  154.7036 O   0  0  0  0  0  0  0  0  0  0  0  0
  149.6697  139.2339  154.4933 C   0  0  0  0  0  0  0  0  0  0  0  0
  146.1379  133.7795  150.8124 S   0  0  0  0  0  0  0  0  0  0  0  0
  143.0589  131.7378  150.0671 H   0  0  0  0  0  0  0  0  0  0  0  0
  144.7177  131.1376  150.2281 H   0  0  0  0  0  0  0  0  0  0  0  0
  144.2793  132.1735  148.8582 H   0  0  0  0  0  0  0  0  0  0  0  0
  147.3138  135.9776  152.1341 H   0  0  0  0  0  0  0  0  0  0  0  0
  147.9815  137.5070  153.1651 H   0  0  0  0  0  0  0  0  0  0  0  0
  146.1687  139.4616  154.3186 H   0  0  0  0  0  0  0  0  0  0  0  0
  147.0824  138.5802  155.5143 H   0  0  0  0  0  0  0  0  0  0  0  0
  148.2668  140.1859  153.1777 H   0  0  0  0  0  0  0  0  0  0  0  0
  147.6176  141.8283  154.8350 H   0  0  0  0  0  0  0  0  0  0  0  0
  148.1400  140.7714  156.1516 H   0  0  0  0  0  0  0  0  0  0  0  0
  149.8853  142.1907  154.1180 H   0  0  0  0  0  0  0  0  0  0  0  0
  150.1494  142.0339  155.8565 H   0  0  0  0  0  0  0  0  0  0  0  0
  149.6485  138.6350  155.4050 H   0  0  0  0  0  0  0  0  0  0  0  0
  150.0213  138.5990  153.6797 H   0  0  0  0  0  0  0  0  0  0  0  0
  1  2  1  0  0  0  0
  1 17  1  0  0  0  0
  1 18  1  0  0  0  0
  1 19  1  0  0  0  0
  2 16  1  0  0  0  0
  2  3  2  0  0  0  0
  3  4  1  0  0  0  0
  4  5  2  0  0  0  0
  5  6  1  0  0  0  0
  5 16  1  0  0  0  0
  6  7  1  0  0  0  0
  6 20  1  0  0  0  0
  7  8  2  0  0  0  0
  7  9  1  0  0  0  0
  9 10  1  0  0  0  0
  9 21  1  0  0  0  0
 10 11  1  0  0  0  0
 10 22  1  0  0  0  0
 10 23  1  0  0  0  0
 11 15  1  0  0  0  0
 11 12  1  0  0  0  0
 11 24  1  0  0  0  0
 12 13  1  0  0  0  0
 12 25  1  0  0  0  0
 12 26  1  0  0  0  0
 13 14  1  0  0  0  0
 13 27  1  0  0  0  0
 13 28  1  0  0  0  0
 14 15  1  0  0  0  0
 15 29  1  0  0  0  0
 15 30  1  0  0  0  0
M  END
> <s_m_source_file>
AV-unprocessed.smi

> <i_m_source_file_index>
1429

> <i_lp_mmshare_version>
43012

> <i_f3d_flags>
0

> <s_epik_input>
W0NIM11jMW5uYyhzMSlbTkhdQyg9TylbTkhdW0NIMl1bQ0BASF0yW0NIMl1bQ0gyXU9bQ0gyXTI=

> <s_epik_cmdline>
J2VwaWtfcHl0aG9uJywgJy1waCcsICc3LjAnLCAnLXRuJywgJzgnLCAnLW1hJywgJzIwMCcsICctbWV0YWxfYmluZGluZycsICctaW1hZScsICc8aW5maWxlLm1hZT4nLCAnLW9tYWUnLCAnPG91dGZpbGUubWFlPic=

> <r_lp_tautomer_probability>
1

> <r_epik_Ionization_Penalty>
0.000468089

> <r_epik_Ionization_Penalty_Charging>
0

> <r_epik_Ionization_Penalty_Neutral>
0.000468089

> <r_epik_State_Penalty>
-0

> <r_epik_Charging_Adjusted_Penalty>
0

> <i_epik_Tot_Q>
0

> <i_epik_Tot_abs_Q>
0

> <r_epik_Metal_State_Penalty>
0.211262

> <b_epik_Metal_Only>
0

> <s_lp_Force_Field>
OPLS_2005

> <r_lp_Energy>
17.5985

> <b_lp_Chiralities_Consistent>
1

> <s_lp_Variant>
AV-unprocessed.smi:1429-2

> <Gold.Version>
5.8.1

> <Gold.Id.Protein>
6NUR|6NUR_protein|mol2

> <Gold.PLP.Fitness>
31.6238

> <Gold.PLP.PLP>
-23.2023

> <Gold.PLP.part.hbond>
-3.0000

> <Gold.PLP.part.metal>
0.0000

> <Gold.PLP.part.buried>
-3.1665

> <Gold.PLP.part.nonpolar>
-17.8722

> <Gold.PLP.part.repulsive>
0.5707

> <Gold.PLP.ligand.clash>
0.0000

> <Gold.PLP.ligand.torsion>
0.1720

> <Gold.PLP.Chemscore.Hbond>
2.9199

> <Gold.PLP.Chemscore.CHOScore>
0.0000

> <Gold.PLP.Chemscore.Metal>
0.0000

> <Gold.Chemscore.Hbonds>
donor molecule, donor type, donor heavy atom, donor atom, acceptor molecule, acceptor atom, score
      L1  H     6    20       P1  7948  1.00
      L1  H     9    21       P1  7948  0.84
      P1  H  7989  7998       L1    14  1.00

> <Gold.PLP.Chemscore.Internal.Correction>
0.0057

> <Gold.Rescore>
     Score         DG    S(hbond)    S(metal)    S(lipo)     H(rot)  DE(clash)    DE(int)     intcor
     15.99     -17.72       2.74        0.00      55.12       1.31       0.25       1.48       ----

> <Gold.Chemscore.Fitness>
15.9913

> <Gold.Chemscore.DG>
-17.7172

> <Gold.Chemscore.ZeroCoef>
-5.4800

> <Gold.Chemscore.Hbond>
2.7390

> <Gold.Chemscore.Metal>
0.0000

> <Gold.Chemscore.Lipo>
55.1202

> <Gold.Chemscore.Internal_Hbond>
0.0000

> <Gold.Chemscore.DEClash>
0.2459

> <Gold.Chemscore.DEInternal>
1.4800

> <Gold.Chemscore.Rot>
1.3125

> <Gold.Chemscore.Internal.Correction>
   9.000000E+99

> <Gold.Chemscore.Hbonds>
donor molecule, donor type, donor heavy atom, donor atom, acceptor molecule, acceptor atom, score
      L1  H     6    20       P1  7948  1.00
      L1  H     9    21       P1  7948  0.79
      P1  H  7989  7998       L1    14  0.34

> <Gold.Chemscore.Hbond.Weighted>
-9.1481

> <Gold.Chemscore.Metal.Weighted>
-0.0000

> <Gold.Chemscore.Lipo.Weighted>
-6.4491

> <Gold.Chemscore.Internal_Hbond.Weighted>
0.0000

> <Gold.Chemscore.DEClash.Weighted>
0.2459

> <Gold.Chemscore.DEInternal.Weighted>
1.4800

> <Gold.Chemscore.Rot.Weighted>
3.3600

> <Gold.Chemscore.Internal.Correction.Weighted>
   9.000000E+99

> <Gold.Protein.RotatedTorsions>
[ 6907 6896 6895 6894 ] final   -5.36 input  -60.11 | X-H torsion
[ 7974 7965 7964 7962 ] final  148.84 input  175.53 | X-H torsion
[ 8008 7997 7996 7995 ] final   16.53 input   59.86 | X-H torsion
[ 10167 10162 10161 10158 ] final   87.94 input  -65.29 | X-H torsion
[ 10718 10713 10712 10709 ] final   32.90 input   66.30 | X-H torsion
[ 10763 10752 10751 10750 ] final -167.26 input  -60.55 | X-H torsion
[ 11005 11000 10999 10996 ] final    9.02 input  -57.11 | X-H torsion

> <Gold.Protein.ActiveResidues>
 VAL166  LYS551  ARG553  GLY616  TRP617  ASP618  TYR619  PRO620  LYS621  CYS622 
 ASP623  PHE694  ASN695  SER759  ASP760  ASP761  ALA762  ILE779  LEU786  VAL792 
 PHE793  MET794  SER795  GLU796  ALA797  LYS798  CYS799  TRP800  GLU811  SER814 

> <Gold.Protein.RotatedAtoms>
  151.4829  135.1053  159.9782 H   0  0  0  0  0  0  0  0  0  0  0  0  # atno 6907 bound_to 6896
  152.4772  133.8162  159.7040 H   0  0  0  0  0  0  0  0  0  0  0  0  # atno 6908 bound_to 6896
  150.8818  133.7300  159.2956 H   0  0  0  0  0  0  0  0  0  0  0  0  # atno 6909 bound_to 6896
  144.8483  139.6205  143.5985 H   0  0  0  0  0  0  0  0  0  0  0  0  # atno 7974 bound_to 7965
  154.8783  140.2969  155.5440 H   0  0  0  0  0  0  0  0  0  0  0  0  # atno 8008 bound_to 7997
  156.3022  140.2447  156.3716 H   0  0  0  0  0  0  0  0  0  0  0  0  # atno 8009 bound_to 7997
  154.8744  140.0400  157.1733 H   0  0  0  0  0  0  0  0  0  0  0  0  # atno 8010 bound_to 7997
  139.8723  144.6486  150.8936 H   0  0  0  0  0  0  0  0  0  0  0  0  # atno 10167 bound_to 10162
  157.2911  130.7303  149.6611 H   0  0  0  0  0  0  0  0  0  0  0  0  # atno 10718 bound_to 10713
  154.6750  135.2945  154.9691 H   0  0  0  0  0  0  0  0  0  0  0  0  # atno 10763 bound_to 10752
  154.0706  135.6618  153.4827 H   0  0  0  0  0  0  0  0  0  0  0  0  # atno 10764 bound_to 10752
  153.0510  135.5174  154.7764 H   0  0  0  0  0  0  0  0  0  0  0  0  # atno 10765 bound_to 10752
  140.5304  134.0472  155.7872 H   0  0  0  0  0  0  0  0  0  0  0  0  # atno 11005 bound_to 11000
  146.2763  139.6761  142.9260 LP  0  0  0  0  0  0  0  0  0  0  0  0  # atno 17320 bound_to 7965
  145.4552  141.0430  143.2782 LP  0  0  0  0  0  0  0  0  0  0  0  0  # atno 17321 bound_to 7965
  140.7759  143.3654  151.1749 LP  0  0  0  0  0  0  0  0  0  0  0  0  # atno 17342 bound_to 10162
  139.7273  143.9128  152.3007 LP  0  0  0  0  0  0  0  0  0  0  0  0  # atno 17343 bound_to 10162
  155.9667  130.4308  150.4894 LP  0  0  0  0  0  0  0  0  0  0  0  0  # atno 17370 bound_to 10713
  157.2857  131.0616  151.2168 LP  0  0  0  0  0  0  0  0  0  0  0  0  # atno 17371 bound_to 10713
  141.1284  133.9343  157.2587 LP  0  0  0  0  0  0  0  0  0  0  0  0  # atno 17394 bound_to 11000
  139.9557  135.0166  156.9121 LP  0  0  0  0  0  0  0  0  0  0  0  0  # atno 17395 bound_to 11000

$$$$
