AV-unprocessed.smi:510|AV-procd|sdf|2763|dock2
  -GOLD-   2262023223D 1   1.00000     0.00000
 Structure written by MMmdl.
 29 30  0  0  0  0  0  0  0  0  2 V2000
  150.9149  145.0800  159.5370 C   0  0  0  0  0  0  0  0  0  0  0  0
  151.8457  144.0354  159.3157 O   0  0  0  0  0  0  0  0  0  0  0  0
  151.8016  143.5435  157.9870 C   0  0  0  0  0  0  0  0  0  0  0  0
  150.5864  142.6199  157.8410 C   0  0  0  0  0  0  0  0  0  0  0  0
  150.8198  141.5763  156.8485 N   0  0  0  0  0  0  0  0  0  0  0  0
  150.2736  141.4776  155.6111 C   0  0  0  0  0  0  0  0  0  0  0  0
  149.3709  142.4276  155.1551 N   0  0  0  0  0  0  0  0  0  0  0  0
  150.6653  140.4194  154.9013 N   0  0  0  0  0  0  0  0  0  0  0  0
  151.5357  139.7800  155.7736 C   0  0  0  0  0  0  0  0  0  0  0  0
  151.6388  140.4497  156.9528 C   0  0  0  0  0  0  0  0  0  0  0  0
  152.4766  140.0012  158.0842 C   0  0  0  0  0  0  0  0  0  0  0  0
  152.5173  140.6389  159.1345 O   0  0  0  0  0  0  0  0  0  0  0  0
  153.1480  138.8406  157.7987 N   0  5  0  0  0  0  0  0  0  0  0  0
  153.0796  138.1319  156.6174 C   0  0  0  0  0  0  0  0  0  0  0  0
  153.7216  137.0945  156.4509 O   0  0  0  0  0  0  0  0  0  0  0  0
  152.2805  138.5841  155.5975 N   0  0  0  0  0  0  0  0  0  0  0  0
  152.1524  137.8908  154.3122 C   0  0  0  0  0  0  0  0  0  0  0  0
  150.9875  145.4232  160.5689 H   0  0  0  0  0  0  0  0  0  0  0  0
  149.8929  144.7394  159.3660 H   0  0  0  0  0  0  0  0  0  0  0  0
  151.1144  145.9307  158.8842 H   0  0  0  0  0  0  0  0  0  0  0  0
  151.7335  144.3732  157.2815 H   0  0  0  0  0  0  0  0  0  0  0  0
  152.7180  142.9947  157.7634 H   0  0  0  0  0  0  0  0  0  0  0  0
  150.3507  142.1593  158.8006 H   0  0  0  0  0  0  0  0  0  0  0  0
  149.6989  143.1884  157.5649 H   0  0  0  0  0  0  0  0  0  0  0  0
  149.0994  143.2121  155.7298 H   0  0  0  0  0  0  0  0  0  0  0  0
  148.9583  142.3645  154.2359 H   0  0  0  0  0  0  0  0  0  0  0  0
  152.7607  136.9906  154.2213 H   0  0  0  0  0  0  0  0  0  0  0  0
  152.4416  138.5601  153.5014 H   0  0  0  0  0  0  0  0  0  0  0  0
  151.1140  137.5994  154.1517 H   0  0  0  0  0  0  0  0  0  0  0  0
  1  2  1  0  0  0  0
  1 18  1  0  0  0  0
  1 19  1  0  0  0  0
  1 20  1  0  0  0  0
  2  3  1  0  0  0  0
  3  4  1  0  0  0  0
  3 21  1  0  0  0  0
  3 22  1  0  0  0  0
  4  5  1  0  0  0  0
  4 23  1  0  0  0  0
  4 24  1  0  0  0  0
  5 10  1  0  0  0  0
  5  6  1  0  0  0  0
  6  7  1  0  0  0  0
  6  8  2  0  0  0  0
  7 25  1  0  0  0  0
  7 26  1  0  0  0  0
  8  9  1  0  0  0  0
  9 16  1  0  0  0  0
  9 10  2  0  0  0  0
 10 11  1  0  0  0  0
 11 12  2  0  0  0  0
 11 13  1  0  0  0  0
 13 14  1  0  0  0  0
 14 15  2  0  0  0  0
 14 16  1  0  0  0  0
 16 17  1  0  0  0  0
 17 27  1  0  0  0  0
 17 28  1  0  0  0  0
 17 29  1  0  0  0  0
M  CHG  1  13  -1
M  END
> <s_m_source_file>
AV-unprocessed.smi

> <i_m_source_file_index>
510

> <i_lp_mmshare_version>
43012

> <i_f3d_flags>
0

> <s_epik_input>
W0NIM11PW0NIMl1bQ0gyXW4oYyhuMSlbTkgyXSljKGMxMiljKD1PKVtuSF1jKD1PKW4yW0NIM10=

> <s_epik_cmdline>
J2VwaWtfcHl0aG9uJywgJy1waCcsICc3LjAnLCAnLXRuJywgJzgnLCAnLW1hJywgJzIwMCcsICctbWV0YWxfYmluZGluZycsICctaW1hZScsICc8aW5maWxlLm1hZT4nLCAnLW9tYWUnLCAnPG91dGZpbGUubWFlPic=

> <r_lp_tautomer_probability>
1

> <r_epik_Ionization_Penalty>
5.7178

> <r_epik_Ionization_Penalty_Charging>
1.59161e-08

> <r_epik_Ionization_Penalty_Neutral>
5.7178

> <r_epik_State_Penalty>
5.71748

> <r_epik_Charging_Adjusted_Penalty>
5.71748

> <i_epik_Tot_Q>
-1

> <i_epik_Tot_abs_Q>
1

> <r_epik_Metal_State_Penalty>
1.69653

> <b_epik_Metal_Only>
1

> <s_lp_Force_Field>
OPLS_2005

> <r_lp_Energy>
28.6626

> <b_lp_Chiralities_Consistent>
1

> <s_lp_Variant>
AV-unprocessed.smi:510-2

> <Gold.Version>
5.8.1

> <Gold.Id.Protein>
6NUR|6NUR_protein|mol2

> <Gold.PLP.Fitness>
40.1931

> <Gold.PLP.PLP>
-31.8620

> <Gold.PLP.part.hbond>
-3.5091

> <Gold.PLP.part.metal>
0.0000

> <Gold.PLP.part.buried>
-3.7298

> <Gold.PLP.part.nonpolar>
-24.8945

> <Gold.PLP.part.repulsive>
0.3066

> <Gold.PLP.ligand.clash>
0.0000

> <Gold.PLP.ligand.torsion>
0.4035

> <Gold.PLP.Chemscore.Hbond>
3.0451

> <Gold.PLP.Chemscore.CHOScore>
0.0000

> <Gold.PLP.Chemscore.Metal>
0.0000

> <Gold.Chemscore.Hbonds>
donor molecule, donor type, donor heavy atom, donor atom, acceptor molecule, acceptor atom, score
      L1  H     7    25       P1  8028  0.80
      P1  H  7989  7998       L1     8  1.00
      P1  H  7997  8010       L1    13  0.42
      P1  H 10752 10765       L1    15  0.62

> <Gold.PLP.Chemscore.Internal.Correction>
0.0029

> <Gold.Rescore>
     Score         DG    S(hbond)    S(metal)    S(lipo)     H(rot)  DE(clash)    DE(int)     intcor
     13.07     -13.72       2.26        0.00      44.44       1.77       0.34       0.30       ----

> <Gold.Chemscore.Fitness>
13.0738

> <Gold.Chemscore.DG>
-13.7150

> <Gold.Chemscore.ZeroCoef>
-5.4800

> <Gold.Chemscore.Hbond>
2.2628

> <Gold.Chemscore.Metal>
0.0000

> <Gold.Chemscore.Lipo>
44.4357

> <Gold.Chemscore.Internal_Hbond>
0.0000

> <Gold.Chemscore.DEClash>
0.3440

> <Gold.Chemscore.DEInternal>
0.2972

> <Gold.Chemscore.Rot>
1.7663

> <Gold.Chemscore.Internal.Correction>
   9.000000E+99

> <Gold.Chemscore.Hbonds>
donor molecule, donor type, donor heavy atom, donor atom, acceptor molecule, acceptor atom, score
      L1  H     7    25       P1  8028  0.75
      P1  H  7989  7998       L1     8  0.44
      P1  H 10752 10765       L1    15  0.58

> <Gold.Chemscore.Hbond.Weighted>
-7.5577

> <Gold.Chemscore.Metal.Weighted>
-0.0000

> <Gold.Chemscore.Lipo.Weighted>
-5.1990

> <Gold.Chemscore.Internal_Hbond.Weighted>
0.0000

> <Gold.Chemscore.DEClash.Weighted>
0.3440

> <Gold.Chemscore.DEInternal.Weighted>
0.2972

> <Gold.Chemscore.Rot.Weighted>
4.5217

> <Gold.Chemscore.Internal.Correction.Weighted>
   9.000000E+99

> <Gold.Protein.RotatedTorsions>
[ 6907 6896 6895 6894 ] final  115.59 input  -60.11 | X-H torsion
[ 7974 7965 7964 7962 ] final  -36.85 input  175.53 | X-H torsion
[ 8008 7997 7996 7995 ] final   12.33 input   59.86 | X-H torsion
[ 10167 10162 10161 10158 ] final   12.05 input  -65.29 | X-H torsion
[ 10718 10713 10712 10709 ] final    0.86 input   66.30 | X-H torsion
[ 10763 10752 10751 10750 ] final -107.35 input  -60.55 | X-H torsion
[ 11005 11000 10999 10996 ] final -122.85 input  -57.11 | X-H torsion

> <Gold.Protein.ActiveResidues>
 VAL166  LYS551  ARG553  GLY616  TRP617  ASP618  TYR619  PRO620  LYS621  CYS622 
 ASP623  PHE694  ASN695  SER759  ASP760  ASP761  ALA762  ILE779  LEU786  VAL792 
 PHE793  MET794  SER795  GLU796  ALA797  LYS798  CYS799  TRP800  GLU811  SER814 

> <Gold.Protein.RotatedAtoms>
  152.4732  133.8077  159.6986 H   0  0  0  0  0  0  0  0  0  0  0  0  # atno 6907 bound_to 6896
  150.8733  133.7465  159.2961 H   0  0  0  0  0  0  0  0  0  0  0  0  # atno 6908 bound_to 6896
  151.4993  135.1064  159.9876 H   0  0  0  0  0  0  0  0  0  0  0  0  # atno 6909 bound_to 6896
  146.0626  140.6326  142.8990 H   0  0  0  0  0  0  0  0  0  0  0  0  # atno 7974 bound_to 7965
  154.8191  140.2881  155.5799 H   0  0  0  0  0  0  0  0  0  0  0  0  # atno 8008 bound_to 7997
  156.2996  140.2553  156.3025 H   0  0  0  0  0  0  0  0  0  0  0  0  # atno 8009 bound_to 7997
  154.9359  140.0382  157.2061 H   0  0  0  0  0  0  0  0  0  0  0  0  # atno 8010 bound_to 7997
  140.6093  143.8442  150.7047 H   0  0  0  0  0  0  0  0  0  0  0  0  # atno 10167 bound_to 10162
  156.8396  130.5516  149.5679 H   0  0  0  0  0  0  0  0  0  0  0  0  # atno 10718 bound_to 10713
  154.8070  135.4678  154.0417 H   0  0  0  0  0  0  0  0  0  0  0  0  # atno 10763 bound_to 10752
  153.1879  135.6850  153.8398 H   0  0  0  0  0  0  0  0  0  0  0  0  # atno 10764 bound_to 10752
  153.7926  135.3241  155.3358 H   0  0  0  0  0  0  0  0  0  0  0  0  # atno 10765 bound_to 10752
  140.9964  134.0466  157.3592 H   0  0  0  0  0  0  0  0  0  0  0  0  # atno 11005 bound_to 11000
  144.7184  140.4289  143.7027 LP  0  0  0  0  0  0  0  0  0  0  0  0  # atno 17320 bound_to 7965
  145.6533  139.1568  143.2849 LP  0  0  0  0  0  0  0  0  0  0  0  0  # atno 17321 bound_to 7965
  140.2007  143.3962  152.1794 LP  0  0  0  0  0  0  0  0  0  0  0  0  # atno 17342 bound_to 10162
  139.5348  144.7198  151.4929 LP  0  0  0  0  0  0  0  0  0  0  0  0  # atno 17343 bound_to 10162
  156.0888  130.5879  150.9696 LP  0  0  0  0  0  0  0  0  0  0  0  0  # atno 17370 bound_to 10713
  157.6363  131.0915  150.8342 LP  0  0  0  0  0  0  0  0  0  0  0  0  # atno 17371 bound_to 10713
  139.9017  135.0167  156.7298 LP  0  0  0  0  0  0  0  0  0  0  0  0  # atno 17394 bound_to 11000
  140.6959  133.9349  155.7994 LP  0  0  0  0  0  0  0  0  0  0  0  0  # atno 17395 bound_to 11000

$$$$
