AV-unprocessed.smi:1244|AV-procd|sdf|5229|dock8
  -GOLD-   22720 4333D 1   1.00000     0.00000
 Structure written by MMmdl.
 55 57  0  0  0  0  0  0  0  0  2 V2000
  147.1606  141.1435  153.1842 C   0  0  0  0  0  0  0  0  0  0  0  0
  148.5642  141.1178  153.7978 C   0  0  2  0  0  0  0  0  0  0  0  0
  149.1565  139.6963  153.8402 C   0  0  0  0  0  0  0  0  0  0  0  0
  150.4600  139.6705  154.4924 N   0  0  0  0  0  0  0  0  0  0  0  0
  151.0200  138.3185  154.5036 C   0  0  0  0  0  0  0  0  0  0  0  0
  150.1195  137.2395  155.1386 C   0  0  0  0  0  0  0  0  0  0  0  0
  149.7685  136.1951  154.1817 N   0  0  0  0  0  0  0  0  0  0  0  0
  149.8185  134.8788  154.4260 C   0  0  0  0  0  0  0  0  0  0  0  0
  150.2477  134.3933  155.4727 O   0  0  0  0  0  0  0  0  0  0  0  0
  149.3125  134.1758  153.3999 N   0  0  0  0  0  0  0  0  0  0  0  0
  149.1023  132.7705  153.3323 C   0  0  0  0  0  0  0  0  0  0  0  0
  149.8050  131.8698  154.1721 C   0  0  0  0  0  0  0  0  0  0  0  0
  149.5688  130.4856  154.0650 C   0  0  0  0  0  0  0  0  0  0  0  0
  148.6406  130.0235  153.1149 C   0  0  0  0  0  0  0  0  0  0  0  0
  147.9997  130.9063  152.3208 N   0  3  0  0  0  0  0  0  0  0  0  0
  148.1858  132.2481  152.3799 C   0  0  0  0  0  0  0  0  0  0  0  0
  147.4766  133.0767  151.4850 N   0  0  0  0  0  0  0  0  0  0  0  0
  147.8273  132.8790  150.0810 C   0  0  0  0  0  0  0  0  0  0  0  0
  146.5335  133.0534  149.2824 C   0  0  0  0  0  0  0  0  0  0  0  0
  145.4530  132.6691  150.2858 C   0  0  0  0  0  0  0  0  0  0  0  0
  146.0239  133.1936  151.6019 C   0  0  0  0  0  0  0  0  0  0  0  0
  150.3325  140.2380  155.8315 C   0  0  0  0  0  0  0  0  0  0  0  0
  149.7395  141.6598  155.7971 C   0  0  2  0  0  0  0  0  0  0  0  0
  149.5217  142.2311  157.2020 C   0  0  0  0  0  0  0  0  0  0  0  0
  148.4827  141.6269  155.1264 O   0  0  0  0  0  0  0  0  0  0  0  0
  147.1739  140.7743  152.1584 H   0  0  0  0  0  0  0  0  0  0  0  0
  146.7618  142.1580  153.1670 H   0  0  0  0  0  0  0  0  0  0  0  0
  146.4692  140.5233  153.7551 H   0  0  0  0  0  0  0  0  0  0  0  0
  149.2156  141.7671  153.2100 H   0  0  0  0  0  0  0  0  0  0  0  0
  148.4688  139.0297  154.3637 H   0  0  0  0  0  0  0  0  0  0  0  0
  149.2466  139.3141  152.8226 H   0  0  0  0  0  0  0  0  0  0  0  0
  151.2816  138.0186  153.4878 H   0  0  0  0  0  0  0  0  0  0  0  0
  151.9599  138.3325  155.0568 H   0  0  0  0  0  0  0  0  0  0  0  0
  150.6190  136.7738  155.9880 H   0  0  0  0  0  0  0  0  0  0  0  0
  149.2137  137.6977  155.5385 H   0  0  0  0  0  0  0  0  0  0  0  0
  149.4017  136.5027  153.2931 H   0  0  0  0  0  0  0  0  0  0  0  0
  148.9092  134.7157  152.6486 H   0  0  0  0  0  0  0  0  0  0  0  0
  150.5303  132.2210  154.8907 H   0  0  0  0  0  0  0  0  0  0  0  0
  150.0959  129.7892  154.7006 H   0  0  0  0  0  0  0  0  0  0  0  0
  148.3985  128.9818  152.9612 H   0  0  0  0  0  0  0  0  0  0  0  0
  148.5873  133.5917  149.7604 H   0  0  0  0  0  0  0  0  0  0  0  0
  148.2256  131.8739  149.9311 H   0  0  0  0  0  0  0  0  0  0  0  0
  146.4133  134.0992  148.9955 H   0  0  0  0  0  0  0  0  0  0  0  0
  146.5091  132.4493  148.3752 H   0  0  0  0  0  0  0  0  0  0  0  0
  144.4769  133.0926  150.0473 H   0  0  0  0  0  0  0  0  0  0  0  0
  145.3531  131.5835  150.3279 H   0  0  0  0  0  0  0  0  0  0  0  0
  145.5932  132.6819  152.4627 H   0  0  0  0  0  0  0  0  0  0  0  0
  145.7859  134.2520  151.7137 H   0  0  0  0  0  0  0  0  0  0  0  0
  149.7014  139.5939  156.4461 H   0  0  0  0  0  0  0  0  0  0  0  0
  151.3068  140.2773  156.3177 H   0  0  0  0  0  0  0  0  0  0  0  0
  150.4134  142.3218  155.2503 H   0  0  0  0  0  0  0  0  0  0  0  0
  150.4609  142.2887  157.7526 H   0  0  0  0  0  0  0  0  0  0  0  0
  148.8328  141.6116  157.7771 H   0  0  0  0  0  0  0  0  0  0  0  0
  149.1034  143.2367  157.1526 H   0  0  0  0  0  0  0  0  0  0  0  0
  147.3396  130.5415  151.6337 H   0  0  0  0  0  0  0  0  0  0  0  0
  1  2  1  0  0  0  0
  1 26  1  0  0  0  0
  1 27  1  0  0  0  0
  1 28  1  0  0  0  0
  2 25  1  0  0  0  0
  2  3  1  0  0  0  0
  2 29  1  0  0  0  0
  3  4  1  0  0  0  0
  3 30  1  0  0  0  0
  3 31  1  0  0  0  0
  4  5  1  0  0  0  0
  4 22  1  0  0  0  0
  5  6  1  0  0  0  0
  5 32  1  0  0  0  0
  5 33  1  0  0  0  0
  6  7  1  0  0  0  0
  6 34  1  0  0  0  0
  6 35  1  0  0  0  0
  7  8  1  0  0  0  0
  7 36  1  0  0  0  0
  8  9  2  0  0  0  0
  8 10  1  0  0  0  0
 10 11  1  0  0  0  0
 10 37  1  0  0  0  0
 11 16  1  0  0  0  0
 11 12  2  0  0  0  0
 12 13  1  0  0  0  0
 12 38  1  0  0  0  0
 13 14  2  0  0  0  0
 13 39  1  0  0  0  0
 14 15  1  0  0  0  0
 14 40  1  0  0  0  0
 15 16  2  0  0  0  0
 15 55  1  0  0  0  0
 16 17  1  0  0  0  0
 17 21  1  0  0  0  0
 17 18  1  0  0  0  0
 18 19  1  0  0  0  0
 18 41  1  0  0  0  0
 18 42  1  0  0  0  0
 19 20  1  0  0  0  0
 19 43  1  0  0  0  0
 19 44  1  0  0  0  0
 20 21  1  0  0  0  0
 20 45  1  0  0  0  0
 20 46  1  0  0  0  0
 21 47  1  0  0  0  0
 21 48  1  0  0  0  0
 22 23  1  0  0  0  0
 22 49  1  0  0  0  0
 22 50  1  0  0  0  0
 23 24  1  0  0  0  0
 23 25  1  0  0  0  0
 23 51  1  0  0  0  0
 24 52  1  0  0  0  0
 24 53  1  0  0  0  0
 24 54  1  0  0  0  0
M  CHG  1  15   1
M  END
> <s_m_source_file>
AV-unprocessed.smi

> <i_m_source_file_index>
1244

> <i_lp_mmshare_version>
43012

> <i_f3d_flags>
0

> <s_epik_input>
W0NIM11bQ0BASF0xW0NIMl1OKFtDSDJdW0NASF0oTzEpW0NIM10pW0NIMl1bQ0gyXVtOSF1DKD1PKVtOSF1jMltjSF1bY0hdW2NIXW5jMk4zW0NIMl1bQ0gyXVtDSDJdW0NIMl0z

> <s_epik_cmdline>
J2VwaWtfcHl0aG9uJywgJy1waCcsICc3LjAnLCAnLXRuJywgJzgnLCAnLW1hJywgJzIwMCcsICctbWV0YWxfYmluZGluZycsICctaW1hZScsICc8aW5maWxlLm1hZT4nLCAnLW9tYWUnLCAnPG91dGZpbGUubWFlPic=

> <r_epik_Ionization_Penalty>
1.38385

> <r_epik_Ionization_Penalty_Charging>
1.11784

> <r_epik_Ionization_Penalty_Neutral>
0.26601

> <r_epik_State_Penalty>
1.46794

> <r_epik_Charging_Adjusted_Penalty>
2.58578

> <i_epik_Tot_Q>
1

> <i_epik_Tot_abs_Q>
1

> <r_epik_Metal_State_Penalty>
1.54908

> <b_epik_Metal_Only>
0

> <s_lp_Force_Field>
OPLS_2005

> <r_lp_Energy>
57.7362

> <b_lp_Chiralities_Consistent>
1

> <s_lp_Variant>
AV-unprocessed.smi:1244-9

> <Gold.Version>
5.8.1

> <Gold.Id.Protein>
6NUR|6NUR_protein|mol2

> <Gold.PLP.Fitness>
53.9027

> <Gold.PLP.PLP>
-47.0339

> <Gold.PLP.part.hbond>
-4.1196

> <Gold.PLP.part.metal>
0.0000

> <Gold.PLP.part.buried>
-4.5443

> <Gold.PLP.part.nonpolar>
-39.1047

> <Gold.PLP.part.repulsive>
0.9412

> <Gold.PLP.ligand.clash>
0.0000

> <Gold.PLP.ligand.torsion>
0.6459

> <Gold.PLP.Chemscore.Hbond>
2.6640

> <Gold.PLP.Chemscore.CHOScore>
0.0000

> <Gold.PLP.Chemscore.Metal>
0.0000

> <Gold.Chemscore.Hbonds>
donor molecule, donor type, donor heavy atom, donor atom, acceptor molecule, acceptor atom, score
      L1  H     7    36       P1  7948  0.91
      L1  H    10    37       P1  7948  0.40
      P1  H  7989  7998       L1     4  1.00

> <Gold.PLP.Chemscore.Internal.Correction>
0.1686

> <Gold.Rescore>
     Score         DG    S(hbond)    S(metal)    S(lipo)     H(rot)  DE(clash)    DE(int)     intcor
     13.16     -15.51       0.83        0.00      96.64       1.58       0.43       1.92       ----

> <Gold.Chemscore.Fitness>
13.1598

> <Gold.Chemscore.DG>
-15.5105

> <Gold.Chemscore.ZeroCoef>
-5.4800

> <Gold.Chemscore.Hbond>
0.8288

> <Gold.Chemscore.Metal>
0.0000

> <Gold.Chemscore.Lipo>
96.6350

> <Gold.Chemscore.Internal_Hbond>
0.0000

> <Gold.Chemscore.DEClash>
0.4288

> <Gold.Chemscore.DEInternal>
1.9219

> <Gold.Chemscore.Rot>
1.5797

> <Gold.Chemscore.Internal.Correction>
   9.000000E+99

> <Gold.Chemscore.Hbonds>
donor molecule, donor type, donor heavy atom, donor atom, acceptor molecule, acceptor atom, score
      L1  H     7    36       P1  7948  0.65
      L1  H    10    37       P1  7948  0.01
      P1  H  7989  7998       L1     4  0.27

> <Gold.Chemscore.Hbond.Weighted>
-2.7681

> <Gold.Chemscore.Metal.Weighted>
-0.0000

> <Gold.Chemscore.Lipo.Weighted>
-11.3063

> <Gold.Chemscore.Internal_Hbond.Weighted>
0.0000

> <Gold.Chemscore.DEClash.Weighted>
0.4288

> <Gold.Chemscore.DEInternal.Weighted>
1.9219

> <Gold.Chemscore.Rot.Weighted>
4.0439

> <Gold.Chemscore.Internal.Correction.Weighted>
   9.000000E+99

> <Gold.Protein.RotatedTorsions>
[ 6907 6896 6895 6894 ] final  -52.55 input  -60.11 | X-H torsion
[ 7974 7965 7964 7962 ] final -175.30 input  175.53 | X-H torsion
[ 8008 7997 7996 7995 ] final  101.50 input   59.86 | X-H torsion
[ 10167 10162 10161 10158 ] final  111.39 input  -65.29 | X-H torsion
[ 10718 10713 10712 10709 ] final  -34.50 input   66.30 | X-H torsion
[ 10763 10752 10751 10750 ] final  136.39 input  -60.55 | X-H torsion
[ 11005 11000 10999 10996 ] final   67.41 input  -57.11 | X-H torsion

> <Gold.Protein.ActiveResidues>
 VAL166  LYS551  ARG553  GLY616  TRP617  ASP618  TYR619  PRO620  LYS621  CYS622 
 ASP623  PHE694  ASN695  SER759  ASP760  ASP761  ALA762  ILE779  LEU786  VAL792 
 PHE793  MET794  SER795  GLU796  ALA797  LYS798  CYS799  TRP800  GLU811  SER814 

> <Gold.Protein.RotatedAtoms>
  150.8508  134.7832  159.7006 H   0  0  0  0  0  0  0  0  0  0  0  0  # atno 6907 bound_to 6896
  152.4573  134.5260  159.9806 H   0  0  0  0  0  0  0  0  0  0  0  0  # atno 6908 bound_to 6896
  151.5381  133.3399  159.2966 H   0  0  0  0  0  0  0  0  0  0  0  0  # atno 6909 bound_to 6896
  144.7128  140.1342  143.6396 H   0  0  0  0  0  0  0  0  0  0  0  0  # atno 7974 bound_to 7965
  156.1305  140.3196  155.8342 H   0  0  0  0  0  0  0  0  0  0  0  0  # atno 8008 bound_to 7997
  155.4340  140.0521  157.3033 H   0  0  0  0  0  0  0  0  0  0  0  0  # atno 8009 bound_to 7997
  154.4896  140.2087  155.9591 H   0  0  0  0  0  0  0  0  0  0  0  0  # atno 8010 bound_to 7997
  139.6615  144.7128  151.1856 H   0  0  0  0  0  0  0  0  0  0  0  0  # atno 10167 bound_to 10162
  156.3498  130.4306  149.7714 H   0  0  0  0  0  0  0  0  0  0  0  0  # atno 10718 bound_to 10713
  153.8558  135.3073  155.3435 H   0  0  0  0  0  0  0  0  0  0  0  0  # atno 10763 bound_to 10752
  154.7871  135.4803  153.9973 H   0  0  0  0  0  0  0  0  0  0  0  0  # atno 10764 bound_to 10752
  153.1491  135.6839  153.9003 H   0  0  0  0  0  0  0  0  0  0  0  0  # atno 10765 bound_to 10752
  139.9772  134.6803  156.0331 H   0  0  0  0  0  0  0  0  0  0  0  0  # atno 11005 bound_to 11000
  145.9260  139.2575  143.1353 LP  0  0  0  0  0  0  0  0  0  0  0  0  # atno 17320 bound_to 7965
  145.9572  140.8864  143.0229 LP  0  0  0  0  0  0  0  0  0  0  0  0  # atno 17321 bound_to 7965
  140.7582  143.5986  150.8722 LP  0  0  0  0  0  0  0  0  0  0  0  0  # atno 17342 bound_to 10162
  139.9644  143.6127  152.2992 LP  0  0  0  0  0  0  0  0  0  0  0  0  # atno 17343 bound_to 10162
  156.4919  130.8089  151.3098 LP  0  0  0  0  0  0  0  0  0  0  0  0  # atno 17370 bound_to 10713
  157.7459  130.9972  150.2809 LP  0  0  0  0  0  0  0  0  0  0  0  0  # atno 17371 bound_to 10713
  141.1448  133.6558  156.3835 LP  0  0  0  0  0  0  0  0  0  0  0  0  # atno 17394 bound_to 11000
  140.5170  134.6340  157.5305 LP  0  0  0  0  0  0  0  0  0  0  0  0  # atno 17395 bound_to 11000

$$$$
