AV-unprocessed.smi:239|AV-procd|sdf|1821|dock10
  -GOLD-   2262020413D 1   1.00000     0.00000
 Structure written by MMmdl.
 54 58  0  0  0  0  0  0  0  0  1 V2000
  153.4311  141.2336  161.3039 C   0  0  0  0  0  0  0  0  0  0  0  0
  153.2590  141.7940  159.8882 C   0  0  1  0  0  0  0  0  0  0  0  0
  152.4830  140.8279  158.9750 C   0  0  0  0  0  0  0  0  0  0  0  0
  152.2443  141.4457  157.6732 N   0  0  0  0  0  0  0  0  0  0  0  0
  151.7939  140.6559  156.6646 C   0  0  0  0  0  0  0  0  0  0  0  0
  152.4676  139.5193  156.3406 N   0  0  0  0  0  0  0  0  0  0  0  0
  152.0294  138.7302  155.3555 C   0  0  0  0  0  0  0  0  0  0  0  0
  150.9601  138.8874  154.5738 N   0  0  0  0  0  0  0  0  0  0  0  0
  150.2852  140.0308  154.8839 C   0  0  0  0  0  0  0  0  0  0  0  0
  150.6274  140.9611  155.9063 C   0  0  0  0  0  0  0  0  0  0  0  0
  149.7087  142.0047  155.9194 N   0  0  0  0  0  0  0  0  0  0  0  0
  148.8665  141.7019  154.9698 C   0  0  0  0  0  0  0  0  0  0  0  0
  149.1435  140.5384  154.2882 N   0  0  0  0  0  0  0  0  0  0  0  0
  148.3815  139.9703  153.1859 C   0  0  0  0  0  0  0  0  0  0  0  0
  147.0855  139.2417  153.6223 C   0  0  0  0  0  0  0  0  0  0  0  0
  146.1460  140.2264  154.0163 O   0  0  0  0  0  0  0  0  0  0  0  0
  146.4916  138.4495  152.4399 C   0  0  0  0  0  0  0  0  0  0  0  0
  145.3007  137.5730  152.8670 C   0  0  0  0  0  0  0  0  0  0  0  0
  145.6908  136.7061  153.9250 O   0  0  0  0  0  0  0  0  0  0  0  0
  146.0774  137.4108  155.0983 C   0  0  0  0  0  0  0  0  0  0  0  0
  147.3131  138.2823  154.8110 C   0  0  0  0  0  0  0  0  0  0  0  0
  151.6010  142.7519  157.7705 C   0  0  0  0  0  0  0  0  0  0  0  0
  152.3986  143.6705  158.7142 C   0  0  1  0  0  0  0  0  0  0  0  0
  151.7211  145.0205  158.8807 C   0  0  0  0  0  0  0  0  0  0  0  0
  151.9048  145.8426  160.1386 C   0  0  0  0  0  0  0  0  0  0  0  0
  150.5695  145.2084  159.8450 C   0  0  0  0  0  0  0  0  0  0  0  0
  152.5444  143.0231  159.9779 O   0  0  0  0  0  0  0  0  0  0  0  0
  153.9825  140.2933  161.2893 H   0  0  0  0  0  0  0  0  0  0  0  0
  152.4653  141.0480  161.7749 H   0  0  0  0  0  0  0  0  0  0  0  0
  153.9812  141.9320  161.9353 H   0  0  0  0  0  0  0  0  0  0  0  0
  154.2475  141.9845  159.4666 H   0  0  0  0  0  0  0  0  0  0  0  0
  153.0506  139.9043  158.8523 H   0  0  0  0  0  0  0  0  0  0  0  0
  151.5274  140.5664  159.4322 H   0  0  0  0  0  0  0  0  0  0  0  0
  152.6202  137.8460  155.1670 H   0  0  0  0  0  0  0  0  0  0  0  0
  148.0195  142.3287  154.7315 H   0  0  0  0  0  0  0  0  0  0  0  0
  148.1465  140.7713  152.4836 H   0  0  0  0  0  0  0  0  0  0  0  0
  149.0341  139.2807  152.6488 H   0  0  0  0  0  0  0  0  0  0  0  0
  145.3421  140.0825  153.5410 H   0  0  0  0  0  0  0  0  0  0  0  0
  146.1902  139.1251  151.6383 H   0  0  0  0  0  0  0  0  0  0  0  0
  147.2607  137.8011  152.0179 H   0  0  0  0  0  0  0  0  0  0  0  0
  144.4506  138.1833  153.1751 H   0  0  0  0  0  0  0  0  0  0  0  0
  144.9640  136.9679  152.0252 H   0  0  0  0  0  0  0  0  0  0  0  0
  145.2461  138.0157  155.4638 H   0  0  0  0  0  0  0  0  0  0  0  0
  146.3068  136.6876  155.8810 H   0  0  0  0  0  0  0  0  0  0  0  0
  148.1549  137.6261  154.5863 H   0  0  0  0  0  0  0  0  0  0  0  0
  147.5852  138.8340  155.7113 H   0  0  0  0  0  0  0  0  0  0  0  0
  151.5116  143.2262  156.7940 H   0  0  0  0  0  0  0  0  0  0  0  0
  150.5867  142.6169  158.1490 H   0  0  0  0  0  0  0  0  0  0  0  0
  153.3893  143.8538  158.2944 H   0  0  0  0  0  0  0  0  0  0  0  0
  151.6574  145.5886  157.9543 H   0  0  0  0  0  0  0  0  0  0  0  0
  152.4943  145.4179  160.9488 H   0  0  0  0  0  0  0  0  0  0  0  0
  151.9849  146.9216  160.0235 H   0  0  0  0  0  0  0  0  0  0  0  0
  149.7587  145.8637  159.5334 H   0  0  0  0  0  0  0  0  0  0  0  0
  150.2706  144.3598  160.4570 H   0  0  0  0  0  0  0  0  0  0  0  0
  1  2  1  0  0  0  0
  1 28  1  0  0  0  0
  1 29  1  0  0  0  0
  1 30  1  0  0  0  0
  2 27  1  0  0  0  0
  2  3  1  0  0  0  0
  2 31  1  0  0  0  0
  3  4  1  0  0  0  0
  3 32  1  0  0  0  0
  3 33  1  0  0  0  0
  4  5  1  0  0  0  0
  4 22  1  0  0  0  0
  5 10  1  0  0  0  0
  5  6  2  0  0  0  0
  6  7  1  0  0  0  0
  7  8  2  0  0  0  0
  7 34  1  0  0  0  0
  8  9  1  0  0  0  0
  9 13  1  0  0  0  0
  9 10  2  0  0  0  0
 10 11  1  0  0  0  0
 11 12  2  0  0  0  0
 12 13  1  0  0  0  0
 12 35  1  0  0  0  0
 13 14  1  0  0  0  0
 14 15  1  0  0  0  0
 14 36  1  0  0  0  0
 14 37  1  0  0  0  0
 15 21  1  0  0  0  0
 15 16  1  0  0  0  0
 15 17  1  0  0  0  0
 16 38  1  0  0  0  0
 17 18  1  0  0  0  0
 17 39  1  0  0  0  0
 17 40  1  0  0  0  0
 18 19  1  0  0  0  0
 18 41  1  0  0  0  0
 18 42  1  0  0  0  0
 19 20  1  0  0  0  0
 20 21  1  0  0  0  0
 20 43  1  0  0  0  0
 20 44  1  0  0  0  0
 21 45  1  0  0  0  0
 21 46  1  0  0  0  0
 22 23  1  0  0  0  0
 22 47  1  0  0  0  0
 22 48  1  0  0  0  0
 23 24  1  0  0  0  0
 23 27  1  0  0  0  0
 23 49  1  0  0  0  0
 24 26  1  0  0  0  0
 24 25  1  0  0  0  0
 24 50  1  0  0  0  0
 25 26  1  0  0  0  0
 25 51  1  0  0  0  0
 25 52  1  0  0  0  0
 26 53  1  0  0  0  0
 26 54  1  0  0  0  0
M  END
> <s_m_source_file>
AV-unprocessed.smi

> <i_m_source_file_index>
239

> <i_lp_mmshare_version>
43012

> <i_f3d_flags>
0

> <s_epik_input>
W0NIMl0xW0NIMl1bQ0hdMVtDQEBIXShPMilbQ0gyXU4oW0NIMl1bQ0BIXTJbQ0gzXSljKG5bY0hdbjMpYyhjMzQpbltjSF1uNFtDSDJdQzUoW09IXSlbQ0gyXVtDSDJdT1tDSDJdW0NIMl01

> <s_epik_cmdline>
J2VwaWtfcHl0aG9uJywgJy1waCcsICc3LjAnLCAnLXRuJywgJzgnLCAnLW1hJywgJzIwMCcsICctbWV0YWxfYmluZGluZycsICctaW1hZScsICc8aW5maWxlLm1hZT4nLCAnLW9tYWUnLCAnPG91dGZpbGUubWFlPic=

> <r_lp_tautomer_probability>
1

> <r_epik_Ionization_Penalty>
9.13091e-05

> <r_epik_Ionization_Penalty_Charging>
0

> <r_epik_Ionization_Penalty_Neutral>
9.13091e-05

> <r_epik_State_Penalty>
-0

> <r_epik_Charging_Adjusted_Penalty>
0

> <i_epik_Tot_Q>
0

> <i_epik_Tot_abs_Q>
0

> <r_epik_Metal_State_Penalty>
-0

> <b_epik_Metal_Only>
0

> <s_lp_Force_Field>
OPLS_2005

> <r_lp_Energy>
35.8814

> <b_lp_Chiralities_Consistent>
1

> <s_lp_Variant>
AV-unprocessed.smi:239-2

> <Gold.Version>
5.8.1

> <Gold.Id.Protein>
6NUR|6NUR_protein|mol2

> <Gold.PLP.Fitness>
53.6735

> <Gold.PLP.PLP>
-47.6615

> <Gold.PLP.part.hbond>
-2.0000

> <Gold.PLP.part.metal>
0.0000

> <Gold.PLP.part.buried>
2.0759

> <Gold.PLP.part.nonpolar>
-48.0389

> <Gold.PLP.part.repulsive>
1.9427

> <Gold.PLP.ligand.clash>
0.0000

> <Gold.PLP.ligand.torsion>
1.0456

> <Gold.PLP.Chemscore.Hbond>
2.0000

> <Gold.PLP.Chemscore.CHOScore>
0.2391

> <Gold.PLP.Chemscore.Metal>
0.0000

> <Gold.Chemscore.Hbonds>
donor molecule, donor type, donor heavy atom, donor atom, acceptor molecule, acceptor atom, score
      L1  H    16    38       P1 10175  1.00
      P1  H  7997  8010       L1     6  1.00
      L1  C    12    35       P1  8028  0.27

> <Gold.PLP.Chemscore.Internal.Correction>
1.3858

> <Gold.Rescore>
     Score         DG    S(hbond)    S(metal)    S(lipo)     H(rot)  DE(clash)    DE(int)     intcor
     13.26     -18.98       1.66        0.00     117.11       2.24       3.24       2.48       ----

> <Gold.Chemscore.Fitness>
13.2636

> <Gold.Chemscore.DG>
-18.9822

> <Gold.Chemscore.ZeroCoef>
-5.4800

> <Gold.Chemscore.Hbond>
1.6562

> <Gold.Chemscore.Metal>
0.0000

> <Gold.Chemscore.Lipo>
117.1092

> <Gold.Chemscore.Internal_Hbond>
0.0000

> <Gold.Chemscore.DEClash>
3.2367

> <Gold.Chemscore.DEInternal>
2.4820

> <Gold.Chemscore.Rot>
2.2387

> <Gold.Chemscore.Internal.Correction>
   9.000000E+99

> <Gold.Chemscore.Hbonds>
donor molecule, donor type, donor heavy atom, donor atom, acceptor molecule, acceptor atom, score
      L1  H    16    38       P1 10175  0.95
      P1  H  7997  8010       L1     6  0.33

> <Gold.Chemscore.Hbond.Weighted>
-5.5316

> <Gold.Chemscore.Metal.Weighted>
-0.0000

> <Gold.Chemscore.Lipo.Weighted>
-13.7018

> <Gold.Chemscore.Internal_Hbond.Weighted>
0.0000

> <Gold.Chemscore.DEClash.Weighted>
3.2367

> <Gold.Chemscore.DEInternal.Weighted>
2.4820

> <Gold.Chemscore.Rot.Weighted>
5.7311

> <Gold.Chemscore.Internal.Correction.Weighted>
   9.000000E+99

> <Gold.Protein.RotatedTorsions>
[ 6907 6896 6895 6894 ] final  -24.52 input  -60.11 | X-H torsion
[ 7974 7965 7964 7962 ] final   49.60 input  175.53 | X-H torsion
[ 8008 7997 7996 7995 ] final   79.03 input   59.86 | X-H torsion
[ 10167 10162 10161 10158 ] final  125.79 input  -65.29 | X-H torsion
[ 10718 10713 10712 10709 ] final   42.27 input   66.30 | X-H torsion
[ 10763 10752 10751 10750 ] final  150.56 input  -60.55 | X-H torsion
[ 11005 11000 10999 10996 ] final   39.19 input  -57.11 | X-H torsion

> <Gold.Protein.ActiveResidues>
 VAL166  LYS551  ARG553  GLY616  TRP617  ASP618  TYR619  PRO620  LYS621  CYS622 
 ASP623  PHE694  ASN695  SER759  ASP760  ASP761  ALA762  ILE779  LEU786  VAL792 
 PHE793  MET794  SER795  GLU796  ALA797  LYS798  CYS799  TRP800  GLU811  SER814 

> <Gold.Protein.RotatedAtoms>
  151.1884  135.0391  159.8821 H   0  0  0  0  0  0  0  0  0  0  0  0  # atno 6907 bound_to 6896
  152.5441  134.0984  159.8317 H   0  0  0  0  0  0  0  0  0  0  0  0  # atno 6908 bound_to 6896
  151.1109  133.5126  159.2638 H   0  0  0  0  0  0  0  0  0  0  0  0  # atno 6909 bound_to 6896
  146.0093  139.4526  142.9966 H   0  0  0  0  0  0  0  0  0  0  0  0  # atno 7974 bound_to 7965
  155.8640  140.3452  155.5776 H   0  0  0  0  0  0  0  0  0  0  0  0  # atno 8008 bound_to 7997
  155.7901  140.0870  157.2033 H   0  0  0  0  0  0  0  0  0  0  0  0  # atno 8009 bound_to 7997
  154.4013  140.1484  156.3140 H   0  0  0  0  0  0  0  0  0  0  0  0  # atno 8010 bound_to 7997
  139.5666  144.6915  151.3893 H   0  0  0  0  0  0  0  0  0  0  0  0  # atno 10167 bound_to 10162
  157.4030  130.7870  149.7364 H   0  0  0  0  0  0  0  0  0  0  0  0  # atno 10718 bound_to 10713
  154.0894  135.2853  155.3274 H   0  0  0  0  0  0  0  0  0  0  0  0  # atno 10763 bound_to 10752
  154.6630  135.5327  153.8045 H   0  0  0  0  0  0  0  0  0  0  0  0  # atno 10764 bound_to 10752
  153.0419  135.6538  154.1064 H   0  0  0  0  0  0  0  0  0  0  0  0  # atno 10765 bound_to 10752
  140.2052  134.3822  155.8076 H   0  0  0  0  0  0  0  0  0  0  0  0  # atno 11005 bound_to 11000
  145.7366  141.0023  143.1323 LP  0  0  0  0  0  0  0  0  0  0  0  0  # atno 17320 bound_to 7965
  144.6947  139.9049  143.7460 LP  0  0  0  0  0  0  0  0  0  0  0  0  # atno 17321 bound_to 7965
  140.6950  143.7771  150.7312 LP  0  0  0  0  0  0  0  0  0  0  0  0  # atno 17342 bound_to 10162
  140.1265  143.4565  152.2281 LP  0  0  0  0  0  0  0  0  0  0  0  0  # atno 17343 bound_to 10162
  155.9828  130.4006  150.3395 LP  0  0  0  0  0  0  0  0  0  0  0  0  # atno 17370 bound_to 10713
  157.1525  131.0324  151.2878 LP  0  0  0  0  0  0  0  0  0  0  0  0  # atno 17371 bound_to 10713
  141.2227  133.7114  156.8325 LP  0  0  0  0  0  0  0  0  0  0  0  0  # atno 17394 bound_to 11000
  140.2010  134.8897  157.3169 LP  0  0  0  0  0  0  0  0  0  0  0  0  # atno 17395 bound_to 11000

$$$$
