AV-unprocessed.smi:100|AV-procd|sdf|908|dock3
  -GOLD-   2262017403D 1   1.00000     0.00000
 Structure written by MMmdl.
 31 33  0  0  0  0  0  0  0  0  1 V2000
  149.8976  138.3861  153.5982 N   0  0  0  0  0  0  0  0  0  0  0  0
  150.0940  138.6877  154.8892 C   0  0  0  0  0  0  0  0  0  0  0  0
  150.0579  137.6839  155.7962 N   0  0  0  0  0  0  0  0  0  0  0  0
  150.2491  137.9599  157.0899 C   0  0  0  0  0  0  0  0  0  0  0  0
  150.4866  139.1415  157.6654 N   0  0  0  0  0  0  0  0  0  0  0  0
  150.5231  140.1546  156.7512 C   0  0  0  0  0  0  0  0  0  0  0  0
  150.3363  140.0072  155.3481 C   0  0  0  0  0  0  0  0  0  0  0  0
  150.4372  141.2424  154.7246 N   0  0  0  0  0  0  0  0  0  0  0  0
  150.6659  142.0710  155.7075 C   0  0  0  0  0  0  0  0  0  0  0  0
  150.7430  141.5031  156.9613 N   0  0  0  0  0  0  0  0  0  0  0  0
  150.9777  142.2152  158.2592 C   0  0  1  0  0  0  0  0  0  0  0  0
  151.9576  141.5165  158.9724 O   0  0  0  0  0  0  0  0  0  0  0  0
  153.1162  142.3306  159.1531 C   0  0  2  0  0  0  0  0  0  0  0  0
  153.8555  141.9528  160.4465 C   0  0  0  0  0  0  0  0  0  0  0  0
  152.9750  142.0231  161.5475 O   0  0  0  0  0  0  0  0  0  0  0  0
  152.5379  143.7460  159.1486 C   0  0  2  0  0  0  0  0  0  0  0  0
  151.9581  143.9824  160.3299 F   0  0  0  0  0  0  0  0  0  0  0  0
  151.4971  143.6450  158.0451 C   0  0  2  0  0  0  0  0  0  0  0  0
  150.5064  144.6419  158.1988 O   0  0  0  0  0  0  0  0  0  0  0  0
  149.9188  139.1176  152.9023 H   0  0  0  0  0  0  0  0  0  0  0  0
  149.7225  137.4299  153.3254 H   0  0  0  0  0  0  0  0  0  0  0  0
  150.2060  137.1142  157.7603 H   0  0  0  0  0  0  0  0  0  0  0  0
  150.7867  143.1318  155.5414 H   0  0  0  0  0  0  0  0  0  0  0  0
  150.0306  142.1644  158.7989 H   0  0  0  0  0  0  0  0  0  0  0  0
  153.7835  142.2264  158.2980 H   0  0  0  0  0  0  0  0  0  0  0  0
  154.2182  140.9265  160.3847 H   0  0  0  0  0  0  0  0  0  0  0  0
  154.7214  142.5945  160.6124 H   0  0  0  0  0  0  0  0  0  0  0  0
  152.8679  142.9302  161.7895 H   0  0  0  0  0  0  0  0  0  0  0  0
  153.2837  144.5223  158.9764 H   0  0  0  0  0  0  0  0  0  0  0  0
  151.9750  143.7392  157.0700 H   0  0  0  0  0  0  0  0  0  0  0  0
  150.0485  144.7379  157.3778 H   0  0  0  0  0  0  0  0  0  0  0  0
  1  2  1  0  0  0  0
  1 20  1  0  0  0  0
  1 21  1  0  0  0  0
  2  7  1  0  0  0  0
  2  3  2  0  0  0  0
  3  4  1  0  0  0  0
  4  5  2  0  0  0  0
  4 22  1  0  0  0  0
  5  6  1  0  0  0  0
  6 10  1  0  0  0  0
  6  7  2  0  0  0  0
  7  8  1  0  0  0  0
  8  9  2  0  0  0  0
  9 10  1  0  0  0  0
  9 23  1  0  0  0  0
 10 11  1  0  0  0  0
 11 18  1  0  0  0  0
 11 12  1  0  0  0  0
 11 24  1  0  0  0  0
 12 13  1  0  0  0  0
 13 14  1  0  0  0  0
 13 16  1  0  0  0  0
 13 25  1  0  0  0  0
 14 15  1  0  0  0  0
 14 26  1  0  0  0  0
 14 27  1  0  0  0  0
 15 28  1  0  0  0  0
 16 17  1  0  0  0  0
 16 18  1  0  0  0  0
 16 29  1  0  0  0  0
 18 19  1  0  0  0  0
 18 30  1  0  0  0  0
 19 31  1  0  0  0  0
M  END
> <s_m_source_file>
AV-unprocessed.smi

> <i_m_source_file_index>
100

> <i_lp_mmshare_version>
43012

> <i_f3d_flags>
0

> <s_epik_input>
bjFbY0hdbmMoW05IMl0pYyhjMTIpbltjSF1uMltDQEBIXTNPW0NAQEhdKFtDSDJdW09IXSlbQ0BIXShGKVtDQEhdM1tPSF0=

> <s_epik_cmdline>
J2VwaWtfcHl0aG9uJywgJy1waCcsICc3LjAnLCAnLXRuJywgJzgnLCAnLW1hJywgJzIwMCcsICctbWV0YWxfYmluZGluZycsICctaW1hZScsICc8aW5maWxlLm1hZT4nLCAnLW9tYWUnLCAnPG91dGZpbGUubWFlPic=

> <r_lp_tautomer_probability>
1

> <r_epik_Ionization_Penalty>
0.000750324

> <r_epik_Ionization_Penalty_Charging>
0

> <r_epik_Ionization_Penalty_Neutral>
0.000750324

> <r_epik_State_Penalty>
-0

> <r_epik_Charging_Adjusted_Penalty>
0

> <i_epik_Tot_Q>
0

> <i_epik_Tot_abs_Q>
0

> <r_epik_Metal_State_Penalty>
-0

> <b_epik_Metal_Only>
0

> <s_epik_Chemistry_Notes>
This compound contains an acetal/aminal-like group ( X-CH(R)-Y where X, Y are N, S, or O) that may be acid/base labile, releasing an aldehyde.

> <s_lp_Force_Field>
OPLS_2005

> <r_lp_Energy>
32.6181

> <b_lp_Chiralities_Consistent>
1

> <s_lp_Variant>
AV-unprocessed.smi:100-12

> <Gold.Version>
5.8.1

> <Gold.Id.Protein>
6NUR|6NUR_protein|mol2

> <Gold.PLP.Fitness>
45.2106

> <Gold.PLP.PLP>
-33.0464

> <Gold.PLP.part.hbond>
-4.9490

> <Gold.PLP.part.metal>
0.0000

> <Gold.PLP.part.buried>
-2.8589

> <Gold.PLP.part.nonpolar>
-25.1406

> <Gold.PLP.part.repulsive>
0.2686

> <Gold.PLP.ligand.clash>
0.0000

> <Gold.PLP.ligand.torsion>
0.3089

> <Gold.PLP.Chemscore.Hbond>
3.2740

> <Gold.PLP.Chemscore.CHOScore>
0.9826

> <Gold.PLP.Chemscore.Metal>
0.0000

> <Gold.Chemscore.Hbonds>
donor molecule, donor type, donor heavy atom, donor atom, acceptor molecule, acceptor atom, score
      L1  H     1    20       P1  7957  1.00
      L1  H     1    21       P1  7948  0.88
      L1  H    19    31       P1  8028  0.84
      P1  H  7989  7998       L1     8  0.54
      L1  C     9    23       P1  8028  0.86

> <Gold.PLP.Chemscore.Internal.Correction>
0.0120

> <Gold.Rescore>
     Score         DG    S(hbond)    S(metal)    S(lipo)     H(rot)  DE(clash)    DE(int)     intcor
      8.14     -10.34       2.12        0.00      50.91       3.19       0.34       1.86       ----

> <Gold.Chemscore.Fitness>
8.1435

> <Gold.Chemscore.DG>
-10.3435

> <Gold.Chemscore.ZeroCoef>
-5.4800

> <Gold.Chemscore.Hbond>
2.1178

> <Gold.Chemscore.Metal>
0.0000

> <Gold.Chemscore.Lipo>
50.9123

> <Gold.Chemscore.Internal_Hbond>
0.0000

> <Gold.Chemscore.DEClash>
0.3416

> <Gold.Chemscore.DEInternal>
1.8584

> <Gold.Chemscore.Rot>
3.1901

> <Gold.Chemscore.Internal.Correction>
   9.000000E+99

> <Gold.Chemscore.Hbonds>
donor molecule, donor type, donor heavy atom, donor atom, acceptor molecule, acceptor atom, score
      L1  H     1    20       P1  7957  0.89
      L1  H     1    21       P1  7948  0.58
      L1  H    19    31       P1  8028  0.14
      P1  H  7989  7998       L1     8  0.19

> <Gold.Chemscore.Hbond.Weighted>
-7.0734

> <Gold.Chemscore.Metal.Weighted>
-0.0000

> <Gold.Chemscore.Lipo.Weighted>
-5.9567

> <Gold.Chemscore.Internal_Hbond.Weighted>
0.0000

> <Gold.Chemscore.DEClash.Weighted>
0.3416

> <Gold.Chemscore.DEInternal.Weighted>
1.8584

> <Gold.Chemscore.Rot.Weighted>
8.1667

> <Gold.Chemscore.Internal.Correction.Weighted>
   9.000000E+99

> <Gold.Protein.RotatedTorsions>
[ 6907 6896 6895 6894 ] final  119.30 input  -60.11 | X-H torsion
[ 7974 7965 7964 7962 ] final  132.74 input  175.53 | X-H torsion
[ 8008 7997 7996 7995 ] final  126.31 input   59.86 | X-H torsion
[ 10167 10162 10161 10158 ] final   11.55 input  -65.29 | X-H torsion
[ 10718 10713 10712 10709 ] final  134.59 input   66.30 | X-H torsion
[ 10763 10752 10751 10750 ] final -127.28 input  -60.55 | X-H torsion
[ 11005 11000 10999 10996 ] final  163.09 input  -57.11 | X-H torsion

> <Gold.Protein.ActiveResidues>
 VAL166  LYS551  ARG553  GLY616  TRP617  ASP618  TYR619  PRO620  LYS621  CYS622 
 ASP623  PHE694  ASN695  SER759  ASP760  ASP761  ALA762  ILE779  LEU786  VAL792 
 PHE793  MET794  SER795  GLU796  ALA797  LYS798  CYS799  TRP800  GLU811  SER814 

> <Gold.Protein.RotatedAtoms>
  152.4482  133.7576  159.6728 H   0  0  0  0  0  0  0  0  0  0  0  0  # atno 6907 bound_to 6896
  150.8386  133.7962  159.3076 H   0  0  0  0  0  0  0  0  0  0  0  0  # atno 6908 bound_to 6896
  151.5594  135.1068  160.0020 H   0  0  0  0  0  0  0  0  0  0  0  0  # atno 6909 bound_to 6896
  144.9937  139.4381  143.5326 H   0  0  0  0  0  0  0  0  0  0  0  0  # atno 7974 bound_to 7965
  156.2860  140.2695  156.2090 H   0  0  0  0  0  0  0  0  0  0  0  0  # atno 8008 bound_to 7997
  155.0283  140.0386  157.2482 H   0  0  0  0  0  0  0  0  0  0  0  0  # atno 8009 bound_to 7997
  154.7376  140.2719  155.6406 H   0  0  0  0  0  0  0  0  0  0  0  0  # atno 8010 bound_to 7997
  140.6125  143.8378  150.7081 H   0  0  0  0  0  0  0  0  0  0  0  0  # atno 10167 bound_to 10162
  157.4657  131.1076  150.9865 H   0  0  0  0  0  0  0  0  0  0  0  0  # atno 10718 bound_to 10713
  154.8751  135.3967  154.3568 H   0  0  0  0  0  0  0  0  0  0  0  0  # atno 10763 bound_to 10752
  153.4346  135.7026  153.6214 H   0  0  0  0  0  0  0  0  0  0  0  0  # atno 10764 bound_to 10752
  153.4821  135.3767  155.2417 H   0  0  0  0  0  0  0  0  0  0  0  0  # atno 10765 bound_to 10752
  140.2323  134.8114  157.3329 H   0  0  0  0  0  0  0  0  0  0  0  0  # atno 11005 bound_to 11000
  146.3437  139.9284  142.8757 LP  0  0  0  0  0  0  0  0  0  0  0  0  # atno 17320 bound_to 7965
  145.2249  140.9950  143.4024 LP  0  0  0  0  0  0  0  0  0  0  0  0  # atno 17321 bound_to 7965
  140.1950  143.4005  152.1835 LP  0  0  0  0  0  0  0  0  0  0  0  0  # atno 17342 bound_to 10162
  139.5372  144.7221  151.4854 LP  0  0  0  0  0  0  0  0  0  0  0  0  # atno 17343 bound_to 10162
  157.0647  130.5839  149.5392 LP  0  0  0  0  0  0  0  0  0  0  0  0  # atno 17370 bound_to 10713
  156.0049  130.5134  150.7795 LP  0  0  0  0  0  0  0  0  0  0  0  0  # atno 17371 bound_to 10713
  140.1738  134.4576  155.7815 LP  0  0  0  0  0  0  0  0  0  0  0  0  # atno 17394 bound_to 11000
  141.2217  133.6953  156.7752 LP  0  0  0  0  0  0  0  0  0  0  0  0  # atno 17395 bound_to 11000

$$$$
