AV-unprocessed.smi:2302|AV-procd|sdf|9241|dock1
  -GOLD-   2272012463D 1   1.00000     0.00000
 Structure written by MMmdl.
 39 40  0  0  0  0  0  0  0  0  1 V2000
  153.2054  142.0906  161.0134 C   0  0  0  0  0  0  0  0  0  0  0  0
  152.3843  143.1143  160.2577 C   0  0  0  0  0  0  0  0  0  0  0  0
  152.2848  144.4433  160.7142 C   0  0  0  0  0  0  0  0  0  0  0  0
  151.5022  145.3431  159.9688 C   0  0  0  0  0  0  0  0  0  0  0  0
  150.8560  144.8805  158.8061 C   0  0  0  0  0  0  0  0  0  0  0  0
  151.0070  143.5302  158.4171 C   0  0  0  0  0  0  0  0  0  0  0  0
  150.3121  143.1622  157.2343 N   0  0  0  0  0  0  0  0  0  0  0  0
  150.5108  142.0843  156.4552 C   0  0  0  0  0  0  0  0  0  0  0  0
  151.3760  141.2264  156.6339 O   0  0  0  0  0  0  0  0  0  0  0  0
  149.6374  142.0540  155.4382 N   0  0  0  0  0  0  0  0  0  0  0  0
  149.5872  141.0245  154.4033 C   0  0  0  0  0  0  0  0  0  0  0  0
  149.9402  139.6240  154.9397 C   0  0  1  0  0  0  0  0  0  0  0  0
  148.8910  138.5451  154.5939 C   0  0  0  0  0  0  0  0  0  0  0  0
  149.2833  137.2331  155.0912 N   0  0  0  0  0  0  0  0  0  0  0  0
  148.2940  136.2171  154.7663 C   0  0  0  0  0  0  0  0  0  0  0  0
  150.5997  136.8884  154.5710 C   0  0  0  0  0  0  0  0  0  0  0  0
  151.6455  137.9626  154.9148 C   0  0  0  0  0  0  0  0  0  0  0  0
  151.2118  139.2288  154.4279 O   0  0  0  0  0  0  0  0  0  0  0  0
  151.7638  142.6703  159.1437 N   0  0  0  0  0  0  0  0  0  0  0  0
  153.8539  142.5697  161.7473 H   0  0  0  0  0  0  0  0  0  0  0  0
  153.8333  141.5206  160.3280 H   0  0  0  0  0  0  0  0  0  0  0  0
  152.5493  141.3954  161.5379 H   0  0  0  0  0  0  0  0  0  0  0  0
  152.7921  144.7666  161.6113 H   0  0  0  0  0  0  0  0  0  0  0  0
  151.3981  146.3710  160.2832 H   0  0  0  0  0  0  0  0  0  0  0  0
  150.2507  145.5587  158.2224 H   0  0  0  0  0  0  0  0  0  0  0  0
  149.5698  143.7862  156.9557 H   0  0  0  0  0  0  0  0  0  0  0  0
  148.9611  142.8000  155.3694 H   0  0  0  0  0  0  0  0  0  0  0  0
  148.6082  141.0081  153.9216 H   0  0  0  0  0  0  0  0  0  0  0  0
  150.2998  141.3037  153.6269 H   0  0  0  0  0  0  0  0  0  0  0  0
  150.0239  139.6966  156.0256 H   0  0  0  0  0  0  0  0  0  0  0  0
  147.9274  138.8266  155.0202 H   0  0  0  0  0  0  0  0  0  0  0  0
  148.7517  138.4967  153.5128 H   0  0  0  0  0  0  0  0  0  0  0  0
  148.5854  135.2498  155.1769 H   0  0  0  0  0  0  0  0  0  0  0  0
  148.1798  136.1081  153.6870 H   0  0  0  0  0  0  0  0  0  0  0  0
  147.3220  136.4765  155.1869 H   0  0  0  0  0  0  0  0  0  0  0  0
  150.9189  135.9278  154.9769 H   0  0  0  0  0  0  0  0  0  0  0  0
  150.5496  136.7690  153.4875 H   0  0  0  0  0  0  0  0  0  0  0  0
  151.8041  138.0158  155.9930 H   0  0  0  0  0  0  0  0  0  0  0  0
  152.6056  137.7161  154.4613 H   0  0  0  0  0  0  0  0  0  0  0  0
  1  2  1  0  0  0  0
  1 20  1  0  0  0  0
  1 21  1  0  0  0  0
  1 22  1  0  0  0  0
  2 19  1  0  0  0  0
  2  3  2  0  0  0  0
  3  4  1  0  0  0  0
  3 23  1  0  0  0  0
  4  5  2  0  0  0  0
  4 24  1  0  0  0  0
  5  6  1  0  0  0  0
  5 25  1  0  0  0  0
  6  7  1  0  0  0  0
  6 19  2  0  0  0  0
  7  8  1  0  0  0  0
  7 26  1  0  0  0  0
  8  9  2  0  0  0  0
  8 10  1  0  0  0  0
 10 11  1  0  0  0  0
 10 27  1  0  0  0  0
 11 12  1  0  0  0  0
 11 28  1  0  0  0  0
 11 29  1  0  0  0  0
 12 18  1  0  0  0  0
 12 13  1  0  0  0  0
 12 30  1  0  0  0  0
 13 14  1  0  0  0  0
 13 31  1  0  0  0  0
 13 32  1  0  0  0  0
 14 15  1  0  0  0  0
 14 16  1  0  0  0  0
 15 33  1  0  0  0  0
 15 34  1  0  0  0  0
 15 35  1  0  0  0  0
 16 17  1  0  0  0  0
 16 36  1  0  0  0  0
 16 37  1  0  0  0  0
 17 18  1  0  0  0  0
 17 38  1  0  0  0  0
 17 39  1  0  0  0  0
M  END
> <s_m_source_file>
AV-unprocessed.smi

> <i_m_source_file_index>
2302

> <i_lp_mmshare_version>
43012

> <i_f3d_flags>
0

> <s_epik_input>
W0NIM11jMVtjSF1bY0hdW2NIXWMobjEpW05IXUMoPU8pW05IXVtDSDJdW0NAQEhdMltDSDJdTihbQ0gzXSlbQ0gyXVtDSDJdTzI=

> <s_epik_cmdline>
J2VwaWtfcHl0aG9uJywgJy1waCcsICc3LjAnLCAnLXRuJywgJzgnLCAnLW1hJywgJzIwMCcsICctbWV0YWxfYmluZGluZycsICctaW1hZScsICc8aW5maWxlLm1hZT4nLCAnLW9tYWUnLCAnPG91dGZpbGUubWFlPic=

> <r_epik_Ionization_Penalty>
0.729465

> <r_epik_Ionization_Penalty_Charging>
0

> <r_epik_Ionization_Penalty_Neutral>
0.729465

> <r_epik_State_Penalty>
0.754525

> <r_epik_Charging_Adjusted_Penalty>
0.754525

> <i_epik_Tot_Q>
0

> <i_epik_Tot_abs_Q>
0

> <r_epik_Metal_State_Penalty>
0.754521

> <b_epik_Metal_Only>
0

> <s_lp_Force_Field>
OPLS_2005

> <r_lp_Energy>
21.4946

> <b_lp_Chiralities_Consistent>
1

> <s_lp_Variant>
AV-unprocessed.smi:2302-6

> <Gold.Version>
5.8.1

> <Gold.Id.Protein>
6NUR|6NUR_protein|mol2

> <Gold.PLP.Fitness>
43.2220

> <Gold.PLP.PLP>
-37.4443

> <Gold.PLP.part.hbond>
-3.0000

> <Gold.PLP.part.metal>
0.0000

> <Gold.PLP.part.buried>
-3.5497

> <Gold.PLP.part.nonpolar>
-30.9172

> <Gold.PLP.part.repulsive>
0.4338

> <Gold.PLP.ligand.clash>
0.4166

> <Gold.PLP.ligand.torsion>
0.9482

> <Gold.PLP.Chemscore.Hbond>
2.6960

> <Gold.PLP.Chemscore.CHOScore>
0.0000

> <Gold.PLP.Chemscore.Metal>
0.0000

> <Gold.Chemscore.Hbonds>
donor molecule, donor type, donor heavy atom, donor atom, acceptor molecule, acceptor atom, score
      L1  H     7    26       P1  8028  0.93
      L1  H    10    27       P1  8028  0.78
      P1  H  7989  7998       L1    18  0.90

> <Gold.PLP.Chemscore.Internal.Correction>
0.0027

> <Gold.Rescore>
     Score         DG    S(hbond)    S(metal)    S(lipo)     H(rot)  DE(clash)    DE(int)     intcor
     15.49     -20.72       2.38        0.00      89.67       1.25       0.27       4.97       ----

> <Gold.Chemscore.Fitness>
15.4860

> <Gold.Chemscore.DG>
-20.7216

> <Gold.Chemscore.ZeroCoef>
-5.4800

> <Gold.Chemscore.Hbond>
2.3808

> <Gold.Chemscore.Metal>
0.0000

> <Gold.Chemscore.Lipo>
89.6690

> <Gold.Chemscore.Internal_Hbond>
0.0000

> <Gold.Chemscore.DEClash>
0.2652

> <Gold.Chemscore.DEInternal>
4.9703

> <Gold.Chemscore.Rot>
1.2506

> <Gold.Chemscore.Internal.Correction>
   9.000000E+99

> <Gold.Chemscore.Hbonds>
donor molecule, donor type, donor heavy atom, donor atom, acceptor molecule, acceptor atom, score
      L1  H     7    26       P1  8028  0.82
      L1  H    10    27       P1  8028  0.77
      P1  H  7989  7998       L1    18  0.18

> <Gold.Chemscore.Hbond.Weighted>
-7.9518

> <Gold.Chemscore.Metal.Weighted>
-0.0000

> <Gold.Chemscore.Lipo.Weighted>
-10.4913

> <Gold.Chemscore.Internal_Hbond.Weighted>
0.0000

> <Gold.Chemscore.DEClash.Weighted>
0.2652

> <Gold.Chemscore.DEInternal.Weighted>
4.9703

> <Gold.Chemscore.Rot.Weighted>
3.2015

> <Gold.Chemscore.Internal.Correction.Weighted>
   9.000000E+99

> <Gold.Protein.RotatedTorsions>
[ 6907 6896 6895 6894 ] final   34.45 input  -60.11 | X-H torsion
[ 7974 7965 7964 7962 ] final -114.74 input  175.53 | X-H torsion
[ 8008 7997 7996 7995 ] final   71.58 input   59.86 | X-H torsion
[ 10167 10162 10161 10158 ] final   -0.68 input  -65.29 | X-H torsion
[ 10718 10713 10712 10709 ] final -166.79 input   66.30 | X-H torsion
[ 10763 10752 10751 10750 ] final  174.63 input  -60.55 | X-H torsion
[ 11005 11000 10999 10996 ] final  114.20 input  -57.11 | X-H torsion

> <Gold.Protein.ActiveResidues>
 VAL166  LYS551  ARG553  GLY616  TRP617  ASP618  TYR619  PRO620  LYS621  CYS622 
 ASP623  PHE694  ASN695  SER759  ASP760  ASP761  ALA762  ILE779  LEU786  VAL792 
 PHE793  MET794  SER795  GLU796  ALA797  LYS798  CYS799  TRP800  GLU811  SER814 

> <Gold.Protein.RotatedAtoms>
  152.1026  134.9331  160.0568 H   0  0  0  0  0  0  0  0  0  0  0  0  # atno 6907 bound_to 6896
  152.0539  133.4026  159.4397 H   0  0  0  0  0  0  0  0  0  0  0  0  # atno 6908 bound_to 6896
  150.6840  134.3197  159.4825 H   0  0  0  0  0  0  0  0  0  0  0  0  # atno 6909 bound_to 6896
  145.1166  140.8644  143.3838 H   0  0  0  0  0  0  0  0  0  0  0  0  # atno 7974 bound_to 7965
  155.7560  140.3487  155.5174 H   0  0  0  0  0  0  0  0  0  0  0  0  # atno 8008 bound_to 7997
  155.8959  140.1026  157.1406 H   0  0  0  0  0  0  0  0  0  0  0  0  # atno 8009 bound_to 7997
  154.4038  140.1295  156.4362 H   0  0  0  0  0  0  0  0  0  0  0  0  # atno 8010 bound_to 7997
  140.6778  143.6866  150.8062 H   0  0  0  0  0  0  0  0  0  0  0  0  # atno 10167 bound_to 10162
  156.6730  130.9091  151.3046 H   0  0  0  0  0  0  0  0  0  0  0  0  # atno 10718 bound_to 10713
  154.4566  135.2766  155.1743 H   0  0  0  0  0  0  0  0  0  0  0  0  # atno 10763 bound_to 10752
  154.3548  135.6142  153.5664 H   0  0  0  0  0  0  0  0  0  0  0  0  # atno 10764 bound_to 10752
  152.9851  135.5820  154.4920 H   0  0  0  0  0  0  0  0  0  0  0  0  # atno 10765 bound_to 10752
  139.8974  134.9563  156.6856 H   0  0  0  0  0  0  0  0  0  0  0  0  # atno 11005 bound_to 11000
  145.0787  139.2976  143.5794 LP  0  0  0  0  0  0  0  0  0  0  0  0  # atno 17320 bound_to 7965
  146.3523  140.0286  142.8652 LP  0  0  0  0  0  0  0  0  0  0  0  0  # atno 17321 bound_to 7965
  140.0562  143.5201  152.2650 LP  0  0  0  0  0  0  0  0  0  0  0  0  # atno 17342 bound_to 10162
  139.6080  144.7601  151.3016 LP  0  0  0  0  0  0  0  0  0  0  0  0  # atno 17343 bound_to 10162
  157.7071  130.9397  150.0965 LP  0  0  0  0  0  0  0  0  0  0  0  0  # atno 17370 bound_to 10713
  156.1925  130.3655  149.8892 LP  0  0  0  0  0  0  0  0  0  0  0  0  # atno 17371 bound_to 10713
  140.7265  133.9095  155.8182 LP  0  0  0  0  0  0  0  0  0  0  0  0  # atno 17394 bound_to 11000
  141.0187  134.0920  157.4144 LP  0  0  0  0  0  0  0  0  0  0  0  0  # atno 17395 bound_to 11000

$$$$
