AV-unprocessed.smi:2195|AV-procd|sdf|8906|dock10
  -GOLD-   2272012123D 1   1.00000     0.00000
 Structure written by MMmdl.
 40 42  0  0  0  0  0  0  0  0  2 V2000
  150.7139  131.2443  154.0719 C   0  0  0  0  0  0  0  0  0  0  0  0
  150.6456  132.7317  154.3512 C   0  0  0  0  0  0  0  0  0  0  0  0
  150.0865  133.6122  153.4039 C   0  0  0  0  0  0  0  0  0  0  0  0
  150.0268  134.9931  153.6726 C   0  0  0  0  0  0  0  0  0  0  0  0
  150.5217  135.5157  154.8853 C   0  0  0  0  0  0  0  0  0  0  0  0
  150.4218  136.8784  155.0651 O   0  0  0  0  0  0  0  0  0  0  0  0
  151.0870  137.4632  156.1780 C   0  0  0  0  0  0  0  0  0  0  0  0
  150.8809  138.9870  156.1716 C   0  0  2  0  0  0  0  0  0  0  0  0
  151.5418  139.5431  155.0521 O   0  0  0  0  0  0  0  0  0  0  0  0
  151.3061  139.6710  157.4871 C   0  0  0  0  0  0  0  0  0  0  0  0
  150.9227  141.0885  157.5445 N   0  0  0  0  0  0  0  0  0  0  0  0
  150.3892  141.8839  156.5780 C   0  0  0  0  0  0  0  0  0  0  0  0
  150.2019  143.1199  157.1182 N   0  3  0  0  0  0  0  0  0  0  0  0
  150.6233  143.1155  158.4496 C   0  0  0  0  0  0  0  0  0  0  0  0
  150.6323  144.1267  159.4055 C   0  0  0  0  0  0  0  0  0  0  0  0
  151.1347  143.7891  160.6794 C   0  0  0  0  0  0  0  0  0  0  0  0
  151.6048  142.4903  160.9630 C   0  0  0  0  0  0  0  0  0  0  0  0
  151.5902  141.4727  159.9866 C   0  0  0  0  0  0  0  0  0  0  0  0
  151.0898  141.8134  158.7303 C   0  0  0  0  0  0  0  0  0  0  0  0
  151.0853  134.6245  155.8331 C   0  0  0  0  0  0  0  0  0  0  0  0
  151.1458  133.2430  155.5647 C   0  0  0  0  0  0  0  0  0  0  0  0
  150.1804  130.9869  153.1564 H   0  0  0  0  0  0  0  0  0  0  0  0
  150.2673  130.6829  154.8929 H   0  0  0  0  0  0  0  0  0  0  0  0
  151.7515  130.9278  153.9630 H   0  0  0  0  0  0  0  0  0  0  0  0
  149.7013  133.2338  152.4684 H   0  0  0  0  0  0  0  0  0  0  0  0
  149.5952  135.6594  152.9402 H   0  0  0  0  0  0  0  0  0  0  0  0
  150.7322  137.0351  157.1172 H   0  0  0  0  0  0  0  0  0  0  0  0
  152.1557  137.2560  156.1023 H   0  0  0  0  0  0  0  0  0  0  0  0
  149.8178  139.1740  156.0154 H   0  0  0  0  0  0  0  0  0  0  0  0
  151.7235  138.8502  154.4355 H   0  0  0  0  0  0  0  0  0  0  0  0
  150.8248  139.1754  158.3311 H   0  0  0  0  0  0  0  0  0  0  0  0
  152.3799  139.5860  157.6566 H   0  0  0  0  0  0  0  0  0  0  0  0
  150.1544  141.5874  155.5657 H   0  0  0  0  0  0  0  0  0  0  0  0
  150.2748  145.1231  159.1903 H   0  0  0  0  0  0  0  0  0  0  0  0
  151.1617  144.5416  161.4540 H   0  0  0  0  0  0  0  0  0  0  0  0
  151.9859  142.2697  161.9496 H   0  0  0  0  0  0  0  0  0  0  0  0
  151.9587  140.4829  160.2125 H   0  0  0  0  0  0  0  0  0  0  0  0
  151.4789  134.9748  156.7751 H   0  0  0  0  0  0  0  0  0  0  0  0
  151.5790  132.5755  156.2952 H   0  0  0  0  0  0  0  0  0  0  0  0
  149.8145  143.9065  156.6130 H   0  0  0  0  0  0  0  0  0  0  0  0
  1  2  1  0  0  0  0
  1 22  1  0  0  0  0
  1 23  1  0  0  0  0
  1 24  1  0  0  0  0
  2 21  1  0  0  0  0
  2  3  2  0  0  0  0
  3  4  1  0  0  0  0
  3 25  1  0  0  0  0
  4  5  2  0  0  0  0
  4 26  1  0  0  0  0
  5  6  1  0  0  0  0
  5 20  1  0  0  0  0
  6  7  1  0  0  0  0
  7  8  1  0  0  0  0
  7 27  1  0  0  0  0
  7 28  1  0  0  0  0
  8  9  1  0  0  0  0
  8 10  1  0  0  0  0
  8 29  1  0  0  0  0
  9 30  1  0  0  0  0
 10 11  1  0  0  0  0
 10 31  1  0  0  0  0
 10 32  1  0  0  0  0
 11 19  1  0  0  0  0
 11 12  1  0  0  0  0
 12 13  2  0  0  0  0
 12 33  1  0  0  0  0
 13 14  1  0  0  0  0
 13 40  1  0  0  0  0
 14 19  2  0  0  0  0
 14 15  1  0  0  0  0
 15 16  2  0  0  0  0
 15 34  1  0  0  0  0
 16 17  1  0  0  0  0
 16 35  1  0  0  0  0
 17 18  2  0  0  0  0
 17 36  1  0  0  0  0
 18 19  1  0  0  0  0
 18 37  1  0  0  0  0
 20 21  2  0  0  0  0
 20 38  1  0  0  0  0
 21 39  1  0  0  0  0
M  CHG  1  13   1
M  END
> <s_m_source_file>
AV-unprocessed.smi

> <i_m_source_file_index>
2195

> <i_lp_mmshare_version>
43012

> <i_f3d_flags>
0

> <s_epik_input>
W0NIM11jMVtjSF1bY0hdYyhbY0hdW2NIXTEpT1tDSDJdW0NASF0oW09IXSlbQ0gyXW4oW2NIXW4yKWMoYzIzKVtjSF1bY0hdW2NIXVtjSF0z

> <s_epik_cmdline>
J2VwaWtfcHl0aG9uJywgJy1waCcsICc3LjAnLCAnLXRuJywgJzgnLCAnLW1hJywgJzIwMCcsICctbWV0YWxfYmluZGluZycsICctaW1hZScsICc8aW5maWxlLm1hZT4nLCAnLW9tYWUnLCAnPG91dGZpbGUubWFlPic=

> <r_lp_tautomer_probability>
1

> <r_epik_Ionization_Penalty>
1.3774

> <r_epik_Ionization_Penalty_Charging>
1.37739

> <r_epik_Ionization_Penalty_Neutral>
2.3993e-06

> <r_epik_State_Penalty>
1.45762

> <r_epik_Charging_Adjusted_Penalty>
2.83501

> <i_epik_Tot_Q>
1

> <i_epik_Tot_abs_Q>
1

> <r_epik_Metal_State_Penalty>
5.49752

> <b_epik_Metal_Only>
0

> <s_lp_Force_Field>
OPLS_2005

> <r_lp_Energy>
21.3932

> <b_lp_Chiralities_Consistent>
1

> <s_lp_Variant>
AV-unprocessed.smi:2195-3

> <Gold.Version>
5.8.1

> <Gold.Id.Protein>
6NUR|6NUR_protein|mol2

> <Gold.PLP.Fitness>
52.5414

> <Gold.PLP.PLP>
-43.9090

> <Gold.PLP.part.hbond>
-1.9319

> <Gold.PLP.part.metal>
0.0000

> <Gold.PLP.part.buried>
-5.7739

> <Gold.PLP.part.nonpolar>
-36.6243

> <Gold.PLP.part.repulsive>
0.1523

> <Gold.PLP.ligand.clash>
0.0000

> <Gold.PLP.ligand.torsion>
0.2105

> <Gold.PLP.Chemscore.Hbond>
3.0000

> <Gold.PLP.Chemscore.CHOScore>
0.0000

> <Gold.PLP.Chemscore.Metal>
0.0000

> <Gold.Chemscore.Hbonds>
donor molecule, donor type, donor heavy atom, donor atom, acceptor molecule, acceptor atom, score
      L1  H    13    40       P1  8028  2.00
      P1  H  7989  7998       L1     9  0.39

> <Gold.PLP.Chemscore.Internal.Correction>
0.0533

> <Gold.Rescore>
     Score         DG    S(hbond)    S(metal)    S(lipo)     H(rot)  DE(clash)    DE(int)     intcor
     19.05     -19.69       1.97        0.00     114.85       2.27       0.07       0.57       ----

> <Gold.Chemscore.Fitness>
19.0513

> <Gold.Chemscore.DG>
-19.6894

> <Gold.Chemscore.ZeroCoef>
-5.4800

> <Gold.Chemscore.Hbond>
1.9728

> <Gold.Chemscore.Metal>
0.0000

> <Gold.Chemscore.Lipo>
114.8497

> <Gold.Chemscore.Internal_Hbond>
0.0000

> <Gold.Chemscore.DEClash>
0.0654

> <Gold.Chemscore.DEInternal>
0.5728

> <Gold.Chemscore.Rot>
2.2723

> <Gold.Chemscore.Internal.Correction>
   9.000000E+99

> <Gold.Chemscore.Hbonds>
donor molecule, donor type, donor heavy atom, donor atom, acceptor molecule, acceptor atom, score
      L1  H    13    40       P1  8028  0.95
      P1  H  7989  7998       L1     9  0.01

> <Gold.Chemscore.Hbond.Weighted>
-6.5890

> <Gold.Chemscore.Metal.Weighted>
-0.0000

> <Gold.Chemscore.Lipo.Weighted>
-13.4374

> <Gold.Chemscore.Internal_Hbond.Weighted>
0.0000

> <Gold.Chemscore.DEClash.Weighted>
0.0654

> <Gold.Chemscore.DEInternal.Weighted>
0.5728

> <Gold.Chemscore.Rot.Weighted>
5.8170

> <Gold.Chemscore.Internal.Correction.Weighted>
   9.000000E+99

> <Gold.Protein.RotatedTorsions>
[ 6907 6896 6895 6894 ] final   44.01 input  -60.11 | X-H torsion
[ 7974 7965 7964 7962 ] final   85.93 input  175.53 | X-H torsion
[ 8008 7997 7996 7995 ] final -128.36 input   59.86 | X-H torsion
[ 10167 10162 10161 10158 ] final  -93.58 input  -65.29 | X-H torsion
[ 10718 10713 10712 10709 ] final  150.51 input   66.30 | X-H torsion
[ 10763 10752 10751 10750 ] final   85.68 input  -60.55 | X-H torsion
[ 11005 11000 10999 10996 ] final   25.97 input  -57.11 | X-H torsion

> <Gold.Protein.ActiveResidues>
 VAL166  LYS551  ARG553  GLY616  TRP617  ASP618  TYR619  PRO620  LYS621  CYS622 
 ASP623  PHE694  ASN695  SER759  ASP760  ASP761  ALA762  ILE779  LEU786  VAL792 
 PHE793  MET794  SER795  GLU796  ALA797  LYS798  CYS799  TRP800  GLU811  SER814 

> <Gold.Protein.RotatedAtoms>
  152.2273  134.8356  160.0478 H   0  0  0  0  0  0  0  0  0  0  0  0  # atno 6907 bound_to 6896
  151.9117  133.3558  159.3874 H   0  0  0  0  0  0  0  0  0  0  0  0  # atno 6908 bound_to 6896
  150.7016  134.4650  159.5442 H   0  0  0  0  0  0  0  0  0  0  0  0  # atno 6909 bound_to 6896
  145.5789  139.2322  143.2364 H   0  0  0  0  0  0  0  0  0  0  0  0  # atno 7974 bound_to 7965
  155.2615  140.0436  157.2998 H   0  0  0  0  0  0  0  0  0  0  0  0  # atno 8008 bound_to 7997
  154.5708  140.2373  155.8164 H   0  0  0  0  0  0  0  0  0  0  0  0  # atno 8009 bound_to 7997
  156.2121  140.2996  155.9763 H   0  0  0  0  0  0  0  0  0  0  0  0  # atno 8010 bound_to 7997
  140.3232  143.3037  152.0023 H   0  0  0  0  0  0  0  0  0  0  0  0  # atno 10167 bound_to 10162
  157.2825  131.0838  151.1521 H   0  0  0  0  0  0  0  0  0  0  0  0  # atno 10718 bound_to 10713
  153.1498  135.4608  154.9619 H   0  0  0  0  0  0  0  0  0  0  0  0  # atno 10763 bound_to 10752
  154.7815  135.3190  154.7981 H   0  0  0  0  0  0  0  0  0  0  0  0  # atno 10764 bound_to 10752
  153.8488  135.6923  153.4849 H   0  0  0  0  0  0  0  0  0  0  0  0  # atno 10765 bound_to 10752
  140.3420  134.2322  155.7689 H   0  0  0  0  0  0  0  0  0  0  0  0  # atno 11005 bound_to 11000
  146.1730  140.6616  142.9224 LP  0  0  0  0  0  0  0  0  0  0  0  0  # atno 17320 bound_to 7965
  144.7403  140.4923  143.6874 LP  0  0  0  0  0  0  0  0  0  0  0  0  # atno 17321 bound_to 7965
  139.4870  144.6294  151.7100 LP  0  0  0  0  0  0  0  0  0  0  0  0  # atno 17342 bound_to 10162
  140.5464  144.0496  150.6109 LP  0  0  0  0  0  0  0  0  0  0  0  0  # atno 17343 bound_to 10162
  157.2949  130.6814  149.6133 LP  0  0  0  0  0  0  0  0  0  0  0  0  # atno 17370 bound_to 10713
  155.9665  130.4409  150.5320 LP  0  0  0  0  0  0  0  0  0  0  0  0  # atno 17371 bound_to 10713
  141.2036  133.7909  157.0332 LP  0  0  0  0  0  0  0  0  0  0  0  0  # atno 17394 bound_to 11000
  140.0773  134.9668  157.1566 LP  0  0  0  0  0  0  0  0  0  0  0  0  # atno 17395 bound_to 11000

$$$$
