AV-unprocessed.smi:2710|AV-procd|sdf|10468|dock2
  -GOLD-   2272014503D 1   1.00000     0.00000
 Structure written by MMmdl.
 53 54  0  0  0  0  0  0  0  0  2 V2000
  146.7211  133.1920  152.3023 C   0  0  0  0  0  0  0  0  0  0  0  0
  145.7025  134.3375  152.2051 C   0  0  0  0  0  0  0  0  0  0  0  0
  146.2628  135.6577  152.6012 N   0  3  2  0  0  0  0  0  0  0  0  0
  146.5601  135.7247  154.0573 C   0  0  0  0  0  0  0  0  0  0  0  0
  147.3358  137.0029  154.4151 C   0  0  0  0  0  0  0  0  0  0  0  0
  146.5783  138.2583  153.9604 C   0  0  1  0  0  0  0  0  0  0  0  0
  147.3709  139.4506  154.2481 N   0  0  0  0  0  0  0  0  0  0  0  0
  147.9527  139.7221  155.4256 C   0  0  0  0  0  0  0  0  0  0  0  0
  147.8736  138.9810  156.4045 O   0  0  0  0  0  0  0  0  0  0  0  0
  148.6237  140.8855  155.3779 N   0  0  0  0  0  0  0  0  0  0  0  0
  149.3705  141.5279  156.4030 C   0  0  0  0  0  0  0  0  0  0  0  0
  150.5602  142.1984  156.0549 C   0  0  0  0  0  0  0  0  0  0  0  0
  151.3167  142.8385  156.9706 N   0  0  0  0  0  0  0  0  0  0  0  0
  150.9154  142.7959  158.2477 C   0  0  0  0  0  0  0  0  0  0  0  0
  151.7035  143.6447  159.2609 C   0  0  0  0  0  0  0  0  0  0  0  0
  150.7749  144.6423  159.9923 C   0  0  0  0  0  0  0  0  0  0  0  0
  152.8167  144.4171  158.5293 C   0  0  0  0  0  0  0  0  0  0  0  0
  152.3290  142.7577  160.3630 C   0  0  0  0  0  0  0  0  0  0  0  0
  149.7786  142.2323  158.6771 N   0  0  0  0  0  0  0  0  0  0  0  0
  149.0125  141.5872  157.7717 C   0  0  0  0  0  0  0  0  0  0  0  0
  146.2718  138.1504  152.4545 C   0  0  0  0  0  0  0  0  0  0  0  0
  145.5132  136.8533  152.1024 C   0  0  2  0  0  0  0  0  0  0  0  0
  144.0395  136.8989  152.5614 C   0  0  0  0  0  0  0  0  0  0  0  0
  146.2333  132.2320  152.1301 H   0  0  0  0  0  0  0  0  0  0  0  0
  147.1818  133.1549  153.2900 H   0  0  0  0  0  0  0  0  0  0  0  0
  147.5132  133.2845  151.5596 H   0  0  0  0  0  0  0  0  0  0  0  0
  145.2698  134.3843  151.2057 H   0  0  0  0  0  0  0  0  0  0  0  0
  144.8761  134.1000  152.8763 H   0  0  0  0  0  0  0  0  0  0  0  0
  145.6351  135.6671  154.6320 H   0  0  0  0  0  0  0  0  0  0  0  0
  147.1578  134.8600  154.3480 H   0  0  0  0  0  0  0  0  0  0  0  0
  147.5084  137.0393  155.4914 H   0  0  0  0  0  0  0  0  0  0  0  0
  148.3200  136.9720  153.9451 H   0  0  0  0  0  0  0  0  0  0  0  0
  145.6433  138.3167  154.5205 H   0  0  0  0  0  0  0  0  0  0  0  0
  147.4935  140.1114  153.4946 H   0  0  0  0  0  0  0  0  0  0  0  0
  148.6277  141.3570  154.4852 H   0  0  0  0  0  0  0  0  0  0  0  0
  150.9077  142.2276  155.0324 H   0  0  0  0  0  0  0  0  0  0  0  0
  151.3197  145.2123  160.7459 H   0  0  0  0  0  0  0  0  0  0  0  0
  149.9582  144.1265  160.4992 H   0  0  0  0  0  0  0  0  0  0  0  0
  150.3336  145.3681  159.3082 H   0  0  0  0  0  0  0  0  0  0  0  0
  152.4041  145.0818  157.7694 H   0  0  0  0  0  0  0  0  0  0  0  0
  153.5083  143.7370  158.0304 H   0  0  0  0  0  0  0  0  0  0  0  0
  153.3978  145.0279  159.2210 H   0  0  0  0  0  0  0  0  0  0  0  0
  152.8479  143.3594  161.1100 H   0  0  0  0  0  0  0  0  0  0  0  0
  153.0623  142.0591  159.9584 H   0  0  0  0  0  0  0  0  0  0  0  0
  151.5679  142.1750  160.8831 H   0  0  0  0  0  0  0  0  0  0  0  0
  148.1106  141.1456  158.1644 H   0  0  0  0  0  0  0  0  0  0  0  0
  145.6999  139.0171  152.1201 H   0  0  0  0  0  0  0  0  0  0  0  0
  147.2084  138.1758  151.8948 H   0  0  0  0  0  0  0  0  0  0  0  0
  145.5026  136.8051  151.0141 H   0  0  0  0  0  0  0  0  0  0  0  0
  143.5504  137.8003  152.1917 H   0  0  0  0  0  0  0  0  0  0  0  0
  143.9408  136.9011  153.6464 H   0  0  0  0  0  0  0  0  0  0  0  0
  143.4685  136.0546  152.1763 H   0  0  0  0  0  0  0  0  0  0  0  0
  147.1650  135.7044  152.1495 H   0  0  0  0  0  0  0  0  0  0  0  0
  1  2  1  0  0  0  0
  1 24  1  0  0  0  0
  1 25  1  0  0  0  0
  1 26  1  0  0  0  0
  2  3  1  0  0  0  0
  2 27  1  0  0  0  0
  2 28  1  0  0  0  0
  3 22  1  0  0  0  0
  3  4  1  0  0  0  0
  3 53  1  0  0  0  0
  4  5  1  0  0  0  0
  4 29  1  0  0  0  0
  4 30  1  0  0  0  0
  5  6  1  0  0  0  0
  5 31  1  0  0  0  0
  5 32  1  0  0  0  0
  6  7  1  0  0  0  0
  6 21  1  0  0  0  0
  6 33  1  0  0  0  0
  7  8  1  0  0  0  0
  7 34  1  0  0  0  0
  8  9  2  0  0  0  0
  8 10  1  0  0  0  0
 10 11  1  0  0  0  0
 10 35  1  0  0  0  0
 11 20  1  0  0  0  0
 11 12  2  0  0  0  0
 12 13  1  0  0  0  0
 12 36  1  0  0  0  0
 13 14  2  0  0  0  0
 14 15  1  0  0  0  0
 14 19  1  0  0  0  0
 15 16  1  0  0  0  0
 15 17  1  0  0  0  0
 15 18  1  0  0  0  0
 16 37  1  0  0  0  0
 16 38  1  0  0  0  0
 16 39  1  0  0  0  0
 17 40  1  0  0  0  0
 17 41  1  0  0  0  0
 17 42  1  0  0  0  0
 18 43  1  0  0  0  0
 18 44  1  0  0  0  0
 18 45  1  0  0  0  0
 19 20  2  0  0  0  0
 20 46  1  0  0  0  0
 21 22  1  0  0  0  0
 21 47  1  0  0  0  0
 21 48  1  0  0  0  0
 22 23  1  0  0  0  0
 22 49  1  0  0  0  0
 23 50  1  0  0  0  0
 23 51  1  0  0  0  0
 23 52  1  0  0  0  0
M  CHG  1   3   1
M  END
> <s_m_source_file>
AV-unprocessed.smi

> <i_m_source_file_index>
2710

> <i_lp_mmshare_version>
43012

> <i_f3d_flags>
0

> <s_epik_input>
W0NIM11bQ0gyXU4xW0NIMl1bQ0gyXVtDQEhdKFtDSDJdW0NASF0xW0NIM10pW05IXUMoPU8pW05IXWMyW2NIXW5jKEMoW0NIM10pKFtDSDNdKVtDSDNdKW5bY0hdMg==

> <s_epik_cmdline>
J2VwaWtfcHl0aG9uJywgJy1waCcsICc3LjAnLCAnLXRuJywgJzgnLCAnLW1hJywgJzIwMCcsICctbWV0YWxfYmluZGluZycsICctaW1hZScsICc8aW5maWxlLm1hZT4nLCAnLW9tYWUnLCAnPG91dGZpbGUubWFlPic=

> <r_lp_tautomer_probability>
1

> <r_epik_Ionization_Penalty>
0.00396003

> <r_epik_Ionization_Penalty_Charging>
0.0039379

> <r_epik_Ionization_Penalty_Neutral>
2.21316e-05

> <r_epik_State_Penalty>
0.00281651

> <r_epik_Charging_Adjusted_Penalty>
0.00675441

> <i_epik_Tot_Q>
1

> <i_epik_Tot_abs_Q>
1

> <r_epik_Metal_State_Penalty>
-0

> <b_epik_Metal_Only>
0

> <s_lp_Force_Field>
OPLS_2005

> <r_lp_Energy>
21.0502

> <b_lp_Chiralities_Consistent>
1

> <s_lp_Variant>
AV-unprocessed.smi:2710-5

> <Gold.Version>
5.8.1

> <Gold.Id.Protein>
6NUR|6NUR_protein|mol2

> <Gold.PLP.Fitness>
38.0087

> <Gold.PLP.PLP>
-33.1561

> <Gold.PLP.part.hbond>
-1.5140

> <Gold.PLP.part.metal>
0.0000

> <Gold.PLP.part.buried>
-1.9919

> <Gold.PLP.part.nonpolar>
-30.1397

> <Gold.PLP.part.repulsive>
0.2567

> <Gold.PLP.ligand.clash>
0.0000

> <Gold.PLP.ligand.torsion>
0.6646

> <Gold.PLP.Chemscore.Hbond>
2.0000

> <Gold.PLP.Chemscore.CHOScore>
0.0000

> <Gold.PLP.Chemscore.Metal>
0.0000

> <Gold.Chemscore.Hbonds>
donor molecule, donor type, donor heavy atom, donor atom, acceptor molecule, acceptor atom, score
      L1  H     3    53       P1  7948  2.00

> <Gold.PLP.Chemscore.Internal.Correction>
0.1817

> <Gold.Rescore>
     Score         DG    S(hbond)    S(metal)    S(lipo)     H(rot)  DE(clash)    DE(int)     intcor
     14.31     -16.35       1.00        0.00      93.00       1.31       0.20       1.83       ----

> <Gold.Chemscore.Fitness>
14.3123

> <Gold.Chemscore.DG>
-16.3451

> <Gold.Chemscore.ZeroCoef>
-5.4800

> <Gold.Chemscore.Hbond>
0.9978

> <Gold.Chemscore.Metal>
0.0000

> <Gold.Chemscore.Lipo>
93.0015

> <Gold.Chemscore.Internal_Hbond>
0.0000

> <Gold.Chemscore.DEClash>
0.2024

> <Gold.Chemscore.DEInternal>
1.8304

> <Gold.Chemscore.Rot>
1.3081

> <Gold.Chemscore.Internal.Correction>
   9.000000E+99

> <Gold.Chemscore.Hbonds>
donor molecule, donor type, donor heavy atom, donor atom, acceptor molecule, acceptor atom, score
      L1  H     3    53       P1  7948  1.00

> <Gold.Chemscore.Hbond.Weighted>
-3.3327

> <Gold.Chemscore.Metal.Weighted>
-0.0000

> <Gold.Chemscore.Lipo.Weighted>
-10.8812

> <Gold.Chemscore.Internal_Hbond.Weighted>
0.0000

> <Gold.Chemscore.DEClash.Weighted>
0.2024

> <Gold.Chemscore.DEInternal.Weighted>
1.8304

> <Gold.Chemscore.Rot.Weighted>
3.3488

> <Gold.Chemscore.Internal.Correction.Weighted>
   9.000000E+99

> <Gold.Protein.RotatedTorsions>
[ 6907 6896 6895 6894 ] final    8.68 input  -60.11 | X-H torsion
[ 7974 7965 7964 7962 ] final  -94.23 input  175.53 | X-H torsion
[ 8008 7997 7996 7995 ] final  -22.28 input   59.86 | X-H torsion
[ 10167 10162 10161 10158 ] final  -69.21 input  -65.29 | X-H torsion
[ 10718 10713 10712 10709 ] final  127.90 input   66.30 | X-H torsion
[ 10763 10752 10751 10750 ] final   64.23 input  -60.55 | X-H torsion
[ 11005 11000 10999 10996 ] final  175.77 input  -57.11 | X-H torsion

> <Gold.Protein.ActiveResidues>
 VAL166  LYS551  ARG553  GLY616  TRP617  ASP618  TYR619  PRO620  LYS621  CYS622 
 ASP623  PHE694  ASN695  SER759  ASP760  ASP761  ALA762  ILE779  LEU786  VAL792 
 PHE793  MET794  SER795  GLU796  ALA797  LYS798  CYS799  TRP800  GLU811  SER814 

> <Gold.Protein.RotatedAtoms>
  151.7100  135.0914  160.0265 H   0  0  0  0  0  0  0  0  0  0  0  0  # atno 6907 bound_to 6896
  152.3667  133.6362  159.6064 H   0  0  0  0  0  0  0  0  0  0  0  0  # atno 6908 bound_to 6896
  150.7643  133.9252  159.3451 H   0  0  0  0  0  0  0  0  0  0  0  0  # atno 6909 bound_to 6896
  145.3761  140.9511  143.2420 H   0  0  0  0  0  0  0  0  0  0  0  0  # atno 7974 bound_to 7965
  154.4654  140.2012  156.0133 H   0  0  0  0  0  0  0  0  0  0  0  0  # atno 8008 bound_to 7997
  156.0917  140.3257  155.7795 H   0  0  0  0  0  0  0  0  0  0  0  0  # atno 8009 bound_to 7997
  155.4946  140.0549  157.2939 H   0  0  0  0  0  0  0  0  0  0  0  0  # atno 8010 bound_to 7997
  140.5448  143.2313  151.7022 H   0  0  0  0  0  0  0  0  0  0  0  0  # atno 10167 bound_to 10162
  157.5292  131.1098  150.9035 H   0  0  0  0  0  0  0  0  0  0  0  0  # atno 10718 bound_to 10713
  153.0048  135.5400  154.6478 H   0  0  0  0  0  0  0  0  0  0  0  0  # atno 10763 bound_to 10752
  154.5717  135.2842  155.0822 H   0  0  0  0  0  0  0  0  0  0  0  0  # atno 10764 bound_to 10752
  154.1985  135.6488  153.5133 H   0  0  0  0  0  0  0  0  0  0  0  0  # atno 10765 bound_to 10752
  140.3658  134.7073  157.4361 H   0  0  0  0  0  0  0  0  0  0  0  0  # atno 11005 bound_to 11000
  144.8541  139.5276  143.6842 LP  0  0  0  0  0  0  0  0  0  0  0  0  # atno 17320 bound_to 7965
  146.2863  139.7014  142.9193 LP  0  0  0  0  0  0  0  0  0  0  0  0  # atno 17321 bound_to 7965
  139.5003  144.3912  152.0278 LP  0  0  0  0  0  0  0  0  0  0  0  0  # atno 17342 bound_to 10162
  140.3024  144.3632  150.6056 LP  0  0  0  0  0  0  0  0  0  0  0  0  # atno 17343 bound_to 10162
  156.9622  130.5459  149.5286 LP  0  0  0  0  0  0  0  0  0  0  0  0  # atno 17370 bound_to 10713
  156.0410  130.5492  150.8770 LP  0  0  0  0  0  0  0  0  0  0  0  0  # atno 17371 bound_to 10713
  140.0590  134.6022  155.8771 LP  0  0  0  0  0  0  0  0  0  0  0  0  # atno 17394 bound_to 11000
  141.1970  133.6594  156.5719 LP  0  0  0  0  0  0  0  0  0  0  0  0  # atno 17395 bound_to 11000

$$$$
