AV-unprocessed.smi:3191|AV-procd|sdf|12196|dock3
  -GOLD-   2272018 33D 1   1.00000     0.00000
 Structure written by MMmdl.
 36 37  0  0  0  0  0  0  0  0  2 V2000
  152.3695  139.0237  155.6516 C   0  0  0  0  0  0  0  0  0  0  0  0
  151.0793  138.8497  154.9786 N   0  0  0  0  0  0  0  0  0  0  0  0
  150.9007  137.9424  154.0099 C   0  0  0  0  0  0  0  0  0  0  0  0
  149.6316  138.0484  153.6090 N   0  3  0  0  0  0  0  0  0  0  0  0
  148.9946  139.0264  154.3221 C   0  0  0  0  0  0  0  0  0  0  0  0
  149.9117  139.5444  155.2031 C   0  0  0  0  0  0  0  0  0  0  0  0
  149.7750  140.6221  156.2298 C   0  0  0  0  0  0  0  0  0  0  0  0
  150.8854  141.6773  156.0909 C   0  0  0  0  0  0  0  0  0  0  0  0
  151.0158  142.4758  157.3036 N   0  0  0  0  0  0  0  0  0  0  0  0
  151.4163  142.0008  158.4931 C   0  0  0  0  0  0  0  0  0  0  0  0
  151.7071  140.8171  158.6720 O   0  0  0  0  0  0  0  0  0  0  0  0
  151.4730  143.0405  159.5694 C   0  0  1  0  0  0  0  0  0  0  0  0
  152.8062  143.2962  160.2419 C   0  0  0  0  0  0  0  0  0  0  0  0
  152.2174  144.3533  159.3344 C   0  0  0  0  0  0  0  0  0  0  0  0
  152.9154  144.6852  158.0209 C   0  0  0  0  0  0  0  0  0  0  0  0
  151.6342  145.6191  159.9379 C   0  0  0  0  0  0  0  0  0  0  0  0
  150.5877  143.1046  160.2007 H   0  0  0  0  0  0  0  0  0  0  0  0
  153.0850  138.2822  155.2939 H   0  0  0  0  0  0  0  0  0  0  0  0
  152.2353  138.9039  156.7267 H   0  0  0  0  0  0  0  0  0  0  0  0
  152.7500  140.0234  155.4402 H   0  0  0  0  0  0  0  0  0  0  0  0
  151.6361  137.2584  153.6248 H   0  0  0  0  0  0  0  0  0  0  0  0
  147.9568  139.2767  154.1567 H   0  0  0  0  0  0  0  0  0  0  0  0
  148.7902  141.0810  156.1373 H   0  0  0  0  0  0  0  0  0  0  0  0
  149.8122  140.1694  157.2214 H   0  0  0  0  0  0  0  0  0  0  0  0
  151.8412  141.1897  155.8970 H   0  0  0  0  0  0  0  0  0  0  0  0
  150.6950  142.3322  155.2391 H   0  0  0  0  0  0  0  0  0  0  0  0
  150.7897  143.4576  157.2344 H   0  0  0  0  0  0  0  0  0  0  0  0
  152.7878  143.4728  161.3156 H   0  0  0  0  0  0  0  0  0  0  0  0
  153.6827  142.7567  159.8871 H   0  0  0  0  0  0  0  0  0  0  0  0
  153.5733  145.5457  158.1466 H   0  0  0  0  0  0  0  0  0  0  0  0
  152.1800  144.9224  157.2518 H   0  0  0  0  0  0  0  0  0  0  0  0
  153.5298  143.8568  157.6703 H   0  0  0  0  0  0  0  0  0  0  0  0
  152.4227  146.3457  160.1357 H   0  0  0  0  0  0  0  0  0  0  0  0
  151.1291  145.4028  160.8799 H   0  0  0  0  0  0  0  0  0  0  0  0
  150.9106  146.0660  159.2554 H   0  0  0  0  0  0  0  0  0  0  0  0
  149.2059  137.4853  152.8832 H   0  0  0  0  0  0  0  0  0  0  0  0
  1  2  1  0  0  0  0
  1 18  1  0  0  0  0
  1 19  1  0  0  0  0
  1 20  1  0  0  0  0
  2  6  1  0  0  0  0
  2  3  1  0  0  0  0
  3  4  2  0  0  0  0
  3 21  1  0  0  0  0
  4  5  1  0  0  0  0
  4 36  1  0  0  0  0
  5  6  2  0  0  0  0
  5 22  1  0  0  0  0
  6  7  1  0  0  0  0
  7  8  1  0  0  0  0
  7 23  1  0  0  0  0
  7 24  1  0  0  0  0
  8  9  1  0  0  0  0
  8 25  1  0  0  0  0
  8 26  1  0  0  0  0
  9 10  1  0  0  0  0
  9 27  1  0  0  0  0
 10 11  2  0  0  0  0
 10 12  1  0  0  0  0
 12 17  1  0  0  0  0
 12 14  1  0  0  0  0
 12 13  1  0  0  0  0
 13 14  1  0  0  0  0
 13 28  1  0  0  0  0
 13 29  1  0  0  0  0
 14 15  1  0  0  0  0
 14 16  1  0  0  0  0
 15 30  1  0  0  0  0
 15 31  1  0  0  0  0
 15 32  1  0  0  0  0
 16 33  1  0  0  0  0
 16 34  1  0  0  0  0
 16 35  1  0  0  0  0
M  CHG  1   4   1
M  END
> <s_m_source_file>
AV-unprocessed.smi

> <i_m_source_file_index>
3191

> <i_lp_mmshare_version>
43012

> <i_f3d_flags>
0

> <s_epik_input>
W0NIM11uMVtjSF1uW2NIXWMxW0NIMl1bQ0gyXVtOSF1DKD1PKVtDQEBIXShbQ0gyXTIpQzIoW0NIM10pW0NIM10=

> <s_epik_cmdline>
J2VwaWtfcHl0aG9uJywgJy1waCcsICc3LjAnLCAnLXRuJywgJzgnLCAnLW1hJywgJzIwMCcsICctbWV0YWxfYmluZGluZycsICctaW1hZScsICc8aW5maWxlLm1hZT4nLCAnLW9tYWUnLCAnPG91dGZpbGUubWFlPic=

> <r_lp_tautomer_probability>
1

> <r_epik_Ionization_Penalty>
0.153817

> <r_epik_Ionization_Penalty_Charging>
0

> <r_epik_Ionization_Penalty_Neutral>
0.153817

> <r_epik_State_Penalty>
0.14311

> <r_epik_Charging_Adjusted_Penalty>
0.14311

> <i_epik_Tot_Q>
1

> <i_epik_Tot_abs_Q>
1

> <r_epik_Metal_State_Penalty>
0.464688

> <b_epik_Metal_Only>
0

> <s_lp_Force_Field>
OPLS_2005

> <r_lp_Energy>
13.4151

> <b_lp_Chiralities_Consistent>
1

> <s_lp_Variant>
AV-unprocessed.smi:3191-1

> <Gold.Version>
5.8.1

> <Gold.Id.Protein>
6NUR|6NUR_protein|mol2

> <Gold.PLP.Fitness>
47.9522

> <Gold.PLP.PLP>
-39.6090

> <Gold.PLP.part.hbond>
-2.0000

> <Gold.PLP.part.metal>
0.0000

> <Gold.PLP.part.buried>
-4.9068

> <Gold.PLP.part.nonpolar>
-34.4264

> <Gold.PLP.part.repulsive>
0.0919

> <Gold.PLP.ligand.clash>
0.0000

> <Gold.PLP.ligand.torsion>
0.2454

> <Gold.PLP.Chemscore.Hbond>
2.0000

> <Gold.PLP.Chemscore.CHOScore>
0.9129

> <Gold.PLP.Chemscore.Metal>
0.0000

> <Gold.Chemscore.Hbonds>
donor molecule, donor type, donor heavy atom, donor atom, acceptor molecule, acceptor atom, score
      L1  H     4    36       P1  7948  2.00
      L1  C     3    21       P1  7949  0.80

> <Gold.PLP.Chemscore.Internal.Correction>
0.0954

> <Gold.Rescore>
     Score         DG    S(hbond)    S(metal)    S(lipo)     H(rot)  DE(clash)    DE(int)     intcor
     15.19     -15.42       0.97        0.00      95.76       1.76       0.02       0.21       ----

> <Gold.Chemscore.Fitness>
15.1899

> <Gold.Chemscore.DG>
-15.4203

> <Gold.Chemscore.ZeroCoef>
-5.4800

> <Gold.Chemscore.Hbond>
0.9678

> <Gold.Chemscore.Metal>
0.0000

> <Gold.Chemscore.Lipo>
95.7558

> <Gold.Chemscore.Internal_Hbond>
0.0000

> <Gold.Chemscore.DEClash>
0.0182

> <Gold.Chemscore.DEInternal>
0.2121

> <Gold.Chemscore.Rot>
1.7561

> <Gold.Chemscore.Internal.Correction>
   9.000000E+99

> <Gold.Chemscore.Hbonds>
donor molecule, donor type, donor heavy atom, donor atom, acceptor molecule, acceptor atom, score
      L1  H     4    36       P1  7948  0.97

> <Gold.Chemscore.Hbond.Weighted>
-3.2324

> <Gold.Chemscore.Metal.Weighted>
-0.0000

> <Gold.Chemscore.Lipo.Weighted>
-11.2034

> <Gold.Chemscore.Internal_Hbond.Weighted>
0.0000

> <Gold.Chemscore.DEClash.Weighted>
0.0182

> <Gold.Chemscore.DEInternal.Weighted>
0.2121

> <Gold.Chemscore.Rot.Weighted>
4.4956

> <Gold.Chemscore.Internal.Correction.Weighted>
   9.000000E+99

> <Gold.Protein.RotatedTorsions>
[ 6907 6896 6895 6894 ] final  136.59 input  -60.11 | X-H torsion
[ 7974 7965 7964 7962 ] final  175.30 input  175.53 | X-H torsion
[ 8008 7997 7996 7995 ] final   43.36 input   59.86 | X-H torsion
[ 10167 10162 10161 10158 ] final -179.60 input  -65.29 | X-H torsion
[ 10718 10713 10712 10709 ] final  -64.43 input   66.30 | X-H torsion
[ 10763 10752 10751 10750 ] final  100.58 input  -60.55 | X-H torsion
[ 11005 11000 10999 10996 ] final  170.08 input  -57.11 | X-H torsion

> <Gold.Protein.ActiveResidues>
 VAL166  LYS551  ARG553  GLY616  TRP617  ASP618  TYR619  PRO620  LYS621  CYS622 
 ASP623  PHE694  ASN695  SER759  ASP760  ASP761  ALA762  ILE779  LEU786  VAL792 
 PHE793  MET794  SER795  GLU796  ALA797  LYS798  CYS799  TRP800  GLU811  SER814 

> <Gold.Protein.RotatedAtoms>
  152.2876  133.5530  159.5536 H   0  0  0  0  0  0  0  0  0  0  0  0  # atno 6907 bound_to 6896
  150.7222  134.0474  159.3795 H   0  0  0  0  0  0  0  0  0  0  0  0  # atno 6908 bound_to 6896
  151.8382  135.0599  160.0496 H   0  0  0  0  0  0  0  0  0  0  0  0  # atno 6909 bound_to 6896
  144.7204  139.9927  143.6440 H   0  0  0  0  0  0  0  0  0  0  0  0  # atno 7974 bound_to 7965
  155.3015  140.3385  155.4247 H   0  0  0  0  0  0  0  0  0  0  0  0  # atno 8008 bound_to 7997
  156.1999  140.1729  156.7960 H   0  0  0  0  0  0  0  0  0  0  0  0  # atno 8009 bound_to 7997
  154.5546  140.0699  156.8706 H   0  0  0  0  0  0  0  0  0  0  0  0  # atno 8010 bound_to 7997
  139.5379  144.2446  152.0833 H   0  0  0  0  0  0  0  0  0  0  0  0  # atno 10167 bound_to 10162
  156.0730  130.4233  150.1419 H   0  0  0  0  0  0  0  0  0  0  0  0  # atno 10718 bound_to 10713
  153.3158  135.4074  155.1374 H   0  0  0  0  0  0  0  0  0  0  0  0  # atno 10763 bound_to 10752
  154.8588  135.3575  154.5663 H   0  0  0  0  0  0  0  0  0  0  0  0  # atno 10764 bound_to 10752
  153.6094  135.7068  153.5412 H   0  0  0  0  0  0  0  0  0  0  0  0  # atno 10765 bound_to 10752
  140.3046  134.7567  157.3943 H   0  0  0  0  0  0  0  0  0  0  0  0  # atno 11005 bound_to 11000
  146.0399  139.3412  143.0704 LP  0  0  0  0  0  0  0  0  0  0  0  0  # atno 17320 bound_to 7965
  145.8348  140.9612  143.0830 LP  0  0  0  0  0  0  0  0  0  0  0  0  # atno 17321 bound_to 7965
  140.1919  144.4743  150.6474 LP  0  0  0  0  0  0  0  0  0  0  0  0  # atno 17342 bound_to 10162
  140.6595  143.2247  151.5890 LP  0  0  0  0  0  0  0  0  0  0  0  0  # atno 17343 bound_to 10162
  156.9466  130.9761  151.3506 LP  0  0  0  0  0  0  0  0  0  0  0  0  # atno 17370 bound_to 10713
  157.5810  130.8377  149.8523 LP  0  0  0  0  0  0  0  0  0  0  0  0  # atno 17371 bound_to 10713
  140.1079  134.5385  155.8293 LP  0  0  0  0  0  0  0  0  0  0  0  0  # atno 17394 bound_to 11000
  141.2121  133.6715  156.6633 LP  0  0  0  0  0  0  0  0  0  0  0  0  # atno 17395 bound_to 11000

$$$$
