AV-unprocessed.smi:2489|AV-procd|sdf|9801|dock7
  -GOLD-   2272013433D 1   1.00000     0.00000
 Structure written by MMmdl.
 33 34  0  0  0  0  0  0  0  0  1 V2000
  153.8380  141.2761  160.4729 C   0  0  0  0  0  0  0  0  0  0  0  0
  152.9377  142.3722  160.5524 O   0  0  0  0  0  0  0  0  0  0  0  0
  152.3261  142.7771  159.3883 C   0  0  0  0  0  0  0  0  0  0  0  0
  152.4287  144.1339  158.8563 C   0  0  0  0  0  0  0  0  0  0  0  0
  151.7917  144.4168  157.7104 C   0  0  0  0  0  0  0  0  0  0  0  0
  151.0478  143.4686  157.0235 N   0  0  0  0  0  0  0  0  0  0  0  0
  150.9056  142.1454  157.4778 C   0  0  0  0  0  0  0  0  0  0  0  0
  150.2234  141.2113  156.8811 N   0  0  0  0  0  0  0  0  0  0  0  0
  149.5438  141.4242  155.6845 C   0  0  0  0  0  0  0  0  0  0  0  0
  148.8679  142.3948  155.3309 O   0  0  0  0  0  0  0  0  0  0  0  0
  149.7124  140.2428  154.7195 C   0  0  2  0  0  0  0  0  0  0  0  0
  149.2548  138.9018  155.3201 C   0  0  0  0  0  0  0  0  0  0  0  0
  150.5486  138.1364  155.5138 C   0  0  0  0  0  0  0  0  0  0  0  0
  151.4156  138.6964  154.3923 C   0  0  2  0  0  0  0  0  0  0  0  0
  152.9193  138.4865  154.5987 C   0  0  0  0  0  0  0  0  0  0  0  0
  151.0974  140.0795  154.4100 O   0  0  0  0  0  0  0  0  0  0  0  0
  151.5996  141.8482  158.7234 C   0  0  0  0  0  0  0  0  0  0  0  0
  154.2388  141.0695  161.4651 H   0  0  0  0  0  0  0  0  0  0  0  0
  154.6820  141.4974  159.8181 H   0  0  0  0  0  0  0  0  0  0  0  0
  153.3372  140.3707  160.1270 H   0  0  0  0  0  0  0  0  0  0  0  0
  152.9929  144.9103  159.3502 H   0  0  0  0  0  0  0  0  0  0  0  0
  151.8123  145.3921  157.2472 H   0  0  0  0  0  0  0  0  0  0  0  0
  149.1698  140.4430  153.7940 H   0  0  0  0  0  0  0  0  0  0  0  0
  148.6975  138.9991  156.2531 H   0  0  0  0  0  0  0  0  0  0  0  0
  148.6136  138.3801  154.6084 H   0  0  0  0  0  0  0  0  0  0  0  0
  150.9800  138.3781  156.4862 H   0  0  0  0  0  0  0  0  0  0  0  0
  150.4187  137.0556  155.4551 H   0  0  0  0  0  0  0  0  0  0  0  0
  151.1027  138.2773  153.4343 H   0  0  0  0  0  0  0  0  0  0  0  0
  153.1664  137.4249  154.6189 H   0  0  0  0  0  0  0  0  0  0  0  0
  153.2546  138.9272  155.5381 H   0  0  0  0  0  0  0  0  0  0  0  0
  153.4903  138.9472  153.7923 H   0  0  0  0  0  0  0  0  0  0  0  0
  151.5519  140.8582  159.1543 H   0  0  0  0  0  0  0  0  0  0  0  0
  150.6034  143.7772  156.1702 H   0  0  0  0  0  0  0  0  0  0  0  0
  1  2  1  0  0  0  0
  1 18  1  0  0  0  0
  1 19  1  0  0  0  0
  1 20  1  0  0  0  0
  2  3  1  0  0  0  0
  3 17  2  0  0  0  0
  3  4  1  0  0  0  0
  4  5  2  0  0  0  0
  4 21  1  0  0  0  0
  5  6  1  0  0  0  0
  5 22  1  0  0  0  0
  6  7  1  0  0  0  0
  6 33  1  0  0  0  0
  7  8  2  0  0  0  0
  7 17  1  0  0  0  0
  8  9  1  0  0  0  0
  9 10  2  0  0  0  0
  9 11  1  0  0  0  0
 11 16  1  0  0  0  0
 11 12  1  0  0  0  0
 11 23  1  0  0  0  0
 12 13  1  0  0  0  0
 12 24  1  0  0  0  0
 12 25  1  0  0  0  0
 13 14  1  0  0  0  0
 13 26  1  0  0  0  0
 13 27  1  0  0  0  0
 14 15  1  0  0  0  0
 14 16  1  0  0  0  0
 14 28  1  0  0  0  0
 15 29  1  0  0  0  0
 15 30  1  0  0  0  0
 15 31  1  0  0  0  0
 17 32  1  0  0  0  0
M  END
> <s_m_source_file>
AV-unprocessed.smi

> <i_m_source_file_index>
2489

> <i_lp_mmshare_version>
43012

> <i_f3d_flags>
0

> <s_epik_input>
W0NIM11PYzFbY0hdW2NIXW5jKFtjSF0xKVtOSF1DKD1PKVtDQEBIXTJbQ0gyXVtDSDJdW0NASF0oTzIpW0NIM10=

> <s_epik_cmdline>
J2VwaWtfcHl0aG9uJywgJy1waCcsICc3LjAnLCAnLXRuJywgJzgnLCAnLW1hJywgJzIwMCcsICctbWV0YWxfYmluZGluZycsICctaW1hZScsICc8aW5maWxlLm1hZT4nLCAnLW9tYWUnLCAnPG91dGZpbGUubWFlPic=

> <r_epik_Ionization_Penalty>
0.410206

> <r_epik_Ionization_Penalty_Charging>
0.410206

> <r_epik_Ionization_Penalty_Neutral>
6.57528e-13

> <r_epik_State_Penalty>
1.30987

> <r_epik_Charging_Adjusted_Penalty>
1.72007

> <i_epik_Tot_Q>
0

> <i_epik_Tot_abs_Q>
0

> <r_epik_Metal_State_Penalty>
1.32171

> <b_epik_Metal_Only>
0

> <s_lp_Force_Field>
OPLS_2005

> <r_lp_Energy>
35.4329

> <b_lp_Chiralities_Consistent>
1

> <s_lp_Variant>
AV-unprocessed.smi:2489-7

> <Gold.Version>
5.8.1

> <Gold.Id.Protein>
6NUR|6NUR_protein|mol2

> <Gold.PLP.Fitness>
39.4386

> <Gold.PLP.PLP>
-34.6815

> <Gold.PLP.part.hbond>
-2.0000

> <Gold.PLP.part.metal>
0.0000

> <Gold.PLP.part.buried>
-7.5212

> <Gold.PLP.part.nonpolar>
-29.7541

> <Gold.PLP.part.repulsive>
3.0564

> <Gold.PLP.ligand.clash>
0.0000

> <Gold.PLP.ligand.torsion>
0.3483

> <Gold.PLP.Chemscore.Hbond>
1.8160

> <Gold.PLP.Chemscore.CHOScore>
0.0000

> <Gold.PLP.Chemscore.Metal>
0.0000

> <Gold.Chemscore.Hbonds>
donor molecule, donor type, donor heavy atom, donor atom, acceptor molecule, acceptor atom, score
      L1  H     6    33       P1  8028  0.74
      P1  H  7989  7998       L1    16  0.47

> <Gold.PLP.Chemscore.Internal.Correction>
0.0058

> <Gold.Rescore>
     Score         DG    S(hbond)    S(metal)    S(lipo)     H(rot)  DE(clash)    DE(int)     intcor
     16.40     -18.56       1.64        0.00      91.70       1.23       0.14       2.02       ----

> <Gold.Chemscore.Fitness>
16.4042

> <Gold.Chemscore.DG>
-18.5611

> <Gold.Chemscore.ZeroCoef>
-5.4800

> <Gold.Chemscore.Hbond>
1.6443

> <Gold.Chemscore.Metal>
0.0000

> <Gold.Chemscore.Lipo>
91.6967

> <Gold.Chemscore.Internal_Hbond>
0.0000

> <Gold.Chemscore.DEClash>
0.1381

> <Gold.Chemscore.DEInternal>
2.0188

> <Gold.Chemscore.Rot>
1.2264

> <Gold.Chemscore.Internal.Correction>
   9.000000E+99

> <Gold.Chemscore.Hbonds>
donor molecule, donor type, donor heavy atom, donor atom, acceptor molecule, acceptor atom, score
      L1  H     6    33       P1  8028  0.70
      P1  H  7989  7998       L1    16  0.45

> <Gold.Chemscore.Hbond.Weighted>
-5.4921

> <Gold.Chemscore.Metal.Weighted>
-0.0000

> <Gold.Chemscore.Lipo.Weighted>
-10.7285

> <Gold.Chemscore.Internal_Hbond.Weighted>
0.0000

> <Gold.Chemscore.DEClash.Weighted>
0.1381

> <Gold.Chemscore.DEInternal.Weighted>
2.0188

> <Gold.Chemscore.Rot.Weighted>
3.1396

> <Gold.Chemscore.Internal.Correction.Weighted>
   9.000000E+99

> <Gold.Protein.RotatedTorsions>
[ 6907 6896 6895 6894 ] final   88.28 input  -60.11 | X-H torsion
[ 7974 7965 7964 7962 ] final   23.98 input  175.53 | X-H torsion
[ 8008 7997 7996 7995 ] final  -56.09 input   59.86 | X-H torsion
[ 10167 10162 10161 10158 ] final  -74.74 input  -65.29 | X-H torsion
[ 10718 10713 10712 10709 ] final   -7.91 input   66.30 | X-H torsion
[ 10763 10752 10751 10750 ] final   38.73 input  -60.55 | X-H torsion
[ 11005 11000 10999 10996 ] final   78.21 input  -57.11 | X-H torsion

> <Gold.Protein.ActiveResidues>
 VAL166  LYS551  ARG553  GLY616  TRP617  ASP618  TYR619  PRO620  LYS621  CYS622 
 ASP623  PHE694  ASN695  SER759  ASP760  ASP761  ALA762  ILE779  LEU786  VAL792 
 PHE793  MET794  SER795  GLU796  ALA797  LYS798  CYS799  TRP800  GLU811  SER814 

> <Gold.Protein.RotatedAtoms>
  152.5423  134.2146  159.8763 H   0  0  0  0  0  0  0  0  0  0  0  0  # atno 6907 bound_to 6896
  151.2127  133.4540  159.2606 H   0  0  0  0  0  0  0  0  0  0  0  0  # atno 6908 bound_to 6896
  151.0881  134.9912  159.8445 H   0  0  0  0  0  0  0  0  0  0  0  0  # atno 6909 bound_to 6896
  146.1959  139.7669  142.8797 H   0  0  0  0  0  0  0  0  0  0  0  0  # atno 7974 bound_to 7965
  154.4217  140.1138  156.5581 H   0  0  0  0  0  0  0  0  0  0  0  0  # atno 8008 bound_to 7997
  155.6339  140.3496  155.4673 H   0  0  0  0  0  0  0  0  0  0  0  0  # atno 8009 bound_to 7997
  155.9925  140.1182  157.0614 H   0  0  0  0  0  0  0  0  0  0  0  0  # atno 8010 bound_to 7997
  140.5002  143.2363  151.7765 H   0  0  0  0  0  0  0  0  0  0  0  0  # atno 10167 bound_to 10162
  156.7103  130.5120  149.5894 H   0  0  0  0  0  0  0  0  0  0  0  0  # atno 10718 bound_to 10713
  152.9991  135.6241  154.2352 H   0  0  0  0  0  0  0  0  0  0  0  0  # atno 10763 bound_to 10752
  154.2093  135.2800  155.2965 H   0  0  0  0  0  0  0  0  0  0  0  0  # atno 10764 bound_to 10752
  154.5620  135.5702  153.7074 H   0  0  0  0  0  0  0  0  0  0  0  0  # atno 10765 bound_to 10752
  139.9222  134.7745  156.1620 H   0  0  0  0  0  0  0  0  0  0  0  0  # atno 11005 bound_to 11000
  145.3644  141.0331  143.3266 LP  0  0  0  0  0  0  0  0  0  0  0  0  # atno 17320 bound_to 7965
  144.8580  139.5220  143.6825 LP  0  0  0  0  0  0  0  0  0  0  0  0  # atno 17321 bound_to 7965
  139.4870  144.4533  151.9628 LP  0  0  0  0  0  0  0  0  0  0  0  0  # atno 17342 bound_to 10162
  140.3622  144.2959  150.5932 LP  0  0  0  0  0  0  0  0  0  0  0  0  # atno 17343 bound_to 10162
  156.1666  130.6409  151.0785 LP  0  0  0  0  0  0  0  0  0  0  0  0  # atno 17370 bound_to 10713
  157.6939  131.0801  150.7027 LP  0  0  0  0  0  0  0  0  0  0  0  0  # atno 17371 bound_to 10713
  141.0752  133.6778  156.2222 LP  0  0  0  0  0  0  0  0  0  0  0  0  # atno 17394 bound_to 11000
  140.6440  134.5136  157.5572 LP  0  0  0  0  0  0  0  0  0  0  0  0  # atno 17395 bound_to 11000

$$$$
