AV-unprocessed.smi:15|AV-procd|sdf|83|dock4
  -GOLD-   2262015213D 1   1.00000     0.00000
 Structure written by MMmdl.
 53 56  0  0  0  0  0  0  0  0  1 V2000
  151.7264  139.1563  157.5885 C   0  0  0  0  0  0  0  0  0  0  0  0
  151.7953  140.6533  157.9189 C   0  0  0  0  0  0  0  0  0  0  0  0
  151.4342  141.5097  156.7855 N   0  0  0  0  0  0  0  0  0  0  0  0
  151.6724  142.9533  156.8692 C   0  0  0  0  0  0  0  0  0  0  0  0
  151.4959  143.5187  158.2901 C   0  0  2  0  0  0  0  0  0  0  0  0
  151.7005  145.0284  158.3678 C   0  0  0  0  0  0  0  0  0  0  0  0
  152.0304  145.2534  159.8330 C   0  0  0  0  0  0  0  0  0  0  0  0
  152.5418  143.8892  160.3069 C   0  0  0  0  0  0  0  0  0  0  0  0
  152.5146  143.0494  159.1593 O   0  0  0  0  0  0  0  0  0  0  0  0
  150.3267  141.1591  156.0802 C   0  0  0  0  0  0  0  0  0  0  0  0
  150.4530  140.3867  154.9674 N   0  0  0  0  0  0  0  0  0  0  0  0
  149.3721  140.0123  154.2771 C   0  0  0  0  0  0  0  0  0  0  0  0
  148.0906  140.2941  154.5174 N   0  0  0  0  0  0  0  0  0  0  0  0
  147.9563  141.0774  155.6256 C   0  0  0  0  0  0  0  0  0  0  0  0
  149.0103  141.5491  156.4582 C   0  0  0  0  0  0  0  0  0  0  0  0
  148.4861  142.3216  157.4883 N   0  0  0  0  0  0  0  0  0  0  0  0
  147.1978  142.2975  157.2832 C   0  0  0  0  0  0  0  0  0  0  0  0
  146.7928  141.5858  156.1767 N   0  0  0  0  0  0  0  0  0  0  0  0
  145.4269  141.3923  155.7155 C   0  0  0  0  0  0  0  0  0  0  0  0
  144.5908  142.6911  155.5754 C   0  0  1  0  0  0  0  0  0  0  0  0
  143.4743  142.3537  154.7695 O   0  0  0  0  0  0  0  0  0  0  0  0
  144.0811  143.2760  156.8851 C   0  0  0  0  0  0  0  0  0  0  0  0
  143.7377  144.7108  156.4962 C   0  0  0  0  0  0  0  0  0  0  0  0
  144.6828  145.0706  155.4946 O   0  0  0  0  0  0  0  0  0  0  0  0
  145.3330  143.9091  154.9814 C   0  0  2  0  0  0  0  0  0  0  0  0
  145.4462  143.9626  153.4498 C   0  0  0  0  0  0  0  0  0  0  0  0
  151.9107  138.5591  158.4813 H   0  0  0  0  0  0  0  0  0  0  0  0
  152.4746  138.8707  156.8493 H   0  0  0  0  0  0  0  0  0  0  0  0
  150.7443  138.8819  157.2026 H   0  0  0  0  0  0  0  0  0  0  0  0
  151.1107  140.8458  158.7465 H   0  0  0  0  0  0  0  0  0  0  0  0
  152.7930  140.9128  158.2737 H   0  0  0  0  0  0  0  0  0  0  0  0
  152.6676  143.1890  156.4933 H   0  0  0  0  0  0  0  0  0  0  0  0
  150.9894  143.4747  156.2004 H   0  0  0  0  0  0  0  0  0  0  0  0
  150.5169  143.2633  158.6998 H   0  0  0  0  0  0  0  0  0  0  0  0
  152.5499  145.3249  157.7504 H   0  0  0  0  0  0  0  0  0  0  0  0
  150.8281  145.5924  158.0362 H   0  0  0  0  0  0  0  0  0  0  0  0
  152.7720  146.0423  159.9619 H   0  0  0  0  0  0  0  0  0  0  0  0
  151.1374  145.5358  160.3918 H   0  0  0  0  0  0  0  0  0  0  0  0
  153.5515  143.9432  160.7143 H   0  0  0  0  0  0  0  0  0  0  0  0
  151.8862  143.4779  161.0754 H   0  0  0  0  0  0  0  0  0  0  0  0
  149.5613  139.3981  153.4091 H   0  0  0  0  0  0  0  0  0  0  0  0
  146.5030  142.8086  157.9340 H   0  0  0  0  0  0  0  0  0  0  0  0
  145.4684  140.8726  154.7572 H   0  0  0  0  0  0  0  0  0  0  0  0
  144.9344  140.7078  156.4076 H   0  0  0  0  0  0  0  0  0  0  0  0
  143.7438  141.6972  154.1453 H   0  0  0  0  0  0  0  0  0  0  0  0
  143.2356  142.7327  157.3087 H   0  0  0  0  0  0  0  0  0  0  0  0
  144.8704  143.3017  157.6353 H   0  0  0  0  0  0  0  0  0  0  0  0
  142.7368  144.7611  156.0659 H   0  0  0  0  0  0  0  0  0  0  0  0
  143.7757  145.3943  157.3445 H   0  0  0  0  0  0  0  0  0  0  0  0
  146.3380  143.9557  155.3980 H   0  0  0  0  0  0  0  0  0  0  0  0
  145.9370  143.0698  153.0620 H   0  0  0  0  0  0  0  0  0  0  0  0
  146.0351  144.8252  153.1382 H   0  0  0  0  0  0  0  0  0  0  0  0
  144.4684  144.0457  152.9747 H   0  0  0  0  0  0  0  0  0  0  0  0
  1  2  1  0  0  0  0
  1 27  1  0  0  0  0
  1 28  1  0  0  0  0
  1 29  1  0  0  0  0
  2  3  1  0  0  0  0
  2 30  1  0  0  0  0
  2 31  1  0  0  0  0
  3  4  1  0  0  0  0
  3 10  1  0  0  0  0
  4  5  1  0  0  0  0
  4 32  1  0  0  0  0
  4 33  1  0  0  0  0
  5  9  1  0  0  0  0
  5  6  1  0  0  0  0
  5 34  1  0  0  0  0
  6  7  1  0  0  0  0
  6 35  1  0  0  0  0
  6 36  1  0  0  0  0
  7  8  1  0  0  0  0
  7 37  1  0  0  0  0
  7 38  1  0  0  0  0
  8  9  1  0  0  0  0
  8 39  1  0  0  0  0
  8 40  1  0  0  0  0
 10 15  1  0  0  0  0
 10 11  2  0  0  0  0
 11 12  1  0  0  0  0
 12 13  2  0  0  0  0
 12 41  1  0  0  0  0
 13 14  1  0  0  0  0
 14 18  1  0  0  0  0
 14 15  2  0  0  0  0
 15 16  1  0  0  0  0
 16 17  2  0  0  0  0
 17 18  1  0  0  0  0
 17 42  1  0  0  0  0
 18 19  1  0  0  0  0
 19 20  1  0  0  0  0
 19 43  1  0  0  0  0
 19 44  1  0  0  0  0
 20 25  1  0  0  0  0
 20 21  1  0  0  0  0
 20 22  1  0  0  0  0
 21 45  1  0  0  0  0
 22 23  1  0  0  0  0
 22 46  1  0  0  0  0
 22 47  1  0  0  0  0
 23 24  1  0  0  0  0
 23 48  1  0  0  0  0
 23 49  1  0  0  0  0
 24 25  1  0  0  0  0
 25 26  1  0  0  0  0
 25 50  1  0  0  0  0
 26 51  1  0  0  0  0
 26 52  1  0  0  0  0
 26 53  1  0  0  0  0
M  END
> <s_m_source_file>
AV-unprocessed.smi

> <i_m_source_file_index>
15

> <i_lp_mmshare_version>
43012

> <i_f3d_flags>
0

> <s_epik_input>
TzFbQ0gyXVtDSDJdW0NIMl1bQ0BIXTFbQ0gyXU4oW0NIMl1bQ0gzXSljKG5bY0hdbjIpYyhjMjMpbltjSF1uM1tDSDJdW0NAQF00KFtPSF0pW0NIMl1bQ0gyXU9bQ0BIXTRbQ0gzXQ==

> <s_epik_cmdline>
J2VwaWtfcHl0aG9uJywgJy1waCcsICc3LjAnLCAnLXRuJywgJzgnLCAnLW1hJywgJzIwMCcsICctbWV0YWxfYmluZGluZycsICctaW1hZScsICc8aW5maWxlLm1hZT4nLCAnLW9tYWUnLCAnPG91dGZpbGUubWFlPic=

> <r_lp_tautomer_probability>
1

> <r_epik_Ionization_Penalty>
0.00360814

> <r_epik_Ionization_Penalty_Charging>
0

> <r_epik_Ionization_Penalty_Neutral>
0.00360814

> <r_epik_State_Penalty>
0.00237482

> <r_epik_Charging_Adjusted_Penalty>
0.00237482

> <i_epik_Tot_Q>
0

> <i_epik_Tot_abs_Q>
0

> <r_epik_Metal_State_Penalty>
-0

> <b_epik_Metal_Only>
0

> <s_lp_Force_Field>
OPLS_2005

> <r_lp_Energy>
48.2804

> <b_lp_Chiralities_Consistent>
1

> <s_lp_Variant>
AV-unprocessed.smi:15-5

> <Gold.Version>
5.8.1

> <Gold.Id.Protein>
6NUR|6NUR_protein|mol2

> <Gold.PLP.Fitness>
46.1815

> <Gold.PLP.PLP>
-40.2892

> <Gold.PLP.part.hbond>
-3.0000

> <Gold.PLP.part.metal>
0.0000

> <Gold.PLP.part.buried>
-6.7634

> <Gold.PLP.part.nonpolar>
-31.2049

> <Gold.PLP.part.repulsive>
0.4194

> <Gold.PLP.ligand.clash>
0.0000

> <Gold.PLP.ligand.torsion>
2.0048

> <Gold.PLP.Chemscore.Hbond>
2.0000

> <Gold.PLP.Chemscore.CHOScore>
1.0000

> <Gold.PLP.Chemscore.Metal>
0.0000

> <Gold.Chemscore.Hbonds>
donor molecule, donor type, donor heavy atom, donor atom, acceptor molecule, acceptor atom, score
      L1  H    21    45       P1 10175  0.60
      P1  H  7989  7998       L1    11  1.00
      L1  C    12    41       P1  7957  0.98

> <Gold.PLP.Chemscore.Internal.Correction>
0.9020

> <Gold.Rescore>
     Score         DG    S(hbond)    S(metal)    S(lipo)     H(rot)  DE(clash)    DE(int)     intcor
      8.40     -13.55       0.96        0.00      95.13       2.44       1.94       3.22       ----

> <Gold.Chemscore.Fitness>
8.3965

> <Gold.Chemscore.DG>
-13.5526

> <Gold.Chemscore.ZeroCoef>
-5.4800

> <Gold.Chemscore.Hbond>
0.9571

> <Gold.Chemscore.Metal>
0.0000

> <Gold.Chemscore.Lipo>
95.1320

> <Gold.Chemscore.Internal_Hbond>
0.0000

> <Gold.Chemscore.DEClash>
1.9390

> <Gold.Chemscore.DEInternal>
3.2171

> <Gold.Chemscore.Rot>
2.4431

> <Gold.Chemscore.Internal.Correction>
   9.000000E+99

> <Gold.Chemscore.Hbonds>
donor molecule, donor type, donor heavy atom, donor atom, acceptor molecule, acceptor atom, score
      L1  H    21    45       P1 10175  0.04
      P1  H  7989  7998       L1    11  0.24

> <Gold.Chemscore.Hbond.Weighted>
-3.1966

> <Gold.Chemscore.Metal.Weighted>
-0.0000

> <Gold.Chemscore.Lipo.Weighted>
-11.1304

> <Gold.Chemscore.Internal_Hbond.Weighted>
0.0000

> <Gold.Chemscore.DEClash.Weighted>
1.9390

> <Gold.Chemscore.DEInternal.Weighted>
3.2171

> <Gold.Chemscore.Rot.Weighted>
6.2544

> <Gold.Chemscore.Internal.Correction.Weighted>
   9.000000E+99

> <Gold.Protein.RotatedTorsions>
[ 6907 6896 6895 6894 ] final   45.68 input  -60.11 | X-H torsion
[ 7974 7965 7964 7962 ] final   83.49 input  175.53 | X-H torsion
[ 8008 7997 7996 7995 ] final  102.96 input   59.86 | X-H torsion
[ 10167 10162 10161 10158 ] final  -34.88 input  -65.29 | X-H torsion
[ 10718 10713 10712 10709 ] final   73.78 input   66.30 | X-H torsion
[ 10763 10752 10751 10750 ] final   21.79 input  -60.55 | X-H torsion
[ 11005 11000 10999 10996 ] final -147.08 input  -57.11 | X-H torsion

> <Gold.Protein.ActiveResidues>
 VAL166  LYS551  ARG553  GLY616  TRP617  ASP618  TYR619  PRO620  LYS621  CYS622 
 ASP623  PHE694  ASN695  SER759  ASP760  ASP761  ALA762  ILE779  LEU786  VAL792 
 PHE793  MET794  SER795  GLU796  ALA797  LYS798  CYS799  TRP800  GLU811  SER814 

> <Gold.Protein.RotatedAtoms>
  152.2474  134.8167  160.0450 H   0  0  0  0  0  0  0  0  0  0  0  0  # atno 6907 bound_to 6896
  151.8859  133.3500  159.3790 H   0  0  0  0  0  0  0  0  0  0  0  0  # atno 6908 bound_to 6896
  150.7073  134.4898  159.5554 H   0  0  0  0  0  0  0  0  0  0  0  0  # atno 6909 bound_to 6896
  145.6112  139.2368  143.2191 H   0  0  0  0  0  0  0  0  0  0  0  0  # atno 7974 bound_to 7965
  156.1441  140.3172  155.8541 H   0  0  0  0  0  0  0  0  0  0  0  0  # atno 8008 bound_to 7997
  155.4099  140.0505  157.3049 H   0  0  0  0  0  0  0  0  0  0  0  0  # atno 8009 bound_to 7997
  154.5001  140.2126  155.9377 H   0  0  0  0  0  0  0  0  0  0  0  0  # atno 8010 bound_to 7997
  140.7177  143.3517  151.2143 H   0  0  0  0  0  0  0  0  0  0  0  0  # atno 10167 bound_to 10162
  157.6563  130.9646  150.1118 H   0  0  0  0  0  0  0  0  0  0  0  0  # atno 10718 bound_to 10713
  153.0967  135.6661  153.9750 H   0  0  0  0  0  0  0  0  0  0  0  0  # atno 10763 bound_to 10752
  153.9332  135.3002  155.3446 H   0  0  0  0  0  0  0  0  0  0  0  0  # atno 10764 bound_to 10752
  154.7386  135.5090  153.9158 H   0  0  0  0  0  0  0  0  0  0  0  0  # atno 10765 bound_to 10752
  140.7754  134.3141  157.5062 H   0  0  0  0  0  0  0  0  0  0  0  0  # atno 11005 bound_to 11000
  146.1503  140.6934  142.9325 LP  0  0  0  0  0  0  0  0  0  0  0  0  # atno 17320 bound_to 7965
  144.7269  140.4553  143.6966 LP  0  0  0  0  0  0  0  0  0  0  0  0  # atno 17321 bound_to 7965
  139.7049  143.9472  152.2922 LP  0  0  0  0  0  0  0  0  0  0  0  0  # atno 17342 bound_to 10162
  139.9177  144.6818  150.8494 LP  0  0  0  0  0  0  0  0  0  0  0  0  # atno 17343 bound_to 10162
  156.2013  130.3660  149.8785 LP  0  0  0  0  0  0  0  0  0  0  0  0  # atno 17370 bound_to 10713
  156.6688  130.8812  151.3559 LP  0  0  0  0  0  0  0  0  0  0  0  0  # atno 17371 bound_to 10713
  139.8750  134.9286  156.3455 LP  0  0  0  0  0  0  0  0  0  0  0  0  # atno 17394 bound_to 11000
  140.9534  133.7436  156.0303 LP  0  0  0  0  0  0  0  0  0  0  0  0  # atno 17395 bound_to 11000

$$$$
