AV-unprocessed.smi:114|AV-procd|sdf|1109|dock10
  -GOLD-   2262018223D 1   1.00000     0.00000
 Structure written by MMmdl.
 32 34  0  0  0  0  0  0  0  0  1 V2000
  153.4333  142.6581  162.4204 N   0  0  0  0  0  0  0  0  0  0  0  0
  153.4618  142.0377  161.2326 C   0  0  0  0  0  0  0  0  0  0  0  0
  154.4441  141.1367  161.0006 N   0  0  0  0  0  0  0  0  0  0  0  0
  154.5084  140.4950  159.8277 C   0  0  0  0  0  0  0  0  0  0  0  0
  155.5239  139.6120  159.6801 F   0  0  0  0  0  0  0  0  0  0  0  0
  153.6824  140.6290  158.7850 N   0  0  0  0  0  0  0  0  0  0  0  0
  152.6895  141.5366  159.0131 C   0  0  0  0  0  0  0  0  0  0  0  0
  152.5130  142.2819  160.2100 C   0  0  0  0  0  0  0  0  0  0  0  0
  151.4064  143.1114  160.0941 N   0  0  0  0  0  0  0  0  0  0  0  0
  150.9571  142.8673  158.8925 C   0  0  0  0  0  0  0  0  0  0  0  0
  151.6705  141.9364  158.1692 N   0  0  0  0  0  0  0  0  0  0  0  0
  151.3852  141.4660  156.7738 C   0  0  2  0  0  0  0  0  0  0  0  0
  150.1558  141.9769  156.3518 O   0  0  0  0  0  0  0  0  0  0  0  0
  149.2481  140.9195  156.0462 C   0  0  1  0  0  0  0  0  0  0  0  0
  148.2587  141.3433  154.9465 C   0  0  0  0  0  0  0  0  0  0  0  0
  148.8552  142.3024  154.0999 O   0  0  0  0  0  0  0  0  0  0  0  0
  150.1595  139.7338  155.6978 C   0  0  1  0  0  0  0  0  0  0  0  0
  150.5916  139.7927  154.3502 O   0  0  0  0  0  0  0  0  0  0  0  0
  151.3369  139.9303  156.6395 C   0  0  2  0  0  0  0  0  0  0  0  0
  151.1189  139.2491  157.8626 O   0  0  0  0  0  0  0  0  0  0  0  0
  152.1727  141.9141  156.1667 H   0  0  0  0  0  0  0  0  0  0  0  0
  148.6994  140.6567  156.9513 H   0  0  0  0  0  0  0  0  0  0  0  0
  149.6582  138.7767  155.8488 H   0  0  0  0  0  0  0  0  0  0  0  0
  152.2758  139.5695  156.2172 H   0  0  0  0  0  0  0  0  0  0  0  0
  152.7100  143.3351  162.6162 H   0  0  0  0  0  0  0  0  0  0  0  0
  154.1303  142.4428  163.1187 H   0  0  0  0  0  0  0  0  0  0  0  0
  150.0850  143.3667  158.4957 H   0  0  0  0  0  0  0  0  0  0  0  0
  147.9184  140.4859  154.3648 H   0  0  0  0  0  0  0  0  0  0  0  0
  147.3781  141.8070  155.3919 H   0  0  0  0  0  0  0  0  0  0  0  0
  148.8080  143.1471  154.5210 H   0  0  0  0  0  0  0  0  0  0  0  0
  149.9661  139.3298  153.8139 H   0  0  0  0  0  0  0  0  0  0  0  0
  151.0011  138.3304  157.6757 H   0  0  0  0  0  0  0  0  0  0  0  0
  1  2  1  0  0  0  0
  1 25  1  0  0  0  0
  1 26  1  0  0  0  0
  2  8  1  0  0  0  0
  2  3  2  0  0  0  0
  3  4  1  0  0  0  0
  4  5  1  0  0  0  0
  4  6  2  0  0  0  0
  6  7  1  0  0  0  0
  7 11  1  0  0  0  0
  7  8  2  0  0  0  0
  8  9  1  0  0  0  0
  9 10  2  0  0  0  0
 10 11  1  0  0  0  0
 10 27  1  0  0  0  0
 11 12  1  0  0  0  0
 12 21  1  0  0  0  0
 12 19  1  0  0  0  0
 12 13  1  0  0  0  0
 13 14  1  0  0  0  0
 14 22  1  0  0  0  0
 14 15  1  0  0  0  0
 14 17  1  0  0  0  0
 15 16  1  0  0  0  0
 15 28  1  0  0  0  0
 15 29  1  0  0  0  0
 16 30  1  0  0  0  0
 17 23  1  0  0  0  0
 17 18  1  0  0  0  0
 17 19  1  0  0  0  0
 18 31  1  0  0  0  0
 19 24  1  0  0  0  0
 19 20  1  0  0  0  0
 20 32  1  0  0  0  0
M  END
> <s_m_source_file>
AV-unprocessed.smi

> <i_m_source_file_index>
114

> <i_lp_mmshare_version>
43012

> <i_f3d_flags>
0

> <s_epik_input>
RmMobjEpbmMoW05IMl0pYyhjMTIpbltjSF1uMltDQEBIXTNPW0NASF0oW0NIMl1bT0hdKVtDQEBIXShbT0hdKVtDQEBIXTNbT0hd

> <s_epik_cmdline>
J2VwaWtfcHl0aG9uJywgJy1waCcsICc3LjAnLCAnLXRuJywgJzgnLCAnLW1hJywgJzIwMCcsICctbWV0YWxfYmluZGluZycsICctaW1hZScsICc8aW5maWxlLm1hZT4nLCAnLW9tYWUnLCAnPG91dGZpbGUubWFlPic=

> <r_lp_tautomer_probability>
1

> <r_epik_Ionization_Penalty>
1.13199e-05

> <r_epik_Ionization_Penalty_Charging>
0

> <r_epik_Ionization_Penalty_Neutral>
1.13199e-05

> <r_epik_State_Penalty>
-0

> <r_epik_Charging_Adjusted_Penalty>
0

> <i_epik_Tot_Q>
0

> <i_epik_Tot_abs_Q>
0

> <r_epik_Metal_State_Penalty>
-0

> <b_epik_Metal_Only>
0

> <s_epik_Chemistry_Notes>
This compound contains an acetal/aminal-like group ( X-CH(R)-Y where X, Y are N, S, or O) that may be acid/base labile, releasing an aldehyde.

> <s_lp_Force_Field>
OPLS_2005

> <r_lp_Energy>
40.543

> <b_lp_Chiralities_Consistent>
1

> <s_lp_Variant>
AV-unprocessed.smi:114-3

> <Gold.Version>
5.8.1

> <Gold.Id.Protein>
6NUR|6NUR_protein|mol2

> <Gold.PLP.Fitness>
40.7185

> <Gold.PLP.PLP>
-32.8123

> <Gold.PLP.part.hbond>
-4.6167

> <Gold.PLP.part.metal>
0.0000

> <Gold.PLP.part.buried>
-4.8660

> <Gold.PLP.part.nonpolar>
-22.1665

> <Gold.PLP.part.repulsive>
0.2244

> <Gold.PLP.ligand.clash>
0.0000

> <Gold.PLP.ligand.torsion>
0.5261

> <Gold.PLP.Chemscore.Hbond>
2.9854

> <Gold.PLP.Chemscore.CHOScore>
0.0000

> <Gold.PLP.Chemscore.Metal>
0.0000

> <Gold.Chemscore.Hbonds>
donor molecule, donor type, donor heavy atom, donor atom, acceptor molecule, acceptor atom, score
      L1  H    16    30       P1  8028  1.00
      P1  H  7989  7998       L1    18  1.00
      P1  H  7997  8010       L1     6  0.70
      P1  H  8011  8017       L1    16  0.24

> <Gold.PLP.Chemscore.Internal.Correction>
0.0020

> <Gold.Rescore>
     Score         DG    S(hbond)    S(metal)    S(lipo)     H(rot)  DE(clash)    DE(int)     intcor
      5.51      -7.62       2.61        0.00      31.94       4.03       0.41       1.71       ----

> <Gold.Chemscore.Fitness>
5.5054

> <Gold.Chemscore.DG>
-7.6169

> <Gold.Chemscore.ZeroCoef>
-5.4800

> <Gold.Chemscore.Hbond>
2.6080

> <Gold.Chemscore.Metal>
0.0000

> <Gold.Chemscore.Lipo>
31.9415

> <Gold.Chemscore.Internal_Hbond>
0.0000

> <Gold.Chemscore.DEClash>
0.4051

> <Gold.Chemscore.DEInternal>
1.7064

> <Gold.Chemscore.Rot>
4.0277

> <Gold.Chemscore.Internal.Correction>
   9.000000E+99

> <Gold.Chemscore.Hbonds>
donor molecule, donor type, donor heavy atom, donor atom, acceptor molecule, acceptor atom, score
      L1  H    16    30       P1  8028  1.00
      P1  H  7989  7998       L1    18  0.88
      P1  H  7997  8010       L1     6  0.33
      P1  H  8011  8017       L1    16  0.17

> <Gold.Chemscore.Hbond.Weighted>
-8.7107

> <Gold.Chemscore.Metal.Weighted>
-0.0000

> <Gold.Chemscore.Lipo.Weighted>
-3.7372

> <Gold.Chemscore.Internal_Hbond.Weighted>
0.0000

> <Gold.Chemscore.DEClash.Weighted>
0.4051

> <Gold.Chemscore.DEInternal.Weighted>
1.7064

> <Gold.Chemscore.Rot.Weighted>
10.3110

> <Gold.Chemscore.Internal.Correction.Weighted>
   9.000000E+99

> <Gold.Protein.RotatedTorsions>
[ 6907 6896 6895 6894 ] final  150.74 input  -60.11 | X-H torsion
[ 7974 7965 7964 7962 ] final  -66.38 input  175.53 | X-H torsion
[ 8008 7997 7996 7995 ] final   20.77 input   59.86 | X-H torsion
[ 10167 10162 10161 10158 ] final  162.61 input  -65.29 | X-H torsion
[ 10718 10713 10712 10709 ] final  -20.58 input   66.30 | X-H torsion
[ 10763 10752 10751 10750 ] final  111.84 input  -60.55 | X-H torsion
[ 11005 11000 10999 10996 ] final   32.01 input  -57.11 | X-H torsion

> <Gold.Protein.ActiveResidues>
 VAL166  LYS551  ARG553  GLY616  TRP617  ASP618  TYR619  PRO620  LYS621  CYS622 
 ASP623  PHE694  ASN695  SER759  ASP760  ASP761  ALA762  ILE779  LEU786  VAL792 
 PHE793  MET794  SER795  GLU796  ALA797  LYS798  CYS799  TRP800  GLU811  SER814 

> <Gold.Protein.RotatedAtoms>
  152.1102  133.4296  159.4627 H   0  0  0  0  0  0  0  0  0  0  0  0  # atno 6907 bound_to 6896
  150.6867  134.2657  159.4576 H   0  0  0  0  0  0  0  0  0  0  0  0  # atno 6908 bound_to 6896
  152.0525  134.9644  160.0625 H   0  0  0  0  0  0  0  0  0  0  0  0  # atno 6909 bound_to 6896
  145.7425  140.8947  143.0522 H   0  0  0  0  0  0  0  0  0  0  0  0  # atno 7974 bound_to 7965
  154.9406  140.3052  155.5122 H   0  0  0  0  0  0  0  0  0  0  0  0  # atno 8008 bound_to 7997
  156.2996  140.2337  156.4412 H   0  0  0  0  0  0  0  0  0  0  0  0  # atno 8009 bound_to 7997
  154.8149  140.0426  157.1358 H   0  0  0  0  0  0  0  0  0  0  0  0  # atno 8010 bound_to 7997
  139.4863  144.4420  151.8939 H   0  0  0  0  0  0  0  0  0  0  0  0  # atno 10167 bound_to 10162
  156.5299  130.4652  149.6552 H   0  0  0  0  0  0  0  0  0  0  0  0  # atno 10718 bound_to 10713
  153.4692  135.3704  155.2381 H   0  0  0  0  0  0  0  0  0  0  0  0  # atno 10763 bound_to 10752
  154.8757  135.3927  154.3833 H   0  0  0  0  0  0  0  0  0  0  0  0  # atno 10764 bound_to 10752
  153.4418  135.7084  153.6228 H   0  0  0  0  0  0  0  0  0  0  0  0  # atno 10765 bound_to 10752
  140.2779  134.3006  155.7809 H   0  0  0  0  0  0  0  0  0  0  0  0  # atno 11005 bound_to 11000
  144.6867  139.9480  143.7477 LP  0  0  0  0  0  0  0  0  0  0  0  0  # atno 17320 bound_to 7965
  146.0434  139.3443  143.0683 LP  0  0  0  0  0  0  0  0  0  0  0  0  # atno 17321 bound_to 7965
  140.3872  144.2661  150.5903 LP  0  0  0  0  0  0  0  0  0  0  0  0  # atno 17342 bound_to 10162
  140.5179  143.2273  151.8435 LP  0  0  0  0  0  0  0  0  0  0  0  0  # atno 17343 bound_to 10162
  156.3070  130.7208  151.2092 LP  0  0  0  0  0  0  0  0  0  0  0  0  # atno 17370 bound_to 10713
  157.7423  131.0491  150.5031 LP  0  0  0  0  0  0  0  0  0  0  0  0  # atno 17371 bound_to 10713
  141.2167  133.7507  156.9436 LP  0  0  0  0  0  0  0  0  0  0  0  0  # atno 17394 bound_to 11000
  140.1311  134.9355  157.2338 LP  0  0  0  0  0  0  0  0  0  0  0  0  # atno 17395 bound_to 11000

$$$$
