AV-unprocessed.smi:1824|AV-procd|sdf|7408|dock5
  -GOLD-   22720 9 83D 1   1.00000     0.00000
 Structure written by MMmdl.
 45 47  0  0  0  0  0  0  0  0  2 V2000
  148.6461  134.3452  158.2518 C   0  0  0  0  0  0  0  0  0  0  0  0
  148.8415  134.7994  156.8016 C   0  0  1  0  0  0  0  0  0  0  0  0
  149.9329  135.8791  156.6708 C   0  0  0  0  0  0  0  0  0  0  0  0
  150.1688  136.2513  155.2771 N   0  0  0  0  0  0  0  0  0  0  0  0
  151.2164  137.2629  155.1284 C   0  0  0  0  0  0  0  0  0  0  0  0
  150.7592  138.7237  155.3123 C   0  0  2  0  0  0  0  0  0  0  0  0
  150.7417  139.3470  154.0434 O   0  0  0  0  0  0  0  0  0  0  0  0
  151.7043  139.4960  156.2533 C   0  0  0  0  0  0  0  0  0  0  0  0
  151.1546  140.7911  156.6805 N   0  0  0  0  0  0  0  0  0  0  0  0
  150.2167  141.5748  156.0823 C   0  0  0  0  0  0  0  0  0  0  0  0
  150.0419  142.6768  156.8630 N   0  3  0  0  0  0  0  0  0  0  0  0
  150.8812  142.5976  157.9764 C   0  0  0  0  0  0  0  0  0  0  0  0
  151.0624  143.4704  159.0443 C   0  0  0  0  0  0  0  0  0  0  0  0
  152.0074  143.0921  160.0202 C   0  0  0  0  0  0  0  0  0  0  0  0
  152.2232  143.9058  161.0807 F   0  0  0  0  0  0  0  0  0  0  0  0
  152.7313  141.8855  159.9122 C   0  0  0  0  0  0  0  0  0  0  0  0
  153.6312  141.5612  160.8704 F   0  0  0  0  0  0  0  0  0  0  0  0
  152.5377  141.0083  158.8250 C   0  0  0  0  0  0  0  0  0  0  0  0
  151.6004  141.3890  157.8654 C   0  0  0  0  0  0  0  0  0  0  0  0
  150.4984  135.0485  154.5205 C   0  0  0  0  0  0  0  0  0  0  0  0
  149.4069  133.9687  154.6446 C   0  0  1  0  0  0  0  0  0  0  0  0
  149.7854  132.6758  153.9146 C   0  0  0  0  0  0  0  0  0  0  0  0
  149.2107  133.6651  156.0227 O   0  0  0  0  0  0  0  0  0  0  0  0
  148.3480  135.1796  158.8868 H   0  0  0  0  0  0  0  0  0  0  0  0
  149.5647  133.9234  158.6606 H   0  0  0  0  0  0  0  0  0  0  0  0
  147.8699  133.5827  158.3193 H   0  0  0  0  0  0  0  0  0  0  0  0
  147.8943  135.1914  156.4271 H   0  0  0  0  0  0  0  0  0  0  0  0
  149.6284  136.7487  157.2512 H   0  0  0  0  0  0  0  0  0  0  0  0
  150.8595  135.5137  157.1166 H   0  0  0  0  0  0  0  0  0  0  0  0
  152.0202  137.0469  155.8339 H   0  0  0  0  0  0  0  0  0  0  0  0
  151.6640  137.1742  154.1372 H   0  0  0  0  0  0  0  0  0  0  0  0
  149.7539  138.7657  155.7296 H   0  0  0  0  0  0  0  0  0  0  0  0
  149.9079  139.1650  153.6362 H   0  0  0  0  0  0  0  0  0  0  0  0
  151.8816  138.9124  157.1576 H   0  0  0  0  0  0  0  0  0  0  0  0
  152.6819  139.6513  155.7957 H   0  0  0  0  0  0  0  0  0  0  0  0
  149.7035  141.3609  155.1559 H   0  0  0  0  0  0  0  0  0  0  0  0
  150.5121  144.3956  159.1301 H   0  0  0  0  0  0  0  0  0  0  0  0
  153.1024  140.0911  158.7498 H   0  0  0  0  0  0  0  0  0  0  0  0
  150.6338  135.3014  153.4680 H   0  0  0  0  0  0  0  0  0  0  0  0
  151.4504  134.6440  154.8683 H   0  0  0  0  0  0  0  0  0  0  0  0
  148.4711  134.3458  154.2283 H   0  0  0  0  0  0  0  0  0  0  0  0
  149.9400  132.8564  152.8507 H   0  0  0  0  0  0  0  0  0  0  0  0
  148.9980  131.9284  154.0133 H   0  0  0  0  0  0  0  0  0  0  0  0
  150.7035  132.2483  154.3190 H   0  0  0  0  0  0  0  0  0  0  0  0
  149.3971  143.4268  156.6480 H   0  0  0  0  0  0  0  0  0  0  0  0
  1  2  1  0  0  0  0
  1 24  1  0  0  0  0
  1 25  1  0  0  0  0
  1 26  1  0  0  0  0
  2 23  1  0  0  0  0
  2  3  1  0  0  0  0
  2 27  1  0  0  0  0
  3  4  1  0  0  0  0
  3 28  1  0  0  0  0
  3 29  1  0  0  0  0
  4  5  1  0  0  0  0
  4 20  1  0  0  0  0
  5  6  1  0  0  0  0
  5 30  1  0  0  0  0
  5 31  1  0  0  0  0
  6  7  1  0  0  0  0
  6  8  1  0  0  0  0
  6 32  1  0  0  0  0
  7 33  1  0  0  0  0
  8  9  1  0  0  0  0
  8 34  1  0  0  0  0
  8 35  1  0  0  0  0
  9 19  1  0  0  0  0
  9 10  1  0  0  0  0
 10 11  2  0  0  0  0
 10 36  1  0  0  0  0
 11 12  1  0  0  0  0
 11 45  1  0  0  0  0
 12 19  2  0  0  0  0
 12 13  1  0  0  0  0
 13 14  2  0  0  0  0
 13 37  1  0  0  0  0
 14 15  1  0  0  0  0
 14 16  1  0  0  0  0
 16 17  1  0  0  0  0
 16 18  2  0  0  0  0
 18 19  1  0  0  0  0
 18 38  1  0  0  0  0
 20 21  1  0  0  0  0
 20 39  1  0  0  0  0
 20 40  1  0  0  0  0
 21 22  1  0  0  0  0
 21 23  1  0  0  0  0
 21 41  1  0  0  0  0
 22 42  1  0  0  0  0
 22 43  1  0  0  0  0
 22 44  1  0  0  0  0
M  CHG  1  11   1
M  END
> <s_m_source_file>
AV-unprocessed.smi

> <i_m_source_file_index>
1824

> <i_lp_mmshare_version>
43012

> <i_f3d_flags>
0

> <s_epik_input>
W0NIM11bQ0BASF0xW0NIMl1OKFtDSDJdW0NASF0oTzEpW0NIM10pW0NIMl1bQ0BIXShbT0hdKVtDSDJdbihbY0hdbjIpYyhjMjMpW2NIXWMoRiljKEYpW2NIXTM=

> <s_epik_cmdline>
J2VwaWtfcHl0aG9uJywgJy1waCcsICc3LjAnLCAnLXRuJywgJzgnLCAnLW1hJywgJzIwMCcsICctbWV0YWxfYmluZGluZycsICctaW1hZScsICc8aW5maWxlLm1hZT4nLCAnLW9tYWUnLCAnPG91dGZpbGUubWFlPic=

> <r_epik_Ionization_Penalty>
2.58709

> <r_epik_Ionization_Penalty_Charging>
2.37273

> <r_epik_Ionization_Penalty_Neutral>
0.214359

> <r_epik_State_Penalty>
2.71799

> <r_epik_Charging_Adjusted_Penalty>
5.09071

> <i_epik_Tot_Q>
1

> <i_epik_Tot_abs_Q>
1

> <r_epik_Metal_State_Penalty>
6.80217

> <b_epik_Metal_Only>
0

> <s_lp_Force_Field>
OPLS_2005

> <r_lp_Energy>
32.0118

> <b_lp_Chiralities_Consistent>
1

> <s_lp_Variant>
AV-unprocessed.smi:1824-16

> <Gold.Version>
5.8.1

> <Gold.Id.Protein>
6NUR|6NUR_protein|mol2

> <Gold.PLP.Fitness>
50.8692

> <Gold.PLP.PLP>
-44.5634

> <Gold.PLP.part.hbond>
-2.5805

> <Gold.PLP.part.metal>
0.0000

> <Gold.PLP.part.buried>
-5.2731

> <Gold.PLP.part.nonpolar>
-37.8549

> <Gold.PLP.part.repulsive>
0.1691

> <Gold.PLP.ligand.clash>
0.0000

> <Gold.PLP.ligand.torsion>
1.3594

> <Gold.PLP.Chemscore.Hbond>
3.0000

> <Gold.PLP.Chemscore.CHOScore>
0.0000

> <Gold.PLP.Chemscore.Metal>
0.0000

> <Gold.Chemscore.Hbonds>
donor molecule, donor type, donor heavy atom, donor atom, acceptor molecule, acceptor atom, score
      L1  H    11    45       P1  8028  2.00
      P1  H  7989  7998       L1     7  1.00

> <Gold.PLP.Chemscore.Internal.Correction>
0.0246

> <Gold.Rescore>
     Score         DG    S(hbond)    S(metal)    S(lipo)     H(rot)  DE(clash)    DE(int)     intcor
     15.91     -17.59       1.93        0.00      99.23       2.32       0.29       1.39       ----

> <Gold.Chemscore.Fitness>
15.9141

> <Gold.Chemscore.DG>
-17.5927

> <Gold.Chemscore.ZeroCoef>
-5.4800

> <Gold.Chemscore.Hbond>
1.9295

> <Gold.Chemscore.Metal>
0.0000

> <Gold.Chemscore.Lipo>
99.2293

> <Gold.Chemscore.Internal_Hbond>
0.0000

> <Gold.Chemscore.DEClash>
0.2874

> <Gold.Chemscore.DEInternal>
1.3913

> <Gold.Chemscore.Rot>
2.3210

> <Gold.Chemscore.Internal.Correction>
   9.000000E+99

> <Gold.Chemscore.Hbonds>
donor molecule, donor type, donor heavy atom, donor atom, acceptor molecule, acceptor atom, score
      L1  H    11    45       P1  8028  0.96
      P1  H  7989  7998       L1     7  0.94

> <Gold.Chemscore.Hbond.Weighted>
-6.4445

> <Gold.Chemscore.Metal.Weighted>
-0.0000

> <Gold.Chemscore.Lipo.Weighted>
-11.6098

> <Gold.Chemscore.Internal_Hbond.Weighted>
0.0000

> <Gold.Chemscore.DEClash.Weighted>
0.2874

> <Gold.Chemscore.DEInternal.Weighted>
1.3913

> <Gold.Chemscore.Rot.Weighted>
5.9416

> <Gold.Chemscore.Internal.Correction.Weighted>
   9.000000E+99

> <Gold.Protein.RotatedTorsions>
[ 6907 6896 6895 6894 ] final  103.25 input  -60.11 | X-H torsion
[ 7974 7965 7964 7962 ] final  -22.75 input  175.53 | X-H torsion
[ 8008 7997 7996 7995 ] final -153.70 input   59.86 | X-H torsion
[ 10167 10162 10161 10158 ] final -152.48 input  -65.29 | X-H torsion
[ 10718 10713 10712 10709 ] final  169.90 input   66.30 | X-H torsion
[ 10763 10752 10751 10750 ] final  -93.44 input  -60.55 | X-H torsion
[ 11005 11000 10999 10996 ] final -129.74 input  -57.11 | X-H torsion

> <Gold.Protein.ActiveResidues>
 VAL166  LYS551  ARG553  GLY616  TRP617  ASP618  TYR619  PRO620  LYS621  CYS622 
 ASP623  PHE694  ASN695  SER759  ASP760  ASP761  ALA762  ILE779  LEU786  VAL792 
 PHE793  MET794  SER795  GLU796  ALA797  LYS798  CYS799  TRP800  GLU811  SER814 

> <Gold.Protein.RotatedAtoms>
  152.5301  133.9854  159.7825 H   0  0  0  0  0  0  0  0  0  0  0  0  # atno 6907 bound_to 6896
  151.0099  133.5967  159.2691 H   0  0  0  0  0  0  0  0  0  0  0  0  # atno 6908 bound_to 6896
  151.3045  135.0784  159.9303 H   0  0  0  0  0  0  0  0  0  0  0  0  # atno 6909 bound_to 6896
  146.1657  140.4522  142.8553 H   0  0  0  0  0  0  0  0  0  0  0  0  # atno 7974 bound_to 7965
  155.6749  140.0737  157.2506 H   0  0  0  0  0  0  0  0  0  0  0  0  # atno 8008 bound_to 7997
  154.4116  140.1692  156.1971 H   0  0  0  0  0  0  0  0  0  0  0  0  # atno 8009 bound_to 7997
  155.9585  140.3372  155.6472 H   0  0  0  0  0  0  0  0  0  0  0  0  # atno 8010 bound_to 7997
  139.7178  143.9005  152.2492 H   0  0  0  0  0  0  0  0  0  0  0  0  # atno 10167 bound_to 10162
  157.0159  131.0218  151.2789 H   0  0  0  0  0  0  0  0  0  0  0  0  # atno 10718 bound_to 10713
  154.6959  135.5194  153.8457 H   0  0  0  0  0  0  0  0  0  0  0  0  # atno 10763 bound_to 10752
  153.0667  135.6587  154.0348 H   0  0  0  0  0  0  0  0  0  0  0  0  # atno 10764 bound_to 10752
  154.0215  135.2993  155.3360 H   0  0  0  0  0  0  0  0  0  0  0  0  # atno 10765 bound_to 10752
  140.9406  134.1199  157.4154 H   0  0  0  0  0  0  0  0  0  0  0  0  # atno 11005 bound_to 11000
  144.8089  140.6350  143.6428 LP  0  0  0  0  0  0  0  0  0  0  0  0  # atno 17320 bound_to 7965
  145.4474  139.1528  143.3937 LP  0  0  0  0  0  0  0  0  0  0  0  0  # atno 17321 bound_to 7965
  139.8893  144.6975  150.8789 LP  0  0  0  0  0  0  0  0  0  0  0  0  # atno 17342 bound_to 10162
  140.7747  143.3599  151.1848 LP  0  0  0  0  0  0  0  0  0  0  0  0  # atno 17343 bound_to 10162
  157.5286  130.8043  149.7890 LP  0  0  0  0  0  0  0  0  0  0  0  0  # atno 17370 bound_to 10713
  156.0119  130.3829  150.2236 LP  0  0  0  0  0  0  0  0  0  0  0  0  # atno 17371 bound_to 10713
  139.8819  135.0035  156.6191 LP  0  0  0  0  0  0  0  0  0  0  0  0  # atno 17394 bound_to 11000
  140.7740  133.8715  155.8514 LP  0  0  0  0  0  0  0  0  0  0  0  0  # atno 17395 bound_to 11000

$$$$
