AV-unprocessed.smi:37|AV-procd|sdf|333|dock7
  -GOLD-   2262016163D 1   1.00000     0.00000
 Structure written by MMmdl.
 43 44  0  0  0  0  0  0  0  0  2 V2000
  145.7873  142.6981  156.2841 C   0  0  0  0  0  0  0  0  0  0  0  0
  145.5408  142.6578  157.8001 C   0  0  0  0  0  0  0  0  0  0  0  0
  146.8190  142.4876  158.6240 C   0  0  0  0  0  0  0  0  0  0  0  0
  146.8074  142.4419  159.8552 O   0  0  0  0  0  0  0  0  0  0  0  0
  147.9115  142.4035  157.8432 O   0  0  0  0  0  0  0  0  0  0  0  0
  149.2009  142.2367  158.4178 C   0  0  0  0  0  0  0  0  0  0  0  0
  150.2921  142.2819  157.3302 C   0  0  2  0  0  0  0  0  0  0  0  0
  150.0717  141.1968  156.4263 O   0  0  0  0  0  0  0  0  0  0  0  0
  151.2883  140.5903  156.1326 C   0  0  2  0  0  0  0  0  0  0  0  0
  151.0698  139.1670  155.6735 N   0  0  0  0  0  0  0  0  0  0  0  0
  149.7971  138.6319  155.5599 C   0  0  0  0  0  0  0  0  0  0  0  0
  149.6083  137.3599  155.1540 C   0  0  0  0  0  0  0  0  0  0  0  0
  148.3618  136.8659  155.0589 F   0  0  0  0  0  0  0  0  0  0  0  0
  150.7634  136.5270  154.8232 C   0  0  0  0  0  0  0  0  0  0  0  0
  150.5851  135.3682  154.4512 O   0  0  0  0  0  0  0  0  0  0  0  0
  152.0048  137.0810  154.9438 N   0  5  0  0  0  0  0  0  0  0  0  0
  152.2006  138.3674  155.3568 C   0  0  0  0  0  0  0  0  0  0  0  0
  153.3158  138.8766  155.4719 O   0  0  0  0  0  0  0  0  0  0  0  0
  152.0983  140.6814  157.4220 C   0  0  2  0  0  0  0  0  0  0  0  0
  151.4671  139.3539  158.7793 Br  0  0  0  0  0  0  0  0  0  0  0  0
  151.7360  142.0968  157.8498 C   0  0  2  0  0  0  0  0  0  0  0  0
  151.8863  142.3103  159.2500 O   0  0  0  0  0  0  0  0  0  0  0  0
  152.1428  143.5405  159.7284 C   0  0  0  0  0  0  0  0  0  0  0  0
  152.3751  144.5419  159.0491 O   0  0  0  0  0  0  0  0  0  0  0  0
  152.1253  143.5717  161.2580 C   0  0  0  0  0  0  0  0  0  0  0  0
  153.0951  142.5715  161.9050 C   0  0  0  0  0  0  0  0  0  0  0  0
  144.8487  142.8312  155.7464 H   0  0  0  0  0  0  0  0  0  0  0  0
  146.2426  141.7730  155.9287 H   0  0  0  0  0  0  0  0  0  0  0  0
  146.4439  143.5249  156.0101 H   0  0  0  0  0  0  0  0  0  0  0  0
  145.0479  143.5779  158.1145 H   0  0  0  0  0  0  0  0  0  0  0  0
  144.8624  141.8389  158.0405 H   0  0  0  0  0  0  0  0  0  0  0  0
  149.3392  143.0695  159.1070 H   0  0  0  0  0  0  0  0  0  0  0  0
  149.2717  141.3263  159.0147 H   0  0  0  0  0  0  0  0  0  0  0  0
  150.2316  143.2264  156.7883 H   0  0  0  0  0  0  0  0  0  0  0  0
  151.7492  141.1148  155.2930 H   0  0  0  0  0  0  0  0  0  0  0  0
  148.9322  139.2273  155.8065 H   0  0  0  0  0  0  0  0  0  0  0  0
  153.1636  140.5301  157.2465 H   0  0  0  0  0  0  0  0  0  0  0  0
  152.3654  142.7968  157.2973 H   0  0  0  0  0  0  0  0  0  0  0  0
  152.3673  144.5829  161.5862 H   0  0  0  0  0  0  0  0  0  0  0  0
  151.1091  143.3658  161.5950 H   0  0  0  0  0  0  0  0  0  0  0  0
  153.0370  142.6293  162.9919 H   0  0  0  0  0  0  0  0  0  0  0  0
  154.1275  142.7760  161.6190 H   0  0  0  0  0  0  0  0  0  0  0  0
  152.8600  141.5462  161.6171 H   0  0  0  0  0  0  0  0  0  0  0  0
  1  2  1  0  0  0  0
  1 27  1  0  0  0  0
  1 28  1  0  0  0  0
  1 29  1  0  0  0  0
  2  3  1  0  0  0  0
  2 30  1  0  0  0  0
  2 31  1  0  0  0  0
  3  4  2  0  0  0  0
  3  5  1  0  0  0  0
  5  6  1  0  0  0  0
  6  7  1  0  0  0  0
  6 32  1  0  0  0  0
  6 33  1  0  0  0  0
  7 21  1  0  0  0  0
  7  8  1  0  0  0  0
  7 34  1  0  0  0  0
  8  9  1  0  0  0  0
  9 10  1  0  0  0  0
  9 19  1  0  0  0  0
  9 35  1  0  0  0  0
 10 17  1  0  0  0  0
 10 11  1  0  0  0  0
 11 12  2  0  0  0  0
 11 36  1  0  0  0  0
 12 13  1  0  0  0  0
 12 14  1  0  0  0  0
 14 15  2  0  0  0  0
 14 16  1  0  0  0  0
 16 17  1  0  0  0  0
 17 18  2  0  0  0  0
 19 20  1  0  0  0  0
 19 21  1  0  0  0  0
 19 37  1  0  0  0  0
 21 22  1  0  0  0  0
 21 38  1  0  0  0  0
 22 23  1  0  0  0  0
 23 24  2  0  0  0  0
 23 25  1  0  0  0  0
 25 26  1  0  0  0  0
 25 39  1  0  0  0  0
 25 40  1  0  0  0  0
 26 41  1  0  0  0  0
 26 42  1  0  0  0  0
 26 43  1  0  0  0  0
M  CHG  1  16  -1
M  END
> <s_m_source_file>
AV-unprocessed.smi

> <i_m_source_file_index>
37

> <i_lp_mmshare_version>
43012

> <i_f3d_flags>
0

> <s_epik_input>
W0NIM11bQ0gyXUMoPU8pT1tDSDJdW0NAQEhdMU9bQ0BASF0objJbY0hdYyhGKWMoPU8pW25IXWMyPU8pW0NAQEhdKEJyKVtDQEhdMU9DKD1PKVtDSDJdW0NIM10=

> <s_epik_cmdline>
J2VwaWtfcHl0aG9uJywgJy1waCcsICc3LjAnLCAnLXRuJywgJzgnLCAnLW1hJywgJzIwMCcsICctbWV0YWxfYmluZGluZycsICctaW1hZScsICc8aW5maWxlLm1hZT4nLCAnLW9tYWUnLCAnPG91dGZpbGUubWFlPic=

> <r_epik_Ionization_Penalty>
1.08158

> <r_epik_Ionization_Penalty_Charging>
9.05154e-09

> <r_epik_Ionization_Penalty_Neutral>
1.08158

> <r_epik_State_Penalty>
1.13706

> <r_epik_Charging_Adjusted_Penalty>
1.13706

> <i_epik_Tot_Q>
-1

> <i_epik_Tot_abs_Q>
1

> <r_epik_Metal_State_Penalty>
0.00343535

> <b_epik_Metal_Only>
0

> <s_epik_Chemistry_Notes>
This compound has an ester and may undergo hydrolysis at high or low pH. This compound contains an acetal/aminal-like group ( X-CH(R)-Y where X, Y are N, S, or O) that may be acid/base labile, releasing an aldehyde.

> <s_lp_Force_Field>
OPLS_2005

> <r_lp_Energy>
37.8596

> <b_lp_Chiralities_Consistent>
1

> <s_lp_Variant>
AV-unprocessed.smi:37-31

> <Gold.Version>
5.8.1

> <Gold.Id.Protein>
6NUR|6NUR_protein|mol2

> <Gold.PLP.Fitness>
51.0527

> <Gold.PLP.PLP>
-39.2836

> <Gold.PLP.part.hbond>
-3.6505

> <Gold.PLP.part.metal>
0.0000

> <Gold.PLP.part.buried>
-8.7668

> <Gold.PLP.part.nonpolar>
-28.1749

> <Gold.PLP.part.repulsive>
1.1501

> <Gold.PLP.ligand.clash>
0.0000

> <Gold.PLP.ligand.torsion>
0.3920

> <Gold.PLP.Chemscore.Hbond>
4.1355

> <Gold.PLP.Chemscore.CHOScore>
0.0000

> <Gold.PLP.Chemscore.Metal>
0.0000

> <Gold.Chemscore.Hbonds>
donor molecule, donor type, donor heavy atom, donor atom, acceptor molecule, acceptor atom, score
      P1  H  6933  6944       L1     4  0.20
      P1  H  6934  6946       L1     4  0.98
      P1  H  7997  8009       L1    18  0.99
      P1  H 10752 10765       L1    16  1.73

> <Gold.PLP.Chemscore.Internal.Correction>
0.1467

> <Gold.Rescore>
     Score         DG    S(hbond)    S(metal)    S(lipo)     H(rot)  DE(clash)    DE(int)     intcor
     13.25     -15.03       3.21        0.00      61.55       3.27       0.10       1.68       ----

> <Gold.Chemscore.Fitness>
13.2459

> <Gold.Chemscore.DG>
-15.0264

> <Gold.Chemscore.ZeroCoef>
-5.4800

> <Gold.Chemscore.Hbond>
3.2061

> <Gold.Chemscore.Metal>
0.0000

> <Gold.Chemscore.Lipo>
61.5505

> <Gold.Chemscore.Internal_Hbond>
0.0000

> <Gold.Chemscore.DEClash>
0.1003

> <Gold.Chemscore.DEInternal>
1.6801

> <Gold.Chemscore.Rot>
3.2669

> <Gold.Chemscore.Internal.Correction>
   9.000000E+99

> <Gold.Chemscore.Hbonds>
donor molecule, donor type, donor heavy atom, donor atom, acceptor molecule, acceptor atom, score
      P1  H  6933  6944       L1     4  0.20
      P1  H  6934  6946       L1     4  0.91
      P1  H  7997  8009       L1    18  0.94
      P1  H 10752 10765       L1    16  0.16

> <Gold.Chemscore.Hbond.Weighted>
-10.7083

> <Gold.Chemscore.Metal.Weighted>
-0.0000

> <Gold.Chemscore.Lipo.Weighted>
-7.2014

> <Gold.Chemscore.Internal_Hbond.Weighted>
0.0000

> <Gold.Chemscore.DEClash.Weighted>
0.1003

> <Gold.Chemscore.DEInternal.Weighted>
1.6801

> <Gold.Chemscore.Rot.Weighted>
8.3634

> <Gold.Chemscore.Internal.Correction.Weighted>
   9.000000E+99

> <Gold.Protein.RotatedTorsions>
[ 6907 6896 6895 6894 ] final  -81.56 input  -60.11 | X-H torsion
[ 7974 7965 7964 7962 ] final -159.99 input  175.53 | X-H torsion
[ 8008 7997 7996 7995 ] final -155.66 input   59.86 | X-H torsion
[ 10167 10162 10161 10158 ] final  159.30 input  -65.29 | X-H torsion
[ 10718 10713 10712 10709 ] final  179.46 input   66.30 | X-H torsion
[ 10763 10752 10751 10750 ] final  176.67 input  -60.55 | X-H torsion
[ 11005 11000 10999 10996 ] final  105.10 input  -57.11 | X-H torsion

> <Gold.Protein.ActiveResidues>
 VAL166  LYS551  ARG553  GLY616  TRP617  ASP618  TYR619  PRO620  LYS621  CYS622 
 ASP623  PHE694  ASN695  SER759  ASP760  ASP761  ALA762  ILE779  LEU786  VAL792 
 PHE793  MET794  SER795  GLU796  ALA797  LYS798  CYS799  TRP800  GLU811  SER814 

> <Gold.Protein.RotatedAtoms>
  150.6910  134.3799  159.5028 H   0  0  0  0  0  0  0  0  0  0  0  0  # atno 6907 bound_to 6896
  152.1602  134.8915  160.0551 H   0  0  0  0  0  0  0  0  0  0  0  0  # atno 6908 bound_to 6896
  151.9980  133.3780  159.4207 H   0  0  0  0  0  0  0  0  0  0  0  0  # atno 6909 bound_to 6896
  144.7444  140.3605  143.6097 H   0  0  0  0  0  0  0  0  0  0  0  0  # atno 7974 bound_to 7965
  155.7052  140.0771  157.2394 H   0  0  0  0  0  0  0  0  0  0  0  0  # atno 8008 bound_to 7997
  154.4067  140.1640  156.2288 H   0  0  0  0  0  0  0  0  0  0  0  0  # atno 8009 bound_to 7997
  155.9332  140.3390  155.6269 H   0  0  0  0  0  0  0  0  0  0  0  0  # atno 8010 bound_to 7997
  139.4831  144.4743  151.8533 H   0  0  0  0  0  0  0  0  0  0  0  0  # atno 10167 bound_to 10162
  156.8754  130.9798  151.3068 H   0  0  0  0  0  0  0  0  0  0  0  0  # atno 10718 bound_to 10713
  154.4842  135.2776  155.1547 H   0  0  0  0  0  0  0  0  0  0  0  0  # atno 10763 bound_to 10752
  154.3245  135.6203  153.5526 H   0  0  0  0  0  0  0  0  0  0  0  0  # atno 10764 bound_to 10752
  152.9879  135.5750  154.5249 H   0  0  0  0  0  0  0  0  0  0  0  0  # atno 10765 bound_to 10752
  139.8798  134.9324  156.5462 H   0  0  0  0  0  0  0  0  0  0  0  0  # atno 11005 bound_to 11000
  145.7182  139.1702  143.2500 LP  0  0  0  0  0  0  0  0  0  0  0  0  # atno 17320 bound_to 7965
  146.1297  140.7202  142.9418 LP  0  0  0  0  0  0  0  0  0  0  0  0  # atno 17321 bound_to 7965
  140.4214  144.2238  150.5887 LP  0  0  0  0  0  0  0  0  0  0  0  0  # atno 17342 bound_to 10162
  140.4870  143.2360  151.8873 LP  0  0  0  0  0  0  0  0  0  0  0  0  # atno 17343 bound_to 10162
  157.6171  130.8627  149.9047 LP  0  0  0  0  0  0  0  0  0  0  0  0  # atno 17370 bound_to 10713
  156.0705  130.3686  150.0787 LP  0  0  0  0  0  0  0  0  0  0  0  0  # atno 17371 bound_to 10713
  140.8274  133.8306  155.8952 LP  0  0  0  0  0  0  0  0  0  0  0  0  # atno 17394 bound_to 11000
  140.9361  134.1960  157.4830 LP  0  0  0  0  0  0  0  0  0  0  0  0  # atno 17395 bound_to 11000

$$$$
