AV-unprocessed.smi:2061|AV-procd|sdf|8379|dock2
  -GOLD-   2272011 53D 1   1.00000     0.00000
 Structure written by MMmdl.
 44 45  0  0  0  0  0  0  0  0  2 V2000
  144.1387  143.1056  162.9345 C   0  0  0  0  0  0  0  0  0  0  0  0
  145.0914  142.9566  161.7980 C   0  0  0  0  0  0  0  0  0  0  0  0
  144.9725  143.1711  160.4543 C   0  0  0  0  0  0  0  0  0  0  0  0
  146.2625  142.8395  159.9570 C   0  0  0  0  0  0  0  0  0  0  0  0
  146.6454  142.8788  158.6715 N   0  5  0  0  0  0  0  0  0  0  0  0
  147.4939  141.9440  158.1845 C   0  0  0  0  0  0  0  0  0  0  0  0
  147.5407  140.7575  158.5166 O   0  0  0  0  0  0  0  0  0  0  0  0
  148.3448  142.4195  157.2631 N   0  0  0  0  0  0  0  0  0  0  0  0
  149.3755  141.6619  156.5549 C   0  0  0  0  0  0  0  0  0  0  0  0
  150.4470  141.0531  157.5044 C   0  0  1  0  0  0  0  0  0  0  0  0
  151.5803  140.4251  156.6533 C   0  0  0  0  0  0  0  0  0  0  0  0
  150.9566  142.0178  158.5091 N   0  0  0  0  0  0  0  0  0  0  0  0
  151.3753  143.2887  157.9057 C   0  0  0  0  0  0  0  0  0  0  0  0
  151.9335  144.3042  158.9226 C   0  0  1  0  0  0  0  0  0  0  0  0
  150.8467  144.9461  159.8023 C   0  0  0  0  0  0  0  0  0  0  0  0
  152.9676  143.7092  159.7027 O   0  0  0  0  0  0  0  0  0  0  0  0
  152.6053  142.4874  160.3363 C   0  0  2  0  0  0  0  0  0  0  0  0
  153.8375  141.9525  161.0738 C   0  0  0  0  0  0  0  0  0  0  0  0
  152.0857  141.4928  159.2825 C   0  0  0  0  0  0  0  0  0  0  0  0
  147.0856  142.4409  160.9121 N   0  0  0  0  0  0  0  0  0  0  0  0
  146.3441  142.5190  162.0971 O   0  0  0  0  0  0  0  0  0  0  0  0
  143.3755  142.3282  162.9013 H   0  0  0  0  0  0  0  0  0  0  0  0
  143.6386  144.0732  162.8935 H   0  0  0  0  0  0  0  0  0  0  0  0
  144.6543  143.0331  163.8924 H   0  0  0  0  0  0  0  0  0  0  0  0
  144.1042  143.5149  159.9124 H   0  0  0  0  0  0  0  0  0  0  0  0
  148.2657  143.3985  157.0307 H   0  0  0  0  0  0  0  0  0  0  0  0
  148.9446  140.8815  155.9256 H   0  0  0  0  0  0  0  0  0  0  0  0
  149.8178  142.3891  155.8772 H   0  0  0  0  0  0  0  0  0  0  0  0
  149.9636  140.2351  158.0408 H   0  0  0  0  0  0  0  0  0  0  0  0
  151.2012  139.7373  155.8991 H   0  0  0  0  0  0  0  0  0  0  0  0
  152.2697  139.8296  157.2490 H   0  0  0  0  0  0  0  0  0  0  0  0
  152.1556  141.1934  156.1357 H   0  0  0  0  0  0  0  0  0  0  0  0
  152.1360  143.0937  157.1482 H   0  0  0  0  0  0  0  0  0  0  0  0
  150.5440  143.7702  157.3946 H   0  0  0  0  0  0  0  0  0  0  0  0
  152.4039  145.1125  158.3623 H   0  0  0  0  0  0  0  0  0  0  0  0
  150.1390  145.5089  159.1934 H   0  0  0  0  0  0  0  0  0  0  0  0
  151.2862  145.6372  160.5217 H   0  0  0  0  0  0  0  0  0  0  0  0
  150.2760  144.2020  160.3577 H   0  0  0  0  0  0  0  0  0  0  0  0
  151.8239  142.6771  161.0727 H   0  0  0  0  0  0  0  0  0  0  0  0
  153.6114  141.0196  161.5910 H   0  0  0  0  0  0  0  0  0  0  0  0
  154.1871  142.6684  161.8182 H   0  0  0  0  0  0  0  0  0  0  0  0
  154.6594  141.7619  160.3830 H   0  0  0  0  0  0  0  0  0  0  0  0
  151.7962  140.5942  159.8229 H   0  0  0  0  0  0  0  0  0  0  0  0
  152.8962  141.2124  158.6081 H   0  0  0  0  0  0  0  0  0  0  0  0
  1  2  1  0  0  0  0
  1 22  1  0  0  0  0
  1 23  1  0  0  0  0
  1 24  1  0  0  0  0
  2 21  1  0  0  0  0
  2  3  2  0  0  0  0
  3  4  1  0  0  0  0
  3 25  1  0  0  0  0
  4  5  1  0  0  0  0
  4 20  2  0  0  0  0
  5  6  1  0  0  0  0
  6  7  2  0  0  0  0
  6  8  1  0  0  0  0
  8  9  1  0  0  0  0
  8 26  1  0  0  0  0
  9 10  1  0  0  0  0
  9 27  1  0  0  0  0
  9 28  1  0  0  0  0
 10 11  1  0  0  0  0
 10 12  1  0  0  0  0
 10 29  1  0  0  0  0
 11 30  1  0  0  0  0
 11 31  1  0  0  0  0
 11 32  1  0  0  0  0
 12 19  1  0  0  0  0
 12 13  1  0  0  0  0
 13 14  1  0  0  0  0
 13 33  1  0  0  0  0
 13 34  1  0  0  0  0
 14 15  1  0  0  0  0
 14 16  1  0  0  0  0
 14 35  1  0  0  0  0
 15 36  1  0  0  0  0
 15 37  1  0  0  0  0
 15 38  1  0  0  0  0
 16 17  1  0  0  0  0
 17 18  1  0  0  0  0
 17 19  1  0  0  0  0
 17 39  1  0  0  0  0
 18 40  1  0  0  0  0
 18 41  1  0  0  0  0
 18 42  1  0  0  0  0
 19 43  1  0  0  0  0
 19 44  1  0  0  0  0
 20 21  1  0  0  0  0
M  CHG  1   5  -1
M  END
> <s_m_source_file>
AV-unprocessed.smi

> <i_m_source_file_index>
2061

> <i_lp_mmshare_version>
43012

> <i_f3d_flags>
0

> <s_epik_input>
W0NIM11jMVtjSF1jKG5vMSlbTkhdQyg9TylbTkhdW0NIMl1bQ0BIXShbQ0gzXSlOMltDSDJdW0NAQEhdKFtDSDNdKU9bQ0BASF0oW0NIM10pW0NIMl0y

> <s_epik_cmdline>
J2VwaWtfcHl0aG9uJywgJy1waCcsICc3LjAnLCAnLXRuJywgJzgnLCAnLW1hJywgJzIwMCcsICctbWV0YWxfYmluZGluZycsICctaW1hZScsICc8aW5maWxlLm1hZT4nLCAnLW9tYWUnLCAnPG91dGZpbGUubWFlPic=

> <r_epik_Ionization_Penalty>
6.88367

> <r_epik_Ionization_Penalty_Charging>
6.57198

> <r_epik_Ionization_Penalty_Neutral>
0.311681

> <r_epik_State_Penalty>
6.77619

> <r_epik_Charging_Adjusted_Penalty>
13.3482

> <i_epik_Tot_Q>
-1

> <i_epik_Tot_abs_Q>
1

> <r_epik_Metal_State_Penalty>
2.70524

> <b_epik_Metal_Only>
1

> <s_lp_Force_Field>
OPLS_2005

> <r_lp_Energy>
24.642

> <b_lp_Chiralities_Consistent>
1

> <s_lp_Variant>
AV-unprocessed.smi:2061-20

> <Gold.Version>
5.8.1

> <Gold.Id.Protein>
6NUR|6NUR_protein|mol2

> <Gold.PLP.Fitness>
47.2600

> <Gold.PLP.PLP>
-41.0420

> <Gold.PLP.part.hbond>
-4.5765

> <Gold.PLP.part.metal>
0.0000

> <Gold.PLP.part.buried>
-5.6628

> <Gold.PLP.part.nonpolar>
-31.4524

> <Gold.PLP.part.repulsive>
0.2720

> <Gold.PLP.ligand.clash>
0.0000

> <Gold.PLP.ligand.torsion>
0.6846

> <Gold.PLP.Chemscore.Hbond>
2.4528

> <Gold.PLP.Chemscore.CHOScore>
0.0000

> <Gold.PLP.Chemscore.Metal>
0.0000

> <Gold.Chemscore.Hbonds>
donor molecule, donor type, donor heavy atom, donor atom, acceptor molecule, acceptor atom, score
      L1  H     8    26       P1  8028  0.59
      P1  H  6933  6944       L1    20  0.63
      P1  H  6934  6946       L1    20  0.48

> <Gold.PLP.Chemscore.Internal.Correction>
0.2289

> <Gold.Rescore>
     Score         DG    S(hbond)    S(metal)    S(lipo)     H(rot)  DE(clash)    DE(int)     intcor
     16.17     -17.98       1.68        0.00      92.08       1.52       0.04       1.78       ----

> <Gold.Chemscore.Fitness>
16.1659

> <Gold.Chemscore.DG>
-17.9831

> <Gold.Chemscore.ZeroCoef>
-5.4800

> <Gold.Chemscore.Hbond>
1.6823

> <Gold.Chemscore.Metal>
0.0000

> <Gold.Chemscore.Lipo>
92.0772

> <Gold.Chemscore.Internal_Hbond>
0.0000

> <Gold.Chemscore.DEClash>
0.0405

> <Gold.Chemscore.DEInternal>
1.7767

> <Gold.Chemscore.Rot>
1.5190

> <Gold.Chemscore.Internal.Correction>
   9.000000E+99

> <Gold.Chemscore.Hbonds>
donor molecule, donor type, donor heavy atom, donor atom, acceptor molecule, acceptor atom, score
      L1  H     8    26       P1  8028  0.06
      P1  H  6933  6944       L1    20  0.18
      P1  H  6934  6946       L1    20  0.02

> <Gold.Chemscore.Hbond.Weighted>
-5.6187

> <Gold.Chemscore.Metal.Weighted>
-0.0000

> <Gold.Chemscore.Lipo.Weighted>
-10.7730

> <Gold.Chemscore.Internal_Hbond.Weighted>
0.0000

> <Gold.Chemscore.DEClash.Weighted>
0.0405

> <Gold.Chemscore.DEInternal.Weighted>
1.7767

> <Gold.Chemscore.Rot.Weighted>
3.8886

> <Gold.Chemscore.Internal.Correction.Weighted>
   9.000000E+99

> <Gold.Protein.RotatedTorsions>
[ 6907 6896 6895 6894 ] final  -23.47 input  -60.11 | X-H torsion
[ 7974 7965 7964 7962 ] final -159.31 input  175.53 | X-H torsion
[ 8008 7997 7996 7995 ] final   78.75 input   59.86 | X-H torsion
[ 10167 10162 10161 10158 ] final   51.66 input  -65.29 | X-H torsion
[ 10718 10713 10712 10709 ] final   99.61 input   66.30 | X-H torsion
[ 10763 10752 10751 10750 ] final -124.99 input  -60.55 | X-H torsion
[ 11005 11000 10999 10996 ] final  -54.09 input  -57.11 | X-H torsion

> <Gold.Protein.ActiveResidues>
 VAL166  LYS551  ARG553  GLY616  TRP617  ASP618  TYR619  PRO620  LYS621  CYS622 
 ASP623  PHE694  ASN695  SER759  ASP760  ASP761  ALA762  ILE779  LEU786  VAL792 
 PHE793  MET794  SER795  GLU796  ALA797  LYS798  CYS799  TRP800  GLU811  SER814 

> <Gold.Protein.RotatedAtoms>
  151.2036  135.0452  159.8882 H   0  0  0  0  0  0  0  0  0  0  0  0  # atno 6907 bound_to 6896
  152.5430  134.0823  159.8251 H   0  0  0  0  0  0  0  0  0  0  0  0  # atno 6908 bound_to 6896
  151.0967  133.5227  159.2644 H   0  0  0  0  0  0  0  0  0  0  0  0  # atno 6909 bound_to 6896
  144.7470  140.3703  143.6077 H   0  0  0  0  0  0  0  0  0  0  0  0  # atno 7974 bound_to 7965
  155.8601  140.3454  155.5750 H   0  0  0  0  0  0  0  0  0  0  0  0  # atno 8008 bound_to 7997
  155.7943  140.0876  157.2011 H   0  0  0  0  0  0  0  0  0  0  0  0  # atno 8009 bound_to 7997
  154.4011  140.1477  156.3186 H   0  0  0  0  0  0  0  0  0  0  0  0  # atno 8010 bound_to 7997
  140.2596  144.3388  150.6322 H   0  0  0  0  0  0  0  0  0  0  0  0  # atno 10167 bound_to 10162
  157.6872  131.0674  150.4974 H   0  0  0  0  0  0  0  0  0  0  0  0  # atno 10718 bound_to 10713
  154.8730  135.4045  154.3196 H   0  0  0  0  0  0  0  0  0  0  0  0  # atno 10763 bound_to 10752
  153.4026  135.7018  153.6420 H   0  0  0  0  0  0  0  0  0  0  0  0  # atno 10764 bound_to 10752
  153.5157  135.3698  155.2578 H   0  0  0  0  0  0  0  0  0  0  0  0  # atno 10765 bound_to 10752
  141.1009  133.6618  156.4269 H   0  0  0  0  0  0  0  0  0  0  0  0  # atno 11005 bound_to 11000
  145.7085  139.1679  143.2552 LP  0  0  0  0  0  0  0  0  0  0  0  0  # atno 17320 bound_to 7965
  146.1364  140.7117  142.9388 LP  0  0  0  0  0  0  0  0  0  0  0  0  # atno 17321 bound_to 7965
  140.5976  143.2167  151.7134 LP  0  0  0  0  0  0  0  0  0  0  0  0  # atno 17342 bound_to 10162
  139.5021  144.3843  152.0345 LP  0  0  0  0  0  0  0  0  0  0  0  0  # atno 17343 bound_to 10162
  156.5297  130.4182  149.6208 LP  0  0  0  0  0  0  0  0  0  0  0  0  # atno 17370 bound_to 10713
  156.3080  130.7213  151.2100 LP  0  0  0  0  0  0  0  0  0  0  0  0  # atno 17371 bound_to 10713
  140.5025  134.6472  157.5254 LP  0  0  0  0  0  0  0  0  0  0  0  0  # atno 17394 bound_to 11000
  139.9860  134.7061  155.9773 LP  0  0  0  0  0  0  0  0  0  0  0  0  # atno 17395 bound_to 11000

$$$$
