AV-unprocessed.smi:671|AV-procd|sdf|3276|dock8
  -GOLD-   22720 0233D 1   1.00000     0.00000
 Structure written by MMmdl.
 49 50  0  0  0  0  0  0  0  0  1 V2000
  152.9535  138.3819  154.8517 C   0  0  0  0  0  0  0  0  0  0  0  0
  152.0385  139.3243  155.5801 C   0  0  0  0  0  0  0  0  0  0  0  0
  152.4598  139.9146  156.6865 N   0  0  0  0  0  0  0  0  0  0  0  0
  151.4240  140.6804  157.0848 N   0  0  0  0  0  0  0  0  0  0  0  0
  151.5508  141.4805  158.2874 C   0  0  0  0  0  0  0  0  0  0  0  0
  150.3457  140.5719  156.2287 C   0  0  0  0  0  0  0  0  0  0  0  0
  149.0706  141.3197  156.4466 C   0  0  0  0  0  0  0  0  0  0  0  0
  150.7083  139.7038  155.2347 C   0  0  0  0  0  0  0  0  0  0  0  0
  149.8976  139.2502  154.0482 C   0  0  0  0  0  0  0  0  0  0  0  0
  148.4268  138.9571  154.4169 C   0  0  1  0  0  0  0  0  0  0  0  0
  147.4970  140.1430  154.1140 C   0  0  0  0  0  0  0  0  0  0  0  0
  147.9458  137.7817  153.6875 N   0  0  0  0  0  0  0  0  0  0  0  0
  146.7415  137.1860  153.7637 C   0  0  0  0  0  0  0  0  0  0  0  0
  145.8607  137.6013  154.5143 O   0  0  0  0  0  0  0  0  0  0  0  0
  146.5921  136.1148  152.9648 N   0  0  0  0  0  0  0  0  0  0  0  0
  145.3798  135.3049  152.8370 C   0  0  1  0  0  0  0  0  0  0  0  0
  144.3764  136.0232  151.9247 C   0  0  0  0  0  0  0  0  0  0  0  0
  144.5905  135.4123  150.5433 C   0  0  0  0  0  0  0  0  0  0  0  0
  144.9014  133.9447  150.8246 C   0  0  0  0  0  0  0  0  0  0  0  0
  145.6162  133.9117  152.1881 C   0  0  1  0  0  0  0  0  0  0  0  0
  147.0823  133.4523  152.0706 C   0  0  0  0  0  0  0  0  0  0  0  0
  152.4982  137.3965  154.7526 H   0  0  0  0  0  0  0  0  0  0  0  0
  153.9040  138.2557  155.3717 H   0  0  0  0  0  0  0  0  0  0  0  0
  153.1713  138.7493  153.8487 H   0  0  0  0  0  0  0  0  0  0  0  0
  150.7955  141.1754  159.0120 H   0  0  0  0  0  0  0  0  0  0  0  0
  151.4067  142.5332  158.0435 H   0  0  0  0  0  0  0  0  0  0  0  0
  152.5383  141.3534  158.7335 H   0  0  0  0  0  0  0  0  0  0  0  0
  148.2860  140.9521  155.7865 H   0  0  0  0  0  0  0  0  0  0  0  0
  149.2065  142.3828  156.2478 H   0  0  0  0  0  0  0  0  0  0  0  0
  148.7195  141.2071  157.4725 H   0  0  0  0  0  0  0  0  0  0  0  0
  149.9259  139.9952  153.2522 H   0  0  0  0  0  0  0  0  0  0  0  0
  150.3516  138.3580  153.6164 H   0  0  0  0  0  0  0  0  0  0  0  0
  148.3579  138.7613  155.4883 H   0  0  0  0  0  0  0  0  0  0  0  0
  147.7751  141.0256  154.6905 H   0  0  0  0  0  0  0  0  0  0  0  0
  146.4633  139.9050  154.3672 H   0  0  0  0  0  0  0  0  0  0  0  0
  147.5275  140.4126  153.0579 H   0  0  0  0  0  0  0  0  0  0  0  0
  148.6097  137.3631  153.0519 H   0  0  0  0  0  0  0  0  0  0  0  0
  147.3769  135.8457  152.3899 H   0  0  0  0  0  0  0  0  0  0  0  0
  144.9280  135.1833  153.8231 H   0  0  0  0  0  0  0  0  0  0  0  0
  143.3618  135.8027  152.2593 H   0  0  0  0  0  0  0  0  0  0  0  0
  144.4878  137.1086  151.9261 H   0  0  0  0  0  0  0  0  0  0  0  0
  143.7287  135.5413  149.8880 H   0  0  0  0  0  0  0  0  0  0  0  0
  145.4487  135.8797  150.0603 H   0  0  0  0  0  0  0  0  0  0  0  0
  143.9670  133.3860  150.8927 H   0  0  0  0  0  0  0  0  0  0  0  0
  145.4862  133.4930  150.0223 H   0  0  0  0  0  0  0  0  0  0  0  0
  145.1049  133.1703  152.8037 H   0  0  0  0  0  0  0  0  0  0  0  0
  147.6654  134.1216  151.4371 H   0  0  0  0  0  0  0  0  0  0  0  0
  147.1416  132.4547  151.6349 H   0  0  0  0  0  0  0  0  0  0  0  0
  147.5614  133.4066  153.0488 H   0  0  0  0  0  0  0  0  0  0  0  0
  1  2  1  0  0  0  0
  1 22  1  0  0  0  0
  1 23  1  0  0  0  0
  1 24  1  0  0  0  0
  2  8  1  0  0  0  0
  2  3  2  0  0  0  0
  3  4  1  0  0  0  0
  4  5  1  0  0  0  0
  4  6  1  0  0  0  0
  5 25  1  0  0  0  0
  5 26  1  0  0  0  0
  5 27  1  0  0  0  0
  6  7  1  0  0  0  0
  6  8  2  0  0  0  0
  7 28  1  0  0  0  0
  7 29  1  0  0  0  0
  7 30  1  0  0  0  0
  8  9  1  0  0  0  0
  9 10  1  0  0  0  0
  9 31  1  0  0  0  0
  9 32  1  0  0  0  0
 10 11  1  0  0  0  0
 10 12  1  0  0  0  0
 10 33  1  0  0  0  0
 11 34  1  0  0  0  0
 11 35  1  0  0  0  0
 11 36  1  0  0  0  0
 12 13  1  0  0  0  0
 12 37  1  0  0  0  0
 13 14  2  0  0  0  0
 13 15  1  0  0  0  0
 15 16  1  0  0  0  0
 15 38  1  0  0  0  0
 16 20  1  0  0  0  0
 16 17  1  0  0  0  0
 16 39  1  0  0  0  0
 17 18  1  0  0  0  0
 17 40  1  0  0  0  0
 17 41  1  0  0  0  0
 18 19  1  0  0  0  0
 18 42  1  0  0  0  0
 18 43  1  0  0  0  0
 19 20  1  0  0  0  0
 19 44  1  0  0  0  0
 19 45  1  0  0  0  0
 20 21  1  0  0  0  0
 20 46  1  0  0  0  0
 21 47  1  0  0  0  0
 21 48  1  0  0  0  0
 21 49  1  0  0  0  0
M  END
> <s_m_source_file>
AV-unprocessed.smi

> <i_m_source_file_index>
671

> <i_lp_mmshare_version>
43012

> <i_f3d_flags>
0

> <s_epik_input>
W0NIM11jMW5uKFtDSDNdKWMoW0NIM10pYzFbQ0gyXVtDQEhdKFtDSDNdKVtOSF1DKD1PKVtOSF1bQ0BASF0yW0NIMl1bQ0gyXVtDSDJdW0NASF0yW0NIM10=

> <s_epik_cmdline>
J2VwaWtfcHl0aG9uJywgJy1waCcsICc3LjAnLCAnLXRuJywgJzgnLCAnLW1hJywgJzIwMCcsICctbWV0YWxfYmluZGluZycsICctaW1hZScsICc8aW5maWxlLm1hZT4nLCAnLW9tYWUnLCAnPG91dGZpbGUubWFlPic=

> <r_lp_tautomer_probability>
1

> <r_epik_Ionization_Penalty>
0.0126855

> <r_epik_Ionization_Penalty_Charging>
0

> <r_epik_Ionization_Penalty_Neutral>
0.0126855

> <r_epik_State_Penalty>
0.00977547

> <r_epik_Charging_Adjusted_Penalty>
0.00977547

> <i_epik_Tot_Q>
0

> <i_epik_Tot_abs_Q>
0

> <r_epik_Metal_State_Penalty>
0.00957132

> <b_epik_Metal_Only>
0

> <s_lp_Force_Field>
OPLS_2005

> <r_lp_Energy>
24.0852

> <b_lp_Chiralities_Consistent>
1

> <s_lp_Variant>
AV-unprocessed.smi:671-4

> <Gold.Version>
5.8.1

> <Gold.Id.Protein>
6NUR|6NUR_protein|mol2

> <Gold.PLP.Fitness>
41.7145

> <Gold.PLP.PLP>
-34.8853

> <Gold.PLP.part.hbond>
-3.0000

> <Gold.PLP.part.metal>
0.0000

> <Gold.PLP.part.buried>
-1.7569

> <Gold.PLP.part.nonpolar>
-31.1940

> <Gold.PLP.part.repulsive>
0.1028

> <Gold.PLP.ligand.clash>
0.0000

> <Gold.PLP.ligand.torsion>
1.0327

> <Gold.PLP.Chemscore.Hbond>
2.9600

> <Gold.PLP.Chemscore.CHOScore>
0.0000

> <Gold.PLP.Chemscore.Metal>
0.0000

> <Gold.Chemscore.Hbonds>
donor molecule, donor type, donor heavy atom, donor atom, acceptor molecule, acceptor atom, score
      L1  H    12    37       P1  7948  1.00
      L1  H    15    38       P1  7948  0.96
      P1  H  7997  8009       L1     3  1.00

> <Gold.PLP.Chemscore.Internal.Correction>
0.0146

> <Gold.Rescore>
     Score         DG    S(hbond)    S(metal)    S(lipo)     H(rot)  DE(clash)    DE(int)     intcor
     19.86     -21.16       2.90        0.00      83.06       1.45       0.16       1.14       ----

> <Gold.Chemscore.Fitness>
19.8552

> <Gold.Chemscore.DG>
-21.1622

> <Gold.Chemscore.ZeroCoef>
-5.4800

> <Gold.Chemscore.Hbond>
2.8971

> <Gold.Chemscore.Metal>
0.0000

> <Gold.Chemscore.Lipo>
83.0578

> <Gold.Chemscore.Internal_Hbond>
0.0000

> <Gold.Chemscore.DEClash>
0.1643

> <Gold.Chemscore.DEInternal>
1.1427

> <Gold.Chemscore.Rot>
1.4499

> <Gold.Chemscore.Internal.Correction>
   9.000000E+99

> <Gold.Chemscore.Hbonds>
donor molecule, donor type, donor heavy atom, donor atom, acceptor molecule, acceptor atom, score
      L1  H    12    37       P1  7948  0.95
      L1  H    15    38       P1  7948  0.92
      P1  H  7997  8009       L1     3  0.65

> <Gold.Chemscore.Hbond.Weighted>
-9.6763

> <Gold.Chemscore.Metal.Weighted>
-0.0000

> <Gold.Chemscore.Lipo.Weighted>
-9.7178

> <Gold.Chemscore.Internal_Hbond.Weighted>
0.0000

> <Gold.Chemscore.DEClash.Weighted>
0.1643

> <Gold.Chemscore.DEInternal.Weighted>
1.1427

> <Gold.Chemscore.Rot.Weighted>
3.7118

> <Gold.Chemscore.Internal.Correction.Weighted>
   9.000000E+99

> <Gold.Protein.RotatedTorsions>
[ 6907 6896 6895 6894 ] final   52.44 input  -60.11 | X-H torsion
[ 7974 7965 7964 7962 ] final -149.28 input  175.53 | X-H torsion
[ 8008 7997 7996 7995 ] final -176.59 input   59.86 | X-H torsion
[ 10167 10162 10161 10158 ] final -166.91 input  -65.29 | X-H torsion
[ 10718 10713 10712 10709 ] final  170.94 input   66.30 | X-H torsion
[ 10763 10752 10751 10750 ] final   71.23 input  -60.55 | X-H torsion
[ 11005 11000 10999 10996 ] final   72.55 input  -57.11 | X-H torsion

> <Gold.Protein.ActiveResidues>
 VAL166  LYS551  ARG553  GLY616  TRP617  ASP618  TYR619  PRO620  LYS621  CYS622 
 ASP623  PHE694  ASN695  SER759  ASP760  ASP761  ALA762  ILE779  LEU786  VAL792 
 PHE793  MET794  SER795  GLU796  ALA797  LYS798  CYS799  TRP800  GLU811  SER814 

> <Gold.Protein.RotatedAtoms>
  152.3233  134.7352  160.0307 H   0  0  0  0  0  0  0  0  0  0  0  0  # atno 6907 bound_to 6896
  151.7793  133.3343  159.3475 H   0  0  0  0  0  0  0  0  0  0  0  0  # atno 6908 bound_to 6896
  150.7382  134.5877  159.6016 H   0  0  0  0  0  0  0  0  0  0  0  0  # atno 6909 bound_to 6896
  144.7977  140.5086  143.5728 H   0  0  0  0  0  0  0  0  0  0  0  0  # atno 7974 bound_to 7965
  155.9967  140.1212  157.0586 H   0  0  0  0  0  0  0  0  0  0  0  0  # atno 8008 bound_to 7997
  154.4229  140.1115  156.5709 H   0  0  0  0  0  0  0  0  0  0  0  0  # atno 8009 bound_to 7997
  155.6268  140.3472  155.4672 H   0  0  0  0  0  0  0  0  0  0  0  0  # atno 8010 bound_to 7997
  139.6084  144.0866  152.1816 H   0  0  0  0  0  0  0  0  0  0  0  0  # atno 10167 bound_to 10162
  157.0008  131.0175  151.2831 H   0  0  0  0  0  0  0  0  0  0  0  0  # atno 10718 bound_to 10713
  153.0387  135.5144  154.7562 H   0  0  0  0  0  0  0  0  0  0  0  0  # atno 10763 bound_to 10752
  154.6517  135.2926  154.9981 H   0  0  0  0  0  0  0  0  0  0  0  0  # atno 10764 bound_to 10752
  154.0862  135.6657  153.4898 H   0  0  0  0  0  0  0  0  0  0  0  0  # atno 10765 bound_to 10752
  139.9485  134.7269  156.0919 H   0  0  0  0  0  0  0  0  0  0  0  0  # atno 11005 bound_to 11000
  145.5631  139.1480  143.3330 LP  0  0  0  0  0  0  0  0  0  0  0  0  # atno 17320 bound_to 7965
  146.2250  140.5766  142.9000 LP  0  0  0  0  0  0  0  0  0  0  0  0  # atno 17321 bound_to 7965
  140.0478  144.5956  150.7360 LP  0  0  0  0  0  0  0  0  0  0  0  0  # atno 17342 bound_to 10162
  140.7301  143.2680  151.3981 LP  0  0  0  0  0  0  0  0  0  0  0  0  # atno 17343 bound_to 10162
  157.5392  130.8108  149.8008 LP  0  0  0  0  0  0  0  0  0  0  0  0  # atno 17370 bound_to 10713
  156.0172  130.3809  150.2074 LP  0  0  0  0  0  0  0  0  0  0  0  0  # atno 17371 bound_to 10713
  141.1142  133.6633  156.3053 LP  0  0  0  0  0  0  0  0  0  0  0  0  # atno 17394 bound_to 11000
  140.5775  134.5778  157.5472 LP  0  0  0  0  0  0  0  0  0  0  0  0  # atno 17395 bound_to 11000

$$$$
