AV-unprocessed.smi:2061|AV-procd|sdf|8374|dock1
  -GOLD-   2272011 53D 1   1.00000     0.00000
 Structure written by MMmdl.
 44 45  0  0  0  0  0  0  0  0  2 V2000
  143.4889  132.4798  150.6210 C   0  0  0  0  0  0  0  0  0  0  0  0
  144.7474  132.7670  151.3666 C   0  0  0  0  0  0  0  0  0  0  0  0
  146.0597  132.4839  151.1146 C   0  0  0  0  0  0  0  0  0  0  0  0
  146.7333  133.0406  152.2363 C   0  0  0  0  0  0  0  0  0  0  0  0
  148.0587  133.0307  152.4452 N   0  5  0  0  0  0  0  0  0  0  0  0
  148.5504  133.0816  153.7048 C   0  0  0  0  0  0  0  0  0  0  0  0
  148.8156  132.1161  154.4243 O   0  0  0  0  0  0  0  0  0  0  0  0
  148.7541  134.3301  154.1506 N   0  0  0  0  0  0  0  0  0  0  0  0
  149.2747  134.7146  155.4617 C   0  0  0  0  0  0  0  0  0  0  0  0
  148.8855  136.1642  155.8696 C   0  0  2  0  0  0  0  0  0  0  0  0
  147.3403  136.2886  155.8868 C   0  0  0  0  0  0  0  0  0  0  0  0
  149.5335  137.2019  155.0314 N   0  0  0  0  0  0  0  0  0  0  0  0
  148.9108  138.5210  155.1879 C   0  0  0  0  0  0  0  0  0  0  0  0
  149.5888  139.6113  154.3364 C   0  0  1  0  0  0  0  0  0  0  0  0
  148.9741  140.9951  154.5715 C   0  0  0  0  0  0  0  0  0  0  0  0
  150.9690  139.6747  154.6721 O   0  0  0  0  0  0  0  0  0  0  0  0
  151.6402  138.4390  154.4613 C   0  0  1  0  0  0  0  0  0  0  0  0
  153.1168  138.6265  154.8259 C   0  0  0  0  0  0  0  0  0  0  0  0
  150.9665  137.3442  155.3108 C   0  0  0  0  0  0  0  0  0  0  0  0
  145.9043  133.6251  153.0850 N   0  0  0  0  0  0  0  0  0  0  0  0
  144.6280  133.4491  152.5373 O   0  0  0  0  0  0  0  0  0  0  0  0
  143.4380  133.0747  149.7091 H   0  0  0  0  0  0  0  0  0  0  0  0
  142.6118  132.7113  151.2256 H   0  0  0  0  0  0  0  0  0  0  0  0
  143.4379  131.4271  150.3424 H   0  0  0  0  0  0  0  0  0  0  0  0
  146.4733  131.9592  150.2665 H   0  0  0  0  0  0  0  0  0  0  0  0
  148.5229  135.0831  153.5194 H   0  0  0  0  0  0  0  0  0  0  0  0
  148.8428  133.9844  156.1431 H   0  0  0  0  0  0  0  0  0  0  0  0
  150.3566  134.5854  155.5222 H   0  0  0  0  0  0  0  0  0  0  0  0
  149.2245  136.3044  156.8971 H   0  0  0  0  0  0  0  0  0  0  0  0
  146.8686  135.5113  156.4859 H   0  0  0  0  0  0  0  0  0  0  0  0
  146.9282  136.2209  154.8796 H   0  0  0  0  0  0  0  0  0  0  0  0
  147.0015  137.2236  156.3299 H   0  0  0  0  0  0  0  0  0  0  0  0
  147.8655  138.4884  154.8861 H   0  0  0  0  0  0  0  0  0  0  0  0
  148.9290  138.8139  156.2388 H   0  0  0  0  0  0  0  0  0  0  0  0
  149.4911  139.3615  153.2784 H   0  0  0  0  0  0  0  0  0  0  0  0
  147.9138  141.0019  154.3177 H   0  0  0  0  0  0  0  0  0  0  0  0
  149.4671  141.7495  153.9579 H   0  0  0  0  0  0  0  0  0  0  0  0
  149.0712  141.2981  155.6146 H   0  0  0  0  0  0  0  0  0  0  0  0
  151.5726  138.1741  153.4045 H   0  0  0  0  0  0  0  0  0  0  0  0
  153.6798  137.7066  154.6664 H   0  0  0  0  0  0  0  0  0  0  0  0
  153.2315  138.9122  155.8719 H   0  0  0  0  0  0  0  0  0  0  0  0
  153.5735  139.4060  154.2155 H   0  0  0  0  0  0  0  0  0  0  0  0
  151.1152  137.5589  156.3704 H   0  0  0  0  0  0  0  0  0  0  0  0
  151.4918  136.4155  155.0981 H   0  0  0  0  0  0  0  0  0  0  0  0
  1  2  1  0  0  0  0
  1 22  1  0  0  0  0
  1 23  1  0  0  0  0
  1 24  1  0  0  0  0
  2 21  1  0  0  0  0
  2  3  2  0  0  0  0
  3  4  1  0  0  0  0
  3 25  1  0  0  0  0
  4  5  1  0  0  0  0
  4 20  2  0  0  0  0
  5  6  1  0  0  0  0
  6  7  2  0  0  0  0
  6  8  1  0  0  0  0
  8  9  1  0  0  0  0
  8 26  1  0  0  0  0
  9 10  1  0  0  0  0
  9 27  1  0  0  0  0
  9 28  1  0  0  0  0
 10 11  1  0  0  0  0
 10 12  1  0  0  0  0
 10 29  1  0  0  0  0
 11 30  1  0  0  0  0
 11 31  1  0  0  0  0
 11 32  1  0  0  0  0
 12 19  1  0  0  0  0
 12 13  1  0  0  0  0
 13 14  1  0  0  0  0
 13 33  1  0  0  0  0
 13 34  1  0  0  0  0
 14 15  1  0  0  0  0
 14 16  1  0  0  0  0
 14 35  1  0  0  0  0
 15 36  1  0  0  0  0
 15 37  1  0  0  0  0
 15 38  1  0  0  0  0
 16 17  1  0  0  0  0
 17 18  1  0  0  0  0
 17 19  1  0  0  0  0
 17 39  1  0  0  0  0
 18 40  1  0  0  0  0
 18 41  1  0  0  0  0
 18 42  1  0  0  0  0
 19 43  1  0  0  0  0
 19 44  1  0  0  0  0
 20 21  1  0  0  0  0
M  CHG  1   5  -1
M  END
> <s_m_source_file>
AV-unprocessed.smi

> <i_m_source_file_index>
2061

> <i_lp_mmshare_version>
43012

> <i_f3d_flags>
0

> <s_epik_input>
W0NIM11jMVtjSF1jKG5vMSlbTkhdQyg9TylbTkhdW0NIMl1bQ0BIXShbQ0gzXSlOMltDSDJdW0NAQEhdKFtDSDNdKU9bQ0BASF0oW0NIM10pW0NIMl0y

> <s_epik_cmdline>
J2VwaWtfcHl0aG9uJywgJy1waCcsICc3LjAnLCAnLXRuJywgJzgnLCAnLW1hJywgJzIwMCcsICctbWV0YWxfYmluZGluZycsICctaW1hZScsICc8aW5maWxlLm1hZT4nLCAnLW9tYWUnLCAnPG91dGZpbGUubWFlPic=

> <r_epik_Ionization_Penalty>
6.88367

> <r_epik_Ionization_Penalty_Charging>
6.57198

> <r_epik_Ionization_Penalty_Neutral>
0.311681

> <r_epik_State_Penalty>
6.77619

> <r_epik_Charging_Adjusted_Penalty>
13.3482

> <i_epik_Tot_Q>
-1

> <i_epik_Tot_abs_Q>
1

> <r_epik_Metal_State_Penalty>
2.70524

> <b_epik_Metal_Only>
1

> <s_lp_Force_Field>
OPLS_2005

> <r_lp_Energy>
21.032

> <b_lp_Chiralities_Consistent>
1

> <s_lp_Variant>
AV-unprocessed.smi:2061-15

> <Gold.Version>
5.8.1

> <Gold.Id.Protein>
6NUR|6NUR_protein|mol2

> <Gold.PLP.Fitness>
37.9497

> <Gold.PLP.PLP>
-34.4959

> <Gold.PLP.part.hbond>
-2.0000

> <Gold.PLP.part.metal>
0.0000

> <Gold.PLP.part.buried>
-7.2041

> <Gold.PLP.part.nonpolar>
-27.0811

> <Gold.PLP.part.repulsive>
1.3433

> <Gold.PLP.ligand.clash>
0.0000

> <Gold.PLP.ligand.torsion>
1.3296

> <Gold.PLP.Chemscore.Hbond>
2.0000

> <Gold.PLP.Chemscore.CHOScore>
0.0000

> <Gold.PLP.Chemscore.Metal>
0.0000

> <Gold.Chemscore.Hbonds>
donor molecule, donor type, donor heavy atom, donor atom, acceptor molecule, acceptor atom, score
      L1  H     8    26       P1  7948  0.97
      P1  H  7989  7998       L1    16  1.00

> <Gold.PLP.Chemscore.Internal.Correction>
0.1129

> <Gold.Rescore>
     Score         DG    S(hbond)    S(metal)    S(lipo)     H(rot)  DE(clash)    DE(int)     intcor
     11.87     -13.84       1.02        0.00      75.63       1.52       0.50       1.48       ----

> <Gold.Chemscore.Fitness>
11.8706

> <Gold.Chemscore.DG>
-13.8424

> <Gold.Chemscore.ZeroCoef>
-5.4800

> <Gold.Chemscore.Hbond>
1.0188

> <Gold.Chemscore.Metal>
0.0000

> <Gold.Chemscore.Lipo>
75.6270

> <Gold.Chemscore.Internal_Hbond>
0.0000

> <Gold.Chemscore.DEClash>
0.4952

> <Gold.Chemscore.DEInternal>
1.4766

> <Gold.Chemscore.Rot>
1.5190

> <Gold.Chemscore.Internal.Correction>
   9.000000E+99

> <Gold.Chemscore.Hbonds>
donor molecule, donor type, donor heavy atom, donor atom, acceptor molecule, acceptor atom, score
      L1  H     8    26       P1  7948  0.76
      P1  H  7989  7998       L1    16  0.27

> <Gold.Chemscore.Hbond.Weighted>
-3.4027

> <Gold.Chemscore.Metal.Weighted>
-0.0000

> <Gold.Chemscore.Lipo.Weighted>
-8.8484

> <Gold.Chemscore.Internal_Hbond.Weighted>
0.0000

> <Gold.Chemscore.DEClash.Weighted>
0.4952

> <Gold.Chemscore.DEInternal.Weighted>
1.4766

> <Gold.Chemscore.Rot.Weighted>
3.8886

> <Gold.Chemscore.Internal.Correction.Weighted>
   9.000000E+99

> <Gold.Protein.RotatedTorsions>
[ 6907 6896 6895 6894 ] final  149.45 input  -60.11 | X-H torsion
[ 7974 7965 7964 7962 ] final -128.53 input  175.53 | X-H torsion
[ 8008 7997 7996 7995 ] final  105.53 input   59.86 | X-H torsion
[ 10167 10162 10161 10158 ] final  -89.36 input  -65.29 | X-H torsion
[ 10718 10713 10712 10709 ] final -166.83 input   66.30 | X-H torsion
[ 10763 10752 10751 10750 ] final -104.66 input  -60.55 | X-H torsion
[ 11005 11000 10999 10996 ] final  -60.65 input  -57.11 | X-H torsion

> <Gold.Protein.ActiveResidues>
 VAL166  LYS551  ARG553  GLY616  TRP617  ASP618  TYR619  PRO620  LYS621  CYS622 
 ASP623  PHE694  ASN695  SER759  ASP760  ASP761  ALA762  ILE779  LEU786  VAL792 
 PHE793  MET794  SER795  GLU796  ALA797  LYS798  CYS799  TRP800  GLU811  SER814 

> <Gold.Protein.RotatedAtoms>
  152.1278  133.4390  159.4706 H   0  0  0  0  0  0  0  0  0  0  0  0  # atno 6907 bound_to 6896
  150.6876  134.2457  159.4499 H   0  0  0  0  0  0  0  0  0  0  0  0  # atno 6908 bound_to 6896
  152.0338  134.9751  160.0623 H   0  0  0  0  0  0  0  0  0  0  0  0  # atno 6909 bound_to 6896
  144.9662  140.7498  143.4699 H   0  0  0  0  0  0  0  0  0  0  0  0  # atno 7974 bound_to 7965
  156.1667  140.3129  155.8901 H   0  0  0  0  0  0  0  0  0  0  0  0  # atno 8008 bound_to 7997
  155.3671  140.0480  157.3063 H   0  0  0  0  0  0  0  0  0  0  0  0  # atno 8009 bound_to 7997
  154.5199  140.2194  155.9005 H   0  0  0  0  0  0  0  0  0  0  0  0  # atno 8010 bound_to 7997
  140.3656  143.2820  151.9562 H   0  0  0  0  0  0  0  0  0  0  0  0  # atno 10167 bound_to 10162
  156.6736  130.9094  151.3047 H   0  0  0  0  0  0  0  0  0  0  0  0  # atno 10718 bound_to 10713
  154.7893  135.4778  154.0017 H   0  0  0  0  0  0  0  0  0  0  0  0  # atno 10763 bound_to 10752
  153.1607  135.6808  153.8753 H   0  0  0  0  0  0  0  0  0  0  0  0  # atno 10764 bound_to 10752
  153.8368  135.3184  155.3401 H   0  0  0  0  0  0  0  0  0  0  0  0  # atno 10765 bound_to 10752
  141.1295  133.6624  156.5256 H   0  0  0  0  0  0  0  0  0  0  0  0  # atno 11005 bound_to 11000
  145.2627  139.1986  143.4883 LP  0  0  0  0  0  0  0  0  0  0  0  0  # atno 17320 bound_to 7965
  146.3368  140.2560  142.8600 LP  0  0  0  0  0  0  0  0  0  0  0  0  # atno 17321 bound_to 7965
  139.4809  144.5953  151.7700 LP  0  0  0  0  0  0  0  0  0  0  0  0  # atno 17342 bound_to 10162
  140.5084  144.1062  150.5988 LP  0  0  0  0  0  0  0  0  0  0  0  0  # atno 17343 bound_to 10162
  157.7068  130.9395  150.0958 LP  0  0  0  0  0  0  0  0  0  0  0  0  # atno 17370 bound_to 10713
  156.1920  130.3655  149.8897 LP  0  0  0  0  0  0  0  0  0  0  0  0  # atno 17371 bound_to 10713
  140.4257  134.7147  157.4914 LP  0  0  0  0  0  0  0  0  0  0  0  0  # atno 17394 bound_to 11000
  140.0329  134.6380  155.9083 LP  0  0  0  0  0  0  0  0  0  0  0  0  # atno 17395 bound_to 11000

$$$$
