AV-unprocessed.smi:2829|AV-procd|sdf|10905|dock8
  -GOLD-   2272015353D 1   1.00000     0.00000
 Structure written by MMmdl.
 50 53  0  0  0  0  0  0  0  0  1 V2000
  151.8211  145.5277  160.1331 C   0  0  0  0  0  0  0  0  0  0  0  0
  151.8034  144.3731  159.1099 C   0  0  0  0  0  0  0  0  0  0  0  0
  150.3498  144.0574  158.7009 C   0  0  0  0  0  0  0  0  0  0  0  0
  152.5453  144.8618  157.8453 C   0  0  0  0  0  0  0  0  0  0  0  0
  152.4537  143.1215  159.7268 C   0  0  0  0  0  0  0  0  0  0  0  0
  152.9037  143.0634  161.0652 C   0  0  0  0  0  0  0  0  0  0  0  0
  153.4832  141.8630  161.5090 C   0  0  0  0  0  0  0  0  0  0  0  0
  153.5820  140.7889  160.6023 C   0  0  0  0  0  0  0  0  0  0  0  0
  154.1757  139.6090  161.1208 N   0  0  0  0  0  0  0  0  0  0  0  0
  153.9023  138.3278  160.8035 C   0  0  0  0  0  0  0  0  0  0  0  0
  153.0801  137.9729  159.9613 O   0  0  0  0  0  0  0  0  0  0  0  0
  154.6155  137.4289  161.5044 N   0  0  0  0  0  0  0  0  0  0  0  0
  154.5523  135.9652  161.3961 C   0  0  1  0  0  0  0  0  0  0  0  0
  155.8683  135.3081  160.9591 C   0  0  1  0  0  0  0  0  0  0  0  0
  157.0677  135.7426  160.1980 C   0  0  0  0  0  0  0  0  0  0  0  0
  158.1189  135.0019  161.0634 C   0  0  0  0  0  0  0  0  0  0  0  0
  157.3994  134.5031  162.2196 O   0  0  0  0  0  0  0  0  0  0  0  0
  156.3351  135.4196  162.4013 C   0  0  2  0  0  0  0  0  0  0  0  0
  154.8460  135.2240  162.7406 C   0  0  0  0  0  0  0  0  0  0  0  0
  154.2706  135.6978  164.0812 C   0  0  0  0  0  0  0  0  0  0  0  0
  154.2368  134.2326  164.5290 C   0  0  0  0  0  0  0  0  0  0  0  0
  154.2885  133.8259  163.0529 C   0  0  0  0  0  0  0  0  0  0  0  0
  153.1273  140.9136  159.3305 N   0  0  0  0  0  0  0  0  0  0  0  0
  152.5763  142.0530  158.9017 N   0  0  0  0  0  0  0  0  0  0  0  0
  151.3852  146.4359  159.7156 H   0  0  0  0  0  0  0  0  0  0  0  0
  152.8392  145.7645  160.4442 H   0  0  0  0  0  0  0  0  0  0  0  0
  151.2522  145.2828  161.0307 H   0  0  0  0  0  0  0  0  0  0  0  0
  149.7416  143.7670  159.5583 H   0  0  0  0  0  0  0  0  0  0  0  0
  150.3104  143.2413  157.9787 H   0  0  0  0  0  0  0  0  0  0  0  0
  149.8681  144.9232  158.2449 H   0  0  0  0  0  0  0  0  0  0  0  0
  152.0677  145.7478  157.4249 H   0  0  0  0  0  0  0  0  0  0  0  0
  152.5516  144.1023  157.0625 H   0  0  0  0  0  0  0  0  0  0  0  0
  153.5794  145.1314  158.0631 H   0  0  0  0  0  0  0  0  0  0  0  0
  152.8203  143.8951  161.7473 H   0  0  0  0  0  0  0  0  0  0  0  0
  153.8422  141.7727  162.5240 H   0  0  0  0  0  0  0  0  0  0  0  0
  154.8786  139.7513  161.8308 H   0  0  0  0  0  0  0  0  0  0  0  0
  155.2600  137.7952  162.1902 H   0  0  0  0  0  0  0  0  0  0  0  0
  153.6685  135.5878  160.8797 H   0  0  0  0  0  0  0  0  0  0  0  0
  155.6362  134.2719  160.6866 H   0  0  0  0  0  0  0  0  0  0  0  0
  157.0593  135.4059  159.1612 H   0  0  0  0  0  0  0  0  0  0  0  0
  157.2072  136.8240  160.2255 H   0  0  0  0  0  0  0  0  0  0  0  0
  158.5743  134.1684  160.5281 H   0  0  0  0  0  0  0  0  0  0  0  0
  158.9138  135.6809  161.3743 H   0  0  0  0  0  0  0  0  0  0  0  0
  156.7048  136.4121  162.6760 H   0  0  0  0  0  0  0  0  0  0  0  0
  154.9341  136.3370  164.6642 H   0  0  0  0  0  0  0  0  0  0  0  0
  153.2742  136.1313  163.9825 H   0  0  0  0  0  0  0  0  0  0  0  0
  155.1334  133.9393  165.0774 H   0  0  0  0  0  0  0  0  0  0  0  0
  153.3271  133.9364  165.0521 H   0  0  0  0  0  0  0  0  0  0  0  0
  153.2981  133.6618  162.6260 H   0  0  0  0  0  0  0  0  0  0  0  0
  154.9658  133.0001  162.8332 H   0  0  0  0  0  0  0  0  0  0  0  0
  1  2  1  0  0  0  0
  1 25  1  0  0  0  0
  1 26  1  0  0  0  0
  1 27  1  0  0  0  0
  2  3  1  0  0  0  0
  2  4  1  0  0  0  0
  2  5  1  0  0  0  0
  3 28  1  0  0  0  0
  3 29  1  0  0  0  0
  3 30  1  0  0  0  0
  4 31  1  0  0  0  0
  4 32  1  0  0  0  0
  4 33  1  0  0  0  0
  5 24  1  0  0  0  0
  5  6  2  0  0  0  0
  6  7  1  0  0  0  0
  6 34  1  0  0  0  0
  7  8  2  0  0  0  0
  7 35  1  0  0  0  0
  8  9  1  0  0  0  0
  8 23  1  0  0  0  0
  9 10  1  0  0  0  0
  9 36  1  0  0  0  0
 10 11  2  0  0  0  0
 10 12  1  0  0  0  0
 12 13  1  0  0  0  0
 12 37  1  0  0  0  0
 13 19  1  0  0  0  0
 13 14  1  0  0  0  0
 13 38  1  0  0  0  0
 14 18  1  0  0  0  0
 14 15  1  0  0  0  0
 14 39  1  0  0  0  0
 15 16  1  0  0  0  0
 15 40  1  0  0  0  0
 15 41  1  0  0  0  0
 16 17  1  0  0  0  0
 16 42  1  0  0  0  0
 16 43  1  0  0  0  0
 17 18  1  0  0  0  0
 18 19  1  0  0  0  0
 18 44  1  0  0  0  0
 19 22  1  0  0  0  0
 19 20  1  0  0  0  0
 20 21  1  0  0  0  0
 20 45  1  0  0  0  0
 20 46  1  0  0  0  0
 21 22  1  0  0  0  0
 21 47  1  0  0  0  0
 21 48  1  0  0  0  0
 22 49  1  0  0  0  0
 22 50  1  0  0  0  0
 23 24  2  0  0  0  0
M  END
> <s_m_source_file>
AV-unprocessed.smi

> <i_m_source_file_index>
2829

> <i_lp_mmshare_version>
43012

> <i_f3d_flags>
0

> <s_epik_input>
W0NIM11DKFtDSDNdKShbQ0gzXSljMVtjSF1bY0hdYyhubjEpW05IXUMoPU8pW05IXVtDQEBIXTJbQ0BIXShbQ0gyXVtDSDJdTzMpW0NAQEhdM0MyNFtDSDJdW0NIMl1bQ0gyXTQ=

> <s_epik_cmdline>
J2VwaWtfcHl0aG9uJywgJy1waCcsICc3LjAnLCAnLXRuJywgJzgnLCAnLW1hJywgJzIwMCcsICctbWV0YWxfYmluZGluZycsICctaW1hZScsICc8aW5maWxlLm1hZT4nLCAnLW9tYWUnLCAnPG91dGZpbGUubWFlPic=

> <r_lp_tautomer_probability>
1

> <r_epik_Ionization_Penalty>
0.011915

> <r_epik_Ionization_Penalty_Charging>
0

> <r_epik_Ionization_Penalty_Neutral>
0.011915

> <r_epik_State_Penalty>
0.00486223

> <r_epik_Charging_Adjusted_Penalty>
0.00486223

> <i_epik_Tot_Q>
0

> <i_epik_Tot_abs_Q>
0

> <r_epik_Metal_State_Penalty>
-0

> <b_epik_Metal_Only>
0

> <s_lp_Force_Field>
OPLS_2005

> <r_lp_Energy>
85.0365

> <b_lp_Chiralities_Consistent>
1

> <s_lp_Variant>
AV-unprocessed.smi:2829-8

> <Gold.Version>
5.8.1

> <Gold.Id.Protein>
6NUR|6NUR_protein|mol2

> <Gold.PLP.Fitness>
44.4994

> <Gold.PLP.PLP>
-45.0723

> <Gold.PLP.part.hbond>
0.0000

> <Gold.PLP.part.metal>
0.0000

> <Gold.PLP.part.buried>
-6.4902

> <Gold.PLP.part.nonpolar>
-38.5399

> <Gold.PLP.part.repulsive>
0.0097

> <Gold.PLP.ligand.clash>
0.0000

> <Gold.PLP.ligand.torsion>
0.4443

> <Gold.PLP.Chemscore.Hbond>
0.0000

> <Gold.PLP.Chemscore.CHOScore>
0.0000

> <Gold.PLP.Chemscore.Metal>
0.0000

> <Gold.PLP.Chemscore.Internal.Correction>
0.3157

> <Gold.Rescore>
     Score         DG    S(hbond)    S(metal)    S(lipo)     H(rot)  DE(clash)    DE(int)     intcor
     16.03     -17.73       0.00        0.00     130.09       1.16       0.19       1.50       ----

> <Gold.Chemscore.Fitness>
16.0320

> <Gold.Chemscore.DG>
-17.7270

> <Gold.Chemscore.ZeroCoef>
-5.4800

> <Gold.Chemscore.Hbond>
0.0000

> <Gold.Chemscore.Metal>
0.0000

> <Gold.Chemscore.Lipo>
130.0948

> <Gold.Chemscore.Internal_Hbond>
0.0000

> <Gold.Chemscore.DEClash>
0.1937

> <Gold.Chemscore.DEInternal>
1.5012

> <Gold.Chemscore.Rot>
1.1618

> <Gold.Chemscore.Internal.Correction>
   9.000000E+99

> <Gold.Chemscore.Hbond.Weighted>
-0.0000

> <Gold.Chemscore.Metal.Weighted>
-0.0000

> <Gold.Chemscore.Lipo.Weighted>
-15.2211

> <Gold.Chemscore.Internal_Hbond.Weighted>
0.0000

> <Gold.Chemscore.DEClash.Weighted>
0.1937

> <Gold.Chemscore.DEInternal.Weighted>
1.5012

> <Gold.Chemscore.Rot.Weighted>
2.9741

> <Gold.Chemscore.Internal.Correction.Weighted>
   9.000000E+99

> <Gold.Protein.RotatedTorsions>
[ 6907 6896 6895 6894 ] final -100.64 input  -60.11 | X-H torsion
[ 7974 7965 7964 7962 ] final   89.84 input  175.53 | X-H torsion
[ 8008 7997 7996 7995 ] final -100.30 input   59.86 | X-H torsion
[ 10167 10162 10161 10158 ] final  167.12 input  -65.29 | X-H torsion
[ 10718 10713 10712 10709 ] final  147.97 input   66.30 | X-H torsion
[ 10763 10752 10751 10750 ] final   58.73 input  -60.55 | X-H torsion
[ 11005 11000 10999 10996 ] final  -23.09 input  -57.11 | X-H torsion

> <Gold.Protein.ActiveResidues>
 VAL166  LYS551  ARG553  GLY616  TRP617  ASP618  TYR619  PRO620  LYS621  CYS622 
 ASP623  PHE694  ASN695  SER759  ASP760  ASP761  ALA762  ILE779  LEU786  VAL792 
 PHE793  MET794  SER795  GLU796  ALA797  LYS798  CYS799  TRP800  GLU811  SER814 

> <Gold.Protein.RotatedAtoms>
  150.7124  134.0856  159.3913 H   0  0  0  0  0  0  0  0  0  0  0  0  # atno 6907 bound_to 6896
  151.8841  135.0440  160.0501 H   0  0  0  0  0  0  0  0  0  0  0  0  # atno 6908 bound_to 6896
  152.2544  133.5207  159.5381 H   0  0  0  0  0  0  0  0  0  0  0  0  # atno 6909 bound_to 6896
  145.5270  139.2281  143.2640 H   0  0  0  0  0  0  0  0  0  0  0  0  # atno 7974 bound_to 7965
  154.8268  140.0442  157.1449 H   0  0  0  0  0  0  0  0  0  0  0  0  # atno 8008 bound_to 7997
  154.9198  140.3025  155.5202 H   0  0  0  0  0  0  0  0  0  0  0  0  # atno 8009 bound_to 7997
  156.2984  140.2343  156.4246 H   0  0  0  0  0  0  0  0  0  0  0  0  # atno 8010 bound_to 7997
  139.4939  144.3955  151.9469 H   0  0  0  0  0  0  0  0  0  0  0  0  # atno 10167 bound_to 10162
  157.3144  131.0893  151.1291 H   0  0  0  0  0  0  0  0  0  0  0  0  # atno 10718 bound_to 10713
  152.9877  135.5596  154.5599 H   0  0  0  0  0  0  0  0  0  0  0  0  # atno 10763 bound_to 10752
  154.5020  135.2798  155.1415 H   0  0  0  0  0  0  0  0  0  0  0  0  # atno 10764 bound_to 10752
  154.2841  135.6339  153.5412 H   0  0  0  0  0  0  0  0  0  0  0  0  # atno 10765 bound_to 10752
  140.8719  133.7715  156.0196 H   0  0  0  0  0  0  0  0  0  0  0  0  # atno 11005 bound_to 11000
  146.2069  140.6085  142.9077 LP  0  0  0  0  0  0  0  0  0  0  0  0  # atno 17320 bound_to 7965
  144.7646  140.5500  143.6712 LP  0  0  0  0  0  0  0  0  0  0  0  0  # atno 17321 bound_to 7965
  140.3393  144.3223  150.5970 LP  0  0  0  0  0  0  0  0  0  0  0  0  # atno 17342 bound_to 10162
  140.5579  143.2196  151.7815 LP  0  0  0  0  0  0  0  0  0  0  0  0  # atno 17343 bound_to 10162
  157.2600  130.6654  149.5970 LP  0  0  0  0  0  0  0  0  0  0  0  0  # atno 17370 bound_to 10713
  155.9680  130.4511  150.5724 LP  0  0  0  0  0  0  0  0  0  0  0  0  # atno 17371 bound_to 10713
  140.8564  134.2893  157.5254 LP  0  0  0  0  0  0  0  0  0  0  0  0  # atno 17394 bound_to 11000
  139.8713  134.9495  156.4027 LP  0  0  0  0  0  0  0  0  0  0  0  0  # atno 17395 bound_to 11000

$$$$
