AV-unprocessed.smi:1554|AV-procd|sdf|6251|dock3
  -GOLD-   22720 6433D 1   1.00000     0.00000
 Structure written by MMmdl.
 48 50  0  0  0  0  0  0  0  0  2 V2000
  152.6419  142.7399  161.0157 C   0  0  0  0  0  0  0  0  0  0  0  0
  152.3577  142.0244  159.7068 C   0  0  0  0  0  0  0  0  0  0  0  0
  151.4066  142.5723  158.8165 C   0  0  0  0  0  0  0  0  0  0  0  0
  151.1118  141.9367  157.5906 C   0  0  0  0  0  0  0  0  0  0  0  0
  150.2304  142.2898  156.5829 N   0  0  0  0  0  0  0  0  0  0  0  0
  150.4078  141.3003  155.7123 C   0  0  0  0  0  0  0  0  0  0  0  0
  151.2994  140.3447  156.0387 N   0  0  0  0  0  0  0  0  0  0  0  0
  151.6575  139.1710  155.2626 C   0  0  0  0  0  0  0  0  0  0  0  0
  150.4313  138.3048  154.9166 C   0  0  1  0  0  0  0  0  0  0  0  0
  150.2133  138.3422  153.5188 O   0  0  0  0  0  0  0  0  0  0  0  0
  150.6165  136.8385  155.3536 C   0  0  0  0  0  0  0  0  0  0  0  0
  149.5947  135.9355  154.7639 N   0  3  2  0  0  0  0  0  0  0  0  0
  148.2416  136.1007  155.3507 C   0  0  0  0  0  0  0  0  0  0  0  0
  147.2385  135.1685  154.6520 C   0  0  0  0  0  0  0  0  0  0  0  0
  147.6880  133.8227  154.7502 O   0  0  0  0  0  0  0  0  0  0  0  0
  148.9466  133.6249  154.1154 C   0  0  2  0  0  0  0  0  0  0  0  0
  149.2960  132.1349  154.2006 C   0  0  0  0  0  0  0  0  0  0  0  0
  150.0031  134.5111  154.8040 C   0  0  0  0  0  0  0  0  0  0  0  0
  151.7986  140.7272  157.2786 C   0  0  0  0  0  0  0  0  0  0  0  0
  152.7485  140.1732  158.1548 C   0  0  0  0  0  0  0  0  0  0  0  0
  153.0326  140.8222  159.3745 C   0  0  0  0  0  0  0  0  0  0  0  0
  154.0612  140.2169  160.3135 C   0  0  0  0  0  0  0  0  0  0  0  0
  152.0634  143.6603  161.1006 H   0  0  0  0  0  0  0  0  0  0  0  0
  153.6976  143.0019  161.0880 H   0  0  0  0  0  0  0  0  0  0  0  0
  152.3842  142.1026  161.8620 H   0  0  0  0  0  0  0  0  0  0  0  0
  150.8937  143.4888  159.0688 H   0  0  0  0  0  0  0  0  0  0  0  0
  149.8538  141.2653  154.7854 H   0  0  0  0  0  0  0  0  0  0  0  0
  152.1723  139.4914  154.3556 H   0  0  0  0  0  0  0  0  0  0  0  0
  152.3770  138.5914  155.8424 H   0  0  0  0  0  0  0  0  0  0  0  0
  149.5583  138.7342  155.4065 H   0  0  0  0  0  0  0  0  0  0  0  0
  149.8012  137.5337  153.2542 H   0  0  0  0  0  0  0  0  0  0  0  0
  151.6141  136.5110  155.0558 H   0  0  0  0  0  0  0  0  0  0  0  0
  150.5820  136.7551  156.4410 H   0  0  0  0  0  0  0  0  0  0  0  0
  148.2747  135.8773  156.4183 H   0  0  0  0  0  0  0  0  0  0  0  0
  147.9001  137.1303  155.2517 H   0  0  0  0  0  0  0  0  0  0  0  0
  146.2602  135.2485  155.1262 H   0  0  0  0  0  0  0  0  0  0  0  0
  147.1093  135.4481  153.6050 H   0  0  0  0  0  0  0  0  0  0  0  0
  148.8646  133.9018  153.0625 H   0  0  0  0  0  0  0  0  0  0  0  0
  150.2530  131.9273  153.7213 H   0  0  0  0  0  0  0  0  0  0  0  0
  148.5382  131.5282  153.7041 H   0  0  0  0  0  0  0  0  0  0  0  0
  149.3611  131.8020  155.2369 H   0  0  0  0  0  0  0  0  0  0  0  0
  150.9641  134.3904  154.3022 H   0  0  0  0  0  0  0  0  0  0  0  0
  150.1409  134.2011  155.8414 H   0  0  0  0  0  0  0  0  0  0  0  0
  153.2543  139.2566  157.8898 H   0  0  0  0  0  0  0  0  0  0  0  0
  154.5034  139.3142  159.8908 H   0  0  0  0  0  0  0  0  0  0  0  0
  153.6001  139.9509  161.2647 H   0  0  0  0  0  0  0  0  0  0  0  0
  154.8682  140.9244  160.5050 H   0  0  0  0  0  0  0  0  0  0  0  0
  149.5269  136.1828  153.7863 H   0  0  0  0  0  0  0  0  0  0  0  0
  1  2  1  0  0  0  0
  1 23  1  0  0  0  0
  1 24  1  0  0  0  0
  1 25  1  0  0  0  0
  2 21  1  0  0  0  0
  2  3  2  0  0  0  0
  3  4  1  0  0  0  0
  3 26  1  0  0  0  0
  4 19  2  0  0  0  0
  4  5  1  0  0  0  0
  5  6  2  0  0  0  0
  6  7  1  0  0  0  0
  6 27  1  0  0  0  0
  7  8  1  0  0  0  0
  7 19  1  0  0  0  0
  8  9  1  0  0  0  0
  8 28  1  0  0  0  0
  8 29  1  0  0  0  0
  9 10  1  0  0  0  0
  9 11  1  0  0  0  0
  9 30  1  0  0  0  0
 10 31  1  0  0  0  0
 11 12  1  0  0  0  0
 11 32  1  0  0  0  0
 11 33  1  0  0  0  0
 12 18  1  0  0  0  0
 12 13  1  0  0  0  0
 12 48  1  0  0  0  0
 13 14  1  0  0  0  0
 13 34  1  0  0  0  0
 13 35  1  0  0  0  0
 14 15  1  0  0  0  0
 14 36  1  0  0  0  0
 14 37  1  0  0  0  0
 15 16  1  0  0  0  0
 16 17  1  0  0  0  0
 16 18  1  0  0  0  0
 16 38  1  0  0  0  0
 17 39  1  0  0  0  0
 17 40  1  0  0  0  0
 17 41  1  0  0  0  0
 18 42  1  0  0  0  0
 18 43  1  0  0  0  0
 19 20  1  0  0  0  0
 20 21  2  0  0  0  0
 20 44  1  0  0  0  0
 21 22  1  0  0  0  0
 22 45  1  0  0  0  0
 22 46  1  0  0  0  0
 22 47  1  0  0  0  0
M  CHG  1  12   1
M  END
> <s_m_source_file>
AV-unprocessed.smi

> <i_m_source_file_index>
1554

> <i_lp_mmshare_version>
43012

> <i_f3d_flags>
0

> <s_epik_input>
W0NIM11jKFtjSF0xKWMoW0NIM10pW2NIXWMoYzEyKW4oW2NIXW4yKVtDSDJdW0NASF0oW09IXSlbQ0gyXU4zW0NIMl1bQ0gyXU9bQ0BASF0oW0NIM10pW0NIMl0z

> <s_epik_cmdline>
J2VwaWtfcHl0aG9uJywgJy1waCcsICc3LjAnLCAnLXRuJywgJzgnLCAnLW1hJywgJzIwMCcsICctbWV0YWxfYmluZGluZycsICctaW1hZScsICc8aW5maWxlLm1hZT4nLCAnLW9tYWUnLCAnPG91dGZpbGUubWFlPic=

> <r_epik_Ionization_Penalty>
0.695251

> <r_epik_Ionization_Penalty_Charging>
0.608065

> <r_epik_Ionization_Penalty_Neutral>
0.0871863

> <r_epik_State_Penalty>
0.731955

> <r_epik_Charging_Adjusted_Penalty>
1.34002

> <i_epik_Tot_Q>
1

> <i_epik_Tot_abs_Q>
1

> <r_epik_Metal_State_Penalty>
0.652186

> <b_epik_Metal_Only>
0

> <s_lp_Force_Field>
OPLS_2005

> <r_lp_Energy>
20.6032

> <b_lp_Chiralities_Consistent>
1

> <s_lp_Variant>
AV-unprocessed.smi:1554-12

> <Gold.Version>
5.8.1

> <Gold.Id.Protein>
6NUR|6NUR_protein|mol2

> <Gold.PLP.Fitness>
49.7387

> <Gold.PLP.PLP>
-42.6176

> <Gold.PLP.part.hbond>
-3.5638

> <Gold.PLP.part.metal>
0.0000

> <Gold.PLP.part.buried>
-4.2973

> <Gold.PLP.part.nonpolar>
-35.7243

> <Gold.PLP.part.repulsive>
1.0748

> <Gold.PLP.ligand.clash>
0.0000

> <Gold.PLP.ligand.torsion>
0.9548

> <Gold.PLP.Chemscore.Hbond>
3.0000

> <Gold.PLP.Chemscore.CHOScore>
0.0000

> <Gold.PLP.Chemscore.Metal>
0.0000

> <Gold.Chemscore.Hbonds>
donor molecule, donor type, donor heavy atom, donor atom, acceptor molecule, acceptor atom, score
      L1  H    10    31       P1  7948  0.96
      L1  H    12    48       P1  7948  2.00

> <Gold.PLP.Chemscore.Internal.Correction>
0.0307

> <Gold.Rescore>
     Score         DG    S(hbond)    S(metal)    S(lipo)     H(rot)  DE(clash)    DE(int)     intcor
     16.72     -17.82       1.81        0.00      98.90       2.05       0.12       0.98       ----

> <Gold.Chemscore.Fitness>
16.7210

> <Gold.Chemscore.DG>
-17.8243

> <Gold.Chemscore.ZeroCoef>
-5.4800

> <Gold.Chemscore.Hbond>
1.8061

> <Gold.Chemscore.Metal>
0.0000

> <Gold.Chemscore.Lipo>
98.9031

> <Gold.Chemscore.Internal_Hbond>
0.0000

> <Gold.Chemscore.DEClash>
0.1214

> <Gold.Chemscore.DEInternal>
0.9818

> <Gold.Chemscore.Rot>
2.0546

> <Gold.Chemscore.Internal.Correction>
   9.000000E+99

> <Gold.Chemscore.Hbonds>
donor molecule, donor type, donor heavy atom, donor atom, acceptor molecule, acceptor atom, score
      L1  H    10    31       P1  7948  0.53
      L1  H    12    48       P1  7948  0.59

> <Gold.Chemscore.Hbond.Weighted>
-6.0323

> <Gold.Chemscore.Metal.Weighted>
-0.0000

> <Gold.Chemscore.Lipo.Weighted>
-11.5717

> <Gold.Chemscore.Internal_Hbond.Weighted>
0.0000

> <Gold.Chemscore.DEClash.Weighted>
0.1214

> <Gold.Chemscore.DEInternal.Weighted>
0.9818

> <Gold.Chemscore.Rot.Weighted>
5.2597

> <Gold.Chemscore.Internal.Correction.Weighted>
   9.000000E+99

> <Gold.Protein.RotatedTorsions>
[ 6907 6896 6895 6894 ] final -159.42 input  -60.11 | X-H torsion
[ 7974 7965 7964 7962 ] final -106.12 input  175.53 | X-H torsion
[ 8008 7997 7996 7995 ] final  -93.57 input   59.86 | X-H torsion
[ 10167 10162 10161 10158 ] final  -51.10 input  -65.29 | X-H torsion
[ 10718 10713 10712 10709 ] final -139.48 input   66.30 | X-H torsion
[ 10763 10752 10751 10750 ] final    7.21 input  -60.55 | X-H torsion
[ 11005 11000 10999 10996 ] final   45.16 input  -57.11 | X-H torsion

> <Gold.Protein.ActiveResidues>
 VAL166  LYS551  ARG553  GLY616  TRP617  ASP618  TYR619  PRO620  LYS621  CYS622 
 ASP623  PHE694  ASN695  SER759  ASP760  ASP761  ALA762  ILE779  LEU786  VAL792 
 PHE793  MET794  SER795  GLU796  ALA797  LYS798  CYS799  TRP800  GLU811  SER814 

> <Gold.Protein.RotatedAtoms>
  151.3334  133.3991  159.2664 H   0  0  0  0  0  0  0  0  0  0  0  0  # atno 6907 bound_to 6896
  150.9937  134.9267  159.7925 H   0  0  0  0  0  0  0  0  0  0  0  0  # atno 6908 bound_to 6896
  152.5255  134.3298  159.9231 H   0  0  0  0  0  0  0  0  0  0  0  0  # atno 6909 bound_to 6896
  145.2219  140.9137  143.3255 H   0  0  0  0  0  0  0  0  0  0  0  0  # atno 7974 bound_to 7965
  154.7374  140.0497  157.0780 H   0  0  0  0  0  0  0  0  0  0  0  0  # atno 8008 bound_to 7997
  155.0223  140.3148  155.4769 H   0  0  0  0  0  0  0  0  0  0  0  0  # atno 8009 bound_to 7997
  156.2856  140.2165  156.5342 H   0  0  0  0  0  0  0  0  0  0  0  0  # atno 8010 bound_to 7997
  140.6605  143.2632  151.4455 H   0  0  0  0  0  0  0  0  0  0  0  0  # atno 10167 bound_to 10162
  156.3113  130.7483  151.1559 H   0  0  0  0  0  0  0  0  0  0  0  0  # atno 10718 bound_to 10713
  153.2389  135.6901  153.7805 H   0  0  0  0  0  0  0  0  0  0  0  0  # atno 10763 bound_to 10752
  153.6942  135.3308  155.3210 H   0  0  0  0  0  0  0  0  0  0  0  0  # atno 10764 bound_to 10752
  154.8347  135.4552  154.1304 H   0  0  0  0  0  0  0  0  0  0  0  0  # atno 10765 bound_to 10752
  140.1485  134.4492  155.8398 H   0  0  0  0  0  0  0  0  0  0  0  0  # atno 11005 bound_to 11000
  144.9758  139.3834  143.6286 LP  0  0  0  0  0  0  0  0  0  0  0  0  # atno 17320 bound_to 7965
  146.3374  139.8876  142.8814 LP  0  0  0  0  0  0  0  0  0  0  0  0  # atno 17321 bound_to 7965
  139.5838  144.1651  152.2002 LP  0  0  0  0  0  0  0  0  0  0  0  0  # atno 17342 bound_to 10162
  140.0984  144.5561  150.7006 LP  0  0  0  0  0  0  0  0  0  0  0  0  # atno 17343 bound_to 10162
  157.7391  131.0532  150.5250 LP  0  0  0  0  0  0  0  0  0  0  0  0  # atno 17370 bound_to 10713
  156.5390  130.4203  149.6163 LP  0  0  0  0  0  0  0  0  0  0  0  0  # atno 17371 bound_to 10713
  141.2196  133.6862  156.7378 LP  0  0  0  0  0  0  0  0  0  0  0  0  # atno 17394 bound_to 11000
  140.2634  134.8449  157.3779 LP  0  0  0  0  0  0  0  0  0  0  0  0  # atno 17395 bound_to 11000

$$$$
