AV-unprocessed.smi:2170|AV-procd|sdf|8825|dock1
  -GOLD-   2272012 23D 1   1.00000     0.00000
 Structure written by MMmdl.
 45 46  0  0  0  0  0  0  0  0  2 V2000
  153.0617  138.4990  154.8332 C   0  0  0  0  0  0  0  0  0  0  0  0
  151.7567  137.7166  155.0654 C   0  0  0  0  0  0  0  0  0  0  0  0
  150.6262  138.2167  154.1478 C   0  0  0  0  0  0  0  0  0  0  0  0
  151.3663  137.7290  156.4976 N   0  0  0  0  0  0  0  0  0  0  0  0
  151.8717  138.8657  157.2938 C   0  0  0  0  0  0  0  0  0  0  0  0
  151.2098  136.1947  157.3101 S   0  0  0  0  0  0  0  0  0  0  0  0
  152.4793  135.4757  157.1119 O   0  0  0  0  0  0  0  0  0  0  0  0
  150.8079  136.5098  158.6910 O   0  0  0  0  0  0  0  0  0  0  0  0
  150.0078  135.5987  156.3996 N   0  5  0  0  0  0  0  0  0  0  0  0
  150.2913  134.5002  155.4950 C   0  0  0  0  0  0  0  0  0  0  0  0
  149.0903  134.1659  154.6219 C   0  0  0  0  0  0  0  0  0  0  0  0
  147.8886  134.8998  154.7242 C   0  0  0  0  0  0  0  0  0  0  0  0
  146.8025  134.5531  153.8966 C   0  0  0  0  0  0  0  0  0  0  0  0
  146.9431  133.4815  152.9834 C   0  0  0  0  0  0  0  0  0  0  0  0
  145.8685  133.1223  152.1405 N   0  0  0  0  0  0  0  0  0  0  0  0
  146.1774  132.7353  150.7650 C   0  0  0  0  0  0  0  0  0  0  0  0
  144.9410  132.1157  150.0924 C   0  0  0  0  0  0  0  0  0  0  0  0
  143.8474  133.0236  150.1732 O   0  0  0  0  0  0  0  0  0  0  0  0
  143.4906  133.3035  151.5227 C   0  0  0  0  0  0  0  0  0  0  0  0
  144.6762  133.9591  152.2518 C   0  0  0  0  0  0  0  0  0  0  0  0
  148.0953  132.7724  152.8939 N   0  0  0  0  0  0  0  0  0  0  0  0
  149.1364  133.1087  153.6863 C   0  0  0  0  0  0  0  0  0  0  0  0
  153.3780  138.4214  153.7928 H   0  0  0  0  0  0  0  0  0  0  0  0
  153.8742  138.1111  155.4476 H   0  0  0  0  0  0  0  0  0  0  0  0
  152.9469  139.5587  155.0609 H   0  0  0  0  0  0  0  0  0  0  0  0
  151.9365  136.6800  154.7821 H   0  0  0  0  0  0  0  0  0  0  0  0
  150.8703  138.0285  153.1021 H   0  0  0  0  0  0  0  0  0  0  0  0
  150.4588  139.2893  154.2485 H   0  0  0  0  0  0  0  0  0  0  0  0
  149.6882  137.7032  154.3615 H   0  0  0  0  0  0  0  0  0  0  0  0
  152.9608  138.8643  157.3179 H   0  0  0  0  0  0  0  0  0  0  0  0
  151.5203  138.8100  158.3233 H   0  0  0  0  0  0  0  0  0  0  0  0
  151.5242  139.8164  156.8925 H   0  0  0  0  0  0  0  0  0  0  0  0
  151.1392  134.7221  154.8459 H   0  0  0  0  0  0  0  0  0  0  0  0
  150.5681  133.5950  156.0367 H   0  0  0  0  0  0  0  0  0  0  0  0
  147.7828  135.7191  155.4221 H   0  0  0  0  0  0  0  0  0  0  0  0
  145.8775  135.1029  153.9817 H   0  0  0  0  0  0  0  0  0  0  0  0
  146.5044  133.6138  150.2067 H   0  0  0  0  0  0  0  0  0  0  0  0
  146.9960  132.0146  150.7499 H   0  0  0  0  0  0  0  0  0  0  0  0
  145.1506  131.9040  149.0438 H   0  0  0  0  0  0  0  0  0  0  0  0
  144.6765  131.1668  150.5622 H   0  0  0  0  0  0  0  0  0  0  0  0
  142.6304  133.9731  151.5303 H   0  0  0  0  0  0  0  0  0  0  0  0
  143.1841  132.3858  152.0272 H   0  0  0  0  0  0  0  0  0  0  0  0
  144.3994  134.1327  153.2906 H   0  0  0  0  0  0  0  0  0  0  0  0
  144.8898  134.9347  151.8134 H   0  0  0  0  0  0  0  0  0  0  0  0
  150.0238  132.5043  153.5567 H   0  0  0  0  0  0  0  0  0  0  0  0
  1  2  1  0  0  0  0
  1 23  1  0  0  0  0
  1 24  1  0  0  0  0
  1 25  1  0  0  0  0
  2  3  1  0  0  0  0
  2  4  1  0  0  0  0
  2 26  1  0  0  0  0
  3 27  1  0  0  0  0
  3 28  1  0  0  0  0
  3 29  1  0  0  0  0
  4  5  1  0  0  0  0
  4  6  1  0  0  0  0
  5 30  1  0  0  0  0
  5 31  1  0  0  0  0
  5 32  1  0  0  0  0
  6  7  2  0  0  0  0
  6  8  2  0  0  0  0
  6  9  1  0  0  0  0
  9 10  1  0  0  0  0
 10 11  1  0  0  0  0
 10 33  1  0  0  0  0
 10 34  1  0  0  0  0
 11 22  1  0  0  0  0
 11 12  2  0  0  0  0
 12 13  1  0  0  0  0
 12 35  1  0  0  0  0
 13 14  2  0  0  0  0
 13 36  1  0  0  0  0
 14 15  1  0  0  0  0
 14 21  1  0  0  0  0
 15 20  1  0  0  0  0
 15 16  1  0  0  0  0
 16 17  1  0  0  0  0
 16 37  1  0  0  0  0
 16 38  1  0  0  0  0
 17 18  1  0  0  0  0
 17 39  1  0  0  0  0
 17 40  1  0  0  0  0
 18 19  1  0  0  0  0
 19 20  1  0  0  0  0
 19 41  1  0  0  0  0
 19 42  1  0  0  0  0
 20 43  1  0  0  0  0
 20 44  1  0  0  0  0
 21 22  2  0  0  0  0
 22 45  1  0  0  0  0
M  CHG  1   9  -1
M  END
> <s_m_source_file>
AV-unprocessed.smi

> <i_m_source_file_index>
2170

> <i_lp_mmshare_version>
43012

> <i_f3d_flags>
0

> <s_epik_input>
W0NIM11bQ0hdKFtDSDNdKU4oW0NIM10pUyg9TykoPU8pW05IXVtDSDJdYzFbY0hdW2NIXWMobltjSF0xKU4yW0NIMl1bQ0gyXU9bQ0gyXVtDSDJdMg==

> <s_epik_cmdline>
J2VwaWtfcHl0aG9uJywgJy1waCcsICc3LjAnLCAnLXRuJywgJzgnLCAnLW1hJywgJzIwMCcsICctbWV0YWxfYmluZGluZycsICctaW1hZScsICc8aW5maWxlLm1hZT4nLCAnLW9tYWUnLCAnPG91dGZpbGUubWFlPic=

> <r_lp_tautomer_probability>
1

> <r_epik_Ionization_Penalty>
3.3971

> <r_epik_Ionization_Penalty_Charging>
3.31706

> <r_epik_Ionization_Penalty_Neutral>
0.0800436

> <r_epik_State_Penalty>
3.32044

> <r_epik_Charging_Adjusted_Penalty>
6.63751

> <i_epik_Tot_Q>
-1

> <i_epik_Tot_abs_Q>
1

> <r_epik_Metal_State_Penalty>
0.488406

> <b_epik_Metal_Only>
1

> <s_lp_Force_Field>
OPLS_2005

> <r_lp_Energy>
16.8192

> <b_lp_Chiralities_Consistent>
1

> <s_lp_Variant>
AV-unprocessed.smi:2170-2

> <Gold.Version>
5.8.1

> <Gold.Id.Protein>
6NUR|6NUR_protein|mol2

> <Gold.PLP.Fitness>
40.4642

> <Gold.PLP.PLP>
-35.3509

> <Gold.PLP.part.hbond>
-2.0000

> <Gold.PLP.part.metal>
0.0000

> <Gold.PLP.part.buried>
-6.8586

> <Gold.PLP.part.nonpolar>
-27.5394

> <Gold.PLP.part.repulsive>
0.5251

> <Gold.PLP.ligand.clash>
0.0000

> <Gold.PLP.ligand.torsion>
2.2636

> <Gold.PLP.Chemscore.Hbond>
1.8320

> <Gold.PLP.Chemscore.CHOScore>
0.0000

> <Gold.PLP.Chemscore.Metal>
0.0000

> <Gold.Chemscore.Hbonds>
donor molecule, donor type, donor heavy atom, donor atom, acceptor molecule, acceptor atom, score
      P1  H  6896  6909       L1     8  0.86
      P1  H 10752 10765       L1     7  0.80

> <Gold.PLP.Chemscore.Internal.Correction>
4.1445

> <Gold.Rescore>
     Score         DG    S(hbond)    S(metal)    S(lipo)     H(rot)  DE(clash)    DE(int)     intcor
     15.10     -17.32       1.80        0.00      83.38       1.54       0.01       2.21       ----

> <Gold.Chemscore.Fitness>
15.1025

> <Gold.Chemscore.DG>
-17.3160

> <Gold.Chemscore.ZeroCoef>
-5.4800

> <Gold.Chemscore.Hbond>
1.8044

> <Gold.Chemscore.Metal>
0.0000

> <Gold.Chemscore.Lipo>
83.3797

> <Gold.Chemscore.Internal_Hbond>
0.0000

> <Gold.Chemscore.DEClash>
0.0059

> <Gold.Chemscore.DEInternal>
2.2076

> <Gold.Chemscore.Rot>
1.5415

> <Gold.Chemscore.Internal.Correction>
   9.000000E+99

> <Gold.Chemscore.Hbonds>
donor molecule, donor type, donor heavy atom, donor atom, acceptor molecule, acceptor atom, score
      P1  H  6896  6909       L1     8  0.71
      P1  H 10752 10765       L1     7  0.77

> <Gold.Chemscore.Hbond.Weighted>
-6.0269

> <Gold.Chemscore.Metal.Weighted>
-0.0000

> <Gold.Chemscore.Lipo.Weighted>
-9.7554

> <Gold.Chemscore.Internal_Hbond.Weighted>
0.0000

> <Gold.Chemscore.DEClash.Weighted>
0.0059

> <Gold.Chemscore.DEInternal.Weighted>
2.2076

> <Gold.Chemscore.Rot.Weighted>
3.9462

> <Gold.Chemscore.Internal.Correction.Weighted>
   9.000000E+99

> <Gold.Protein.RotatedTorsions>
[ 6907 6896 6895 6894 ] final  101.02 input  -60.11 | X-H torsion
[ 7974 7965 7964 7962 ] final  152.16 input  175.53 | X-H torsion
[ 8008 7997 7996 7995 ] final   35.11 input   59.86 | X-H torsion
[ 10167 10162 10161 10158 ] final  106.05 input  -65.29 | X-H torsion
[ 10718 10713 10712 10709 ] final -161.21 input   66.30 | X-H torsion
[ 10763 10752 10751 10750 ] final -111.53 input  -60.55 | X-H torsion
[ 11005 11000 10999 10996 ] final -108.30 input  -57.11 | X-H torsion

> <Gold.Protein.ActiveResidues>
 VAL166  LYS551  ARG553  GLY616  TRP617  ASP618  TYR619  PRO620  LYS621  CYS622 
 ASP623  PHE694  ASN695  SER759  ASP760  ASP761  ALA762  ILE779  LEU786  VAL792 
 PHE793  MET794  SER795  GLU796  ALA797  LYS798  CYS799  TRP800  GLU811  SER814 

> <Gold.Protein.RotatedAtoms>
  152.5359  134.0189  159.7972 H   0  0  0  0  0  0  0  0  0  0  0  0  # atno 6907 bound_to 6896
  151.0378  133.5725  159.2661 H   0  0  0  0  0  0  0  0  0  0  0  0  # atno 6908 bound_to 6896
  151.2706  135.0690  159.9186 H   0  0  0  0  0  0  0  0  0  0  0  0  # atno 6909 bound_to 6896
  144.8242  139.6632  143.6087 H   0  0  0  0  0  0  0  0  0  0  0  0  # atno 7974 bound_to 7965
  155.1658  140.3287  155.4402 H   0  0  0  0  0  0  0  0  0  0  0  0  # atno 8008 bound_to 7997
  156.2527  140.1952  156.6714 H   0  0  0  0  0  0  0  0  0  0  0  0  # atno 8009 bound_to 7997
  154.6372  140.0575  156.9789 H   0  0  0  0  0  0  0  0  0  0  0  0  # atno 8010 bound_to 7997
  139.7041  144.7089  151.1136 H   0  0  0  0  0  0  0  0  0  0  0  0  # atno 10167 bound_to 10162
  156.5930  130.8778  151.2894 H   0  0  0  0  0  0  0  0  0  0  0  0  # atno 10718 bound_to 10713
  154.8305  135.4524  154.1053 H   0  0  0  0  0  0  0  0  0  0  0  0  # atno 10763 bound_to 10752
  153.2331  135.6908  153.7874 H   0  0  0  0  0  0  0  0  0  0  0  0  # atno 10764 bound_to 10752
  153.7249  135.3336  155.3250 H   0  0  0  0  0  0  0  0  0  0  0  0  # atno 10765 bound_to 10752
  141.0909  133.9057  157.2078 H   0  0  0  0  0  0  0  0  0  0  0  0  # atno 11005 bound_to 11000
  146.2547  139.6276  142.9403 LP  0  0  0  0  0  0  0  0  0  0  0  0  # atno 17320 bound_to 7965
  145.5038  141.0437  143.2526 LP  0  0  0  0  0  0  0  0  0  0  0  0  # atno 17321 bound_to 7965
  140.7717  143.5383  150.9343 LP  0  0  0  0  0  0  0  0  0  0  0  0  # atno 17342 bound_to 10162
  139.9065  143.6772  152.3122 LP  0  0  0  0  0  0  0  0  0  0  0  0  # atno 17343 bound_to 10162
  157.7299  130.9677  150.1807 LP  0  0  0  0  0  0  0  0  0  0  0  0  # atno 17370 bound_to 10713
  156.2534  130.3703  149.8208 LP  0  0  0  0  0  0  0  0  0  0  0  0  # atno 17371 bound_to 10713
  139.9734  135.0121  156.9571 LP  0  0  0  0  0  0  0  0  0  0  0  0  # atno 17394 bound_to 11000
  140.5255  134.0865  155.7302 LP  0  0  0  0  0  0  0  0  0  0  0  0  # atno 17395 bound_to 11000

$$$$
