AV-unprocessed.smi:1389|AV-procd|sdf|5651|dock9
  -GOLD-   22720 5273D 1   1.00000     0.00000
 Structure written by MMmdl.
 52 54  0  0  0  0  0  0  0  0  2 V2000
  153.3341  137.1688  160.5556 C   0  0  0  0  0  0  0  0  0  0  0  0
  154.6237  137.6507  161.2681 C   0  0  1  0  0  0  0  0  0  0  0  0
  154.5239  139.1867  161.5008 C   0  0  0  0  0  0  0  0  0  0  0  0
  153.7691  139.8831  160.4623 N   0  0  0  0  0  0  0  0  0  0  0  0
  153.3892  141.1670  160.5198 C   0  0  0  0  0  0  0  0  0  0  0  0
  153.6307  141.9069  161.4733 O   0  0  0  0  0  0  0  0  0  0  0  0
  152.7414  141.5334  159.4016 N   0  0  0  0  0  0  0  0  0  0  0  0
  152.2103  142.8133  159.0724 C   0  0  0  0  0  0  0  0  0  0  0  0
  152.6480  143.9987  159.7177 C   0  0  0  0  0  0  0  0  0  0  0  0
  152.0878  145.2396  159.3582 C   0  0  0  0  0  0  0  0  0  0  0  0
  151.0919  145.2767  158.3664 C   0  0  0  0  0  0  0  0  0  0  0  0
  150.6847  144.1297  157.7845 N   0  3  0  0  0  0  0  0  0  0  0  0
  151.1881  142.9077  158.0883 C   0  0  0  0  0  0  0  0  0  0  0  0
  150.6665  141.7725  157.4310 N   0  0  0  0  0  0  0  0  0  0  0  0
  149.2167  141.6304  157.5446 C   0  0  0  0  0  0  0  0  0  0  0  0
  148.7150  141.1470  156.1812 C   0  0  0  0  0  0  0  0  0  0  0  0
  149.7896  141.6364  155.2184 C   0  0  0  0  0  0  0  0  0  0  0  0
  151.0608  141.4929  156.0516 C   0  0  0  0  0  0  0  0  0  0  0  0
  154.9130  136.8889  162.5052 N   0  0  0  0  0  0  0  0  0  0  0  0
  155.2327  135.4804  162.2440 C   0  0  0  0  0  0  0  0  0  0  0  0
  155.5022  134.6795  163.5297 C   0  0  0  0  0  0  0  0  0  0  0  0
  154.3819  134.7733  164.3988 O   0  0  0  0  0  0  0  0  0  0  0  0
  154.0841  136.1196  164.7406 C   0  0  0  0  0  0  0  0  0  0  0  0
  153.8012  136.9275  163.4625 C   0  0  0  0  0  0  0  0  0  0  0  0
  153.0951  137.7655  159.6763 H   0  0  0  0  0  0  0  0  0  0  0  0
  152.4743  137.2136  161.2251 H   0  0  0  0  0  0  0  0  0  0  0  0
  153.4220  136.1476  160.1877 H   0  0  0  0  0  0  0  0  0  0  0  0
  155.4498  137.4832  160.5750 H   0  0  0  0  0  0  0  0  0  0  0  0
  154.0441  139.3856  162.4596 H   0  0  0  0  0  0  0  0  0  0  0  0
  155.5037  139.6602  161.5447 H   0  0  0  0  0  0  0  0  0  0  0  0
  153.5326  139.3485  159.6392 H   0  0  0  0  0  0  0  0  0  0  0  0
  152.7067  140.8450  158.6642 H   0  0  0  0  0  0  0  0  0  0  0  0
  153.3985  143.9761  160.4931 H   0  0  0  0  0  0  0  0  0  0  0  0
  152.4149  146.1492  159.8405 H   0  0  0  0  0  0  0  0  0  0  0  0
  150.6053  146.1806  158.0295 H   0  0  0  0  0  0  0  0  0  0  0  0
  148.9527  140.9258  158.3334 H   0  0  0  0  0  0  0  0  0  0  0  0
  148.7608  142.5911  157.7892 H   0  0  0  0  0  0  0  0  0  0  0  0
  148.6779  140.0567  156.1660 H   0  0  0  0  0  0  0  0  0  0  0  0
  147.7205  141.5216  155.9378 H   0  0  0  0  0  0  0  0  0  0  0  0
  149.8236  141.0680  154.2886 H   0  0  0  0  0  0  0  0  0  0  0  0
  149.6198  142.6853  154.9717 H   0  0  0  0  0  0  0  0  0  0  0  0
  151.8683  142.1189  155.6723 H   0  0  0  0  0  0  0  0  0  0  0  0
  151.4163  140.4627  156.0113 H   0  0  0  0  0  0  0  0  0  0  0  0
  154.4173  135.0124  161.6900 H   0  0  0  0  0  0  0  0  0  0  0  0
  156.1258  135.3936  161.6288 H   0  0  0  0  0  0  0  0  0  0  0  0
  155.6796  133.6307  163.2912 H   0  0  0  0  0  0  0  0  0  0  0  0
  156.3966  135.0483  164.0343 H   0  0  0  0  0  0  0  0  0  0  0  0
  153.2152  136.1355  165.3985 H   0  0  0  0  0  0  0  0  0  0  0  0
  154.9148  136.5555  165.2979 H   0  0  0  0  0  0  0  0  0  0  0  0
  153.5953  137.9503  163.7720 H   0  0  0  0  0  0  0  0  0  0  0  0
  152.8931  136.5498  162.9900 H   0  0  0  0  0  0  0  0  0  0  0  0
  149.9519  144.1856  157.0770 H   0  0  0  0  0  0  0  0  0  0  0  0
  1  2  1  0  0  0  0
  1 25  1  0  0  0  0
  1 26  1  0  0  0  0
  1 27  1  0  0  0  0
  2  3  1  0  0  0  0
  2 19  1  0  0  0  0
  2 28  1  0  0  0  0
  3  4  1  0  0  0  0
  3 29  1  0  0  0  0
  3 30  1  0  0  0  0
  4  5  1  0  0  0  0
  4 31  1  0  0  0  0
  5  6  2  0  0  0  0
  5  7  1  0  0  0  0
  7  8  1  0  0  0  0
  7 32  1  0  0  0  0
  8 13  1  0  0  0  0
  8  9  2  0  0  0  0
  9 10  1  0  0  0  0
  9 33  1  0  0  0  0
 10 11  2  0  0  0  0
 10 34  1  0  0  0  0
 11 12  1  0  0  0  0
 11 35  1  0  0  0  0
 12 13  2  0  0  0  0
 12 52  1  0  0  0  0
 13 14  1  0  0  0  0
 14 18  1  0  0  0  0
 14 15  1  0  0  0  0
 15 16  1  0  0  0  0
 15 36  1  0  0  0  0
 15 37  1  0  0  0  0
 16 17  1  0  0  0  0
 16 38  1  0  0  0  0
 16 39  1  0  0  0  0
 17 18  1  0  0  0  0
 17 40  1  0  0  0  0
 17 41  1  0  0  0  0
 18 42  1  0  0  0  0
 18 43  1  0  0  0  0
 19 24  1  0  0  0  0
 19 20  1  0  0  0  0
 20 21  1  0  0  0  0
 20 44  1  0  0  0  0
 20 45  1  0  0  0  0
 21 22  1  0  0  0  0
 21 46  1  0  0  0  0
 21 47  1  0  0  0  0
 22 23  1  0  0  0  0
 23 24  1  0  0  0  0
 23 48  1  0  0  0  0
 23 49  1  0  0  0  0
 24 50  1  0  0  0  0
 24 51  1  0  0  0  0
M  CHG  1  12   1
M  END
> <s_m_source_file>
AV-unprocessed.smi

> <i_m_source_file_index>
1389

> <i_lp_mmshare_version>
43012

> <i_f3d_flags>
0

> <s_epik_input>
W0NIMl0xW0NIMl1PW0NIMl1bQ0gyXU4xW0NASF0oW0NIM10pW0NIMl1bTkhdQyg9TylbTkhdYzJbY0hdW2NIXVtjSF1uYzJOM1tDSDJdW0NIMl1bQ0gyXVtDSDJdMw==

> <s_epik_cmdline>
J2VwaWtfcHl0aG9uJywgJy1waCcsICc3LjAnLCAnLXRuJywgJzgnLCAnLW1hJywgJzIwMCcsICctbWV0YWxfYmluZGluZycsICctaW1hZScsICc8aW5maWxlLm1hZT4nLCAnLW9tYWUnLCAnPG91dGZpbGUubWFlPic=

> <r_epik_Ionization_Penalty>
1.37675

> <r_epik_Ionization_Penalty_Charging>
1.11074

> <r_epik_Ionization_Penalty_Neutral>
0.26601

> <r_epik_State_Penalty>
1.46015

> <r_epik_Charging_Adjusted_Penalty>
2.57089

> <i_epik_Tot_Q>
1

> <i_epik_Tot_abs_Q>
1

> <r_epik_Metal_State_Penalty>
1.54223

> <b_epik_Metal_Only>
0

> <s_lp_Force_Field>
OPLS_2005

> <r_lp_Energy>
63.8734

> <b_lp_Chiralities_Consistent>
1

> <s_lp_Variant>
AV-unprocessed.smi:1389-6

> <Gold.Version>
5.8.1

> <Gold.Id.Protein>
6NUR|6NUR_protein|mol2

> <Gold.PLP.Fitness>
49.5847

> <Gold.PLP.PLP>
-44.7912

> <Gold.PLP.part.hbond>
-1.0000

> <Gold.PLP.part.metal>
0.0000

> <Gold.PLP.part.buried>
-5.6526

> <Gold.PLP.part.nonpolar>
-38.3091

> <Gold.PLP.part.repulsive>
0.3360

> <Gold.PLP.ligand.clash>
0.0000

> <Gold.PLP.ligand.torsion>
0.6919

> <Gold.PLP.Chemscore.Hbond>
2.0000

> <Gold.PLP.Chemscore.CHOScore>
0.0000

> <Gold.PLP.Chemscore.Metal>
0.0000

> <Gold.Chemscore.Hbonds>
donor molecule, donor type, donor heavy atom, donor atom, acceptor molecule, acceptor atom, score
      L1  H    12    52       P1  8028  2.00

> <Gold.PLP.Chemscore.Internal.Correction>
0.1773

> <Gold.Rescore>
     Score         DG    S(hbond)    S(metal)    S(lipo)     H(rot)  DE(clash)    DE(int)     intcor
     15.91     -18.24       0.88        0.00     118.99       1.60       0.29       2.04       ----

> <Gold.Chemscore.Fitness>
15.9086

> <Gold.Chemscore.DG>
-18.2376

> <Gold.Chemscore.ZeroCoef>
-5.4800

> <Gold.Chemscore.Hbond>
0.8805

> <Gold.Chemscore.Metal>
0.0000

> <Gold.Chemscore.Lipo>
118.9894

> <Gold.Chemscore.Internal_Hbond>
0.0000

> <Gold.Chemscore.DEClash>
0.2862

> <Gold.Chemscore.DEInternal>
2.0428

> <Gold.Chemscore.Rot>
1.6035

> <Gold.Chemscore.Internal.Correction>
   9.000000E+99

> <Gold.Chemscore.Hbonds>
donor molecule, donor type, donor heavy atom, donor atom, acceptor molecule, acceptor atom, score
      L1  H    12    52       P1  8028  0.78

> <Gold.Chemscore.Hbond.Weighted>
-2.9408

> <Gold.Chemscore.Metal.Weighted>
-0.0000

> <Gold.Chemscore.Lipo.Weighted>
-13.9218

> <Gold.Chemscore.Internal_Hbond.Weighted>
0.0000

> <Gold.Chemscore.DEClash.Weighted>
0.2862

> <Gold.Chemscore.DEInternal.Weighted>
2.0428

> <Gold.Chemscore.Rot.Weighted>
4.1049

> <Gold.Chemscore.Internal.Correction.Weighted>
   9.000000E+99

> <Gold.Protein.RotatedTorsions>
[ 6907 6896 6895 6894 ] final   49.66 input  -60.11 | X-H torsion
[ 7974 7965 7964 7962 ] final  -52.86 input  175.53 | X-H torsion
[ 8008 7997 7996 7995 ] final   42.58 input   59.86 | X-H torsion
[ 10167 10162 10161 10158 ] final  -82.47 input  -65.29 | X-H torsion
[ 10718 10713 10712 10709 ] final   17.32 input   66.30 | X-H torsion
[ 10763 10752 10751 10750 ] final   65.91 input  -60.55 | X-H torsion
[ 11005 11000 10999 10996 ] final -169.38 input  -57.11 | X-H torsion

> <Gold.Protein.ActiveResidues>
 VAL166  LYS551  ARG553  GLY616  TRP617  ASP618  TYR619  PRO620  LYS621  CYS622 
 ASP623  PHE694  ASN695  SER759  ASP760  ASP761  ALA762  ILE779  LEU786  VAL792 
 PHE793  MET794  SER795  GLU796  ALA797  LYS798  CYS799  TRP800  GLU811  SER814 

> <Gold.Protein.RotatedAtoms>
  152.2933  134.7696  160.0373 H   0  0  0  0  0  0  0  0  0  0  0  0  # atno 6907 bound_to 6896
  151.8235  133.3393  159.3599 H   0  0  0  0  0  0  0  0  0  0  0  0  # atno 6908 bound_to 6896
  150.7240  134.5480  159.5825 H   0  0  0  0  0  0  0  0  0  0  0  0  # atno 6909 bound_to 6896
  145.9033  140.7976  142.9732 H   0  0  0  0  0  0  0  0  0  0  0  0  # atno 7974 bound_to 7965
  155.2886  140.3377  155.4254 H   0  0  0  0  0  0  0  0  0  0  0  0  # atno 8008 bound_to 7997
  156.2057  140.1750  156.7846 H   0  0  0  0  0  0  0  0  0  0  0  0  # atno 8009 bound_to 7997
  154.5617  140.0686  156.8813 H   0  0  0  0  0  0  0  0  0  0  0  0  # atno 8010 bound_to 7997
  140.4317  143.2546  151.8750 H   0  0  0  0  0  0  0  0  0  0  0  0  # atno 10167 bound_to 10162
  157.0804  130.6385  149.5825 H   0  0  0  0  0  0  0  0  0  0  0  0  # atno 10718 bound_to 10713
  153.0117  135.5339  154.6741 H   0  0  0  0  0  0  0  0  0  0  0  0  # atno 10763 bound_to 10752
  154.5918  135.2859  155.0629 H   0  0  0  0  0  0  0  0  0  0  0  0  # atno 10764 bound_to 10752
  154.1719  135.6530  153.5064 H   0  0  0  0  0  0  0  0  0  0  0  0  # atno 10765 bound_to 10752
  140.5314  134.5613  157.5075 H   0  0  0  0  0  0  0  0  0  0  0  0  # atno 11005 bound_to 11000
  144.6737  140.1710  143.7414 LP  0  0  0  0  0  0  0  0  0  0  0  0  # atno 17320 bound_to 7965
  145.8764  139.2299  143.1631 LP  0  0  0  0  0  0  0  0  0  0  0  0  # atno 17321 bound_to 7965
  139.4785  144.5328  151.8642 LP  0  0  0  0  0  0  0  0  0  0  0  0  # atno 17342 bound_to 10162
  140.4420  144.1973  150.5892 LP  0  0  0  0  0  0  0  0  0  0  0  0  # atno 17343 bound_to 10162
  155.9925  130.4983  150.7343 LP  0  0  0  0  0  0  0  0  0  0  0  0  # atno 17370 bound_to 10713
  157.4804  131.0902  151.0542 LP  0  0  0  0  0  0  0  0  0  0  0  0  # atno 17371 bound_to 10713
  139.9552  134.7547  156.0357 LP  0  0  0  0  0  0  0  0  0  0  0  0  # atno 17394 bound_to 11000
  141.1279  133.6594  156.3386 LP  0  0  0  0  0  0  0  0  0  0  0  0  # atno 17395 bound_to 11000

$$$$
