AV-unprocessed.smi:1047|AV-procd|sdf|4563|dock1
  -GOLD-   22720 3 03D 1   1.00000     0.00000
 Structure written by MMmdl.
 57 59  0  0  0  0  0  0  0  0  3 V2000
  146.5264  132.9479  151.5497 C   0  0  0  0  0  0  0  0  0  0  0  0
  146.4024  133.8859  152.7588 C   0  0  0  0  0  0  0  0  0  0  0  0
  147.7222  134.2691  153.3201 N   0  3  2  0  0  0  0  0  0  0  0  0
  148.5062  133.0938  153.7695 C   0  0  0  0  0  0  0  0  0  0  0  0
  149.8874  133.5305  154.2865 C   0  0  0  0  0  0  0  0  0  0  0  0
  149.7302  134.4745  155.3393 O   0  0  0  0  0  0  0  0  0  0  0  0
  149.0465  135.6480  154.9125 C   0  0  2  0  0  0  0  0  0  0  0  0
  149.0380  136.6699  156.0626 C   0  0  0  0  0  0  0  0  0  0  0  0
  149.7305  137.9255  155.7034 N   0  3  0  0  0  0  0  0  0  0  0  0
  148.8765  139.1268  155.7905 C   0  0  0  0  0  0  0  0  0  0  0  0
  149.2545  140.1651  154.7160 C   0  0  2  0  0  0  0  0  0  0  0  0
  150.1108  139.5546  153.7713 O   0  0  0  0  0  0  0  0  0  0  0  0
  149.9826  141.4054  155.2737 C   0  0  0  0  0  0  0  0  0  0  0  0
  150.9690  141.0711  156.2849 N   0  0  0  0  0  0  0  0  0  0  0  0
  151.8127  140.0212  156.2762 C   0  0  0  0  0  0  0  0  0  0  0  0
  152.6495  139.9047  157.3030 N   0  0  0  0  0  0  0  0  0  0  0  0
  152.3049  141.0035  158.0712 C   0  0  0  0  0  0  0  0  0  0  0  0
  152.8254  141.4628  159.3007 C   0  0  0  0  0  0  0  0  0  0  0  0
  152.3188  142.6327  159.9104 C   0  0  0  0  0  0  0  0  0  0  0  0
  152.9109  143.0925  161.2310 C   0  0  0  0  0  0  0  0  0  0  0  0
  151.2721  143.3612  159.2902 C   0  0  0  0  0  0  0  0  0  0  0  0
  150.7129  144.6211  159.9268 C   0  0  0  0  0  0  0  0  0  0  0  0
  150.7385  142.9147  158.0632 C   0  0  0  0  0  0  0  0  0  0  0  0
  151.2537  141.7513  157.4645 C   0  0  0  0  0  0  0  0  0  0  0  0
  147.6364  135.2779  154.4057 C   0  0  0  0  0  0  0  0  0  0  0  0
  145.5411  132.6168  151.2201 H   0  0  0  0  0  0  0  0  0  0  0  0
  147.1056  132.0582  151.7985 H   0  0  0  0  0  0  0  0  0  0  0  0
  147.0028  133.4348  150.6994 H   0  0  0  0  0  0  0  0  0  0  0  0
  145.8319  134.7782  152.4966 H   0  0  0  0  0  0  0  0  0  0  0  0
  145.8270  133.3659  153.5260 H   0  0  0  0  0  0  0  0  0  0  0  0
  147.9614  132.5679  154.5551 H   0  0  0  0  0  0  0  0  0  0  0  0
  148.6319  132.3933  152.9428 H   0  0  0  0  0  0  0  0  0  0  0  0
  150.4359  132.6678  154.6654 H   0  0  0  0  0  0  0  0  0  0  0  0
  150.4872  133.9597  153.4822 H   0  0  0  0  0  0  0  0  0  0  0  0
  149.6071  136.0914  154.0872 H   0  0  0  0  0  0  0  0  0  0  0  0
  148.0087  136.9009  156.3398 H   0  0  0  0  0  0  0  0  0  0  0  0
  149.5130  136.2363  156.9436 H   0  0  0  0  0  0  0  0  0  0  0  0
  150.5175  138.0550  156.3233 H   0  0  0  0  0  0  0  0  0  0  0  0
  147.8430  138.8063  155.6590 H   0  0  0  0  0  0  0  0  0  0  0  0
  148.9523  139.5645  156.7871 H   0  0  0  0  0  0  0  0  0  0  0  0
  148.3525  140.4890  154.1949 H   0  0  0  0  0  0  0  0  0  0  0  0
  149.6724  139.5323  152.9340 H   0  0  0  0  0  0  0  0  0  0  0  0
  150.4824  141.9492  154.4708 H   0  0  0  0  0  0  0  0  0  0  0  0
  149.2644  142.0979  155.7154 H   0  0  0  0  0  0  0  0  0  0  0  0
  151.8161  139.3051  155.4674 H   0  0  0  0  0  0  0  0  0  0  0  0
  153.6226  140.9076  159.7731 H   0  0  0  0  0  0  0  0  0  0  0  0
  152.1437  143.1189  162.0051 H   0  0  0  0  0  0  0  0  0  0  0  0
  153.3383  144.0906  161.1317 H   0  0  0  0  0  0  0  0  0  0  0  0
  153.7026  142.4227  161.5680 H   0  0  0  0  0  0  0  0  0  0  0  0
  149.9277  145.0632  159.3130 H   0  0  0  0  0  0  0  0  0  0  0  0
  151.4978  145.3671  160.0527 H   0  0  0  0  0  0  0  0  0  0  0  0
  150.2872  144.3975  160.9051 H   0  0  0  0  0  0  0  0  0  0  0  0
  149.9411  143.4607  157.5813 H   0  0  0  0  0  0  0  0  0  0  0  0
  147.1361  136.1769  154.0469 H   0  0  0  0  0  0  0  0  0  0  0  0
  147.0296  134.8776  155.2193 H   0  0  0  0  0  0  0  0  0  0  0  0
  150.0758  137.8457  154.7572 H   0  0  0  0  0  0  0  0  0  0  0  0
  148.2459  134.6867  152.5637 H   0  0  0  0  0  0  0  0  0  0  0  0
  1  2  1  0  0  0  0
  1 26  1  0  0  0  0
  1 27  1  0  0  0  0
  1 28  1  0  0  0  0
  2  3  1  0  0  0  0
  2 29  1  0  0  0  0
  2 30  1  0  0  0  0
  3 25  1  0  0  0  0
  3  4  1  0  0  0  0
  3 57  1  0  0  0  0
  4  5  1  0  0  0  0
  4 31  1  0  0  0  0
  4 32  1  0  0  0  0
  5  6  1  0  0  0  0
  5 33  1  0  0  0  0
  5 34  1  0  0  0  0
  6  7  1  0  0  0  0
  7  8  1  0  0  0  0
  7 25  1  0  0  0  0
  7 35  1  0  0  0  0
  8  9  1  0  0  0  0
  8 36  1  0  0  0  0
  8 37  1  0  0  0  0
  9 10  1  0  0  0  0
  9 38  1  0  0  0  0
  9 56  1  0  0  0  0
 10 11  1  0  0  0  0
 10 39  1  0  0  0  0
 10 40  1  0  0  0  0
 11 12  1  0  0  0  0
 11 13  1  0  0  0  0
 11 41  1  0  0  0  0
 12 42  1  0  0  0  0
 13 14  1  0  0  0  0
 13 43  1  0  0  0  0
 13 44  1  0  0  0  0
 14 24  1  0  0  0  0
 14 15  1  0  0  0  0
 15 16  2  0  0  0  0
 15 45  1  0  0  0  0
 16 17  1  0  0  0  0
 17 24  2  0  0  0  0
 17 18  1  0  0  0  0
 18 19  2  0  0  0  0
 18 46  1  0  0  0  0
 19 20  1  0  0  0  0
 19 21  1  0  0  0  0
 20 47  1  0  0  0  0
 20 48  1  0  0  0  0
 20 49  1  0  0  0  0
 21 22  1  0  0  0  0
 21 23  2  0  0  0  0
 22 50  1  0  0  0  0
 22 51  1  0  0  0  0
 22 52  1  0  0  0  0
 23 24  1  0  0  0  0
 23 53  1  0  0  0  0
 25 54  1  0  0  0  0
 25 55  1  0  0  0  0
M  CHG  1   3   1
M  CHG  1   9   1
M  END
> <s_m_source_file>
AV-unprocessed.smi

> <i_m_source_file_index>
1047

> <i_lp_mmshare_version>
43012

> <i_f3d_flags>
0

> <s_epik_input>
W0NIM11bQ0gyXU4xW0NIMl1bQ0gyXU9bQ0BIXShbQ0gyXTEpW0NIMl1bTkhdW0NIMl1bQ0BIXShbT0hdKVtDSDJdbihbY0hdbjIpYyhjMjMpW2NIXWMoW0NIM10pYyhbY0hdMylbQ0gzXQ==

> <s_epik_cmdline>
J2VwaWtfcHl0aG9uJywgJy1waCcsICc3LjAnLCAnLXRuJywgJzgnLCAnLW1hJywgJzIwMCcsICctbWV0YWxfYmluZGluZycsICctaW1hZScsICc8aW5maWxlLm1hZT4nLCAnLW9tYWUnLCAnPG91dGZpbGUubWFlPic=

> <r_epik_Ionization_Penalty>
0.528991

> <r_epik_Ionization_Penalty_Charging>
0.438567

> <r_epik_Ionization_Penalty_Neutral>
0.0904237

> <r_epik_State_Penalty>
0.533036

> <r_epik_Charging_Adjusted_Penalty>
0.971603

> <i_epik_Tot_Q>
2

> <i_epik_Tot_abs_Q>
2

> <r_epik_Metal_State_Penalty>
0.448985

> <b_epik_Metal_Only>
0

> <s_lp_Force_Field>
OPLS_2005

> <r_lp_Energy>
33.7981

> <b_lp_Chiralities_Consistent>
1

> <s_lp_Variant>
AV-unprocessed.smi:1047-4

> <Gold.Version>
5.8.1

> <Gold.Id.Protein>
6NUR|6NUR_protein|mol2

> <Gold.PLP.Fitness>
55.6577

> <Gold.PLP.PLP>
-45.4419

> <Gold.PLP.part.hbond>
-4.0000

> <Gold.PLP.part.metal>
0.0000

> <Gold.PLP.part.buried>
-3.9012

> <Gold.PLP.part.nonpolar>
-36.3611

> <Gold.PLP.part.repulsive>
0.0752

> <Gold.PLP.ligand.clash>
0.0000

> <Gold.PLP.ligand.torsion>
2.4820

> <Gold.PLP.Chemscore.Hbond>
4.9280

> <Gold.PLP.Chemscore.CHOScore>
0.0000

> <Gold.PLP.Chemscore.Metal>
0.0000

> <Gold.Chemscore.Hbonds>
donor molecule, donor type, donor heavy atom, donor atom, acceptor molecule, acceptor atom, score
      L1  H     3    57       P1  7948  1.92
      L1  H    12    42       P1  7957  0.99
      P1  H  7989  7998       L1    12  0.93
      P1  H  7997  8008       L1    16  1.00

> <Gold.PLP.Chemscore.Internal.Correction>
0.3957

> <Gold.Rescore>
     Score         DG    S(hbond)    S(metal)    S(lipo)     H(rot)  DE(clash)    DE(int)     intcor
     18.19     -21.57       2.99        0.00     111.24       2.70       0.07       3.31       ----

> <Gold.Chemscore.Fitness>
18.1890

> <Gold.Chemscore.DG>
-21.5693

> <Gold.Chemscore.ZeroCoef>
-5.4800

> <Gold.Chemscore.Hbond>
2.9889

> <Gold.Chemscore.Metal>
0.0000

> <Gold.Chemscore.Lipo>
111.2366

> <Gold.Chemscore.Internal_Hbond>
0.0000

> <Gold.Chemscore.DEClash>
0.0682

> <Gold.Chemscore.DEInternal>
3.3121

> <Gold.Chemscore.Rot>
2.6985

> <Gold.Chemscore.Internal.Correction>
   9.000000E+99

> <Gold.Chemscore.Hbonds>
donor molecule, donor type, donor heavy atom, donor atom, acceptor molecule, acceptor atom, score
      L1  H     3    57       P1  7948  0.37
      L1  H    12    42       P1  7957  0.93
      P1  H  7989  7998       L1    12  0.19
      P1  H  7997  8008       L1    16  0.57

> <Gold.Chemscore.Hbond.Weighted>
-9.9828

> <Gold.Chemscore.Metal.Weighted>
-0.0000

> <Gold.Chemscore.Lipo.Weighted>
-13.0147

> <Gold.Chemscore.Internal_Hbond.Weighted>
0.0000

> <Gold.Chemscore.DEClash.Weighted>
0.0682

> <Gold.Chemscore.DEInternal.Weighted>
3.3121

> <Gold.Chemscore.Rot.Weighted>
6.9081

> <Gold.Chemscore.Internal.Correction.Weighted>
   9.000000E+99

> <Gold.Protein.RotatedTorsions>
[ 6907 6896 6895 6894 ] final  -20.74 input  -60.11 | X-H torsion
[ 7974 7965 7964 7962 ] final  179.91 input  175.53 | X-H torsion
[ 8008 7997 7996 7995 ] final  -68.05 input   59.86 | X-H torsion
[ 10167 10162 10161 10158 ] final  -96.78 input  -65.29 | X-H torsion
[ 10718 10713 10712 10709 ] final  120.72 input   66.30 | X-H torsion
[ 10763 10752 10751 10750 ] final  165.81 input  -60.55 | X-H torsion
[ 11005 11000 10999 10996 ] final  142.98 input  -57.11 | X-H torsion

> <Gold.Protein.ActiveResidues>
 VAL166  LYS551  ARG553  GLY616  TRP617  ASP618  TYR619  PRO620  LYS621  CYS622 
 ASP623  PHE694  ASN695  SER759  ASP760  ASP761  ALA762  ILE779  LEU786  VAL792 
 PHE793  MET794  SER795  GLU796  ALA797  LYS798  CYS799  TRP800  GLU811  SER814 

> <Gold.Protein.RotatedAtoms>
  151.2436  135.0597  159.9034 H   0  0  0  0  0  0  0  0  0  0  0  0  # atno 6907 bound_to 6896
  152.5390  134.0407  159.8076 H   0  0  0  0  0  0  0  0  0  0  0  0  # atno 6908 bound_to 6896
  151.0605  133.5499  159.2666 H   0  0  0  0  0  0  0  0  0  0  0  0  # atno 6909 bound_to 6896
  144.7141  140.0619  143.6432 H   0  0  0  0  0  0  0  0  0  0  0  0  # atno 7974 bound_to 7965
  154.4842  140.0880  156.7447 H   0  0  0  0  0  0  0  0  0  0  0  0  # atno 8008 bound_to 7997
  155.4394  140.3453  155.4270 H   0  0  0  0  0  0  0  0  0  0  0  0  # atno 8009 bound_to 7997
  156.1236  140.1481  156.9157 H   0  0  0  0  0  0  0  0  0  0  0  0  # atno 8010 bound_to 7997
  140.2903  143.3226  152.0353 H   0  0  0  0  0  0  0  0  0  0  0  0  # atno 10167 bound_to 10162
  157.5870  131.1068  150.8074 H   0  0  0  0  0  0  0  0  0  0  0  0  # atno 10718 bound_to 10713
  154.3296  135.2755  155.2478 H   0  0  0  0  0  0  0  0  0  0  0  0  # atno 10763 bound_to 10752
  154.4796  135.5862  153.6383 H   0  0  0  0  0  0  0  0  0  0  0  0  # atno 10764 bound_to 10752
  152.9868  135.6108  154.3488 H   0  0  0  0  0  0  0  0  0  0  0  0  # atno 10765 bound_to 10752
  140.0519  134.9251  157.1031 H   0  0  0  0  0  0  0  0  0  0  0  0  # atno 11005 bound_to 11000
  145.9857  139.2975  143.1015 LP  0  0  0  0  0  0  0  0  0  0  0  0  # atno 17320 bound_to 7965
  145.8960  140.9273  143.0527 LP  0  0  0  0  0  0  0  0  0  0  0  0  # atno 17321 bound_to 7965
  139.4940  144.6530  151.6635 LP  0  0  0  0  0  0  0  0  0  0  0  0  # atno 17342 bound_to 10162
  140.5738  144.0063  150.6231 LP  0  0  0  0  0  0  0  0  0  0  0  0  # atno 17343 bound_to 10162
  156.8506  130.5079  149.5312 LP  0  0  0  0  0  0  0  0  0  0  0  0  # atno 17370 bound_to 10713
  156.0920  130.5903  150.9750 LP  0  0  0  0  0  0  0  0  0  0  0  0  # atno 17371 bound_to 10713
  140.3904  134.2190  155.7166 LP  0  0  0  0  0  0  0  0  0  0  0  0  # atno 17394 bound_to 11000
  141.1934  133.8151  157.0800 LP  0  0  0  0  0  0  0  0  0  0  0  0  # atno 17395 bound_to 11000

$$$$
