AV-unprocessed.smi:3158|AV-procd|sdf|12044|dock9
  -GOLD-   2272017473D 1   1.00000     0.00000
 Structure written by MMmdl.
 40 40  0  0  0  0  0  0  0  0  2 V2000
  153.2922  143.7481  158.4448 C   0  0  0  0  0  0  0  0  0  0  0  0
  152.1991  143.0999  157.5825 C   0  0  0  0  0  0  0  0  0  0  0  0
  151.0692  142.4520  158.4040 C   0  0  1  0  0  0  0  0  0  0  0  0
  150.7617  143.2495  159.6799 C   0  0  0  0  0  0  0  0  0  0  0  0
  149.8582  142.3388  157.5941 N   0  0  0  0  0  0  0  0  0  0  0  0
  148.8121  141.5399  157.8563 C   0  0  0  0  0  0  0  0  0  0  0  0
  148.7591  140.7884  158.8309 O   0  0  0  0  0  0  0  0  0  0  0  0
  147.6504  141.5921  156.8533 C   0  0  1  0  0  0  0  0  0  0  0  0
  146.4869  142.4064  157.4399 C   0  0  0  0  0  0  0  0  0  0  0  0
  148.0641  142.1738  155.5552 N   0  3  0  0  0  0  0  0  0  0  0  0
  149.1092  141.4179  154.8323 C   0  0  0  0  0  0  0  0  0  0  0  0
  148.6014  140.0257  154.4329 C   0  0  0  0  0  0  0  0  0  0  0  0
  149.6817  139.0617  154.3598 N   0  0  0  0  0  0  0  0  0  0  0  0
  149.6131  137.7152  154.0698 C   0  0  0  0  0  0  0  0  0  0  0  0
  150.8860  137.2240  154.1214 C   0  0  0  0  0  0  0  0  0  0  0  0
  151.6740  138.3603  154.4566 C   0  0  0  0  0  0  0  0  0  0  0  0
  150.9499  139.4593  154.5984 N   0  0  0  0  0  0  0  0  0  0  0  0
  154.0422  144.2319  157.8187 H   0  0  0  0  0  0  0  0  0  0  0  0
  153.8061  143.0122  159.0638 H   0  0  0  0  0  0  0  0  0  0  0  0
  152.8723  144.5073  159.1052 H   0  0  0  0  0  0  0  0  0  0  0  0
  151.7740  143.8637  156.9303 H   0  0  0  0  0  0  0  0  0  0  0  0
  152.6518  142.3576  156.9236 H   0  0  0  0  0  0  0  0  0  0  0  0
  151.4086  141.4587  158.7038 H   0  0  0  0  0  0  0  0  0  0  0  0
  151.6454  143.3314  160.3133 H   0  0  0  0  0  0  0  0  0  0  0  0
  149.9810  142.7663  160.2684 H   0  0  0  0  0  0  0  0  0  0  0  0
  150.4256  144.2603  159.4462 H   0  0  0  0  0  0  0  0  0  0  0  0
  149.8164  142.9156  156.7663 H   0  0  0  0  0  0  0  0  0  0  0  0
  147.2951  140.5762  156.6722 H   0  0  0  0  0  0  0  0  0  0  0  0
  146.1397  141.9825  158.3831 H   0  0  0  0  0  0  0  0  0  0  0  0
  145.6362  142.4193  156.7582 H   0  0  0  0  0  0  0  0  0  0  0  0
  146.7765  143.4415  157.6274 H   0  0  0  0  0  0  0  0  0  0  0  0
  147.2504  142.2151  154.9586 H   0  0  0  0  0  0  0  0  0  0  0  0
  149.4126  141.9662  153.9395 H   0  0  0  0  0  0  0  0  0  0  0  0
  149.9900  141.3285  155.4696 H   0  0  0  0  0  0  0  0  0  0  0  0
  147.8622  139.6650  155.1498 H   0  0  0  0  0  0  0  0  0  0  0  0
  148.1080  140.0664  153.4609 H   0  0  0  0  0  0  0  0  0  0  0  0
  148.6762  137.2233  153.8526 H   0  0  0  0  0  0  0  0  0  0  0  0
  151.2057  136.2073  153.9472 H   0  0  0  0  0  0  0  0  0  0  0  0
  152.7428  138.4184  154.5998 H   0  0  0  0  0  0  0  0  0  0  0  0
  148.3924  143.1151  155.7196 H   0  0  0  0  0  0  0  0  0  0  0  0
  1  2  1  0  0  0  0
  1 18  1  0  0  0  0
  1 19  1  0  0  0  0
  1 20  1  0  0  0  0
  2  3  1  0  0  0  0
  2 21  1  0  0  0  0
  2 22  1  0  0  0  0
  3  4  1  0  0  0  0
  3  5  1  0  0  0  0
  3 23  1  0  0  0  0
  4 24  1  0  0  0  0
  4 25  1  0  0  0  0
  4 26  1  0  0  0  0
  5  6  1  0  0  0  0
  5 27  1  0  0  0  0
  6  7  2  0  0  0  0
  6  8  1  0  0  0  0
  8  9  1  0  0  0  0
  8 10  1  0  0  0  0
  8 28  1  0  0  0  0
  9 29  1  0  0  0  0
  9 30  1  0  0  0  0
  9 31  1  0  0  0  0
 10 11  1  0  0  0  0
 10 32  1  0  0  0  0
 10 40  1  0  0  0  0
 11 12  1  0  0  0  0
 11 33  1  0  0  0  0
 11 34  1  0  0  0  0
 12 13  1  0  0  0  0
 12 35  1  0  0  0  0
 12 36  1  0  0  0  0
 13 17  1  0  0  0  0
 13 14  1  0  0  0  0
 14 15  2  0  0  0  0
 14 37  1  0  0  0  0
 15 16  1  0  0  0  0
 15 38  1  0  0  0  0
 16 17  2  0  0  0  0
 16 39  1  0  0  0  0
M  CHG  1  10   1
M  END
> <s_m_source_file>
AV-unprocessed.smi

> <i_m_source_file_index>
3158

> <i_lp_mmshare_version>
43012

> <i_f3d_flags>
0

> <s_epik_input>
W0NIM11bQ0gyXVtDQEhdKFtDSDNdKVtOSF1DKD1PKVtDQEhdKFtDSDNdKVtOSF1bQ0gyXVtDSDJdbjFbY0hdW2NIXVtjSF1uMQ==

> <s_epik_cmdline>
J2VwaWtfcHl0aG9uJywgJy1waCcsICc3LjAnLCAnLXRuJywgJzgnLCAnLW1hJywgJzIwMCcsICctbWV0YWxfYmluZGluZycsICctaW1hZScsICc8aW5maWxlLm1hZT4nLCAnLW9tYWUnLCAnPG91dGZpbGUubWFlPic=

> <r_lp_tautomer_probability>
1

> <r_epik_Ionization_Penalty>
0.20724

> <r_epik_Ionization_Penalty_Charging>
0.207237

> <r_epik_Ionization_Penalty_Neutral>
3.33806e-06

> <r_epik_State_Penalty>
0.197234

> <r_epik_Charging_Adjusted_Penalty>
0.404471

> <i_epik_Tot_Q>
1

> <i_epik_Tot_abs_Q>
1

> <r_epik_Metal_State_Penalty>
0.197524

> <b_epik_Metal_Only>
0

> <s_lp_Force_Field>
OPLS_2005

> <r_lp_Energy>
5.19885

> <b_lp_Chiralities_Consistent>
1

> <s_lp_Variant>
AV-unprocessed.smi:3158-4

> <Gold.Version>
5.8.1

> <Gold.Id.Protein>
6NUR|6NUR_protein|mol2

> <Gold.PLP.Fitness>
49.3682

> <Gold.PLP.PLP>
-36.6088

> <Gold.PLP.part.hbond>
-4.5356

> <Gold.PLP.part.metal>
0.0000

> <Gold.PLP.part.buried>
-2.0206

> <Gold.PLP.part.nonpolar>
-31.3617

> <Gold.PLP.part.repulsive>
0.2351

> <Gold.PLP.ligand.clash>
0.0000

> <Gold.PLP.ligand.torsion>
1.1328

> <Gold.PLP.Chemscore.Hbond>
3.9600

> <Gold.PLP.Chemscore.CHOScore>
1.0000

> <Gold.PLP.Chemscore.Metal>
0.0000

> <Gold.Chemscore.Hbonds>
donor molecule, donor type, donor heavy atom, donor atom, acceptor molecule, acceptor atom, score
      L1  H     5    27       P1  8028  0.30
      L1  H    10    40       P1  8028  2.00
      P1  H  7989  7998       L1    17  1.00
      L1  C    14    37       P1  7948  0.50

> <Gold.PLP.Chemscore.Internal.Correction>
0.1450

> <Gold.Rescore>
     Score         DG    S(hbond)    S(metal)    S(lipo)     H(rot)  DE(clash)    DE(int)     intcor
     14.96     -16.19       2.08        0.00      80.59       2.21       0.24       0.98       ----

> <Gold.Chemscore.Fitness>
14.9621

> <Gold.Chemscore.DG>
-16.1851

> <Gold.Chemscore.ZeroCoef>
-5.4800

> <Gold.Chemscore.Hbond>
2.0784

> <Gold.Chemscore.Metal>
0.0000

> <Gold.Chemscore.Lipo>
80.5892

> <Gold.Chemscore.Internal_Hbond>
0.0000

> <Gold.Chemscore.DEClash>
0.2429

> <Gold.Chemscore.DEInternal>
0.9802

> <Gold.Chemscore.Rot>
2.2132

> <Gold.Chemscore.Internal.Correction>
   9.000000E+99

> <Gold.Chemscore.Hbonds>
donor molecule, donor type, donor heavy atom, donor atom, acceptor molecule, acceptor atom, score
      L1  H     5    27       P1  8028  0.29
      L1  H    10    40       P1  8028  0.97
      P1  H  7989  7998       L1    17  0.70

> <Gold.Chemscore.Hbond.Weighted>
-6.9420

> <Gold.Chemscore.Metal.Weighted>
-0.0000

> <Gold.Chemscore.Lipo.Weighted>
-9.4289

> <Gold.Chemscore.Internal_Hbond.Weighted>
0.0000

> <Gold.Chemscore.DEClash.Weighted>
0.2429

> <Gold.Chemscore.DEInternal.Weighted>
0.9802

> <Gold.Chemscore.Rot.Weighted>
5.6658

> <Gold.Chemscore.Internal.Correction.Weighted>
   9.000000E+99

> <Gold.Protein.RotatedTorsions>
[ 6907 6896 6895 6894 ] final  -20.91 input  -60.11 | X-H torsion
[ 7974 7965 7964 7962 ] final  -57.93 input  175.53 | X-H torsion
[ 8008 7997 7996 7995 ] final  -18.81 input   59.86 | X-H torsion
[ 10167 10162 10161 10158 ] final -141.53 input  -65.29 | X-H torsion
[ 10718 10713 10712 10709 ] final  -91.56 input   66.30 | X-H torsion
[ 10763 10752 10751 10750 ] final  -55.83 input  -60.55 | X-H torsion
[ 11005 11000 10999 10996 ] final  -82.53 input  -57.11 | X-H torsion

> <Gold.Protein.ActiveResidues>
 VAL166  LYS551  ARG553  GLY616  TRP617  ASP618  TYR619  PRO620  LYS621  CYS622 
 ASP623  PHE694  ASN695  SER759  ASP760  ASP761  ALA762  ILE779  LEU786  VAL792 
 PHE793  MET794  SER795  GLU796  ALA797  LYS798  CYS799  TRP800  GLU811  SER814 

> <Gold.Protein.RotatedAtoms>
  151.2411  135.0589  159.9024 H   0  0  0  0  0  0  0  0  0  0  0  0  # atno 6907 bound_to 6896
  152.5393  134.0433  159.8087 H   0  0  0  0  0  0  0  0  0  0  0  0  # atno 6908 bound_to 6896
  151.0627  133.5482  159.2664 H   0  0  0  0  0  0  0  0  0  0  0  0  # atno 6909 bound_to 6896
  145.8452  140.8390  143.0014 H   0  0  0  0  0  0  0  0  0  0  0  0  # atno 7974 bound_to 7965
  154.4880  140.2106  155.9612 H   0  0  0  0  0  0  0  0  0  0  0  0  # atno 8008 bound_to 7997
  156.1264  140.3204  155.8252 H   0  0  0  0  0  0  0  0  0  0  0  0  # atno 8009 bound_to 7997
  155.4376  140.0508  157.3004 H   0  0  0  0  0  0  0  0  0  0  0  0  # atno 8010 bound_to 7997
  139.8176  143.7618  152.2665 H   0  0  0  0  0  0  0  0  0  0  0  0  # atno 10167 bound_to 10162
  155.9995  130.4953  150.5492 H   0  0  0  0  0  0  0  0  0  0  0  0  # atno 10718 bound_to 10713
  154.1970  135.6417  153.5076 H   0  0  0  0  0  0  0  0  0  0  0  0  # atno 10763 bound_to 10752
  153.0021  135.5442  154.6355 H   0  0  0  0  0  0  0  0  0  0  0  0  # atno 10764 bound_to 10752
  154.5758  135.2921  155.0755 H   0  0  0  0  0  0  0  0  0  0  0  0  # atno 10765 bound_to 10752
  141.1662  133.7249  156.8586 H   0  0  0  0  0  0  0  0  0  0  0  0  # atno 11005 bound_to 11000
  144.6731  140.0872  143.7467 LP  0  0  0  0  0  0  0  0  0  0  0  0  # atno 17320 bound_to 7965
  145.9420  139.2675  143.1263 LP  0  0  0  0  0  0  0  0  0  0  0  0  # atno 17321 bound_to 7965
  139.7786  144.7452  151.0121 LP  0  0  0  0  0  0  0  0  0  0  0  0  # atno 17342 bound_to 10162
  140.7815  143.4567  151.0336 LP  0  0  0  0  0  0  0  0  0  0  0  0  # atno 17343 bound_to 10162
  157.3418  131.0718  151.1782 LP  0  0  0  0  0  0  0  0  0  0  0  0  # atno 17370 bound_to 10713
  157.2628  130.6667  149.5982 LP  0  0  0  0  0  0  0  0  0  0  0  0  # atno 17371 bound_to 10713
  140.1865  134.8996  157.3010 LP  0  0  0  0  0  0  0  0  0  0  0  0  # atno 17394 bound_to 11000
  140.2337  134.3878  155.7510 LP  0  0  0  0  0  0  0  0  0  0  0  0  # atno 17395 bound_to 11000

$$$$
