AV-unprocessed.smi:2969|AV-procd|sdf|11329|dock7
  -GOLD-   2272016233D 1   1.00000     0.00000
 Structure written by MMmdl.
 40 40  0  0  0  0  0  0  0  0  1 V2000
  146.7836  133.3009  151.2812 C   0  0  0  0  0  0  0  0  0  0  0  0
  147.3112  132.7502  152.6122 C   0  0  0  0  0  0  0  0  0  0  0  0
  148.7937  133.0692  152.8936 C   0  0  0  0  0  0  0  0  0  0  0  0
  149.1393  133.0755  154.3041 N   0  0  0  0  0  0  0  0  0  0  0  0
  149.2912  134.2507  155.0460 C   0  0  0  0  0  0  0  0  0  0  0  0
  149.1136  135.4592  154.3878 N   0  0  0  0  0  0  0  0  0  0  0  0
  149.6314  134.2285  156.3698 C   0  0  0  0  0  0  0  0  0  0  0  0
  149.7416  135.4125  157.1230 N   0  0  0  0  0  0  0  0  0  0  0  0
  148.5670  135.8013  157.9227 C   0  0  0  0  0  0  0  0  0  0  0  0
  148.2380  134.7679  159.0121 C   0  0  0  0  0  0  0  0  0  0  0  0
  147.3688  135.3564  159.9650 O   0  0  0  0  0  0  0  0  0  0  0  0
  148.0121  136.3384  160.7569 C   0  0  0  0  0  0  0  0  0  0  0  0
  150.8564  136.1935  157.1067 C   0  0  0  0  0  0  0  0  0  0  0  0
  151.7930  135.9638  156.3387 O   0  0  0  0  0  0  0  0  0  0  0  0
  151.0047  137.3711  158.0944 C   0  0  0  0  0  0  0  0  0  0  0  0
  150.8476  136.9521  159.3506 F   0  0  0  0  0  0  0  0  0  0  0  0
  152.2244  137.8987  157.9797 F   0  0  0  0  0  0  0  0  0  0  0  0
  150.1106  138.3185  157.8169 F   0  0  0  0  0  0  0  0  0  0  0  0
  149.8053  132.9490  157.0719 C   0  0  0  0  0  0  0  0  0  0  0  0
  150.0645  132.8139  158.2671 O   0  0  0  0  0  0  0  0  0  0  0  0
  149.6503  131.8175  156.2762 N   0  0  0  0  0  0  0  0  0  0  0  0
  149.3369  131.8161  154.9221 C   0  0  0  0  0  0  0  0  0  0  0  0
  149.2478  130.7409  154.3287 O   0  0  0  0  0  0  0  0  0  0  0  0
  149.7772  130.9199  156.7208 H   0  0  0  0  0  0  0  0  0  0  0  0
  145.7545  132.9835  151.1128 H   0  0  0  0  0  0  0  0  0  0  0  0
  147.3829  132.9450  150.4427 H   0  0  0  0  0  0  0  0  0  0  0  0
  146.7965  134.3909  151.2675 H   0  0  0  0  0  0  0  0  0  0  0  0
  146.6896  133.1254  153.4254 H   0  0  0  0  0  0  0  0  0  0  0  0
  147.1845  131.6674  152.6154 H   0  0  0  0  0  0  0  0  0  0  0  0
  149.4437  132.3261  152.4313 H   0  0  0  0  0  0  0  0  0  0  0  0
  149.0954  134.0164  152.4451 H   0  0  0  0  0  0  0  0  0  0  0  0
  148.8821  135.5028  153.4057 H   0  0  0  0  0  0  0  0  0  0  0  0
  149.1757  136.3427  154.8732 H   0  0  0  0  0  0  0  0  0  0  0  0
  148.7368  136.7765  158.3824 H   0  0  0  0  0  0  0  0  0  0  0  0
  147.6926  135.9357  157.2847 H   0  0  0  0  0  0  0  0  0  0  0  0
  147.7895  133.8736  158.5769 H   0  0  0  0  0  0  0  0  0  0  0  0
  149.1572  134.4588  159.5115 H   0  0  0  0  0  0  0  0  0  0  0  0
  147.3001  136.7599  161.4661 H   0  0  0  0  0  0  0  0  0  0  0  0
  148.3978  137.1518  160.1412 H   0  0  0  0  0  0  0  0  0  0  0  0
  148.8366  135.9066  161.3256 H   0  0  0  0  0  0  0  0  0  0  0  0
  1  2  1  0  0  0  0
  1 25  1  0  0  0  0
  1 26  1  0  0  0  0
  1 27  1  0  0  0  0
  2  3  1  0  0  0  0
  2 28  1  0  0  0  0
  2 29  1  0  0  0  0
  3  4  1  0  0  0  0
  3 30  1  0  0  0  0
  3 31  1  0  0  0  0
  4 22  1  0  0  0  0
  4  5  1  0  0  0  0
  5  6  1  0  0  0  0
  5  7  2  0  0  0  0
  6 32  1  0  0  0  0
  6 33  1  0  0  0  0
  7  8  1  0  0  0  0
  7 19  1  0  0  0  0
  8  9  1  0  0  0  0
  8 13  1  0  0  0  0
  9 10  1  0  0  0  0
  9 34  1  0  0  0  0
  9 35  1  0  0  0  0
 10 11  1  0  0  0  0
 10 36  1  0  0  0  0
 10 37  1  0  0  0  0
 11 12  1  0  0  0  0
 12 38  1  0  0  0  0
 12 39  1  0  0  0  0
 12 40  1  0  0  0  0
 13 14  2  0  0  0  0
 13 15  1  0  0  0  0
 15 16  1  0  0  0  0
 15 17  1  0  0  0  0
 15 18  1  0  0  0  0
 19 20  2  0  0  0  0
 19 21  1  0  0  0  0
 21 24  1  0  0  0  0
 21 22  1  0  0  0  0
 22 23  2  0  0  0  0
M  END
> <s_m_source_file>
AV-unprocessed.smi

> <i_m_source_file_index>
2969

> <i_lp_mmshare_version>
43012

> <i_f3d_flags>
0

> <s_epik_input>
W0NIM11bQ0gyXVtDSDJdbjFjKFtOSDJdKWMoYyg9TylbbkhdYzE9TylOKEMoPU8pQyhGKShGKUYpW0NIMl1bQ0gyXU9bQ0gzXQ==

> <s_epik_cmdline>
J2VwaWtfcHl0aG9uJywgJy1waCcsICc3LjAnLCAnLXRuJywgJzgnLCAnLW1hJywgJzIwMCcsICctbWV0YWxfYmluZGluZycsICctaW1hZScsICc8aW5maWxlLm1hZT4nLCAnLW9tYWUnLCAnPG91dGZpbGUubWFlPic=

> <r_lp_tautomer_probability>
1

> <r_epik_Ionization_Penalty>
0.000513649

> <r_epik_Ionization_Penalty_Charging>
0.000443136

> <r_epik_Ionization_Penalty_Neutral>
7.05129e-05

> <r_epik_State_Penalty>
-0

> <r_epik_Charging_Adjusted_Penalty>
0.000443136

> <i_epik_Tot_Q>
0

> <i_epik_Tot_abs_Q>
0

> <r_epik_Metal_State_Penalty>
0.330936

> <b_epik_Metal_Only>
0

> <s_epik_Chemistry_Notes>
This compound has an imine and may undergo hydrolysis.

> <s_lp_Force_Field>
OPLS_2005

> <r_lp_Energy>
31.7287

> <b_lp_Chiralities_Consistent>
1

> <s_lp_Variant>
AV-unprocessed.smi:2969-1

> <Gold.Version>
5.8.1

> <Gold.Id.Protein>
6NUR|6NUR_protein|mol2

> <Gold.PLP.Fitness>
32.5840

> <Gold.PLP.PLP>
-26.5742

> <Gold.PLP.part.hbond>
-2.8928

> <Gold.PLP.part.metal>
0.0000

> <Gold.PLP.part.buried>
-1.8342

> <Gold.PLP.part.nonpolar>
-23.1597

> <Gold.PLP.part.repulsive>
0.0908

> <Gold.PLP.ligand.clash>
3.9198

> <Gold.PLP.ligand.torsion>
2.0698

> <Gold.PLP.Chemscore.Hbond>
3.0000

> <Gold.PLP.Chemscore.CHOScore>
0.0000

> <Gold.PLP.Chemscore.Metal>
0.0000

> <Gold.Chemscore.Hbonds>
donor molecule, donor type, donor heavy atom, donor atom, acceptor molecule, acceptor atom, score
      L1  H     6    32       P1  7948  1.00
      P1  H  6896  6907       L1    20  1.00
      P1  H 10752 10765       L1    14  1.00

> <Gold.PLP.Chemscore.Internal.Correction>
5.0693

> <Gold.Rescore>
     Score         DG    S(hbond)    S(metal)    S(lipo)     H(rot)  DE(clash)    DE(int)     intcor
      8.40     -13.82       2.89        0.00      38.42       2.27       0.31       5.12       ----

> <Gold.Chemscore.Fitness>
8.3995

> <Gold.Chemscore.DG>
-13.8210

> <Gold.Chemscore.ZeroCoef>
-5.4800

> <Gold.Chemscore.Hbond>
2.8880

> <Gold.Chemscore.Metal>
0.0000

> <Gold.Chemscore.Lipo>
38.4250

> <Gold.Chemscore.Internal_Hbond>
0.0000

> <Gold.Chemscore.DEClash>
0.3057

> <Gold.Chemscore.DEInternal>
5.1158

> <Gold.Chemscore.Rot>
2.2658

> <Gold.Chemscore.Internal.Correction>
   9.000000E+99

> <Gold.Chemscore.Hbonds>
donor molecule, donor type, donor heavy atom, donor atom, acceptor molecule, acceptor atom, score
      L1  H     6    32       P1  7948  0.80
      P1  H  6896  6907       L1    20  0.95
      P1  H 10752 10765       L1    14  1.00

> <Gold.Chemscore.Hbond.Weighted>
-9.6458

> <Gold.Chemscore.Metal.Weighted>
-0.0000

> <Gold.Chemscore.Lipo.Weighted>
-4.4957

> <Gold.Chemscore.Internal_Hbond.Weighted>
0.0000

> <Gold.Chemscore.DEClash.Weighted>
0.3057

> <Gold.Chemscore.DEInternal.Weighted>
5.1158

> <Gold.Chemscore.Rot.Weighted>
5.8005

> <Gold.Chemscore.Internal.Correction.Weighted>
   9.000000E+99

> <Gold.Protein.RotatedTorsions>
[ 6907 6896 6895 6894 ] final -150.02 input  -60.11 | X-H torsion
[ 7974 7965 7964 7962 ] final  166.09 input  175.53 | X-H torsion
[ 8008 7997 7996 7995 ] final -175.29 input   59.86 | X-H torsion
[ 10167 10162 10161 10158 ] final   -9.43 input  -65.29 | X-H torsion
[ 10718 10713 10712 10709 ] final -129.17 input   66.30 | X-H torsion
[ 10763 10752 10751 10750 ] final -148.74 input  -60.55 | X-H torsion
[ 11005 11000 10999 10996 ] final   -3.32 input  -57.11 | X-H torsion

> <Gold.Protein.ActiveResidues>
 VAL166  LYS551  ARG553  GLY616  TRP617  ASP618  TYR619  PRO620  LYS621  CYS622 
 ASP623  PHE694  ASN695  SER759  ASP760  ASP761  ALA762  ILE779  LEU786  VAL792 
 PHE793  MET794  SER795  GLU796  ALA797  LYS798  CYS799  TRP800  GLU811  SER814 

> <Gold.Protein.RotatedAtoms>
  151.1925  133.4659  159.2594 H   0  0  0  0  0  0  0  0  0  0  0  0  # atno 6907 bound_to 6896
  151.1149  135.0047  159.8521 H   0  0  0  0  0  0  0  0  0  0  0  0  # atno 6908 bound_to 6896
  152.5453  134.1841  159.8700 H   0  0  0  0  0  0  0  0  0  0  0  0  # atno 6909 bound_to 6896
  144.7476  139.8565  143.6377 H   0  0  0  0  0  0  0  0  0  0  0  0  # atno 7974 bound_to 7965
  155.9808  140.1181  157.0728 H   0  0  0  0  0  0  0  0  0  0  0  0  # atno 8008 bound_to 7997
  154.4182  140.1145  156.5500 H   0  0  0  0  0  0  0  0  0  0  0  0  # atno 8009 bound_to 7997
  155.6473  140.3473  155.4738 H   0  0  0  0  0  0  0  0  0  0  0  0  # atno 8010 bound_to 7997
  140.7087  143.5858  150.8944 H   0  0  0  0  0  0  0  0  0  0  0  0  # atno 10167 bound_to 10162
  156.2021  130.6864  151.0551 H   0  0  0  0  0  0  0  0  0  0  0  0  # atno 10718 bound_to 10713
  154.8216  135.3327  154.7021 H   0  0  0  0  0  0  0  0  0  0  0  0  # atno 10763 bound_to 10752
  153.7653  135.6929  153.4921 H   0  0  0  0  0  0  0  0  0  0  0  0  # atno 10764 bound_to 10752
  153.2082  135.4491  155.0297 H   0  0  0  0  0  0  0  0  0  0  0  0  # atno 10765 bound_to 10752
  140.6680  133.9261  155.8477 H   0  0  0  0  0  0  0  0  0  0  0  0  # atno 11005 bound_to 11000
  146.1379  139.4429  143.0127 LP  0  0  0  0  0  0  0  0  0  0  0  0  # atno 17320 bound_to 7965
  145.7063  141.0120  143.1477 LP  0  0  0  0  0  0  0  0  0  0  0  0  # atno 17321 bound_to 7965
  139.9584  143.6192  152.3009 LP  0  0  0  0  0  0  0  0  0  0  0  0  # atno 17342 bound_to 10162
  139.6736  144.7660  151.1738 LP  0  0  0  0  0  0  0  0  0  0  0  0  # atno 17343 bound_to 10162
  157.6991  131.0783  150.6876 LP  0  0  0  0  0  0  0  0  0  0  0  0  # atno 17370 bound_to 10713
  156.6933  130.4601  149.5593 LP  0  0  0  0  0  0  0  0  0  0  0  0  # atno 17371 bound_to 10713
  141.0414  134.0616  157.3897 LP  0  0  0  0  0  0  0  0  0  0  0  0  # atno 17394 bound_to 11000
  139.8991  135.0157  156.7179 LP  0  0  0  0  0  0  0  0  0  0  0  0  # atno 17395 bound_to 11000

$$$$
