AV-unprocessed.smi:54|AV-procd|sdf|549|dock7
  -GOLD-   2262016443D 1   1.00000     0.00000
 Structure written by MMmdl.
 43 45  0  0  0  0  0  0  0  0  2 V2000
  145.7786  135.2603  161.1817 C   0  0  0  0  0  0  0  0  0  0  0  0
  147.1727  135.7644  161.5911 C   0  0  0  0  0  0  0  0  0  0  0  0
  147.0747  136.9137  162.6076 C   0  0  0  0  0  0  0  0  0  0  0  0
  147.9794  136.1966  160.3582 C   0  0  0  0  0  0  0  0  0  0  0  0
  148.3177  137.3770  160.2460 O   0  0  0  0  0  0  0  0  0  0  0  0
  148.2696  135.2090  159.4828 N   0  0  0  0  0  0  0  0  0  0  0  0
  148.9849  135.2805  158.2823 C   0  0  0  0  0  0  0  0  0  0  0  0
  149.0844  136.5000  157.8119 N   0  0  0  0  0  0  0  0  0  0  0  0
  149.8200  136.5631  156.6434 C   0  0  0  0  0  0  0  0  0  0  0  0
  150.4119  135.5274  155.9735 C   0  0  0  0  0  0  0  0  0  0  0  0
  151.0370  135.9640  154.8129 N   0  0  0  0  0  0  0  0  0  0  0  0
  150.7868  137.2713  154.8388 C   0  0  0  0  0  0  0  0  0  0  0  0
  150.0988  137.7153  155.9120 N   0  0  0  0  0  0  0  0  0  0  0  0
  149.6343  139.1166  156.1901 C   0  0  2  0  0  0  0  0  0  0  0  0
  148.2430  139.1653  156.0422 O   0  0  0  0  0  0  0  0  0  0  0  0
  147.8876  139.7406  154.7886 C   0  0  2  0  0  0  0  0  0  0  0  0
  147.7746  138.6380  153.7115 C   0  0  0  0  0  0  0  0  0  0  0  0
  147.6059  139.2041  152.4281 O   0  0  0  0  0  0  0  0  0  0  0  0
  148.9958  140.7820  154.5834 C   0  0  2  0  0  0  0  0  0  0  0  0
  149.1936  141.1189  153.2245 O   0  0  0  0  0  0  0  0  0  0  0  0
  150.2322  140.1193  155.1813 C   0  0  1  0  0  0  0  0  0  0  0  0
  151.0304  141.0920  155.8256 O   0  0  0  0  0  0  0  0  0  0  0  0
  150.2678  134.1759  156.5637 C   0  0  0  0  0  0  0  0  0  0  0  0
  150.7855  133.2162  155.9955 O   0  0  0  0  0  0  0  0  0  0  0  0
  149.5493  134.1162  157.7243 N   0  5  0  0  0  0  0  0  0  0  0  0
  149.9227  139.2896  157.2277 H   0  0  0  0  0  0  0  0  0  0  0  0
  146.9176  140.2266  154.9020 H   0  0  0  0  0  0  0  0  0  0  0  0
  148.7345  141.6811  155.1441 H   0  0  0  0  0  0  0  0  0  0  0  0
  150.8039  139.5946  154.4143 H   0  0  0  0  0  0  0  0  0  0  0  0
  145.8476  134.4562  160.4480 H   0  0  0  0  0  0  0  0  0  0  0  0
  145.1748  136.0575  160.7465 H   0  0  0  0  0  0  0  0  0  0  0  0
  145.2371  134.8699  162.0437 H   0  0  0  0  0  0  0  0  0  0  0  0
  147.6969  134.9371  162.0725 H   0  0  0  0  0  0  0  0  0  0  0  0
  148.0631  137.2792  162.8896 H   0  0  0  0  0  0  0  0  0  0  0  0
  146.5755  136.5848  163.5194 H   0  0  0  0  0  0  0  0  0  0  0  0
  146.5093  137.7564  162.2078 H   0  0  0  0  0  0  0  0  0  0  0  0
  147.9855  134.2857  159.7753 H   0  0  0  0  0  0  0  0  0  0  0  0
  151.1160  137.9250  154.0449 H   0  0  0  0  0  0  0  0  0  0  0  0
  148.6413  137.9764  153.7158 H   0  0  0  0  0  0  0  0  0  0  0  0
  146.8972  138.0211  153.9041 H   0  0  0  0  0  0  0  0  0  0  0  0
  148.4406  139.5376  152.1361 H   0  0  0  0  0  0  0  0  0  0  0  0
  149.2401  140.3197  152.7222 H   0  0  0  0  0  0  0  0  0  0  0  0
  151.3319  140.7353  156.6468 H   0  0  0  0  0  0  0  0  0  0  0  0
  1  2  1  0  0  0  0
  1 30  1  0  0  0  0
  1 31  1  0  0  0  0
  1 32  1  0  0  0  0
  2  3  1  0  0  0  0
  2  4  1  0  0  0  0
  2 33  1  0  0  0  0
  3 34  1  0  0  0  0
  3 35  1  0  0  0  0
  3 36  1  0  0  0  0
  4  5  2  0  0  0  0
  4  6  1  0  0  0  0
  6 37  1  0  0  0  0
  6  7  1  0  0  0  0
  7 25  1  0  0  0  0
  7  8  2  0  0  0  0
  8  9  1  0  0  0  0
  9 13  1  0  0  0  0
  9 10  2  0  0  0  0
 10 11  1  0  0  0  0
 10 23  1  0  0  0  0
 11 12  2  0  0  0  0
 12 13  1  0  0  0  0
 12 38  1  0  0  0  0
 13 14  1  0  0  0  0
 14 26  1  0  0  0  0
 14 21  1  0  0  0  0
 14 15  1  0  0  0  0
 15 16  1  0  0  0  0
 16 27  1  0  0  0  0
 16 17  1  0  0  0  0
 16 19  1  0  0  0  0
 17 18  1  0  0  0  0
 17 39  1  0  0  0  0
 17 40  1  0  0  0  0
 18 41  1  0  0  0  0
 19 28  1  0  0  0  0
 19 20  1  0  0  0  0
 19 21  1  0  0  0  0
 20 42  1  0  0  0  0
 21 29  1  0  0  0  0
 21 22  1  0  0  0  0
 22 43  1  0  0  0  0
 23 24  2  0  0  0  0
 23 25  1  0  0  0  0
M  CHG  1  25  -1
M  END
> <s_m_source_file>
AV-unprocessed.smi

> <i_m_source_file_index>
54

> <i_lp_mmshare_version>
43012

> <i_f3d_flags>
0

> <s_epik_input>
W0NIM11bQ0hdKFtDSDNdKUMoPU8pW05IXWMobjEpW25IXWMoPU8pYyhjMTIpbltjSF1uMltDQEBIXTNPW0NASF0oW0NIMl1bT0hdKVtDQEBIXShbT0hdKVtDQEhdM1tPSF0=

> <s_epik_cmdline>
J2VwaWtfcHl0aG9uJywgJy1waCcsICc3LjAnLCAnLXRuJywgJzgnLCAnLW1hJywgJzIwMCcsICctbWV0YWxfYmluZGluZycsICctaW1hZScsICc8aW5maWxlLm1hZT4nLCAnLW9tYWUnLCAnPG91dGZpbGUubWFlPic=

> <r_lp_tautomer_probability>
0.85571

> <r_epik_Ionization_Penalty>
1.75936

> <r_epik_Ionization_Penalty_Charging>
4.55893e-11

> <r_epik_Ionization_Penalty_Neutral>
1.75936

> <r_epik_State_Penalty>
1.72072

> <r_epik_Charging_Adjusted_Penalty>
1.72072

> <i_epik_Tot_Q>
-1

> <i_epik_Tot_abs_Q>
1

> <r_epik_Metal_State_Penalty>
0.400338

> <b_epik_Metal_Only>
1

> <s_epik_Chemistry_Notes>
This compound contains an acetal/aminal-like group ( X-CH(R)-Y where X, Y are N, S, or O) that may be acid/base labile, releasing an aldehyde.

> <s_lp_Force_Field>
OPLS_2005

> <r_lp_Energy>
58.7514

> <b_lp_Chiralities_Consistent>
1

> <s_lp_Variant>
AV-unprocessed.smi:54-21

> <Gold.Version>
5.8.1

> <Gold.Id.Protein>
6NUR|6NUR_protein|mol2

> <Gold.PLP.Fitness>
50.6747

> <Gold.PLP.PLP>
-31.6765

> <Gold.PLP.part.hbond>
-7.9759

> <Gold.PLP.part.metal>
0.0000

> <Gold.PLP.part.buried>
-4.5378

> <Gold.PLP.part.nonpolar>
-20.0887

> <Gold.PLP.part.repulsive>
0.2523

> <Gold.PLP.ligand.clash>
0.0000

> <Gold.PLP.ligand.torsion>
0.2952

> <Gold.PLP.Chemscore.Hbond>
6.5019

> <Gold.PLP.Chemscore.CHOScore>
0.0000

> <Gold.PLP.Chemscore.Metal>
0.0000

> <Gold.Chemscore.Hbonds>
donor molecule, donor type, donor heavy atom, donor atom, acceptor molecule, acceptor atom, score
      L1  H    18    41       P1  7957  1.00
      L1  H    20    42       P1  7957  0.62
      P1  H  6896  6908       L1    25  1.59
      P1  H  6931  6943       L1     5  0.58
      P1  H  6934  6947       L1     5  0.46
      P1  H  8011  8017       L1    20  1.00
      P1  H 10752 10764       L1    11  1.00

> <Gold.PLP.Chemscore.Internal.Correction>
0.0830

> <Gold.Rescore>
     Score         DG    S(hbond)    S(metal)    S(lipo)     H(rot)  DE(clash)    DE(int)     intcor
     14.53     -16.26       4.66        0.00      47.08       4.02       0.02       1.71       ----

> <Gold.Chemscore.Fitness>
14.5287

> <Gold.Chemscore.DG>
-16.2633

> <Gold.Chemscore.ZeroCoef>
-5.4800

> <Gold.Chemscore.Hbond>
4.6601

> <Gold.Chemscore.Metal>
0.0000

> <Gold.Chemscore.Lipo>
47.0750

> <Gold.Chemscore.Internal_Hbond>
0.0000

> <Gold.Chemscore.DEClash>
0.0237

> <Gold.Chemscore.DEInternal>
1.7108

> <Gold.Chemscore.Rot>
4.0192

> <Gold.Chemscore.Internal.Correction>
   9.000000E+99

> <Gold.Chemscore.Hbonds>
donor molecule, donor type, donor heavy atom, donor atom, acceptor molecule, acceptor atom, score
      L1  H    18    41       P1  7957  0.97
      L1  H    20    42       P1  7957  0.62
      P1  H  6896  6908       L1    25  0.07
      P1  H  6931  6943       L1     5  0.53
      P1  H  6934  6947       L1     5  0.46
      P1  H  8011  8017       L1    20  0.74
      P1  H 10752 10764       L1    11  0.76

> <Gold.Chemscore.Hbond.Weighted>
-15.5648

> <Gold.Chemscore.Metal.Weighted>
-0.0000

> <Gold.Chemscore.Lipo.Weighted>
-5.5078

> <Gold.Chemscore.Internal_Hbond.Weighted>
0.0000

> <Gold.Chemscore.DEClash.Weighted>
0.0237

> <Gold.Chemscore.DEInternal.Weighted>
1.7108

> <Gold.Chemscore.Rot.Weighted>
10.2893

> <Gold.Chemscore.Internal.Correction.Weighted>
   9.000000E+99

> <Gold.Protein.RotatedTorsions>
[ 6907 6896 6895 6894 ] final  115.95 input  -60.11 | X-H torsion
[ 7974 7965 7964 7962 ] final   -7.54 input  175.53 | X-H torsion
[ 8008 7997 7996 7995 ] final  -26.19 input   59.86 | X-H torsion
[ 10167 10162 10161 10158 ] final   52.48 input  -65.29 | X-H torsion
[ 10718 10713 10712 10709 ] final  101.29 input   66.30 | X-H torsion
[ 10763 10752 10751 10750 ] final  -74.28 input  -60.55 | X-H torsion
[ 11005 11000 10999 10996 ] final  153.90 input  -57.11 | X-H torsion

> <Gold.Protein.ActiveResidues>
 VAL166  LYS551  ARG553  GLY616  TRP617  ASP618  TYR619  PRO620  LYS621  CYS622 
 ASP623  PHE694  ASN695  SER759  ASP760  ASP761  ALA762  ILE779  LEU786  VAL792 
 PHE793  MET794  SER795  GLU796  ALA797  LYS798  CYS799  TRP800  GLU811  SER814 

> <Gold.Protein.RotatedAtoms>
  152.4709  133.8028  159.6961 H   0  0  0  0  0  0  0  0  0  0  0  0  # atno 6907 bound_to 6896
  150.8698  133.7512  159.2971 H   0  0  0  0  0  0  0  0  0  0  0  0  # atno 6908 bound_to 6896
  151.5051  135.1066  159.9891 H   0  0  0  0  0  0  0  0  0  0  0  0  # atno 6909 bound_to 6896
  146.2304  140.2335  142.8341 H   0  0  0  0  0  0  0  0  0  0  0  0  # atno 7974 bound_to 7965
  154.4437  140.1906  156.0737 H   0  0  0  0  0  0  0  0  0  0  0  0  # atno 8008 bound_to 7997
  156.0492  140.3310  155.7304 H   0  0  0  0  0  0  0  0  0  0  0  0  # atno 8009 bound_to 7997
  155.5583  140.0601  157.2825 H   0  0  0  0  0  0  0  0  0  0  0  0  # atno 8010 bound_to 7997
  140.2509  144.3480  150.6348 H   0  0  0  0  0  0  0  0  0  0  0  0  # atno 10167 bound_to 10162
  157.6833  131.0722  150.5230 H   0  0  0  0  0  0  0  0  0  0  0  0  # atno 10718 bound_to 10713
  154.4709  135.5869  153.6321 H   0  0  0  0  0  0  0  0  0  0  0  0  # atno 10763 bound_to 10752
  152.9834  135.6066  154.3367 H   0  0  0  0  0  0  0  0  0  0  0  0  # atno 10764 bound_to 10752
  154.3249  135.2843  155.2480 H   0  0  0  0  0  0  0  0  0  0  0  0  # atno 10765 bound_to 10752
  140.1440  134.8720  157.2368 H   0  0  0  0  0  0  0  0  0  0  0  0  # atno 11005 bound_to 11000
  144.9539  140.8207  143.5555 LP  0  0  0  0  0  0  0  0  0  0  0  0  # atno 17320 bound_to 7965
  145.2299  139.2120  143.5048 LP  0  0  0  0  0  0  0  0  0  0  0  0  # atno 17321 bound_to 7965
  140.6041  143.2167  151.7014 LP  0  0  0  0  0  0  0  0  0  0  0  0  # atno 17342 bound_to 10162
  139.5047  144.3746  152.0436 LP  0  0  0  0  0  0  0  0  0  0  0  0  # atno 17343 bound_to 10162
  156.5543  130.4239  149.6093 LP  0  0  0  0  0  0  0  0  0  0  0  0  # atno 17370 bound_to 10713
  156.2875  130.7106  151.1946 LP  0  0  0  0  0  0  0  0  0  0  0  0  # atno 17371 bound_to 10713
  140.2686  134.3486  155.7381 LP  0  0  0  0  0  0  0  0  0  0  0  0  # atno 17394 bound_to 11000
  141.2190  133.7410  156.9189 LP  0  0  0  0  0  0  0  0  0  0  0  0  # atno 17395 bound_to 11000

$$$$
