AV-unprocessed.smi:229|AV-procd|sdf|1759|dock10
  -GOLD-   2262020293D 1   1.00000     0.00000
 Structure written by MMmdl.
 58 62  0  0  0  0  0  0  0  0  1 V2000
  145.6246  132.8844  156.9023 C   0  0  0  0  0  0  0  0  0  0  0  0
  146.0234  134.2752  156.3907 C   0  0  0  0  0  0  0  0  0  0  0  0
  147.5419  134.5159  156.3768 C   0  0  2  0  0  0  0  0  0  0  0  0
  147.9266  135.8919  155.8036 C   0  0  0  0  0  0  0  0  0  0  0  0
  149.3769  136.0078  155.7192 N   0  0  0  0  0  0  0  0  0  0  0  0
  149.8447  137.2700  155.5479 C   0  0  0  0  0  0  0  0  0  0  0  0
  149.7362  137.8768  154.3351 N   0  0  0  0  0  0  0  0  0  0  0  0
  150.1856  139.1232  154.1598 C   0  0  0  0  0  0  0  0  0  0  0  0
  150.7704  139.9318  155.0456 N   0  0  0  0  0  0  0  0  0  0  0  0
  150.8903  139.3261  156.2613 C   0  0  0  0  0  0  0  0  0  0  0  0
  150.4606  138.0109  156.5963 C   0  0  0  0  0  0  0  0  0  0  0  0
  150.7664  137.7389  157.9253 N   0  0  0  0  0  0  0  0  0  0  0  0
  151.3336  138.8335  158.3534 C   0  0  0  0  0  0  0  0  0  0  0  0
  151.4474  139.8374  157.4191 N   0  0  0  0  0  0  0  0  0  0  0  0
  152.0355  141.1502  157.6172 C   0  0  0  0  0  0  0  0  0  0  0  0
  150.9720  142.2562  157.7620 C   0  0  2  0  0  0  0  0  0  0  0  0
  150.3304  142.4528  156.5158 O   0  0  0  0  0  0  0  0  0  0  0  0
  151.5816  143.5797  158.2682 C   0  0  1  0  0  0  0  0  0  0  0  0
  150.6208  144.7480  158.5122 C   0  0  0  0  0  0  0  0  0  0  0  0
  151.4211  145.5825  159.4867 C   0  0  0  0  0  0  0  0  0  0  0  0
  152.0844  144.5085  160.3469 C   0  0  0  0  0  0  0  0  0  0  0  0
  152.2870  143.3865  159.4906 O   0  0  0  0  0  0  0  0  0  0  0  0
  149.9911  134.9334  154.9447 C   0  0  0  0  0  0  0  0  0  0  0  0
  149.5600  133.5495  155.4803 C   0  0  2  0  0  0  0  0  0  0  0  0
  150.2168  133.1754  156.8140 C   0  0  0  0  0  0  0  0  0  0  0  0
  151.3063  132.1887  156.4188 C   0  0  0  0  0  0  0  0  0  0  0  0
  150.6907  131.4707  155.3663 O   0  0  0  0  0  0  0  0  0  0  0  0
  150.0323  132.4220  154.5418 C   0  0  0  0  0  0  0  0  0  0  0  0
  148.1323  133.4969  155.5681 O   0  0  0  0  0  0  0  0  0  0  0  0
  144.5462  132.7422  156.8321 H   0  0  0  0  0  0  0  0  0  0  0  0
  145.9056  132.7437  157.9458 H   0  0  0  0  0  0  0  0  0  0  0  0
  146.1013  132.0981  156.3163 H   0  0  0  0  0  0  0  0  0  0  0  0
  145.6405  134.3901  155.3761 H   0  0  0  0  0  0  0  0  0  0  0  0
  145.5311  135.0429  156.9887 H   0  0  0  0  0  0  0  0  0  0  0  0
  147.9142  134.4300  157.3985 H   0  0  0  0  0  0  0  0  0  0  0  0
  147.5039  136.0153  154.8055 H   0  0  0  0  0  0  0  0  0  0  0  0
  147.5046  136.6809  156.4236 H   0  0  0  0  0  0  0  0  0  0  0  0
  150.0583  139.5302  153.1676 H   0  0  0  0  0  0  0  0  0  0  0  0
  151.6924  138.9381  159.3671 H   0  0  0  0  0  0  0  0  0  0  0  0
  152.6626  141.1096  158.5088 H   0  0  0  0  0  0  0  0  0  0  0  0
  152.7000  141.3637  156.7788 H   0  0  0  0  0  0  0  0  0  0  0  0
  150.2203  141.9227  158.4786 H   0  0  0  0  0  0  0  0  0  0  0  0
  149.9864  143.3328  156.4951 H   0  0  0  0  0  0  0  0  0  0  0  0
  152.3363  143.9087  157.5518 H   0  0  0  0  0  0  0  0  0  0  0  0
  150.3635  145.2855  157.5992 H   0  0  0  0  0  0  0  0  0  0  0  0
  149.6959  144.4207  158.9878 H   0  0  0  0  0  0  0  0  0  0  0  0
  152.1783  146.1587  158.9531 H   0  0  0  0  0  0  0  0  0  0  0  0
  150.8087  146.2752  160.0648 H   0  0  0  0  0  0  0  0  0  0  0  0
  153.0216  144.8480  160.7882 H   0  0  0  0  0  0  0  0  0  0  0  0
  151.4186  144.2072  161.1567 H   0  0  0  0  0  0  0  0  0  0  0  0
  149.6869  135.0361  153.9019 H   0  0  0  0  0  0  0  0  0  0  0  0
  151.0786  135.0204  154.9737 H   0  0  0  0  0  0  0  0  0  0  0  0
  150.6036  134.0311  157.3684 H   0  0  0  0  0  0  0  0  0  0  0  0
  149.5004  132.6610  157.4561 H   0  0  0  0  0  0  0  0  0  0  0  0
  152.1927  132.7063  156.0483 H   0  0  0  0  0  0  0  0  0  0  0  0
  151.6016  131.5332  157.2381 H   0  0  0  0  0  0  0  0  0  0  0  0
  149.2136  131.9565  153.9921 H   0  0  0  0  0  0  0  0  0  0  0  0
  150.7503  132.7928  153.8085 H   0  0  0  0  0  0  0  0  0  0  0  0
  1  2  1  0  0  0  0
  1 30  1  0  0  0  0
  1 31  1  0  0  0  0
  1 32  1  0  0  0  0
  2  3  1  0  0  0  0
  2 33  1  0  0  0  0
  2 34  1  0  0  0  0
  3 29  1  0  0  0  0
  3  4  1  0  0  0  0
  3 35  1  0  0  0  0
  4  5  1  0  0  0  0
  4 36  1  0  0  0  0
  4 37  1  0  0  0  0
  5  6  1  0  0  0  0
  5 23  1  0  0  0  0
  6 11  1  0  0  0  0
  6  7  2  0  0  0  0
  7  8  1  0  0  0  0
  8  9  2  0  0  0  0
  8 38  1  0  0  0  0
  9 10  1  0  0  0  0
 10 14  1  0  0  0  0
 10 11  2  0  0  0  0
 11 12  1  0  0  0  0
 12 13  2  0  0  0  0
 13 14  1  0  0  0  0
 13 39  1  0  0  0  0
 14 15  1  0  0  0  0
 15 16  1  0  0  0  0
 15 40  1  0  0  0  0
 15 41  1  0  0  0  0
 16 17  1  0  0  0  0
 16 18  1  0  0  0  0
 16 42  1  0  0  0  0
 17 43  1  0  0  0  0
 18 22  1  0  0  0  0
 18 19  1  0  0  0  0
 18 44  1  0  0  0  0
 19 20  1  0  0  0  0
 19 45  1  0  0  0  0
 19 46  1  0  0  0  0
 20 21  1  0  0  0  0
 20 47  1  0  0  0  0
 20 48  1  0  0  0  0
 21 22  1  0  0  0  0
 21 49  1  0  0  0  0
 21 50  1  0  0  0  0
 23 24  1  0  0  0  0
 23 51  1  0  0  0  0
 23 52  1  0  0  0  0
 24 28  1  0  0  0  0
 24 25  1  0  0  0  0
 24 29  1  0  0  0  0
 25 26  1  0  0  0  0
 25 53  1  0  0  0  0
 25 54  1  0  0  0  0
 26 27  1  0  0  0  0
 26 55  1  0  0  0  0
 26 56  1  0  0  0  0
 27 28  1  0  0  0  0
 28 57  1  0  0  0  0
 28 58  1  0  0  0  0
M  END
> <s_m_source_file>
AV-unprocessed.smi

> <i_m_source_file_index>
229

> <i_lp_mmshare_version>
43012

> <i_f3d_flags>
0

> <s_epik_input>
W0NIMl0xT1tDSDJdW0NIMl1bQ0BdMTJbQ0gyXU4oW0NIMl1bQ0BIXShPMilbQ0gyXVtDSDNdKWMobltjSF1uMyljKGMzNCluW2NIXW40W0NIMl1bQ0BIXShbT0hdKVtDQEBIXTVbQ0gyXVtDSDJdW0NIMl1PNQ==

> <s_epik_cmdline>
J2VwaWtfcHl0aG9uJywgJy1waCcsICc3LjAnLCAnLXRuJywgJzgnLCAnLW1hJywgJzIwMCcsICctbWV0YWxfYmluZGluZycsICctaW1hZScsICc8aW5maWxlLm1hZT4nLCAnLW9tYWUnLCAnPG91dGZpbGUubWFlPic=

> <r_lp_tautomer_probability>
1

> <r_epik_Ionization_Penalty>
0.00318402

> <r_epik_Ionization_Penalty_Charging>
0

> <r_epik_Ionization_Penalty_Neutral>
0.00318402

> <r_epik_State_Penalty>
0.00215642

> <r_epik_Charging_Adjusted_Penalty>
0.00215642

> <i_epik_Tot_Q>
0

> <i_epik_Tot_abs_Q>
0

> <r_epik_Metal_State_Penalty>
-0

> <b_epik_Metal_Only>
0

> <s_lp_Force_Field>
OPLS_2005

> <r_lp_Energy>
55.431

> <b_lp_Chiralities_Consistent>
1

> <s_lp_Variant>
AV-unprocessed.smi:229-13

> <Gold.Version>
5.8.1

> <Gold.Id.Protein>
6NUR|6NUR_protein|mol2

> <Gold.PLP.Fitness>
44.3016

> <Gold.PLP.PLP>
-38.0554

> <Gold.PLP.part.hbond>
-2.0000

> <Gold.PLP.part.metal>
0.0000

> <Gold.PLP.part.buried>
-7.7998

> <Gold.PLP.part.nonpolar>
-29.9258

> <Gold.PLP.part.repulsive>
0.8405

> <Gold.PLP.ligand.clash>
0.0000

> <Gold.PLP.ligand.torsion>
0.4834

> <Gold.PLP.Chemscore.Hbond>
1.2940

> <Gold.PLP.Chemscore.CHOScore>
1.0000

> <Gold.PLP.Chemscore.Metal>
0.0000

> <Gold.Chemscore.Hbonds>
donor molecule, donor type, donor heavy atom, donor atom, acceptor molecule, acceptor atom, score
      L1  H    17    43       P1  8028  1.00
      P1  H  7989  7998       L1     9  0.40
      L1  C     8    38       P1  7957  1.00

> <Gold.PLP.Chemscore.Internal.Correction>
0.3311

> <Gold.Rescore>
     Score         DG    S(hbond)    S(metal)    S(lipo)     H(rot)  DE(clash)    DE(int)     intcor
     12.34     -13.25       1.03        0.00      90.75       2.46       0.53       0.39       ----

> <Gold.Chemscore.Fitness>
12.3377

> <Gold.Chemscore.DG>
-13.2542

> <Gold.Chemscore.ZeroCoef>
-5.4800

> <Gold.Chemscore.Hbond>
1.0334

> <Gold.Chemscore.Metal>
0.0000

> <Gold.Chemscore.Lipo>
90.7508

> <Gold.Chemscore.Internal_Hbond>
0.0000

> <Gold.Chemscore.DEClash>
0.5272

> <Gold.Chemscore.DEInternal>
0.3893

> <Gold.Chemscore.Rot>
2.4591

> <Gold.Chemscore.Internal.Correction>
   9.000000E+99

> <Gold.Chemscore.Hbonds>
donor molecule, donor type, donor heavy atom, donor atom, acceptor molecule, acceptor atom, score
      L1  H    17    43       P1  8028  0.95
      P1  H  7989  7998       L1     9  0.01

> <Gold.Chemscore.Hbond.Weighted>
-3.4516

> <Gold.Chemscore.Metal.Weighted>
-0.0000

> <Gold.Chemscore.Lipo.Weighted>
-10.6178

> <Gold.Chemscore.Internal_Hbond.Weighted>
0.0000

> <Gold.Chemscore.DEClash.Weighted>
0.5272

> <Gold.Chemscore.DEInternal.Weighted>
0.3893

> <Gold.Chemscore.Rot.Weighted>
6.2953

> <Gold.Chemscore.Internal.Correction.Weighted>
   9.000000E+99

> <Gold.Protein.RotatedTorsions>
[ 6907 6896 6895 6894 ] final  145.93 input  -60.11 | X-H torsion
[ 7974 7965 7964 7962 ] final   95.45 input  175.53 | X-H torsion
[ 8008 7997 7996 7995 ] final   35.54 input   59.86 | X-H torsion
[ 10167 10162 10161 10158 ] final  107.95 input  -65.29 | X-H torsion
[ 10718 10713 10712 10709 ] final  169.72 input   66.30 | X-H torsion
[ 10763 10752 10751 10750 ] final  -50.47 input  -60.55 | X-H torsion
[ 11005 11000 10999 10996 ] final -139.92 input  -57.11 | X-H torsion

> <Gold.Protein.ActiveResidues>
 VAL166  LYS551  ARG553  GLY616  TRP617  ASP618  TYR619  PRO620  LYS621  CYS622 
 ASP623  PHE694  ASN695  SER759  ASP760  ASP761  ALA762  ILE779  LEU786  VAL792 
 PHE793  MET794  SER795  GLU796  ALA797  LYS798  CYS799  TRP800  GLU811  SER814 

> <Gold.Protein.RotatedAtoms>
  152.1746  133.4666  159.4926 H   0  0  0  0  0  0  0  0  0  0  0  0  # atno 6907 bound_to 6896
  150.6925  134.1910  159.4294 H   0  0  0  0  0  0  0  0  0  0  0  0  # atno 6908 bound_to 6896
  151.9819  135.0024  160.0608 H   0  0  0  0  0  0  0  0  0  0  0  0  # atno 6909 bound_to 6896
  145.4520  139.2292  143.3034 H   0  0  0  0  0  0  0  0  0  0  0  0  # atno 7974 bound_to 7965
  155.1728  140.3293  155.4389 H   0  0  0  0  0  0  0  0  0  0  0  0  # atno 8008 bound_to 7997
  156.2504  140.1940  156.6781 H   0  0  0  0  0  0  0  0  0  0  0  0  # atno 8009 bound_to 7997
  154.6325  140.0580  156.9736 H   0  0  0  0  0  0  0  0  0  0  0  0  # atno 8010 bound_to 7997
  139.6885  144.7110  151.1390 H   0  0  0  0  0  0  0  0  0  0  0  0  # atno 10167 bound_to 10162
  157.0185  131.0225  151.2782 H   0  0  0  0  0  0  0  0  0  0  0  0  # atno 10718 bound_to 10713
  154.1109  135.6549  153.4885 H   0  0  0  0  0  0  0  0  0  0  0  0  # atno 10763 bound_to 10752
  153.0257  135.5247  154.7192 H   0  0  0  0  0  0  0  0  0  0  0  0  # atno 10764 bound_to 10752
  154.6372  135.2983  155.0116 H   0  0  0  0  0  0  0  0  0  0  0  0  # atno 10765 bound_to 10752
  140.8473  134.2328  157.4779 H   0  0  0  0  0  0  0  0  0  0  0  0  # atno 11005 bound_to 11000
  146.2499  140.5280  142.8898 LP  0  0  0  0  0  0  0  0  0  0  0  0  # atno 17320 bound_to 7965
  144.8056  140.6293  143.6449 LP  0  0  0  0  0  0  0  0  0  0  0  0  # atno 17321 bound_to 7965
  140.7675  143.5594  150.9116 LP  0  0  0  0  0  0  0  0  0  0  0  0  # atno 17342 bound_to 10162
  139.9270  143.6538  152.3085 LP  0  0  0  0  0  0  0  0  0  0  0  0  # atno 17343 bound_to 10162
  157.5267  130.8032  149.7870 LP  0  0  0  0  0  0  0  0  0  0  0  0  # atno 17370 bound_to 10713
  156.0110  130.3833  150.2264 LP  0  0  0  0  0  0  0  0  0  0  0  0  # atno 17371 bound_to 10713
  139.8703  134.9666  156.4567 LP  0  0  0  0  0  0  0  0  0  0  0  0  # atno 17394 bound_to 11000
  140.8829  133.7905  155.9486 LP  0  0  0  0  0  0  0  0  0  0  0  0  # atno 17395 bound_to 11000

$$$$
