AV-unprocessed.smi:587|AV-procd|sdf|3002|dock7
  -GOLD-   2262023513D 1   1.00000     0.00000
 Structure written by MMmdl.
 46 48  0  0  0  0  0  0  0  0  1 V2000
  150.0062  130.8910  154.0810 C   0  0  0  0  0  0  0  0  0  0  0  0
  149.1131  132.0147  153.8901 N   0  0  0  0  0  0  0  0  0  0  0  0
  148.1158  132.0750  152.9192 C   0  0  0  0  0  0  0  0  0  0  0  0
  147.9906  131.0129  152.0390 N   0  0  0  0  0  0  0  0  0  0  0  0
  147.3006  133.1590  152.7968 C   0  0  0  0  0  0  0  0  0  0  0  0
  146.2918  133.2603  151.8375 N   0  0  0  0  0  0  0  0  0  0  0  0
  144.8679  133.1661  152.1567 C   0  0  0  0  0  0  0  0  0  0  0  0
  144.1869  132.0293  151.3712 C   0  0  0  0  0  0  0  0  0  0  0  0
  144.4504  132.1655  149.8636 C   0  0  0  0  0  0  0  0  0  0  0  0
  145.9587  132.2791  149.5946 C   0  0  0  0  0  0  0  0  0  0  0  0
  146.5717  133.4279  150.4123 C   0  0  0  0  0  0  0  0  0  0  0  0
  147.4467  134.3079  153.7002 C   0  0  0  0  0  0  0  0  0  0  0  0
  146.7269  135.3087  153.6506 O   0  0  0  0  0  0  0  0  0  0  0  0
  148.4823  134.2251  154.6578 N   0  0  0  0  0  0  0  0  0  0  0  0
  148.7107  135.3769  155.5603 C   0  0  0  0  0  0  0  0  0  0  0  0
  150.1010  136.0131  155.4027 C   0  0  0  0  0  0  0  0  0  0  0  0
  151.0341  135.3847  154.8999 O   0  0  0  0  0  0  0  0  0  0  0  0
  150.2166  137.2745  155.8420 N   0  0  0  0  0  0  0  0  0  0  0  0
  151.4026  138.0663  155.7842 C   0  0  0  0  0  0  0  0  0  0  0  0
  151.3207  139.4124  155.0979 C   0  0  0  0  0  0  0  0  0  0  0  0
  152.0388  138.2742  154.4268 C   0  0  0  0  0  0  0  0  0  0  0  0
  149.3333  133.1062  154.7605 C   0  0  0  0  0  0  0  0  0  0  0  0
  150.2478  133.0882  155.5903 O   0  0  0  0  0  0  0  0  0  0  0  0
  149.6679  130.0365  153.4985 H   0  0  0  0  0  0  0  0  0  0  0  0
  149.9911  130.6218  155.1388 H   0  0  0  0  0  0  0  0  0  0  0  0
  150.9985  131.2092  153.7569 H   0  0  0  0  0  0  0  0  0  0  0  0
  148.6034  130.2120  152.0942 H   0  0  0  0  0  0  0  0  0  0  0  0
  147.2090  130.9369  151.4043 H   0  0  0  0  0  0  0  0  0  0  0  0
  144.7305  133.0150  153.2281 H   0  0  0  0  0  0  0  0  0  0  0  0
  144.3957  134.1201  151.9183 H   0  0  0  0  0  0  0  0  0  0  0  0
  144.5562  131.0640  151.7168 H   0  0  0  0  0  0  0  0  0  0  0  0
  143.1141  132.0335  151.5649 H   0  0  0  0  0  0  0  0  0  0  0  0
  144.0343  131.3113  149.3286 H   0  0  0  0  0  0  0  0  0  0  0  0
  143.9428  133.0520  149.4813 H   0  0  0  0  0  0  0  0  0  0  0  0
  146.4506  131.3415  149.8570 H   0  0  0  0  0  0  0  0  0  0  0  0
  146.1388  132.4389  148.5313 H   0  0  0  0  0  0  0  0  0  0  0  0
  146.1702  134.3869  150.0816 H   0  0  0  0  0  0  0  0  0  0  0  0
  147.6481  133.4633  150.2388 H   0  0  0  0  0  0  0  0  0  0  0  0
  147.9580  136.1515  155.4064 H   0  0  0  0  0  0  0  0  0  0  0  0
  148.5769  135.0896  156.6044 H   0  0  0  0  0  0  0  0  0  0  0  0
  149.3986  137.7118  156.2413 H   0  0  0  0  0  0  0  0  0  0  0  0
  152.0918  137.9966  156.6247 H   0  0  0  0  0  0  0  0  0  0  0  0
  150.3609  139.7157  154.6836 H   0  0  0  0  0  0  0  0  0  0  0  0
  151.9268  140.2191  155.5056 H   0  0  0  0  0  0  0  0  0  0  0  0
  153.1252  138.3216  154.3834 H   0  0  0  0  0  0  0  0  0  0  0  0
  151.5582  137.8189  153.5628 H   0  0  0  0  0  0  0  0  0  0  0  0
  1  2  1  0  0  0  0
  1 24  1  0  0  0  0
  1 25  1  0  0  0  0
  1 26  1  0  0  0  0
  2 22  1  0  0  0  0
  2  3  1  0  0  0  0
  3  4  1  0  0  0  0
  3  5  2  0  0  0  0
  4 27  1  0  0  0  0
  4 28  1  0  0  0  0
  5  6  1  0  0  0  0
  5 12  1  0  0  0  0
  6 11  1  0  0  0  0
  6  7  1  0  0  0  0
  7  8  1  0  0  0  0
  7 29  1  0  0  0  0
  7 30  1  0  0  0  0
  8  9  1  0  0  0  0
  8 31  1  0  0  0  0
  8 32  1  0  0  0  0
  9 10  1  0  0  0  0
  9 33  1  0  0  0  0
  9 34  1  0  0  0  0
 10 11  1  0  0  0  0
 10 35  1  0  0  0  0
 10 36  1  0  0  0  0
 11 37  1  0  0  0  0
 11 38  1  0  0  0  0
 12 13  2  0  0  0  0
 12 14  1  0  0  0  0
 14 15  1  0  0  0  0
 14 22  1  0  0  0  0
 15 16  1  0  0  0  0
 15 39  1  0  0  0  0
 15 40  1  0  0  0  0
 16 17  2  0  0  0  0
 16 18  1  0  0  0  0
 18 19  1  0  0  0  0
 18 41  1  0  0  0  0
 19 21  1  0  0  0  0
 19 20  1  0  0  0  0
 19 42  1  0  0  0  0
 20 21  1  0  0  0  0
 20 43  1  0  0  0  0
 20 44  1  0  0  0  0
 21 45  1  0  0  0  0
 21 46  1  0  0  0  0
 22 23  2  0  0  0  0
M  END
> <s_m_source_file>
AV-unprocessed.smi

> <i_m_source_file_index>
587

> <i_lp_mmshare_version>
43012

> <i_f3d_flags>
0

> <s_epik_input>
W0NIMl0xW0NIMl1bQ0gyXVtDSDJdW0NIMl1OMWMoYyhbTkgyXSluMltDSDNdKWMoPU8pbihjMj1PKVtDSDJdQyg9TylbTkhdW0NIXTNbQ0gyXVtDSDJdMw==

> <s_epik_cmdline>
J2VwaWtfcHl0aG9uJywgJy1waCcsICc3LjAnLCAnLXRuJywgJzgnLCAnLW1hJywgJzIwMCcsICctbWV0YWxfYmluZGluZycsICctaW1hZScsICc8aW5maWxlLm1hZT4nLCAnLW9tYWUnLCAnPG91dGZpbGUubWFlPic=

> <r_lp_tautomer_probability>
0.999881

> <r_epik_Ionization_Penalty>
0.00852669

> <r_epik_Ionization_Penalty_Charging>
2.6249e-08

> <r_epik_Ionization_Penalty_Neutral>
0.00852666

> <r_epik_State_Penalty>
0.00667057

> <r_epik_Charging_Adjusted_Penalty>
0.00667059

> <i_epik_Tot_Q>
0

> <i_epik_Tot_abs_Q>
0

> <r_epik_Metal_State_Penalty>
0.00667057

> <b_epik_Metal_Only>
0

> <s_lp_Force_Field>
OPLS_2005

> <r_lp_Energy>
38.4775

> <b_lp_Chiralities_Consistent>
1

> <s_lp_Variant>
AV-unprocessed.smi:587-1

> <Gold.Version>
5.8.1

> <Gold.Id.Protein>
6NUR|6NUR_protein|mol2

> <Gold.PLP.Fitness>
40.3930

> <Gold.PLP.PLP>
-38.8822

> <Gold.PLP.part.hbond>
-1.3375

> <Gold.PLP.part.metal>
0.0000

> <Gold.PLP.part.buried>
-2.3663

> <Gold.PLP.part.nonpolar>
-35.1810

> <Gold.PLP.part.repulsive>
1.1513

> <Gold.PLP.ligand.clash>
0.0000

> <Gold.PLP.ligand.torsion>
1.6653

> <Gold.PLP.Chemscore.Hbond>
0.9920

> <Gold.PLP.Chemscore.CHOScore>
0.0000

> <Gold.PLP.Chemscore.Metal>
0.0000

> <Gold.Chemscore.Hbonds>
donor molecule, donor type, donor heavy atom, donor atom, acceptor molecule, acceptor atom, score
      P1  H 10752 10765       L1    17  1.00

> <Gold.PLP.Chemscore.Internal.Correction>
1.8654

> <Gold.Rescore>
     Score         DG    S(hbond)    S(metal)    S(lipo)     H(rot)  DE(clash)    DE(int)     intcor
      8.11     -13.52       0.90        0.00      77.05       1.56       0.05       5.36       ----

> <Gold.Chemscore.Fitness>
8.1079

> <Gold.Chemscore.DG>
-13.5172

> <Gold.Chemscore.ZeroCoef>
-5.4800

> <Gold.Chemscore.Hbond>
0.9013

> <Gold.Chemscore.Metal>
0.0000

> <Gold.Chemscore.Lipo>
77.0481

> <Gold.Chemscore.Internal_Hbond>
0.0000

> <Gold.Chemscore.DEClash>
0.0478

> <Gold.Chemscore.DEInternal>
5.3615

> <Gold.Chemscore.Rot>
1.5577

> <Gold.Chemscore.Internal.Correction>
   9.000000E+99

> <Gold.Chemscore.Hbonds>
donor molecule, donor type, donor heavy atom, donor atom, acceptor molecule, acceptor atom, score
      P1  H 10752 10765       L1    17  0.95

> <Gold.Chemscore.Hbond.Weighted>
-3.0103

> <Gold.Chemscore.Metal.Weighted>
-0.0000

> <Gold.Chemscore.Lipo.Weighted>
-9.0146

> <Gold.Chemscore.Internal_Hbond.Weighted>
0.0000

> <Gold.Chemscore.DEClash.Weighted>
0.0478

> <Gold.Chemscore.DEInternal.Weighted>
5.3615

> <Gold.Chemscore.Rot.Weighted>
3.9877

> <Gold.Chemscore.Internal.Correction.Weighted>
   9.000000E+99

> <Gold.Protein.RotatedTorsions>
[ 6907 6896 6895 6894 ] final -163.56 input  -60.11 | X-H torsion
[ 7974 7965 7964 7962 ] final   78.30 input  175.53 | X-H torsion
[ 8008 7997 7996 7995 ] final  100.68 input   59.86 | X-H torsion
[ 10167 10162 10161 10158 ] final   -6.72 input  -65.29 | X-H torsion
[ 10718 10713 10712 10709 ] final -169.46 input   66.30 | X-H torsion
[ 10763 10752 10751 10750 ] final -175.83 input  -60.55 | X-H torsion
[ 11005 11000 10999 10996 ] final  -26.38 input  -57.11 | X-H torsion

> <Gold.Protein.ActiveResidues>
 VAL166  LYS551  ARG553  GLY616  TRP617  ASP618  TYR619  PRO620  LYS621  CYS622 
 ASP623  PHE694  ASN695  SER759  ASP760  ASP761  ALA762  ILE779  LEU786  VAL792 
 PHE793  MET794  SER795  GLU796  ALA797  LYS798  CYS799  TRP800  GLU811  SER814 

> <Gold.Protein.RotatedAtoms>
  151.3980  133.3767  159.2728 H   0  0  0  0  0  0  0  0  0  0  0  0  # atno 6907 bound_to 6896
  150.9455  134.8861  159.7650 H   0  0  0  0  0  0  0  0  0  0  0  0  # atno 6908 bound_to 6896
  152.5090  134.3933  159.9443 H   0  0  0  0  0  0  0  0  0  0  0  0  # atno 6909 bound_to 6896
  145.6790  139.2518  143.1825 H   0  0  0  0  0  0  0  0  0  0  0  0  # atno 7974 bound_to 7965
  156.1227  140.3209  155.8231 H   0  0  0  0  0  0  0  0  0  0  0  0  # atno 8008 bound_to 7997
  155.4476  140.0530  157.3021 H   0  0  0  0  0  0  0  0  0  0  0  0  # atno 8009 bound_to 7997
  154.4839  140.2064  155.9713 H   0  0  0  0  0  0  0  0  0  0  0  0  # atno 8010 bound_to 7997
  140.7006  143.6161  150.8657 H   0  0  0  0  0  0  0  0  0  0  0  0  # atno 10167 bound_to 10162
  156.7119  130.9237  151.3090 H   0  0  0  0  0  0  0  0  0  0  0  0  # atno 10718 bound_to 10713
  154.5796  135.2835  155.0746 H   0  0  0  0  0  0  0  0  0  0  0  0  # atno 10763 bound_to 10752
  154.2087  135.6412  153.5112 H   0  0  0  0  0  0  0  0  0  0  0  0  # atno 10764 bound_to 10752
  153.0084  135.5486  154.6446 H   0  0  0  0  0  0  0  0  0  0  0  0  # atno 10765 bound_to 10752
  140.9024  133.7515  156.0561 H   0  0  0  0  0  0  0  0  0  0  0  0  # atno 11005 bound_to 11000
  146.0981  140.7577  142.9562 LP  0  0  0  0  0  0  0  0  0  0  0  0  # atno 17320 bound_to 7965
  144.7032  140.3743  143.7139 LP  0  0  0  0  0  0  0  0  0  0  0  0  # atno 17321 bound_to 7965
  139.9883  143.5875  152.2919 LP  0  0  0  0  0  0  0  0  0  0  0  0  # atno 17342 bound_to 10162
  139.6521  144.7661  151.2128 LP  0  0  0  0  0  0  0  0  0  0  0  0  # atno 17343 bound_to 10162
  157.6932  130.9255  150.0572 LP  0  0  0  0  0  0  0  0  0  0  0  0  # atno 17370 bound_to 10713
  156.1655  130.3645  149.9239 LP  0  0  0  0  0  0  0  0  0  0  0  0  # atno 17371 bound_to 10713
  140.8214  134.3285  157.5380 LP  0  0  0  0  0  0  0  0  0  0  0  0  # atno 17394 bound_to 11000
  139.8744  134.9311  156.3520 LP  0  0  0  0  0  0  0  0  0  0  0  0  # atno 17395 bound_to 11000

$$$$
