AV-unprocessed.smi:1215|AV-procd|sdf|5094|dock1
  -GOLD-   22720 4143D 1   1.00000     0.00000
 Structure written by MMmdl.
 46 47  0  0  0  0  0  0  0  0  2 V2000
  152.0908  142.1714  158.6068 C   0  0  0  0  0  0  0  0  0  0  0  0
  151.0047  142.6106  157.6176 C   0  0  0  0  0  0  0  0  0  0  0  0
  150.7566  141.5995  156.6090 N   0  0  0  0  0  0  0  0  0  0  0  0
  149.7870  141.5959  155.6263 C   0  0  0  0  0  0  0  0  0  0  0  0
  149.9647  140.4303  154.9359 C   0  0  0  0  0  0  0  0  0  0  0  0
  149.2419  139.9229  153.8265 N   0  0  0  0  0  0  0  0  0  0  0  0
  147.9809  139.4611  153.8197 C   0  0  0  0  0  0  0  0  0  0  0  0
  147.2395  139.4086  154.8013 O   0  0  0  0  0  0  0  0  0  0  0  0
  147.6117  139.0600  152.5949 N   0  0  0  0  0  0  0  0  0  0  0  0
  146.3064  138.4999  152.2621 C   0  0  0  0  0  0  0  0  0  0  0  0
  145.9478  137.3136  153.1828 C   0  0  0  0  0  0  0  0  0  0  0  0
  146.2176  135.9822  152.5656 N   0  3  2  0  0  0  0  0  0  0  0  0
  145.2566  135.6762  151.4655 C   0  0  0  0  0  0  0  0  0  0  0  0
  145.6013  134.3673  150.7410 C   0  0  0  0  0  0  0  0  0  0  0  0
  145.6435  133.2017  151.7279 C   0  0  0  0  0  0  0  0  0  0  0  0
  146.6362  133.5251  152.8461 C   0  0  0  0  0  0  0  0  0  0  0  0
  146.2980  134.8557  153.5550 C   0  0  1  0  0  0  0  0  0  0  0  0
  147.3371  135.0927  154.6716 C   0  0  0  0  0  0  0  0  0  0  0  0
  151.0590  139.7750  155.5584 C   0  0  0  0  0  0  0  0  0  0  0  0
  151.5330  140.4884  156.5685 N   0  0  0  0  0  0  0  0  0  0  0  0
  152.2531  142.9350  159.3676 H   0  0  0  0  0  0  0  0  0  0  0  0
  153.0408  141.9990  158.1000 H   0  0  0  0  0  0  0  0  0  0  0  0
  151.8093  141.2489  159.1156 H   0  0  0  0  0  0  0  0  0  0  0  0
  150.0725  142.8102  158.1474 H   0  0  0  0  0  0  0  0  0  0  0  0
  151.2932  143.5390  157.1226 H   0  0  0  0  0  0  0  0  0  0  0  0
  149.0800  142.4047  155.5168 H   0  0  0  0  0  0  0  0  0  0  0  0
  149.7380  139.9123  152.9473 H   0  0  0  0  0  0  0  0  0  0  0  0
  148.2833  139.1366  151.8446 H   0  0  0  0  0  0  0  0  0  0  0  0
  145.5890  139.3124  152.3636 H   0  0  0  0  0  0  0  0  0  0  0  0
  146.2886  138.1926  151.2150 H   0  0  0  0  0  0  0  0  0  0  0  0
  146.5399  137.4347  154.0861 H   0  0  0  0  0  0  0  0  0  0  0  0
  144.9028  137.3698  153.4914 H   0  0  0  0  0  0  0  0  0  0  0  0
  144.2453  135.6223  151.8719 H   0  0  0  0  0  0  0  0  0  0  0  0
  145.2536  136.4697  150.7208 H   0  0  0  0  0  0  0  0  0  0  0  0
  144.8651  134.1677  149.9618 H   0  0  0  0  0  0  0  0  0  0  0  0
  146.5652  134.4642  150.2396 H   0  0  0  0  0  0  0  0  0  0  0  0
  144.6511  133.0293  152.1468 H   0  0  0  0  0  0  0  0  0  0  0  0
  145.9339  132.2830  151.2172 H   0  0  0  0  0  0  0  0  0  0  0  0
  146.6408  132.7060  153.5665 H   0  0  0  0  0  0  0  0  0  0  0  0
  147.6446  133.5741  152.4318 H   0  0  0  0  0  0  0  0  0  0  0  0
  145.3180  134.7512  154.0237 H   0  0  0  0  0  0  0  0  0  0  0  0
  147.4943  134.1855  155.2560 H   0  0  0  0  0  0  0  0  0  0  0  0
  147.0179  135.8524  155.3841 H   0  0  0  0  0  0  0  0  0  0  0  0
  148.3034  135.3891  154.2620 H   0  0  0  0  0  0  0  0  0  0  0  0
  151.5161  138.8267  155.3175 H   0  0  0  0  0  0  0  0  0  0  0  0
  147.1329  136.0465  152.1431 H   0  0  0  0  0  0  0  0  0  0  0  0
  1  2  1  0  0  0  0
  1 21  1  0  0  0  0
  1 22  1  0  0  0  0
  1 23  1  0  0  0  0
  2  3  1  0  0  0  0
  2 24  1  0  0  0  0
  2 25  1  0  0  0  0
  3 20  1  0  0  0  0
  3  4  1  0  0  0  0
  4  5  2  0  0  0  0
  4 26  1  0  0  0  0
  5  6  1  0  0  0  0
  5 19  1  0  0  0  0
  6  7  1  0  0  0  0
  6 27  1  0  0  0  0
  7  8  2  0  0  0  0
  7  9  1  0  0  0  0
  9 10  1  0  0  0  0
  9 28  1  0  0  0  0
 10 11  1  0  0  0  0
 10 29  1  0  0  0  0
 10 30  1  0  0  0  0
 11 12  1  0  0  0  0
 11 31  1  0  0  0  0
 11 32  1  0  0  0  0
 12 17  1  0  0  0  0
 12 13  1  0  0  0  0
 12 46  1  0  0  0  0
 13 14  1  0  0  0  0
 13 33  1  0  0  0  0
 13 34  1  0  0  0  0
 14 15  1  0  0  0  0
 14 35  1  0  0  0  0
 14 36  1  0  0  0  0
 15 16  1  0  0  0  0
 15 37  1  0  0  0  0
 15 38  1  0  0  0  0
 16 17  1  0  0  0  0
 16 39  1  0  0  0  0
 16 40  1  0  0  0  0
 17 18  1  0  0  0  0
 17 41  1  0  0  0  0
 18 42  1  0  0  0  0
 18 43  1  0  0  0  0
 18 44  1  0  0  0  0
 19 20  2  0  0  0  0
 19 45  1  0  0  0  0
M  CHG  1  12   1
M  END
> <s_m_source_file>
AV-unprocessed.smi

> <i_m_source_file_index>
1215

> <i_lp_mmshare_version>
43012

> <i_f3d_flags>
0

> <s_epik_input>
W0NIM11bQ0gyXW4xW2NIXWMoW2NIXW4xKVtOSF1DKD1PKVtOSF1bQ0gyXVtDSDJdTjJbQ0gyXVtDSDJdW0NIMl1bQ0gyXVtDQEhdMltDSDNd

> <s_epik_cmdline>
J2VwaWtfcHl0aG9uJywgJy1waCcsICc3LjAnLCAnLXRuJywgJzgnLCAnLW1hJywgJzIwMCcsICctbWV0YWxfYmluZGluZycsICctaW1hZScsICc8aW5maWxlLm1hZT4nLCAnLW9tYWUnLCAnPG91dGZpbGUubWFlPic=

> <r_lp_tautomer_probability>
1

> <r_epik_Ionization_Penalty>
0.00247187

> <r_epik_Ionization_Penalty_Charging>
0.00232067

> <r_epik_Ionization_Penalty_Neutral>
0.000151201

> <r_epik_State_Penalty>
0.00160128

> <r_epik_Charging_Adjusted_Penalty>
0.00392194

> <i_epik_Tot_Q>
1

> <i_epik_Tot_abs_Q>
1

> <r_epik_Metal_State_Penalty>
-0

> <b_epik_Metal_Only>
0

> <s_lp_Force_Field>
OPLS_2005

> <r_lp_Energy>
23.5711

> <b_lp_Chiralities_Consistent>
1

> <s_lp_Variant>
AV-unprocessed.smi:1215-1

> <Gold.Version>
5.8.1

> <Gold.Id.Protein>
6NUR|6NUR_protein|mol2

> <Gold.PLP.Fitness>
47.5081

> <Gold.PLP.PLP>
-35.2589

> <Gold.PLP.part.hbond>
-3.6735

> <Gold.PLP.part.metal>
0.0000

> <Gold.PLP.part.buried>
-2.4416

> <Gold.PLP.part.nonpolar>
-29.4668

> <Gold.PLP.part.repulsive>
0.3102

> <Gold.PLP.ligand.clash>
0.0000

> <Gold.PLP.ligand.torsion>
1.0969

> <Gold.PLP.Chemscore.Hbond>
3.7920

> <Gold.PLP.Chemscore.CHOScore>
1.0000

> <Gold.PLP.Chemscore.Metal>
0.0000

> <Gold.Chemscore.Hbonds>
donor molecule, donor type, donor heavy atom, donor atom, acceptor molecule, acceptor atom, score
      L1  H     6    27       P1  7957  0.93
      L1  H     9    28       P1  7957  0.98
      L1  H    12    46       P1  7948  2.00
      L1  C     4    26       P1  8028  1.00

> <Gold.PLP.Chemscore.Internal.Correction>
0.0671

> <Gold.Rescore>
     Score         DG    S(hbond)    S(metal)    S(lipo)     H(rot)  DE(clash)    DE(int)     intcor
     17.65     -20.07       2.92        0.00      76.21       1.59       0.15       2.27       ----

> <Gold.Chemscore.Fitness>
17.6459

> <Gold.Chemscore.DG>
-20.0724

> <Gold.Chemscore.ZeroCoef>
-5.4800

> <Gold.Chemscore.Hbond>
2.9186

> <Gold.Chemscore.Metal>
0.0000

> <Gold.Chemscore.Lipo>
76.2130

> <Gold.Chemscore.Internal_Hbond>
0.0000

> <Gold.Chemscore.DEClash>
0.1550

> <Gold.Chemscore.DEInternal>
2.2716

> <Gold.Chemscore.Rot>
1.5909

> <Gold.Chemscore.Internal.Correction>
   9.000000E+99

> <Gold.Chemscore.Hbonds>
donor molecule, donor type, donor heavy atom, donor atom, acceptor molecule, acceptor atom, score
      L1  H     6    27       P1  7957  0.91
      L1  H     9    28       P1  7957  0.90
      L1  H    12    46       P1  7948  1.00

> <Gold.Chemscore.Hbond.Weighted>
-9.7483

> <Gold.Chemscore.Metal.Weighted>
-0.0000

> <Gold.Chemscore.Lipo.Weighted>
-8.9169

> <Gold.Chemscore.Internal_Hbond.Weighted>
0.0000

> <Gold.Chemscore.DEClash.Weighted>
0.1550

> <Gold.Chemscore.DEInternal.Weighted>
2.2716

> <Gold.Chemscore.Rot.Weighted>
4.0728

> <Gold.Chemscore.Internal.Correction.Weighted>
   9.000000E+99

> <Gold.Protein.RotatedTorsions>
[ 6907 6896 6895 6894 ] final  -74.23 input  -60.11 | X-H torsion
[ 7974 7965 7964 7962 ] final -139.71 input  175.53 | X-H torsion
[ 8008 7997 7996 7995 ] final  174.66 input   59.86 | X-H torsion
[ 10167 10162 10161 10158 ] final   53.32 input  -65.29 | X-H torsion
[ 10718 10713 10712 10709 ] final   18.56 input   66.30 | X-H torsion
[ 10763 10752 10751 10750 ] final  -90.81 input  -60.55 | X-H torsion
[ 11005 11000 10999 10996 ] final  -93.07 input  -57.11 | X-H torsion

> <Gold.Protein.ActiveResidues>
 VAL166  LYS551  ARG553  GLY616  TRP617  ASP618  TYR619  PRO620  LYS621  CYS622 
 ASP623  PHE694  ASN695  SER759  ASP760  ASP761  ALA762  ILE779  LEU786  VAL792 
 PHE793  MET794  SER795  GLU796  ALA797  LYS798  CYS799  TRP800  GLU811  SER814 

> <Gold.Protein.RotatedAtoms>
  150.7101  134.4900  159.5510 H   0  0  0  0  0  0  0  0  0  0  0  0  # atno 6907 bound_to 6896
  152.2519  134.8121  160.0453 H   0  0  0  0  0  0  0  0  0  0  0  0  # atno 6908 bound_to 6896
  151.8865  133.3471  159.3820 H   0  0  0  0  0  0  0  0  0  0  0  0  # atno 6909 bound_to 6896
  144.8655  140.6286  143.5301 H   0  0  0  0  0  0  0  0  0  0  0  0  # atno 7974 bound_to 7965
  156.0951  140.1429  156.9541 H   0  0  0  0  0  0  0  0  0  0  0  0  # atno 8008 bound_to 7997
  154.4666  140.0924  156.7083 H   0  0  0  0  0  0  0  0  0  0  0  0  # atno 8009 bound_to 7997
  155.4854  140.3446  155.4348 H   0  0  0  0  0  0  0  0  0  0  0  0  # atno 8010 bound_to 7997
  140.2420  144.3573  150.6377 H   0  0  0  0  0  0  0  0  0  0  0  0  # atno 10167 bound_to 10162
  157.0981  130.6456  149.5865 H   0  0  0  0  0  0  0  0  0  0  0  0  # atno 10718 bound_to 10713
  154.6696  135.5291  153.8121 H   0  0  0  0  0  0  0  0  0  0  0  0  # atno 10763 bound_to 10752
  153.0493  135.6526  154.0745 H   0  0  0  0  0  0  0  0  0  0  0  0  # atno 10764 bound_to 10752
  154.0645  135.2959  155.3299 H   0  0  0  0  0  0  0  0  0  0  0  0  # atno 10765 bound_to 10752
  141.1506  133.7863  157.0108 H   0  0  0  0  0  0  0  0  0  0  0  0  # atno 11005 bound_to 11000
  145.4230  139.1561  143.4064 LP  0  0  0  0  0  0  0  0  0  0  0  0  # atno 17320 bound_to 7965
  146.2892  140.4341  142.8746 LP  0  0  0  0  0  0  0  0  0  0  0  0  # atno 17321 bound_to 7965
  140.6106  143.2169  151.6894 LP  0  0  0  0  0  0  0  0  0  0  0  0  # atno 17342 bound_to 10162
  139.5074  144.3648  152.0528 LP  0  0  0  0  0  0  0  0  0  0  0  0  # atno 17343 bound_to 10162
  155.9881  130.4922  150.7153 LP  0  0  0  0  0  0  0  0  0  0  0  0  # atno 17370 bound_to 10713
  157.4664  131.0888  151.0690 LP  0  0  0  0  0  0  0  0  0  0  0  0  # atno 17371 bound_to 10713
  140.0879  134.9610  157.1729 LP  0  0  0  0  0  0  0  0  0  0  0  0  # atno 17394 bound_to 11000
  140.3486  134.2623  155.7201 LP  0  0  0  0  0  0  0  0  0  0  0  0  # atno 17395 bound_to 11000

$$$$
