AV-unprocessed.smi:2039|AV-procd|sdf|8284|dock2
  -GOLD-   2272010553D 1   1.00000     0.00000
 Structure written by MMmdl.
 32 33  0  0  0  0  0  0  0  0  2 V2000
  151.4831  129.2767  155.5603 C   0  0  0  0  0  0  0  0  0  0  0  0
  150.8868  130.6019  155.2301 C   0  0  0  0  0  0  0  0  0  0  0  0
  151.3202  131.7440  155.7695 N   0  0  0  0  0  0  0  0  0  0  0  0
  150.6115  132.8431  155.3055 N   0  0  0  0  0  0  0  0  0  0  0  0
  149.6633  132.5194  154.4146 C   0  0  0  0  0  0  0  0  0  0  0  0
  148.8659  133.4366  153.8421 N   0  5  0  0  0  0  0  0  0  0  0  0
  147.7879  133.0410  153.1272 C   0  0  0  0  0  0  0  0  0  0  0  0
  147.1680  131.9839  153.2664 O   0  0  0  0  0  0  0  0  0  0  0  0
  147.4034  133.9261  152.1957 N   0  0  0  0  0  0  0  0  0  0  0  0
  146.2713  133.7808  151.2842 C   0  0  2  0  0  0  0  0  0  0  0  0
  144.9501  133.6726  152.0728 C   0  0  0  0  0  0  0  0  0  0  0  0
  143.7534  133.4442  151.1350 C   0  0  0  0  0  0  0  0  0  0  0  0
  143.9709  132.2070  150.2467 C   0  0  1  0  0  0  0  0  0  0  0  0
  142.8890  132.0745  149.3485 O   0  0  0  0  0  0  0  0  0  0  0  0
  145.2848  132.3177  149.4541 C   0  0  0  0  0  0  0  0  0  0  0  0
  146.4801  132.5409  150.3943 C   0  0  0  0  0  0  0  0  0  0  0  0
  149.5604  130.7883  154.0955 S   0  0  0  0  0  0  0  0  0  0  0  0
  152.4400  129.1617  155.0509 H   0  0  0  0  0  0  0  0  0  0  0  0
  150.8186  128.4724  155.2438 H   0  0  0  0  0  0  0  0  0  0  0  0
  151.6439  129.1928  156.6355 H   0  0  0  0  0  0  0  0  0  0  0  0
  147.9429  134.7757  152.1176 H   0  0  0  0  0  0  0  0  0  0  0  0
  146.2211  134.6552  150.6324 H   0  0  0  0  0  0  0  0  0  0  0  0
  145.0128  132.8497  152.7866 H   0  0  0  0  0  0  0  0  0  0  0  0
  144.7871  134.5772  152.6597 H   0  0  0  0  0  0  0  0  0  0  0  0
  142.8420  133.3292  151.7228 H   0  0  0  0  0  0  0  0  0  0  0  0
  143.6113  134.3286  150.5122 H   0  0  0  0  0  0  0  0  0  0  0  0
  143.9999  131.3135  150.8716 H   0  0  0  0  0  0  0  0  0  0  0  0
  142.3510  132.8487  149.4127 H   0  0  0  0  0  0  0  0  0  0  0  0
  145.4447  131.4155  148.8625 H   0  0  0  0  0  0  0  0  0  0  0  0
  145.2240  133.1460  148.7463 H   0  0  0  0  0  0  0  0  0  0  0  0
  147.3925  132.6519  149.8071 H   0  0  0  0  0  0  0  0  0  0  0  0
  146.6191  131.6562  151.0175 H   0  0  0  0  0  0  0  0  0  0  0  0
  1  2  1  0  0  0  0
  1 18  1  0  0  0  0
  1 19  1  0  0  0  0
  1 20  1  0  0  0  0
  2 17  1  0  0  0  0
  2  3  2  0  0  0  0
  3  4  1  0  0  0  0
  4  5  2  0  0  0  0
  5  6  1  0  0  0  0
  5 17  1  0  0  0  0
  6  7  1  0  0  0  0
  7  8  2  0  0  0  0
  7  9  1  0  0  0  0
  9 10  1  0  0  0  0
  9 21  1  0  0  0  0
 10 16  1  0  0  0  0
 10 11  1  0  0  0  0
 10 22  1  0  0  0  0
 11 12  1  0  0  0  0
 11 23  1  0  0  0  0
 11 24  1  0  0  0  0
 12 13  1  0  0  0  0
 12 25  1  0  0  0  0
 12 26  1  0  0  0  0
 13 14  1  0  0  0  0
 13 15  1  0  0  0  0
 13 27  1  0  0  0  0
 14 28  1  0  0  0  0
 15 16  1  0  0  0  0
 15 29  1  0  0  0  0
 15 30  1  0  0  0  0
 16 31  1  0  0  0  0
 16 32  1  0  0  0  0
M  CHG  1   6  -1
M  END
> <s_m_source_file>
AV-unprocessed.smi

> <i_m_source_file_index>
2039

> <i_lp_mmshare_version>
43012

> <i_f3d_flags>
0

> <s_epik_input>
W0NIM11jMW5uYyhzMSlbTkhdQyg9TylbTkhdW0NAQEhdMltDSDJdW0NIMl1bQ0BASF0oW09IXSlbQ0gyXVtDSDJdMg==

> <s_epik_cmdline>
J2VwaWtfcHl0aG9uJywgJy1waCcsICc3LjAnLCAnLXRuJywgJzgnLCAnLW1hJywgJzIwMCcsICctbWV0YWxfYmluZGluZycsICctaW1hZScsICc8aW5maWxlLm1hZT4nLCAnLW9tYWUnLCAnPG91dGZpbGUubWFlPic=

> <r_lp_tautomer_probability>
1

> <r_epik_Ionization_Penalty>
4.54927

> <r_epik_Ionization_Penalty_Charging>
4.39069

> <r_epik_Ionization_Penalty_Neutral>
0.158583

> <r_epik_State_Penalty>
4.39033

> <r_epik_Charging_Adjusted_Penalty>
8.78102

> <i_epik_Tot_Q>
-1

> <i_epik_Tot_abs_Q>
1

> <r_epik_Metal_State_Penalty>
0.767247

> <b_epik_Metal_Only>
1

> <s_lp_Force_Field>
OPLS_2005

> <r_lp_Energy>
5.24327

> <b_lp_Chiralities_Consistent>
1

> <s_lp_Variant>
AV-unprocessed.smi:2039-3

> <Gold.Version>
5.8.1

> <Gold.Id.Protein>
6NUR|6NUR_protein|mol2

> <Gold.PLP.Fitness>
40.7527

> <Gold.PLP.PLP>
-32.4261

> <Gold.PLP.part.hbond>
-3.9808

> <Gold.PLP.part.metal>
0.0000

> <Gold.PLP.part.buried>
-2.9667

> <Gold.PLP.part.nonpolar>
-24.7299

> <Gold.PLP.part.repulsive>
0.2898

> <Gold.PLP.ligand.clash>
0.0000

> <Gold.PLP.ligand.torsion>
0.1679

> <Gold.PLP.Chemscore.Hbond>
2.8850

> <Gold.PLP.Chemscore.CHOScore>
0.0000

> <Gold.PLP.Chemscore.Metal>
0.0000

> <Gold.Chemscore.Hbonds>
donor molecule, donor type, donor heavy atom, donor atom, acceptor molecule, acceptor atom, score
      L1  H     9    21       P1  7948  1.00
      L1  H    14    28       P1 10186  0.91
      P1  H 10785 10796       L1    14  0.96

> <Gold.PLP.Chemscore.Internal.Correction>
0.0074

> <Gold.Rescore>
     Score         DG    S(hbond)    S(metal)    S(lipo)     H(rot)  DE(clash)    DE(int)     intcor
     12.65     -16.14       2.14        0.00      62.60       1.49       0.01       3.48       ----

> <Gold.Chemscore.Fitness>
12.6487

> <Gold.Chemscore.DG>
-16.1369

> <Gold.Chemscore.ZeroCoef>
-5.4800

> <Gold.Chemscore.Hbond>
2.1377

> <Gold.Chemscore.Metal>
0.0000

> <Gold.Chemscore.Lipo>
62.6013

> <Gold.Chemscore.Internal_Hbond>
0.0000

> <Gold.Chemscore.DEClash>
0.0098

> <Gold.Chemscore.DEInternal>
3.4784

> <Gold.Chemscore.Rot>
1.4873

> <Gold.Chemscore.Internal.Correction>
   9.000000E+99

> <Gold.Chemscore.Hbonds>
donor molecule, donor type, donor heavy atom, donor atom, acceptor molecule, acceptor atom, score
      L1  H     9    21       P1  7948  0.45
      L1  H    14    28       P1 10186  0.89
      P1  H 10785 10796       L1    14  0.23

> <Gold.Chemscore.Hbond.Weighted>
-7.1400

> <Gold.Chemscore.Metal.Weighted>
-0.0000

> <Gold.Chemscore.Lipo.Weighted>
-7.3244

> <Gold.Chemscore.Internal_Hbond.Weighted>
0.0000

> <Gold.Chemscore.DEClash.Weighted>
0.0098

> <Gold.Chemscore.DEInternal.Weighted>
3.4784

> <Gold.Chemscore.Rot.Weighted>
3.8075

> <Gold.Chemscore.Internal.Correction.Weighted>
   9.000000E+99

> <Gold.Protein.RotatedTorsions>
[ 6907 6896 6895 6894 ] final  -59.28 input  -60.11 | X-H torsion
[ 7974 7965 7964 7962 ] final  159.15 input  175.53 | X-H torsion
[ 8008 7997 7996 7995 ] final -155.32 input   59.86 | X-H torsion
[ 10167 10162 10161 10158 ] final   26.33 input  -65.29 | X-H torsion
[ 10718 10713 10712 10709 ] final  109.04 input   66.30 | X-H torsion
[ 10763 10752 10751 10750 ] final  -28.30 input  -60.55 | X-H torsion
[ 11005 11000 10999 10996 ] final   27.07 input  -57.11 | X-H torsion

> <Gold.Protein.ActiveResidues>
 VAL166  LYS551  ARG553  GLY616  TRP617  ASP618  TYR619  PRO620  LYS621  CYS622 
 ASP623  PHE694  ASN695  SER759  ASP760  ASP761  ALA762  ILE779  LEU786  VAL792 
 PHE793  MET794  SER795  GLU796  ALA797  LYS798  CYS799  TRP800  GLU811  SER814 

> <Gold.Protein.RotatedAtoms>
  150.7942  134.6989  159.6538 H   0  0  0  0  0  0  0  0  0  0  0  0  # atno 6907 bound_to 6896
  152.4052  134.6215  160.0062 H   0  0  0  0  0  0  0  0  0  0  0  0  # atno 6908 bound_to 6896
  151.6475  133.3286  159.3180 H   0  0  0  0  0  0  0  0  0  0  0  0  # atno 6909 bound_to 6896
  144.7806  139.7577  143.6261 H   0  0  0  0  0  0  0  0  0  0  0  0  # atno 7974 bound_to 7965
  155.7001  140.0765  157.2414 H   0  0  0  0  0  0  0  0  0  0  0  0  # atno 8008 bound_to 7997
  154.4074  140.1649  156.2234 H   0  0  0  0  0  0  0  0  0  0  0  0  # atno 8009 bound_to 7997
  155.9375  140.3387  155.6303 H   0  0  0  0  0  0  0  0  0  0  0  0  # atno 8010 bound_to 7997
  140.5032  144.0281  150.6341 H   0  0  0  0  0  0  0  0  0  0  0  0  # atno 10167 bound_to 10162
  157.6559  131.0906  150.6395 H   0  0  0  0  0  0  0  0  0  0  0  0  # atno 10718 bound_to 10713
  153.7460  135.6929  153.4956 H   0  0  0  0  0  0  0  0  0  0  0  0  # atno 10763 bound_to 10752
  153.2036  135.4428  155.0295 H   0  0  0  0  0  0  0  0  0  0  0  0  # atno 10764 bound_to 10752
  154.8204  135.3419  154.6983 H   0  0  0  0  0  0  0  0  0  0  0  0  # atno 10765 bound_to 10752
  140.3302  134.2446  155.7703 H   0  0  0  0  0  0  0  0  0  0  0  0  # atno 11005 bound_to 11000
  146.2012  139.5307  142.9742 LP  0  0  0  0  0  0  0  0  0  0  0  0  # atno 17320 bound_to 7965
  145.6061  141.0347  143.1992 LP  0  0  0  0  0  0  0  0  0  0  0  0  # atno 17321 bound_to 7965
  140.3583  143.2923  152.0412 LP  0  0  0  0  0  0  0  0  0  0  0  0  # atno 17342 bound_to 10162
  139.4877  144.6322  151.7047 LP  0  0  0  0  0  0  0  0  0  0  0  0  # atno 17343 bound_to 10162
  156.6701  130.4537  149.5660 LP  0  0  0  0  0  0  0  0  0  0  0  0  # atno 17370 bound_to 10713
  156.2004  130.6616  151.1160 LP  0  0  0  0  0  0  0  0  0  0  0  0  # atno 17371 bound_to 10713
  141.2065  133.7831  157.0172 LP  0  0  0  0  0  0  0  0  0  0  0  0  # atno 17394 bound_to 11000
  140.0867  134.9616  157.1712 LP  0  0  0  0  0  0  0  0  0  0  0  0  # atno 17395 bound_to 11000

$$$$
