AV-unprocessed.smi:213|AV-procd|sdf|1633|dock5
  -GOLD-   2262019593D 1   1.00000     0.00000
 Structure written by MMmdl.
 59 62  0  0  0  0  0  0  0  0  2 V2000
  144.4757  137.3157  152.3345 C   0  0  0  0  0  0  0  0  0  0  0  0
  146.0030  137.4157  152.1891 C   0  0  2  0  0  0  0  0  0  0  0  0
  146.5747  136.1986  151.4207 C   0  0  0  0  0  0  0  0  0  0  0  0
  145.8170  134.9452  151.6680 N   0  3  0  0  0  0  0  0  0  0  0  0
  144.6650  134.7709  150.7550 C   0  0  0  0  0  0  0  0  0  0  0  0
  143.8730  133.5101  151.1409 C   0  0  0  0  0  0  0  0  0  0  0  0
  144.7328  132.3772  151.1104 O   0  0  0  0  0  0  0  0  0  0  0  0
  145.8059  132.4954  152.0369 C   0  0  0  0  0  0  0  0  0  0  0  0
  146.6595  133.7240  151.6815 C   0  0  0  0  0  0  0  0  0  0  0  0
  146.6558  137.6257  153.4913 N   0  0  0  0  0  0  0  0  0  0  0  0
  147.0515  136.4662  154.2910 C   0  0  0  0  0  0  0  0  0  0  0  0
  147.4328  138.7361  153.6015 C   0  0  0  0  0  0  0  0  0  0  0  0
  147.1523  139.8243  152.8340 N   0  0  0  0  0  0  0  0  0  0  0  0
  147.8593  140.9494  152.9698 C   0  0  0  0  0  0  0  0  0  0  0  0
  148.8661  141.2037  153.8062 N   0  0  0  0  0  0  0  0  0  0  0  0
  149.1640  140.1135  154.5686 C   0  0  0  0  0  0  0  0  0  0  0  0
  148.5090  138.8504  154.5273 C   0  0  0  0  0  0  0  0  0  0  0  0
  149.0934  137.9871  155.4469 N   0  0  0  0  0  0  0  0  0  0  0  0
  150.0317  138.7009  156.0065 C   0  0  0  0  0  0  0  0  0  0  0  0
  150.1348  139.9936  155.5468 N   0  0  0  0  0  0  0  0  0  0  0  0
  151.0728  141.0052  156.0033 C   0  0  0  0  0  0  0  0  0  0  0  0
  150.5891  141.7266  157.2803 C   0  0  2  0  0  0  0  0  0  0  0  0
  149.5347  142.6017  156.9252 O   0  0  0  0  0  0  0  0  0  0  0  0
  151.6923  142.5661  157.9557 C   0  0  2  0  0  0  0  0  0  0  0  0
  151.3565  143.0582  159.3642 C   0  0  0  0  0  0  0  0  0  0  0  0
  152.2759  144.2532  159.5418 C   0  0  0  0  0  0  0  0  0  0  0  0
  152.5899  144.6852  158.1074 C   0  0  0  0  0  0  0  0  0  0  0  0
  151.8499  143.8019  157.2736 O   0  0  0  0  0  0  0  0  0  0  0  0
  143.9954  137.2885  151.3561 H   0  0  0  0  0  0  0  0  0  0  0  0
  144.0759  138.1771  152.8705 H   0  0  0  0  0  0  0  0  0  0  0  0
  144.1717  136.4155  152.8688 H   0  0  0  0  0  0  0  0  0  0  0  0
  146.1683  138.2934  151.5681 H   0  0  0  0  0  0  0  0  0  0  0  0
  146.5596  136.4227  150.3532 H   0  0  0  0  0  0  0  0  0  0  0  0
  147.6229  136.0410  151.6795 H   0  0  0  0  0  0  0  0  0  0  0  0
  144.0124  135.6429  150.8104 H   0  0  0  0  0  0  0  0  0  0  0  0
  145.0189  134.6963  149.7256 H   0  0  0  0  0  0  0  0  0  0  0  0
  143.4299  133.6181  152.1325 H   0  0  0  0  0  0  0  0  0  0  0  0
  143.0530  133.3510  150.4404 H   0  0  0  0  0  0  0  0  0  0  0  0
  145.4190  132.5706  153.0542 H   0  0  0  0  0  0  0  0  0  0  0  0
  146.4126  131.5909  151.9949 H   0  0  0  0  0  0  0  0  0  0  0  0
  147.1243  133.5872  150.7039 H   0  0  0  0  0  0  0  0  0  0  0  0
  147.4660  133.8206  152.4072 H   0  0  0  0  0  0  0  0  0  0  0  0
  147.3355  136.7690  155.2997 H   0  0  0  0  0  0  0  0  0  0  0  0
  147.8978  135.9493  153.8379 H   0  0  0  0  0  0  0  0  0  0  0  0
  146.2317  135.7559  154.3892 H   0  0  0  0  0  0  0  0  0  0  0  0
  147.5706  141.7655  152.3239 H   0  0  0  0  0  0  0  0  0  0  0  0
  150.6729  138.3049  156.7810 H   0  0  0  0  0  0  0  0  0  0  0  0
  152.0314  140.5155  156.1775 H   0  0  0  0  0  0  0  0  0  0  0  0
  151.2333  141.7249  155.1995 H   0  0  0  0  0  0  0  0  0  0  0  0
  150.2070  140.9875  157.9857 H   0  0  0  0  0  0  0  0  0  0  0  0
  149.8489  143.1894  156.2559 H   0  0  0  0  0  0  0  0  0  0  0  0
  152.6422  142.0276  157.9725 H   0  0  0  0  0  0  0  0  0  0  0  0
  150.3171  143.3868  159.4102 H   0  0  0  0  0  0  0  0  0  0  0  0
  151.5058  142.2952  160.1288 H   0  0  0  0  0  0  0  0  0  0  0  0
  151.8003  145.0457  160.1200 H   0  0  0  0  0  0  0  0  0  0  0  0
  153.1926  143.9631  160.0566 H   0  0  0  0  0  0  0  0  0  0  0  0
  152.3055  145.7198  157.9146 H   0  0  0  0  0  0  0  0  0  0  0  0
  153.6548  144.5793  157.8970 H   0  0  0  0  0  0  0  0  0  0  0  0
  145.4222  135.0371  152.5939 H   0  0  0  0  0  0  0  0  0  0  0  0
  1  2  1  0  0  0  0
  1 29  1  0  0  0  0
  1 30  1  0  0  0  0
  1 31  1  0  0  0  0
  2  3  1  0  0  0  0
  2 10  1  0  0  0  0
  2 32  1  0  0  0  0
  3  4  1  0  0  0  0
  3 33  1  0  0  0  0
  3 34  1  0  0  0  0
  4  9  1  0  0  0  0
  4  5  1  0  0  0  0
  4 59  1  0  0  0  0
  5  6  1  0  0  0  0
  5 35  1  0  0  0  0
  5 36  1  0  0  0  0
  6  7  1  0  0  0  0
  6 37  1  0  0  0  0
  6 38  1  0  0  0  0
  7  8  1  0  0  0  0
  8  9  1  0  0  0  0
  8 39  1  0  0  0  0
  8 40  1  0  0  0  0
  9 41  1  0  0  0  0
  9 42  1  0  0  0  0
 10 11  1  0  0  0  0
 10 12  1  0  0  0  0
 11 43  1  0  0  0  0
 11 44  1  0  0  0  0
 11 45  1  0  0  0  0
 12 17  1  0  0  0  0
 12 13  2  0  0  0  0
 13 14  1  0  0  0  0
 14 15  2  0  0  0  0
 14 46  1  0  0  0  0
 15 16  1  0  0  0  0
 16 20  1  0  0  0  0
 16 17  2  0  0  0  0
 17 18  1  0  0  0  0
 18 19  2  0  0  0  0
 19 20  1  0  0  0  0
 19 47  1  0  0  0  0
 20 21  1  0  0  0  0
 21 22  1  0  0  0  0
 21 48  1  0  0  0  0
 21 49  1  0  0  0  0
 22 23  1  0  0  0  0
 22 24  1  0  0  0  0
 22 50  1  0  0  0  0
 23 51  1  0  0  0  0
 24 28  1  0  0  0  0
 24 25  1  0  0  0  0
 24 52  1  0  0  0  0
 25 26  1  0  0  0  0
 25 53  1  0  0  0  0
 25 54  1  0  0  0  0
 26 27  1  0  0  0  0
 26 55  1  0  0  0  0
 26 56  1  0  0  0  0
 27 28  1  0  0  0  0
 27 57  1  0  0  0  0
 27 58  1  0  0  0  0
M  CHG  1   4   1
M  END
> <s_m_source_file>
AV-unprocessed.smi

> <i_m_source_file_index>
213

> <i_lp_mmshare_version>
43012

> <i_f3d_flags>
0

> <s_epik_input>
W0NIMl0xW0NIMl1PW0NIMl1bQ0gyXU4xW0NIMl1bQ0BASF0oW0NIM10pTihbQ0gzXSljKG5bY0hdbjIpYyhjMjMpbltjSF1uM1tDSDJdW0NASF0oW09IXSlbQ0BASF00W0NIMl1bQ0gyXVtDSDJdTzQ=

> <s_epik_cmdline>
J2VwaWtfcHl0aG9uJywgJy1waCcsICc3LjAnLCAnLXRuJywgJzgnLCAnLW1hJywgJzIwMCcsICctbWV0YWxfYmluZGluZycsICctaW1hZScsICc8aW5maWxlLm1hZT4nLCAnLW9tYWUnLCAnPG91dGZpbGUubWFlPic=

> <r_lp_tautomer_probability>
1

> <r_epik_Ionization_Penalty>
0.399679

> <r_epik_Ionization_Penalty_Charging>
0.399433

> <r_epik_Ionization_Penalty_Neutral>
0.000246213

> <r_epik_State_Penalty>
0.286032

> <r_epik_Charging_Adjusted_Penalty>
0.685465

> <i_epik_Tot_Q>
1

> <i_epik_Tot_abs_Q>
1

> <r_epik_Metal_State_Penalty>
0.286072

> <b_epik_Metal_Only>
0

> <s_lp_Force_Field>
OPLS_2005

> <r_lp_Energy>
46.7886

> <b_lp_Chiralities_Consistent>
1

> <s_lp_Variant>
AV-unprocessed.smi:213-1

> <Gold.Version>
5.8.1

> <Gold.Id.Protein>
6NUR|6NUR_protein|mol2

> <Gold.PLP.Fitness>
42.4535

> <Gold.PLP.PLP>
-42.2927

> <Gold.PLP.part.hbond>
-1.0000

> <Gold.PLP.part.metal>
0.0000

> <Gold.PLP.part.buried>
-4.8007

> <Gold.PLP.part.nonpolar>
-38.6892

> <Gold.PLP.part.repulsive>
1.1867

> <Gold.PLP.ligand.clash>
0.0000

> <Gold.PLP.ligand.torsion>
1.9766

> <Gold.PLP.Chemscore.Hbond>
1.0000

> <Gold.PLP.Chemscore.CHOScore>
0.0000

> <Gold.PLP.Chemscore.Metal>
0.0000

> <Gold.Chemscore.Hbonds>
donor molecule, donor type, donor heavy atom, donor atom, acceptor molecule, acceptor atom, score
      L1  H    23    51       P1  8028  0.48
      P1  H  8011  8017       L1    15  0.34

> <Gold.PLP.Chemscore.Internal.Correction>
1.1141

> <Gold.Rescore>
     Score         DG    S(hbond)    S(metal)    S(lipo)     H(rot)  DE(clash)    DE(int)     intcor
      8.85     -13.79       0.98        0.00     104.96       2.83       1.52       3.43       ----

> <Gold.Chemscore.Fitness>
8.8487

> <Gold.Chemscore.DG>
-13.7943

> <Gold.Chemscore.ZeroCoef>
-5.4800

> <Gold.Chemscore.Hbond>
0.9782

> <Gold.Chemscore.Metal>
0.0000

> <Gold.Chemscore.Lipo>
104.9590

> <Gold.Chemscore.Internal_Hbond>
0.0000

> <Gold.Chemscore.DEClash>
1.5151

> <Gold.Chemscore.DEInternal>
3.4305

> <Gold.Chemscore.Rot>
2.8254

> <Gold.Chemscore.Internal.Correction>
   9.000000E+99

> <Gold.Chemscore.Hbonds>
donor molecule, donor type, donor heavy atom, donor atom, acceptor molecule, acceptor atom, score
      L1  H    23    51       P1  8028  0.48
      P1  H  8011  8017       L1    15  0.01

> <Gold.Chemscore.Hbond.Weighted>
-3.2671

> <Gold.Chemscore.Metal.Weighted>
-0.0000

> <Gold.Chemscore.Lipo.Weighted>
-12.2802

> <Gold.Chemscore.Internal_Hbond.Weighted>
0.0000

> <Gold.Chemscore.DEClash.Weighted>
1.5151

> <Gold.Chemscore.DEInternal.Weighted>
3.4305

> <Gold.Chemscore.Rot.Weighted>
7.2330

> <Gold.Chemscore.Internal.Correction.Weighted>
   9.000000E+99

> <Gold.Protein.RotatedTorsions>
[ 6907 6896 6895 6894 ] final -177.14 input  -60.11 | X-H torsion
[ 7974 7965 7964 7962 ] final  162.90 input  175.53 | X-H torsion
[ 8008 7997 7996 7995 ] final -148.57 input   59.86 | X-H torsion
[ 10167 10162 10161 10158 ] final   57.94 input  -65.29 | X-H torsion
[ 10718 10713 10712 10709 ] final   -0.39 input   66.30 | X-H torsion
[ 10763 10752 10751 10750 ] final -144.80 input  -60.55 | X-H torsion
[ 11005 11000 10999 10996 ] final -148.49 input  -57.11 | X-H torsion

> <Gold.Protein.ActiveResidues>
 VAL166  LYS551  ARG553  GLY616  TRP617  ASP618  TYR619  PRO620  LYS621  CYS622 
 ASP623  PHE694  ASN695  SER759  ASP760  ASP761  ALA762  ILE779  LEU786  VAL792 
 PHE793  MET794  SER795  GLU796  ALA797  LYS798  CYS799  TRP800  GLU811  SER814 

> <Gold.Protein.RotatedAtoms>
  151.6161  133.3343  159.3077 H   0  0  0  0  0  0  0  0  0  0  0  0  # atno 6907 bound_to 6896
  150.8130  134.7300  159.6717 H   0  0  0  0  0  0  0  0  0  0  0  0  # atno 6908 bound_to 6896
  152.4227  134.5931  160.0031 H   0  0  0  0  0  0  0  0  0  0  0  0  # atno 6909 bound_to 6896
  144.7615  139.8105  143.6331 H   0  0  0  0  0  0  0  0  0  0  0  0  # atno 7974 bound_to 7965
  155.5938  140.0655  157.2751 H   0  0  0  0  0  0  0  0  0  0  0  0  # atno 8008 bound_to 7997
  154.4298  140.1830  156.1149 H   0  0  0  0  0  0  0  0  0  0  0  0  # atno 8009 bound_to 7997
  156.0212  140.3316  155.7044 H   0  0  0  0  0  0  0  0  0  0  0  0  # atno 8010 bound_to 7997
  140.1925  144.4071  150.6564 H   0  0  0  0  0  0  0  0  0  0  0  0  # atno 10167 bound_to 10162
  156.8211  130.5457  149.5697 H   0  0  0  0  0  0  0  0  0  0  0  0  # atno 10718 bound_to 10713
  154.8412  135.3430  154.6403 H   0  0  0  0  0  0  0  0  0  0  0  0  # atno 10763 bound_to 10752
  153.7014  135.6969  153.5066 H   0  0  0  0  0  0  0  0  0  0  0  0  # atno 10764 bound_to 10752
  153.2520  135.4350  155.0761 H   0  0  0  0  0  0  0  0  0  0  0  0  # atno 10765 bound_to 10752
  140.7607  134.3301  157.5102 H   0  0  0  0  0  0  0  0  0  0  0  0  # atno 11005 bound_to 11000
  146.1682  139.4822  142.9944 LP  0  0  0  0  0  0  0  0  0  0  0  0  # atno 17320 bound_to 7965
  145.6605  141.0241  143.1711 LP  0  0  0  0  0  0  0  0  0  0  0  0  # atno 17321 bound_to 7965
  140.6446  143.2210  151.6215 LP  0  0  0  0  0  0  0  0  0  0  0  0  # atno 17342 bound_to 10162
  139.5250  144.3088  152.1011 LP  0  0  0  0  0  0  0  0  0  0  0  0  # atno 17343 bound_to 10162
  156.0988  130.5953  150.9859 LP  0  0  0  0  0  0  0  0  0  0  0  0  # atno 17370 bound_to 10713
  157.6456  131.0904  150.8160 LP  0  0  0  0  0  0  0  0  0  0  0  0  # atno 17371 bound_to 10713
  139.8771  134.9200  156.3241 LP  0  0  0  0  0  0  0  0  0  0  0  0  # atno 17394 bound_to 11000
  140.9666  133.7354  156.0475 LP  0  0  0  0  0  0  0  0  0  0  0  0  # atno 17395 bound_to 11000

$$$$
