AV-unprocessed.smi:2534|AV-procd|sdf|9974|dock7
  -GOLD-   2272014 23D 1   1.00000     0.00000
 Structure written by MMmdl.
 40 42  0  0  0  0  0  0  0  0  1 V2000
  147.9929  138.9419  154.4170 C   0  0  0  0  0  0  0  0  0  0  0  0
  148.9897  139.5562  155.4097 C   0  0  2  0  0  0  0  0  0  0  0  0
  150.4223  139.5429  154.8493 C   0  0  0  0  0  0  0  0  0  0  0  0
  151.4230  140.1687  155.8367 C   0  0  0  0  0  0  0  0  0  0  0  0
  151.3924  139.5104  157.2354 C   0  0  1  0  0  0  0  0  0  0  0  0
  151.8652  138.1806  157.1093 O   0  0  0  0  0  0  0  0  0  0  0  0
  152.3471  140.2734  158.1915 C   0  0  0  0  0  0  0  0  0  0  0  0
  151.9248  141.6316  158.5128 N   0  0  0  0  0  0  0  0  0  0  0  0
  151.1611  142.3257  157.6285 N   0  0  0  0  0  0  0  0  0  0  0  0
  150.9397  143.5116  158.1908 C   0  0  0  0  0  0  0  0  0  0  0  0
  151.5717  143.6255  159.4591 C   0  0  0  0  0  0  0  0  0  0  0  0
  151.6649  144.6661  160.4771 C   0  0  0  0  0  0  0  0  0  0  0  0
  152.3521  144.4168  161.5474 N   0  0  0  0  0  0  0  0  0  0  0  0
  152.9959  143.1883  161.7327 N   0  0  0  0  0  0  0  0  0  0  0  0
  153.7214  143.0962  162.9991 C   0  0  0  0  0  0  0  0  0  0  0  0
  152.9780  142.1531  160.8368 C   0  0  0  0  0  0  0  0  0  0  0  0
  153.5624  141.0821  161.0010 O   0  0  0  0  0  0  0  0  0  0  0  0
  152.1824  142.4249  159.6145 C   0  0  0  0  0  0  0  0  0  0  0  0
  149.9409  139.4516  157.7726 C   0  0  0  0  0  0  0  0  0  0  0  0
  148.9491  138.8361  156.7687 C   0  0  0  0  0  0  0  0  0  0  0  0
  148.2259  137.8954  154.2174 H   0  0  0  0  0  0  0  0  0  0  0  0
  148.0087  139.4740  153.4654 H   0  0  0  0  0  0  0  0  0  0  0  0
  146.9744  138.9888  154.8033 H   0  0  0  0  0  0  0  0  0  0  0  0
  148.6978  140.5953  155.5688 H   0  0  0  0  0  0  0  0  0  0  0  0
  150.7213  138.5191  154.6207 H   0  0  0  0  0  0  0  0  0  0  0  0
  150.4565  140.0886  153.9058 H   0  0  0  0  0  0  0  0  0  0  0  0
  152.4287  140.1193  155.4175 H   0  0  0  0  0  0  0  0  0  0  0  0
  151.1916  141.2303  155.9353 H   0  0  0  0  0  0  0  0  0  0  0  0
  152.7771  138.1604  157.3571 H   0  0  0  0  0  0  0  0  0  0  0  0
  152.4781  139.7215  159.1223 H   0  0  0  0  0  0  0  0  0  0  0  0
  153.3414  140.3286  157.7458 H   0  0  0  0  0  0  0  0  0  0  0  0
  150.3396  144.2393  157.6647 H   0  0  0  0  0  0  0  0  0  0  0  0
  151.1682  145.6257  160.3356 H   0  0  0  0  0  0  0  0  0  0  0  0
  154.2168  142.1373  163.1559 H   0  0  0  0  0  0  0  0  0  0  0  0
  153.0364  143.2484  163.8341 H   0  0  0  0  0  0  0  0  0  0  0  0
  154.4869  143.8714  163.0482 H   0  0  0  0  0  0  0  0  0  0  0  0
  149.8985  138.8841  158.7028 H   0  0  0  0  0  0  0  0  0  0  0  0
  149.6088  140.4612  158.0181 H   0  0  0  0  0  0  0  0  0  0  0  0
  147.9414  138.8810  157.1828 H   0  0  0  0  0  0  0  0  0  0  0  0
  149.1751  137.7776  156.6328 H   0  0  0  0  0  0  0  0  0  0  0  0
  1  2  1  0  0  0  0
  1 21  1  0  0  0  0
  1 22  1  0  0  0  0
  1 23  1  0  0  0  0
  2 20  1  0  0  0  0
  2  3  1  0  0  0  0
  2 24  1  0  0  0  0
  3  4  1  0  0  0  0
  3 25  1  0  0  0  0
  3 26  1  0  0  0  0
  4  5  1  0  0  0  0
  4 27  1  0  0  0  0
  4 28  1  0  0  0  0
  5  6  1  0  0  0  0
  5  7  1  0  0  0  0
  5 19  1  0  0  0  0
  6 29  1  0  0  0  0
  7  8  1  0  0  0  0
  7 30  1  0  0  0  0
  7 31  1  0  0  0  0
  8 18  1  0  0  0  0
  8  9  1  0  0  0  0
  9 10  2  0  0  0  0
 10 11  1  0  0  0  0
 10 32  1  0  0  0  0
 11 18  2  0  0  0  0
 11 12  1  0  0  0  0
 12 13  2  0  0  0  0
 12 33  1  0  0  0  0
 13 14  1  0  0  0  0
 14 15  1  0  0  0  0
 14 16  1  0  0  0  0
 15 34  1  0  0  0  0
 15 35  1  0  0  0  0
 15 36  1  0  0  0  0
 16 17  2  0  0  0  0
 16 18  1  0  0  0  0
 19 20  1  0  0  0  0
 19 37  1  0  0  0  0
 19 38  1  0  0  0  0
 20 39  1  0  0  0  0
 20 40  1  0  0  0  0
M  END
> <s_m_source_file>
AV-unprocessed.smi

> <i_m_source_file_index>
2534

> <i_lp_mmshare_version>
43012

> <i_f3d_flags>
0

> <s_epik_input>
W0NIMl0xW0NIMl1bQ0BIXShbQ0gzXSlbQ0gyXVtDSDJdW0NAQF0xKFtPSF0pW0NIMl1uKG5bY0hdMiljKGMyMyljKD1PKW4oW0NIM10pbltjSF0z

> <s_epik_cmdline>
J2VwaWtfcHl0aG9uJywgJy1waCcsICc3LjAnLCAnLXRuJywgJzgnLCAnLW1hJywgJzIwMCcsICctbWV0YWxfYmluZGluZycsICctaW1hZScsICc8aW5maWxlLm1hZT4nLCAnLW9tYWUnLCAnPG91dGZpbGUubWFlPic=

> <r_lp_tautomer_probability>
1

> <r_epik_Ionization_Penalty>
4.4666e-07

> <r_epik_Ionization_Penalty_Charging>
3.10141e-10

> <r_epik_Ionization_Penalty_Neutral>
4.46349e-07

> <r_epik_State_Penalty>
-0

> <r_epik_Charging_Adjusted_Penalty>
3.10141e-10

> <i_epik_Tot_Q>
0

> <i_epik_Tot_abs_Q>
0

> <r_epik_Metal_State_Penalty>
-0

> <b_epik_Metal_Only>
0

> <s_lp_Force_Field>
OPLS_2005

> <r_lp_Energy>
31.1347

> <b_lp_Chiralities_Consistent>
1

> <s_lp_Variant>
AV-unprocessed.smi:2534-1

> <Gold.Version>
5.8.1

> <Gold.Id.Protein>
6NUR|6NUR_protein|mol2

> <Gold.PLP.Fitness>
40.7683

> <Gold.PLP.PLP>
-38.5418

> <Gold.PLP.part.hbond>
0.0000

> <Gold.PLP.part.metal>
0.0000

> <Gold.PLP.part.buried>
-4.0296

> <Gold.PLP.part.nonpolar>
-35.0903

> <Gold.PLP.part.repulsive>
0.2525

> <Gold.PLP.ligand.clash>
0.0000

> <Gold.PLP.ligand.torsion>
0.3885

> <Gold.PLP.Chemscore.Hbond>
0.0000

> <Gold.PLP.Chemscore.CHOScore>
1.0000

> <Gold.PLP.Chemscore.Metal>
0.0000

> <Gold.Chemscore.Hbonds>
donor molecule, donor type, donor heavy atom, donor atom, acceptor molecule, acceptor atom, score
      L1  C    10    32       P1  8028  1.00

> <Gold.PLP.Chemscore.Internal.Correction>
0.0035

> <Gold.Rescore>
     Score         DG    S(hbond)    S(metal)    S(lipo)     H(rot)  DE(clash)    DE(int)     intcor
      9.97     -11.81       0.00        0.00      90.78       1.68       0.07       1.77       ----

> <Gold.Chemscore.Fitness>
9.9678

> <Gold.Chemscore.DG>
-11.8118

> <Gold.Chemscore.ZeroCoef>
-5.4800

> <Gold.Chemscore.Hbond>
0.0000

> <Gold.Chemscore.Metal>
0.0000

> <Gold.Chemscore.Lipo>
90.7838

> <Gold.Chemscore.Internal_Hbond>
0.0000

> <Gold.Chemscore.DEClash>
0.0697

> <Gold.Chemscore.DEInternal>
1.7742

> <Gold.Chemscore.Rot>
1.6758

> <Gold.Chemscore.Internal.Correction>
   9.000000E+99

> <Gold.Chemscore.Hbond.Weighted>
-0.0000

> <Gold.Chemscore.Metal.Weighted>
-0.0000

> <Gold.Chemscore.Lipo.Weighted>
-10.6217

> <Gold.Chemscore.Internal_Hbond.Weighted>
0.0000

> <Gold.Chemscore.DEClash.Weighted>
0.0697

> <Gold.Chemscore.DEInternal.Weighted>
1.7742

> <Gold.Chemscore.Rot.Weighted>
4.2899

> <Gold.Chemscore.Internal.Correction.Weighted>
   9.000000E+99

> <Gold.Protein.RotatedTorsions>
[ 6907 6896 6895 6894 ] final   73.50 input  -60.11 | X-H torsion
[ 7974 7965 7964 7962 ] final  -40.39 input  175.53 | X-H torsion
[ 8008 7997 7996 7995 ] final -166.29 input   59.86 | X-H torsion
[ 10167 10162 10161 10158 ] final   87.50 input  -65.29 | X-H torsion
[ 10718 10713 10712 10709 ] final   79.27 input   66.30 | X-H torsion
[ 10763 10752 10751 10750 ] final   11.77 input  -60.55 | X-H torsion
[ 11005 11000 10999 10996 ] final -178.72 input  -57.11 | X-H torsion

> <Gold.Protein.ActiveResidues>
 VAL166  LYS551  ARG553  GLY616  TRP617  ASP618  TYR619  PRO620  LYS621  CYS622 
 ASP623  PHE694  ASN695  SER759  ASP760  ASP761  ALA762  ILE779  LEU786  VAL792 
 PHE793  MET794  SER795  GLU796  ALA797  LYS798  CYS799  TRP800  GLU811  SER814 

> <Gold.Protein.RotatedAtoms>
  152.4926  134.4413  159.9543 H   0  0  0  0  0  0  0  0  0  0  0  0  # atno 6907 bound_to 6896
  151.4397  133.3641  159.2788 H   0  0  0  0  0  0  0  0  0  0  0  0  # atno 6908 bound_to 6896
  150.9096  134.8536  159.7476 H   0  0  0  0  0  0  0  0  0  0  0  0  # atno 6909 bound_to 6896
  146.0309  140.6733  142.9133 H   0  0  0  0  0  0  0  0  0  0  0  0  # atno 7974 bound_to 7965
  155.8618  140.0979  157.1608 H   0  0  0  0  0  0  0  0  0  0  0  0  # atno 8008 bound_to 7997
  154.3991  140.1364  156.4032 H   0  0  0  0  0  0  0  0  0  0  0  0  # atno 8009 bound_to 7997
  155.7849  140.3457  155.5320 H   0  0  0  0  0  0  0  0  0  0  0  0  # atno 8010 bound_to 7997
  139.8767  144.6463  150.8888 H   0  0  0  0  0  0  0  0  0  0  0  0  # atno 10167 bound_to 10162
  157.6771  130.9906  150.1908 H   0  0  0  0  0  0  0  0  0  0  0  0  # atno 10718 bound_to 10713
  153.1892  135.6839  153.8375 H   0  0  0  0  0  0  0  0  0  0  0  0  # atno 10763 bound_to 10752
  153.7680  135.3200  155.3348 H   0  0  0  0  0  0  0  0  0  0  0  0  # atno 10764 bound_to 10752
  154.8107  135.4719  154.0606 H   0  0  0  0  0  0  0  0  0  0  0  0  # atno 10765 bound_to 10752
  140.4267  134.6557  157.4691 H   0  0  0  0  0  0  0  0  0  0  0  0  # atno 11005 bound_to 11000
  144.7030  140.3734  143.7141 LP  0  0  0  0  0  0  0  0  0  0  0  0  # atno 17320 bound_to 7965
  145.7042  139.1668  143.2575 LP  0  0  0  0  0  0  0  0  0  0  0  0  # atno 17321 bound_to 7965
  140.7751  143.3619  151.1812 LP  0  0  0  0  0  0  0  0  0  0  0  0  # atno 17342 bound_to 10162
  139.7233  143.9188  152.2993 LP  0  0  0  0  0  0  0  0  0  0  0  0  # atno 17343 bound_to 10162
  156.2620  130.3712  149.8120 LP  0  0  0  0  0  0  0  0  0  0  0  0  # atno 17370 bound_to 10713
  156.5863  130.8487  151.3396 LP  0  0  0  0  0  0  0  0  0  0  0  0  # atno 17371 bound_to 10713
  140.0163  134.6615  155.9305 LP  0  0  0  0  0  0  0  0  0  0  0  0  # atno 17394 bound_to 11000
  141.1762  133.6541  156.4839 LP  0  0  0  0  0  0  0  0  0  0  0  0  # atno 17395 bound_to 11000

$$$$
