AV-unprocessed.smi:1669|AV-procd|sdf|6684|dock9
  -GOLD-   22720 7403D 1   1.00000     0.00000
 Structure written by MMmdl.
 48 50  0  0  0  0  0  0  0  0  2 V2000
  146.3532  138.2159  151.3918 C   0  0  0  0  0  0  0  0  0  0  0  0
  147.0113  137.9836  152.7021 N   0  3  2  0  0  0  0  0  0  0  0  0
  146.2181  137.1021  153.5971 C   0  0  0  0  0  0  0  0  0  0  0  0
  145.5154  135.9858  152.8433 C   0  0  0  0  0  0  0  0  0  0  0  0
  144.1768  136.1414  152.4242 C   0  0  0  0  0  0  0  0  0  0  0  0
  143.5305  135.1062  151.7212 C   0  0  0  0  0  0  0  0  0  0  0  0
  144.2185  133.9109  151.4367 C   0  0  0  0  0  0  0  0  0  0  0  0
  145.5532  133.7504  151.8567 C   0  0  0  0  0  0  0  0  0  0  0  0
  146.2003  134.7851  152.5600 C   0  0  0  0  0  0  0  0  0  0  0  0
  147.4069  139.2498  153.3709 C   0  0  0  0  0  0  0  0  0  0  0  0
  148.6818  139.0881  154.2282 C   0  0  2  0  0  0  0  0  0  0  0  0
  148.3020  138.6935  155.5305 O   0  0  0  0  0  0  0  0  0  0  0  0
  149.5171  140.3791  154.3485 C   0  0  0  0  0  0  0  0  0  0  0  0
  150.6005  140.2534  155.3143 N   0  0  0  0  0  0  0  0  0  0  0  0
  151.6622  139.4068  155.2901 C   0  0  0  0  0  0  0  0  0  0  0  0
  151.8637  138.4267  154.1686 C   0  0  0  0  0  0  0  0  0  0  0  0
  151.7490  137.0741  154.5609 O   0  0  0  0  0  0  0  0  0  0  0  0
  152.5029  139.5099  156.3220 N   0  0  0  0  0  0  0  0  0  0  0  0
  151.9403  140.5173  157.0795 C   0  0  0  0  0  0  0  0  0  0  0  0
  152.3588  141.0921  158.3007 C   0  0  0  0  0  0  0  0  0  0  0  0
  151.6092  142.1277  158.8959 C   0  0  0  0  0  0  0  0  0  0  0  0
  150.4334  142.6026  158.2797 C   0  0  0  0  0  0  0  0  0  0  0  0
  149.9984  142.0431  157.0629 C   0  0  0  0  0  0  0  0  0  0  0  0
  150.7495  141.0081  156.4741 C   0  0  0  0  0  0  0  0  0  0  0  0
  145.3807  138.6914  151.5247 H   0  0  0  0  0  0  0  0  0  0  0  0
  146.2031  137.2806  150.8533 H   0  0  0  0  0  0  0  0  0  0  0  0
  146.9542  138.8561  150.7476 H   0  0  0  0  0  0  0  0  0  0  0  0
  146.8730  136.6352  154.3343 H   0  0  0  0  0  0  0  0  0  0  0  0
  145.4936  137.6964  154.1563 H   0  0  0  0  0  0  0  0  0  0  0  0
  143.6423  137.0559  152.6367 H   0  0  0  0  0  0  0  0  0  0  0  0
  142.5066  135.2287  151.3997 H   0  0  0  0  0  0  0  0  0  0  0  0
  143.7225  133.1173  150.8971 H   0  0  0  0  0  0  0  0  0  0  0  0
  146.0801  132.8330  151.6390 H   0  0  0  0  0  0  0  0  0  0  0  0
  147.2242  134.6551  152.8787 H   0  0  0  0  0  0  0  0  0  0  0  0
  147.5358  140.0167  152.6062 H   0  0  0  0  0  0  0  0  0  0  0  0
  146.6044  139.6054  154.0188 H   0  0  0  0  0  0  0  0  0  0  0  0
  149.3183  138.3053  153.8180 H   0  0  0  0  0  0  0  0  0  0  0  0
  148.5030  137.7760  155.6398 H   0  0  0  0  0  0  0  0  0  0  0  0
  149.9199  140.6664  153.3775 H   0  0  0  0  0  0  0  0  0  0  0  0
  148.8812  141.2070  154.6660 H   0  0  0  0  0  0  0  0  0  0  0  0
  151.1277  138.6113  153.3864 H   0  0  0  0  0  0  0  0  0  0  0  0
  152.8514  138.5846  153.7349 H   0  0  0  0  0  0  0  0  0  0  0  0
  150.9174  136.7416  154.2598 H   0  0  0  0  0  0  0  0  0  0  0  0
  153.2588  140.7361  158.7800 H   0  0  0  0  0  0  0  0  0  0  0  0
  151.9394  142.5607  159.8289 H   0  0  0  0  0  0  0  0  0  0  0  0
  149.8663  143.3976  158.7417 H   0  0  0  0  0  0  0  0  0  0  0  0
  149.0991  142.4073  156.5891 H   0  0  0  0  0  0  0  0  0  0  0  0
  147.8723  137.4878  152.5190 H   0  0  0  0  0  0  0  0  0  0  0  0
  1  2  1  0  0  0  0
  1 25  1  0  0  0  0
  1 26  1  0  0  0  0
  1 27  1  0  0  0  0
  2  3  1  0  0  0  0
  2 10  1  0  0  0  0
  2 48  1  0  0  0  0
  3  4  1  0  0  0  0
  3 28  1  0  0  0  0
  3 29  1  0  0  0  0
  4  9  1  0  0  0  0
  4  5  2  0  0  0  0
  5  6  1  0  0  0  0
  5 30  1  0  0  0  0
  6  7  2  0  0  0  0
  6 31  1  0  0  0  0
  7  8  1  0  0  0  0
  7 32  1  0  0  0  0
  8  9  2  0  0  0  0
  8 33  1  0  0  0  0
  9 34  1  0  0  0  0
 10 11  1  0  0  0  0
 10 35  1  0  0  0  0
 10 36  1  0  0  0  0
 11 12  1  0  0  0  0
 11 13  1  0  0  0  0
 11 37  1  0  0  0  0
 12 38  1  0  0  0  0
 13 14  1  0  0  0  0
 13 39  1  0  0  0  0
 13 40  1  0  0  0  0
 14 24  1  0  0  0  0
 14 15  1  0  0  0  0
 15 16  1  0  0  0  0
 15 18  2  0  0  0  0
 16 17  1  0  0  0  0
 16 41  1  0  0  0  0
 16 42  1  0  0  0  0
 17 43  1  0  0  0  0
 18 19  1  0  0  0  0
 19 24  2  0  0  0  0
 19 20  1  0  0  0  0
 20 21  2  0  0  0  0
 20 44  1  0  0  0  0
 21 22  1  0  0  0  0
 21 45  1  0  0  0  0
 22 23  2  0  0  0  0
 22 46  1  0  0  0  0
 23 24  1  0  0  0  0
 23 47  1  0  0  0  0
M  CHG  1   2   1
M  END
> <s_m_source_file>
AV-unprocessed.smi

> <i_m_source_file_index>
1669

> <i_lp_mmshare_version>
43012

> <i_f3d_flags>
0

> <s_epik_input>
W2NIXTFbY0hdW2NIXVtjSF1bY0hdYzFbQ0gyXU4oW0NIM10pW0NIMl1bQ0BIXShbT0hdKVtDSDJdbihjKG4yKVtDSDJdW09IXSljKGMyMylbY0hdW2NIXVtjSF1bY0hdMw==

> <s_epik_cmdline>
J2VwaWtfcHl0aG9uJywgJy1waCcsICc3LjAnLCAnLXRuJywgJzgnLCAnLW1hJywgJzIwMCcsICctbWV0YWxfYmluZGluZycsICctaW1hZScsICc8aW5maWxlLm1hZT4nLCAnLW9tYWUnLCAnPG91dGZpbGUubWFlPic=

> <r_epik_Ionization_Penalty>
0.0949884

> <r_epik_Ionization_Penalty_Charging>
0.0475377

> <r_epik_Ionization_Penalty_Neutral>
0.0474507

> <r_epik_State_Penalty>
0.078247

> <r_epik_Charging_Adjusted_Penalty>
0.125785

> <i_epik_Tot_Q>
1

> <i_epik_Tot_abs_Q>
1

> <r_epik_Metal_State_Penalty>
0.0403451

> <b_epik_Metal_Only>
0

> <s_lp_Force_Field>
OPLS_2005

> <r_lp_Energy>
17.3617

> <b_lp_Chiralities_Consistent>
1

> <s_lp_Variant>
AV-unprocessed.smi:1669-2

> <Gold.Version>
5.8.1

> <Gold.Id.Protein>
6NUR|6NUR_protein|mol2

> <Gold.PLP.Fitness>
51.6477

> <Gold.PLP.PLP>
-42.0132

> <Gold.PLP.part.hbond>
-3.0000

> <Gold.PLP.part.metal>
0.0000

> <Gold.PLP.part.buried>
-1.9361

> <Gold.PLP.part.nonpolar>
-36.5227

> <Gold.PLP.part.repulsive>
0.0496

> <Gold.PLP.ligand.clash>
0.0000

> <Gold.PLP.ligand.torsion>
1.2829

> <Gold.PLP.Chemscore.Hbond>
4.0000

> <Gold.PLP.Chemscore.CHOScore>
0.0000

> <Gold.PLP.Chemscore.Metal>
0.0000

> <Gold.Chemscore.Hbonds>
donor molecule, donor type, donor heavy atom, donor atom, acceptor molecule, acceptor atom, score
      L1  H     2    48       P1  7948  2.00
      P1  H  7997  8008       L1    18  0.90
      P1  H 10752 10763       L1    17  0.99

> <Gold.PLP.Chemscore.Internal.Correction>
0.2003

> <Gold.Rescore>
     Score         DG    S(hbond)    S(metal)    S(lipo)     H(rot)  DE(clash)    DE(int)     intcor
     14.69     -16.05       1.96        0.00     103.76       3.17       0.19       1.18       ----

> <Gold.Chemscore.Fitness>
14.6870

> <Gold.Chemscore.DG>
-16.0538

> <Gold.Chemscore.ZeroCoef>
-5.4800

> <Gold.Chemscore.Hbond>
1.9631

> <Gold.Chemscore.Metal>
0.0000

> <Gold.Chemscore.Lipo>
103.7601

> <Gold.Chemscore.Internal_Hbond>
0.0000

> <Gold.Chemscore.DEClash>
0.1886

> <Gold.Chemscore.DEInternal>
1.1782

> <Gold.Chemscore.Rot>
3.1731

> <Gold.Chemscore.Internal.Correction>
   9.000000E+99

> <Gold.Chemscore.Hbonds>
donor molecule, donor type, donor heavy atom, donor atom, acceptor molecule, acceptor atom, score
      L1  H     2    48       P1  7948  0.99
      P1  H  7997  8008       L1    18  0.18
      P1  H 10752 10763       L1    17  0.57

> <Gold.Chemscore.Hbond.Weighted>
-6.5569

> <Gold.Chemscore.Metal.Weighted>
-0.0000

> <Gold.Chemscore.Lipo.Weighted>
-12.1399

> <Gold.Chemscore.Internal_Hbond.Weighted>
0.0000

> <Gold.Chemscore.DEClash.Weighted>
0.1886

> <Gold.Chemscore.DEInternal.Weighted>
1.1782

> <Gold.Chemscore.Rot.Weighted>
8.1230

> <Gold.Chemscore.Internal.Correction.Weighted>
   9.000000E+99

> <Gold.Protein.RotatedTorsions>
[ 6907 6896 6895 6894 ] final  117.80 input  -60.11 | X-H torsion
[ 7974 7965 7964 7962 ] final  107.97 input  175.53 | X-H torsion
[ 8008 7997 7996 7995 ] final  -43.56 input   59.86 | X-H torsion
[ 10167 10162 10161 10158 ] final   -7.06 input  -65.29 | X-H torsion
[ 10718 10713 10712 10709 ] final   94.75 input   66.30 | X-H torsion
[ 10763 10752 10751 10750 ] final   59.81 input  -60.55 | X-H torsion
[ 11005 11000 10999 10996 ] final   12.17 input  -57.11 | X-H torsion

> <Gold.Protein.ActiveResidues>
 VAL166  LYS551  ARG553  GLY616  TRP617  ASP618  TYR619  PRO620  LYS621  CYS622 
 ASP623  PHE694  ASN695  SER759  ASP760  ASP761  ALA762  ILE779  LEU786  VAL792 
 PHE793  MET794  SER795  GLU796  ALA797  LYS798  CYS799  TRP800  GLU811  SER814 

> <Gold.Protein.RotatedAtoms>
  152.4587  133.7776  159.6832 H   0  0  0  0  0  0  0  0  0  0  0  0  # atno 6907 bound_to 6896
  150.8522  133.7759  159.3027 H   0  0  0  0  0  0  0  0  0  0  0  0  # atno 6908 bound_to 6896
  151.5351  135.1071  159.9964 H   0  0  0  0  0  0  0  0  0  0  0  0  # atno 6909 bound_to 6896
  145.2868  139.2614  143.3886 H   0  0  0  0  0  0  0  0  0  0  0  0  # atno 7974 bound_to 7965
  154.3997  140.1444  156.3539 H   0  0  0  0  0  0  0  0  0  0  0  0  # atno 8008 bound_to 7997
  155.8244  140.3468  155.5512 H   0  0  0  0  0  0  0  0  0  0  0  0  # atno 8009 bound_to 7997
  155.8254  140.0904  157.1814 H   0  0  0  0  0  0  0  0  0  0  0  0  # atno 8010 bound_to 7997
  140.7017  143.6124  150.8691 H   0  0  0  0  0  0  0  0  0  0  0  0  # atno 10167 bound_to 10162
  157.6945  131.0523  150.4235 H   0  0  0  0  0  0  0  0  0  0  0  0  # atno 10718 bound_to 10713
  152.9904  135.5558  154.5773 H   0  0  0  0  0  0  0  0  0  0  0  0  # atno 10763 bound_to 10752
  154.5161  135.2805  155.1304 H   0  0  0  0  0  0  0  0  0  0  0  0  # atno 10764 bound_to 10752
  154.2676  135.6369  153.5351 H   0  0  0  0  0  0  0  0  0  0  0  0  # atno 10765 bound_to 10752
  140.4949  134.0803  155.7780 H   0  0  0  0  0  0  0  0  0  0  0  0  # atno 11005 bound_to 11000
  146.3198  140.3349  142.8643 LP  0  0  0  0  0  0  0  0  0  0  0  0  # atno 17320 bound_to 7965
  144.9207  140.7864  143.5750 LP  0  0  0  0  0  0  0  0  0  0  0  0  # atno 17321 bound_to 7965
  139.9846  143.5913  152.2931 LP  0  0  0  0  0  0  0  0  0  0  0  0  # atno 17342 bound_to 10162
  139.6546  144.7662  151.2080 LP  0  0  0  0  0  0  0  0  0  0  0  0  # atno 17343 bound_to 10162
  156.4608  130.4031  149.6578 LP  0  0  0  0  0  0  0  0  0  0  0  0  # atno 17370 bound_to 10713
  156.3693  130.7522  151.2504 LP  0  0  0  0  0  0  0  0  0  0  0  0  # atno 17371 bound_to 10713
  141.1465  133.9046  157.2203 LP  0  0  0  0  0  0  0  0  0  0  0  0  # atno 17394 bound_to 11000
  139.9747  135.0117  156.9601 LP  0  0  0  0  0  0  0  0  0  0  0  0  # atno 17395 bound_to 11000

$$$$
