AV-unprocessed.smi:2978|AV-procd|sdf|11369|dock10
  -GOLD-   2272016283D 1   1.00000     0.00000
 Structure written by MMmdl.
 32 33  0  0  0  0  0  0  0  0  1 V2000
  149.3870  142.1343  157.9422 O   0  0  0  0  0  0  0  0  0  0  0  0
  150.4625  142.2709  157.3573 C   0  0  0  0  0  0  0  0  0  0  0  0
  151.4933  143.3029  157.8383 C   0  0  0  0  0  0  0  0  0  0  0  0
  151.9031  143.1066  159.2367 N   0  0  0  0  0  0  0  0  0  0  0  0
  151.6936  144.2091  160.0466 N   0  0  0  0  0  0  0  0  0  0  0  0
  152.0008  144.1457  161.2961 C   0  0  0  0  0  0  0  0  0  0  0  0
  152.5662  142.9551  161.8912 C   0  0  0  0  0  0  0  0  0  0  0  0
  152.9582  142.9292  163.5745 Cl  0  0  0  0  0  0  0  0  0  0  0  0
  152.7737  141.8820  161.0874 C   0  0  0  0  0  0  0  0  0  0  0  0
  153.4486  140.4223  161.7265 Cl  0  0  0  0  0  0  0  0  0  0  0  0
  152.4361  141.9179  159.6575 C   0  0  0  0  0  0  0  0  0  0  0  0
  152.6114  140.9669  158.8948 O   0  0  0  0  0  0  0  0  0  0  0  0
  150.8041  141.5584  156.2736 N   0  0  0  0  0  0  0  0  0  0  0  0
  149.9889  140.5126  155.6673 C   0  0  0  0  0  0  0  0  0  0  0  0
  149.2230  141.0380  154.4419 C   0  0  1  0  0  0  0  0  0  0  0  0
  148.2696  140.0203  153.8258 C   0  0  0  0  0  0  0  0  0  0  0  0
  147.3307  140.9081  153.0340 C   0  0  0  0  0  0  0  0  0  0  0  0
  147.3253  142.2188  153.8269 C   0  0  0  0  0  0  0  0  0  0  0  0
  148.3497  142.0963  154.8096 O   0  0  0  0  0  0  0  0  0  0  0  0
  152.3707  143.2757  157.1890 H   0  0  0  0  0  0  0  0  0  0  0  0
  151.0620  144.2966  157.7055 H   0  0  0  0  0  0  0  0  0  0  0  0
  151.8510  144.9875  161.9724 H   0  0  0  0  0  0  0  0  0  0  0  0
  151.7054  141.7338  155.8534 H   0  0  0  0  0  0  0  0  0  0  0  0
  150.6195  139.6676  155.3857 H   0  0  0  0  0  0  0  0  0  0  0  0
  149.2898  140.1412  156.4168 H   0  0  0  0  0  0  0  0  0  0  0  0
  149.9132  141.3983  153.6765 H   0  0  0  0  0  0  0  0  0  0  0  0
  148.7784  139.2796  153.2080 H   0  0  0  0  0  0  0  0  0  0  0  0
  147.7163  139.4947  154.6058 H   0  0  0  0  0  0  0  0  0  0  0  0
  147.7339  141.0801  152.0353 H   0  0  0  0  0  0  0  0  0  0  0  0
  146.3360  140.4744  152.9266 H   0  0  0  0  0  0  0  0  0  0  0  0
  147.5272  143.0705  153.1764 H   0  0  0  0  0  0  0  0  0  0  0  0
  146.3682  142.3890  154.3205 H   0  0  0  0  0  0  0  0  0  0  0  0
  1  2  2  0  0  0  0
  2  3  1  0  0  0  0
  2 13  1  0  0  0  0
  3  4  1  0  0  0  0
  3 20  1  0  0  0  0
  3 21  1  0  0  0  0
  4 11  1  0  0  0  0
  4  5  1  0  0  0  0
  5  6  2  0  0  0  0
  6  7  1  0  0  0  0
  6 22  1  0  0  0  0
  7  8  1  0  0  0  0
  7  9  2  0  0  0  0
  9 10  1  0  0  0  0
  9 11  1  0  0  0  0
 11 12  2  0  0  0  0
 13 14  1  0  0  0  0
 13 23  1  0  0  0  0
 14 15  1  0  0  0  0
 14 24  1  0  0  0  0
 14 25  1  0  0  0  0
 15 19  1  0  0  0  0
 15 16  1  0  0  0  0
 15 26  1  0  0  0  0
 16 17  1  0  0  0  0
 16 27  1  0  0  0  0
 16 28  1  0  0  0  0
 17 18  1  0  0  0  0
 17 29  1  0  0  0  0
 17 30  1  0  0  0  0
 18 19  1  0  0  0  0
 18 31  1  0  0  0  0
 18 32  1  0  0  0  0
M  END
> <s_m_source_file>
AV-unprocessed.smi

> <i_m_source_file_index>
2978

> <i_lp_mmshare_version>
43012

> <i_f3d_flags>
0

> <s_epik_input>
TzFbQ0gyXVtDSDJdW0NIMl1bQ0BIXTFbQ0gyXVtOSF1DKD1PKVtDSDJdbjJuW2NIXWMoQ2wpYyhDbCljMj1P

> <s_epik_cmdline>
J2VwaWtfcHl0aG9uJywgJy1waCcsICc3LjAnLCAnLXRuJywgJzgnLCAnLW1hJywgJzIwMCcsICctbWV0YWxfYmluZGluZycsICctaW1hZScsICc8aW5maWxlLm1hZT4nLCAnLW9tYWUnLCAnPG91dGZpbGUubWFlPic=

> <r_lp_tautomer_probability>
1

> <r_epik_Ionization_Penalty>
2.68881e-08

> <r_epik_Ionization_Penalty_Charging>
2.90862e-11

> <r_epik_Ionization_Penalty_Neutral>
2.6859e-08

> <r_epik_State_Penalty>
-0

> <r_epik_Charging_Adjusted_Penalty>
2.90862e-11

> <i_epik_Tot_Q>
0

> <i_epik_Tot_abs_Q>
0

> <r_epik_Metal_State_Penalty>
-0

> <b_epik_Metal_Only>
0

> <s_lp_Force_Field>
OPLS_2005

> <r_lp_Energy>
30.853

> <b_lp_Chiralities_Consistent>
1

> <s_lp_Variant>
AV-unprocessed.smi:2978-2

> <Gold.Version>
5.8.1

> <Gold.Id.Protein>
6NUR|6NUR_protein|mol2

> <Gold.PLP.Fitness>
44.4265

> <Gold.PLP.PLP>
-44.7529

> <Gold.PLP.part.hbond>
-0.1318

> <Gold.PLP.part.metal>
0.0000

> <Gold.PLP.part.buried>
-4.6087

> <Gold.PLP.part.nonpolar>
-41.6311

> <Gold.PLP.part.repulsive>
2.0259

> <Gold.PLP.ligand.clash>
0.0000

> <Gold.PLP.ligand.torsion>
0.1683

> <Gold.PLP.Chemscore.Hbond>
0.0000

> <Gold.PLP.Chemscore.CHOScore>
0.0000

> <Gold.PLP.Chemscore.Metal>
0.0000

> <Gold.PLP.Chemscore.Internal.Correction>
0.0102

> <Gold.Rescore>
     Score         DG    S(hbond)    S(metal)    S(lipo)     H(rot)  DE(clash)    DE(int)     intcor
     11.62     -12.79       0.00        0.00     102.60       1.83       0.08       1.09       ----

> <Gold.Chemscore.Fitness>
11.6164

> <Gold.Chemscore.DG>
-12.7940

> <Gold.Chemscore.ZeroCoef>
-5.4800

> <Gold.Chemscore.Hbond>
0.0000

> <Gold.Chemscore.Metal>
0.0000

> <Gold.Chemscore.Lipo>
102.5977

> <Gold.Chemscore.Internal_Hbond>
0.0000

> <Gold.Chemscore.DEClash>
0.0826

> <Gold.Chemscore.DEInternal>
1.0950

> <Gold.Chemscore.Rot>
1.8320

> <Gold.Chemscore.Internal.Correction>
   9.000000E+99

> <Gold.Chemscore.Hbond.Weighted>
-0.0000

> <Gold.Chemscore.Metal.Weighted>
-0.0000

> <Gold.Chemscore.Lipo.Weighted>
-12.0039

> <Gold.Chemscore.Internal_Hbond.Weighted>
0.0000

> <Gold.Chemscore.DEClash.Weighted>
0.0826

> <Gold.Chemscore.DEInternal.Weighted>
1.0950

> <Gold.Chemscore.Rot.Weighted>
4.6900

> <Gold.Chemscore.Internal.Correction.Weighted>
   9.000000E+99

> <Gold.Protein.RotatedTorsions>
[ 6907 6896 6895 6894 ] final   79.10 input  -60.11 | X-H torsion
[ 7974 7965 7964 7962 ] final  -22.50 input  175.53 | X-H torsion
[ 8008 7997 7996 7995 ] final   48.16 input   59.86 | X-H torsion
[ 10167 10162 10161 10158 ] final  121.36 input  -65.29 | X-H torsion
[ 10718 10713 10712 10709 ] final    8.75 input   66.30 | X-H torsion
[ 10763 10752 10751 10750 ] final  124.73 input  -60.55 | X-H torsion
[ 11005 11000 10999 10996 ] final -115.50 input  -57.11 | X-H torsion

> <Gold.Protein.ActiveResidues>
 VAL166  LYS551  ARG553  GLY616  TRP617  ASP618  TYR619  PRO620  LYS621  CYS622 
 ASP623  PHE694  ASN695  SER759  ASP760  ASP761  ALA762  ILE779  LEU786  VAL792 
 PHE793  MET794  SER795  GLU796  ALA797  LYS798  CYS799  TRP800  GLU811  SER814 

> <Gold.Protein.RotatedAtoms>
  152.5185  134.3563  159.9268 H   0  0  0  0  0  0  0  0  0  0  0  0  # atno 6907 bound_to 6896
  151.3515  133.3917  159.2688 H   0  0  0  0  0  0  0  0  0  0  0  0  # atno 6908 bound_to 6896
  150.9723  134.9113  159.7853 H   0  0  0  0  0  0  0  0  0  0  0  0  # atno 6909 bound_to 6896
  146.1672  140.4487  142.8547 H   0  0  0  0  0  0  0  0  0  0  0  0  # atno 7974 bound_to 7965
  155.3811  140.3428  155.4247 H   0  0  0  0  0  0  0  0  0  0  0  0  # atno 8008 bound_to 7997
  156.1610  140.1601  156.8646 H   0  0  0  0  0  0  0  0  0  0  0  0  # atno 8009 bound_to 7997
  154.5139  140.0783  156.8026 H   0  0  0  0  0  0  0  0  0  0  0  0  # atno 8010 bound_to 7997
  139.5925  144.7030  151.3257 H   0  0  0  0  0  0  0  0  0  0  0  0  # atno 10167 bound_to 10162
  156.9562  130.5915  149.5659 H   0  0  0  0  0  0  0  0  0  0  0  0  # atno 10718 bound_to 10713
  153.6660  135.3338  155.3140 H   0  0  0  0  0  0  0  0  0  0  0  0  # atno 10763 bound_to 10752
  154.8503  135.4375  154.1754 H   0  0  0  0  0  0  0  0  0  0  0  0  # atno 10764 bound_to 10752
  153.2733  135.7002  153.7534 H   0  0  0  0  0  0  0  0  0  0  0  0  # atno 10765 bound_to 10752
  141.0483  133.9727  157.2879 H   0  0  0  0  0  0  0  0  0  0  0  0  # atno 11005 bound_to 11000
  144.8109  140.6384  143.6415 LP  0  0  0  0  0  0  0  0  0  0  0  0  # atno 17320 bound_to 7965
  145.4436  139.1532  143.3957 LP  0  0  0  0  0  0  0  0  0  0  0  0  # atno 17321 bound_to 7965
  140.7184  143.7202  150.7701 LP  0  0  0  0  0  0  0  0  0  0  0  0  # atno 17342 bound_to 10162
  140.0761  143.5014  152.2555 LP  0  0  0  0  0  0  0  0  0  0  0  0  # atno 17343 bound_to 10162
  156.0341  130.5430  150.8610 LP  0  0  0  0  0  0  0  0  0  0  0  0  # atno 17370 bound_to 10713
  157.5688  131.0946  150.9448 LP  0  0  0  0  0  0  0  0  0  0  0  0  # atno 17371 bound_to 10713
  139.9330  135.0198  156.8463 LP  0  0  0  0  0  0  0  0  0  0  0  0  # atno 17394 bound_to 11000
  140.6103  134.0088  155.7574 LP  0  0  0  0  0  0  0  0  0  0  0  0  # atno 17395 bound_to 11000

$$$$
