AV-unprocessed.smi:576|AV-procd|sdf|2978|dock7
  -GOLD-   2262023483D 1   1.00000     0.00000
 Structure written by MMmdl.
 35 36  0  0  0  0  0  0  0  0  1 V2000
  148.0821  140.7126  156.3818 C   0  0  0  0  0  0  0  0  0  0  0  0
  149.4473  140.7304  155.6751 C   0  0  2  0  0  0  0  0  0  0  0  0
  150.2794  141.7923  156.2322 N   0  0  0  0  0  0  0  0  0  0  0  0
  151.3560  141.6126  157.0131 C   0  0  0  0  0  0  0  0  0  0  0  0
  151.7733  140.5016  157.3432 O   0  0  0  0  0  0  0  0  0  0  0  0
  152.0749  142.8892  157.4717 C   0  0  0  0  0  0  0  0  0  0  0  0
  152.3445  142.9139  158.9191 N   0  0  0  0  0  0  0  0  0  0  0  0
  153.2146  141.9294  159.4276 C   0  0  0  0  0  0  0  0  0  0  0  0
  153.5485  141.8482  160.7300 C   0  0  0  0  0  0  0  0  0  0  0  0
  154.4418  140.7369  161.2590 C   0  0  0  0  0  0  0  0  0  0  0  0
  154.5786  140.8559  162.5789 F   0  0  0  0  0  0  0  0  0  0  0  0
  153.9198  139.5374  161.0018 F   0  0  0  0  0  0  0  0  0  0  0  0
  155.6559  140.7919  160.7099 F   0  0  0  0  0  0  0  0  0  0  0  0
  152.9367  142.8205  161.6145 C   0  0  0  0  0  0  0  0  0  0  0  0
  152.0925  143.7605  161.1465 C   0  0  0  0  0  0  0  0  0  0  0  0
  151.7521  143.8459  159.7245 C   0  0  0  0  0  0  0  0  0  0  0  0
  150.9823  144.7005  159.2850 O   0  0  0  0  0  0  0  0  0  0  0  0
  149.2749  140.8576  154.1733 C   0  0  0  0  0  0  0  0  0  0  0  0
  148.0330  141.4801  153.5814 C   0  0  0  0  0  0  0  0  0  0  0  0
  148.2857  139.9971  153.4247 C   0  0  0  0  0  0  0  0  0  0  0  0
  147.4560  139.9045  156.0029 H   0  0  0  0  0  0  0  0  0  0  0  0
  147.5444  141.6490  156.2292 H   0  0  0  0  0  0  0  0  0  0  0  0
  148.1915  140.5631  157.4565 H   0  0  0  0  0  0  0  0  0  0  0  0
  149.9370  139.7730  155.8639 H   0  0  0  0  0  0  0  0  0  0  0  0
  150.0129  142.7402  156.0081 H   0  0  0  0  0  0  0  0  0  0  0  0
  153.0042  142.9757  156.9071 H   0  0  0  0  0  0  0  0  0  0  0  0
  151.4862  143.7630  157.1856 H   0  0  0  0  0  0  0  0  0  0  0  0
  153.5866  141.2343  158.6889 H   0  0  0  0  0  0  0  0  0  0  0  0
  153.1610  142.7973  162.6708 H   0  0  0  0  0  0  0  0  0  0  0  0
  151.6565  144.4699  161.8346 H   0  0  0  0  0  0  0  0  0  0  0  0
  150.2026  141.0772  153.6476 H   0  0  0  0  0  0  0  0  0  0  0  0
  147.2418  141.7842  154.2637 H   0  0  0  0  0  0  0  0  0  0  0  0
  148.1575  142.1082  152.7017 H   0  0  0  0  0  0  0  0  0  0  0  0
  148.5782  139.6370  152.4406 H   0  0  0  0  0  0  0  0  0  0  0  0
  147.6645  139.3173  154.0045 H   0  0  0  0  0  0  0  0  0  0  0  0
  1  2  1  0  0  0  0
  1 21  1  0  0  0  0
  1 22  1  0  0  0  0
  1 23  1  0  0  0  0
  2  3  1  0  0  0  0
  2 18  1  0  0  0  0
  2 24  1  0  0  0  0
  3  4  1  0  0  0  0
  3 25  1  0  0  0  0
  4  5  2  0  0  0  0
  4  6  1  0  0  0  0
  6  7  1  0  0  0  0
  6 26  1  0  0  0  0
  6 27  1  0  0  0  0
  7 16  1  0  0  0  0
  7  8  1  0  0  0  0
  8  9  2  0  0  0  0
  8 28  1  0  0  0  0
  9 10  1  0  0  0  0
  9 14  1  0  0  0  0
 10 11  1  0  0  0  0
 10 12  1  0  0  0  0
 10 13  1  0  0  0  0
 14 15  2  0  0  0  0
 14 29  1  0  0  0  0
 15 16  1  0  0  0  0
 15 30  1  0  0  0  0
 16 17  2  0  0  0  0
 18 20  1  0  0  0  0
 18 19  1  0  0  0  0
 18 31  1  0  0  0  0
 19 20  1  0  0  0  0
 19 32  1  0  0  0  0
 19 33  1  0  0  0  0
 20 34  1  0  0  0  0
 20 35  1  0  0  0  0
M  END
> <s_m_source_file>
AV-unprocessed.smi

> <i_m_source_file_index>
576

> <i_lp_mmshare_version>
43012

> <i_f3d_flags>
0

> <s_epik_input>
W0NIMl0xW0NIMl1bQ0hdMVtDQEhdKFtDSDNdKVtOSF1DKD1PKVtDSDJdbjJbY0hdYyhDKEYpKEYpRilbY0hdW2NIXWMyPU8=

> <s_epik_cmdline>
J2VwaWtfcHl0aG9uJywgJy1waCcsICc3LjAnLCAnLXRuJywgJzgnLCAnLW1hJywgJzIwMCcsICctbWV0YWxfYmluZGluZycsICctaW1hZScsICc8aW5maWxlLm1hZT4nLCAnLW9tYWUnLCAnPG91dGZpbGUubWFlPic=

> <r_lp_tautomer_probability>
1

> <r_epik_Ionization_Penalty>
3.84201e-08

> <r_epik_Ionization_Penalty_Charging>
1.91184e-08

> <r_epik_Ionization_Penalty_Neutral>
1.93017e-08

> <r_epik_State_Penalty>
-0

> <r_epik_Charging_Adjusted_Penalty>
1.91184e-08

> <i_epik_Tot_Q>
0

> <i_epik_Tot_abs_Q>
0

> <r_epik_Metal_State_Penalty>
-0

> <b_epik_Metal_Only>
0

> <s_lp_Force_Field>
OPLS_2005

> <r_lp_Energy>
24.7521

> <b_lp_Chiralities_Consistent>
1

> <s_lp_Variant>
AV-unprocessed.smi:576-1

> <Gold.Version>
5.8.1

> <Gold.Id.Protein>
6NUR|6NUR_protein|mol2

> <Gold.PLP.Fitness>
51.0480

> <Gold.PLP.PLP>
-49.0468

> <Gold.PLP.part.hbond>
-1.0000

> <Gold.PLP.part.metal>
0.0000

> <Gold.PLP.part.buried>
-5.3441

> <Gold.PLP.part.nonpolar>
-43.1966

> <Gold.PLP.part.repulsive>
0.2337

> <Gold.PLP.ligand.clash>
0.5102

> <Gold.PLP.ligand.torsion>
0.7986

> <Gold.PLP.Chemscore.Hbond>
1.0000

> <Gold.PLP.Chemscore.CHOScore>
0.0000

> <Gold.PLP.Chemscore.Metal>
0.0000

> <Gold.Chemscore.Hbonds>
donor molecule, donor type, donor heavy atom, donor atom, acceptor molecule, acceptor atom, score
      L1  H     3    25       P1  8028  0.31

> <Gold.PLP.Chemscore.Internal.Correction>
1.1087

> <Gold.Rescore>
     Score         DG    S(hbond)    S(metal)    S(lipo)     H(rot)  DE(clash)    DE(int)     intcor
     12.91     -15.28       0.99        0.00      94.00       1.77       0.14       2.22       ----

> <Gold.Chemscore.Fitness>
12.9136

> <Gold.Chemscore.DG>
-15.2784

> <Gold.Chemscore.ZeroCoef>
-5.4800

> <Gold.Chemscore.Hbond>
0.9937

> <Gold.Chemscore.Metal>
0.0000

> <Gold.Chemscore.Lipo>
94.0036

> <Gold.Chemscore.Internal_Hbond>
0.0000

> <Gold.Chemscore.DEClash>
0.1442

> <Gold.Chemscore.DEInternal>
2.2205

> <Gold.Chemscore.Rot>
1.7653

> <Gold.Chemscore.Internal.Correction>
   9.000000E+99

> <Gold.Chemscore.Hbonds>
donor molecule, donor type, donor heavy atom, donor atom, acceptor molecule, acceptor atom, score
      L1  H     3    25       P1  8028  0.31

> <Gold.Chemscore.Hbond.Weighted>
-3.3191

> <Gold.Chemscore.Metal.Weighted>
-0.0000

> <Gold.Chemscore.Lipo.Weighted>
-10.9984

> <Gold.Chemscore.Internal_Hbond.Weighted>
0.0000

> <Gold.Chemscore.DEClash.Weighted>
0.1442

> <Gold.Chemscore.DEInternal.Weighted>
2.2205

> <Gold.Chemscore.Rot.Weighted>
4.5191

> <Gold.Chemscore.Internal.Correction.Weighted>
   9.000000E+99

> <Gold.Protein.RotatedTorsions>
[ 6907 6896 6895 6894 ] final -167.48 input  -60.11 | X-H torsion
[ 7974 7965 7964 7962 ] final -106.31 input  175.53 | X-H torsion
[ 8008 7997 7996 7995 ] final -147.13 input   59.86 | X-H torsion
[ 10167 10162 10161 10158 ] final -146.95 input  -65.29 | X-H torsion
[ 10718 10713 10712 10709 ] final -147.05 input   66.30 | X-H torsion
[ 10763 10752 10751 10750 ] final   -8.42 input  -60.55 | X-H torsion
[ 11005 11000 10999 10996 ] final  -68.42 input  -57.11 | X-H torsion

> <Gold.Protein.ActiveResidues>
 VAL166  LYS551  ARG553  GLY616  TRP617  ASP618  TYR619  PRO620  LYS621  CYS622 
 ASP623  PHE694  ASN695  SER759  ASP760  ASP761  ALA762  ILE779  LEU786  VAL792 
 PHE793  MET794  SER795  GLU796  ALA797  LYS798  CYS799  TRP800  GLU811  SER814 

> <Gold.Protein.RotatedAtoms>
  151.4603  133.3594  159.2807 H   0  0  0  0  0  0  0  0  0  0  0  0  # atno 6907 bound_to 6896
  150.9030  134.8445  159.7384 H   0  0  0  0  0  0  0  0  0  0  0  0  # atno 6908 bound_to 6896
  152.4890  134.4525  159.9631 H   0  0  0  0  0  0  0  0  0  0  0  0  # atno 6909 bound_to 6896
  145.2195  140.9128  143.3267 H   0  0  0  0  0  0  0  0  0  0  0  0  # atno 7974 bound_to 7965
  155.5706  140.0634  157.2807 H   0  0  0  0  0  0  0  0  0  0  0  0  # atno 8008 bound_to 7997
  154.4362  140.1869  156.0921 H   0  0  0  0  0  0  0  0  0  0  0  0  # atno 8009 bound_to 7997
  156.0379  140.3299  155.7215 H   0  0  0  0  0  0  0  0  0  0  0  0  # atno 8010 bound_to 7997
  139.7666  143.8299  152.2617 H   0  0  0  0  0  0  0  0  0  0  0  0  # atno 10167 bound_to 10162
  156.4026  130.7941  151.2153 H   0  0  0  0  0  0  0  0  0  0  0  0  # atno 10718 bound_to 10713
  153.4402  135.7013  153.6174 H   0  0  0  0  0  0  0  0  0  0  0  0  # atno 10763 bound_to 10752
  153.4552  135.3749  155.2307 H   0  0  0  0  0  0  0  0  0  0  0  0  # atno 10764 bound_to 10752
  154.8727  135.4006  154.3799 H   0  0  0  0  0  0  0  0  0  0  0  0  # atno 10765 bound_to 10752
  141.1531  133.6740  156.6443 H   0  0  0  0  0  0  0  0  0  0  0  0  # atno 11005 bound_to 11000
  144.9779  139.3813  143.6277 LP  0  0  0  0  0  0  0  0  0  0  0  0  # atno 17320 bound_to 7965
  146.3379  139.8906  142.8809 LP  0  0  0  0  0  0  0  0  0  0  0  0  # atno 17321 bound_to 7965
  139.8321  144.7249  150.9438 LP  0  0  0  0  0  0  0  0  0  0  0  0  # atno 17342 bound_to 10162
  140.7811  143.4061  151.1069 LP  0  0  0  0  0  0  0  0  0  0  0  0  # atno 17343 bound_to 10162
  157.7504  131.0282  150.4039 LP  0  0  0  0  0  0  0  0  0  0  0  0  # atno 17370 bound_to 10713
  156.4321  130.3974  149.6753 LP  0  0  0  0  0  0  0  0  0  0  0  0  # atno 17371 bound_to 10713
  140.3369  134.7882  157.4368 LP  0  0  0  0  0  0  0  0  0  0  0  0  # atno 17394 bound_to 11000
  140.0970  134.5523  155.8389 LP  0  0  0  0  0  0  0  0  0  0  0  0  # atno 17395 bound_to 11000

$$$$
