AV-unprocessed.smi:1503|AV-procd|sdf|6070|dock4
  -GOLD-   22720 6193D 1   1.00000     0.00000
 Structure written by MMmdl.
 43 44  0  0  0  0  0  0  0  0  2 V2000
  147.3637  133.5288  152.9692 C   0  0  0  0  0  0  0  0  0  0  0  0
  146.6092  134.3933  153.6687 C   0  0  0  0  0  0  0  0  0  0  0  0
  147.0892  135.6375  154.4029 C   0  0  0  0  0  0  0  0  0  0  0  0
  148.5327  135.8549  154.3412 N   0  0  0  0  0  0  0  0  0  0  0  0
  149.3607  135.8620  155.3976 C   0  0  0  0  0  0  0  0  0  0  0  0
  148.9755  135.7002  156.5562 O   0  0  0  0  0  0  0  0  0  0  0  0
  150.8443  136.0822  155.0860 C   0  0  0  0  0  0  0  0  0  0  0  0
  151.1291  137.4183  154.3729 C   0  0  0  0  0  0  0  0  0  0  0  0
  151.3922  138.5522  155.3619 C   0  0  0  0  0  0  0  0  0  0  0  0
  150.6554  139.6978  155.4002 C   0  0  0  0  0  0  0  0  0  0  0  0
  149.5068  139.9767  154.4471 C   0  0  0  0  0  0  0  0  0  0  0  0
  150.9297  140.7025  156.3404 N   0  0  0  0  0  0  0  0  0  0  0  0
  151.8955  140.5523  157.1965 C   0  0  0  0  0  0  0  0  0  0  0  0
  152.1950  141.5271  158.1541 N   0  0  0  0  0  0  0  0  0  0  0  0
  151.3055  142.6682  158.3882 C   0  0  0  0  0  0  0  0  0  0  0  0
  152.0665  143.8553  159.0012 C   0  0  0  0  0  0  0  0  0  0  0  0
  152.7179  143.4426  160.1950 O   0  0  0  0  0  0  0  0  0  0  0  0
  153.6712  142.4214  159.9354 C   0  0  0  0  0  0  0  0  0  0  0  0
  152.9651  141.1865  159.3513 C   0  0  0  0  0  0  0  0  0  0  0  0
  152.6867  139.4145  157.2286 N   0  5  0  0  0  0  0  0  0  0  0  0
  152.4827  138.4009  156.3406 C   0  0  0  0  0  0  0  0  0  0  0  0
  153.1793  137.3866  156.3374 O   0  0  0  0  0  0  0  0  0  0  0  0
  148.4313  133.6533  152.8631 H   0  0  0  0  0  0  0  0  0  0  0  0
  146.9134  132.6735  152.4873 H   0  0  0  0  0  0  0  0  0  0  0  0
  145.5474  134.2052  153.7337 H   0  0  0  0  0  0  0  0  0  0  0  0
  146.5574  136.5064  154.0123 H   0  0  0  0  0  0  0  0  0  0  0  0
  146.8039  135.5474  155.4510 H   0  0  0  0  0  0  0  0  0  0  0  0
  148.9340  135.9973  153.4254 H   0  0  0  0  0  0  0  0  0  0  0  0
  151.3993  136.0337  156.0235 H   0  0  0  0  0  0  0  0  0  0  0  0
  151.2032  135.2578  154.4680 H   0  0  0  0  0  0  0  0  0  0  0  0
  151.9813  137.3035  153.7028 H   0  0  0  0  0  0  0  0  0  0  0  0
  150.2948  137.6926  153.7253 H   0  0  0  0  0  0  0  0  0  0  0  0
  149.8160  139.8196  153.4136 H   0  0  0  0  0  0  0  0  0  0  0  0
  149.1595  141.0064  154.5378 H   0  0  0  0  0  0  0  0  0  0  0  0
  148.6665  139.3169  154.6634 H   0  0  0  0  0  0  0  0  0  0  0  0
  150.8227  143.0005  157.4690 H   0  0  0  0  0  0  0  0  0  0  0  0
  150.5071  142.3531  159.0611 H   0  0  0  0  0  0  0  0  0  0  0  0
  152.7937  144.2572  158.2935 H   0  0  0  0  0  0  0  0  0  0  0  0
  151.3731  144.6623  159.2374 H   0  0  0  0  0  0  0  0  0  0  0  0
  154.4392  142.7889  159.2526 H   0  0  0  0  0  0  0  0  0  0  0  0
  154.1730  142.1597  160.8670 H   0  0  0  0  0  0  0  0  0  0  0  0
  152.2916  140.7549  160.0927 H   0  0  0  0  0  0  0  0  0  0  0  0
  153.7145  140.4282  159.1213 H   0  0  0  0  0  0  0  0  0  0  0  0
  1  2  2  0  0  0  0
  1 23  1  0  0  0  0
  1 24  1  0  0  0  0
  2  3  1  0  0  0  0
  2 25  1  0  0  0  0
  3  4  1  0  0  0  0
  3 26  1  0  0  0  0
  3 27  1  0  0  0  0
  4  5  1  0  0  0  0
  4 28  1  0  0  0  0
  5  6  2  0  0  0  0
  5  7  1  0  0  0  0
  7  8  1  0  0  0  0
  7 29  1  0  0  0  0
  7 30  1  0  0  0  0
  8  9  1  0  0  0  0
  8 31  1  0  0  0  0
  8 32  1  0  0  0  0
  9 21  1  0  0  0  0
  9 10  2  0  0  0  0
 10 11  1  0  0  0  0
 10 12  1  0  0  0  0
 11 33  1  0  0  0  0
 11 34  1  0  0  0  0
 11 35  1  0  0  0  0
 12 13  2  0  0  0  0
 13 14  1  0  0  0  0
 13 20  1  0  0  0  0
 14 19  1  0  0  0  0
 14 15  1  0  0  0  0
 15 16  1  0  0  0  0
 15 36  1  0  0  0  0
 15 37  1  0  0  0  0
 16 17  1  0  0  0  0
 16 38  1  0  0  0  0
 16 39  1  0  0  0  0
 17 18  1  0  0  0  0
 18 19  1  0  0  0  0
 18 40  1  0  0  0  0
 18 41  1  0  0  0  0
 19 42  1  0  0  0  0
 19 43  1  0  0  0  0
 20 21  1  0  0  0  0
 21 22  2  0  0  0  0
M  CHG  1  20  -1
M  END
> <s_m_source_file>
AV-unprocessed.smi

> <i_m_source_file_index>
1503

> <i_lp_mmshare_version>
43012

> <i_f3d_flags>
0

> <s_epik_input>
W0NIMl09W0NIXVtDSDJdW05IXUMoPU8pW0NIMl1bQ0gyXWMxYyhbQ0gzXSluYyhbbkhdYzE9TylOMltDSDJdW0NIMl1PW0NIMl1bQ0gyXTI=

> <s_epik_cmdline>
J2VwaWtfcHl0aG9uJywgJy1waCcsICc3LjAnLCAnLXRuJywgJzgnLCAnLW1hJywgJzIwMCcsICctbWV0YWxfYmluZGluZycsICctaW1hZScsICc8aW5maWxlLm1hZT4nLCAnLW9tYWUnLCAnPG91dGZpbGUubWFlPic=

> <r_lp_tautomer_probability>
1

> <r_epik_Ionization_Penalty>
5.02457

> <r_epik_Ionization_Penalty_Charging>
9.64055e-08

> <r_epik_Ionization_Penalty_Neutral>
5.02457

> <r_epik_State_Penalty>
2.56428

> <r_epik_Charging_Adjusted_Penalty>
2.56428

> <i_epik_Tot_Q>
-1

> <i_epik_Tot_abs_Q>
1

> <r_epik_Metal_State_Penalty>
0.122481

> <b_epik_Metal_Only>
0

> <s_lp_Force_Field>
OPLS_2005

> <r_lp_Energy>
26.3767

> <b_lp_Chiralities_Consistent>
1

> <s_lp_Variant>
AV-unprocessed.smi:1503-3

> <Gold.Version>
5.8.1

> <Gold.Id.Protein>
6NUR|6NUR_protein|mol2

> <Gold.PLP.Fitness>
45.2008

> <Gold.PLP.PLP>
-35.5709

> <Gold.PLP.part.hbond>
-2.9797

> <Gold.PLP.part.metal>
0.0000

> <Gold.PLP.part.buried>
-3.5157

> <Gold.PLP.part.nonpolar>
-29.0630

> <Gold.PLP.part.repulsive>
0.0383

> <Gold.PLP.ligand.clash>
0.0000

> <Gold.PLP.ligand.torsion>
0.3016

> <Gold.PLP.Chemscore.Hbond>
3.3120

> <Gold.PLP.Chemscore.CHOScore>
0.0000

> <Gold.PLP.Chemscore.Metal>
0.0000

> <Gold.Chemscore.Hbonds>
donor molecule, donor type, donor heavy atom, donor atom, acceptor molecule, acceptor atom, score
      L1  H     4    28       P1  7948  1.00
      P1  H  7997  8008       L1    20  2.00
      P1  H 10752 10765       L1    22  0.30

> <Gold.PLP.Chemscore.Internal.Correction>
0.2970

> <Gold.Rescore>
     Score         DG    S(hbond)    S(metal)    S(lipo)     H(rot)  DE(clash)    DE(int)     intcor
     15.91     -16.27       1.90        0.00      79.12       1.87       0.01       0.35       ----

> <Gold.Chemscore.Fitness>
15.9128

> <Gold.Chemscore.DG>
-16.2729

> <Gold.Chemscore.ZeroCoef>
-5.4800

> <Gold.Chemscore.Hbond>
1.8951

> <Gold.Chemscore.Metal>
0.0000

> <Gold.Chemscore.Lipo>
79.1232

> <Gold.Chemscore.Internal_Hbond>
0.0000

> <Gold.Chemscore.DEClash>
0.0060

> <Gold.Chemscore.DEInternal>
0.3541

> <Gold.Chemscore.Rot>
1.8727

> <Gold.Chemscore.Internal.Correction>
   9.000000E+99

> <Gold.Chemscore.Hbonds>
donor molecule, donor type, donor heavy atom, donor atom, acceptor molecule, acceptor atom, score
      L1  H     4    28       P1  7948  0.93
      P1  H  7997  8008       L1    20  0.10
      P1  H 10752 10765       L1    22  0.30

> <Gold.Chemscore.Hbond.Weighted>
-6.3297

> <Gold.Chemscore.Metal.Weighted>
-0.0000

> <Gold.Chemscore.Lipo.Weighted>
-9.2574

> <Gold.Chemscore.Internal_Hbond.Weighted>
0.0000

> <Gold.Chemscore.DEClash.Weighted>
0.0060

> <Gold.Chemscore.DEInternal.Weighted>
0.3541

> <Gold.Chemscore.Rot.Weighted>
4.7942

> <Gold.Chemscore.Internal.Correction.Weighted>
   9.000000E+99

> <Gold.Protein.RotatedTorsions>
[ 6907 6896 6895 6894 ] final -115.07 input  -60.11 | X-H torsion
[ 7974 7965 7964 7962 ] final  118.36 input  175.53 | X-H torsion
[ 8008 7997 7996 7995 ] final  -60.95 input   59.86 | X-H torsion
[ 10167 10162 10161 10158 ] final -161.62 input  -65.29 | X-H torsion
[ 10718 10713 10712 10709 ] final  -46.68 input   66.30 | X-H torsion
[ 10763 10752 10751 10750 ] final -131.39 input  -60.55 | X-H torsion
[ 11005 11000 10999 10996 ] final -172.12 input  -57.11 | X-H torsion

> <Gold.Protein.ActiveResidues>
 VAL166  LYS551  ARG553  GLY616  TRP617  ASP618  TYR619  PRO620  LYS621  CYS622 
 ASP623  PHE694  ASN695  SER759  ASP760  ASP761  ALA762  ILE779  LEU786  VAL792 
 PHE793  MET794  SER795  GLU796  ALA797  LYS798  CYS799  TRP800  GLU811  SER814 

> <Gold.Protein.RotatedAtoms>
  150.7950  133.8710  159.3258 H   0  0  0  0  0  0  0  0  0  0  0  0  # atno 6907 bound_to 6896
  151.6538  135.0996  160.0175 H   0  0  0  0  0  0  0  0  0  0  0  0  # atno 6908 bound_to 6896
  152.4030  133.6807  159.6368 H   0  0  0  0  0  0  0  0  0  0  0  0  # atno 6909 bound_to 6896
  145.1562  139.3182  143.4541 H   0  0  0  0  0  0  0  0  0  0  0  0  # atno 7974 bound_to 7965
  154.4424  140.1028  156.6354 H   0  0  0  0  0  0  0  0  0  0  0  0  # atno 8008 bound_to 7997
  155.5559  140.3486  155.4461 H   0  0  0  0  0  0  0  0  0  0  0  0  # atno 8009 bound_to 7997
  156.0495  140.1300  157.0055 H   0  0  0  0  0  0  0  0  0  0  0  0  # atno 8010 bound_to 7997
  139.6452  144.0186  152.2122 H   0  0  0  0  0  0  0  0  0  0  0  0  # atno 10167 bound_to 10162
  156.2159  130.4163  149.9055 H   0  0  0  0  0  0  0  0  0  0  0  0  # atno 10718 bound_to 10713
  154.8751  135.3831  154.4239 H   0  0  0  0  0  0  0  0  0  0  0  0  # atno 10763 bound_to 10752
  153.4939  135.7030  153.5874 H   0  0  0  0  0  0  0  0  0  0  0  0  # atno 10764 bound_to 10752
  153.4235  135.3896  155.2093 H   0  0  0  0  0  0  0  0  0  0  0  0  # atno 10765 bound_to 10752
  140.5006  134.5897  157.4986 H   0  0  0  0  0  0  0  0  0  0  0  0  # atno 11005 bound_to 11000
  146.3488  140.1654  142.8590 LP  0  0  0  0  0  0  0  0  0  0  0  0  # atno 17320 bound_to 7965
  145.0379  140.8922  143.5070 LP  0  0  0  0  0  0  0  0  0  0  0  0  # atno 17321 bound_to 7965
  139.9885  144.6378  150.7835 LP  0  0  0  0  0  0  0  0  0  0  0  0  # atno 17342 bound_to 10162
  140.7511  143.2966  151.3188 LP  0  0  0  0  0  0  0  0  0  0  0  0  # atno 17343 bound_to 10162
  156.6717  130.8823  151.3563 LP  0  0  0  0  0  0  0  0  0  0  0  0  # atno 17370 bound_to 10713
  157.7063  130.9388  150.0941 LP  0  0  0  0  0  0  0  0  0  0  0  0  # atno 17371 bound_to 10713
  139.9715  134.7284  156.0031 LP  0  0  0  0  0  0  0  0  0  0  0  0  # atno 17394 bound_to 11000
  141.1437  133.6560  156.3805 LP  0  0  0  0  0  0  0  0  0  0  0  0  # atno 17395 bound_to 11000

$$$$
