AV-unprocessed.smi:747|AV-procd|sdf|3580|dock10
  -GOLD-   22720 0573D 1   1.00000     0.00000
 Structure written by MMmdl.
 48 49  0  0  0  0  0  0  0  0  1 V2000
  144.3533  138.9305  155.9638 C   0  0  0  0  0  0  0  0  0  0  0  0
  145.4195  139.0159  154.9877 N   0  0  0  0  0  0  0  0  0  0  0  0
  145.4937  138.0480  153.9564 C   0  0  0  0  0  0  0  0  0  0  0  0
  144.6866  137.1240  153.8513 O   0  0  0  0  0  0  0  0  0  0  0  0
  146.6045  138.2379  153.0312 C   0  0  0  0  0  0  0  0  0  0  0  0
  147.4684  139.2650  153.1847 C   0  0  0  0  0  0  0  0  0  0  0  0
  147.3737  140.1959  154.2029 N   0  0  0  0  0  0  0  0  0  0  0  0
  148.3517  141.2885  154.2779 C   0  0  0  0  0  0  0  0  0  0  0  0
  149.7229  140.8461  154.8069 C   0  0  0  0  0  0  0  0  0  0  0  0
  150.4122  140.0310  154.1918 O   0  0  0  0  0  0  0  0  0  0  0  0
  150.0975  141.3940  155.9722 N   0  0  0  0  0  0  0  0  0  0  0  0
  151.3412  141.1109  156.6924 C   0  0  2  0  0  0  0  0  0  0  0  0
  151.4940  139.5814  156.9323 C   0  0  0  0  0  0  0  0  0  0  0  0
  152.5571  138.8714  156.0788 C   0  0  0  0  0  0  0  0  0  0  0  0
  152.7846  137.5840  156.3498 N   0  0  0  0  0  0  0  0  0  0  0  0
  153.1714  139.4674  155.1961 O   0  0  0  0  0  0  0  0  0  0  0  0
  151.4314  141.9891  157.9743 C   0  0  0  0  0  0  0  0  0  0  0  0
  151.4375  143.5021  157.6399 C   0  0  0  0  0  0  0  0  0  0  0  0
  151.5302  144.3767  158.9007 C   0  0  0  0  0  0  0  0  0  0  0  0
  152.7652  144.0180  159.7370 C   0  0  0  0  0  0  0  0  0  0  0  0
  152.7647  142.5260  160.0941 C   0  0  0  0  0  0  0  0  0  0  0  0
  152.6718  141.6491  158.8351 C   0  0  0  0  0  0  0  0  0  0  0  0
  146.3249  140.0889  155.1409 C   0  0  0  0  0  0  0  0  0  0  0  0
  146.2105  140.9082  156.0560 O   0  0  0  0  0  0  0  0  0  0  0  0
  143.7068  138.0746  155.7738 H   0  0  0  0  0  0  0  0  0  0  0  0
  143.7754  139.8536  155.8920 H   0  0  0  0  0  0  0  0  0  0  0  0
  144.8207  138.8292  156.9450 H   0  0  0  0  0  0  0  0  0  0  0  0
  146.7368  137.5476  152.2110 H   0  0  0  0  0  0  0  0  0  0  0  0
  148.2728  139.3649  152.4702 H   0  0  0  0  0  0  0  0  0  0  0  0
  148.4803  141.7582  153.3012 H   0  0  0  0  0  0  0  0  0  0  0  0
  147.9686  142.0739  154.9313 H   0  0  0  0  0  0  0  0  0  0  0  0
  149.4641  142.0482  156.4086 H   0  0  0  0  0  0  0  0  0  0  0  0
  152.1697  141.4145  156.0494 H   0  0  0  0  0  0  0  0  0  0  0  0
  151.7423  139.4005  157.9787 H   0  0  0  0  0  0  0  0  0  0  0  0
  150.5304  139.0925  156.7866 H   0  0  0  0  0  0  0  0  0  0  0  0
  153.4706  137.0690  155.8172 H   0  0  0  0  0  0  0  0  0  0  0  0
  152.2658  137.1285  157.0867 H   0  0  0  0  0  0  0  0  0  0  0  0
  150.5456  141.7980  158.5819 H   0  0  0  0  0  0  0  0  0  0  0  0
  152.2768  143.7277  156.9807 H   0  0  0  0  0  0  0  0  0  0  0  0
  150.5369  143.7822  157.0934 H   0  0  0  0  0  0  0  0  0  0  0  0
  151.5663  145.4297  158.6193 H   0  0  0  0  0  0  0  0  0  0  0  0
  150.6296  144.2479  159.5023 H   0  0  0  0  0  0  0  0  0  0  0  0
  153.6701  144.2620  159.1792 H   0  0  0  0  0  0  0  0  0  0  0  0
  152.7882  144.6195  160.6462 H   0  0  0  0  0  0  0  0  0  0  0  0
  153.6679  142.2782  160.6528 H   0  0  0  0  0  0  0  0  0  0  0  0
  151.9239  142.3079  160.7538 H   0  0  0  0  0  0  0  0  0  0  0  0
  152.6465  140.6068  159.1506 H   0  0  0  0  0  0  0  0  0  0  0  0
  153.5778  141.7701  158.2395 H   0  0  0  0  0  0  0  0  0  0  0  0
  1  2  1  0  0  0  0
  1 25  1  0  0  0  0
  1 26  1  0  0  0  0
  1 27  1  0  0  0  0
  2 23  1  0  0  0  0
  2  3  1  0  0  0  0
  3  4  2  0  0  0  0
  3  5  1  0  0  0  0
  5  6  2  0  0  0  0
  5 28  1  0  0  0  0
  6  7  1  0  0  0  0
  6 29  1  0  0  0  0
  7  8  1  0  0  0  0
  7 23  1  0  0  0  0
  8  9  1  0  0  0  0
  8 30  1  0  0  0  0
  8 31  1  0  0  0  0
  9 10  2  0  0  0  0
  9 11  1  0  0  0  0
 11 12  1  0  0  0  0
 11 32  1  0  0  0  0
 12 13  1  0  0  0  0
 12 17  1  0  0  0  0
 12 33  1  0  0  0  0
 13 14  1  0  0  0  0
 13 34  1  0  0  0  0
 13 35  1  0  0  0  0
 14 15  1  0  0  0  0
 14 16  2  0  0  0  0
 15 36  1  0  0  0  0
 15 37  1  0  0  0  0
 17 22  1  0  0  0  0
 17 18  1  0  0  0  0
 17 38  1  0  0  0  0
 18 19  1  0  0  0  0
 18 39  1  0  0  0  0
 18 40  1  0  0  0  0
 19 20  1  0  0  0  0
 19 41  1  0  0  0  0
 19 42  1  0  0  0  0
 20 21  1  0  0  0  0
 20 43  1  0  0  0  0
 20 44  1  0  0  0  0
 21 22  1  0  0  0  0
 21 45  1  0  0  0  0
 21 46  1  0  0  0  0
 22 47  1  0  0  0  0
 22 48  1  0  0  0  0
 23 24  2  0  0  0  0
M  END
> <s_m_source_file>
AV-unprocessed.smi

> <i_m_source_file_index>
747

> <i_lp_mmshare_version>
43012

> <i_f3d_flags>
0

> <s_epik_input>
W0NIM11uMWMoPU8pW2NIXVtjSF1uKGMxPU8pW0NIMl1DKD1PKVtOSF1bQ0BIXShbQ0gyXUMoPU8pW05IMl0pW0NIXTJbQ0gyXVtDSDJdW0NIMl1bQ0gyXVtDSDJdMg==

> <s_epik_cmdline>
J2VwaWtfcHl0aG9uJywgJy1waCcsICc3LjAnLCAnLXRuJywgJzgnLCAnLW1hJywgJzIwMCcsICctbWV0YWxfYmluZGluZycsICctaW1hZScsICc8aW5maWxlLm1hZT4nLCAnLW9tYWUnLCAnPG91dGZpbGUubWFlPic=

> <r_lp_tautomer_probability>
1

> <r_epik_Ionization_Penalty>
6.11221e-08

> <r_epik_Ionization_Penalty_Charging>
1.14855e-08

> <r_epik_Ionization_Penalty_Neutral>
4.96365e-08

> <r_epik_State_Penalty>
-0

> <r_epik_Charging_Adjusted_Penalty>
1.14855e-08

> <i_epik_Tot_Q>
0

> <i_epik_Tot_abs_Q>
0

> <r_epik_Metal_State_Penalty>
-0

> <b_epik_Metal_Only>
0

> <s_lp_Force_Field>
OPLS_2005

> <r_lp_Energy>
14.8557

> <b_lp_Chiralities_Consistent>
1

> <s_lp_Variant>
AV-unprocessed.smi:747-1

> <Gold.Version>
5.8.1

> <Gold.Id.Protein>
6NUR|6NUR_protein|mol2

> <Gold.PLP.Fitness>
46.2602

> <Gold.PLP.PLP>
-39.0896

> <Gold.PLP.part.hbond>
-2.0000

> <Gold.PLP.part.metal>
0.0000

> <Gold.PLP.part.buried>
-4.4038

> <Gold.PLP.part.nonpolar>
-33.8049

> <Gold.PLP.part.repulsive>
0.5347

> <Gold.PLP.ligand.clash>
0.0000

> <Gold.PLP.ligand.torsion>
0.9927

> <Gold.PLP.Chemscore.Hbond>
2.0000

> <Gold.PLP.Chemscore.CHOScore>
1.0000

> <Gold.PLP.Chemscore.Metal>
0.0000

> <Gold.Chemscore.Hbonds>
donor molecule, donor type, donor heavy atom, donor atom, acceptor molecule, acceptor atom, score
      P1  H  7989  7998       L1    10  1.00
      P1  H  7997  8010       L1    16  0.80
      L1  C     6    29       P1  7957  0.86

> <Gold.PLP.Chemscore.Internal.Correction>
0.1560

> <Gold.Rescore>
     Score         DG    S(hbond)    S(metal)    S(lipo)     H(rot)  DE(clash)    DE(int)     intcor
     13.12     -14.88       1.79        0.00      92.94       2.91       0.08       1.68       ----

> <Gold.Chemscore.Fitness>
13.1217

> <Gold.Chemscore.DG>
-14.8773

> <Gold.Chemscore.ZeroCoef>
-5.4800

> <Gold.Chemscore.Hbond>
1.7900

> <Gold.Chemscore.Metal>
0.0000

> <Gold.Chemscore.Lipo>
92.9392

> <Gold.Chemscore.Internal_Hbond>
0.0000

> <Gold.Chemscore.DEClash>
0.0770

> <Gold.Chemscore.DEInternal>
1.6786

> <Gold.Chemscore.Rot>
2.9122

> <Gold.Chemscore.Internal.Correction>
   9.000000E+99

> <Gold.Chemscore.Hbonds>
donor molecule, donor type, donor heavy atom, donor atom, acceptor molecule, acceptor atom, score
      P1  H  7989  7998       L1    10  0.59
      P1  H  7997  8010       L1    16  0.11

> <Gold.Chemscore.Hbond.Weighted>
-5.9787

> <Gold.Chemscore.Metal.Weighted>
-0.0000

> <Gold.Chemscore.Lipo.Weighted>
-10.8739

> <Gold.Chemscore.Internal_Hbond.Weighted>
0.0000

> <Gold.Chemscore.DEClash.Weighted>
0.0770

> <Gold.Chemscore.DEInternal.Weighted>
1.6786

> <Gold.Chemscore.Rot.Weighted>
7.4553

> <Gold.Chemscore.Internal.Correction.Weighted>
   9.000000E+99

> <Gold.Protein.RotatedTorsions>
[ 6907 6896 6895 6894 ] final -127.88 input  -60.11 | X-H torsion
[ 7974 7965 7964 7962 ] final  -77.89 input  175.53 | X-H torsion
[ 8008 7997 7996 7995 ] final   82.68 input   59.86 | X-H torsion
[ 10167 10162 10161 10158 ] final   91.10 input  -65.29 | X-H torsion
[ 10718 10713 10712 10709 ] final  -48.10 input   66.30 | X-H torsion
[ 10763 10752 10751 10750 ] final  -77.55 input  -60.55 | X-H torsion
[ 11005 11000 10999 10996 ] final  -78.08 input  -57.11 | X-H torsion

> <Gold.Protein.ActiveResidues>
 VAL166  LYS551  ARG553  GLY616  TRP617  ASP618  TYR619  PRO620  LYS621  CYS622 
 ASP623  PHE694  ASN695  SER759  ASP760  ASP761  ALA762  ILE779  LEU786  VAL792 
 PHE793  MET794  SER795  GLU796  ALA797  LYS798  CYS799  TRP800  GLU811  SER814 

> <Gold.Protein.RotatedAtoms>
  150.9120  133.6986  159.2852 H   0  0  0  0  0  0  0  0  0  0  0  0  # atno 6907 bound_to 6896
  151.4469  135.1024  159.9696 H   0  0  0  0  0  0  0  0  0  0  0  0  # atno 6908 bound_to 6896
  152.4935  133.8515  159.7259 H   0  0  0  0  0  0  0  0  0  0  0  0  # atno 6909 bound_to 6896
  145.5937  140.9424  143.1278 H   0  0  0  0  0  0  0  0  0  0  0  0  # atno 7974 bound_to 7965
  155.9138  140.3426  155.6119 H   0  0  0  0  0  0  0  0  0  0  0  0  # atno 8008 bound_to 7997
  155.7356  140.0801  157.2288 H   0  0  0  0  0  0  0  0  0  0  0  0  # atno 8009 bound_to 7997
  154.4059  140.1580  156.2545 H   0  0  0  0  0  0  0  0  0  0  0  0  # atno 8010 bound_to 7997
  139.8408  144.6642  150.9286 H   0  0  0  0  0  0  0  0  0  0  0  0  # atno 10167 bound_to 10162
  156.2020  130.4156  149.9228 H   0  0  0  0  0  0  0  0  0  0  0  0  # atno 10718 bound_to 10713
  154.5144  135.5760  153.6630 H   0  0  0  0  0  0  0  0  0  0  0  0  # atno 10763 bound_to 10752
  152.9904  135.6166  154.2837 H   0  0  0  0  0  0  0  0  0  0  0  0  # atno 10764 bound_to 10752
  154.2753  135.2852  155.2700 H   0  0  0  0  0  0  0  0  0  0  0  0  # atno 10765 bound_to 10752
  141.1663  133.7048  156.7917 H   0  0  0  0  0  0  0  0  0  0  0  0  # atno 11005 bound_to 11000
  144.7340  139.7640  143.7336 LP  0  0  0  0  0  0  0  0  0  0  0  0  # atno 17320 bound_to 7965
  146.1628  139.4748  142.9977 LP  0  0  0  0  0  0  0  0  0  0  0  0  # atno 17321 bound_to 7965
  140.7798  143.3915  151.1303 LP  0  0  0  0  0  0  0  0  0  0  0  0  # atno 17342 bound_to 10162
  139.7561  143.8705  152.3089 LP  0  0  0  0  0  0  0  0  0  0  0  0  # atno 17343 bound_to 10162
  156.6935  130.8905  151.3591 LP  0  0  0  0  0  0  0  0  0  0  0  0  # atno 17370 bound_to 10713
  157.6991  130.9313  150.0731 LP  0  0  0  0  0  0  0  0  0  0  0  0  # atno 17371 bound_to 10713
  140.2320  134.8678  157.3487 LP  0  0  0  0  0  0  0  0  0  0  0  0  # atno 17394 bound_to 11000
  140.1881  134.4406  155.7732 LP  0  0  0  0  0  0  0  0  0  0  0  0  # atno 17395 bound_to 11000

$$$$
