AV-unprocessed.smi:3118|AV-procd|sdf|11886|dock1
  -GOLD-   2272017273D 1   1.00000     0.00000
 Structure written by MMmdl.
 33 34  0  0  0  0  0  0  0  0  2 V2000
  151.1969  140.6082  155.9583 C   0  0  0  0  0  0  0  0  0  0  0  0
  149.9517  141.5050  155.9582 C   0  0  2  0  0  0  0  0  0  0  0  0
  149.4235  141.7283  154.5244 C   0  0  0  0  0  0  0  0  0  0  0  0
  148.3442  140.8032  154.1625 N   0  0  0  0  0  0  0  0  0  0  0  0
  148.4046  139.4339  154.1218 C   0  0  0  0  0  0  0  0  0  0  0  0
  147.1595  138.9988  153.7474 C   0  0  0  0  0  0  0  0  0  0  0  0
  146.3940  140.1199  153.5704 N   0  3  0  0  0  0  0  0  0  0  0  0
  147.1174  141.2165  153.8182 C   0  0  0  0  0  0  0  0  0  0  0  0
  150.2855  142.7757  156.6011 N   0  0  0  0  0  0  0  0  0  0  0  0
  150.9150  142.9191  157.7780 C   0  0  0  0  0  0  0  0  0  0  0  0
  151.2884  141.9672  158.4646 O   0  0  0  0  0  0  0  0  0  0  0  0
  151.1389  144.3617  158.2479 C   0  0  0  0  0  0  0  0  0  0  0  0
  152.5575  144.6661  158.7621 C   0  0  0  0  0  0  0  0  0  0  0  0
  151.9252  145.4128  159.9403 C   0  0  0  0  0  0  0  0  0  0  0  0
  150.6277  144.6452  159.6710 C   0  0  0  0  0  0  0  0  0  0  0  0
  150.9794  139.6348  155.5175 H   0  0  0  0  0  0  0  0  0  0  0  0
  151.5565  140.4345  156.9732 H   0  0  0  0  0  0  0  0  0  0  0  0
  152.0112  141.0566  155.3880 H   0  0  0  0  0  0  0  0  0  0  0  0
  149.1854  140.9891  156.5400 H   0  0  0  0  0  0  0  0  0  0  0  0
  149.0682  142.7518  154.3932 H   0  0  0  0  0  0  0  0  0  0  0  0
  150.2250  141.5784  153.7999 H   0  0  0  0  0  0  0  0  0  0  0  0
  149.3033  138.8851  154.3638 H   0  0  0  0  0  0  0  0  0  0  0  0
  146.7711  138.0016  153.5992 H   0  0  0  0  0  0  0  0  0  0  0  0
  146.7736  142.2340  153.7636 H   0  0  0  0  0  0  0  0  0  0  0  0
  150.0217  143.6154  156.1061 H   0  0  0  0  0  0  0  0  0  0  0  0
  150.7951  145.1119  157.5328 H   0  0  0  0  0  0  0  0  0  0  0  0
  153.1246  143.7882  159.0767 H   0  0  0  0  0  0  0  0  0  0  0  0
  153.1477  145.3019  158.1015 H   0  0  0  0  0  0  0  0  0  0  0  0
  152.3836  145.2078  160.9081 H   0  0  0  0  0  0  0  0  0  0  0  0
  151.8273  146.4839  159.7565 H   0  0  0  0  0  0  0  0  0  0  0  0
  149.7306  145.2634  159.7109 H   0  0  0  0  0  0  0  0  0  0  0  0
  150.5264  143.7560  160.2963 H   0  0  0  0  0  0  0  0  0  0  0  0
  145.4201  140.1213  153.2942 H   0  0  0  0  0  0  0  0  0  0  0  0
  1  2  1  0  0  0  0
  1 16  1  0  0  0  0
  1 17  1  0  0  0  0
  1 18  1  0  0  0  0
  2  3  1  0  0  0  0
  2  9  1  0  0  0  0
  2 19  1  0  0  0  0
  3  4  1  0  0  0  0
  3 20  1  0  0  0  0
  3 21  1  0  0  0  0
  4  8  1  0  0  0  0
  4  5  1  0  0  0  0
  5  6  2  0  0  0  0
  5 22  1  0  0  0  0
  6  7  1  0  0  0  0
  6 23  1  0  0  0  0
  7  8  2  0  0  0  0
  7 33  1  0  0  0  0
  8 24  1  0  0  0  0
  9 10  1  0  0  0  0
  9 25  1  0  0  0  0
 10 11  2  0  0  0  0
 10 12  1  0  0  0  0
 12 15  1  0  0  0  0
 12 13  1  0  0  0  0
 12 26  1  0  0  0  0
 13 14  1  0  0  0  0
 13 27  1  0  0  0  0
 13 28  1  0  0  0  0
 14 15  1  0  0  0  0
 14 29  1  0  0  0  0
 14 30  1  0  0  0  0
 15 31  1  0  0  0  0
 15 32  1  0  0  0  0
M  CHG  1   7   1
M  END
> <s_m_source_file>
AV-unprocessed.smi

> <i_m_source_file_index>
3118

> <i_lp_mmshare_version>
43012

> <i_f3d_flags>
0

> <s_epik_input>
W0NIMl0xW0NIMl1bQ0gyXVtDSF0xQyg9TylbTkhdW0NASF0oW0NIM10pW0NIMl1uMltjSF1bY0hdbltjSF0y

> <s_epik_cmdline>
J2VwaWtfcHl0aG9uJywgJy1waCcsICc3LjAnLCAnLXRuJywgJzgnLCAnLW1hJywgJzIwMCcsICctbWV0YWxfYmluZGluZycsICctaW1hZScsICc8aW5maWxlLm1hZT4nLCAnLW9tYWUnLCAnPG91dGZpbGUubWFlPic=

> <r_lp_tautomer_probability>
1

> <r_epik_Ionization_Penalty>
0.244425

> <r_epik_Ionization_Penalty_Charging>
0

> <r_epik_Ionization_Penalty_Neutral>
0.244425

> <r_epik_State_Penalty>
0.23553

> <r_epik_Charging_Adjusted_Penalty>
0.23553

> <i_epik_Tot_Q>
1

> <i_epik_Tot_abs_Q>
1

> <r_epik_Metal_State_Penalty>
0.5288

> <b_epik_Metal_Only>
0

> <s_lp_Force_Field>
OPLS_2005

> <r_lp_Energy>
13.9066

> <b_lp_Chiralities_Consistent>
1

> <s_lp_Variant>
AV-unprocessed.smi:3118-1

> <Gold.Version>
5.8.1

> <Gold.Id.Protein>
6NUR|6NUR_protein|mol2

> <Gold.PLP.Fitness>
43.7008

> <Gold.PLP.PLP>
-35.8809

> <Gold.PLP.part.hbond>
-2.0000

> <Gold.PLP.part.metal>
0.0000

> <Gold.PLP.part.buried>
-1.7041

> <Gold.PLP.part.nonpolar>
-31.8999

> <Gold.PLP.part.repulsive>
0.0779

> <Gold.PLP.ligand.clash>
0.0000

> <Gold.PLP.ligand.torsion>
0.7996

> <Gold.PLP.Chemscore.Hbond>
3.0000

> <Gold.PLP.Chemscore.CHOScore>
0.0000

> <Gold.PLP.Chemscore.Metal>
0.0000

> <Gold.Chemscore.Hbonds>
donor molecule, donor type, donor heavy atom, donor atom, acceptor molecule, acceptor atom, score
      L1  H     7    33       P1 10175  2.00
      L1  H     9    25       P1  8028  1.00

> <Gold.PLP.Chemscore.Internal.Correction>
0.4189

> <Gold.Rescore>
     Score         DG    S(hbond)    S(metal)    S(lipo)     H(rot)  DE(clash)    DE(int)     intcor
     14.46     -16.68       1.96        0.00      80.43       1.86       0.13       2.10       ----

> <Gold.Chemscore.Fitness>
14.4566

> <Gold.Chemscore.DG>
-16.6835

> <Gold.Chemscore.ZeroCoef>
-5.4800

> <Gold.Chemscore.Hbond>
1.9596

> <Gold.Chemscore.Metal>
0.0000

> <Gold.Chemscore.Lipo>
80.4284

> <Gold.Chemscore.Internal_Hbond>
0.0000

> <Gold.Chemscore.DEClash>
0.1286

> <Gold.Chemscore.DEInternal>
2.0983

> <Gold.Chemscore.Rot>
1.8561

> <Gold.Chemscore.Internal.Correction>
   9.000000E+99

> <Gold.Chemscore.Hbonds>
donor molecule, donor type, donor heavy atom, donor atom, acceptor molecule, acceptor atom, score
      L1  H     7    33       P1 10175  0.99
      L1  H     9    25       P1  8028  0.95

> <Gold.Chemscore.Hbond.Weighted>
-6.5450

> <Gold.Chemscore.Metal.Weighted>
-0.0000

> <Gold.Chemscore.Lipo.Weighted>
-9.4101

> <Gold.Chemscore.Internal_Hbond.Weighted>
0.0000

> <Gold.Chemscore.DEClash.Weighted>
0.1286

> <Gold.Chemscore.DEInternal.Weighted>
2.0983

> <Gold.Chemscore.Rot.Weighted>
4.7516

> <Gold.Chemscore.Internal.Correction.Weighted>
   9.000000E+99

> <Gold.Protein.RotatedTorsions>
[ 6907 6896 6895 6894 ] final  -25.14 input  -60.11 | X-H torsion
[ 7974 7965 7964 7962 ] final   13.53 input  175.53 | X-H torsion
[ 8008 7997 7996 7995 ] final   16.80 input   59.86 | X-H torsion
[ 10167 10162 10161 10158 ] final  128.46 input  -65.29 | X-H torsion
[ 10718 10713 10712 10709 ] final  134.11 input   66.30 | X-H torsion
[ 10763 10752 10751 10750 ] final -175.26 input  -60.55 | X-H torsion
[ 11005 11000 10999 10996 ] final  104.42 input  -57.11 | X-H torsion

> <Gold.Protein.ActiveResidues>
 VAL166  LYS551  ARG553  GLY616  TRP617  ASP618  TYR619  PRO620  LYS621  CYS622 
 ASP623  PHE694  ASN695  SER759  ASP760  ASP761  ALA762  ILE779  LEU786  VAL792 
 PHE793  MET794  SER795  GLU796  ALA797  LYS798  CYS799  TRP800  GLU811  SER814 

> <Gold.Protein.RotatedAtoms>
  151.1794  135.0354  159.8785 H   0  0  0  0  0  0  0  0  0  0  0  0  # atno 6907 bound_to 6896
  152.5445  134.1080  159.8356 H   0  0  0  0  0  0  0  0  0  0  0  0  # atno 6908 bound_to 6896
  151.1195  133.5067  159.2635 H   0  0  0  0  0  0  0  0  0  0  0  0  # atno 6909 bound_to 6896
  146.2327  139.9175  142.8515 H   0  0  0  0  0  0  0  0  0  0  0  0  # atno 7974 bound_to 7965
  154.8822  140.2974  155.5418 H   0  0  0  0  0  0  0  0  0  0  0  0  # atno 8008 bound_to 7997
  156.3022  140.2440  156.3760 H   0  0  0  0  0  0  0  0  0  0  0  0  # atno 8009 bound_to 7997
  154.8705  140.0401  157.1710 H   0  0  0  0  0  0  0  0  0  0  0  0  # atno 8010 bound_to 7997
  139.5526  144.6825  151.4278 H   0  0  0  0  0  0  0  0  0  0  0  0  # atno 10167 bound_to 10162
  157.4705  131.1080  150.9808 H   0  0  0  0  0  0  0  0  0  0  0  0  # atno 10718 bound_to 10713
  154.5864  135.2841  155.0680 H   0  0  0  0  0  0  0  0  0  0  0  0  # atno 10763 bound_to 10752
  154.1997  135.6426  153.5087 H   0  0  0  0  0  0  0  0  0  0  0  0  # atno 10764 bound_to 10752
  153.0106  135.5466  154.6536 H   0  0  0  0  0  0  0  0  0  0  0  0  # atno 10765 bound_to 10752
  139.8792  134.9300  156.5359 H   0  0  0  0  0  0  0  0  0  0  0  0  # atno 11005 bound_to 11000
  145.2169  140.9919  143.4068 LP  0  0  0  0  0  0  0  0  0  0  0  0  # atno 17320 bound_to 7965
  144.9643  139.3947  143.6340 LP  0  0  0  0  0  0  0  0  0  0  0  0  # atno 17321 bound_to 7965
  140.6792  143.8120  150.7099 LP  0  0  0  0  0  0  0  0  0  0  0  0  # atno 17342 bound_to 10162
  140.1568  143.4310  152.2094 LP  0  0  0  0  0  0  0  0  0  0  0  0  # atno 17343 bound_to 10162
  157.0575  130.5812  149.5380 LP  0  0  0  0  0  0  0  0  0  0  0  0  # atno 17370 bound_to 10713
  156.0071  130.5159  150.7866 LP  0  0  0  0  0  0  0  0  0  0  0  0  # atno 17371 bound_to 10713
  140.8346  133.8252  155.9017 LP  0  0  0  0  0  0  0  0  0  0  0  0  # atno 17394 bound_to 11000
  140.9296  134.2039  157.4873 LP  0  0  0  0  0  0  0  0  0  0  0  0  # atno 17395 bound_to 11000

$$$$
