AV-unprocessed.smi:2526|AV-procd|sdf|9940|dock9
  -GOLD-   2272013583D 1   1.00000     0.00000
 Structure written by MMmdl.
 28 29  0  0  0  0  0  0  0  0  1 V2000
  152.2251  145.1632  159.9402 C   0  0  0  0  0  0  0  0  0  0  0  0
  151.8181  144.0853  159.0646 N   0  0  0  0  0  0  0  0  0  0  0  0
  151.7707  142.7340  159.3281 C   0  0  0  0  0  0  0  0  0  0  0  0
  151.3288  142.1046  158.1958 C   0  0  0  0  0  0  0  0  0  0  0  0
  151.0984  140.6280  157.9368 C   0  0  2  0  0  0  0  0  0  0  0  0
  152.1053  140.1022  157.0105 N   0  0  0  0  0  0  0  0  0  0  0  0
  151.9556  139.9102  155.6861 C   0  0  0  0  0  0  0  0  0  0  0  0
  152.9018  139.5741  154.9779 O   0  0  0  0  0  0  0  0  0  0  0  0
  150.5609  140.0650  155.0552 C   0  0  0  0  0  0  0  0  0  0  0  0
  149.5341  140.7774  155.9536 C   0  0  0  0  0  0  0  0  0  0  0  0
  149.6751  140.3190  157.4104 C   0  0  2  0  0  0  0  0  0  0  0  0
  148.6352  140.9009  158.2400 N   0  0  0  0  0  0  0  0  0  0  0  0
  151.1264  143.1842  157.2873 C   0  0  0  0  0  0  0  0  0  0  0  0
  151.4192  144.3644  157.8078 N   0  0  0  0  0  0  0  0  0  0  0  0
  152.5399  144.7631  160.9045 H   0  0  0  0  0  0  0  0  0  0  0  0
  151.3909  145.8479  160.0958 H   0  0  0  0  0  0  0  0  0  0  0  0
  153.0582  145.7070  159.4939 H   0  0  0  0  0  0  0  0  0  0  0  0
  152.0577  142.3336  160.2894 H   0  0  0  0  0  0  0  0  0  0  0  0
  151.2318  140.0784  158.8693 H   0  0  0  0  0  0  0  0  0  0  0  0
  153.0255  139.9469  157.3962 H   0  0  0  0  0  0  0  0  0  0  0  0
  150.6474  140.5860  154.1014 H   0  0  0  0  0  0  0  0  0  0  0  0
  150.2001  139.0616  154.8275 H   0  0  0  0  0  0  0  0  0  0  0  0
  149.6654  141.8580  155.8799 H   0  0  0  0  0  0  0  0  0  0  0  0
  148.5283  140.5673  155.5877 H   0  0  0  0  0  0  0  0  0  0  0  0
  149.5267  139.2385  157.4371 H   0  0  0  0  0  0  0  0  0  0  0  0
  148.1148  140.1672  158.6995 H   0  0  0  0  0  0  0  0  0  0  0  0
  149.0536  141.4601  158.9697 H   0  0  0  0  0  0  0  0  0  0  0  0
  150.7778  143.1420  156.2660 H   0  0  0  0  0  0  0  0  0  0  0  0
  1  2  1  0  0  0  0
  1 15  1  0  0  0  0
  1 16  1  0  0  0  0
  1 17  1  0  0  0  0
  2 14  1  0  0  0  0
  2  3  1  0  0  0  0
  3  4  2  0  0  0  0
  3 18  1  0  0  0  0
  4  5  1  0  0  0  0
  4 13  1  0  0  0  0
  5 11  1  0  0  0  0
  5  6  1  0  0  0  0
  5 19  1  0  0  0  0
  6  7  1  0  0  0  0
  6 20  1  0  0  0  0
  7  8  2  0  0  0  0
  7  9  1  0  0  0  0
  9 10  1  0  0  0  0
  9 21  1  0  0  0  0
  9 22  1  0  0  0  0
 10 11  1  0  0  0  0
 10 23  1  0  0  0  0
 10 24  1  0  0  0  0
 11 12  1  0  0  0  0
 11 25  1  0  0  0  0
 12 26  1  0  0  0  0
 12 27  1  0  0  0  0
 13 14  2  0  0  0  0
 13 28  1  0  0  0  0
M  END
> <s_m_source_file>
AV-unprocessed.smi

> <i_m_source_file_index>
2526

> <i_lp_mmshare_version>
43012

> <i_f3d_flags>
0

> <s_epik_input>
W0NIM11uMVtjSF1jKFtjSF1uMSlbQ0BASF0yW05IXUMoPU8pW0NIMl1bQ0gyXVtDQEhdMltOSDJd

> <s_epik_cmdline>
J2VwaWtfcHl0aG9uJywgJy1waCcsICc3LjAnLCAnLXRuJywgJzgnLCAnLW1hJywgJzIwMCcsICctbWV0YWxfYmluZGluZycsICctaW1hZScsICc8aW5maWxlLm1hZT4nLCAnLW9tYWUnLCAnPG91dGZpbGUubWFlPic=

> <r_lp_tautomer_probability>
1

> <r_epik_Ionization_Penalty>
2.50279

> <r_epik_Ionization_Penalty_Charging>
0

> <r_epik_Ionization_Penalty_Neutral>
2.50279

> <r_epik_State_Penalty>
2.66754

> <r_epik_Charging_Adjusted_Penalty>
2.66754

> <i_epik_Tot_Q>
0

> <i_epik_Tot_abs_Q>
0

> <r_epik_Metal_State_Penalty>
2.66721

> <b_epik_Metal_Only>
0

> <s_lp_Force_Field>
OPLS_2005

> <r_lp_Energy>
9.07017

> <b_lp_Chiralities_Consistent>
1

> <s_lp_Variant>
AV-unprocessed.smi:2526-7

> <Gold.Version>
5.8.1

> <Gold.Id.Protein>
6NUR|6NUR_protein|mol2

> <Gold.PLP.Fitness>
31.9714

> <Gold.PLP.PLP>
-27.0700

> <Gold.PLP.part.hbond>
-2.7935

> <Gold.PLP.part.metal>
0.0000

> <Gold.PLP.part.buried>
-2.2309

> <Gold.PLP.part.nonpolar>
-22.4844

> <Gold.PLP.part.repulsive>
0.2898

> <Gold.PLP.ligand.clash>
0.0000

> <Gold.PLP.ligand.torsion>
0.1449

> <Gold.PLP.Chemscore.Hbond>
1.0000

> <Gold.PLP.Chemscore.CHOScore>
0.7246

> <Gold.PLP.Chemscore.Metal>
0.0000

> <Gold.Chemscore.Hbonds>
donor molecule, donor type, donor heavy atom, donor atom, acceptor molecule, acceptor atom, score
      P1  H  7997  8008       L1     8  1.00
      L1  C    13    28       P1  8028  0.72

> <Gold.PLP.Chemscore.Internal.Correction>
0.0176

> <Gold.Rescore>
     Score         DG    S(hbond)    S(metal)    S(lipo)     H(rot)  DE(clash)    DE(int)     intcor
     12.72     -12.79       0.93        0.00      57.75       1.00       0.06       0.02       ----

> <Gold.Chemscore.Fitness>
12.7184

> <Gold.Chemscore.DG>
-12.7931

> <Gold.Chemscore.ZeroCoef>
-5.4800

> <Gold.Chemscore.Hbond>
0.9330

> <Gold.Chemscore.Metal>
0.0000

> <Gold.Chemscore.Lipo>
57.7518

> <Gold.Chemscore.Internal_Hbond>
0.0000

> <Gold.Chemscore.DEClash>
0.0588

> <Gold.Chemscore.DEInternal>
0.0159

> <Gold.Chemscore.Rot>
1.0000

> <Gold.Chemscore.Internal.Correction>
   9.000000E+99

> <Gold.Chemscore.Hbonds>
donor molecule, donor type, donor heavy atom, donor atom, acceptor molecule, acceptor atom, score
      P1  H  7997  8008       L1     8  0.45

> <Gold.Chemscore.Hbond.Weighted>
-3.1162

> <Gold.Chemscore.Metal.Weighted>
-0.0000

> <Gold.Chemscore.Lipo.Weighted>
-6.7570

> <Gold.Chemscore.Internal_Hbond.Weighted>
0.0000

> <Gold.Chemscore.DEClash.Weighted>
0.0588

> <Gold.Chemscore.DEInternal.Weighted>
0.0159

> <Gold.Chemscore.Rot.Weighted>
2.5600

> <Gold.Chemscore.Internal.Correction.Weighted>
   9.000000E+99

> <Gold.Protein.RotatedTorsions>
[ 6907 6896 6895 6894 ] final -159.15 input  -60.11 | X-H torsion
[ 7974 7965 7964 7962 ] final  -65.70 input  175.53 | X-H torsion
[ 8008 7997 7996 7995 ] final  -18.06 input   59.86 | X-H torsion
[ 10167 10162 10161 10158 ] final  -43.90 input  -65.29 | X-H torsion
[ 10718 10713 10712 10709 ] final  173.38 input   66.30 | X-H torsion
[ 10763 10752 10751 10750 ] final   51.82 input  -60.55 | X-H torsion
[ 11005 11000 10999 10996 ] final  -19.36 input  -57.11 | X-H torsion

> <Gold.Protein.ActiveResidues>
 VAL166  LYS551  ARG553  GLY616  TRP617  ASP618  TYR619  PRO620  LYS621  CYS622 
 ASP623  PHE694  ASN695  SER759  ASP760  ASP761  ALA762  ILE779  LEU786  VAL792 
 PHE793  MET794  SER795  GLU796  ALA797  LYS798  CYS799  TRP800  GLU811  SER814 

> <Gold.Protein.RotatedAtoms>
  151.3292  133.4008  159.2660 H   0  0  0  0  0  0  0  0  0  0  0  0  # atno 6907 bound_to 6896
  150.9970  134.9292  159.7942 H   0  0  0  0  0  0  0  0  0  0  0  0  # atno 6908 bound_to 6896
  152.5264  134.3257  159.9217 H   0  0  0  0  0  0  0  0  0  0  0  0  # atno 6909 bound_to 6896
  145.7510  140.8908  143.0480 H   0  0  0  0  0  0  0  0  0  0  0  0  # atno 7974 bound_to 7965
  154.4933  140.2126  155.9501 H   0  0  0  0  0  0  0  0  0  0  0  0  # atno 8008 bound_to 7997
  156.1336  140.3192  155.8354 H   0  0  0  0  0  0  0  0  0  0  0  0  # atno 8009 bound_to 7997
  155.4251  140.0499  157.3013 H   0  0  0  0  0  0  0  0  0  0  0  0  # atno 8010 bound_to 7997
  140.6917  143.2958  151.3418 H   0  0  0  0  0  0  0  0  0  0  0  0  # atno 10167 bound_to 10162
  156.9651  131.0073  151.2918 H   0  0  0  0  0  0  0  0  0  0  0  0  # atno 10718 bound_to 10713
  152.9786  135.5833  154.4478 H   0  0  0  0  0  0  0  0  0  0  0  0  # atno 10763 bound_to 10752
  154.4071  135.2769  155.2062 H   0  0  0  0  0  0  0  0  0  0  0  0  # atno 10764 bound_to 10752
  154.3868  135.6134  153.5875 H   0  0  0  0  0  0  0  0  0  0  0  0  # atno 10765 bound_to 10752
  140.8359  133.7962  155.9808 H   0  0  0  0  0  0  0  0  0  0  0  0  # atno 11005 bound_to 11000
  144.6850  139.9591  143.7480 LP  0  0  0  0  0  0  0  0  0  0  0  0  # atno 17320 bound_to 7965
  146.0357  139.3375  143.0728 LP  0  0  0  0  0  0  0  0  0  0  0  0  # atno 17321 bound_to 7965
  139.6327  144.0690  152.2490 LP  0  0  0  0  0  0  0  0  0  0  0  0  # atno 17342 bound_to 10162
  140.0170  144.6181  150.7599 LP  0  0  0  0  0  0  0  0  0  0  0  0  # atno 17343 bound_to 10162
  157.5631  130.8259  149.8292 LP  0  0  0  0  0  0  0  0  0  0  0  0  # atno 17370 bound_to 10713
  156.0306  130.3766  150.1699 LP  0  0  0  0  0  0  0  0  0  0  0  0  # atno 17371 bound_to 10713
  140.8948  134.2451  157.5075 LP  0  0  0  0  0  0  0  0  0  0  0  0  # atno 17394 bound_to 11000
  139.8704  134.9678  156.4611 LP  0  0  0  0  0  0  0  0  0  0  0  0  # atno 17395 bound_to 11000

$$$$
