AV-unprocessed.smi:1726|AV-procd|sdf|6957|dock3
  -GOLD-   22720 8173D 1   1.00000     0.00000
 Structure written by MMmdl.
 43 44  0  0  0  0  0  0  0  0  2 V2000
  146.7977  134.3941  153.6583 C   0  0  0  0  0  0  0  0  0  0  0  0
  145.9268  135.5624  153.1736 C   0  0  0  0  0  0  0  0  0  0  0  0
  146.6847  136.8351  153.0704 N   0  3  1  0  0  0  0  0  0  0  0  0
  145.9430  137.8675  152.3005 C   0  0  0  0  0  0  0  0  0  0  0  0
  146.8000  139.1262  152.0871 C   0  0  0  0  0  0  0  0  0  0  0  0
  147.2917  139.6926  153.4251 C   0  0  0  0  0  0  0  0  0  0  0  0
  148.0320  138.6035  154.2165 C   0  0  1  0  0  0  0  0  0  0  0  0
  148.4483  139.1296  155.5133 N   0  0  0  0  0  0  0  0  0  0  0  0
  149.6116  139.7500  155.7573 C   0  0  0  0  0  0  0  0  0  0  0  0
  150.4708  139.9285  154.8945 O   0  0  0  0  0  0  0  0  0  0  0  0
  149.7000  140.1155  157.0493 N   0  0  0  0  0  0  0  0  0  0  0  0
  150.7315  140.8003  157.7143 C   0  0  0  0  0  0  0  0  0  0  0  0
  150.7502  142.1376  157.9552 C   0  0  0  0  0  0  0  0  0  0  0  0
  151.8491  142.7798  158.6574 C   0  0  0  0  0  0  0  0  0  0  0  0
  151.8336  144.2682  158.9702 C   0  0  0  0  0  0  0  0  0  0  0  0
  152.0434  144.4925  160.2681 F   0  0  0  0  0  0  0  0  0  0  0  0
  152.7936  144.8849  158.2821 F   0  0  0  0  0  0  0  0  0  0  0  0
  150.6655  144.8157  158.6343 F   0  0  0  0  0  0  0  0  0  0  0  0
  152.8391  141.9752  159.0864 C   0  0  0  0  0  0  0  0  0  0  0  0
  152.8280  140.6001  158.8423 N   0  0  0  0  0  0  0  0  0  0  0  0
  151.8391  139.9528  158.1860 C   0  0  0  0  0  0  0  0  0  0  0  0
  151.8998  138.7356  158.0152 O   0  0  0  0  0  0  0  0  0  0  0  0
  147.1355  137.3583  154.3876 C   0  0  0  0  0  0  0  0  0  0  0  0
  153.6127  140.0666  159.1876 H   0  0  0  0  0  0  0  0  0  0  0  0
  146.2358  133.4603  153.6264 H   0  0  0  0  0  0  0  0  0  0  0  0
  147.1351  134.5299  154.6853 H   0  0  0  0  0  0  0  0  0  0  0  0
  147.6779  134.2701  153.0270 H   0  0  0  0  0  0  0  0  0  0  0  0
  145.5374  135.2970  152.1897 H   0  0  0  0  0  0  0  0  0  0  0  0
  145.0600  135.6935  153.8231 H   0  0  0  0  0  0  0  0  0  0  0  0
  145.6523  137.4664  151.3288 H   0  0  0  0  0  0  0  0  0  0  0  0
  145.0217  138.1231  152.8269 H   0  0  0  0  0  0  0  0  0  0  0  0
  147.6557  138.8844  151.4551 H   0  0  0  0  0  0  0  0  0  0  0  0
  146.2246  139.8826  151.5522 H   0  0  0  0  0  0  0  0  0  0  0  0
  147.9464  140.5473  153.2495 H   0  0  0  0  0  0  0  0  0  0  0  0
  146.4413  140.0619  154.0001 H   0  0  0  0  0  0  0  0  0  0  0  0
  148.9242  138.3216  153.6532 H   0  0  0  0  0  0  0  0  0  0  0  0
  147.7992  139.0205  156.2791 H   0  0  0  0  0  0  0  0  0  0  0  0
  148.9340  139.8384  157.6461 H   0  0  0  0  0  0  0  0  0  0  0  0
  149.9371  142.7711  157.6416 H   0  0  0  0  0  0  0  0  0  0  0  0
  153.6999  142.3135  159.6441 H   0  0  0  0  0  0  0  0  0  0  0  0
  146.2650  137.5986  155.0004 H   0  0  0  0  0  0  0  0  0  0  0  0
  147.6907  136.5870  154.9201 H   0  0  0  0  0  0  0  0  0  0  0  0
  147.5167  136.6293  152.5358 H   0  0  0  0  0  0  0  0  0  0  0  0
  1  2  1  0  0  0  0
  1 25  1  0  0  0  0
  1 26  1  0  0  0  0
  1 27  1  0  0  0  0
  2  3  1  0  0  0  0
  2 28  1  0  0  0  0
  2 29  1  0  0  0  0
  3 23  1  0  0  0  0
  3  4  1  0  0  0  0
  3 43  1  0  0  0  0
  4  5  1  0  0  0  0
  4 30  1  0  0  0  0
  4 31  1  0  0  0  0
  5  6  1  0  0  0  0
  5 32  1  0  0  0  0
  5 33  1  0  0  0  0
  6  7  1  0  0  0  0
  6 34  1  0  0  0  0
  6 35  1  0  0  0  0
  7  8  1  0  0  0  0
  7 23  1  0  0  0  0
  7 36  1  0  0  0  0
  8  9  1  0  0  0  0
  8 37  1  0  0  0  0
  9 10  2  0  0  0  0
  9 11  1  0  0  0  0
 11 12  1  0  0  0  0
 11 38  1  0  0  0  0
 12 21  1  0  0  0  0
 12 13  2  0  0  0  0
 13 14  1  0  0  0  0
 13 39  1  0  0  0  0
 14 15  1  0  0  0  0
 14 19  2  0  0  0  0
 15 16  1  0  0  0  0
 15 17  1  0  0  0  0
 15 18  1  0  0  0  0
 19 20  1  0  0  0  0
 19 40  1  0  0  0  0
 20 24  1  0  0  0  0
 20 21  1  0  0  0  0
 21 22  2  0  0  0  0
 23 41  1  0  0  0  0
 23 42  1  0  0  0  0
M  CHG  1   3   1
M  END
> <s_m_source_file>
AV-unprocessed.smi

> <i_m_source_file_index>
1726

> <i_lp_mmshare_version>
43012

> <i_f3d_flags>
0

> <s_epik_input>
W0NIM11bQ0gyXU4xW0NIMl1bQ0gyXVtDSDJdW0NASF0oW0NIMl0xKVtOSF1DKD1PKVtOSF1jMltjSF1jKEMoRikoRilGKVtjSF1bbkhdYzI9Tw==

> <s_epik_cmdline>
J2VwaWtfcHl0aG9uJywgJy1waCcsICc3LjAnLCAnLXRuJywgJzgnLCAnLW1hJywgJzIwMCcsICctbWV0YWxfYmluZGluZycsICctaW1hZScsICc8aW5maWxlLm1hZT4nLCAnLW9tYWUnLCAnPG91dGZpbGUubWFlPic=

> <r_lp_tautomer_probability>
1

> <r_epik_Ionization_Penalty>
0.00745721

> <r_epik_Ionization_Penalty_Charging>
0.00743804

> <r_epik_Ionization_Penalty_Neutral>
1.91703e-05

> <r_epik_State_Penalty>
-0

> <r_epik_Charging_Adjusted_Penalty>
0.00743804

> <i_epik_Tot_Q>
1

> <i_epik_Tot_abs_Q>
1

> <r_epik_Metal_State_Penalty>
0.37929

> <b_epik_Metal_Only>
0

> <s_lp_Force_Field>
OPLS_2005

> <r_lp_Energy>
26.7636

> <b_lp_Chiralities_Consistent>
1

> <s_lp_Variant>
AV-unprocessed.smi:1726-1

> <Gold.Version>
5.8.1

> <Gold.Id.Protein>
6NUR|6NUR_protein|mol2

> <Gold.PLP.Fitness>
45.5378

> <Gold.PLP.PLP>
-39.2239

> <Gold.PLP.part.hbond>
-2.0000

> <Gold.PLP.part.metal>
0.0000

> <Gold.PLP.part.buried>
-4.3903

> <Gold.PLP.part.nonpolar>
-34.4812

> <Gold.PLP.part.repulsive>
0.2017

> <Gold.PLP.ligand.clash>
0.0000

> <Gold.PLP.ligand.torsion>
1.3792

> <Gold.PLP.Chemscore.Hbond>
3.0000

> <Gold.PLP.Chemscore.CHOScore>
0.0000

> <Gold.PLP.Chemscore.Metal>
0.0000

> <Gold.Chemscore.Hbonds>
donor molecule, donor type, donor heavy atom, donor atom, acceptor molecule, acceptor atom, score
      L1  H     3    43       P1  7948  2.00
      P1  H  7989  7998       L1    10  0.96

> <Gold.PLP.Chemscore.Internal.Correction>
0.0723

> <Gold.Rescore>
     Score         DG    S(hbond)    S(metal)    S(lipo)     H(rot)  DE(clash)    DE(int)     intcor
     16.75     -18.28       1.99        0.00      80.68       1.29       0.17       1.37       ----

> <Gold.Chemscore.Fitness>
16.7474

> <Gold.Chemscore.DG>
-18.2819

> <Gold.Chemscore.ZeroCoef>
-5.4800

> <Gold.Chemscore.Hbond>
1.9941

> <Gold.Chemscore.Metal>
0.0000

> <Gold.Chemscore.Lipo>
80.6831

> <Gold.Chemscore.Internal_Hbond>
0.0000

> <Gold.Chemscore.DEClash>
0.1664

> <Gold.Chemscore.DEInternal>
1.3680

> <Gold.Chemscore.Rot>
1.2884

> <Gold.Chemscore.Internal.Correction>
   9.000000E+99

> <Gold.Chemscore.Hbonds>
donor molecule, donor type, donor heavy atom, donor atom, acceptor molecule, acceptor atom, score
      L1  H     3    43       P1  7948  0.99
      P1  H  7989  7998       L1    10  0.91

> <Gold.Chemscore.Hbond.Weighted>
-6.6603

> <Gold.Chemscore.Metal.Weighted>
-0.0000

> <Gold.Chemscore.Lipo.Weighted>
-9.4399

> <Gold.Chemscore.Internal_Hbond.Weighted>
0.0000

> <Gold.Chemscore.DEClash.Weighted>
0.1664

> <Gold.Chemscore.DEInternal.Weighted>
1.3680

> <Gold.Chemscore.Rot.Weighted>
3.2983

> <Gold.Chemscore.Internal.Correction.Weighted>
   9.000000E+99

> <Gold.Protein.RotatedTorsions>
[ 6907 6896 6895 6894 ] final   53.67 input  -60.11 | X-H torsion
[ 7974 7965 7964 7962 ] final  101.53 input  175.53 | X-H torsion
[ 8008 7997 7996 7995 ] final   85.55 input   59.86 | X-H torsion
[ 10167 10162 10161 10158 ] final  110.37 input  -65.29 | X-H torsion
[ 10718 10713 10712 10709 ] final -134.70 input   66.30 | X-H torsion
[ 10763 10752 10751 10750 ] final   23.97 input  -60.55 | X-H torsion
[ 11005 11000 10999 10996 ] final  122.47 input  -57.11 | X-H torsion

> <Gold.Protein.ActiveResidues>
 VAL166  LYS551  ARG553  GLY616  TRP617  ASP618  TYR619  PRO620  LYS621  CYS622 
 ASP623  PHE694  ASN695  SER759  ASP760  ASP761  ALA762  ILE779  LEU786  VAL792 
 PHE793  MET794  SER795  GLU796  ALA797  LYS798  CYS799  TRP800  GLU811  SER814 

> <Gold.Protein.RotatedAtoms>
  152.3360  134.7197  160.0276 H   0  0  0  0  0  0  0  0  0  0  0  0  # atno 6907 bound_to 6896
  151.7597  133.3327  159.3422 H   0  0  0  0  0  0  0  0  0  0  0  0  # atno 6908 bound_to 6896
  150.7451  134.6049  159.6100 H   0  0  0  0  0  0  0  0  0  0  0  0  # atno 6909 bound_to 6896
  145.3711  139.2398  143.3455 H   0  0  0  0  0  0  0  0  0  0  0  0  # atno 7974 bound_to 7965
  155.9515  140.3400  155.6412 H   0  0  0  0  0  0  0  0  0  0  0  0  # atno 8008 bound_to 7997
  155.6914  140.0749  157.2465 H   0  0  0  0  0  0  0  0  0  0  0  0  # atno 8009 bound_to 7997
  154.4123  140.1656  156.2078 H   0  0  0  0  0  0  0  0  0  0  0  0  # atno 8010 bound_to 7997
  139.6694  144.7126  151.1716 H   0  0  0  0  0  0  0  0  0  0  0  0  # atno 10167 bound_to 10162
  156.2582  130.7194  151.1118 H   0  0  0  0  0  0  0  0  0  0  0  0  # atno 10718 bound_to 10713
  153.0798  135.6615  154.0068 H   0  0  0  0  0  0  0  0  0  0  0  0  # atno 10763 bound_to 10752
  153.9693  135.2966  155.3430 H   0  0  0  0  0  0  0  0  0  0  0  0  # atno 10764 bound_to 10752
  154.7195  135.5171  153.8861 H   0  0  0  0  0  0  0  0  0  0  0  0  # atno 10765 bound_to 10752
  139.9269  134.9641  156.8113 H   0  0  0  0  0  0  0  0  0  0  0  0  # atno 11005 bound_to 11000
  146.2885  140.4362  142.8748 LP  0  0  0  0  0  0  0  0  0  0  0  0  # atno 17320 bound_to 7965
  144.8576  140.7093  143.6128 LP  0  0  0  0  0  0  0  0  0  0  0  0  # atno 17321 bound_to 7965
  140.7612  143.5868  150.8837 LP  0  0  0  0  0  0  0  0  0  0  0  0  # atno 17342 bound_to 10162
  139.9532  143.6248  152.3023 LP  0  0  0  0  0  0  0  0  0  0  0  0  # atno 17343 bound_to 10162
  157.7241  131.0662  150.6011 LP  0  0  0  0  0  0  0  0  0  0  0  0  # atno 17370 bound_to 10713
  156.6096  130.4376  149.5864 LP  0  0  0  0  0  0  0  0  0  0  0  0  # atno 17371 bound_to 10713
  140.6310  133.9906  155.7662 LP  0  0  0  0  0  0  0  0  0  0  0  0  # atno 17394 bound_to 11000
  141.0833  134.0029  157.3352 LP  0  0  0  0  0  0  0  0  0  0  0  0  # atno 17395 bound_to 11000

$$$$
