AV-unprocessed.smi:3231|AV-procd|sdf|12337|dock7
  -GOLD-   2272018193D 1   1.00000     0.00000
 Structure written by MMmdl.
 40 41  0  0  0  0  0  0  0  0  1 V2000
  145.8233  138.9108  151.9495 O   0  0  0  0  0  0  0  0  0  0  0  0
  146.9062  138.6895  152.8294 C   0  0  2  0  0  0  0  0  0  0  0  0
  146.4723  137.5993  153.8233 C   0  0  0  0  0  0  0  0  0  0  0  0
  146.9258  136.2798  153.3956 N   0  0  0  0  0  0  0  0  0  0  0  0
  145.8457  135.3061  153.2624 C   0  0  0  0  0  0  0  0  0  0  0  0
  146.3881  133.9005  152.9582 C   0  0  0  0  0  0  0  0  0  0  0  0
  145.5639  133.1876  151.9989 N   0  0  0  0  0  0  0  0  0  0  0  0
  145.7664  131.9351  151.4583 C   0  0  0  0  0  0  0  0  0  0  0  0
  144.7263  131.6863  150.6093 C   0  0  0  0  0  0  0  0  0  0  0  0
  143.9289  132.8615  150.6985 C   0  0  0  0  0  0  0  0  0  0  0  0
  144.4335  133.7588  151.5299 N   0  0  0  0  0  0  0  0  0  0  0  0
  147.2355  140.0249  153.5333 C   0  0  0  0  0  0  0  0  0  0  0  0
  148.4303  140.0189  154.3792 N   0  0  0  0  0  0  0  0  0  0  0  0
  149.4269  139.0863  153.8630 C   0  0  0  0  0  0  0  0  0  0  0  0
  150.6943  139.0560  154.7342 C   0  0  0  0  0  0  0  0  0  0  0  0
  151.2375  140.3684  154.8289 O   0  0  0  0  0  0  0  0  0  0  0  0
  150.3130  141.3053  155.3714 C   0  0  0  0  0  0  0  0  0  0  0  0
  149.0414  141.3410  154.5056 C   0  0  0  0  0  0  0  0  0  0  0  0
  145.1551  139.3925  152.4124 H   0  0  0  0  0  0  0  0  0  0  0  0
  147.7501  138.3193  152.2481 H   0  0  0  0  0  0  0  0  0  0  0  0
  146.8557  137.8269  154.8188 H   0  0  0  0  0  0  0  0  0  0  0  0
  145.3843  137.5963  153.9022 H   0  0  0  0  0  0  0  0  0  0  0  0
  147.4273  136.3590  152.5166 H   0  0  0  0  0  0  0  0  0  0  0  0
  145.2445  135.2817  154.1722 H   0  0  0  0  0  0  0  0  0  0  0  0
  145.1764  135.6101  152.4570 H   0  0  0  0  0  0  0  0  0  0  0  0
  147.3986  133.9728  152.5540 H   0  0  0  0  0  0  0  0  0  0  0  0
  146.4596  133.3088  153.8719 H   0  0  0  0  0  0  0  0  0  0  0  0
  146.6222  131.3319  151.7224 H   0  0  0  0  0  0  0  0  0  0  0  0
  144.5598  130.7999  150.0154 H   0  0  0  0  0  0  0  0  0  0  0  0
  143.0049  133.0876  150.1870 H   0  0  0  0  0  0  0  0  0  0  0  0
  147.3429  140.7923  152.7652 H   0  0  0  0  0  0  0  0  0  0  0  0
  146.3812  140.3349  154.1370 H   0  0  0  0  0  0  0  0  0  0  0  0
  149.0031  138.0828  153.8121 H   0  0  0  0  0  0  0  0  0  0  0  0
  149.6982  139.3620  152.8426 H   0  0  0  0  0  0  0  0  0  0  0  0
  150.4691  138.6744  155.7314 H   0  0  0  0  0  0  0  0  0  0  0  0
  151.4400  138.3922  154.2970 H   0  0  0  0  0  0  0  0  0  0  0  0
  150.0715  141.0336  156.4002 H   0  0  0  0  0  0  0  0  0  0  0  0
  150.7794  142.2901  155.4013 H   0  0  0  0  0  0  0  0  0  0  0  0
  149.2894  141.7308  153.5171 H   0  0  0  0  0  0  0  0  0  0  0  0
  148.3411  142.0446  154.9530 H   0  0  0  0  0  0  0  0  0  0  0  0
  1  2  1  0  0  0  0
  1 19  1  0  0  0  0
  2  3  1  0  0  0  0
  2 12  1  0  0  0  0
  2 20  1  0  0  0  0
  3  4  1  0  0  0  0
  3 21  1  0  0  0  0
  3 22  1  0  0  0  0
  4  5  1  0  0  0  0
  4 23  1  0  0  0  0
  5  6  1  0  0  0  0
  5 24  1  0  0  0  0
  5 25  1  0  0  0  0
  6  7  1  0  0  0  0
  6 26  1  0  0  0  0
  6 27  1  0  0  0  0
  7 11  1  0  0  0  0
  7  8  1  0  0  0  0
  8  9  2  0  0  0  0
  8 28  1  0  0  0  0
  9 10  1  0  0  0  0
  9 29  1  0  0  0  0
 10 11  2  0  0  0  0
 10 30  1  0  0  0  0
 12 13  1  0  0  0  0
 12 31  1  0  0  0  0
 12 32  1  0  0  0  0
 13 18  1  0  0  0  0
 13 14  1  0  0  0  0
 14 15  1  0  0  0  0
 14 33  1  0  0  0  0
 14 34  1  0  0  0  0
 15 16  1  0  0  0  0
 15 35  1  0  0  0  0
 15 36  1  0  0  0  0
 16 17  1  0  0  0  0
 17 18  1  0  0  0  0
 17 37  1  0  0  0  0
 17 38  1  0  0  0  0
 18 39  1  0  0  0  0
 18 40  1  0  0  0  0
M  END
> <s_m_source_file>
AV-unprocessed.smi

> <i_m_source_file_index>
3231

> <i_lp_mmshare_version>
43012

> <i_f3d_flags>
0

> <s_epik_input>
W0NIMl0xW0NIMl1PW0NIMl1bQ0gyXU4xW0NIMl1bQ0BIXShbT0hdKVtDSDJdW05IXVtDSDJdW0NIMl1uMltjSF1bY0hdW2NIXW4y

> <s_epik_cmdline>
J2VwaWtfcHl0aG9uJywgJy1waCcsICc3LjAnLCAnLXRuJywgJzgnLCAnLW1hJywgJzIwMCcsICctbWV0YWxfYmluZGluZycsICctaW1hZScsICc8aW5maWxlLm1hZT4nLCAnLW9tYWUnLCAnPG91dGZpbGUubWFlPic=

> <r_lp_tautomer_probability>
1

> <r_epik_Ionization_Penalty>
2.37071

> <r_epik_Ionization_Penalty_Charging>
0

> <r_epik_Ionization_Penalty_Neutral>
2.37071

> <r_epik_State_Penalty>
1.72455

> <r_epik_Charging_Adjusted_Penalty>
1.72455

> <i_epik_Tot_Q>
0

> <i_epik_Tot_abs_Q>
0

> <r_epik_Metal_State_Penalty>
1.72366

> <b_epik_Metal_Only>
0

> <s_lp_Force_Field>
OPLS_2005

> <r_lp_Energy>
31.2728

> <b_lp_Chiralities_Consistent>
1

> <s_lp_Variant>
AV-unprocessed.smi:3231-7

> <Gold.Version>
5.8.1

> <Gold.Id.Protein>
6NUR|6NUR_protein|mol2

> <Gold.PLP.Fitness>
45.4692

> <Gold.PLP.PLP>
-33.8379

> <Gold.PLP.part.hbond>
-3.5776

> <Gold.PLP.part.metal>
0.0000

> <Gold.PLP.part.buried>
-4.8017

> <Gold.PLP.part.nonpolar>
-26.7689

> <Gold.PLP.part.repulsive>
0.2777

> <Gold.PLP.ligand.clash>
0.0000

> <Gold.PLP.ligand.torsion>
1.4948

> <Gold.PLP.Chemscore.Hbond>
2.8160

> <Gold.PLP.Chemscore.CHOScore>
2.0000

> <Gold.PLP.Chemscore.Metal>
0.0000

> <Gold.Chemscore.Hbonds>
donor molecule, donor type, donor heavy atom, donor atom, acceptor molecule, acceptor atom, score
      L1  H     1    19       P1 10175  1.00
      L1  H     4    23       P1  7948  0.86
      P1  H  7989  7998       L1    16  0.86
      L1  C     8    28       P1 10747  0.31
      L1  C    10    30       P1 10186  1.00

> <Gold.PLP.Chemscore.Internal.Correction>
0.1728

> <Gold.Rescore>
     Score         DG    S(hbond)    S(metal)    S(lipo)     H(rot)  DE(clash)    DE(int)     intcor
     13.97     -15.94       2.33        0.00      82.28       2.72       0.53       1.44       ----

> <Gold.Chemscore.Fitness>
13.9710

> <Gold.Chemscore.DG>
-15.9401

> <Gold.Chemscore.ZeroCoef>
-5.4800

> <Gold.Chemscore.Hbond>
2.3330

> <Gold.Chemscore.Metal>
0.0000

> <Gold.Chemscore.Lipo>
82.2803

> <Gold.Chemscore.Internal_Hbond>
0.0000

> <Gold.Chemscore.DEClash>
0.5340

> <Gold.Chemscore.DEInternal>
1.4351

> <Gold.Chemscore.Rot>
2.7183

> <Gold.Chemscore.Internal.Correction>
   9.000000E+99

> <Gold.Chemscore.Hbonds>
donor molecule, donor type, donor heavy atom, donor atom, acceptor molecule, acceptor atom, score
      L1  H     1    19       P1 10175  0.96
      L1  H     4    23       P1  7948  0.85
      P1  H  7989  7998       L1    16  0.39

> <Gold.Chemscore.Hbond.Weighted>
-7.7922

> <Gold.Chemscore.Metal.Weighted>
-0.0000

> <Gold.Chemscore.Lipo.Weighted>
-9.6268

> <Gold.Chemscore.Internal_Hbond.Weighted>
0.0000

> <Gold.Chemscore.DEClash.Weighted>
0.5340

> <Gold.Chemscore.DEInternal.Weighted>
1.4351

> <Gold.Chemscore.Rot.Weighted>
6.9589

> <Gold.Chemscore.Internal.Correction.Weighted>
   9.000000E+99

> <Gold.Protein.RotatedTorsions>
[ 6907 6896 6895 6894 ] final    8.49 input  -60.11 | X-H torsion
[ 7974 7965 7964 7962 ] final  -42.07 input  175.53 | X-H torsion
[ 8008 7997 7996 7995 ] final  179.02 input   59.86 | X-H torsion
[ 10167 10162 10161 10158 ] final  -14.42 input  -65.29 | X-H torsion
[ 10718 10713 10712 10709 ] final   14.79 input   66.30 | X-H torsion
[ 10763 10752 10751 10750 ] final  102.37 input  -60.55 | X-H torsion
[ 11005 11000 10999 10996 ] final  124.37 input  -57.11 | X-H torsion

> <Gold.Protein.ActiveResidues>
 VAL166  LYS551  ARG553  GLY616  TRP617  ASP618  TYR619  PRO620  LYS621  CYS622 
 ASP623  PHE694  ASN695  SER759  ASP760  ASP761  ALA762  ILE779  LEU786  VAL792 
 PHE793  MET794  SER795  GLU796  ALA797  LYS798  CYS799  TRP800  GLU811  SER814 

> <Gold.Protein.RotatedAtoms>
  151.7069  135.0920  160.0260 H   0  0  0  0  0  0  0  0  0  0  0  0  # atno 6907 bound_to 6896
  152.3686  133.6384  159.6078 H   0  0  0  0  0  0  0  0  0  0  0  0  # atno 6908 bound_to 6896
  150.7656  133.9224  159.3443 H   0  0  0  0  0  0  0  0  0  0  0  0  # atno 6909 bound_to 6896
  146.0151  140.6918  142.9205 H   0  0  0  0  0  0  0  0  0  0  0  0  # atno 7974 bound_to 7965
  156.0481  140.1319  157.0081 H   0  0  0  0  0  0  0  0  0  0  0  0  # atno 8008 bound_to 7997
  154.4422  140.1016  156.6406 H   0  0  0  0  0  0  0  0  0  0  0  0  # atno 8009 bound_to 7997
  155.5565  140.3464  155.4483 H   0  0  0  0  0  0  0  0  0  0  0  0  # atno 8010 bound_to 7997
  140.7201  143.5324  150.9505 H   0  0  0  0  0  0  0  0  0  0  0  0  # atno 10167 bound_to 10162
  157.0442  130.6243  149.5756 H   0  0  0  0  0  0  0  0  0  0  0  0  # atno 10718 bound_to 10713
  153.3387  135.4013  155.1554 H   0  0  0  0  0  0  0  0  0  0  0  0  # atno 10763 bound_to 10752
  154.8639  135.3628  154.5374 H   0  0  0  0  0  0  0  0  0  0  0  0  # atno 10764 bound_to 10752
  153.5818  135.7076  153.5520 H   0  0  0  0  0  0  0  0  0  0  0  0  # atno 10765 bound_to 10752
  139.9355  134.9639  156.8399 H   0  0  0  0  0  0  0  0  0  0  0  0  # atno 11005 bound_to 11000
  144.6968  140.3466  143.7189 LP  0  0  0  0  0  0  0  0  0  0  0  0  # atno 17320 bound_to 7965
  145.7282  139.1728  143.2446 LP  0  0  0  0  0  0  0  0  0  0  0  0  # atno 17321 bound_to 7965
  139.9044  143.6796  152.3126 LP  0  0  0  0  0  0  0  0  0  0  0  0  # atno 17342 bound_to 10162
  139.7157  144.7612  151.1038 LP  0  0  0  0  0  0  0  0  0  0  0  0  # atno 17343 bound_to 10162
  156.0028  130.5110  150.7725 LP  0  0  0  0  0  0  0  0  0  0  0  0  # atno 17370 bound_to 10713
  157.5081  131.0923  151.0232 LP  0  0  0  0  0  0  0  0  0  0  0  0  # atno 17371 bound_to 10713
  140.6086  134.0104  155.7567 LP  0  0  0  0  0  0  0  0  0  0  0  0  # atno 17394 bound_to 11000
  141.0967  133.9832  157.3148 LP  0  0  0  0  0  0  0  0  0  0  0  0  # atno 17395 bound_to 11000

$$$$
