AV-unprocessed.smi:1958|AV-procd|sdf|7906|dock10
  -GOLD-   2272010 63D 1   1.00000     0.00000
 Structure written by MMmdl.
 47 48  0  0  0  0  0  0  0  0  1 V2000
  149.0962  141.9724  156.6009 C   0  0  0  0  0  0  0  0  0  0  0  0
  150.4552  142.3161  156.3965 O   0  0  0  0  0  0  0  0  0  0  0  0
  151.2788  141.9531  157.4929 C   0  0  0  0  0  0  0  0  0  0  0  0
  151.5945  143.2026  158.3314 C   0  0  0  0  0  0  0  0  0  0  0  0
  152.4262  142.8812  159.4967 N   0  0  0  0  0  0  0  0  0  0  0  0
  153.4289  141.9626  159.2364 N   0  0  0  0  0  0  0  0  0  0  0  0
  154.2217  141.5783  160.1840 C   0  0  0  0  0  0  0  0  0  0  0  0
  155.3081  140.5884  159.9455 C   0  0  0  0  0  0  0  0  0  0  0  0
  156.0340  140.1860  160.8563 O   0  0  0  0  0  0  0  0  0  0  0  0
  155.4389  140.1800  158.6709 N   0  0  0  0  0  0  0  0  0  0  0  0
  156.4493  139.2549  158.1629 C   0  0  0  0  0  0  0  0  0  0  0  0
  156.0065  137.7725  158.2819 C   0  0  2  0  0  0  0  0  0  0  0  0
  154.5522  137.6521  157.7733 C   0  0  0  0  0  0  0  0  0  0  0  0
  156.2111  137.1911  159.6270 N   0  0  0  0  0  0  0  0  0  0  0  0
  157.5571  137.4444  160.1497 C   0  0  0  0  0  0  0  0  0  0  0  0
  157.7732  136.8322  161.5442 C   0  0  0  0  0  0  0  0  0  0  0  0
  157.5198  135.4343  161.4963 O   0  0  0  0  0  0  0  0  0  0  0  0
  156.2002  135.1411  161.0559 C   0  0  0  0  0  0  0  0  0  0  0  0
  155.9728  135.7454  159.6594 C   0  0  0  0  0  0  0  0  0  0  0  0
  154.0810  142.1051  161.5309 C   0  0  0  0  0  0  0  0  0  0  0  0
  153.0981  143.0010  161.7697 C   0  0  0  0  0  0  0  0  0  0  0  0
  152.1837  143.4470  160.7175 C   0  0  0  0  0  0  0  0  0  0  0  0
  151.2754  144.2543  160.9128 O   0  0  0  0  0  0  0  0  0  0  0  0
  148.5076  142.2749  155.7347 H   0  0  0  0  0  0  0  0  0  0  0  0
  148.6890  142.4779  157.4774 H   0  0  0  0  0  0  0  0  0  0  0  0
  148.9764  140.8959  156.7298 H   0  0  0  0  0  0  0  0  0  0  0  0
  150.7570  141.2222  158.1119 H   0  0  0  0  0  0  0  0  0  0  0  0
  152.1977  141.4813  157.1417 H   0  0  0  0  0  0  0  0  0  0  0  0
  152.0881  143.9484  157.7055 H   0  0  0  0  0  0  0  0  0  0  0  0
  150.6641  143.6716  158.6565 H   0  0  0  0  0  0  0  0  0  0  0  0
  154.8010  140.5666  157.9900 H   0  0  0  0  0  0  0  0  0  0  0  0
  156.7082  139.4928  157.1299 H   0  0  0  0  0  0  0  0  0  0  0  0
  157.3702  139.4259  158.7195 H   0  0  0  0  0  0  0  0  0  0  0  0
  156.6231  137.2123  157.5772 H   0  0  0  0  0  0  0  0  0  0  0  0
  154.4139  138.1950  156.8382 H   0  0  0  0  0  0  0  0  0  0  0  0
  153.8405  138.0539  158.4952 H   0  0  0  0  0  0  0  0  0  0  0  0
  154.2753  136.6187  157.5675 H   0  0  0  0  0  0  0  0  0  0  0  0
  158.3027  137.0454  159.4604 H   0  0  0  0  0  0  0  0  0  0  0  0
  157.7424  138.5143  160.2296 H   0  0  0  0  0  0  0  0  0  0  0  0
  158.7987  136.9966  161.8752 H   0  0  0  0  0  0  0  0  0  0  0  0
  157.1195  137.3044  162.2792 H   0  0  0  0  0  0  0  0  0  0  0  0
  156.0668  134.0596  161.0265 H   0  0  0  0  0  0  0  0  0  0  0  0
  155.4746  135.5345  161.7696 H   0  0  0  0  0  0  0  0  0  0  0  0
  154.9474  135.5207  159.3695 H   0  0  0  0  0  0  0  0  0  0  0  0
  156.6220  135.2468  158.9380 H   0  0  0  0  0  0  0  0  0  0  0  0
  154.7414  141.7937  162.3272 H   0  0  0  0  0  0  0  0  0  0  0  0
  152.9816  143.4005  162.7666 H   0  0  0  0  0  0  0  0  0  0  0  0
  1  2  1  0  0  0  0
  1 24  1  0  0  0  0
  1 25  1  0  0  0  0
  1 26  1  0  0  0  0
  2  3  1  0  0  0  0
  3  4  1  0  0  0  0
  3 27  1  0  0  0  0
  3 28  1  0  0  0  0
  4  5  1  0  0  0  0
  4 29  1  0  0  0  0
  4 30  1  0  0  0  0
  5 22  1  0  0  0  0
  5  6  1  0  0  0  0
  6  7  2  0  0  0  0
  7  8  1  0  0  0  0
  7 20  1  0  0  0  0
  8  9  2  0  0  0  0
  8 10  1  0  0  0  0
 10 11  1  0  0  0  0
 10 31  1  0  0  0  0
 11 12  1  0  0  0  0
 11 32  1  0  0  0  0
 11 33  1  0  0  0  0
 12 13  1  0  0  0  0
 12 14  1  0  0  0  0
 12 34  1  0  0  0  0
 13 35  1  0  0  0  0
 13 36  1  0  0  0  0
 13 37  1  0  0  0  0
 14 19  1  0  0  0  0
 14 15  1  0  0  0  0
 15 16  1  0  0  0  0
 15 38  1  0  0  0  0
 15 39  1  0  0  0  0
 16 17  1  0  0  0  0
 16 40  1  0  0  0  0
 16 41  1  0  0  0  0
 17 18  1  0  0  0  0
 18 19  1  0  0  0  0
 18 42  1  0  0  0  0
 18 43  1  0  0  0  0
 19 44  1  0  0  0  0
 19 45  1  0  0  0  0
 20 21  2  0  0  0  0
 20 46  1  0  0  0  0
 21 22  1  0  0  0  0
 21 47  1  0  0  0  0
 22 23  2  0  0  0  0
M  END
> <s_m_source_file>
AV-unprocessed.smi

> <i_m_source_file_index>
1958

> <i_lp_mmshare_version>
43012

> <i_f3d_flags>
0

> <s_epik_input>
W0NIM11PW0NIMl1bQ0gyXW4xbmMoW2NIXVtjSF1jMT1PKUMoPU8pW05IXVtDSDJdW0NASF0oW0NIM10pTjJbQ0gyXVtDSDJdT1tDSDJdW0NIMl0y

> <s_epik_cmdline>
J2VwaWtfcHl0aG9uJywgJy1waCcsICc3LjAnLCAnLXRuJywgJzgnLCAnLW1hJywgJzIwMCcsICctbWV0YWxfYmluZGluZycsICctaW1hZScsICc8aW5maWxlLm1hZT4nLCAnLW9tYWUnLCAnPG91dGZpbGUubWFlPic=

> <r_lp_tautomer_probability>
1

> <r_epik_Ionization_Penalty>
0.206669

> <r_epik_Ionization_Penalty_Charging>
5.75808e-09

> <r_epik_Ionization_Penalty_Neutral>
0.206669

> <r_epik_State_Penalty>
0.196651

> <r_epik_Charging_Adjusted_Penalty>
0.196651

> <i_epik_Tot_Q>
0

> <i_epik_Tot_abs_Q>
0

> <r_epik_Metal_State_Penalty>
0.198415

> <b_epik_Metal_Only>
0

> <s_lp_Force_Field>
OPLS_2005

> <r_lp_Energy>
53.7992

> <b_lp_Chiralities_Consistent>
1

> <s_lp_Variant>
AV-unprocessed.smi:1958-1

> <Gold.Version>
5.8.1

> <Gold.Id.Protein>
6NUR|6NUR_protein|mol2

> <Gold.PLP.Fitness>
44.6704

> <Gold.PLP.PLP>
-46.4748

> <Gold.PLP.part.hbond>
-1.3495

> <Gold.PLP.part.metal>
0.0000

> <Gold.PLP.part.buried>
-7.9558

> <Gold.PLP.part.nonpolar>
-37.1786

> <Gold.PLP.part.repulsive>
0.4289

> <Gold.PLP.ligand.clash>
0.0000

> <Gold.PLP.ligand.torsion>
0.9668

> <Gold.PLP.Chemscore.Hbond>
0.0000

> <Gold.PLP.Chemscore.CHOScore>
0.0000

> <Gold.PLP.Chemscore.Metal>
0.0000

> <Gold.PLP.Chemscore.Internal.Correction>
0.1294

> <Gold.Rescore>
     Score         DG    S(hbond)    S(metal)    S(lipo)     H(rot)  DE(clash)    DE(int)     intcor
     11.26     -12.16       0.00        0.00     101.78       2.04       0.09       0.82       ----

> <Gold.Chemscore.Fitness>
11.2561

> <Gold.Chemscore.DG>
-12.1628

> <Gold.Chemscore.ZeroCoef>
-5.4800

> <Gold.Chemscore.Hbond>
0.0000

> <Gold.Chemscore.Metal>
0.0000

> <Gold.Chemscore.Lipo>
101.7821

> <Gold.Chemscore.Internal_Hbond>
0.0000

> <Gold.Chemscore.DEClash>
0.0900

> <Gold.Chemscore.DEInternal>
0.8168

> <Gold.Chemscore.Rot>
2.0413

> <Gold.Chemscore.Internal.Correction>
   9.000000E+99

> <Gold.Chemscore.Hbond.Weighted>
-0.0000

> <Gold.Chemscore.Metal.Weighted>
-0.0000

> <Gold.Chemscore.Lipo.Weighted>
-11.9085

> <Gold.Chemscore.Internal_Hbond.Weighted>
0.0000

> <Gold.Chemscore.DEClash.Weighted>
0.0900

> <Gold.Chemscore.DEInternal.Weighted>
0.8168

> <Gold.Chemscore.Rot.Weighted>
5.2257

> <Gold.Chemscore.Internal.Correction.Weighted>
   9.000000E+99

> <Gold.Protein.RotatedTorsions>
[ 6907 6896 6895 6894 ] final -105.33 input  -60.11 | X-H torsion
[ 7974 7965 7964 7962 ] final  107.26 input  175.53 | X-H torsion
[ 8008 7997 7996 7995 ] final  109.66 input   59.86 | X-H torsion
[ 10167 10162 10161 10158 ] final  108.86 input  -65.29 | X-H torsion
[ 10718 10713 10712 10709 ] final  -95.46 input   66.30 | X-H torsion
[ 10763 10752 10751 10750 ] final   46.41 input  -60.55 | X-H torsion
[ 11005 11000 10999 10996 ] final   -1.21 input  -57.11 | X-H torsion

> <Gold.Protein.ActiveResidues>
 VAL166  LYS551  ARG553  GLY616  TRP617  ASP618  TYR619  PRO620  LYS621  CYS622 
 ASP623  PHE694  ASN695  SER759  ASP760  ASP761  ALA762  ILE779  LEU786  VAL792 
 PHE793  MET794  SER795  GLU796  ALA797  LYS798  CYS799  TRP800  GLU811  SER814 

> <Gold.Protein.RotatedAtoms>
  150.7331  134.0143  159.3679 H   0  0  0  0  0  0  0  0  0  0  0  0  # atno 6907 bound_to 6896
  151.8105  135.0680  160.0421 H   0  0  0  0  0  0  0  0  0  0  0  0  # atno 6908 bound_to 6896
  152.3076  133.5683  159.5696 H   0  0  0  0  0  0  0  0  0  0  0  0  # atno 6909 bound_to 6896
  145.2960  139.2585  143.3839 H   0  0  0  0  0  0  0  0  0  0  0  0  # atno 7974 bound_to 7965
  156.1996  140.3053  155.9498 H   0  0  0  0  0  0  0  0  0  0  0  0  # atno 8008 bound_to 7997
  155.2985  140.0445  157.3045 H   0  0  0  0  0  0  0  0  0  0  0  0  # atno 8009 bound_to 7997
  154.5553  140.2304  155.8428 H   0  0  0  0  0  0  0  0  0  0  0  0  # atno 8010 bound_to 7997
  139.6812  144.7118  151.1512 H   0  0  0  0  0  0  0  0  0  0  0  0  # atno 10167 bound_to 10162
  156.0044  130.5110  150.6079 H   0  0  0  0  0  0  0  0  0  0  0  0  # atno 10718 bound_to 10713
  152.9811  135.6009  154.3595 H   0  0  0  0  0  0  0  0  0  0  0  0  # atno 10763 bound_to 10752
  154.3278  135.2769  155.2489 H   0  0  0  0  0  0  0  0  0  0  0  0  # atno 10764 bound_to 10752
  154.4626  135.5962  153.6322 H   0  0  0  0  0  0  0  0  0  0  0  0  # atno 10765 bound_to 10752
  140.6448  133.9457  155.8346 H   0  0  0  0  0  0  0  0  0  0  0  0  # atno 11005 bound_to 11000
  146.3168  140.3462  142.8652 LP  0  0  0  0  0  0  0  0  0  0  0  0  # atno 17320 bound_to 7965
  144.9133  140.7783  143.5794 LP  0  0  0  0  0  0  0  0  0  0  0  0  # atno 17321 bound_to 7965
  140.7653  143.5697  150.9009 LP  0  0  0  0  0  0  0  0  0  0  0  0  # atno 17342 bound_to 10162
  139.9369  143.6428  152.3063 LP  0  0  0  0  0  0  0  0  0  0  0  0  # atno 17343 bound_to 10162
  157.3917  131.0796  151.1388 LP  0  0  0  0  0  0  0  0  0  0  0  0  # atno 17370 bound_to 10713
  157.2078  130.6424  149.5762 LP  0  0  0  0  0  0  0  0  0  0  0  0  # atno 17371 bound_to 10713
  141.0580  134.0388  157.3696 LP  0  0  0  0  0  0  0  0  0  0  0  0  # atno 17394 bound_to 11000
  139.9067  135.0181  156.7516 LP  0  0  0  0  0  0  0  0  0  0  0  0  # atno 17395 bound_to 11000

$$$$
