AV-unprocessed.smi:1754|AV-procd|sdf|7066|dock1
  -GOLD-   22720 8283D 1   1.00000     0.00000
 Structure written by MMmdl.
 44 45  0  0  0  0  0  0  0  0  1 V2000
  152.9912  142.4131  160.4421 C   0  0  0  0  0  0  0  0  0  0  0  0
  153.0629  142.5023  158.9094 C   0  0  0  0  0  0  0  0  0  0  0  0
  151.7452  142.4761  158.2697 N   0  0  0  0  0  0  0  0  0  0  0  0
  151.1895  143.7601  157.8427 C   0  0  0  0  0  0  0  0  0  0  0  0
  151.2501  144.8329  158.9409 C   0  0  0  0  0  0  0  0  0  0  0  0
  151.4196  141.3849  157.4331 C   0  0  0  0  0  0  0  0  0  0  0  0
  150.4587  141.5425  156.4076 C   0  0  0  0  0  0  0  0  0  0  0  0
  150.1549  140.4505  155.5725 C   0  0  0  0  0  0  0  0  0  0  0  0
  150.8176  139.2193  155.7866 C   0  0  0  0  0  0  0  0  0  0  0  0
  150.6171  138.0451  155.0108 N   0  0  0  0  0  0  0  0  0  0  0  0
  151.1947  136.8335  155.1337 C   0  0  0  0  0  0  0  0  0  0  0  0
  152.0465  136.5424  155.9699 O   0  0  0  0  0  0  0  0  0  0  0  0
  150.7770  135.9298  154.2289 N   0  0  0  0  0  0  0  0  0  0  0  0
  151.1936  134.5345  154.0786 C   0  0  2  0  0  0  0  0  0  0  0  0
  150.2044  133.7596  153.1877 C   0  0  0  0  0  0  0  0  0  0  0  0
  150.4632  132.2566  153.3518 C   0  0  0  0  0  0  0  0  0  0  0  0
  151.0815  132.0298  155.0627 S   0  0  0  0  0  0  0  0  0  0  0  0
  150.0124  131.4732  155.9054 O   0  0  0  0  0  0  0  0  0  0  0  0
  152.4096  131.4003  155.0090 O   0  0  0  0  0  0  0  0  0  0  0  0
  151.2689  133.8136  155.4347 C   0  0  0  0  0  0  0  0  0  0  0  0
  151.7675  139.1635  156.8259 C   0  0  0  0  0  0  0  0  0  0  0  0
  152.0618  140.2076  157.6280 N   0  0  0  0  0  0  0  0  0  0  0  0
  153.9888  142.4797  160.8761 H   0  0  0  0  0  0  0  0  0  0  0  0
  152.5511  141.4754  160.7804 H   0  0  0  0  0  0  0  0  0  0  0  0
  152.3970  143.2293  160.8537 H   0  0  0  0  0  0  0  0  0  0  0  0
  153.5672  143.4303  158.6385 H   0  0  0  0  0  0  0  0  0  0  0  0
  153.6834  141.6970  158.5146 H   0  0  0  0  0  0  0  0  0  0  0  0
  151.6941  144.1220  156.9476 H   0  0  0  0  0  0  0  0  0  0  0  0
  150.1510  143.6054  157.5484 H   0  0  0  0  0  0  0  0  0  0  0  0
  150.8115  145.7668  158.5894 H   0  0  0  0  0  0  0  0  0  0  0  0
  152.2785  145.0430  159.2364 H   0  0  0  0  0  0  0  0  0  0  0  0
  150.7010  144.5246  159.8309 H   0  0  0  0  0  0  0  0  0  0  0  0
  149.9491  142.4830  156.2594 H   0  0  0  0  0  0  0  0  0  0  0  0
  149.4312  140.5886  154.7852 H   0  0  0  0  0  0  0  0  0  0  0  0
  149.9826  138.1500  154.2326 H   0  0  0  0  0  0  0  0  0  0  0  0
  150.0973  136.2556  153.5567 H   0  0  0  0  0  0  0  0  0  0  0  0
  152.1719  134.4846  153.5969 H   0  0  0  0  0  0  0  0  0  0  0  0
  149.1850  133.9735  153.5126 H   0  0  0  0  0  0  0  0  0  0  0  0
  150.2748  134.0644  152.1430 H   0  0  0  0  0  0  0  0  0  0  0  0
  149.5715  131.6511  153.1887 H   0  0  0  0  0  0  0  0  0  0  0  0
  151.2418  131.9215  152.6664 H   0  0  0  0  0  0  0  0  0  0  0  0
  152.2046  133.9892  155.9659 H   0  0  0  0  0  0  0  0  0  0  0  0
  150.4419  134.1050  156.0833 H   0  0  0  0  0  0  0  0  0  0  0  0
  152.3096  138.2503  157.0240 H   0  0  0  0  0  0  0  0  0  0  0  0
  1  2  1  0  0  0  0
  1 23  1  0  0  0  0
  1 24  1  0  0  0  0
  1 25  1  0  0  0  0
  2  3  1  0  0  0  0
  2 26  1  0  0  0  0
  2 27  1  0  0  0  0
  3  4  1  0  0  0  0
  3  6  1  0  0  0  0
  4  5  1  0  0  0  0
  4 28  1  0  0  0  0
  4 29  1  0  0  0  0
  5 30  1  0  0  0  0
  5 31  1  0  0  0  0
  5 32  1  0  0  0  0
  6 22  1  0  0  0  0
  6  7  2  0  0  0  0
  7  8  1  0  0  0  0
  7 33  1  0  0  0  0
  8  9  2  0  0  0  0
  8 34  1  0  0  0  0
  9 10  1  0  0  0  0
  9 21  1  0  0  0  0
 10 11  1  0  0  0  0
 10 35  1  0  0  0  0
 11 12  2  0  0  0  0
 11 13  1  0  0  0  0
 13 14  1  0  0  0  0
 13 36  1  0  0  0  0
 14 20  1  0  0  0  0
 14 15  1  0  0  0  0
 14 37  1  0  0  0  0
 15 16  1  0  0  0  0
 15 38  1  0  0  0  0
 15 39  1  0  0  0  0
 16 17  1  0  0  0  0
 16 40  1  0  0  0  0
 16 41  1  0  0  0  0
 17 18  2  0  0  0  0
 17 19  2  0  0  0  0
 17 20  1  0  0  0  0
 20 42  1  0  0  0  0
 20 43  1  0  0  0  0
 21 22  2  0  0  0  0
 21 44  1  0  0  0  0
M  END
> <s_m_source_file>
AV-unprocessed.smi

> <i_m_source_file_index>
1754

> <i_lp_mmshare_version>
43012

> <i_f3d_flags>
0

> <s_epik_input>
W0NIM11bQ0gyXU4oW0NIMl1bQ0gzXSljMVtjSF1bY0hdYyhbY0hdbjEpW05IXUMoPU8pW05IXVtDQEBIXShbQ0gyXTIpW0NIMl1bQ0gyXVMyKD1PKT1P

> <s_epik_cmdline>
J2VwaWtfcHl0aG9uJywgJy1waCcsICc3LjAnLCAnLXRuJywgJzgnLCAnLW1hJywgJzIwMCcsICctbWV0YWxfYmluZGluZycsICctaW1hZScsICc8aW5maWxlLm1hZT4nLCAnLW9tYWUnLCAnPG91dGZpbGUubWFlPic=

> <r_lp_tautomer_probability>
1

> <r_epik_Ionization_Penalty>
0.615754

> <r_epik_Ionization_Penalty_Charging>
0

> <r_epik_Ionization_Penalty_Neutral>
0.615754

> <r_epik_State_Penalty>
2.08676

> <r_epik_Charging_Adjusted_Penalty>
2.08676

> <i_epik_Tot_Q>
0

> <i_epik_Tot_abs_Q>
0

> <r_epik_Metal_State_Penalty>
1.53042

> <b_epik_Metal_Only>
0

> <s_lp_Force_Field>
OPLS_2005

> <r_lp_Energy>
24.3589

> <b_lp_Chiralities_Consistent>
1

> <s_lp_Variant>
AV-unprocessed.smi:1754-3

> <Gold.Version>
5.8.1

> <Gold.Id.Protein>
6NUR|6NUR_protein|mol2

> <Gold.PLP.Fitness>
40.7501

> <Gold.PLP.PLP>
-38.5274

> <Gold.PLP.part.hbond>
-1.0343

> <Gold.PLP.part.metal>
0.0000

> <Gold.PLP.part.buried>
-4.2764

> <Gold.PLP.part.nonpolar>
-33.9396

> <Gold.PLP.part.repulsive>
0.0990

> <Gold.PLP.ligand.clash>
0.3408

> <Gold.PLP.ligand.torsion>
0.6571

> <Gold.PLP.Chemscore.Hbond>
0.9913

> <Gold.PLP.Chemscore.CHOScore>
0.0000

> <Gold.PLP.Chemscore.Metal>
0.0000

> <Gold.Chemscore.Hbonds>
donor molecule, donor type, donor heavy atom, donor atom, acceptor molecule, acceptor atom, score
      L1  H    13    36       P1  7948  0.60
      P1  H 10752 10764       L1    12  0.01

> <Gold.PLP.Chemscore.Internal.Correction>
0.9038

> <Gold.Rescore>
     Score         DG    S(hbond)    S(metal)    S(lipo)     H(rot)  DE(clash)    DE(int)     intcor
     11.59     -14.99       0.82        0.00      88.11       1.39       0.16       3.25       ----

> <Gold.Chemscore.Fitness>
11.5853

> <Gold.Chemscore.DG>
-14.9884

> <Gold.Chemscore.ZeroCoef>
-5.4800

> <Gold.Chemscore.Hbond>
0.8240

> <Gold.Chemscore.Metal>
0.0000

> <Gold.Chemscore.Lipo>
88.1089

> <Gold.Chemscore.Internal_Hbond>
0.0000

> <Gold.Chemscore.DEClash>
0.1558

> <Gold.Chemscore.DEInternal>
3.2474

> <Gold.Chemscore.Rot>
1.3876

> <Gold.Chemscore.Internal.Correction>
   9.000000E+99

> <Gold.Chemscore.Hbonds>
donor molecule, donor type, donor heavy atom, donor atom, acceptor molecule, acceptor atom, score
      L1  H    13    36       P1  7948  0.04

> <Gold.Chemscore.Hbond.Weighted>
-2.7520

> <Gold.Chemscore.Metal.Weighted>
-0.0000

> <Gold.Chemscore.Lipo.Weighted>
-10.3087

> <Gold.Chemscore.Internal_Hbond.Weighted>
0.0000

> <Gold.Chemscore.DEClash.Weighted>
0.1558

> <Gold.Chemscore.DEInternal.Weighted>
3.2474

> <Gold.Chemscore.Rot.Weighted>
3.5524

> <Gold.Chemscore.Internal.Correction.Weighted>
   9.000000E+99

> <Gold.Protein.RotatedTorsions>
[ 6907 6896 6895 6894 ] final   70.97 input  -60.11 | X-H torsion
[ 7974 7965 7964 7962 ] final   94.38 input  175.53 | X-H torsion
[ 8008 7997 7996 7995 ] final  -69.54 input   59.86 | X-H torsion
[ 10167 10162 10161 10158 ] final -115.49 input  -65.29 | X-H torsion
[ 10718 10713 10712 10709 ] final   16.29 input   66.30 | X-H torsion
[ 10763 10752 10751 10750 ] final  -85.98 input  -60.55 | X-H torsion
[ 11005 11000 10999 10996 ] final -136.49 input  -57.11 | X-H torsion

> <Gold.Protein.ActiveResidues>
 VAL166  LYS551  ARG553  GLY616  TRP617  ASP618  TYR619  PRO620  LYS621  CYS622 
 ASP623  PHE694  ASN695  SER759  ASP760  ASP761  ALA762  ILE779  LEU786  VAL792 
 PHE793  MET794  SER795  GLU796  ALA797  LYS798  CYS799  TRP800  GLU811  SER814 

> <Gold.Protein.RotatedAtoms>
  152.4782  134.4789  159.9658 H   0  0  0  0  0  0  0  0  0  0  0  0  # atno 6907 bound_to 6896
  151.4800  133.3542  159.2844 H   0  0  0  0  0  0  0  0  0  0  0  0  # atno 6908 bound_to 6896
  150.8835  134.8256  159.7303 H   0  0  0  0  0  0  0  0  0  0  0  0  # atno 6909 bound_to 6896
  145.4663  139.2284  143.2960 H   0  0  0  0  0  0  0  0  0  0  0  0  # atno 7974 bound_to 7965
  154.4946  140.0851  156.7668 H   0  0  0  0  0  0  0  0  0  0  0  0  # atno 8008 bound_to 7997
  155.4148  140.3443  155.4248 H   0  0  0  0  0  0  0  0  0  0  0  0  # atno 8009 bound_to 7997
  156.1376  140.1520  156.8958 H   0  0  0  0  0  0  0  0  0  0  0  0  # atno 8010 bound_to 7997
  140.0895  143.4712  152.1878 H   0  0  0  0  0  0  0  0  0  0  0  0  # atno 10167 bound_to 10162
  157.0657  130.6327  149.5795 H   0  0  0  0  0  0  0  0  0  0  0  0  # atno 10718 bound_to 10713
  154.6172  135.5466  153.7536 H   0  0  0  0  0  0  0  0  0  0  0  0  # atno 10763 bound_to 10752
  153.0222  135.6404  154.1493 H   0  0  0  0  0  0  0  0  0  0  0  0  # atno 10764 bound_to 10752
  154.1428  135.2907  155.3136 H   0  0  0  0  0  0  0  0  0  0  0  0  # atno 10765 bound_to 10752
  140.8800  134.1943  157.4597 H   0  0  0  0  0  0  0  0  0  0  0  0  # atno 11005 bound_to 11000
  146.2422  140.5437  142.8929 LP  0  0  0  0  0  0  0  0  0  0  0  0  # atno 17320 bound_to 7965
  144.7972  140.6145  143.6502 LP  0  0  0  0  0  0  0  0  0  0  0  0  # atno 17321 bound_to 7965
  139.5733  144.7474  151.3833 LP  0  0  0  0  0  0  0  0  0  0  0  0  # atno 17342 bound_to 10162
  140.7036  143.7571  150.7443 LP  0  0  0  0  0  0  0  0  0  0  0  0  # atno 17343 bound_to 10162
  155.9965  130.5034  150.7500 LP  0  0  0  0  0  0  0  0  0  0  0  0  # atno 17370 bound_to 10713
  157.4919  131.0911  151.0417 LP  0  0  0  0  0  0  0  0  0  0  0  0  # atno 17371 bound_to 10713
  139.8719  134.9813  156.5111 LP  0  0  0  0  0  0  0  0  0  0  0  0  # atno 17394 bound_to 11000
  140.8472  133.8160  155.9133 LP  0  0  0  0  0  0  0  0  0  0  0  0  # atno 17395 bound_to 11000

$$$$
