AV-unprocessed.smi:1303|AV-procd|sdf|5428|dock1
  -GOLD-   22720 4583D 1   1.00000     0.00000
 Structure written by MMmdl.
 40 41  0  0  0  0  0  0  0  0  1 V2000
  145.2816  144.0696  160.7935 C   0  0  0  0  0  0  0  0  0  0  0  0
  146.3023  144.5256  159.7377 C   0  0  0  0  0  0  0  0  0  0  0  0
  146.2474  143.6352  158.4853 C   0  0  0  0  0  0  0  0  0  0  0  0
  147.7211  144.5444  160.3203 C   0  0  0  0  0  0  0  0  0  0  0  0
  147.9180  144.2041  161.4874 O   0  0  0  0  0  0  0  0  0  0  0  0
  148.7042  144.9306  159.4923 N   0  0  0  0  0  0  0  0  0  0  0  0
  150.1228  144.9562  159.8355 C   0  0  0  0  0  0  0  0  0  0  0  0
  150.9366  143.8115  159.2449 C   0  0  0  0  0  0  0  0  0  0  0  0
  152.1312  143.4071  159.8718 C   0  0  0  0  0  0  0  0  0  0  0  0
  152.8639  142.3500  159.3015 C   0  0  0  0  0  0  0  0  0  0  0  0
  152.4790  141.7012  158.1829 N   0  0  0  0  0  0  0  0  0  0  0  0
  151.3305  142.0788  157.5690 C   0  0  0  0  0  0  0  0  0  0  0  0
  150.9314  141.3855  156.4058 N   0  0  0  0  0  0  0  0  0  0  0  0
  150.2061  142.1311  155.3788 C   0  0  0  0  0  0  0  0  0  0  0  0
  149.6152  141.1686  154.3349 C   0  0  0  0  0  0  0  0  0  0  0  0
  150.6497  140.3538  153.7939 O   0  0  0  0  0  0  0  0  0  0  0  0
  151.2713  139.5539  154.7945 C   0  0  0  0  0  0  0  0  0  0  0  0
  151.9184  140.4581  155.8574 C   0  0  0  0  0  0  0  0  0  0  0  0
  150.5392  143.1413  158.0660 C   0  0  0  0  0  0  0  0  0  0  0  0
  145.3318  144.6908  161.6887 H   0  0  0  0  0  0  0  0  0  0  0  0
  145.4504  143.0351  161.0953 H   0  0  0  0  0  0  0  0  0  0  0  0
  144.2650  144.1375  160.4059 H   0  0  0  0  0  0  0  0  0  0  0  0
  146.0410  145.5422  159.4386 H   0  0  0  0  0  0  0  0  0  0  0  0
  146.9772  143.9537  157.7394 H   0  0  0  0  0  0  0  0  0  0  0  0
  145.2632  143.6804  158.0185 H   0  0  0  0  0  0  0  0  0  0  0  0
  146.4511  142.5908  158.7253 H   0  0  0  0  0  0  0  0  0  0  0  0
  148.4570  145.1946  158.5497 H   0  0  0  0  0  0  0  0  0  0  0  0
  150.5428  145.8950  159.4745 H   0  0  0  0  0  0  0  0  0  0  0  0
  150.2350  144.9643  160.9210 H   0  0  0  0  0  0  0  0  0  0  0  0
  152.4804  143.8935  160.7707 H   0  0  0  0  0  0  0  0  0  0  0  0
  153.7838  142.0143  159.7571 H   0  0  0  0  0  0  0  0  0  0  0  0
  149.4014  142.7116  155.8314 H   0  0  0  0  0  0  0  0  0  0  0  0
  150.8850  142.8347  154.8950 H   0  0  0  0  0  0  0  0  0  0  0  0
  148.8382  140.5435  154.7778 H   0  0  0  0  0  0  0  0  0  0  0  0
  149.1478  141.7324  153.5274 H   0  0  0  0  0  0  0  0  0  0  0  0
  150.5385  138.8843  155.2477 H   0  0  0  0  0  0  0  0  0  0  0  0
  152.0289  138.9257  154.3262 H   0  0  0  0  0  0  0  0  0  0  0  0
  152.7311  141.0332  155.4120 H   0  0  0  0  0  0  0  0  0  0  0  0
  152.3614  139.8325  156.6310 H   0  0  0  0  0  0  0  0  0  0  0  0
  149.6429  143.4453  157.5468 H   0  0  0  0  0  0  0  0  0  0  0  0
  1  2  1  0  0  0  0
  1 20  1  0  0  0  0
  1 21  1  0  0  0  0
  1 22  1  0  0  0  0
  2  3  1  0  0  0  0
  2  4  1  0  0  0  0
  2 23  1  0  0  0  0
  3 24  1  0  0  0  0
  3 25  1  0  0  0  0
  3 26  1  0  0  0  0
  4  5  2  0  0  0  0
  4  6  1  0  0  0  0
  6  7  1  0  0  0  0
  6 27  1  0  0  0  0
  7  8  1  0  0  0  0
  7 28  1  0  0  0  0
  7 29  1  0  0  0  0
  8 19  1  0  0  0  0
  8  9  2  0  0  0  0
  9 10  1  0  0  0  0
  9 30  1  0  0  0  0
 10 11  2  0  0  0  0
 10 31  1  0  0  0  0
 11 12  1  0  0  0  0
 12 13  1  0  0  0  0
 12 19  2  0  0  0  0
 13 18  1  0  0  0  0
 13 14  1  0  0  0  0
 14 15  1  0  0  0  0
 14 32  1  0  0  0  0
 14 33  1  0  0  0  0
 15 16  1  0  0  0  0
 15 34  1  0  0  0  0
 15 35  1  0  0  0  0
 16 17  1  0  0  0  0
 17 18  1  0  0  0  0
 17 36  1  0  0  0  0
 17 37  1  0  0  0  0
 18 38  1  0  0  0  0
 18 39  1  0  0  0  0
 19 40  1  0  0  0  0
M  END
> <s_m_source_file>
AV-unprocessed.smi

> <i_m_source_file_index>
1303

> <i_lp_mmshare_version>
43012

> <i_f3d_flags>
0

> <s_epik_input>
W0NIM11bQ0hdKFtDSDNdKUMoPU8pW05IXVtDSDJdYzFbY0hdW2NIXW5jKFtjSF0xKU4yW0NIMl1bQ0gyXU9bQ0gyXVtDSDJdMg==

> <s_epik_cmdline>
J2VwaWtfcHl0aG9uJywgJy1waCcsICc3LjAnLCAnLXRuJywgJzgnLCAnLW1hJywgJzIwMCcsICctbWV0YWxfYmluZGluZycsICctaW1hZScsICc8aW5maWxlLm1hZT4nLCAnLW9tYWUnLCAnPG91dGZpbGUubWFlPic=

> <r_lp_tautomer_probability>
1

> <r_epik_Ionization_Penalty>
0.00576177

> <r_epik_Ionization_Penalty_Charging>
0

> <r_epik_Ionization_Penalty_Neutral>
0.00576177

> <r_epik_State_Penalty>
0.00422935

> <r_epik_Charging_Adjusted_Penalty>
0.00422935

> <i_epik_Tot_Q>
0

> <i_epik_Tot_abs_Q>
0

> <r_epik_Metal_State_Penalty>
-0

> <b_epik_Metal_Only>
0

> <s_lp_Force_Field>
OPLS_2005

> <r_lp_Energy>
14.5519

> <b_lp_Chiralities_Consistent>
1

> <s_lp_Variant>
AV-unprocessed.smi:1303-1

> <Gold.Version>
5.8.1

> <Gold.Id.Protein>
6NUR|6NUR_protein|mol2

> <Gold.PLP.Fitness>
45.7364

> <Gold.PLP.PLP>
-38.2589

> <Gold.PLP.part.hbond>
-3.0000

> <Gold.PLP.part.metal>
0.0000

> <Gold.PLP.part.buried>
-5.4838

> <Gold.PLP.part.nonpolar>
-29.3285

> <Gold.PLP.part.repulsive>
0.5387

> <Gold.PLP.ligand.clash>
0.0000

> <Gold.PLP.ligand.torsion>
0.9231

> <Gold.PLP.Chemscore.Hbond>
2.9920

> <Gold.PLP.Chemscore.CHOScore>
0.0000

> <Gold.PLP.Chemscore.Metal>
0.0000

> <Gold.Chemscore.Hbonds>
donor molecule, donor type, donor heavy atom, donor atom, acceptor molecule, acceptor atom, score
      L1  H     6    27       P1  8029  1.00
      P1  H  6933  6944       L1     5  1.00
      P1  H  7989  7998       L1    16  0.01

> <Gold.PLP.Chemscore.Internal.Correction>
0.3477

> <Gold.Rescore>
     Score         DG    S(hbond)    S(metal)    S(lipo)     H(rot)  DE(clash)    DE(int)     intcor
     18.97     -20.15       2.57        0.00      86.25       1.56       0.08       1.11       ----

> <Gold.Chemscore.Fitness>
18.9670

> <Gold.Chemscore.DG>
-20.1549

> <Gold.Chemscore.ZeroCoef>
-5.4800

> <Gold.Chemscore.Hbond>
2.5669

> <Gold.Chemscore.Metal>
0.0000

> <Gold.Chemscore.Lipo>
86.2474

> <Gold.Chemscore.Internal_Hbond>
0.0000

> <Gold.Chemscore.DEClash>
0.0758

> <Gold.Chemscore.DEInternal>
1.1121

> <Gold.Chemscore.Rot>
1.5584

> <Gold.Chemscore.Internal.Correction>
   9.000000E+99

> <Gold.Chemscore.Hbonds>
donor molecule, donor type, donor heavy atom, donor atom, acceptor molecule, acceptor atom, score
      L1  H     6    27       P1  8029  0.98
      P1  H  6933  6944       L1     5  0.63
      P1  H  7989  7998       L1    16  0.01

> <Gold.Chemscore.Hbond.Weighted>
-8.5735

> <Gold.Chemscore.Metal.Weighted>
-0.0000

> <Gold.Chemscore.Lipo.Weighted>
-10.0910

> <Gold.Chemscore.Internal_Hbond.Weighted>
0.0000

> <Gold.Chemscore.DEClash.Weighted>
0.0758

> <Gold.Chemscore.DEInternal.Weighted>
1.1121

> <Gold.Chemscore.Rot.Weighted>
3.9895

> <Gold.Chemscore.Internal.Correction.Weighted>
   9.000000E+99

> <Gold.Protein.RotatedTorsions>
[ 6907 6896 6895 6894 ] final  106.11 input  -60.11 | X-H torsion
[ 7974 7965 7964 7962 ] final -140.74 input  175.53 | X-H torsion
[ 8008 7997 7996 7995 ] final   35.74 input   59.86 | X-H torsion
[ 10167 10162 10161 10158 ] final -113.82 input  -65.29 | X-H torsion
[ 10718 10713 10712 10709 ] final   69.69 input   66.30 | X-H torsion
[ 10763 10752 10751 10750 ] final  -50.66 input  -60.55 | X-H torsion
[ 11005 11000 10999 10996 ] final -105.71 input  -57.11 | X-H torsion

> <Gold.Protein.ActiveResidues>
 VAL166  LYS551  ARG553  GLY616  TRP617  ASP618  TYR619  PRO620  LYS621  CYS622 
 ASP623  PHE694  ASN695  SER759  ASP760  ASP761  ALA762  ILE779  LEU786  VAL792 
 PHE793  MET794  SER795  GLU796  ALA797  LYS798  CYS799  TRP800  GLU811  SER814 

> <Gold.Protein.RotatedAtoms>
  152.5206  133.9430  159.7635 H   0  0  0  0  0  0  0  0  0  0  0  0  # atno 6907 bound_to 6896
  150.9756  133.6290  159.2738 H   0  0  0  0  0  0  0  0  0  0  0  0  # atno 6908 bound_to 6896
  151.3486  135.0885  159.9448 H   0  0  0  0  0  0  0  0  0  0  0  0  # atno 6909 bound_to 6896
  144.8573  140.6163  143.5351 H   0  0  0  0  0  0  0  0  0  0  0  0  # atno 7974 bound_to 7965
  155.1759  140.3296  155.4384 H   0  0  0  0  0  0  0  0  0  0  0  0  # atno 8008 bound_to 7997
  156.2494  140.1935  156.6810 H   0  0  0  0  0  0  0  0  0  0  0  0  # atno 8009 bound_to 7997
  154.6305  140.0583  156.9712 H   0  0  0  0  0  0  0  0  0  0  0  0  # atno 8010 bound_to 7997
  140.1077  143.4556  152.1772 H   0  0  0  0  0  0  0  0  0  0  0  0  # atno 10167 bound_to 10162
  157.6360  130.9439  150.0549 H   0  0  0  0  0  0  0  0  0  0  0  0  # atno 10718 bound_to 10713
  154.1139  135.6545  153.4890 H   0  0  0  0  0  0  0  0  0  0  0  0  # atno 10763 bound_to 10752
  153.0247  135.5254  154.7164 H   0  0  0  0  0  0  0  0  0  0  0  0  # atno 10764 bound_to 10752
  154.6352  135.2981  155.0139 H   0  0  0  0  0  0  0  0  0  0  0  0  # atno 10765 bound_to 10752
  141.1040  133.8831  157.1767 H   0  0  0  0  0  0  0  0  0  0  0  0  # atno 11005 bound_to 11000
  145.4381  139.1539  143.3985 LP  0  0  0  0  0  0  0  0  0  0  0  0  # atno 17320 bound_to 7965
  146.2833  140.4500  142.8768 LP  0  0  0  0  0  0  0  0  0  0  0  0  # atno 17321 bound_to 7965
  139.5636  144.7421  151.4085 LP  0  0  0  0  0  0  0  0  0  0  0  0  # atno 17342 bound_to 10162
  140.6943  143.7787  150.7302 LP  0  0  0  0  0  0  0  0  0  0  0  0  # atno 17343 bound_to 10162
  156.1599  130.3643  149.9314 LP  0  0  0  0  0  0  0  0  0  0  0  0  # atno 17370 bound_to 10713
  156.7315  130.9045  151.3626 LP  0  0  0  0  0  0  0  0  0  0  0  0  # atno 17371 bound_to 10713
  139.9903  135.0067  156.9958 LP  0  0  0  0  0  0  0  0  0  0  0  0  # atno 17394 bound_to 11000
  140.4949  134.1155  155.7239 LP  0  0  0  0  0  0  0  0  0  0  0  0  # atno 17395 bound_to 11000

$$$$
