AV-unprocessed.smi:252|AV-procd|sdf|1942|dock1
  -GOLD-   2262021 73D 1   1.00000     0.00000
 Structure written by MMmdl.
 56 59  0  0  0  0  0  0  0  0  1 V2000
  143.7629  132.4740  149.9676 C   0  0  0  0  0  0  0  0  0  0  0  0
  144.2049  132.5944  151.4343 C   0  0  0  0  0  0  0  0  0  0  0  0
  143.8846  133.9535  152.0652 C   0  0  0  0  0  0  0  0  0  0  0  0
  144.2432  135.0027  151.5297 O   0  0  0  0  0  0  0  0  0  0  0  0
  143.1975  133.9134  153.2166 N   0  0  0  0  0  0  0  0  0  0  0  0
  142.7694  135.0756  153.9878 C   0  0  2  0  0  0  0  0  0  0  0  0
  141.8440  135.9779  153.1474 C   0  0  0  0  0  0  0  0  0  0  0  0
  141.4930  137.2568  153.9221 C   0  0  0  0  0  0  0  0  0  0  0  0
  142.7638  137.9876  154.3833 C   0  0  0  0  0  0  0  0  0  0  0  0
  143.6295  137.0888  155.1478 N   0  0  0  0  0  0  0  0  0  0  0  0
  144.6242  137.6462  155.8832 C   0  0  0  0  0  0  0  0  0  0  0  0
  144.3629  138.1250  157.1292 N   0  0  0  0  0  0  0  0  0  0  0  0
  145.3355  138.6860  157.8534 C   0  0  0  0  0  0  0  0  0  0  0  0
  146.6177  138.8663  157.5317 N   0  0  0  0  0  0  0  0  0  0  0  0
  146.8875  138.3852  156.2846 C   0  0  0  0  0  0  0  0  0  0  0  0
  145.9590  137.7626  155.4032 C   0  0  0  0  0  0  0  0  0  0  0  0
  146.6016  137.3831  154.2305 N   0  0  0  0  0  0  0  0  0  0  0  0
  147.8372  137.7638  154.4068 C   0  0  0  0  0  0  0  0  0  0  0  0
  148.0946  138.3871  155.6072 N   0  0  0  0  0  0  0  0  0  0  0  0
  149.3752  138.9059  156.0620 C   0  0  0  0  0  0  0  0  0  0  0  0
  150.2104  139.6012  154.9513 C   0  0  2  0  0  0  0  0  0  0  0  0
  149.3525  140.3399  154.1025 O   0  0  0  0  0  0  0  0  0  0  0  0
  151.0369  138.6409  154.1044 C   0  0  0  0  0  0  0  0  0  0  0  0
  152.2836  138.4323  154.9592 C   0  0  0  0  0  0  0  0  0  0  0  0
  152.4534  139.6409  155.6944 O   0  0  0  0  0  0  0  0  0  0  0  0
  151.3378  140.5038  155.4883 C   0  0  2  0  0  0  0  0  0  0  0  0
  151.0325  141.3114  156.7584 C   0  0  0  0  0  0  0  0  0  0  0  0
  144.0098  135.8575  154.4567 C   0  0  0  0  0  0  0  0  0  0  0  0
  144.0412  131.5017  149.5609 H   0  0  0  0  0  0  0  0  0  0  0  0
  144.2321  133.2376  149.3461 H   0  0  0  0  0  0  0  0  0  0  0  0
  142.6813  132.5740  149.8683 H   0  0  0  0  0  0  0  0  0  0  0  0
  143.7241  131.8151  152.0264 H   0  0  0  0  0  0  0  0  0  0  0  0
  145.2798  132.4220  151.5021 H   0  0  0  0  0  0  0  0  0  0  0  0
  142.9451  133.0074  153.5839 H   0  0  0  0  0  0  0  0  0  0  0  0
  142.2276  134.7392  154.8743 H   0  0  0  0  0  0  0  0  0  0  0  0
  142.3357  136.2451  152.2110 H   0  0  0  0  0  0  0  0  0  0  0  0
  140.9310  135.4451  152.8800 H   0  0  0  0  0  0  0  0  0  0  0  0
  140.8872  137.9171  153.3014 H   0  0  0  0  0  0  0  0  0  0  0  0
  140.8841  137.0010  154.7902 H   0  0  0  0  0  0  0  0  0  0  0  0
  143.3103  138.3659  153.5181 H   0  0  0  0  0  0  0  0  0  0  0  0
  142.4858  138.8487  154.9927 H   0  0  0  0  0  0  0  0  0  0  0  0
  145.0445  139.0439  158.8301 H   0  0  0  0  0  0  0  0  0  0  0  0
  148.5995  137.6050  153.6578 H   0  0  0  0  0  0  0  0  0  0  0  0
  149.1803  139.6010  156.8794 H   0  0  0  0  0  0  0  0  0  0  0  0
  149.9365  138.0782  156.4967 H   0  0  0  0  0  0  0  0  0  0  0  0
  149.5494  140.1148  153.2061 H   0  0  0  0  0  0  0  0  0  0  0  0
  150.5347  137.7109  153.8418 H   0  0  0  0  0  0  0  0  0  0  0  0
  151.3308  139.1204  153.1688 H   0  0  0  0  0  0  0  0  0  0  0  0
  152.1348  137.6125  155.6628 H   0  0  0  0  0  0  0  0  0  0  0  0
  153.1645  138.2056  154.3583 H   0  0  0  0  0  0  0  0  0  0  0  0
  151.6361  141.1987  154.7007 H   0  0  0  0  0  0  0  0  0  0  0  0
  150.1583  141.9474  156.6170 H   0  0  0  0  0  0  0  0  0  0  0  0
  151.8733  141.9559  157.0154 H   0  0  0  0  0  0  0  0  0  0  0  0
  150.8457  140.6638  157.6150 H   0  0  0  0  0  0  0  0  0  0  0  0
  144.6187  135.2178  155.0953 H   0  0  0  0  0  0  0  0  0  0  0  0
  144.6307  136.1222  153.5994 H   0  0  0  0  0  0  0  0  0  0  0  0
  1  2  1  0  0  0  0
  1 29  1  0  0  0  0
  1 30  1  0  0  0  0
  1 31  1  0  0  0  0
  2  3  1  0  0  0  0
  2 32  1  0  0  0  0
  2 33  1  0  0  0  0
  3  4  2  0  0  0  0
  3  5  1  0  0  0  0
  5  6  1  0  0  0  0
  5 34  1  0  0  0  0
  6 28  1  0  0  0  0
  6  7  1  0  0  0  0
  6 35  1  0  0  0  0
  7  8  1  0  0  0  0
  7 36  1  0  0  0  0
  7 37  1  0  0  0  0
  8  9  1  0  0  0  0
  8 38  1  0  0  0  0
  8 39  1  0  0  0  0
  9 10  1  0  0  0  0
  9 40  1  0  0  0  0
  9 41  1  0  0  0  0
 10 11  1  0  0  0  0
 10 28  1  0  0  0  0
 11 16  1  0  0  0  0
 11 12  2  0  0  0  0
 12 13  1  0  0  0  0
 13 14  2  0  0  0  0
 13 42  1  0  0  0  0
 14 15  1  0  0  0  0
 15 19  1  0  0  0  0
 15 16  2  0  0  0  0
 16 17  1  0  0  0  0
 17 18  2  0  0  0  0
 18 19  1  0  0  0  0
 18 43  1  0  0  0  0
 19 20  1  0  0  0  0
 20 21  1  0  0  0  0
 20 44  1  0  0  0  0
 20 45  1  0  0  0  0
 21 26  1  0  0  0  0
 21 22  1  0  0  0  0
 21 23  1  0  0  0  0
 22 46  1  0  0  0  0
 23 24  1  0  0  0  0
 23 47  1  0  0  0  0
 23 48  1  0  0  0  0
 24 25  1  0  0  0  0
 24 49  1  0  0  0  0
 24 50  1  0  0  0  0
 25 26  1  0  0  0  0
 26 27  1  0  0  0  0
 26 51  1  0  0  0  0
 27 52  1  0  0  0  0
 27 53  1  0  0  0  0
 27 54  1  0  0  0  0
 28 55  1  0  0  0  0
 28 56  1  0  0  0  0
M  END
> <s_m_source_file>
AV-unprocessed.smi

> <i_m_source_file_index>
252

> <i_lp_mmshare_version>
43012

> <i_f3d_flags>
0

> <s_epik_input>
W0NIM11bQ0gyXUMoPU8pW05IXVtDQEBIXTFbQ0gyXVtDSDJdW0NIMl1OKFtDSDJdMSljKG5bY0hdbjIpYyhjMjMpbltjSF1uM1tDSDJdW0NAQF00KFtPSF0pW0NIMl1bQ0gyXU9bQ0BIXTRbQ0gzXQ==

> <s_epik_cmdline>
J2VwaWtfcHl0aG9uJywgJy1waCcsICc3LjAnLCAnLXRuJywgJzgnLCAnLW1hJywgJzIwMCcsICctbWV0YWxfYmluZGluZycsICctaW1hZScsICc8aW5maWxlLm1hZT4nLCAnLW9tYWUnLCAnPG91dGZpbGUubWFlPic=

> <r_lp_tautomer_probability>
1

> <r_epik_Ionization_Penalty>
0.00182575

> <r_epik_Ionization_Penalty_Charging>
0

> <r_epik_Ionization_Penalty_Neutral>
0.00182575

> <r_epik_State_Penalty>
0.00104524

> <r_epik_Charging_Adjusted_Penalty>
0.00104524

> <i_epik_Tot_Q>
0

> <i_epik_Tot_abs_Q>
0

> <r_epik_Metal_State_Penalty>
-0

> <b_epik_Metal_Only>
0

> <s_lp_Force_Field>
OPLS_2005

> <r_lp_Energy>
36.2255

> <b_lp_Chiralities_Consistent>
1

> <s_lp_Variant>
AV-unprocessed.smi:252-7

> <Gold.Version>
5.8.1

> <Gold.Id.Protein>
6NUR|6NUR_protein|mol2

> <Gold.PLP.Fitness>
41.9063

> <Gold.PLP.PLP>
-31.9834

> <Gold.PLP.part.hbond>
-3.5722

> <Gold.PLP.part.metal>
0.0000

> <Gold.PLP.part.buried>
-4.3251

> <Gold.PLP.part.nonpolar>
-23.3274

> <Gold.PLP.part.repulsive>
0.2983

> <Gold.PLP.ligand.clash>
0.0000

> <Gold.PLP.ligand.torsion>
1.2178

> <Gold.PLP.Chemscore.Hbond>
2.9750

> <Gold.PLP.Chemscore.CHOScore>
1.0000

> <Gold.PLP.Chemscore.Metal>
0.0000

> <Gold.Chemscore.Hbonds>
donor molecule, donor type, donor heavy atom, donor atom, acceptor molecule, acceptor atom, score
      L1  H     5    34       P1 10957  1.00
      L1  H    22    46       P1  7957  0.96
      P1  H  7997  8008       L1    25  1.00
      L1  C    18    43       P1  7948  1.00

> <Gold.PLP.Chemscore.Internal.Correction>
0.4335

> <Gold.Rescore>
     Score         DG    S(hbond)    S(metal)    S(lipo)     H(rot)  DE(clash)    DE(int)     intcor
     12.17     -16.02       2.59        0.00      75.40       2.70       0.91       2.94       ----

> <Gold.Chemscore.Fitness>
12.1688

> <Gold.Chemscore.DG>
-16.0231

> <Gold.Chemscore.ZeroCoef>
-5.4800

> <Gold.Chemscore.Hbond>
2.5879

> <Gold.Chemscore.Metal>
0.0000

> <Gold.Chemscore.Lipo>
75.4031

> <Gold.Chemscore.Internal_Hbond>
0.0000

> <Gold.Chemscore.DEClash>
0.9114

> <Gold.Chemscore.DEInternal>
2.9429

> <Gold.Chemscore.Rot>
2.7041

> <Gold.Chemscore.Internal.Correction>
   9.000000E+99

> <Gold.Chemscore.Hbonds>
donor molecule, donor type, donor heavy atom, donor atom, acceptor molecule, acceptor atom, score
      L1  H     5    34       P1 10957  0.94
      L1  H    22    46       P1  7957  0.91
      P1  H  7997  8008       L1    25  0.88

> <Gold.Chemscore.Hbond.Weighted>
-8.6434

> <Gold.Chemscore.Metal.Weighted>
-0.0000

> <Gold.Chemscore.Lipo.Weighted>
-8.8222

> <Gold.Chemscore.Internal_Hbond.Weighted>
0.0000

> <Gold.Chemscore.DEClash.Weighted>
0.9114

> <Gold.Chemscore.DEInternal.Weighted>
2.9429

> <Gold.Chemscore.Rot.Weighted>
6.9225

> <Gold.Chemscore.Internal.Correction.Weighted>
   9.000000E+99

> <Gold.Protein.RotatedTorsions>
[ 6907 6896 6895 6894 ] final  -40.94 input  -60.11 | X-H torsion
[ 7974 7965 7964 7962 ] final   42.31 input  175.53 | X-H torsion
[ 8008 7997 7996 7995 ] final  -38.50 input   59.86 | X-H torsion
[ 10167 10162 10161 10158 ] final  -66.83 input  -65.29 | X-H torsion
[ 10718 10713 10712 10709 ] final  -40.82 input   66.30 | X-H torsion
[ 10763 10752 10751 10750 ] final   68.61 input  -60.55 | X-H torsion
[ 11005 11000 10999 10996 ] final  -75.57 input  -57.11 | X-H torsion

> <Gold.Protein.ActiveResidues>
 VAL166  LYS551  ARG553  GLY616  TRP617  ASP618  TYR619  PRO620  LYS621  CYS622 
 ASP623  PHE694  ASN695  SER759  ASP760  ASP761  ALA762  ILE779  LEU786  VAL792 
 PHE793  MET794  SER795  GLU796  ALA797  LYS798  CYS799  TRP800  GLU811  SER814 

> <Gold.Protein.RotatedAtoms>
  150.9726  134.9096  159.7796 H   0  0  0  0  0  0  0  0  0  0  0  0  # atno 6907 bound_to 6896
  152.5195  134.3520  159.9264 H   0  0  0  0  0  0  0  0  0  0  0  0  # atno 6908 bound_to 6896
  151.3529  133.3878  159.2716 H   0  0  0  0  0  0  0  0  0  0  0  0  # atno 6909 bound_to 6896
  146.0751  139.5315  142.9573 H   0  0  0  0  0  0  0  0  0  0  0  0  # atno 7974 bound_to 7965
  154.4036  140.1576  156.2710 H   0  0  0  0  0  0  0  0  0  0  0  0  # atno 8008 bound_to 7997
  155.8953  140.3436  155.5964 H   0  0  0  0  0  0  0  0  0  0  0  0  # atno 8009 bound_to 7997
  155.7511  140.0805  157.2191 H   0  0  0  0  0  0  0  0  0  0  0  0  # atno 8010 bound_to 7997
  140.5628  143.2313  151.6694 H   0  0  0  0  0  0  0  0  0  0  0  0  # atno 10167 bound_to 10162
  156.2771  130.4213  149.8376 H   0  0  0  0  0  0  0  0  0  0  0  0  # atno 10718 bound_to 10713
  153.0244  135.5241  154.7160 H   0  0  0  0  0  0  0  0  0  0  0  0  # atno 10763 bound_to 10752
  154.6229  135.2891  155.0307 H   0  0  0  0  0  0  0  0  0  0  0  0  # atno 10764 bound_to 10752
  154.1287  135.6596  153.4970 H   0  0  0  0  0  0  0  0  0  0  0  0  # atno 10765 bound_to 10752
  141.1646  133.6951  156.7537 H   0  0  0  0  0  0  0  0  0  0  0  0  # atno 11005 bound_to 11000
  145.6321  141.0302  143.1857 LP  0  0  0  0  0  0  0  0  0  0  0  0  # atno 17320 bound_to 7965
  144.7256  139.7887  143.7366 LP  0  0  0  0  0  0  0  0  0  0  0  0  # atno 17321 bound_to 7965
  139.5078  144.3633  152.0541 LP  0  0  0  0  0  0  0  0  0  0  0  0  # atno 17342 bound_to 10162
  140.2761  144.3911  150.6134 LP  0  0  0  0  0  0  0  0  0  0  0  0  # atno 17343 bound_to 10162
  156.5836  130.8476  151.3389 LP  0  0  0  0  0  0  0  0  0  0  0  0  # atno 17370 bound_to 10713
  157.7303  130.9683  150.1826 LP  0  0  0  0  0  0  0  0  0  0  0  0  # atno 17371 bound_to 10713
  140.2585  134.8485  157.3736 LP  0  0  0  0  0  0  0  0  0  0  0  0  # atno 17394 bound_to 11000
  140.1634  134.4700  155.7879 LP  0  0  0  0  0  0  0  0  0  0  0  0  # atno 17395 bound_to 11000

$$$$
