AV-unprocessed.smi:2562|AV-procd|sdf|10045|dock1
  -GOLD-   2272014 93D 1   1.00000     0.00000
 Structure written by MMmdl.
 31 32  0  0  0  0  0  0  0  0  2 V2000
  153.4424  141.9739  160.8073 C   0  0  0  0  0  0  0  0  0  0  0  0
  152.5757  142.3104  159.5890 C   0  0  0  0  0  0  0  0  0  0  0  0
  152.2829  141.0821  158.7153 C   0  0  0  0  0  0  0  0  0  0  0  0
  151.3969  141.4115  157.5596 C   0  0  0  0  0  0  0  0  0  0  0  0
  150.8734  142.6275  157.4155 N   0  0  0  0  0  0  0  0  0  0  0  0
  150.1223  142.4793  156.3042 N   0  0  0  0  0  0  0  0  0  0  0  0
  150.2195  141.2215  155.8653 C   0  0  0  0  0  0  0  0  0  0  0  0
  149.4881  140.7540  154.6428 C   0  0  1  0  0  0  0  0  0  0  0  0
  149.5795  139.2326  154.3953 C   0  0  0  0  0  0  0  0  0  0  0  0
  148.7638  138.8617  153.2228 N   0  3  0  0  0  0  0  0  0  0  0  0
  147.3676  139.3170  153.3710 C   0  0  0  0  0  0  0  0  0  0  0  0
  147.3309  140.8265  153.6685 C   0  0  0  0  0  0  0  0  0  0  0  0
  148.1194  141.1113  154.8200 O   0  0  0  0  0  0  0  0  0  0  0  0
  151.0209  140.4834  156.6287 N   0  0  0  0  0  0  0  0  0  0  0  0
  149.5760  143.2297  155.9058 H   0  0  0  0  0  0  0  0  0  0  0  0
  153.6299  142.8642  161.4078 H   0  0  0  0  0  0  0  0  0  0  0  0
  154.4075  141.5667  160.5045 H   0  0  0  0  0  0  0  0  0  0  0  0
  152.9533  141.2388  161.4470 H   0  0  0  0  0  0  0  0  0  0  0  0
  151.6371  142.7500  159.9288 H   0  0  0  0  0  0  0  0  0  0  0  0
  153.0759  143.0736  158.9917 H   0  0  0  0  0  0  0  0  0  0  0  0
  153.2159  140.6586  158.3409 H   0  0  0  0  0  0  0  0  0  0  0  0
  151.8083  140.3030  159.3134 H   0  0  0  0  0  0  0  0  0  0  0  0
  149.8960  141.2939  153.7862 H   0  0  0  0  0  0  0  0  0  0  0  0
  150.6124  138.9286  154.2236 H   0  0  0  0  0  0  0  0  0  0  0  0
  149.2188  138.6799  155.2643 H   0  0  0  0  0  0  0  0  0  0  0  0
  149.1615  139.2954  152.4017 H   0  0  0  0  0  0  0  0  0  0  0  0
  146.8144  139.0910  152.4593 H   0  0  0  0  0  0  0  0  0  0  0  0
  146.8940  138.7615  154.1814 H   0  0  0  0  0  0  0  0  0  0  0  0
  147.6954  141.4004  152.8149 H   0  0  0  0  0  0  0  0  0  0  0  0
  146.3057  141.1481  153.8533 H   0  0  0  0  0  0  0  0  0  0  0  0
  148.7806  137.8584  153.1050 H   0  0  0  0  0  0  0  0  0  0  0  0
  1  2  1  0  0  0  0
  1 16  1  0  0  0  0
  1 17  1  0  0  0  0
  1 18  1  0  0  0  0
  2  3  1  0  0  0  0
  2 19  1  0  0  0  0
  2 20  1  0  0  0  0
  3  4  1  0  0  0  0
  3 21  1  0  0  0  0
  3 22  1  0  0  0  0
  4 14  1  0  0  0  0
  4  5  2  0  0  0  0
  5  6  1  0  0  0  0
  6 15  1  0  0  0  0
  6  7  1  0  0  0  0
  7  8  1  0  0  0  0
  7 14  2  0  0  0  0
  8 13  1  0  0  0  0
  8  9  1  0  0  0  0
  8 23  1  0  0  0  0
  9 10  1  0  0  0  0
  9 24  1  0  0  0  0
  9 25  1  0  0  0  0
 10 11  1  0  0  0  0
 10 26  1  0  0  0  0
 10 31  1  0  0  0  0
 11 12  1  0  0  0  0
 11 27  1  0  0  0  0
 11 28  1  0  0  0  0
 12 13  1  0  0  0  0
 12 29  1  0  0  0  0
 12 30  1  0  0  0  0
M  CHG  1  10   1
M  END
> <s_m_source_file>
AV-unprocessed.smi

> <i_m_source_file_index>
2562

> <i_lp_mmshare_version>
43012

> <i_f3d_flags>
0

> <s_epik_input>
W0NIM11bQ0gyXVtDSDJdYzFuW25IXWMobjEpW0NAQEhdMltDSDJdW05IXVtDSDJdW0NIMl1PMg==

> <s_epik_cmdline>
J2VwaWtfcHl0aG9uJywgJy1waCcsICc3LjAnLCAnLXRuJywgJzgnLCAnLW1hJywgJzIwMCcsICctbWV0YWxfYmluZGluZycsICctaW1hZScsICc8aW5maWxlLm1hZT4nLCAnLW9tYWUnLCAnPG91dGZpbGUubWFlPic=

> <r_epik_Ionization_Penalty>
0.162344

> <r_epik_Ionization_Penalty_Charging>
0.125708

> <r_epik_Ionization_Penalty_Neutral>
0.0366364

> <r_epik_State_Penalty>
0.771409

> <r_epik_Charging_Adjusted_Penalty>
0.897117

> <i_epik_Tot_Q>
1

> <i_epik_Tot_abs_Q>
1

> <r_epik_Metal_State_Penalty>
0.893868

> <b_epik_Metal_Only>
0

> <s_lp_Force_Field>
OPLS_2005

> <r_lp_Energy>
12.5305

> <b_lp_Chiralities_Consistent>
1

> <s_lp_Variant>
AV-unprocessed.smi:2562-4

> <Gold.Version>
5.8.1

> <Gold.Id.Protein>
6NUR|6NUR_protein|mol2

> <Gold.PLP.Fitness>
40.4890

> <Gold.PLP.PLP>
-29.1470

> <Gold.PLP.part.hbond>
-2.8939

> <Gold.PLP.part.metal>
0.0000

> <Gold.PLP.part.buried>
-4.4333

> <Gold.PLP.part.nonpolar>
-22.7961

> <Gold.PLP.part.repulsive>
0.4142

> <Gold.PLP.ligand.clash>
0.0000

> <Gold.PLP.ligand.torsion>
0.1254

> <Gold.PLP.Chemscore.Hbond>
3.8620

> <Gold.PLP.Chemscore.CHOScore>
0.0000

> <Gold.PLP.Chemscore.Metal>
0.0000

> <Gold.Chemscore.Hbonds>
donor molecule, donor type, donor heavy atom, donor atom, acceptor molecule, acceptor atom, score
      L1  H     6    15       P1  8028  1.00
      L1  H    10    26       P1  7957  0.94
      L1  H    10    31       P1  7948  1.90

> <Gold.PLP.Chemscore.Internal.Correction>
0.0067

> <Gold.Rescore>
     Score         DG    S(hbond)    S(metal)    S(lipo)     H(rot)  DE(clash)    DE(int)     intcor
     17.84     -17.89       2.84        0.00      57.89       1.51       0.00       0.05       ----

> <Gold.Chemscore.Fitness>
17.8363

> <Gold.Chemscore.DG>
-17.8859

> <Gold.Chemscore.ZeroCoef>
-5.4800

> <Gold.Chemscore.Hbond>
2.8448

> <Gold.Chemscore.Metal>
0.0000

> <Gold.Chemscore.Lipo>
57.8937

> <Gold.Chemscore.Internal_Hbond>
0.0000

> <Gold.Chemscore.DEClash>
0.0000

> <Gold.Chemscore.DEInternal>
0.0496

> <Gold.Chemscore.Rot>
1.5115

> <Gold.Chemscore.Internal.Correction>
   9.000000E+99

> <Gold.Chemscore.Hbonds>
donor molecule, donor type, donor heavy atom, donor atom, acceptor molecule, acceptor atom, score
      L1  H     6    15       P1  8028  1.00
      L1  H    10    26       P1  7957  0.90
      L1  H    10    31       P1  7948  0.85

> <Gold.Chemscore.Hbond.Weighted>
-9.5018

> <Gold.Chemscore.Metal.Weighted>
-0.0000

> <Gold.Chemscore.Lipo.Weighted>
-6.7736

> <Gold.Chemscore.Internal_Hbond.Weighted>
0.0000

> <Gold.Chemscore.DEClash.Weighted>
0.0000

> <Gold.Chemscore.DEInternal.Weighted>
0.0496

> <Gold.Chemscore.Rot.Weighted>
3.8695

> <Gold.Chemscore.Internal.Correction.Weighted>
   9.000000E+99

> <Gold.Protein.RotatedTorsions>
[ 6907 6896 6895 6894 ] final   69.56 input  -60.11 | X-H torsion
[ 7974 7965 7964 7962 ] final   27.43 input  175.53 | X-H torsion
[ 8008 7997 7996 7995 ] final  -80.16 input   59.86 | X-H torsion
[ 10167 10162 10161 10158 ] final   49.07 input  -65.29 | X-H torsion
[ 10718 10713 10712 10709 ] final  143.60 input   66.30 | X-H torsion
[ 10763 10752 10751 10750 ] final  -67.06 input  -60.55 | X-H torsion
[ 11005 11000 10999 10996 ] final  141.44 input  -57.11 | X-H torsion

> <Gold.Protein.ActiveResidues>
 VAL166  LYS551  ARG553  GLY616  TRP617  ASP618  TYR619  PRO620  LYS621  CYS622 
 ASP623  PHE694  ASN695  SER759  ASP760  ASP761  ALA762  ILE779  LEU786  VAL792 
 PHE793  MET794  SER795  GLU796  ALA797  LYS798  CYS799  TRP800  GLU811  SER814 

> <Gold.Protein.RotatedAtoms>
  152.4694  134.4998  159.9720 H   0  0  0  0  0  0  0  0  0  0  0  0  # atno 6907 bound_to 6896
  151.5028  133.3495  159.2879 H   0  0  0  0  0  0  0  0  0  0  0  0  # atno 6908 bound_to 6896
  150.8695  134.8094  159.7206 H   0  0  0  0  0  0  0  0  0  0  0  0  # atno 6909 bound_to 6896
  146.1784  139.7192  142.8918 H   0  0  0  0  0  0  0  0  0  0  0  0  # atno 7974 bound_to 7965
  154.5856  140.0667  156.9166 H   0  0  0  0  0  0  0  0  0  0  0  0  # atno 8008 bound_to 7997
  155.2386  140.3343  155.4276 H   0  0  0  0  0  0  0  0  0  0  0  0  # atno 8009 bound_to 7997
  156.2220  140.1803  156.7439 H   0  0  0  0  0  0  0  0  0  0  0  0  # atno 8010 bound_to 7997
  140.2867  144.3093  150.6250 H   0  0  0  0  0  0  0  0  0  0  0  0  # atno 10167 bound_to 10162
  157.3670  131.0973  151.0863 H   0  0  0  0  0  0  0  0  0  0  0  0  # atno 10718 bound_to 10713
  154.3690  135.6099  153.5730 H   0  0  0  0  0  0  0  0  0  0  0  0  # atno 10763 bound_to 10752
  152.9791  135.5833  154.4544 H   0  0  0  0  0  0  0  0  0  0  0  0  # atno 10764 bound_to 10752
  154.4295  135.2847  155.1899 H   0  0  0  0  0  0  0  0  0  0  0  0  # atno 10765 bound_to 10752
  140.0401  134.9309  157.0828 H   0  0  0  0  0  0  0  0  0  0  0  0  # atno 11005 bound_to 11000
  145.4145  141.0400  143.2998 LP  0  0  0  0  0  0  0  0  0  0  0  0  # atno 17320 bound_to 7965
  144.8274  139.5686  143.6959 LP  0  0  0  0  0  0  0  0  0  0  0  0  # atno 17321 bound_to 7965
  140.5766  143.2176  151.7504 LP  0  0  0  0  0  0  0  0  0  0  0  0  # atno 17342 bound_to 10162
  139.4948  144.4140  152.0049 LP  0  0  0  0  0  0  0  0  0  0  0  0  # atno 17343 bound_to 10162
  157.1981  130.6382  149.5728 LP  0  0  0  0  0  0  0  0  0  0  0  0  # atno 17370 bound_to 10713
  155.9748  130.4700  150.6414 LP  0  0  0  0  0  0  0  0  0  0  0  0  # atno 17371 bound_to 10713
  140.4082  134.2009  155.7163 LP  0  0  0  0  0  0  0  0  0  0  0  0  # atno 17394 bound_to 11000
  141.1878  133.8272  157.1016 LP  0  0  0  0  0  0  0  0  0  0  0  0  # atno 17395 bound_to 11000

$$$$
