AV-unprocessed.smi:277|AV-procd|sdf|2086|dock7
  -GOLD-   2262021363D 1   1.00000     0.00000
 Structure written by MMmdl.
 54 58  0  0  0  0  0  0  0  0  1 V2000
  152.9292  140.0036  157.1428 O   0  0  0  0  0  0  0  0  0  0  0  0
  151.9317  140.7088  157.0000 C   0  0  0  0  0  0  0  0  0  0  0  0
  150.8935  140.4611  155.9215 C   0  0  0  0  0  0  0  0  0  0  0  0
  149.9418  141.5356  156.1794 N   0  0  0  0  0  0  0  0  0  0  0  0
  148.7130  141.5823  155.6013 C   0  0  0  0  0  0  0  0  0  0  0  0
  148.6126  141.2747  154.2810 N   0  0  0  0  0  0  0  0  0  0  0  0
  147.4285  141.2989  153.6642 C   0  0  0  0  0  0  0  0  0  0  0  0
  146.2321  141.5986  154.1702 N   0  0  0  0  0  0  0  0  0  0  0  0
  146.3203  141.9144  155.4936 C   0  0  0  0  0  0  0  0  0  0  0  0
  147.5089  141.9391  156.2797 C   0  0  0  0  0  0  0  0  0  0  0  0
  147.1960  142.3276  157.5783 N   0  0  0  0  0  0  0  0  0  0  0  0
  145.9051  142.5141  157.5609 C   0  0  0  0  0  0  0  0  0  0  0  0
  145.2937  142.2672  156.3531 N   0  0  0  0  0  0  0  0  0  0  0  0
  143.8751  142.3932  156.0474 C   0  0  0  0  0  0  0  0  0  0  0  0
  143.2888  143.8370  156.1399 C   0  0  0  0  0  0  0  0  0  0  0  0
  143.5316  144.3517  157.5876 C   0  0  0  0  0  0  0  0  0  0  0  0
  143.0192  143.4720  158.5688 O   0  0  0  0  0  0  0  0  0  0  0  0
  143.9250  144.7852  155.0892 C   0  0  0  0  0  0  0  0  0  0  0  0
  143.2260  146.1553  155.0270 C   0  0  0  0  0  0  0  0  0  0  0  0
  141.8445  145.9795  154.7382 O   0  0  0  0  0  0  0  0  0  0  0  0
  141.1579  145.2315  155.7339 C   0  0  0  0  0  0  0  0  0  0  0  0
  141.7654  143.8200  155.8484 C   0  0  0  0  0  0  0  0  0  0  0  0
  150.3158  142.3372  157.3368 C   0  0  0  0  0  0  0  0  0  0  0  0
  151.5886  141.7661  157.7453 N   0  0  0  0  0  0  0  0  0  0  0  0
  152.2930  142.2839  158.9154 C   0  0  0  0  0  0  0  0  0  0  0  0
  151.6785  143.5093  159.5676 C   0  0  0  0  0  0  0  0  0  0  0  0
  152.2587  144.8890  159.3517 C   0  0  0  0  0  0  0  0  0  0  0  0
  152.4056  144.2114  160.6910 C   0  0  0  0  0  0  0  0  0  0  0  0
  151.3328  140.5480  154.9269 H   0  0  0  0  0  0  0  0  0  0  0  0
  150.4446  139.4744  156.0447 H   0  0  0  0  0  0  0  0  0  0  0  0
  147.4410  141.0385  152.6161 H   0  0  0  0  0  0  0  0  0  0  0  0
  145.3581  142.8304  158.4371 H   0  0  0  0  0  0  0  0  0  0  0  0
  143.7147  141.9920  155.0457 H   0  0  0  0  0  0  0  0  0  0  0  0
  143.3407  141.7229  156.7214 H   0  0  0  0  0  0  0  0  0  0  0  0
  144.5891  144.4923  157.8022 H   0  0  0  0  0  0  0  0  0  0  0  0
  143.0621  145.3262  157.7262 H   0  0  0  0  0  0  0  0  0  0  0  0
  143.7388  143.1489  159.0892 H   0  0  0  0  0  0  0  0  0  0  0  0
  144.9905  144.9161  155.2785 H   0  0  0  0  0  0  0  0  0  0  0  0
  143.8500  144.3464  154.0950 H   0  0  0  0  0  0  0  0  0  0  0  0
  143.3531  146.7170  155.9527 H   0  0  0  0  0  0  0  0  0  0  0  0
  143.6694  146.7590  154.2350 H   0  0  0  0  0  0  0  0  0  0  0  0
  141.1767  145.7622  156.6858 H   0  0  0  0  0  0  0  0  0  0  0  0
  140.1091  145.1574  155.4459 H   0  0  0  0  0  0  0  0  0  0  0  0
  141.5688  143.3161  154.9034 H   0  0  0  0  0  0  0  0  0  0  0  0
  141.2380  143.2482  156.6129 H   0  0  0  0  0  0  0  0  0  0  0  0
  150.4351  143.3870  157.0662 H   0  0  0  0  0  0  0  0  0  0  0  0
  149.5834  142.2459  158.1401 H   0  0  0  0  0  0  0  0  0  0  0  0
  152.3453  141.4975  159.6695 H   0  0  0  0  0  0  0  0  0  0  0  0
  153.3243  142.5022  158.6350 H   0  0  0  0  0  0  0  0  0  0  0  0
  150.5977  143.4493  159.6821 H   0  0  0  0  0  0  0  0  0  0  0  0
  153.1471  144.9725  158.7290 H   0  0  0  0  0  0  0  0  0  0  0  0
  151.5600  145.7199  159.2791 H   0  0  0  0  0  0  0  0  0  0  0  0
  151.8070  144.5921  161.5160 H   0  0  0  0  0  0  0  0  0  0  0  0
  153.3945  143.8462  160.9619 H   0  0  0  0  0  0  0  0  0  0  0  0
  1  2  2  0  0  0  0
  2 24  1  0  0  0  0
  2  3  1  0  0  0  0
  3  4  1  0  0  0  0
  3 29  1  0  0  0  0
  3 30  1  0  0  0  0
  4  5  1  0  0  0  0
  4 23  1  0  0  0  0
  5 10  1  0  0  0  0
  5  6  2  0  0  0  0
  6  7  1  0  0  0  0
  7  8  2  0  0  0  0
  7 31  1  0  0  0  0
  8  9  1  0  0  0  0
  9 13  1  0  0  0  0
  9 10  2  0  0  0  0
 10 11  1  0  0  0  0
 11 12  2  0  0  0  0
 12 13  1  0  0  0  0
 12 32  1  0  0  0  0
 13 14  1  0  0  0  0
 14 15  1  0  0  0  0
 14 33  1  0  0  0  0
 14 34  1  0  0  0  0
 15 22  1  0  0  0  0
 15 16  1  0  0  0  0
 15 18  1  0  0  0  0
 16 17  1  0  0  0  0
 16 35  1  0  0  0  0
 16 36  1  0  0  0  0
 17 37  1  0  0  0  0
 18 19  1  0  0  0  0
 18 38  1  0  0  0  0
 18 39  1  0  0  0  0
 19 20  1  0  0  0  0
 19 40  1  0  0  0  0
 19 41  1  0  0  0  0
 20 21  1  0  0  0  0
 21 22  1  0  0  0  0
 21 42  1  0  0  0  0
 21 43  1  0  0  0  0
 22 44  1  0  0  0  0
 22 45  1  0  0  0  0
 23 24  1  0  0  0  0
 23 46  1  0  0  0  0
 23 47  1  0  0  0  0
 24 25  1  0  0  0  0
 25 26  1  0  0  0  0
 25 48  1  0  0  0  0
 25 49  1  0  0  0  0
 26 28  1  0  0  0  0
 26 27  1  0  0  0  0
 26 50  1  0  0  0  0
 27 28  1  0  0  0  0
 27 51  1  0  0  0  0
 27 52  1  0  0  0  0
 28 53  1  0  0  0  0
 28 54  1  0  0  0  0
M  END
> <s_m_source_file>
AV-unprocessed.smi

> <i_m_source_file_index>
277

> <i_lp_mmshare_version>
43012

> <i_f3d_flags>
0

> <s_epik_input>
W0NIMl0xW0NIMl1bQ0hdMVtDSDJdTjJbQ0gyXU4oW0NIMl1DMj1PKWMobltjSF1uMyljKGMzNCluW2NIXW40W0NIMl1DNShbQ0gyXVtPSF0pW0NIMl1bQ0gyXU9bQ0gyXVtDSDJdNQ==

> <s_epik_cmdline>
J2VwaWtfcHl0aG9uJywgJy1waCcsICc3LjAnLCAnLXRuJywgJzgnLCAnLW1hJywgJzIwMCcsICctbWV0YWxfYmluZGluZycsICctaW1hZScsICc8aW5maWxlLm1hZT4nLCAnLW9tYWUnLCAnPG91dGZpbGUubWFlPic=

> <r_lp_tautomer_probability>
1

> <r_epik_Ionization_Penalty>
0.00033977

> <r_epik_Ionization_Penalty_Charging>
0

> <r_epik_Ionization_Penalty_Neutral>
0.00033977

> <r_epik_State_Penalty>
-0

> <r_epik_Charging_Adjusted_Penalty>
0

> <i_epik_Tot_Q>
0

> <i_epik_Tot_abs_Q>
0

> <r_epik_Metal_State_Penalty>
-0

> <b_epik_Metal_Only>
0

> <s_epik_Chemistry_Notes>
This compound contains an acetal/aminal-like group ( X-CH(R)-Y where X, Y are N, S, or O) that may be acid/base labile, releasing an aldehyde.

> <s_lp_Force_Field>
OPLS_2005

> <r_lp_Energy>
42.4244

> <b_lp_Chiralities_Consistent>
1

> <s_lp_Variant>
AV-unprocessed.smi:277-1

> <Gold.Version>
5.8.1

> <Gold.Id.Protein>
6NUR|6NUR_protein|mol2

> <Gold.PLP.Fitness>
50.2097

> <Gold.PLP.PLP>
-45.2754

> <Gold.PLP.part.hbond>
-2.0000

> <Gold.PLP.part.metal>
0.0000

> <Gold.PLP.part.buried>
-4.9553

> <Gold.PLP.part.nonpolar>
-38.6484

> <Gold.PLP.part.repulsive>
0.5831

> <Gold.PLP.ligand.clash>
0.0000

> <Gold.PLP.ligand.torsion>
0.8792

> <Gold.PLP.Chemscore.Hbond>
1.0000

> <Gold.PLP.Chemscore.CHOScore>
1.0000

> <Gold.PLP.Chemscore.Metal>
0.0000

> <Gold.Chemscore.Hbonds>
donor molecule, donor type, donor heavy atom, donor atom, acceptor molecule, acceptor atom, score
      P1  H  7997  8010       L1     1  1.00
      L1  C     7    31       P1  7957  0.38

> <Gold.PLP.Chemscore.Internal.Correction>
0.6928

> <Gold.Rescore>
     Score         DG    S(hbond)    S(metal)    S(lipo)     H(rot)  DE(clash)    DE(int)     intcor
     10.67     -11.76       0.99        0.00      86.69       2.80       0.07       1.02       ----

> <Gold.Chemscore.Fitness>
10.6710

> <Gold.Chemscore.DG>
-11.7590

> <Gold.Chemscore.ZeroCoef>
-5.4800

> <Gold.Chemscore.Hbond>
0.9908

> <Gold.Chemscore.Metal>
0.0000

> <Gold.Chemscore.Lipo>
86.6888

> <Gold.Chemscore.Internal_Hbond>
0.0000

> <Gold.Chemscore.DEClash>
0.0659

> <Gold.Chemscore.DEInternal>
1.0221

> <Gold.Chemscore.Rot>
2.8019

> <Gold.Chemscore.Internal.Correction>
   9.000000E+99

> <Gold.Chemscore.Hbonds>
donor molecule, donor type, donor heavy atom, donor atom, acceptor molecule, acceptor atom, score
      P1  H  7997  8010       L1     1  0.93

> <Gold.Chemscore.Hbond.Weighted>
-3.3093

> <Gold.Chemscore.Metal.Weighted>
-0.0000

> <Gold.Chemscore.Lipo.Weighted>
-10.1426

> <Gold.Chemscore.Internal_Hbond.Weighted>
0.0000

> <Gold.Chemscore.DEClash.Weighted>
0.0659

> <Gold.Chemscore.DEInternal.Weighted>
1.0221

> <Gold.Chemscore.Rot.Weighted>
7.1729

> <Gold.Chemscore.Internal.Correction.Weighted>
   9.000000E+99

> <Gold.Protein.RotatedTorsions>
[ 6907 6896 6895 6894 ] final   53.14 input  -60.11 | X-H torsion
[ 7974 7965 7964 7962 ] final -120.24 input  175.53 | X-H torsion
[ 8008 7997 7996 7995 ] final   49.78 input   59.86 | X-H torsion
[ 10167 10162 10161 10158 ] final -108.34 input  -65.29 | X-H torsion
[ 10718 10713 10712 10709 ] final -137.26 input   66.30 | X-H torsion
[ 10763 10752 10751 10750 ] final   71.95 input  -60.55 | X-H torsion
[ 11005 11000 10999 10996 ] final -170.91 input  -57.11 | X-H torsion

> <Gold.Protein.ActiveResidues>
 VAL166  LYS551  ARG553  GLY616  TRP617  ASP618  TYR619  PRO620  LYS621  CYS622 
 ASP623  PHE694  ASN695  SER759  ASP760  ASP761  ALA762  ILE779  LEU786  VAL792 
 PHE793  MET794  SER795  GLU796  ALA797  LYS798  CYS799  TRP800  GLU811  SER814 

> <Gold.Protein.RotatedAtoms>
  152.3306  134.7264  160.0290 H   0  0  0  0  0  0  0  0  0  0  0  0  # atno 6907 bound_to 6896
  151.7682  133.3333  159.3445 H   0  0  0  0  0  0  0  0  0  0  0  0  # atno 6908 bound_to 6896
  150.7421  134.5974  159.6063 H   0  0  0  0  0  0  0  0  0  0  0  0  # atno 6909 bound_to 6896
  145.0535  140.8237  143.4195 H   0  0  0  0  0  0  0  0  0  0  0  0  # atno 7974 bound_to 7965
  155.4079  140.3441  155.4261 H   0  0  0  0  0  0  0  0  0  0  0  0  # atno 8008 bound_to 7997
  156.1466  140.1558  156.8869 H   0  0  0  0  0  0  0  0  0  0  0  0  # atno 8009 bound_to 7997
  154.5016  140.0813  156.7790 H   0  0  0  0  0  0  0  0  0  0  0  0  # atno 8010 bound_to 7997
  140.1672  143.4072  152.1382 H   0  0  0  0  0  0  0  0  0  0  0  0  # atno 10167 bound_to 10162
  156.2861  130.7348  151.1360 H   0  0  0  0  0  0  0  0  0  0  0  0  # atno 10718 bound_to 10713
  153.0429  135.5118  154.7670 H   0  0  0  0  0  0  0  0  0  0  0  0  # atno 10763 bound_to 10752
  154.6593  135.2936  154.9889 H   0  0  0  0  0  0  0  0  0  0  0  0  # atno 10764 bound_to 10752
  154.0746  135.6672  153.4881 H   0  0  0  0  0  0  0  0  0  0  0  0  # atno 10765 bound_to 10752
  140.5141  134.5773  157.5028 H   0  0  0  0  0  0  0  0  0  0  0  0  # atno 11005 bound_to 11000
  145.1497  139.2522  143.5447 LP  0  0  0  0  0  0  0  0  0  0  0  0  # atno 17320 bound_to 7965
  146.3519  140.1196  142.8601 LP  0  0  0  0  0  0  0  0  0  0  0  0  # atno 17321 bound_to 7965
  139.5354  144.7204  151.4911 LP  0  0  0  0  0  0  0  0  0  0  0  0  # atno 17342 bound_to 10162
  140.6605  143.8508  150.6883 LP  0  0  0  0  0  0  0  0  0  0  0  0  # atno 17343 bound_to 10162
  157.7329  131.0596  150.5605 LP  0  0  0  0  0  0  0  0  0  0  0  0  # atno 17370 bound_to 10713
  156.5716  130.4281  149.6017 LP  0  0  0  0  0  0  0  0  0  0  0  0  # atno 17371 bound_to 10713
  139.9642  134.7401  156.0173 LP  0  0  0  0  0  0  0  0  0  0  0  0  # atno 17394 bound_to 11000
  141.1369  133.6573  156.3620 LP  0  0  0  0  0  0  0  0  0  0  0  0  # atno 17395 bound_to 11000

$$$$
