AV-unprocessed.smi:1813|AV-procd|sdf|7341|dock1
  -GOLD-   22720 9 03D 1   1.00000     0.00000
 Structure written by MMmdl.
 40 41  0  0  0  0  0  0  0  0  2 V2000
  142.3401  137.3167  153.0551 C   0  0  0  0  0  0  0  0  0  0  0  0
  143.6286  137.7932  152.5752 N   0  0  0  0  0  0  0  0  0  0  0  0
  144.8031  137.4956  153.1487 C   0  0  0  0  0  0  0  0  0  0  0  0
  144.9042  136.7899  154.1532 O   0  0  0  0  0  0  0  0  0  0  0  0
  146.0489  138.1043  152.4967 C   0  0  0  0  0  0  0  0  0  0  0  0
  146.7183  139.1157  153.3546 N   0  3  2  0  0  0  0  0  0  0  0  0
  147.1218  140.3264  152.5947 C   0  0  0  0  0  0  0  0  0  0  0  0
  147.6769  141.4113  153.5330 C   0  0  0  0  0  0  0  0  0  0  0  0
  148.8552  140.8779  154.3627 C   0  0  1  0  0  0  0  0  0  0  0  0
  149.3103  141.9040  155.2964 N   0  0  0  0  0  0  0  0  0  0  0  0
  150.2395  141.7226  156.2465 C   0  0  0  0  0  0  0  0  0  0  0  0
  150.8042  140.6461  156.4435 O   0  0  0  0  0  0  0  0  0  0  0  0
  150.4615  142.8557  156.9357 N   0  0  0  0  0  0  0  0  0  0  0  0
  151.3733  143.0686  158.0028 C   0  0  0  0  0  0  0  0  0  0  0  0
  152.0957  142.1026  158.5821 N   0  0  0  0  0  0  0  0  0  0  0  0
  152.9091  142.5974  159.6046 C   0  0  0  0  0  0  0  0  0  0  0  0
  152.7928  143.9523  159.7915 C   0  0  0  0  0  0  0  0  0  0  0  0
  151.6497  144.6650  158.6846 S   0  0  0  0  0  0  0  0  0  0  0  0
  148.4233  139.6031  155.1104 C   0  0  0  0  0  0  0  0  0  0  0  0
  147.8541  138.5578  154.1368 C   0  0  0  0  0  0  0  0  0  0  0  0
  141.5400  137.7195  152.4342 H   0  0  0  0  0  0  0  0  0  0  0  0
  142.1650  137.6350  154.0836 H   0  0  0  0  0  0  0  0  0  0  0  0
  142.2885  136.2281  153.0131 H   0  0  0  0  0  0  0  0  0  0  0  0
  143.6245  138.3873  151.7584 H   0  0  0  0  0  0  0  0  0  0  0  0
  146.7572  137.3225  152.2170 H   0  0  0  0  0  0  0  0  0  0  0  0
  145.7161  138.5714  151.5688 H   0  0  0  0  0  0  0  0  0  0  0  0
  147.8681  140.0561  151.8460 H   0  0  0  0  0  0  0  0  0  0  0  0
  146.2624  140.7275  152.0564 H   0  0  0  0  0  0  0  0  0  0  0  0
  147.9924  142.2763  152.9483 H   0  0  0  0  0  0  0  0  0  0  0  0
  146.8820  141.7586  154.1952 H   0  0  0  0  0  0  0  0  0  0  0  0
  149.6695  140.6308  153.6784 H   0  0  0  0  0  0  0  0  0  0  0  0
  148.8968  142.8205  155.2054 H   0  0  0  0  0  0  0  0  0  0  0  0
  149.9207  143.6625  156.6618 H   0  0  0  0  0  0  0  0  0  0  0  0
  153.5422  141.9127  160.1495 H   0  0  0  0  0  0  0  0  0  0  0  0
  153.3087  144.5717  160.5101 H   0  0  0  0  0  0  0  0  0  0  0  0
  149.2695  139.1760  155.6499 H   0  0  0  0  0  0  0  0  0  0  0  0
  147.6699  139.8480  155.8606 H   0  0  0  0  0  0  0  0  0  0  0  0
  147.5290  137.6834  154.7017 H   0  0  0  0  0  0  0  0  0  0  0  0
  148.6354  138.2185  153.4548 H   0  0  0  0  0  0  0  0  0  0  0  0
  146.0227  139.4184  154.0220 H   0  0  0  0  0  0  0  0  0  0  0  0
  1  2  1  0  0  0  0
  1 21  1  0  0  0  0
  1 22  1  0  0  0  0
  1 23  1  0  0  0  0
  2  3  1  0  0  0  0
  2 24  1  0  0  0  0
  3  4  2  0  0  0  0
  3  5  1  0  0  0  0
  5  6  1  0  0  0  0
  5 25  1  0  0  0  0
  5 26  1  0  0  0  0
  6 20  1  0  0  0  0
  6  7  1  0  0  0  0
  6 40  1  0  0  0  0
  7  8  1  0  0  0  0
  7 27  1  0  0  0  0
  7 28  1  0  0  0  0
  8  9  1  0  0  0  0
  8 29  1  0  0  0  0
  8 30  1  0  0  0  0
  9 10  1  0  0  0  0
  9 19  1  0  0  0  0
  9 31  1  0  0  0  0
 10 11  1  0  0  0  0
 10 32  1  0  0  0  0
 11 12  2  0  0  0  0
 11 13  1  0  0  0  0
 13 14  1  0  0  0  0
 13 33  1  0  0  0  0
 14 18  1  0  0  0  0
 14 15  2  0  0  0  0
 15 16  1  0  0  0  0
 16 17  2  0  0  0  0
 16 34  1  0  0  0  0
 17 18  1  0  0  0  0
 17 35  1  0  0  0  0
 19 20  1  0  0  0  0
 19 36  1  0  0  0  0
 19 37  1  0  0  0  0
 20 38  1  0  0  0  0
 20 39  1  0  0  0  0
M  CHG  1   6   1
M  END
> <s_m_source_file>
AV-unprocessed.smi

> <i_m_source_file_index>
1813

> <i_lp_mmshare_version>
43012

> <i_f3d_flags>
0

> <s_epik_input>
W0NIM11bTkhdQyg9TylbQ0gyXU4xW0NIMl1bQ0gyXVtDSF0oW0NIMl1bQ0gyXTEpW05IXUMoPU8pW05IXWMybltjSF1bY0hdczI=

> <s_epik_cmdline>
J2VwaWtfcHl0aG9uJywgJy1waCcsICc3LjAnLCAnLXRuJywgJzgnLCAnLW1hJywgJzIwMCcsICctbWV0YWxfYmluZGluZycsICctaW1hZScsICc8aW5maWxlLm1hZT4nLCAnLW9tYWUnLCAnPG91dGZpbGUubWFlPic=

> <r_lp_tautomer_probability>
0.999

> <r_epik_Ionization_Penalty>
0.862509

> <r_epik_Ionization_Penalty_Charging>
0.862349

> <r_epik_Ionization_Penalty_Neutral>
0.000159522

> <r_epik_State_Penalty>
0.898939

> <r_epik_Charging_Adjusted_Penalty>
1.76129

> <i_epik_Tot_Q>
1

> <i_epik_Tot_abs_Q>
1

> <r_epik_Metal_State_Penalty>
0.936827

> <b_epik_Metal_Only>
0

> <s_lp_Force_Field>
OPLS_2005

> <r_lp_Energy>
11.8372

> <b_lp_Chiralities_Consistent>
1

> <s_lp_Variant>
AV-unprocessed.smi:1813-2

> <Gold.Version>
5.8.1

> <Gold.Id.Protein>
6NUR|6NUR_protein|mol2

> <Gold.PLP.Fitness>
44.6407

> <Gold.PLP.PLP>
-36.9226

> <Gold.PLP.part.hbond>
-4.0000

> <Gold.PLP.part.metal>
0.0000

> <Gold.PLP.part.buried>
-4.8968

> <Gold.PLP.part.nonpolar>
-29.2587

> <Gold.PLP.part.repulsive>
0.3202

> <Gold.PLP.ligand.clash>
0.0000

> <Gold.PLP.ligand.torsion>
0.6679

> <Gold.PLP.Chemscore.Hbond>
3.0000

> <Gold.PLP.Chemscore.CHOScore>
0.0000

> <Gold.PLP.Chemscore.Metal>
0.0000

> <Gold.Chemscore.Hbonds>
donor molecule, donor type, donor heavy atom, donor atom, acceptor molecule, acceptor atom, score
      L1  H     2    24       P1 10171  1.00
      L1  H    10    32       P1  8028  1.00
      L1  H    13    33       P1  8028  1.00

> <Gold.PLP.Chemscore.Internal.Correction>
0.0539

> <Gold.Rescore>
     Score         DG    S(hbond)    S(metal)    S(lipo)     H(rot)  DE(clash)    DE(int)     intcor
     16.06     -20.19       2.88        0.00      82.56       1.79       1.35       2.79       ----

> <Gold.Chemscore.Fitness>
16.0602

> <Gold.Chemscore.DG>
-20.1934

> <Gold.Chemscore.ZeroCoef>
-5.4800

> <Gold.Chemscore.Hbond>
2.8823

> <Gold.Chemscore.Metal>
0.0000

> <Gold.Chemscore.Lipo>
82.5581

> <Gold.Chemscore.Internal_Hbond>
0.0000

> <Gold.Chemscore.DEClash>
1.3451

> <Gold.Chemscore.DEInternal>
2.7881

> <Gold.Chemscore.Rot>
1.7862

> <Gold.Chemscore.Internal.Correction>
   9.000000E+99

> <Gold.Chemscore.Hbonds>
donor molecule, donor type, donor heavy atom, donor atom, acceptor molecule, acceptor atom, score
      L1  H     2    24       P1 10171  0.77
      L1  H    10    32       P1  8028  0.95
      L1  H    13    33       P1  8028  1.00

> <Gold.Chemscore.Hbond.Weighted>
-9.6268

> <Gold.Chemscore.Metal.Weighted>
-0.0000

> <Gold.Chemscore.Lipo.Weighted>
-9.6593

> <Gold.Chemscore.Internal_Hbond.Weighted>
0.0000

> <Gold.Chemscore.DEClash.Weighted>
1.3451

> <Gold.Chemscore.DEInternal.Weighted>
2.7881

> <Gold.Chemscore.Rot.Weighted>
4.5726

> <Gold.Chemscore.Internal.Correction.Weighted>
   9.000000E+99

> <Gold.Protein.RotatedTorsions>
[ 6907 6896 6895 6894 ] final -106.57 input  -60.11 | X-H torsion
[ 7974 7965 7964 7962 ] final   12.61 input  175.53 | X-H torsion
[ 8008 7997 7996 7995 ] final   33.58 input   59.86 | X-H torsion
[ 10167 10162 10161 10158 ] final  -55.32 input  -65.29 | X-H torsion
[ 10718 10713 10712 10709 ] final -131.77 input   66.30 | X-H torsion
[ 10763 10752 10751 10750 ] final   -2.40 input  -60.55 | X-H torsion
[ 11005 11000 10999 10996 ] final   -5.82 input  -57.11 | X-H torsion

> <Gold.Protein.ActiveResidues>
 VAL166  LYS551  ARG553  GLY616  TRP617  ASP618  TYR619  PRO620  LYS621  CYS622 
 ASP623  PHE694  ASN695  SER759  ASP760  ASP761  ALA762  ILE779  LEU786  VAL792 
 PHE793  MET794  SER795  GLU796  ALA797  LYS798  CYS799  TRP800  GLU811  SER814 

> <Gold.Protein.RotatedAtoms>
  150.7396  133.9956  159.3621 H   0  0  0  0  0  0  0  0  0  0  0  0  # atno 6907 bound_to 6896
  151.7907  135.0734  160.0396 H   0  0  0  0  0  0  0  0  0  0  0  0  # atno 6908 bound_to 6896
  152.3210  133.5817  159.5780 H   0  0  0  0  0  0  0  0  0  0  0  0  # atno 6909 bound_to 6896
  146.2347  139.9312  142.8496 H   0  0  0  0  0  0  0  0  0  0  0  0  # atno 7974 bound_to 7965
  155.1409  140.3266  155.4452 H   0  0  0  0  0  0  0  0  0  0  0  0  # atno 8008 bound_to 7997
  156.2605  140.1994  156.6475 H   0  0  0  0  0  0  0  0  0  0  0  0  # atno 8009 bound_to 7997
  154.6543  140.0555  156.9977 H   0  0  0  0  0  0  0  0  0  0  0  0  # atno 8010 bound_to 7997
  140.6381  143.2493  151.5063 H   0  0  0  0  0  0  0  0  0  0  0  0  # atno 10167 bound_to 10162
  156.2278  130.7018  151.0825 H   0  0  0  0  0  0  0  0  0  0  0  0  # atno 10718 bound_to 10713
  153.3575  135.6988  153.6738 H   0  0  0  0  0  0  0  0  0  0  0  0  # atno 10763 bound_to 10752
  153.5440  135.3567  155.2731 H   0  0  0  0  0  0  0  0  0  0  0  0  # atno 10764 bound_to 10752
  154.8663  135.4210  154.2825 H   0  0  0  0  0  0  0  0  0  0  0  0  # atno 10765 bound_to 10752
  140.6953  133.9036  155.8646 H   0  0  0  0  0  0  0  0  0  0  0  0  # atno 11005 bound_to 11000
  145.2043  140.9868  143.4137 LP  0  0  0  0  0  0  0  0  0  0  0  0  # atno 17320 bound_to 7965
  144.9746  139.3845  143.6292 LP  0  0  0  0  0  0  0  0  0  0  0  0  # atno 17321 bound_to 7965
  139.5591  144.2201  152.1662 LP  0  0  0  0  0  0  0  0  0  0  0  0  # atno 17342 bound_to 10162
  140.1464  144.5155  150.6713 LP  0  0  0  0  0  0  0  0  0  0  0  0  # atno 17343 bound_to 10162
  157.7118  131.0730  150.6471 LP  0  0  0  0  0  0  0  0  0  0  0  0  # atno 17370 bound_to 10713
  156.6537  130.4492  149.5710 LP  0  0  0  0  0  0  0  0  0  0  0  0  # atno 17371 bound_to 10713
  141.0208  134.0892  157.4123 LP  0  0  0  0  0  0  0  0  0  0  0  0  # atno 17394 bound_to 11000
  139.8912  135.0117  156.6777 LP  0  0  0  0  0  0  0  0  0  0  0  0  # atno 17395 bound_to 11000

$$$$
