AV-unprocessed.smi:2792|AV-procd|sdf|10773|dock4
  -GOLD-   2272015213D 1   1.00000     0.00000
 Structure written by MMmdl.
 44 46  0  0  0  0  0  0  0  0  1 V2000
  144.2731  136.2306  151.8173 C   0  0  0  0  0  0  0  0  0  0  0  0
  145.4865  137.1202  151.5000 C   0  0  0  0  0  0  0  0  0  0  0  0
  145.9233  138.0855  152.6327 C   0  0  2  0  0  0  0  0  0  0  0  0
  146.4967  137.3363  153.8503 C   0  0  0  0  0  0  0  0  0  0  0  0
  144.7741  138.7845  153.0728 O   0  0  0  0  0  0  0  0  0  0  0  0
  146.9612  139.1277  152.1401 C   0  0  0  0  0  0  0  0  0  0  0  0
  147.5176  139.9665  153.1912 N   0  0  0  0  0  0  0  0  0  0  0  0
  146.9472  141.0973  153.7332 C   0  0  0  0  0  0  0  0  0  0  0  0
  147.6433  141.6787  154.6720 N   0  0  0  0  0  0  0  0  0  0  0  0
  148.7856  140.8954  154.7752 C   0  0  0  0  0  0  0  0  0  0  0  0
  149.9464  140.9519  155.5886 C   0  0  0  0  0  0  0  0  0  0  0  0
  150.1085  141.9279  156.5088 N   0  0  0  0  0  0  0  0  0  0  0  0
  151.4416  142.4377  156.8132 C   0  0  0  0  0  0  0  0  0  0  0  0
  151.5622  143.1632  158.1442 C   0  0  0  0  0  0  0  0  0  0  0  0
  151.0214  144.4571  158.3061 C   0  0  0  0  0  0  0  0  0  0  0  0
  151.1329  145.1222  159.5424 C   0  0  0  0  0  0  0  0  0  0  0  0
  151.7874  144.4978  160.6217 C   0  0  0  0  0  0  0  0  0  0  0  0
  152.3313  143.2084  160.4635 C   0  0  0  0  0  0  0  0  0  0  0  0
  152.2206  142.5432  159.2268 C   0  0  0  0  0  0  0  0  0  0  0  0
  150.8950  139.9960  155.4050 N   0  0  0  0  0  0  0  0  0  0  0  0
  150.7134  139.0394  154.4892 C   0  0  0  0  0  0  0  0  0  0  0  0
  149.6789  138.8580  153.6648 N   0  0  0  0  0  0  0  0  0  0  0  0
  148.7274  139.8188  153.8467 C   0  0  0  0  0  0  0  0  0  0  0  0
  143.9892  135.6467  150.9417 H   0  0  0  0  0  0  0  0  0  0  0  0
  143.4065  136.8236  152.1101 H   0  0  0  0  0  0  0  0  0  0  0  0
  144.4882  135.5245  152.6191 H   0  0  0  0  0  0  0  0  0  0  0  0
  146.3259  136.4772  151.2327 H   0  0  0  0  0  0  0  0  0  0  0  0
  145.2501  137.6917  150.6019 H   0  0  0  0  0  0  0  0  0  0  0  0
  147.3523  136.7229  153.5662 H   0  0  0  0  0  0  0  0  0  0  0  0
  145.7585  136.6820  154.3142 H   0  0  0  0  0  0  0  0  0  0  0  0
  146.8331  138.0313  154.6205 H   0  0  0  0  0  0  0  0  0  0  0  0
  144.6440  139.5341  152.5122 H   0  0  0  0  0  0  0  0  0  0  0  0
  147.7886  138.6299  151.6318 H   0  0  0  0  0  0  0  0  0  0  0  0
  146.5032  139.7828  151.3976 H   0  0  0  0  0  0  0  0  0  0  0  0
  145.9867  141.4744  153.4138 H   0  0  0  0  0  0  0  0  0  0  0  0
  149.3842  142.1801  157.1657 H   0  0  0  0  0  0  0  0  0  0  0  0
  152.1598  141.6180  156.7690 H   0  0  0  0  0  0  0  0  0  0  0  0
  151.7249  143.1329  156.0227 H   0  0  0  0  0  0  0  0  0  0  0  0
  150.5169  144.9421  157.4833 H   0  0  0  0  0  0  0  0  0  0  0  0
  150.7152  146.1108  159.6630 H   0  0  0  0  0  0  0  0  0  0  0  0
  151.8717  145.0071  161.5705 H   0  0  0  0  0  0  0  0  0  0  0  0
  152.8326  142.7284  161.2910 H   0  0  0  0  0  0  0  0  0  0  0  0
  152.6375  141.5532  159.1140 H   0  0  0  0  0  0  0  0  0  0  0  0
  151.5110  138.3163  154.4051 H   0  0  0  0  0  0  0  0  0  0  0  0
  1  2  1  0  0  0  0
  1 24  1  0  0  0  0
  1 25  1  0  0  0  0
  1 26  1  0  0  0  0
  2  3  1  0  0  0  0
  2 27  1  0  0  0  0
  2 28  1  0  0  0  0
  3  4  1  0  0  0  0
  3  5  1  0  0  0  0
  3  6  1  0  0  0  0
  4 29  1  0  0  0  0
  4 30  1  0  0  0  0
  4 31  1  0  0  0  0
  5 32  1  0  0  0  0
  6  7  1  0  0  0  0
  6 33  1  0  0  0  0
  6 34  1  0  0  0  0
  7 23  1  0  0  0  0
  7  8  1  0  0  0  0
  8  9  2  0  0  0  0
  8 35  1  0  0  0  0
  9 10  1  0  0  0  0
 10 23  2  0  0  0  0
 10 11  1  0  0  0  0
 11 12  1  0  0  0  0
 11 20  2  0  0  0  0
 12 13  1  0  0  0  0
 12 36  1  0  0  0  0
 13 14  1  0  0  0  0
 13 37  1  0  0  0  0
 13 38  1  0  0  0  0
 14 19  1  0  0  0  0
 14 15  2  0  0  0  0
 15 16  1  0  0  0  0
 15 39  1  0  0  0  0
 16 17  2  0  0  0  0
 16 40  1  0  0  0  0
 17 18  1  0  0  0  0
 17 41  1  0  0  0  0
 18 19  2  0  0  0  0
 18 42  1  0  0  0  0
 19 43  1  0  0  0  0
 20 21  1  0  0  0  0
 21 22  2  0  0  0  0
 21 44  1  0  0  0  0
 22 23  1  0  0  0  0
M  END
> <s_m_source_file>
AV-unprocessed.smi

> <i_m_source_file_index>
2792

> <i_lp_mmshare_version>
43012

> <i_f3d_flags>
0

> <s_epik_input>
W0NIM11bQ0gyXVtDQEBdKFtDSDNdKShbT0hdKVtDSDJdbihbY0hdbjEpYyhjMTIpbltjSF1uYzJbTkhdW0NIMl1jM1tjSF1bY0hdW2NIXVtjSF1bY0hdMw==

> <s_epik_cmdline>
J2VwaWtfcHl0aG9uJywgJy1waCcsICc3LjAnLCAnLXRuJywgJzgnLCAnLW1hJywgJzIwMCcsICctbWV0YWxfYmluZGluZycsICctaW1hZScsICc8aW5maWxlLm1hZT4nLCAnLW9tYWUnLCAnPG91dGZpbGUubWFlPic=

> <r_lp_tautomer_probability>
1

> <r_epik_Ionization_Penalty>
0.00163025

> <r_epik_Ionization_Penalty_Charging>
0

> <r_epik_Ionization_Penalty_Neutral>
0.00163025

> <r_epik_State_Penalty>
-0

> <r_epik_Charging_Adjusted_Penalty>
0

> <i_epik_Tot_Q>
0

> <i_epik_Tot_abs_Q>
0

> <r_epik_Metal_State_Penalty>
-0

> <b_epik_Metal_Only>
0

> <s_lp_Force_Field>
OPLS_2005

> <r_lp_Energy>
12.9035

> <b_lp_Chiralities_Consistent>
1

> <s_lp_Variant>
AV-unprocessed.smi:2792-2

> <Gold.Version>
5.8.1

> <Gold.Id.Protein>
6NUR|6NUR_protein|mol2

> <Gold.PLP.Fitness>
49.2849

> <Gold.PLP.PLP>
-45.0762

> <Gold.PLP.part.hbond>
-2.0925

> <Gold.PLP.part.metal>
0.0000

> <Gold.PLP.part.buried>
-6.0108

> <Gold.PLP.part.nonpolar>
-39.8411

> <Gold.PLP.part.repulsive>
1.6675

> <Gold.PLP.ligand.clash>
0.0000

> <Gold.PLP.ligand.torsion>
0.9550

> <Gold.PLP.Chemscore.Hbond>
1.0000

> <Gold.PLP.Chemscore.CHOScore>
0.9849

> <Gold.PLP.Chemscore.Metal>
0.0000

> <Gold.Chemscore.Hbonds>
donor molecule, donor type, donor heavy atom, donor atom, acceptor molecule, acceptor atom, score
      L1  H     5    32       P1 10175  0.34
      L1  C     8    35       P1 10175  0.59

> <Gold.PLP.Chemscore.Internal.Correction>
0.1639

> <Gold.Rescore>
     Score         DG    S(hbond)    S(metal)    S(lipo)     H(rot)  DE(clash)    DE(int)     intcor
     13.57     -14.49       1.00        0.00     103.78       2.52       0.24       0.69       ----

> <Gold.Chemscore.Fitness>
13.5666

> <Gold.Chemscore.DG>
-14.4933

> <Gold.Chemscore.ZeroCoef>
-5.4800

> <Gold.Chemscore.Hbond>
0.9986

> <Gold.Chemscore.Metal>
0.0000

> <Gold.Chemscore.Lipo>
103.7787

> <Gold.Chemscore.Internal_Hbond>
0.0000

> <Gold.Chemscore.DEClash>
0.2386

> <Gold.Chemscore.DEInternal>
0.6881

> <Gold.Chemscore.Rot>
2.5250

> <Gold.Chemscore.Internal.Correction>
   9.000000E+99

> <Gold.Chemscore.Hbonds>
donor molecule, donor type, donor heavy atom, donor atom, acceptor molecule, acceptor atom, score
      L1  H     5    32       P1 10175  0.33

> <Gold.Chemscore.Hbond.Weighted>
-3.3352

> <Gold.Chemscore.Metal.Weighted>
-0.0000

> <Gold.Chemscore.Lipo.Weighted>
-12.1421

> <Gold.Chemscore.Internal_Hbond.Weighted>
0.0000

> <Gold.Chemscore.DEClash.Weighted>
0.2386

> <Gold.Chemscore.DEInternal.Weighted>
0.6881

> <Gold.Chemscore.Rot.Weighted>
6.4639

> <Gold.Chemscore.Internal.Correction.Weighted>
   9.000000E+99

> <Gold.Protein.RotatedTorsions>
[ 6907 6896 6895 6894 ] final -109.48 input  -60.11 | X-H torsion
[ 7974 7965 7964 7962 ] final   16.39 input  175.53 | X-H torsion
[ 8008 7997 7996 7995 ] final   13.02 input   59.86 | X-H torsion
[ 10167 10162 10161 10158 ] final -149.16 input  -65.29 | X-H torsion
[ 10718 10713 10712 10709 ] final -152.94 input   66.30 | X-H torsion
[ 10763 10752 10751 10750 ] final   63.71 input  -60.55 | X-H torsion
[ 11005 11000 10999 10996 ] final  -87.07 input  -57.11 | X-H torsion

> <Gold.Protein.ActiveResidues>
 VAL166  LYS551  ARG553  GLY616  TRP617  ASP618  TYR619  PRO620  LYS621  CYS622 
 ASP623  PHE694  ASN695  SER759  ASP760  ASP761  ALA762  ILE779  LEU786  VAL792 
 PHE793  MET794  SER795  GLU796  ALA797  LYS798  CYS799  TRP800  GLU811  SER814 

> <Gold.Protein.RotatedAtoms>
  150.7565  133.9523  159.3489 H   0  0  0  0  0  0  0  0  0  0  0  0  # atno 6907 bound_to 6896
  151.7441  135.0845  160.0330 H   0  0  0  0  0  0  0  0  0  0  0  0  # atno 6908 bound_to 6896
  152.3509  133.6141  159.5980 H   0  0  0  0  0  0  0  0  0  0  0  0  # atno 6909 bound_to 6896
  146.2251  139.8755  142.8580 H   0  0  0  0  0  0  0  0  0  0  0  0  # atno 7974 bound_to 7965
  154.8286  140.2896  155.5737 H   0  0  0  0  0  0  0  0  0  0  0  0  # atno 8008 bound_to 7997
  156.3003  140.2536  156.3138 H   0  0  0  0  0  0  0  0  0  0  0  0  # atno 8009 bound_to 7997
  154.9256  140.0385  157.2010 H   0  0  0  0  0  0  0  0  0  0  0  0  # atno 8010 bound_to 7997
  139.7467  143.8579  152.2576 H   0  0  0  0  0  0  0  0  0  0  0  0  # atno 10167 bound_to 10162
  156.4792  130.8295  151.2522 H   0  0  0  0  0  0  0  0  0  0  0  0  # atno 10718 bound_to 10713
  153.0028  135.5419  154.6395 H   0  0  0  0  0  0  0  0  0  0  0  0  # atno 10763 bound_to 10752
  154.5654  135.2837  155.0881 H   0  0  0  0  0  0  0  0  0  0  0  0  # atno 10764 bound_to 10752
  154.2068  135.6474  153.5156 H   0  0  0  0  0  0  0  0  0  0  0  0  # atno 10765 bound_to 10752
  141.1622  133.7490  156.9254 H   0  0  0  0  0  0  0  0  0  0  0  0  # atno 11005 bound_to 11000
  145.2565  141.0062  143.3851 LP  0  0  0  0  0  0  0  0  0  0  0  0  # atno 17320 bound_to 7965
  144.9333  139.4273  143.6485 LP  0  0  0  0  0  0  0  0  0  0  0  0  # atno 17321 bound_to 7965
  139.8546  144.7148  150.9173 LP  0  0  0  0  0  0  0  0  0  0  0  0  # atno 17342 bound_to 10162
  140.7793  143.3870  151.1376 LP  0  0  0  0  0  0  0  0  0  0  0  0  # atno 17343 bound_to 10162
  157.7485  131.0050  150.3099 LP  0  0  0  0  0  0  0  0  0  0  0  0  # atno 17370 bound_to 10713
  156.3539  130.3835  149.7306 LP  0  0  0  0  0  0  0  0  0  0  0  0  # atno 17371 bound_to 10713
  140.1423  134.9285  157.2483 LP  0  0  0  0  0  0  0  0  0  0  0  0  # atno 17394 bound_to 11000
  140.2822  134.3337  155.7340 LP  0  0  0  0  0  0  0  0  0  0  0  0  # atno 17395 bound_to 11000

$$$$
