AV-unprocessed.smi:1208|AV-procd|sdf|5061|dock1
  -GOLD-   22720 4103D 1   1.00000     0.00000
 Structure written by MMmdl.
 35 36  0  0  0  0  0  0  0  0  2 V2000
  153.6617  141.8716  160.9587 C   0  0  0  0  0  0  0  0  0  0  0  0
  152.4355  141.4429  160.1378 C   0  0  2  0  0  0  0  0  0  0  0  0
  152.8537  140.4292  159.1718 N   0  0  0  0  0  0  0  0  0  0  0  0
  152.1452  139.3521  158.7977 C   0  0  0  0  0  0  0  0  0  0  0  0
  151.0274  139.0892  159.2449 O   0  0  0  0  0  0  0  0  0  0  0  0
  152.8247  138.4469  157.7573 C   0  0  0  0  0  0  0  0  0  0  0  0
  152.0231  138.2018  156.5490 N   0  0  0  0  0  0  0  0  0  0  0  0
  151.4645  139.4144  155.9563 N   0  5  0  0  0  0  0  0  0  0  0  0
  150.7137  139.3145  154.8274 C   0  0  0  0  0  0  0  0  0  0  0  0
  150.2216  140.2905  154.2655 O   0  0  0  0  0  0  0  0  0  0  0  0
  150.4861  137.9908  154.2717 C   0  0  0  0  0  0  0  0  0  0  0  0
  150.9963  136.8867  154.8520 C   0  0  0  0  0  0  0  0  0  0  0  0
  151.8072  136.9464  156.0622 C   0  0  0  0  0  0  0  0  0  0  0  0
  152.2664  135.9409  156.6045 O   0  0  0  0  0  0  0  0  0  0  0  0
  151.7810  142.6262  159.3962 C   0  0  2  0  0  0  0  0  0  0  0  0
  152.7554  143.4930  158.5949 C   0  0  0  0  0  0  0  0  0  0  0  0
  152.0244  144.8141  158.5434 C   0  0  0  0  0  0  0  0  0  0  0  0
  151.4158  144.8789  159.9397 C   0  0  0  0  0  0  0  0  0  0  0  0
  151.1748  143.5277  160.3222 O   0  0  0  0  0  0  0  0  0  0  0  0
  153.3935  142.5962  161.7275 H   0  0  0  0  0  0  0  0  0  0  0  0
  154.4251  142.3248  160.3256 H   0  0  0  0  0  0  0  0  0  0  0  0
  154.1124  141.0165  161.4636 H   0  0  0  0  0  0  0  0  0  0  0  0
  151.7035  141.0234  160.8301 H   0  0  0  0  0  0  0  0  0  0  0  0
  153.7594  140.5593  158.7455 H   0  0  0  0  0  0  0  0  0  0  0  0
  153.7820  138.8906  157.4790 H   0  0  0  0  0  0  0  0  0  0  0  0
  153.0729  137.4998  158.2404 H   0  0  0  0  0  0  0  0  0  0  0  0
  149.8929  137.8905  153.3747 H   0  0  0  0  0  0  0  0  0  0  0  0
  150.8006  135.9232  154.4053 H   0  0  0  0  0  0  0  0  0  0  0  0
  150.9960  142.2657  158.7291 H   0  0  0  0  0  0  0  0  0  0  0  0
  153.6982  143.6113  159.1313 H   0  0  0  0  0  0  0  0  0  0  0  0
  152.9724  143.0883  157.6061 H   0  0  0  0  0  0  0  0  0  0  0  0
  152.6760  145.6593  158.3212 H   0  0  0  0  0  0  0  0  0  0  0  0
  151.2370  144.7779  157.7893 H   0  0  0  0  0  0  0  0  0  0  0  0
  152.1253  145.3149  160.6439 H   0  0  0  0  0  0  0  0  0  0  0  0
  150.5014  145.4714  159.9688 H   0  0  0  0  0  0  0  0  0  0  0  0
  1  2  1  0  0  0  0
  1 20  1  0  0  0  0
  1 21  1  0  0  0  0
  1 22  1  0  0  0  0
  2  3  1  0  0  0  0
  2 15  1  0  0  0  0
  2 23  1  0  0  0  0
  3  4  1  0  0  0  0
  3 24  1  0  0  0  0
  4  5  2  0  0  0  0
  4  6  1  0  0  0  0
  6 25  1  0  0  0  0
  6 26  1  0  0  0  0
  6  7  1  0  0  0  0
  7  8  1  0  0  0  0
  7 13  1  0  0  0  0
  8  9  1  0  0  0  0
  9 10  2  0  0  0  0
  9 11  1  0  0  0  0
 11 27  1  0  0  0  0
 11 12  2  0  0  0  0
 12 28  1  0  0  0  0
 12 13  1  0  0  0  0
 13 14  2  0  0  0  0
 15 19  1  0  0  0  0
 15 16  1  0  0  0  0
 15 29  1  0  0  0  0
 16 17  1  0  0  0  0
 16 30  1  0  0  0  0
 16 31  1  0  0  0  0
 17 18  1  0  0  0  0
 17 32  1  0  0  0  0
 17 33  1  0  0  0  0
 18 19  1  0  0  0  0
 18 34  1  0  0  0  0
 18 35  1  0  0  0  0
M  CHG  1   8  -1
M  END
> <s_m_source_file>
AV-unprocessed.smi

> <i_m_source_file_index>
1208

> <i_lp_mmshare_version>
43012

> <i_f3d_flags>
0

> <s_epik_input>
TzFbQ0gyXVtDSDJdW0NIMl1bQ0BIXTFbQ0BIXShbQ0gzXSlbTkhdQyg9TylbQ0gyXW4yW25IXWMoPU8pW2NIXVtjSF1jMj1P

> <s_epik_cmdline>
J2VwaWtfcHl0aG9uJywgJy1waCcsICc3LjAnLCAnLXRuJywgJzgnLCAnLW1hJywgJzIwMCcsICctbWV0YWxfYmluZGluZycsICctaW1hZScsICc8aW5maWxlLm1hZT4nLCAnLW9tYWUnLCAnPG91dGZpbGUubWFlPic=

> <r_lp_tautomer_probability>
1

> <r_epik_Ionization_Penalty>
0.0975494

> <r_epik_Ionization_Penalty_Charging>
0.0975494

> <r_epik_Ionization_Penalty_Neutral>
2.30132e-08

> <r_epik_State_Penalty>
0.034345

> <r_epik_Charging_Adjusted_Penalty>
0.131894

> <i_epik_Tot_Q>
-1

> <i_epik_Tot_abs_Q>
1

> <r_epik_Metal_State_Penalty>
0.034345

> <b_epik_Metal_Only>
0

> <s_lp_Force_Field>
OPLS_2005

> <r_lp_Energy>
34.668

> <b_lp_Chiralities_Consistent>
1

> <s_lp_Variant>
AV-unprocessed.smi:1208-1

> <Gold.Version>
5.8.1

> <Gold.Id.Protein>
6NUR|6NUR_protein|mol2

> <Gold.PLP.Fitness>
42.5513

> <Gold.PLP.PLP>
-37.8167

> <Gold.PLP.part.hbond>
-2.5008

> <Gold.PLP.part.metal>
0.0000

> <Gold.PLP.part.buried>
-3.9158

> <Gold.PLP.part.nonpolar>
-31.7303

> <Gold.PLP.part.repulsive>
0.3179

> <Gold.PLP.ligand.clash>
0.0000

> <Gold.PLP.ligand.torsion>
0.5662

> <Gold.PLP.Chemscore.Hbond>
1.9440

> <Gold.PLP.Chemscore.CHOScore>
0.0000

> <Gold.PLP.Chemscore.Metal>
0.0000

> <Gold.Chemscore.Hbonds>
donor molecule, donor type, donor heavy atom, donor atom, acceptor molecule, acceptor atom, score
      P1  H  7989  7998       L1    10  0.93
      P1  H 10752 10764       L1    14  1.00

> <Gold.PLP.Chemscore.Internal.Correction>
0.0350

> <Gold.Rescore>
     Score         DG    S(hbond)    S(metal)    S(lipo)     H(rot)  DE(clash)    DE(int)     intcor
     13.34     -13.88       0.96        0.00      88.13       1.99       0.02       0.52       ----

> <Gold.Chemscore.Fitness>
13.3383

> <Gold.Chemscore.DG>
-13.8794

> <Gold.Chemscore.ZeroCoef>
-5.4800

> <Gold.Chemscore.Hbond>
0.9561

> <Gold.Chemscore.Metal>
0.0000

> <Gold.Chemscore.Lipo>
88.1263

> <Gold.Chemscore.Internal_Hbond>
0.0000

> <Gold.Chemscore.DEClash>
0.0226

> <Gold.Chemscore.DEInternal>
0.5184

> <Gold.Chemscore.Rot>
1.9940

> <Gold.Chemscore.Internal.Correction>
   9.000000E+99

> <Gold.Chemscore.Hbonds>
donor molecule, donor type, donor heavy atom, donor atom, acceptor molecule, acceptor atom, score
      P1  H  7989  7998       L1    10  0.20
      P1  H 10752 10764       L1    14  0.26

> <Gold.Chemscore.Hbond.Weighted>
-3.1933

> <Gold.Chemscore.Metal.Weighted>
-0.0000

> <Gold.Chemscore.Lipo.Weighted>
-10.3108

> <Gold.Chemscore.Internal_Hbond.Weighted>
0.0000

> <Gold.Chemscore.DEClash.Weighted>
0.0226

> <Gold.Chemscore.DEInternal.Weighted>
0.5184

> <Gold.Chemscore.Rot.Weighted>
5.1047

> <Gold.Chemscore.Internal.Correction.Weighted>
   9.000000E+99

> <Gold.Protein.RotatedTorsions>
[ 6907 6896 6895 6894 ] final -149.72 input  -60.11 | X-H torsion
[ 7974 7965 7964 7962 ] final  150.46 input  175.53 | X-H torsion
[ 8008 7997 7996 7995 ] final  119.27 input   59.86 | X-H torsion
[ 10167 10162 10161 10158 ] final   -6.63 input  -65.29 | X-H torsion
[ 10718 10713 10712 10709 ] final  -55.31 input   66.30 | X-H torsion
[ 10763 10752 10751 10750 ] final   -6.12 input  -60.55 | X-H torsion
[ 11005 11000 10999 10996 ] final  -99.46 input  -57.11 | X-H torsion

> <Gold.Protein.ActiveResidues>
 VAL166  LYS551  ARG553  GLY616  TRP617  ASP618  TYR619  PRO620  LYS621  CYS622 
 ASP623  PHE694  ASN695  SER759  ASP760  ASP761  ALA762  ILE779  LEU786  VAL792 
 PHE793  MET794  SER795  GLU796  ALA797  LYS798  CYS799  TRP800  GLU811  SER814 

> <Gold.Protein.RotatedAtoms>
  151.1882  133.4683  159.2594 H   0  0  0  0  0  0  0  0  0  0  0  0  # atno 6907 bound_to 6896
  151.1190  135.0069  159.8540 H   0  0  0  0  0  0  0  0  0  0  0  0  # atno 6908 bound_to 6896
  152.5455  134.1795  159.8682 H   0  0  0  0  0  0  0  0  0  0  0  0  # atno 6909 bound_to 6896
  144.8363  139.6411  143.6036 H   0  0  0  0  0  0  0  0  0  0  0  0  # atno 7974 bound_to 7965
  156.2588  140.2856  156.0966 H   0  0  0  0  0  0  0  0  0  0  0  0  # atno 8008 bound_to 7997
  155.1405  140.0395  157.2815 H   0  0  0  0  0  0  0  0  0  0  0  0  # atno 8009 bound_to 7997
  154.6533  140.2549  155.7196 H   0  0  0  0  0  0  0  0  0  0  0  0  # atno 8010 bound_to 7997
  140.7003  143.6172  150.8647 H   0  0  0  0  0  0  0  0  0  0  0  0  # atno 10167 bound_to 10162
  156.1379  130.4156  150.0154 H   0  0  0  0  0  0  0  0  0  0  0  0  # atno 10718 bound_to 10713
  153.4080  135.7007  153.6379 H   0  0  0  0  0  0  0  0  0  0  0  0  # atno 10763 bound_to 10752
  153.4885  135.3678  155.2480 H   0  0  0  0  0  0  0  0  0  0  0  0  # atno 10764 bound_to 10752
  154.8715  135.4083  154.3427 H   0  0  0  0  0  0  0  0  0  0  0  0  # atno 10765 bound_to 10752
  141.1308  133.8323  157.0974 H   0  0  0  0  0  0  0  0  0  0  0  0  # atno 11005 bound_to 11000
  146.2661  139.6523  142.9328 LP  0  0  0  0  0  0  0  0  0  0  0  0  # atno 17320 bound_to 7965
  145.4789  141.0437  143.2657 LP  0  0  0  0  0  0  0  0  0  0  0  0  # atno 17321 bound_to 7965
  139.9893  143.5864  152.2915 LP  0  0  0  0  0  0  0  0  0  0  0  0  # atno 17342 bound_to 10162
  139.6514  144.7661  151.2141 LP  0  0  0  0  0  0  0  0  0  0  0  0  # atno 17343 bound_to 10162
  156.8048  130.9303  151.3645 LP  0  0  0  0  0  0  0  0  0  0  0  0  # atno 17370 bound_to 10713
  157.6549  130.8916  149.9708 LP  0  0  0  0  0  0  0  0  0  0  0  0  # atno 17371 bound_to 10713
  140.0355  134.9880  157.0862 LP  0  0  0  0  0  0  0  0  0  0  0  0  # atno 17394 bound_to 11000
  140.4218  134.1873  155.7165 LP  0  0  0  0  0  0  0  0  0  0  0  0  # atno 17395 bound_to 11000

$$$$
