AV-unprocessed.smi:2671|AV-procd|sdf|10346|dock4
  -GOLD-   2272014373D 1   1.00000     0.00000
 Structure written by MMmdl.
 28 29  0  0  0  0  0  0  0  0  2 V2000
  153.1553  137.8546  154.4219 O   0  0  0  0  0  0  0  0  0  0  0  0
  152.2717  138.5253  154.9513 C   0  0  0  0  0  0  0  0  0  0  0  0
  150.8795  138.3259  154.5518 C   0  0  0  0  0  0  0  0  0  0  0  0
  149.9113  139.0688  155.1439 C   0  0  0  0  0  0  0  0  0  0  0  0
  148.4491  138.9141  154.7608 C   0  0  0  0  0  0  0  0  0  0  0  0
  148.0589  137.6491  154.9192 F   0  0  0  0  0  0  0  0  0  0  0  0
  147.6869  139.6831  155.5380 F   0  0  0  0  0  0  0  0  0  0  0  0
  148.2337  139.2616  153.4906 F   0  0  0  0  0  0  0  0  0  0  0  0
  150.2453  140.0243  156.1220 N   0  0  0  0  0  0  0  0  0  0  0  0
  151.4720  140.1812  156.4558 C   0  0  0  0  0  0  0  0  0  0  0  0
  151.9055  141.3989  157.7109 S   0  0  0  0  0  0  0  0  0  0  0  0
  150.3440  142.2744  158.0276 C   0  0  0  0  0  0  0  0  0  0  0  0
  150.5788  143.6232  158.7212 C   0  0  2  0  0  0  0  0  0  0  0  0
  151.6527  144.4970  158.0697 C   0  0  0  0  0  0  0  0  0  0  0  0
  152.2028  145.3228  159.2237 C   0  0  0  0  0  0  0  0  0  0  0  0
  151.5928  144.6799  160.4715 C   0  0  0  0  0  0  0  0  0  0  0  0
  151.0957  143.4264  160.0276 O   0  0  0  0  0  0  0  0  0  0  0  0
  152.5160  139.4655  155.9094 N   0  5  0  0  0  0  0  0  0  0  0  0
  150.6292  137.5963  153.7958 H   0  0  0  0  0  0  0  0  0  0  0  0
  149.6919  141.6462  158.6356 H   0  0  0  0  0  0  0  0  0  0  0  0
  149.8378  142.4356  157.0755 H   0  0  0  0  0  0  0  0  0  0  0  0
  149.6408  144.1764  158.7998 H   0  0  0  0  0  0  0  0  0  0  0  0
  152.4483  143.8765  157.6553 H   0  0  0  0  0  0  0  0  0  0  0  0
  151.2545  145.1118  157.2622 H   0  0  0  0  0  0  0  0  0  0  0  0
  153.2918  145.2717  159.2441 H   0  0  0  0  0  0  0  0  0  0  0  0
  151.9168  146.3723  159.1463 H   0  0  0  0  0  0  0  0  0  0  0  0
  152.3158  144.5579  161.2783 H   0  0  0  0  0  0  0  0  0  0  0  0
  150.7627  145.2806  160.8461 H   0  0  0  0  0  0  0  0  0  0  0  0
  1  2  2  0  0  0  0
  2 18  1  0  0  0  0
  2  3  1  0  0  0  0
  3 19  1  0  0  0  0
  3  4  2  0  0  0  0
  4  5  1  0  0  0  0
  4  9  1  0  0  0  0
  5  6  1  0  0  0  0
  5  7  1  0  0  0  0
  5  8  1  0  0  0  0
  9 10  2  0  0  0  0
 10 11  1  0  0  0  0
 10 18  1  0  0  0  0
 11 12  1  0  0  0  0
 12 13  1  0  0  0  0
 12 20  1  0  0  0  0
 12 21  1  0  0  0  0
 13 17  1  0  0  0  0
 13 14  1  0  0  0  0
 13 22  1  0  0  0  0
 14 15  1  0  0  0  0
 14 23  1  0  0  0  0
 14 24  1  0  0  0  0
 15 16  1  0  0  0  0
 15 25  1  0  0  0  0
 15 26  1  0  0  0  0
 16 17  1  0  0  0  0
 16 27  1  0  0  0  0
 16 28  1  0  0  0  0
M  CHG  1  18  -1
M  END
> <s_m_source_file>
AV-unprocessed.smi

> <i_m_source_file_index>
2671

> <i_lp_mmshare_version>
43012

> <i_f3d_flags>
0

> <s_epik_input>
W09IXWMxW2NIXWMoQyhGKShGKUYpbmMobjEpU1tDSDJdW0NAQEhdMltDSDJdW0NIMl1bQ0gyXU8y

> <s_epik_cmdline>
J2VwaWtfcHl0aG9uJywgJy1waCcsICc3LjAnLCAnLXRuJywgJzgnLCAnLW1hJywgJzIwMCcsICctbWV0YWxfYmluZGluZycsICctaW1hZScsICc8aW5maWxlLm1hZT4nLCAnLW9tYWUnLCAnPG91dGZpbGUubWFlPic=

> <r_lp_tautomer_probability>
1

> <r_epik_Ionization_Penalty>
0.972901

> <r_epik_Ionization_Penalty_Charging>
0.00136034

> <r_epik_Ionization_Penalty_Neutral>
0.971541

> <r_epik_State_Penalty>
0.242243

> <r_epik_Charging_Adjusted_Penalty>
0.243604

> <i_epik_Tot_Q>
-1

> <i_epik_Tot_abs_Q>
1

> <r_epik_Metal_State_Penalty>
0.0617458

> <b_epik_Metal_Only>
0

> <s_lp_Force_Field>
OPLS_2005

> <r_lp_Energy>
24.2298

> <b_lp_Chiralities_Consistent>
1

> <s_lp_Variant>
AV-unprocessed.smi:2671-1

> <Gold.Version>
5.8.1

> <Gold.Id.Protein>
6NUR|6NUR_protein|mol2

> <Gold.PLP.Fitness>
39.7265

> <Gold.PLP.PLP>
-33.9767

> <Gold.PLP.part.hbond>
-2.4006

> <Gold.PLP.part.metal>
0.0000

> <Gold.PLP.part.buried>
-4.8923

> <Gold.PLP.part.nonpolar>
-27.0775

> <Gold.PLP.part.repulsive>
0.1018

> <Gold.PLP.ligand.clash>
0.0000

> <Gold.PLP.ligand.torsion>
0.2271

> <Gold.PLP.Chemscore.Hbond>
2.0608

> <Gold.PLP.Chemscore.CHOScore>
0.0000

> <Gold.PLP.Chemscore.Metal>
0.0000

> <Gold.Chemscore.Hbonds>
donor molecule, donor type, donor heavy atom, donor atom, acceptor molecule, acceptor atom, score
      P1  H  7997  8010       L1    18  2.00
      P1  H 10752 10765       L1     1  0.07

> <Gold.PLP.Chemscore.Internal.Correction>
0.0215

> <Gold.Rescore>
     Score         DG    S(hbond)    S(metal)    S(lipo)     H(rot)  DE(clash)    DE(int)     intcor
     13.21     -13.44       1.02        0.00      75.38       1.66       0.03       0.20       ----

> <Gold.Chemscore.Fitness>
13.2116

> <Gold.Chemscore.DG>
-13.4443

> <Gold.Chemscore.ZeroCoef>
-5.4800

> <Gold.Chemscore.Hbond>
1.0199

> <Gold.Chemscore.Metal>
0.0000

> <Gold.Chemscore.Lipo>
75.3840

> <Gold.Chemscore.Internal_Hbond>
0.0000

> <Gold.Chemscore.DEClash>
0.0284

> <Gold.Chemscore.DEInternal>
0.2043

> <Gold.Chemscore.Rot>
1.6649

> <Gold.Chemscore.Internal.Correction>
   9.000000E+99

> <Gold.Chemscore.Hbonds>
donor molecule, donor type, donor heavy atom, donor atom, acceptor molecule, acceptor atom, score
      P1  H  7997  8010       L1    18  0.92
      P1  H 10752 10765       L1     1  0.07

> <Gold.Chemscore.Hbond.Weighted>
-3.4064

> <Gold.Chemscore.Metal.Weighted>
-0.0000

> <Gold.Chemscore.Lipo.Weighted>
-8.8199

> <Gold.Chemscore.Internal_Hbond.Weighted>
0.0000

> <Gold.Chemscore.DEClash.Weighted>
0.0284

> <Gold.Chemscore.DEInternal.Weighted>
0.2043

> <Gold.Chemscore.Rot.Weighted>
4.2620

> <Gold.Chemscore.Internal.Correction.Weighted>
   9.000000E+99

> <Gold.Protein.RotatedTorsions>
[ 6907 6896 6895 6894 ] final   82.53 input  -60.11 | X-H torsion
[ 7974 7965 7964 7962 ] final   52.16 input  175.53 | X-H torsion
[ 8008 7997 7996 7995 ] final   85.64 input   59.86 | X-H torsion
[ 10167 10162 10161 10158 ] final  101.48 input  -65.29 | X-H torsion
[ 10718 10713 10712 10709 ] final -126.61 input   66.30 | X-H torsion
[ 10763 10752 10751 10750 ] final -176.70 input  -60.55 | X-H torsion
[ 11005 11000 10999 10996 ] final   59.18 input  -57.11 | X-H torsion

> <Gold.Protein.ActiveResidues>
 VAL166  LYS551  ARG553  GLY616  TRP617  ASP618  TYR619  PRO620  LYS621  CYS622 
 ASP623  PHE694  ASN695  SER759  ASP760  ASP761  ALA762  ILE779  LEU786  VAL792 
 PHE793  MET794  SER795  GLU796  ALA797  LYS798  CYS799  TRP800  GLU811  SER814 

> <Gold.Protein.RotatedAtoms>
  152.5302  134.3035  159.9086 H   0  0  0  0  0  0  0  0  0  0  0  0  # atno 6907 bound_to 6896
  151.2985  133.4126  159.2645 H   0  0  0  0  0  0  0  0  0  0  0  0  # atno 6908 bound_to 6896
  151.0139  134.9434  159.8079 H   0  0  0  0  0  0  0  0  0  0  0  0  # atno 6909 bound_to 6896
  145.9841  139.4272  143.0114 H   0  0  0  0  0  0  0  0  0  0  0  0  # atno 7974 bound_to 7965
  155.9526  140.3399  155.6421 H   0  0  0  0  0  0  0  0  0  0  0  0  # atno 8008 bound_to 7997
  155.6900  140.0748  157.2470 H   0  0  0  0  0  0  0  0  0  0  0  0  # atno 8009 bound_to 7997
  154.4125  140.1659  156.2064 H   0  0  0  0  0  0  0  0  0  0  0  0  # atno 8010 bound_to 7997
  139.7435  144.7005  151.0540 H   0  0  0  0  0  0  0  0  0  0  0  0  # atno 10167 bound_to 10162
  156.1781  130.6713  151.0269 H   0  0  0  0  0  0  0  0  0  0  0  0  # atno 10718 bound_to 10713
  154.5691  135.2826  155.0844 H   0  0  0  0  0  0  0  0  0  0  0  0  # atno 10763 bound_to 10752
  154.2224  135.6389  153.5152 H   0  0  0  0  0  0  0  0  0  0  0  0  # atno 10764 bound_to 10752
  153.0052  135.5517  154.6309 H   0  0  0  0  0  0  0  0  0  0  0  0  # atno 10765 bound_to 10752
  140.0322  134.5995  155.9491 H   0  0  0  0  0  0  0  0  0  0  0  0  # atno 11005 bound_to 11000
  145.7727  140.9890  143.1141 LP  0  0  0  0  0  0  0  0  0  0  0  0  # atno 17320 bound_to 7965
  144.6869  139.9467  143.7477 LP  0  0  0  0  0  0  0  0  0  0  0  0  # atno 17321 bound_to 7965
  140.7789  143.4896  150.9911 LP  0  0  0  0  0  0  0  0  0  0  0  0  # atno 17342 bound_to 10162
  139.8584  143.7347  152.3175 LP  0  0  0  0  0  0  0  0  0  0  0  0  # atno 17343 bound_to 10162
  157.6850  131.0827  150.7268 LP  0  0  0  0  0  0  0  0  0  0  0  0  # atno 17370 bound_to 10713
  156.7326  130.4714  149.5496 LP  0  0  0  0  0  0  0  0  0  0  0  0  # atno 17371 bound_to 10713
  141.1838  133.6551  156.5129 LP  0  0  0  0  0  0  0  0  0  0  0  0  # atno 17394 bound_to 11000
  140.4206  134.7191  157.4887 LP  0  0  0  0  0  0  0  0  0  0  0  0  # atno 17395 bound_to 11000

$$$$
