AV-unprocessed.smi:675|AV-procd|sdf|3306|dock8
  -GOLD-   22720 0263D 1   1.00000     0.00000
 Structure written by MMmdl.
 28 29  0  0  0  0  0  0  0  0  2 V2000
  146.7725  139.2424  153.2081 O   0  0  0  0  0  0  0  0  0  0  0  0
  147.7107  139.6799  153.8727 C   0  0  0  0  0  0  0  0  0  0  0  0
  148.8686  138.9816  154.0619 N   0  5  0  0  0  0  0  0  0  0  0  0
  149.9231  139.4510  154.7979 C   0  0  0  0  0  0  0  0  0  0  0  0
  150.9560  138.7998  154.9542 O   0  0  0  0  0  0  0  0  0  0  0  0
  149.8233  140.6842  155.3768 N   0  0  0  0  0  0  0  0  0  0  0  0
  150.8985  141.2666  156.1929 C   0  0  0  0  0  0  0  0  0  0  0  0
  150.5019  141.3716  157.6814 C   0  0  1  0  0  0  0  0  0  0  0  0
  150.8272  140.1551  158.3263 O   0  0  0  0  0  0  0  0  0  0  0  0
  151.1882  142.5667  158.3419 C   0  0  0  0  0  0  0  0  0  0  0  0
  150.5241  143.8142  158.4076 C   0  0  0  0  0  0  0  0  0  0  0  0
  151.1373  144.9238  159.0190 C   0  0  0  0  0  0  0  0  0  0  0  0
  152.4210  144.7972  159.5790 C   0  0  0  0  0  0  0  0  0  0  0  0
  153.0860  143.5584  159.5319 C   0  0  0  0  0  0  0  0  0  0  0  0
  152.4770  142.4434  158.9214 C   0  0  0  0  0  0  0  0  0  0  0  0
  153.3343  140.9413  158.9161 Cl  0  0  0  0  0  0  0  0  0  0  0  0
  148.6519  141.4437  155.2140 C   0  0  0  0  0  0  0  0  0  0  0  0
  147.6039  140.9980  154.4950 C   0  0  0  0  0  0  0  0  0  0  0  0
  146.1757  141.9536  154.3162 Cl  0  0  0  0  0  0  0  0  0  0  0  0
  151.8502  140.7452  156.0745 H   0  0  0  0  0  0  0  0  0  0  0  0
  151.0873  142.2683  155.8030 H   0  0  0  0  0  0  0  0  0  0  0  0
  149.4222  141.4842  157.7755 H   0  0  0  0  0  0  0  0  0  0  0  0
  151.7140  140.2126  158.6465 H   0  0  0  0  0  0  0  0  0  0  0  0
  149.5337  143.9290  157.9920 H   0  0  0  0  0  0  0  0  0  0  0  0
  150.6206  145.8713  159.0605 H   0  0  0  0  0  0  0  0  0  0  0  0
  152.8926  145.6473  160.0492 H   0  0  0  0  0  0  0  0  0  0  0  0
  154.0682  143.4626  159.9710 H   0  0  0  0  0  0  0  0  0  0  0  0
  148.6577  142.4026  155.7112 H   0  0  0  0  0  0  0  0  0  0  0  0
  1  2  2  0  0  0  0
  2 18  1  0  0  0  0
  2  3  1  0  0  0  0
  3  4  1  0  0  0  0
  4  5  2  0  0  0  0
  4  6  1  0  0  0  0
  6  7  1  0  0  0  0
  6 17  1  0  0  0  0
  7  8  1  0  0  0  0
  7 20  1  0  0  0  0
  7 21  1  0  0  0  0
  8  9  1  0  0  0  0
  8 10  1  0  0  0  0
  8 22  1  0  0  0  0
  9 23  1  0  0  0  0
 10 15  1  0  0  0  0
 10 11  2  0  0  0  0
 11 12  1  0  0  0  0
 11 24  1  0  0  0  0
 12 13  2  0  0  0  0
 12 25  1  0  0  0  0
 13 14  1  0  0  0  0
 13 26  1  0  0  0  0
 14 15  2  0  0  0  0
 14 27  1  0  0  0  0
 15 16  1  0  0  0  0
 17 18  2  0  0  0  0
 17 28  1  0  0  0  0
 18 19  1  0  0  0  0
M  CHG  1   3  -1
M  END
> <s_m_source_file>
AV-unprocessed.smi

> <i_m_source_file_index>
675

> <i_lp_mmshare_version>
43012

> <i_f3d_flags>
0

> <s_epik_input>
Tz1jMVtuSF1jKD1PKW4oW2NIXWMxQ2wpW0NIMl1bQ0BIXShbT0hdKWMyW2NIXVtjSF1bY0hdW2NIXWMyQ2w=

> <s_epik_cmdline>
J2VwaWtfcHl0aG9uJywgJy1waCcsICc3LjAnLCAnLXRuJywgJzgnLCAnLW1hJywgJzIwMCcsICctbWV0YWxfYmluZGluZycsICctaW1hZScsICc8aW5maWxlLm1hZT4nLCAnLW9tYWUnLCAnPG91dGZpbGUubWFlPic=

> <r_epik_Ionization_Penalty>
1.79791

> <r_epik_Ionization_Penalty_Charging>
3.23819e-08

> <r_epik_Ionization_Penalty_Neutral>
1.79791

> <r_epik_State_Penalty>
1.91135

> <r_epik_Charging_Adjusted_Penalty>
1.91135

> <i_epik_Tot_Q>
-1

> <i_epik_Tot_abs_Q>
1

> <r_epik_Metal_State_Penalty>
0.014155

> <b_epik_Metal_Only>
0

> <s_lp_Force_Field>
OPLS_2005

> <r_lp_Energy>
23.2972

> <b_lp_Chiralities_Consistent>
1

> <s_lp_Variant>
AV-unprocessed.smi:675-4

> <Gold.Version>
5.8.1

> <Gold.Id.Protein>
6NUR|6NUR_protein|mol2

> <Gold.PLP.Fitness>
40.3729

> <Gold.PLP.PLP>
-39.6496

> <Gold.PLP.part.hbond>
0.0000

> <Gold.PLP.part.metal>
0.0000

> <Gold.PLP.part.buried>
-4.0627

> <Gold.PLP.part.nonpolar>
-36.3246

> <Gold.PLP.part.repulsive>
1.9068

> <Gold.PLP.ligand.clash>
0.0000

> <Gold.PLP.ligand.torsion>
1.1432

> <Gold.PLP.Chemscore.Hbond>
0.0000

> <Gold.PLP.Chemscore.CHOScore>
1.0000

> <Gold.PLP.Chemscore.Metal>
0.0000

> <Gold.Chemscore.Hbonds>
donor molecule, donor type, donor heavy atom, donor atom, acceptor molecule, acceptor atom, score
      L1  C    17    28       P1  8028  1.00

> <Gold.PLP.Chemscore.Internal.Correction>
0.0097

> <Gold.Rescore>
     Score         DG    S(hbond)    S(metal)    S(lipo)     H(rot)  DE(clash)    DE(int)     intcor
     10.28     -12.82       0.00        0.00     109.31       2.13       0.10       2.44       ----

> <Gold.Chemscore.Fitness>
10.2791

> <Gold.Chemscore.DG>
-12.8226

> <Gold.Chemscore.ZeroCoef>
-5.4800

> <Gold.Chemscore.Hbond>
0.0000

> <Gold.Chemscore.Metal>
0.0000

> <Gold.Chemscore.Lipo>
109.3131

> <Gold.Chemscore.Internal_Hbond>
0.0000

> <Gold.Chemscore.DEClash>
0.1013

> <Gold.Chemscore.DEInternal>
2.4422

> <Gold.Chemscore.Rot>
2.1278

> <Gold.Chemscore.Internal.Correction>
   9.000000E+99

> <Gold.Chemscore.Hbond.Weighted>
-0.0000

> <Gold.Chemscore.Metal.Weighted>
-0.0000

> <Gold.Chemscore.Lipo.Weighted>
-12.7896

> <Gold.Chemscore.Internal_Hbond.Weighted>
0.0000

> <Gold.Chemscore.DEClash.Weighted>
0.1013

> <Gold.Chemscore.DEInternal.Weighted>
2.4422

> <Gold.Chemscore.Rot.Weighted>
5.4470

> <Gold.Chemscore.Internal.Correction.Weighted>
   9.000000E+99

> <Gold.Protein.RotatedTorsions>
[ 6907 6896 6895 6894 ] final  -36.46 input  -60.11 | X-H torsion
[ 7974 7965 7964 7962 ] final  -67.52 input  175.53 | X-H torsion
[ 8008 7997 7996 7995 ] final -170.07 input   59.86 | X-H torsion
[ 10167 10162 10161 10158 ] final -136.49 input  -65.29 | X-H torsion
[ 10718 10713 10712 10709 ] final   54.49 input   66.30 | X-H torsion
[ 10763 10752 10751 10750 ] final   10.27 input  -60.55 | X-H torsion
[ 11005 11000 10999 10996 ] final  114.83 input  -57.11 | X-H torsion

> <Gold.Protein.ActiveResidues>
 VAL166  LYS551  ARG553  GLY616  TRP617  ASP618  TYR619  PRO620  LYS621  CYS622 
 ASP623  PHE694  ASN695  SER759  ASP760  ASP761  ALA762  ILE779  LEU786  VAL792 
 PHE793  MET794  SER795  GLU796  ALA797  LYS798  CYS799  TRP800  GLU811  SER814 

> <Gold.Protein.RotatedAtoms>
  151.0269  134.9510  159.8089 H   0  0  0  0  0  0  0  0  0  0  0  0  # atno 6907 bound_to 6896
  152.5337  134.2831  159.9025 H   0  0  0  0  0  0  0  0  0  0  0  0  # atno 6908 bound_to 6896
  151.2840  133.4154  159.2663 H   0  0  0  0  0  0  0  0  0  0  0  0  # atno 6909 bound_to 6896
  145.7281  140.9009  143.0594 H   0  0  0  0  0  0  0  0  0  0  0  0  # atno 7974 bound_to 7965
  155.9135  140.1061  157.1261 H   0  0  0  0  0  0  0  0  0  0  0  0  # atno 8008 bound_to 7997
  154.4043  140.1269  156.4652 H   0  0  0  0  0  0  0  0  0  0  0  0  # atno 8009 bound_to 7997
  155.7282  140.3469  155.5049 H   0  0  0  0  0  0  0  0  0  0  0  0  # atno 8010 bound_to 7997
  139.8672  143.7002  152.2644 H   0  0  0  0  0  0  0  0  0  0  0  0  # atno 10167 bound_to 10162
  157.5261  130.8598  149.8624 H   0  0  0  0  0  0  0  0  0  0  0  0  # atno 10718 bound_to 10713
  153.2050  135.6861  153.8184 H   0  0  0  0  0  0  0  0  0  0  0  0  # atno 10763 bound_to 10752
  153.7436  135.3234  155.3309 H   0  0  0  0  0  0  0  0  0  0  0  0  # atno 10764 bound_to 10752
  154.8192  135.4664  154.0833 H   0  0  0  0  0  0  0  0  0  0  0  0  # atno 10765 bound_to 10752
  139.8992  134.9574  156.6953 H   0  0  0  0  0  0  0  0  0  0  0  0  # atno 11005 bound_to 11000
  144.6900  139.9293  143.7471 LP  0  0  0  0  0  0  0  0  0  0  0  0  # atno 17320 bound_to 7965
  146.0563  139.3560  143.0608 LP  0  0  0  0  0  0  0  0  0  0  0  0  # atno 17321 bound_to 7965
  139.7318  144.7580  151.0790 LP  0  0  0  0  0  0  0  0  0  0  0  0  # atno 17342 bound_to 10162
  140.7766  143.5079  150.9689 LP  0  0  0  0  0  0  0  0  0  0  0  0  # atno 17343 bound_to 10162
  156.0388  130.3744  150.1489 LP  0  0  0  0  0  0  0  0  0  0  0  0  # atno 17370 bound_to 10713
  156.9675  130.9824  151.3466 LP  0  0  0  0  0  0  0  0  0  0  0  0  # atno 17371 bound_to 10713
  140.7193  133.9155  155.8136 LP  0  0  0  0  0  0  0  0  0  0  0  0  # atno 17394 bound_to 11000
  141.0240  134.0850  157.4089 LP  0  0  0  0  0  0  0  0  0  0  0  0  # atno 17395 bound_to 11000

$$$$
