AV-unprocessed.smi:1228|AV-procd|sdf|5148|dock5
  -GOLD-   22720 4213D 1   1.00000     0.00000
 Structure written by MMmdl.
 44 46  0  0  0  0  0  0  0  0  2 V2000
  153.5126  142.0175  162.0997 C   0  0  0  0  0  0  0  0  0  0  0  0
  152.7556  142.3459  160.8470 C   0  0  0  0  0  0  0  0  0  0  0  0
  152.2936  141.4488  159.8405 C   0  0  0  0  0  0  0  0  0  0  0  0
  151.6798  142.2863  158.9496 C   0  0  0  0  0  0  0  0  0  0  0  0
  151.0473  141.9816  157.7852 N   0  0  0  0  0  0  0  0  0  0  0  0
  149.7292  141.8489  157.5555 C   0  0  0  0  0  0  0  0  0  0  0  0
  148.8407  141.9688  158.3992 O   0  0  0  0  0  0  0  0  0  0  0  0
  149.4880  141.5576  156.2686 N   0  0  0  0  0  0  0  0  0  0  0  0
  148.1634  141.3552  155.6886 C   0  0  2  0  0  0  0  0  0  0  0  0
  147.7436  139.8762  155.7804 C   0  0  0  0  0  0  0  0  0  0  0  0
  146.3917  139.6368  155.0818 C   0  0  0  0  0  0  0  0  0  0  0  0
  146.3997  140.1022  153.6711 N   0  3  2  0  0  0  0  0  0  0  0  0
  147.1527  139.2067  152.7619 C   0  0  0  0  0  0  0  0  0  0  0  0
  146.7623  139.3520  151.3096 C   0  0  0  0  0  0  0  0  0  0  0  0
  146.2955  138.1518  152.1022 C   0  0  0  0  0  0  0  0  0  0  0  0
  146.7978  141.5291  153.5549 C   0  0  0  0  0  0  0  0  0  0  0  0
  148.1593  141.8082  154.2193 C   0  0  0  0  0  0  0  0  0  0  0  0
  151.7789  143.5792  159.4134 N   0  0  0  0  0  0  0  0  0  0  0  0
  151.2852  144.8088  158.8249 C   0  0  0  0  0  0  0  0  0  0  0  0
  152.4473  143.6115  160.5865 N   0  0  0  0  0  0  0  0  0  0  0  0
  153.5795  140.9395  162.2481 H   0  0  0  0  0  0  0  0  0  0  0  0
  153.0256  142.4429  162.9776 H   0  0  0  0  0  0  0  0  0  0  0  0
  154.5286  142.4102  162.0573 H   0  0  0  0  0  0  0  0  0  0  0  0
  152.4040  140.3756  159.8007 H   0  0  0  0  0  0  0  0  0  0  0  0
  151.6554  141.8349  156.9933 H   0  0  0  0  0  0  0  0  0  0  0  0
  150.2774  141.4760  155.6443 H   0  0  0  0  0  0  0  0  0  0  0  0
  147.4386  141.9639  156.2329 H   0  0  0  0  0  0  0  0  0  0  0  0
  148.5097  139.2426  155.3316 H   0  0  0  0  0  0  0  0  0  0  0  0
  147.6707  139.5704  156.8247 H   0  0  0  0  0  0  0  0  0  0  0  0
  146.1233  138.5806  155.1242 H   0  0  0  0  0  0  0  0  0  0  0  0
  145.6068  140.1739  155.6159 H   0  0  0  0  0  0  0  0  0  0  0  0
  148.1824  138.9831  153.0333 H   0  0  0  0  0  0  0  0  0  0  0  0
  146.0168  140.1009  151.0478 H   0  0  0  0  0  0  0  0  0  0  0  0
  147.5354  139.1857  150.5622 H   0  0  0  0  0  0  0  0  0  0  0  0
  146.7619  137.1946  151.8782 H   0  0  0  0  0  0  0  0  0  0  0  0
  145.2402  138.1042  152.3650 H   0  0  0  0  0  0  0  0  0  0  0  0
  146.8185  141.8264  152.5058 H   0  0  0  0  0  0  0  0  0  0  0  0
  146.0295  142.1396  154.0313 H   0  0  0  0  0  0  0  0  0  0  0  0
  148.3827  142.8740  154.1585 H   0  0  0  0  0  0  0  0  0  0  0  0
  148.9511  141.2993  153.6678 H   0  0  0  0  0  0  0  0  0  0  0  0
  151.7380  144.9524  157.8437 H   0  0  0  0  0  0  0  0  0  0  0  0
  151.5313  145.6633  159.4570 H   0  0  0  0  0  0  0  0  0  0  0  0
  150.2019  144.7526  158.7137 H   0  0  0  0  0  0  0  0  0  0  0  0
  145.4413  140.0534  153.3555 H   0  0  0  0  0  0  0  0  0  0  0  0
  1  2  1  0  0  0  0
  1 21  1  0  0  0  0
  1 22  1  0  0  0  0
  1 23  1  0  0  0  0
  2 20  2  0  0  0  0
  2  3  1  0  0  0  0
  3  4  2  0  0  0  0
  3 24  1  0  0  0  0
  4  5  1  0  0  0  0
  4 18  1  0  0  0  0
  5  6  1  0  0  0  0
  5 25  1  0  0  0  0
  6  7  2  0  0  0  0
  6  8  1  0  0  0  0
  8  9  1  0  0  0  0
  8 26  1  0  0  0  0
  9 17  1  0  0  0  0
  9 10  1  0  0  0  0
  9 27  1  0  0  0  0
 10 11  1  0  0  0  0
 10 28  1  0  0  0  0
 10 29  1  0  0  0  0
 11 12  1  0  0  0  0
 11 30  1  0  0  0  0
 11 31  1  0  0  0  0
 12 13  1  0  0  0  0
 12 16  1  0  0  0  0
 12 44  1  0  0  0  0
 13 15  1  0  0  0  0
 13 14  1  0  0  0  0
 13 32  1  0  0  0  0
 14 15  1  0  0  0  0
 14 33  1  0  0  0  0
 14 34  1  0  0  0  0
 15 35  1  0  0  0  0
 15 36  1  0  0  0  0
 16 17  1  0  0  0  0
 16 37  1  0  0  0  0
 16 38  1  0  0  0  0
 17 39  1  0  0  0  0
 17 40  1  0  0  0  0
 18 19  1  0  0  0  0
 18 20  1  0  0  0  0
 19 41  1  0  0  0  0
 19 42  1  0  0  0  0
 19 43  1  0  0  0  0
M  CHG  1  12   1
M  END
> <s_m_source_file>
AV-unprocessed.smi

> <i_m_source_file_index>
1228

> <i_lp_mmshare_version>
43012

> <i_f3d_flags>
0

> <s_epik_input>
W0NIM11jMVtjSF1jKG4objEpW0NIM10pW05IXUMoPU8pW05IXVtDSF0yW0NIMl1bQ0gyXU4oW0NIMl1bQ0gyXTIpW0NIXTNbQ0gyXVtDSDJdMw==

> <s_epik_cmdline>
J2VwaWtfcHl0aG9uJywgJy1waCcsICc3LjAnLCAnLXRuJywgJzgnLCAnLW1hJywgJzIwMCcsICctbWV0YWxfYmluZGluZycsICctaW1hZScsICc8aW5maWxlLm1hZT4nLCAnLW9tYWUnLCAnPG91dGZpbGUubWFlPic=

> <r_lp_tautomer_probability>
1

> <r_epik_Ionization_Penalty>
0.11882

> <r_epik_Ionization_Penalty_Charging>
0.11874

> <r_epik_Ionization_Penalty_Neutral>
8.03064e-05

> <r_epik_State_Penalty>
0.108313

> <r_epik_Charging_Adjusted_Penalty>
0.227053

> <i_epik_Tot_Q>
1

> <i_epik_Tot_abs_Q>
1

> <r_epik_Metal_State_Penalty>
0.108316

> <b_epik_Metal_Only>
0

> <s_lp_Force_Field>
OPLS_2005

> <r_lp_Energy>
29.8379

> <b_lp_Chiralities_Consistent>
1

> <s_lp_Variant>
AV-unprocessed.smi:1228-2

> <Gold.Version>
5.8.1

> <Gold.Id.Protein>
6NUR|6NUR_protein|mol2

> <Gold.PLP.Fitness>
45.1396

> <Gold.PLP.PLP>
-41.3768

> <Gold.PLP.part.hbond>
-1.1879

> <Gold.PLP.part.metal>
0.0000

> <Gold.PLP.part.buried>
-2.0290

> <Gold.PLP.part.nonpolar>
-36.5501

> <Gold.PLP.part.repulsive>
0.2848

> <Gold.PLP.ligand.clash>
0.0000

> <Gold.PLP.ligand.torsion>
1.7513

> <Gold.PLP.Chemscore.Hbond>
2.0000

> <Gold.PLP.Chemscore.CHOScore>
0.0000

> <Gold.PLP.Chemscore.Metal>
0.0000

> <Gold.Chemscore.Hbonds>
donor molecule, donor type, donor heavy atom, donor atom, acceptor molecule, acceptor atom, score
      L1  H    12    44       P1 10175  2.00

> <Gold.PLP.Chemscore.Internal.Correction>
1.2653

> <Gold.Rescore>
     Score         DG    S(hbond)    S(metal)    S(lipo)     H(rot)  DE(clash)    DE(int)     intcor
     14.98     -16.82       1.00        0.00      94.91       1.21       0.14       1.69       ----

> <Gold.Chemscore.Fitness>
14.9840

> <Gold.Chemscore.DG>
-16.8200

> <Gold.Chemscore.ZeroCoef>
-5.4800

> <Gold.Chemscore.Hbond>
0.9979

> <Gold.Chemscore.Metal>
0.0000

> <Gold.Chemscore.Lipo>
94.9054

> <Gold.Chemscore.Internal_Hbond>
0.0000

> <Gold.Chemscore.DEClash>
0.1447

> <Gold.Chemscore.DEInternal>
1.6913

> <Gold.Chemscore.Rot>
1.2097

> <Gold.Chemscore.Internal.Correction>
   9.000000E+99

> <Gold.Chemscore.Hbonds>
donor molecule, donor type, donor heavy atom, donor atom, acceptor molecule, acceptor atom, score
      L1  H    12    44       P1 10175  0.95

> <Gold.Chemscore.Hbond.Weighted>
-3.3330

> <Gold.Chemscore.Metal.Weighted>
-0.0000

> <Gold.Chemscore.Lipo.Weighted>
-11.1039

> <Gold.Chemscore.Internal_Hbond.Weighted>
0.0000

> <Gold.Chemscore.DEClash.Weighted>
0.1447

> <Gold.Chemscore.DEInternal.Weighted>
1.6913

> <Gold.Chemscore.Rot.Weighted>
3.0969

> <Gold.Chemscore.Internal.Correction.Weighted>
   9.000000E+99

> <Gold.Protein.RotatedTorsions>
[ 6907 6896 6895 6894 ] final  111.07 input  -60.11 | X-H torsion
[ 7974 7965 7964 7962 ] final   62.36 input  175.53 | X-H torsion
[ 8008 7997 7996 7995 ] final  -91.79 input   59.86 | X-H torsion
[ 10167 10162 10161 10158 ] final -115.93 input  -65.29 | X-H torsion
[ 10718 10713 10712 10709 ] final   69.62 input   66.30 | X-H torsion
[ 10763 10752 10751 10750 ] final -175.77 input  -60.55 | X-H torsion
[ 11005 11000 10999 10996 ] final -158.57 input  -57.11 | X-H torsion

> <Gold.Protein.ActiveResidues>
 VAL166  LYS551  ARG553  GLY616  TRP617  ASP618  TYR619  PRO620  LYS621  CYS622 
 ASP623  PHE694  ASN695  SER759  ASP760  ASP761  ALA762  ILE779  LEU786  VAL792 
 PHE793  MET794  SER795  GLU796  ALA797  LYS798  CYS799  TRP800  GLU811  SER814 

> <Gold.Protein.RotatedAtoms>
  152.4988  133.8710  159.7298 H   0  0  0  0  0  0  0  0  0  0  0  0  # atno 6907 bound_to 6896
  150.9197  133.6887  159.2842 H   0  0  0  0  0  0  0  0  0  0  0  0  # atno 6908 bound_to 6896
  151.4268  135.1009  159.9683 H   0  0  0  0  0  0  0  0  0  0  0  0  # atno 6909 bound_to 6896
  145.8742  139.3399  143.0744 H   0  0  0  0  0  0  0  0  0  0  0  0  # atno 7974 bound_to 7965
  154.7150  140.0516  157.0586 H   0  0  0  0  0  0  0  0  0  0  0  0  # atno 8008 bound_to 7997
  155.0503  140.3178  155.4675 H   0  0  0  0  0  0  0  0  0  0  0  0  # atno 8009 bound_to 7997
  156.2800  140.2117  156.5629 H   0  0  0  0  0  0  0  0  0  0  0  0  # atno 8010 bound_to 7997
  140.0847  143.4755  152.1905 H   0  0  0  0  0  0  0  0  0  0  0  0  # atno 10167 bound_to 10162
  157.6355  130.9435  150.0538 H   0  0  0  0  0  0  0  0  0  0  0  0  # atno 10718 bound_to 10713
  154.5805  135.2836  155.0738 H   0  0  0  0  0  0  0  0  0  0  0  0  # atno 10763 bound_to 10752
  154.2076  135.6413  153.5109 H   0  0  0  0  0  0  0  0  0  0  0  0  # atno 10764 bound_to 10752
  153.0086  135.5484  154.6457 H   0  0  0  0  0  0  0  0  0  0  0  0  # atno 10765 bound_to 10752
  140.6521  134.4439  157.5235 H   0  0  0  0  0  0  0  0  0  0  0  0  # atno 11005 bound_to 11000
  145.9100  140.9186  143.0459 LP  0  0  0  0  0  0  0  0  0  0  0  0  # atno 17320 bound_to 7965
  144.6726  140.1148  143.7453 LP  0  0  0  0  0  0  0  0  0  0  0  0  # atno 17321 bound_to 7965
  139.5759  144.7487  151.3766 LP  0  0  0  0  0  0  0  0  0  0  0  0  # atno 17342 bound_to 10162
  140.7060  143.7513  150.7482 LP  0  0  0  0  0  0  0  0  0  0  0  0  # atno 17343 bound_to 10162
  156.1592  130.3643  149.9325 LP  0  0  0  0  0  0  0  0  0  0  0  0  # atno 17370 bound_to 10713
  156.7327  130.9049  151.3627 LP  0  0  0  0  0  0  0  0  0  0  0  0  # atno 17371 bound_to 10713
  139.9042  134.8487  156.1772 LP  0  0  0  0  0  0  0  0  0  0  0  0  # atno 17394 bound_to 11000
  141.0528  133.6880  156.1805 LP  0  0  0  0  0  0  0  0  0  0  0  0  # atno 17395 bound_to 11000

$$$$
