AV-unprocessed.smi:1290|AV-procd|sdf|5390|dock8
  -GOLD-   22720 4543D 1   1.00000     0.00000
 Structure written by MMmdl.
 38 40  0  0  0  0  0  0  0  0  1 V2000
  151.7503  138.2075  154.3290 C   0  0  0  0  0  0  0  0  0  0  0  0
  151.8013  138.9963  155.5744 N   0  0  0  0  0  0  0  0  0  0  0  0
  152.5888  138.5415  156.5993 C   0  0  0  0  0  0  0  0  0  0  0  0
  153.2670  137.5141  156.5614 O   0  0  0  0  0  0  0  0  0  0  0  0
  152.5637  139.3957  157.7925 C   0  0  0  0  0  0  0  0  0  0  0  0
  151.8265  140.5310  157.8721 C   0  0  0  0  0  0  0  0  0  0  0  0
  151.9771  141.1441  159.1113 N   0  0  0  0  0  0  0  0  0  0  0  0
  152.8218  140.3197  159.7308 C   0  0  0  0  0  0  0  0  0  0  0  0
  153.2213  139.2497  159.0144 N   0  0  0  0  0  0  0  0  0  0  0  0
  154.1315  138.2084  159.4685 C   0  0  0  0  0  0  0  0  0  0  0  0
  153.5106  137.3038  160.5530 C   0  0  1  0  0  0  0  0  0  0  0  0
  153.6576  135.9409  160.2042 O   0  0  0  0  0  0  0  0  0  0  0  0
  154.0946  137.6056  161.9239 C   0  0  0  0  0  0  0  0  0  0  0  0
  153.7631  136.8002  163.0358 C   0  0  0  0  0  0  0  0  0  0  0  0
  154.3089  137.0801  164.3035 C   0  0  0  0  0  0  0  0  0  0  0  0
  155.1905  138.1662  164.4671 C   0  0  0  0  0  0  0  0  0  0  0  0
  155.8591  138.5102  166.0202 Cl  0  0  0  0  0  0  0  0  0  0  0  0
  155.5269  138.9707  163.3610 C   0  0  0  0  0  0  0  0  0  0  0  0
  154.9816  138.6906  162.0929 C   0  0  0  0  0  0  0  0  0  0  0  0
  151.0471  140.9111  156.7490 N   0  0  0  0  0  0  0  0  0  0  0  0
  150.2452  142.1359  156.8185 C   0  0  0  0  0  0  0  0  0  0  0  0
  151.0298  140.1451  155.6104 C   0  0  0  0  0  0  0  0  0  0  0  0
  150.3377  140.4800  154.6446 O   0  0  0  0  0  0  0  0  0  0  0  0
  152.4130  137.3416  154.3062 H   0  0  0  0  0  0  0  0  0  0  0  0
  152.0255  138.8244  153.4719 H   0  0  0  0  0  0  0  0  0  0  0  0
  150.7395  137.8326  154.1618 H   0  0  0  0  0  0  0  0  0  0  0  0
  153.1605  140.4986  160.7408 H   0  0  0  0  0  0  0  0  0  0  0  0
  154.4699  137.6243  158.6138 H   0  0  0  0  0  0  0  0  0  0  0  0
  155.0239  138.6939  159.8662 H   0  0  0  0  0  0  0  0  0  0  0  0
  152.4374  137.4962  160.5889 H   0  0  0  0  0  0  0  0  0  0  0  0
  154.5184  135.8175  159.8343 H   0  0  0  0  0  0  0  0  0  0  0  0
  153.0897  135.9636  162.9182 H   0  0  0  0  0  0  0  0  0  0  0  0
  154.0502  136.4601  165.1493 H   0  0  0  0  0  0  0  0  0  0  0  0
  156.2038  139.8035  163.4837 H   0  0  0  0  0  0  0  0  0  0  0  0
  155.2478  139.3130  161.2513 H   0  0  0  0  0  0  0  0  0  0  0  0
  150.5149  142.8183  156.0112 H   0  0  0  0  0  0  0  0  0  0  0  0
  150.3801  142.6773  157.7546 H   0  0  0  0  0  0  0  0  0  0  0  0
  149.1839  141.9017  156.7267 H   0  0  0  0  0  0  0  0  0  0  0  0
  1  2  1  0  0  0  0
  1 24  1  0  0  0  0
  1 25  1  0  0  0  0
  1 26  1  0  0  0  0
  2 22  1  0  0  0  0
  2  3  1  0  0  0  0
  3  4  2  0  0  0  0
  3  5  1  0  0  0  0
  5  9  1  0  0  0  0
  5  6  2  0  0  0  0
  6  7  1  0  0  0  0
  6 20  1  0  0  0  0
  7  8  2  0  0  0  0
  8  9  1  0  0  0  0
  8 27  1  0  0  0  0
  9 10  1  0  0  0  0
 10 11  1  0  0  0  0
 10 28  1  0  0  0  0
 10 29  1  0  0  0  0
 11 12  1  0  0  0  0
 11 13  1  0  0  0  0
 11 30  1  0  0  0  0
 12 31  1  0  0  0  0
 13 19  1  0  0  0  0
 13 14  2  0  0  0  0
 14 15  1  0  0  0  0
 14 32  1  0  0  0  0
 15 16  2  0  0  0  0
 15 33  1  0  0  0  0
 16 17  1  0  0  0  0
 16 18  1  0  0  0  0
 18 19  2  0  0  0  0
 18 34  1  0  0  0  0
 19 35  1  0  0  0  0
 20 21  1  0  0  0  0
 20 22  1  0  0  0  0
 21 36  1  0  0  0  0
 21 37  1  0  0  0  0
 21 38  1  0  0  0  0
 22 23  2  0  0  0  0
M  END
> <s_m_source_file>
AV-unprocessed.smi

> <i_m_source_file_index>
1290

> <i_lp_mmshare_version>
43012

> <i_f3d_flags>
0

> <s_epik_input>
Tz1jMW4oW0NIM10pYyg9TyluKFtDSDNdKWMoYzEyKW5bY0hdbjJbQ0gyXVtDQEhdKFtPSF0pYzNbY0hdW2NIXWMoQ2wpW2NIXVtjSF0z

> <s_epik_cmdline>
J2VwaWtfcHl0aG9uJywgJy1waCcsICc3LjAnLCAnLXRuJywgJzgnLCAnLW1hJywgJzIwMCcsICctbWV0YWxfYmluZGluZycsICctaW1hZScsICc8aW5maWxlLm1hZT4nLCAnLW9tYWUnLCAnPG91dGZpbGUubWFlPic=

> <r_lp_tautomer_probability>
1

> <r_epik_Ionization_Penalty>
1.48293e-06

> <r_epik_Ionization_Penalty_Charging>
3.74189e-09

> <r_epik_Ionization_Penalty_Neutral>
1.47919e-06

> <r_epik_State_Penalty>
-0

> <r_epik_Charging_Adjusted_Penalty>
3.74189e-09

> <i_epik_Tot_Q>
0

> <i_epik_Tot_abs_Q>
0

> <r_epik_Metal_State_Penalty>
-0

> <b_epik_Metal_Only>
0

> <s_lp_Force_Field>
OPLS_2005

> <r_lp_Energy>
35.8921

> <b_lp_Chiralities_Consistent>
1

> <s_lp_Variant>
AV-unprocessed.smi:1290-2

> <Gold.Version>
5.8.1

> <Gold.Id.Protein>
6NUR|6NUR_protein|mol2

> <Gold.PLP.Fitness>
46.6149

> <Gold.PLP.PLP>
-42.4156

> <Gold.PLP.part.hbond>
-2.2689

> <Gold.PLP.part.metal>
0.0000

> <Gold.PLP.part.buried>
-4.4414

> <Gold.PLP.part.nonpolar>
-36.0116

> <Gold.PLP.part.repulsive>
0.0884

> <Gold.PLP.ligand.clash>
0.0000

> <Gold.PLP.ligand.torsion>
0.9151

> <Gold.PLP.Chemscore.Hbond>
2.0000

> <Gold.PLP.Chemscore.CHOScore>
0.0000

> <Gold.PLP.Chemscore.Metal>
0.0000

> <Gold.Chemscore.Hbonds>
donor molecule, donor type, donor heavy atom, donor atom, acceptor molecule, acceptor atom, score
      P1  H  6896  6908       L1    12  1.00
      P1  H  7989  7998       L1    23  0.99

> <Gold.PLP.Chemscore.Internal.Correction>
0.0295

> <Gold.Rescore>
     Score         DG    S(hbond)    S(metal)    S(lipo)     H(rot)  DE(clash)    DE(int)     intcor
     15.59     -16.81       2.32        0.00      77.66       2.15       0.10       1.13       ----

> <Gold.Chemscore.Fitness>
15.5853

> <Gold.Chemscore.DG>
-16.8098

> <Gold.Chemscore.ZeroCoef>
-5.4800

> <Gold.Chemscore.Hbond>
2.3178

> <Gold.Chemscore.Metal>
0.0000

> <Gold.Chemscore.Lipo>
77.6556

> <Gold.Chemscore.Internal_Hbond>
0.0000

> <Gold.Chemscore.DEClash>
0.0991

> <Gold.Chemscore.DEInternal>
1.1254

> <Gold.Chemscore.Rot>
2.1474

> <Gold.Chemscore.Internal.Correction>
   9.000000E+99

> <Gold.Chemscore.Hbonds>
donor molecule, donor type, donor heavy atom, donor atom, acceptor molecule, acceptor atom, score
      P1  H  6896  6908       L1    12  0.93
      P1  H  7989  7998       L1    23  0.24
      P1  H 10752 10763       L1     4  0.02

> <Gold.Chemscore.Hbond.Weighted>
-7.7414

> <Gold.Chemscore.Metal.Weighted>
-0.0000

> <Gold.Chemscore.Lipo.Weighted>
-9.0857

> <Gold.Chemscore.Internal_Hbond.Weighted>
0.0000

> <Gold.Chemscore.DEClash.Weighted>
0.0991

> <Gold.Chemscore.DEInternal.Weighted>
1.1254

> <Gold.Chemscore.Rot.Weighted>
5.4974

> <Gold.Chemscore.Internal.Correction.Weighted>
   9.000000E+99

> <Gold.Protein.RotatedTorsions>
[ 6907 6896 6895 6894 ] final  -85.92 input  -60.11 | X-H torsion
[ 7974 7965 7964 7962 ] final  115.02 input  175.53 | X-H torsion
[ 8008 7997 7996 7995 ] final -175.85 input   59.86 | X-H torsion
[ 10167 10162 10161 10158 ] final -136.15 input  -65.29 | X-H torsion
[ 10718 10713 10712 10709 ] final  118.26 input   66.30 | X-H torsion
[ 10763 10752 10751 10750 ] final  118.11 input  -60.55 | X-H torsion
[ 11005 11000 10999 10996 ] final  161.80 input  -57.11 | X-H torsion

> <Gold.Protein.ActiveResidues>
 VAL166  LYS551  ARG553  GLY616  TRP617  ASP618  TYR619  PRO620  LYS621  CYS622 
 ASP623  PHE694  ASN695  SER759  ASP760  ASP761  ALA762  ILE779  LEU786  VAL792 
 PHE793  MET794  SER795  GLU796  ALA797  LYS798  CYS799  TRP800  GLU811  SER814 

> <Gold.Protein.RotatedAtoms>
  150.6868  134.3130  159.4754 H   0  0  0  0  0  0  0  0  0  0  0  0  # atno 6907 bound_to 6896
  152.1014  134.9336  160.0578 H   0  0  0  0  0  0  0  0  0  0  0  0  # atno 6908 bound_to 6896
  152.0614  133.4029  159.4456 H   0  0  0  0  0  0  0  0  0  0  0  0  # atno 6909 bound_to 6896
  145.1972  139.2970  143.4337 H   0  0  0  0  0  0  0  0  0  0  0  0  # atno 7974 bound_to 7965
  155.9877  140.1194  157.0667 H   0  0  0  0  0  0  0  0  0  0  0  0  # atno 8008 bound_to 7997
  154.4202  140.1132  156.5591 H   0  0  0  0  0  0  0  0  0  0  0  0  # atno 8009 bound_to 7997
  155.6385  140.3473  155.4709 H   0  0  0  0  0  0  0  0  0  0  0  0  # atno 8010 bound_to 7997
  139.8707  143.6961  152.2640 H   0  0  0  0  0  0  0  0  0  0  0  0  # atno 10167 bound_to 10162
  157.6042  131.1046  150.7730 H   0  0  0  0  0  0  0  0  0  0  0  0  # atno 10718 bound_to 10713
  153.5626  135.3518  155.2805 H   0  0  0  0  0  0  0  0  0  0  0  0  # atno 10763 bound_to 10752
  154.8693  135.4140  154.2814 H   0  0  0  0  0  0  0  0  0  0  0  0  # atno 10764 bound_to 10752
  153.3563  135.7057  153.6817 H   0  0  0  0  0  0  0  0  0  0  0  0  # atno 10765 bound_to 10752
  140.2194  134.8207  157.3204 H   0  0  0  0  0  0  0  0  0  0  0  0  # atno 11005 bound_to 11000
  146.3425  140.2204  142.8591 LP  0  0  0  0  0  0  0  0  0  0  0  0  # atno 17320 bound_to 7965
  144.9983  140.8609  143.5297 LP  0  0  0  0  0  0  0  0  0  0  0  0  # atno 17321 bound_to 7965
  139.7286  144.7587  151.0838 LP  0  0  0  0  0  0  0  0  0  0  0  0  # atno 17342 bound_to 10162
  140.7761  143.5116  150.9645 LP  0  0  0  0  0  0  0  0  0  0  0  0  # atno 17343 bound_to 10162
  156.8122  130.4956  149.5354 LP  0  0  0  0  0  0  0  0  0  0  0  0  # atno 17370 bound_to 10713
  156.1124  130.6050  151.0068 LP  0  0  0  0  0  0  0  0  0  0  0  0  # atno 17371 bound_to 10713
  140.1866  134.4424  155.7740 LP  0  0  0  0  0  0  0  0  0  0  0  0  # atno 17394 bound_to 11000
  141.2223  133.7008  156.7957 LP  0  0  0  0  0  0  0  0  0  0  0  0  # atno 17395 bound_to 11000

$$$$
