AV-unprocessed.smi:196|AV-procd|sdf|1533|dock2
  -GOLD-   2262019383D 1   1.00000     0.00000
 Structure written by MMmdl.
 47 50  0  0  0  0  0  0  0  0  1 V2000
  151.3925  138.1494  154.0767 C   0  0  0  0  0  0  0  0  0  0  0  0
  150.3640  138.8743  154.9603 C   0  0  1  0  0  0  0  0  0  0  0  0
  150.4700  140.2886  154.8005 O   0  0  0  0  0  0  0  0  0  0  0  0
  149.2219  140.8296  154.3917 C   0  0  0  0  0  0  0  0  0  0  0  0
  148.1900  139.8498  154.9350 C   0  0  0  0  0  0  0  0  0  0  0  0
  148.8778  138.5058  154.7400 C   0  0  1  0  0  0  0  0  0  0  0  0
  148.6531  138.0807  153.4048 O   0  0  0  0  0  0  0  0  0  0  0  0
  148.3791  137.3986  155.6985 C   0  0  0  0  0  0  0  0  0  0  0  0
  147.5740  136.3828  155.0385 N   0  0  0  0  0  0  0  0  0  0  0  0
  146.2090  136.4022  154.8558 C   0  0  0  0  0  0  0  0  0  0  0  0
  145.7158  135.3699  154.2273 N   0  0  0  0  0  0  0  0  0  0  0  0
  146.8247  134.5765  153.9631 C   0  0  0  0  0  0  0  0  0  0  0  0
  147.0126  133.3273  153.3165 C   0  0  0  0  0  0  0  0  0  0  0  0
  145.9814  132.6348  152.7790 N   0  0  0  0  0  0  0  0  0  0  0  0
  145.9472  131.2129  153.1147 C   0  0  0  0  0  0  0  0  0  0  0  0
  146.0919  130.4714  151.7902 C   0  0  1  0  0  0  0  0  0  0  0  0
  145.5401  129.2586  151.8151 F   0  0  0  0  0  0  0  0  0  0  0  0
  145.3982  131.4111  150.8160 C   0  0  0  0  0  0  0  0  0  0  0  0
  145.8064  132.8029  151.3272 C   0  0  1  0  0  0  0  0  0  0  0  0
  144.7754  133.8759  150.9321 C   0  0  0  0  0  0  0  0  0  0  0  0
  143.6547  133.4969  150.3099 N   0  0  0  0  0  0  0  0  0  0  0  0
  144.9939  135.0556  151.1986 O   0  0  0  0  0  0  0  0  0  0  0  0
  148.2761  132.8302  153.2466 N   0  0  0  0  0  0  0  0  0  0  0  0
  149.2938  133.5188  153.7729 C   0  0  0  0  0  0  0  0  0  0  0  0
  149.2689  134.6975  154.3994 N   0  0  0  0  0  0  0  0  0  0  0  0
  148.0006  135.1941  154.4725 C   0  0  0  0  0  0  0  0  0  0  0  0
  147.1443  130.3576  151.5264 H   0  0  0  0  0  0  0  0  0  0  0  0
  146.7567  133.0740  150.8623 H   0  0  0  0  0  0  0  0  0  0  0  0
  151.3136  137.0680  154.1901 H   0  0  0  0  0  0  0  0  0  0  0  0
  152.4072  138.4383  154.3508 H   0  0  0  0  0  0  0  0  0  0  0  0
  151.2591  138.3907  153.0218 H   0  0  0  0  0  0  0  0  0  0  0  0
  150.6223  138.6825  156.0025 H   0  0  0  0  0  0  0  0  0  0  0  0
  149.0816  141.8427  154.7688 H   0  0  0  0  0  0  0  0  0  0  0  0
  149.1865  140.8623  153.3018 H   0  0  0  0  0  0  0  0  0  0  0  0
  148.0379  140.0445  155.9976 H   0  0  0  0  0  0  0  0  0  0  0  0
  147.2221  139.9270  154.4376 H   0  0  0  0  0  0  0  0  0  0  0  0
  148.8023  137.1488  153.3564 H   0  0  0  0  0  0  0  0  0  0  0  0
  149.2241  136.9105  156.1860 H   0  0  0  0  0  0  0  0  0  0  0  0
  147.7774  137.8341  156.4974 H   0  0  0  0  0  0  0  0  0  0  0  0
  145.5864  137.2147  155.2018 H   0  0  0  0  0  0  0  0  0  0  0  0
  146.7084  130.9057  153.8344 H   0  0  0  0  0  0  0  0  0  0  0  0
  144.9760  131.0025  153.5643 H   0  0  0  0  0  0  0  0  0  0  0  0
  145.6976  131.2367  149.7822 H   0  0  0  0  0  0  0  0  0  0  0  0
  144.3169  131.2736  150.8806 H   0  0  0  0  0  0  0  0  0  0  0  0
  142.9701  134.1894  150.0413 H   0  0  0  0  0  0  0  0  0  0  0  0
  143.4983  132.5201  150.1078 H   0  0  0  0  0  0  0  0  0  0  0  0
  150.2671  133.0603  153.6781 H   0  0  0  0  0  0  0  0  0  0  0  0
  1  2  1  0  0  0  0
  1 29  1  0  0  0  0
  1 30  1  0  0  0  0
  1 31  1  0  0  0  0
  2  6  1  0  0  0  0
  2  3  1  0  0  0  0
  2 32  1  0  0  0  0
  3  4  1  0  0  0  0
  4  5  1  0  0  0  0
  4 33  1  0  0  0  0
  4 34  1  0  0  0  0
  5  6  1  0  0  0  0
  5 35  1  0  0  0  0
  5 36  1  0  0  0  0
  6  7  1  0  0  0  0
  6  8  1  0  0  0  0
  7 37  1  0  0  0  0
  8  9  1  0  0  0  0
  8 38  1  0  0  0  0
  8 39  1  0  0  0  0
  9 26  1  0  0  0  0
  9 10  1  0  0  0  0
 10 11  2  0  0  0  0
 10 40  1  0  0  0  0
 11 12  1  0  0  0  0
 12 26  2  0  0  0  0
 12 13  1  0  0  0  0
 13 14  1  0  0  0  0
 13 23  2  0  0  0  0
 14 19  1  0  0  0  0
 14 15  1  0  0  0  0
 15 16  1  0  0  0  0
 15 41  1  0  0  0  0
 15 42  1  0  0  0  0
 16 27  1  0  0  0  0
 16 17  1  0  0  0  0
 16 18  1  0  0  0  0
 18 19  1  0  0  0  0
 18 43  1  0  0  0  0
 18 44  1  0  0  0  0
 19 28  1  0  0  0  0
 19 20  1  0  0  0  0
 20 21  1  0  0  0  0
 20 22  2  0  0  0  0
 21 45  1  0  0  0  0
 21 46  1  0  0  0  0
 23 24  1  0  0  0  0
 24 25  2  0  0  0  0
 24 47  1  0  0  0  0
 25 26  1  0  0  0  0
M  END
> <s_m_source_file>
AV-unprocessed.smi

> <i_m_source_file_index>
196

> <i_lp_mmshare_version>
43012

> <i_f3d_flags>
0

> <s_epik_input>
W0NIMl0xW0NIMl1PW0NAQEhdKFtDSDNdKVtDQEBdMShbT0hdKVtDSDJdbihbY0hdbjIpYyhjMjMpbltjSF1uYzNONFtDSDJdW0NASF0oRilbQ0gyXVtDQEhdNEMoPU8pW05IMl0=

> <s_epik_cmdline>
J2VwaWtfcHl0aG9uJywgJy1waCcsICc3LjAnLCAnLXRuJywgJzgnLCAnLW1hJywgJzIwMCcsICctbWV0YWxfYmluZGluZycsICctaW1hZScsICc8aW5maWxlLm1hZT4nLCAnLW9tYWUnLCAnPG91dGZpbGUubWFlPic=

> <r_lp_tautomer_probability>
1

> <r_epik_Ionization_Penalty>
0.000857933

> <r_epik_Ionization_Penalty_Charging>
0

> <r_epik_Ionization_Penalty_Neutral>
0.000857933

> <r_epik_State_Penalty>
0.000462053

> <r_epik_Charging_Adjusted_Penalty>
0.000462053

> <i_epik_Tot_Q>
0

> <i_epik_Tot_abs_Q>
0

> <r_epik_Metal_State_Penalty>
-0

> <b_epik_Metal_Only>
0

> <s_lp_Force_Field>
OPLS_2005

> <r_lp_Energy>
45.9197

> <b_lp_Chiralities_Consistent>
1

> <s_lp_Variant>
AV-unprocessed.smi:196-6

> <Gold.Version>
5.8.1

> <Gold.Id.Protein>
6NUR|6NUR_protein|mol2

> <Gold.PLP.Fitness>
38.2282

> <Gold.PLP.PLP>
-34.7352

> <Gold.PLP.part.hbond>
-3.3596

> <Gold.PLP.part.metal>
0.0000

> <Gold.PLP.part.buried>
-6.9174

> <Gold.PLP.part.nonpolar>
-26.1817

> <Gold.PLP.part.repulsive>
1.8846

> <Gold.PLP.ligand.clash>
0.0000

> <Gold.PLP.ligand.torsion>
1.8751

> <Gold.PLP.Chemscore.Hbond>
2.3842

> <Gold.PLP.Chemscore.CHOScore>
0.0000

> <Gold.PLP.Chemscore.Metal>
0.0000

> <Gold.Chemscore.Hbonds>
donor molecule, donor type, donor heavy atom, donor atom, acceptor molecule, acceptor atom, score
      L1  H     7    37       P1  7948  0.50
      L1  H    21    45       P1 10186  0.86
      P1  H  7989  7998       L1     3  1.00

> <Gold.PLP.Chemscore.Internal.Correction>
0.0909

> <Gold.Rescore>
     Score         DG    S(hbond)    S(metal)    S(lipo)     H(rot)  DE(clash)    DE(int)     intcor
      7.94     -11.84       1.96        0.00      64.88       3.04       2.02       1.87       ----

> <Gold.Chemscore.Fitness>
7.9443

> <Gold.Chemscore.DG>
-11.8418

> <Gold.Chemscore.ZeroCoef>
-5.4800

> <Gold.Chemscore.Hbond>
1.9629

> <Gold.Chemscore.Metal>
0.0000

> <Gold.Chemscore.Lipo>
64.8842

> <Gold.Chemscore.Internal_Hbond>
0.0000

> <Gold.Chemscore.DEClash>
2.0239

> <Gold.Chemscore.DEInternal>
1.8736

> <Gold.Chemscore.Rot>
3.0413

> <Gold.Chemscore.Internal.Correction>
   9.000000E+99

> <Gold.Chemscore.Hbonds>
donor molecule, donor type, donor heavy atom, donor atom, acceptor molecule, acceptor atom, score
      L1  H     7    37       P1  7948  0.50
      L1  H    21    45       P1 10186  0.77
      P1  H  7989  7998       L1     3  0.36

> <Gold.Chemscore.Hbond.Weighted>
-6.5560

> <Gold.Chemscore.Metal.Weighted>
-0.0000

> <Gold.Chemscore.Lipo.Weighted>
-7.5915

> <Gold.Chemscore.Internal_Hbond.Weighted>
0.0000

> <Gold.Chemscore.DEClash.Weighted>
2.0239

> <Gold.Chemscore.DEInternal.Weighted>
1.8736

> <Gold.Chemscore.Rot.Weighted>
7.7856

> <Gold.Chemscore.Internal.Correction.Weighted>
   9.000000E+99

> <Gold.Protein.RotatedTorsions>
[ 6907 6896 6895 6894 ] final  124.76 input  -60.11 | X-H torsion
[ 7974 7965 7964 7962 ] final  -56.57 input  175.53 | X-H torsion
[ 8008 7997 7996 7995 ] final  -44.58 input   59.86 | X-H torsion
[ 10167 10162 10161 10158 ] final -159.19 input  -65.29 | X-H torsion
[ 10718 10713 10712 10709 ] final  -93.04 input   66.30 | X-H torsion
[ 10763 10752 10751 10750 ] final   77.72 input  -60.55 | X-H torsion
[ 11005 11000 10999 10996 ] final -173.03 input  -57.11 | X-H torsion

> <Gold.Protein.ActiveResidues>
 VAL166  LYS551  ARG553  GLY616  TRP617  ASP618  TYR619  PRO620  LYS621  CYS622 
 ASP623  PHE694  ASN695  SER759  ASP760  ASP761  ALA762  ILE779  LEU786  VAL792 
 PHE793  MET794  SER795  GLU796  ALA797  LYS798  CYS799  TRP800  GLU811  SER814 

> <Gold.Protein.RotatedAtoms>
  152.4050  133.6875  159.6348 H   0  0  0  0  0  0  0  0  0  0  0  0  # atno 6907 bound_to 6896
  150.7936  133.8724  159.3271 H   0  0  0  0  0  0  0  0  0  0  0  0  # atno 6908 bound_to 6896
  151.6481  135.1006  160.0206 H   0  0  0  0  0  0  0  0  0  0  0  0  # atno 6909 bound_to 6896
  145.8611  140.8284  142.9936 H   0  0  0  0  0  0  0  0  0  0  0  0  # atno 7974 bound_to 7965
  154.3998  140.1418  156.3706 H   0  0  0  0  0  0  0  0  0  0  0  0  # atno 8008 bound_to 7997
  155.8096  140.3473  155.5429 H   0  0  0  0  0  0  0  0  0  0  0  0  # atno 8009 bound_to 7997
  155.8400  140.0925  157.1731 H   0  0  0  0  0  0  0  0  0  0  0  0  # atno 8010 bound_to 7997
  139.6634  143.9872  152.2239 H   0  0  0  0  0  0  0  0  0  0  0  0  # atno 10167 bound_to 10162
  156.0009  130.5011  150.5716 H   0  0  0  0  0  0  0  0  0  0  0  0  # atno 10718 bound_to 10713
  153.0820  135.4904  154.8521 H   0  0  0  0  0  0  0  0  0  0  0  0  # atno 10763 bound_to 10752
  154.7162  135.3030  154.9122 H   0  0  0  0  0  0  0  0  0  0  0  0  # atno 10764 bound_to 10752
  153.9800  135.6791  153.4803 H   0  0  0  0  0  0  0  0  0  0  0  0  # atno 10765 bound_to 10752
  140.4903  134.5991  157.4952 H   0  0  0  0  0  0  0  0  0  0  0  0  # atno 11005 bound_to 11000
  144.6726  140.1097  143.7456 LP  0  0  0  0  0  0  0  0  0  0  0  0  # atno 17320 bound_to 7965
  145.9247  139.2567  143.1361 LP  0  0  0  0  0  0  0  0  0  0  0  0  # atno 17321 bound_to 7965
  139.9617  144.6553  150.8073 LP  0  0  0  0  0  0  0  0  0  0  0  0  # atno 17342 bound_to 10162
  140.7589  143.3118  151.2828 LP  0  0  0  0  0  0  0  0  0  0  0  0  # atno 17343 bound_to 10162
  157.3610  131.0750  151.1636 LP  0  0  0  0  0  0  0  0  0  0  0  0  # atno 17370 bound_to 10713
  157.2421  130.6574  149.5894 LP  0  0  0  0  0  0  0  0  0  0  0  0  # atno 17371 bound_to 10713
  139.9773  134.7194  155.9925 LP  0  0  0  0  0  0  0  0  0  0  0  0  # atno 17394 bound_to 11000
  141.1487  133.6552  156.3947 LP  0  0  0  0  0  0  0  0  0  0  0  0  # atno 17395 bound_to 11000

$$$$
