AV-unprocessed.smi:2256|AV-procd|sdf|9127|dock7
  -GOLD-   2272012333D 1   1.00000     0.00000
 Structure written by MMmdl.
 42 44  0  0  0  0  0  0  0  0  1 V2000
  160.8847  142.6696  161.4100 C   0  0  0  0  0  0  0  0  0  0  0  0
  159.6558  141.8094  161.1744 C   0  0  0  0  0  0  0  0  0  0  0  0
  159.2648  141.0069  162.2502 N   0  0  0  0  0  0  0  0  0  0  0  0
  158.2260  140.2447  162.1420 C   0  0  0  0  0  0  0  0  0  0  0  0
  157.4651  140.1980  160.9627 N   0  0  0  0  0  0  0  0  0  0  0  0
  156.3068  139.2893  160.9704 C   0  0  0  0  0  0  0  0  0  0  0  0
  154.9715  140.0530  161.1175 C   0  0  1  0  0  0  0  0  0  0  0  0
  155.0638  141.0117  162.1519 O   0  0  0  0  0  0  0  0  0  0  0  0
  154.5518  140.7906  159.8350 C   0  0  0  0  0  0  0  0  0  0  0  0
  153.5346  141.7389  160.1346 O   0  0  0  0  0  0  0  0  0  0  0  0
  152.5433  141.9593  159.2019 C   0  0  0  0  0  0  0  0  0  0  0  0
  152.2547  141.0724  158.1318 C   0  0  0  0  0  0  0  0  0  0  0  0
  151.2266  141.3599  157.2140 C   0  0  0  0  0  0  0  0  0  0  0  0
  150.4714  142.5364  157.3508 C   0  0  0  0  0  0  0  0  0  0  0  0
  150.7556  143.4148  158.4096 C   0  0  0  0  0  0  0  0  0  0  0  0
  150.1975  144.6186  158.7929 N   0  0  0  0  0  0  0  0  0  0  0  0
  150.8297  145.1136  159.9197 C   0  0  0  0  0  0  0  0  0  0  0  0
  151.8159  144.2389  160.2951 C   0  0  0  0  0  0  0  0  0  0  0  0
  151.7910  143.1510  159.3545 C   0  0  0  0  0  0  0  0  0  0  0  0
  157.7874  140.9338  159.8597 C   0  0  0  0  0  0  0  0  0  0  0  0
  157.1289  140.8645  158.8202 O   0  0  0  0  0  0  0  0  0  0  0  0
  158.9666  141.8032  160.0008 C   0  0  0  0  0  0  0  0  0  0  0  0
  159.3439  142.6565  158.7961 C   0  0  0  0  0  0  0  0  0  0  0  0
  149.4337  145.0944  158.3341 H   0  0  0  0  0  0  0  0  0  0  0  0
  160.6364  143.7266  161.3122 H   0  0  0  0  0  0  0  0  0  0  0  0
  161.6651  142.4257  160.6888 H   0  0  0  0  0  0  0  0  0  0  0  0
  161.2942  142.5134  162.4087 H   0  0  0  0  0  0  0  0  0  0  0  0
  157.8819  139.5953  162.9489 H   0  0  0  0  0  0  0  0  0  0  0  0
  156.2855  138.6442  160.0893 H   0  0  0  0  0  0  0  0  0  0  0  0
  156.4188  138.5946  161.8051 H   0  0  0  0  0  0  0  0  0  0  0  0
  154.1688  139.3640  161.3829 H   0  0  0  0  0  0  0  0  0  0  0  0
  154.2366  141.4649  162.2132 H   0  0  0  0  0  0  0  0  0  0  0  0
  155.4210  141.3158  159.4356 H   0  0  0  0  0  0  0  0  0  0  0  0
  154.2175  140.0789  159.0780 H   0  0  0  0  0  0  0  0  0  0  0  0
  152.8110  140.1582  157.9911 H   0  0  0  0  0  0  0  0  0  0  0  0
  151.0186  140.6756  156.4045 H   0  0  0  0  0  0  0  0  0  0  0  0
  149.6812  142.7622  156.6500 H   0  0  0  0  0  0  0  0  0  0  0  0
  150.5252  146.0501  160.3633 H   0  0  0  0  0  0  0  0  0  0  0  0
  152.4889  144.3366  161.1340 H   0  0  0  0  0  0  0  0  0  0  0  0
  159.5618  142.0198  157.9384 H   0  0  0  0  0  0  0  0  0  0  0  0
  160.2173  143.2827  158.9697 H   0  0  0  0  0  0  0  0  0  0  0  0
  158.5174  143.3150  158.5278 H   0  0  0  0  0  0  0  0  0  0  0  0
  1  2  1  0  0  0  0
  1 25  1  0  0  0  0
  1 26  1  0  0  0  0
  1 27  1  0  0  0  0
  2 22  2  0  0  0  0
  2  3  1  0  0  0  0
  3  4  2  0  0  0  0
  4  5  1  0  0  0  0
  4 28  1  0  0  0  0
  5  6  1  0  0  0  0
  5 20  1  0  0  0  0
  6  7  1  0  0  0  0
  6 29  1  0  0  0  0
  6 30  1  0  0  0  0
  7  8  1  0  0  0  0
  7  9  1  0  0  0  0
  7 31  1  0  0  0  0
  8 32  1  0  0  0  0
  9 10  1  0  0  0  0
  9 33  1  0  0  0  0
  9 34  1  0  0  0  0
 10 11  1  0  0  0  0
 11 19  1  0  0  0  0
 11 12  2  0  0  0  0
 12 13  1  0  0  0  0
 12 35  1  0  0  0  0
 13 14  2  0  0  0  0
 13 36  1  0  0  0  0
 14 15  1  0  0  0  0
 14 37  1  0  0  0  0
 15 19  2  0  0  0  0
 15 16  1  0  0  0  0
 16 24  1  0  0  0  0
 16 17  1  0  0  0  0
 17 18  2  0  0  0  0
 17 38  1  0  0  0  0
 18 19  1  0  0  0  0
 18 39  1  0  0  0  0
 20 21  2  0  0  0  0
 20 22  1  0  0  0  0
 22 23  1  0  0  0  0
 23 40  1  0  0  0  0
 23 41  1  0  0  0  0
 23 42  1  0  0  0  0
M  END
> <s_m_source_file>
AV-unprocessed.smi

> <i_m_source_file_index>
2256

> <i_lp_mmshare_version>
43012

> <i_f3d_flags>
0

> <s_epik_input>
W0NIM11jMW5bY0hdbihjKD1PKWMxW0NIM10pW0NIMl1bQ0BIXShbT0hdKVtDSDJdT2MoW2NIXVtjSF1bY0hdMiljKGMyMylbY0hdW2NIXVtuSF0z

> <s_epik_cmdline>
J2VwaWtfcHl0aG9uJywgJy1waCcsICc3LjAnLCAnLXRuJywgJzgnLCAnLW1hJywgJzIwMCcsICctbWV0YWxfYmluZGluZycsICctaW1hZScsICc8aW5maWxlLm1hZT4nLCAnLW9tYWUnLCAnPG91dGZpbGUubWFlPic=

> <r_lp_tautomer_probability>
1

> <r_epik_Ionization_Penalty>
4.18314e-05

> <r_epik_Ionization_Penalty_Charging>
1.04093e-07

> <r_epik_Ionization_Penalty_Neutral>
4.17273e-05

> <r_epik_State_Penalty>
-0

> <r_epik_Charging_Adjusted_Penalty>
1.04093e-07

> <i_epik_Tot_Q>
0

> <i_epik_Tot_abs_Q>
0

> <r_epik_Metal_State_Penalty>
-0

> <b_epik_Metal_Only>
0

> <s_lp_Force_Field>
OPLS_2005

> <r_lp_Energy>
26.3199

> <b_lp_Chiralities_Consistent>
1

> <s_lp_Variant>
AV-unprocessed.smi:2256-2

> <Gold.Version>
5.8.1

> <Gold.Id.Protein>
6NUR|6NUR_protein|mol2

> <Gold.PLP.Fitness>
45.9665

> <Gold.PLP.PLP>
-42.0396

> <Gold.PLP.part.hbond>
-3.0203

> <Gold.PLP.part.metal>
0.0000

> <Gold.PLP.part.buried>
-3.6192

> <Gold.PLP.part.nonpolar>
-36.4750

> <Gold.PLP.part.repulsive>
0.2256

> <Gold.PLP.ligand.clash>
0.0000

> <Gold.PLP.ligand.torsion>
0.9069

> <Gold.PLP.Chemscore.Hbond>
1.9033

> <Gold.PLP.Chemscore.CHOScore>
0.0000

> <Gold.PLP.Chemscore.Metal>
0.0000

> <Gold.Chemscore.Hbonds>
donor molecule, donor type, donor heavy atom, donor atom, acceptor molecule, acceptor atom, score
      L1  H    16    24       P1  8029  0.98
      P1  H  7997  8010       L1    21  0.49

> <Gold.PLP.Chemscore.Internal.Correction>
0.0309

> <Gold.Rescore>
     Score         DG    S(hbond)    S(metal)    S(lipo)     H(rot)  DE(clash)    DE(int)     intcor
     15.24     -18.48       1.73        0.00     118.15       2.58       1.51       1.72       ----

> <Gold.Chemscore.Fitness>
15.2438

> <Gold.Chemscore.DG>
-18.4766

> <Gold.Chemscore.ZeroCoef>
-5.4800

> <Gold.Chemscore.Hbond>
1.7303

> <Gold.Chemscore.Metal>
0.0000

> <Gold.Chemscore.Lipo>
118.1488

> <Gold.Chemscore.Internal_Hbond>
0.0000

> <Gold.Chemscore.DEClash>
1.5090

> <Gold.Chemscore.DEInternal>
1.7238

> <Gold.Chemscore.Rot>
2.5804

> <Gold.Chemscore.Internal.Correction>
   9.000000E+99

> <Gold.Chemscore.Hbonds>
donor molecule, donor type, donor heavy atom, donor atom, acceptor molecule, acceptor atom, score
      L1  H    16    24       P1  8029  0.50
      P1  H  7997  8010       L1    21  0.48

> <Gold.Chemscore.Hbond.Weighted>
-5.7791

> <Gold.Chemscore.Metal.Weighted>
-0.0000

> <Gold.Chemscore.Lipo.Weighted>
-13.8234

> <Gold.Chemscore.Internal_Hbond.Weighted>
0.0000

> <Gold.Chemscore.DEClash.Weighted>
1.5090

> <Gold.Chemscore.DEInternal.Weighted>
1.7238

> <Gold.Chemscore.Rot.Weighted>
6.6059

> <Gold.Chemscore.Internal.Correction.Weighted>
   9.000000E+99

> <Gold.Protein.RotatedTorsions>
[ 6907 6896 6895 6894 ] final  -80.88 input  -60.11 | X-H torsion
[ 7974 7965 7964 7962 ] final  100.30 input  175.53 | X-H torsion
[ 8008 7997 7996 7995 ] final  -53.55 input   59.86 | X-H torsion
[ 10167 10162 10161 10158 ] final   -9.51 input  -65.29 | X-H torsion
[ 10718 10713 10712 10709 ] final   62.04 input   66.30 | X-H torsion
[ 10763 10752 10751 10750 ] final   75.85 input  -60.55 | X-H torsion
[ 11005 11000 10999 10996 ] final -170.39 input  -57.11 | X-H torsion

> <Gold.Protein.ActiveResidues>
 VAL166  LYS551  ARG553  GLY616  TRP617  ASP618  TYR619  PRO620  LYS621  CYS622 
 ASP623  PHE694  ASN695  SER759  ASP760  ASP761  ALA762  ILE779  LEU786  VAL792 
 PHE793  MET794  SER795  GLU796  ALA797  LYS798  CYS799  TRP800  GLU811  SER814 

> <Gold.Protein.RotatedAtoms>
  150.6921  134.3902  159.5072 H   0  0  0  0  0  0  0  0  0  0  0  0  # atno 6907 bound_to 6896
  152.1691  134.8846  160.0545 H   0  0  0  0  0  0  0  0  0  0  0  0  # atno 6908 bound_to 6896
  151.9879  133.3745  159.4169 H   0  0  0  0  0  0  0  0  0  0  0  0  # atno 6909 bound_to 6896
  145.3875  139.2369  143.3370 H   0  0  0  0  0  0  0  0  0  0  0  0  # atno 7974 bound_to 7965
  154.4136  140.1197  156.5172 H   0  0  0  0  0  0  0  0  0  0  0  0  # atno 8008 bound_to 7997
  155.6739  140.3496  155.4810 H   0  0  0  0  0  0  0  0  0  0  0  0  # atno 8009 bound_to 7997
  155.9609  140.1123  157.0886 H   0  0  0  0  0  0  0  0  0  0  0  0  # atno 8010 bound_to 7997
  140.7089  143.5850  150.8952 H   0  0  0  0  0  0  0  0  0  0  0  0  # atno 10167 bound_to 10162
  157.5872  130.9028  149.9538 H   0  0  0  0  0  0  0  0  0  0  0  0  # atno 10718 bound_to 10713
  153.0683  135.4973  154.8249 H   0  0  0  0  0  0  0  0  0  0  0  0  # atno 10763 bound_to 10752
  154.6986  135.2997  154.9377 H   0  0  0  0  0  0  0  0  0  0  0  0  # atno 10764 bound_to 10752
  154.0108  135.6754  153.4818 H   0  0  0  0  0  0  0  0  0  0  0  0  # atno 10765 bound_to 10752
  140.5200  134.5718  157.5045 H   0  0  0  0  0  0  0  0  0  0  0  0  # atno 11005 bound_to 11000
  146.2813  140.4552  142.8775 LP  0  0  0  0  0  0  0  0  0  0  0  0  # atno 17320 bound_to 7965
  144.8464  140.6935  143.6196 LP  0  0  0  0  0  0  0  0  0  0  0  0  # atno 17321 bound_to 7965
  139.9576  143.6201  152.3011 LP  0  0  0  0  0  0  0  0  0  0  0  0  # atno 17342 bound_to 10162
  139.6742  144.7659  151.1727 LP  0  0  0  0  0  0  0  0  0  0  0  0  # atno 17343 bound_to 10162
  156.0923  130.3662  150.0372 LP  0  0  0  0  0  0  0  0  0  0  0  0  # atno 17370 bound_to 10713
  156.8502  130.9456  151.3626 LP  0  0  0  0  0  0  0  0  0  0  0  0  # atno 17371 bound_to 10713
  139.9611  134.7451  156.0236 LP  0  0  0  0  0  0  0  0  0  0  0  0  # atno 17394 bound_to 11000
  141.1339  133.6580  156.3540 LP  0  0  0  0  0  0  0  0  0  0  0  0  # atno 17395 bound_to 11000

$$$$
