AV-unprocessed.smi:2703|AV-procd|sdf|10440|dock7
  -GOLD-   2272014483D 1   1.00000     0.00000
 Structure written by MMmdl.
 43 45  0  0  0  0  0  0  0  0  4 V2000
  145.7560  129.8802  152.0340 C   0  0  0  0  0  0  0  0  0  0  0  0
  145.7460  131.3828  151.8104 C   0  0  0  0  0  0  0  0  0  0  0  0
  144.6173  131.9652  151.1914 C   0  0  0  0  0  0  0  0  0  0  0  0
  144.6389  133.3414  150.9986 C   0  0  0  0  0  0  0  0  0  0  0  0
  143.6987  134.1983  150.4230 N   0  3  0  0  0  0  0  0  0  0  0  0
  144.1678  135.4760  150.4564 C   0  0  0  0  0  0  0  0  0  0  0  0
  145.3931  135.4488  151.0472 N   0  0  0  0  0  0  0  0  0  0  0  0
  146.3225  136.5534  151.3250 C   0  0  0  0  0  0  0  0  0  0  0  0
  145.8854  137.4141  152.5266 C   0  0  2  0  0  0  0  0  0  0  0  0
  144.5176  137.7549  152.4038 O   0  0  0  0  0  0  0  0  0  0  0  0
  146.7213  138.6991  152.6435 C   0  0  0  0  0  0  0  0  0  0  0  0
  146.9604  139.2085  154.3711 S   0  0  0  0  0  0  0  0  0  0  0  0
  148.7002  139.4482  154.6428 C   0  0  0  0  0  0  0  0  0  0  0  0
  149.6558  138.4641  154.3055 C   0  0  0  0  0  0  0  0  0  0  0  0
  151.0178  138.7059  154.5421 C   0  0  0  0  0  0  0  0  0  0  0  0
  151.3996  139.9291  155.1122 C   0  0  0  0  0  0  0  0  0  0  0  0
  150.4132  140.8811  155.4333 C   0  0  0  0  0  0  0  0  0  0  0  0
  149.0849  140.6445  155.2030 N   0  3  0  0  0  0  0  0  0  0  0  0
  148.2218  141.5471  155.5159 O   0  5  0  0  0  0  0  0  0  0  0  0
  145.7302  134.1364  151.4007 C   0  0  0  0  0  0  0  0  0  0  0  0
  146.8506  133.5775  152.0118 C   0  0  0  0  0  0  0  0  0  0  0  0
  146.8491  132.1787  152.2141 C   0  0  0  0  0  0  0  0  0  0  0  0
  148.0594  131.5416  152.8753 C   0  0  0  0  0  0  0  0  0  0  0  0
  144.8330  129.4179  151.6829 H   0  0  0  0  0  0  0  0  0  0  0  0
  145.8600  129.6508  153.0948 H   0  0  0  0  0  0  0  0  0  0  0  0
  146.5849  129.4192  151.4965 H   0  0  0  0  0  0  0  0  0  0  0  0
  143.7748  131.3652  150.8799 H   0  0  0  0  0  0  0  0  0  0  0  0
  143.6598  136.3526  150.0811 H   0  0  0  0  0  0  0  0  0  0  0  0
  147.2962  136.1054  151.5270 H   0  0  0  0  0  0  0  0  0  0  0  0
  146.4472  137.1577  150.4263 H   0  0  0  0  0  0  0  0  0  0  0  0
  146.0030  136.8287  153.4394 H   0  0  0  0  0  0  0  0  0  0  0  0
  144.4539  138.6643  152.1558 H   0  0  0  0  0  0  0  0  0  0  0  0
  147.7043  138.5374  152.2005 H   0  0  0  0  0  0  0  0  0  0  0  0
  146.2471  139.5112  152.0910 H   0  0  0  0  0  0  0  0  0  0  0  0
  149.3611  137.5230  153.8682 H   0  0  0  0  0  0  0  0  0  0  0  0
  151.7596  137.9620  154.2901 H   0  0  0  0  0  0  0  0  0  0  0  0
  152.4413  140.1395  155.3047 H   0  0  0  0  0  0  0  0  0  0  0  0
  150.6312  141.8430  155.8747 H   0  0  0  0  0  0  0  0  0  0  0  0
  147.6927  134.1803  152.3167 H   0  0  0  0  0  0  0  0  0  0  0  0
  148.8191  132.2850  153.1185 H   0  0  0  0  0  0  0  0  0  0  0  0
  148.5148  130.8053  152.2126 H   0  0  0  0  0  0  0  0  0  0  0  0
  147.7721  131.0440  153.8019 H   0  0  0  0  0  0  0  0  0  0  0  0
  142.8031  133.9333  150.0332 H   0  0  0  0  0  0  0  0  0  0  0  0
  1  2  1  0  0  0  0
  1 24  1  0  0  0  0
  1 25  1  0  0  0  0
  1 26  1  0  0  0  0
  2 22  1  0  0  0  0
  2  3  2  0  0  0  0
  3  4  1  0  0  0  0
  3 27  1  0  0  0  0
  4 20  2  0  0  0  0
  4  5  1  0  0  0  0
  5  6  2  0  0  0  0
  5 43  1  0  0  0  0
  6  7  1  0  0  0  0
  6 28  1  0  0  0  0
  7  8  1  0  0  0  0
  7 20  1  0  0  0  0
  8  9  1  0  0  0  0
  8 29  1  0  0  0  0
  8 30  1  0  0  0  0
  9 10  1  0  0  0  0
  9 11  1  0  0  0  0
  9 31  1  0  0  0  0
 10 32  1  0  0  0  0
 11 12  1  0  0  0  0
 11 33  1  0  0  0  0
 11 34  1  0  0  0  0
 12 13  1  0  0  0  0
 13 18  1  0  0  0  0
 13 14  2  0  0  0  0
 14 15  1  0  0  0  0
 14 35  1  0  0  0  0
 15 16  2  0  0  0  0
 15 36  1  0  0  0  0
 16 17  1  0  0  0  0
 16 37  1  0  0  0  0
 17 18  2  0  0  0  0
 17 38  1  0  0  0  0
 18 19  1  0  0  0  0
 20 21  1  0  0  0  0
 21 22  2  0  0  0  0
 21 39  1  0  0  0  0
 22 23  1  0  0  0  0
 23 40  1  0  0  0  0
 23 41  1  0  0  0  0
 23 42  1  0  0  0  0
M  CHG  1   5   1
M  CHG  1  18   1
M  CHG  1  19  -1
M  END
> <s_m_source_file>
AV-unprocessed.smi

> <i_m_source_file_index>
2703

> <i_lp_mmshare_version>
43012

> <i_f3d_flags>
0

> <s_epik_input>
W0NIM11jKFtjSF0xKWMoW0NIM10pW2NIXWMoYzEyKW4oW2NIXW4yKVtDSDJdW0NASF0oW09IXSlbQ0gyXVNjM1tjSF1bY0hdW2NIXVtjSF1bbitdM1tPLV0=

> <s_epik_cmdline>
J2VwaWtfcHl0aG9uJywgJy1waCcsICc3LjAnLCAnLXRuJywgJzgnLCAnLW1hJywgJzIwMCcsICctbWV0YWxfYmluZGluZycsICctaW1hZScsICc8aW5maWxlLm1hZT4nLCAnLW9tYWUnLCAnPG91dGZpbGUubWFlPic=

> <r_epik_Ionization_Penalty>
1.07182

> <r_epik_Ionization_Penalty_Charging>
1.07181

> <r_epik_Ionization_Penalty_Neutral>
2.88913e-06

> <r_epik_State_Penalty>
1.12646

> <r_epik_Charging_Adjusted_Penalty>
2.19828

> <i_epik_Tot_Q>
1

> <i_epik_Tot_abs_Q>
3

> <r_epik_Metal_State_Penalty>
5.12345

> <b_epik_Metal_Only>
0

> <s_lp_Force_Field>
OPLS_2005

> <r_lp_Energy>
22.2033

> <b_lp_Chiralities_Consistent>
1

> <s_lp_Variant>
AV-unprocessed.smi:2703-3

> <Gold.Version>
5.8.1

> <Gold.Id.Protein>
6NUR|6NUR_protein|mol2

> <Gold.PLP.Fitness>
51.7963

> <Gold.PLP.PLP>
-42.7269

> <Gold.PLP.part.hbond>
-3.0000

> <Gold.PLP.part.metal>
0.0000

> <Gold.PLP.part.buried>
-0.1388

> <Gold.PLP.part.nonpolar>
-41.4100

> <Gold.PLP.part.repulsive>
0.1405

> <Gold.PLP.ligand.clash>
0.0000

> <Gold.PLP.ligand.torsion>
1.1036

> <Gold.PLP.Chemscore.Hbond>
2.7520

> <Gold.PLP.Chemscore.CHOScore>
1.0000

> <Gold.PLP.Chemscore.Metal>
0.0000

> <Gold.Chemscore.Hbonds>
donor molecule, donor type, donor heavy atom, donor atom, acceptor molecule, acceptor atom, score
      L1  H     5    43       P1 10186  1.95
      L1  H    10    32       P1 10175  0.99
      L1  C     6    28       P1 10171  1.00

> <Gold.PLP.Chemscore.Internal.Correction>
0.0205

> <Gold.Rescore>
     Score         DG    S(hbond)    S(metal)    S(lipo)     H(rot)  DE(clash)    DE(int)     intcor
     14.79     -18.20       1.91        0.00     105.21       2.33       1.09       2.32       ----

> <Gold.Chemscore.Fitness>
14.7927

> <Gold.Chemscore.DG>
-18.2034

> <Gold.Chemscore.ZeroCoef>
-5.4800

> <Gold.Chemscore.Hbond>
1.9079

> <Gold.Chemscore.Metal>
0.0000

> <Gold.Chemscore.Lipo>
105.2065

> <Gold.Chemscore.Internal_Hbond>
0.0000

> <Gold.Chemscore.DEClash>
1.0896

> <Gold.Chemscore.DEInternal>
2.3211

> <Gold.Chemscore.Rot>
2.3274

> <Gold.Chemscore.Internal.Correction>
   9.000000E+99

> <Gold.Chemscore.Hbonds>
donor molecule, donor type, donor heavy atom, donor atom, acceptor molecule, acceptor atom, score
      L1  H     5    43       P1 10186  0.93
      L1  H    10    32       P1 10175  0.92

> <Gold.Chemscore.Hbond.Weighted>
-6.3725

> <Gold.Chemscore.Metal.Weighted>
-0.0000

> <Gold.Chemscore.Lipo.Weighted>
-12.3092

> <Gold.Chemscore.Internal_Hbond.Weighted>
0.0000

> <Gold.Chemscore.DEClash.Weighted>
1.0896

> <Gold.Chemscore.DEInternal.Weighted>
2.3211

> <Gold.Chemscore.Rot.Weighted>
5.9583

> <Gold.Chemscore.Internal.Correction.Weighted>
   9.000000E+99

> <Gold.Protein.RotatedTorsions>
[ 6907 6896 6895 6894 ] final   10.07 input  -60.11 | X-H torsion
[ 7974 7965 7964 7962 ] final  169.12 input  175.53 | X-H torsion
[ 8008 7997 7996 7995 ] final  150.11 input   59.86 | X-H torsion
[ 10167 10162 10161 10158 ] final  -45.88 input  -65.29 | X-H torsion
[ 10718 10713 10712 10709 ] final   39.18 input   66.30 | X-H torsion
[ 10763 10752 10751 10750 ] final  -46.91 input  -60.55 | X-H torsion
[ 11005 11000 10999 10996 ] final   71.34 input  -57.11 | X-H torsion

> <Gold.Protein.ActiveResidues>
 VAL166  LYS551  ARG553  GLY616  TRP617  ASP618  TYR619  PRO620  LYS621  CYS622 
 ASP623  PHE694  ASN695  SER759  ASP760  ASP761  ALA762  ILE779  LEU786  VAL792 
 PHE793  MET794  SER795  GLU796  ALA797  LYS798  CYS799  TRP800  GLU811  SER814 

> <Gold.Protein.RotatedAtoms>
  151.7324  135.0872  160.0302 H   0  0  0  0  0  0  0  0  0  0  0  0  # atno 6907 bound_to 6896
  152.3532  133.6201  159.5969 H   0  0  0  0  0  0  0  0  0  0  0  0  # atno 6908 bound_to 6896
  150.7554  133.9457  159.3511 H   0  0  0  0  0  0  0  0  0  0  0  0  # atno 6909 bound_to 6896
  144.7366  139.9007  143.6409 H   0  0  0  0  0  0  0  0  0  0  0  0  # atno 7974 bound_to 7965
  156.2729  140.2084  156.5964 H   0  0  0  0  0  0  0  0  0  0  0  0  # atno 8008 bound_to 7997
  154.6941  140.0527  157.0416 H   0  0  0  0  0  0  0  0  0  0  0  0  # atno 8009 bound_to 7997
  155.0825  140.3188  155.4600 H   0  0  0  0  0  0  0  0  0  0  0  0  # atno 8010 bound_to 7997
  140.6840  143.2858  151.3703 H   0  0  0  0  0  0  0  0  0  0  0  0  # atno 10167 bound_to 10162
  157.3675  130.7683  149.7094 H   0  0  0  0  0  0  0  0  0  0  0  0  # atno 10718 bound_to 10713
  154.0528  135.6629  153.4802 H   0  0  0  0  0  0  0  0  0  0  0  0  # atno 10763 bound_to 10752
  153.0457  135.5116  154.7734 H   0  0  0  0  0  0  0  0  0  0  0  0  # atno 10764 bound_to 10752
  154.6746  135.3035  154.9662 H   0  0  0  0  0  0  0  0  0  0  0  0  # atno 10765 bound_to 10752
  139.9549  134.7162  156.0777 H   0  0  0  0  0  0  0  0  0  0  0  0  # atno 11005 bound_to 11000
  146.1074  139.4075  143.0309 LP  0  0  0  0  0  0  0  0  0  0  0  0  # atno 17320 bound_to 7965
  145.7492  140.9979  143.1259 LP  0  0  0  0  0  0  0  0  0  0  0  0  # atno 17321 bound_to 7965
  139.6184  144.0957  152.2367 LP  0  0  0  0  0  0  0  0  0  0  0  0  # atno 17342 bound_to 10162
  140.0393  144.6020  150.7424 LP  0  0  0  0  0  0  0  0  0  0  0  0  # atno 17343 bound_to 10162
  155.9749  130.4096  150.3889 LP  0  0  0  0  0  0  0  0  0  0  0  0  # atno 17370 bound_to 10713
  157.1975  131.0430  151.2668 LP  0  0  0  0  0  0  0  0  0  0  0  0  # atno 17371 bound_to 10713
  141.1218  133.6610  156.3235 LP  0  0  0  0  0  0  0  0  0  0  0  0  # atno 17394 bound_to 11000
  140.5633  134.5912  157.5439 LP  0  0  0  0  0  0  0  0  0  0  0  0  # atno 17395 bound_to 11000

$$$$
