AV-unprocessed.smi:2331|AV-procd|sdf|9317|dock4
  -GOLD-   2272012533D 1   1.00000     0.00000
 Structure written by MMmdl.
 50 51  0  0  0  0  0  0  0  0  2 V2000
  152.1294  145.5703  159.2037 C   0  0  0  0  0  0  0  0  0  0  0  0
  151.5494  144.1422  159.1289 C   0  0  0  0  0  0  0  0  0  0  0  0
  150.0436  144.2424  159.4742 C   0  0  0  0  0  0  0  0  0  0  0  0
  151.6787  143.6205  157.6741 C   0  0  0  0  0  0  0  0  0  0  0  0
  150.6942  142.5829  157.3805 N   0  0  0  0  0  0  0  0  0  0  0  0
  150.9677  141.3146  157.0359 C   0  0  0  0  0  0  0  0  0  0  0  0
  152.1164  140.8778  156.9653 O   0  0  0  0  0  0  0  0  0  0  0  0
  149.8632  140.5523  156.8501 N   0  0  0  0  0  0  0  0  0  0  0  0
  149.7701  139.1466  157.2711 C   0  0  0  0  0  0  0  0  0  0  0  0
  148.2901  138.7715  157.2426 C   0  0  0  0  0  0  0  0  0  0  0  0
  147.5609  140.1069  157.2749 C   0  0  0  0  0  0  0  0  0  0  0  0
  148.5190  141.0987  156.5902 C   0  0  2  0  0  0  0  0  0  0  0  0
  148.2138  141.3698  155.0756 C   0  0  0  0  0  0  0  0  0  0  0  0
  148.3423  140.0684  154.2590 C   0  0  0  0  0  0  0  0  0  0  0  0
  146.8307  141.9922  154.7988 C   0  0  0  0  0  0  0  0  0  0  0  0
  149.1706  142.2660  154.5426 O   0  0  0  0  0  0  0  0  0  0  0  0
  152.3200  143.2218  160.0973 C   0  0  0  0  0  0  0  0  0  0  0  0
  153.0599  142.0938  159.6561 C   0  0  0  0  0  0  0  0  0  0  0  0
  153.7572  141.3036  160.5922 C   0  0  0  0  0  0  0  0  0  0  0  0
  153.7203  141.6207  161.9032 N   0  3  0  0  0  0  0  0  0  0  0  0
  153.0330  142.6807  162.3760 C   0  0  0  0  0  0  0  0  0  0  0  0
  152.3175  143.5060  161.4858 C   0  0  0  0  0  0  0  0  0  0  0  0
  151.5891  146.2527  158.5464 H   0  0  0  0  0  0  0  0  0  0  0  0
  153.1774  145.6051  158.9061 H   0  0  0  0  0  0  0  0  0  0  0  0
  152.0630  145.9710  160.2159 H   0  0  0  0  0  0  0  0  0  0  0  0
  149.5240  144.9038  158.7798 H   0  0  0  0  0  0  0  0  0  0  0  0
  149.8857  144.6475  160.4746 H   0  0  0  0  0  0  0  0  0  0  0  0
  149.5440  143.2743  159.4210 H   0  0  0  0  0  0  0  0  0  0  0  0
  151.5853  144.4508  156.9716 H   0  0  0  0  0  0  0  0  0  0  0  0
  152.6671  143.1922  157.5052 H   0  0  0  0  0  0  0  0  0  0  0  0
  149.7223  142.8489  157.4405 H   0  0  0  0  0  0  0  0  0  0  0  0
  150.3524  138.4958  156.6171 H   0  0  0  0  0  0  0  0  0  0  0  0
  150.1560  139.0386  158.2864 H   0  0  0  0  0  0  0  0  0  0  0  0
  148.0608  138.2443  156.3162 H   0  0  0  0  0  0  0  0  0  0  0  0
  148.0058  138.1194  158.0689 H   0  0  0  0  0  0  0  0  0  0  0  0
  146.5722  140.0487  156.8212 H   0  0  0  0  0  0  0  0  0  0  0  0
  147.4186  140.4071  158.3140 H   0  0  0  0  0  0  0  0  0  0  0  0
  148.4267  142.0517  157.1147 H   0  0  0  0  0  0  0  0  0  0  0  0
  147.6241  139.3213  154.5982 H   0  0  0  0  0  0  0  0  0  0  0  0
  149.3348  139.6258  154.3377 H   0  0  0  0  0  0  0  0  0  0  0  0
  148.1534  140.2424  153.1989 H   0  0  0  0  0  0  0  0  0  0  0  0
  146.0294  141.3575  155.1774 H   0  0  0  0  0  0  0  0  0  0  0  0
  146.6612  142.1204  153.7290 H   0  0  0  0  0  0  0  0  0  0  0  0
  146.7257  142.9771  155.2538 H   0  0  0  0  0  0  0  0  0  0  0  0
  148.9273  143.1454  154.7884 H   0  0  0  0  0  0  0  0  0  0  0  0
  153.1132  141.8155  158.6149 H   0  0  0  0  0  0  0  0  0  0  0  0
  154.3417  140.4332  160.3316 H   0  0  0  0  0  0  0  0  0  0  0  0
  153.0769  142.8373  163.4441 H   0  0  0  0  0  0  0  0  0  0  0  0
  151.7754  144.3555  161.8743 H   0  0  0  0  0  0  0  0  0  0  0  0
  154.2334  141.0355  162.5630 H   0  0  0  0  0  0  0  0  0  0  0  0
  1  2  1  0  0  0  0
  1 23  1  0  0  0  0
  1 24  1  0  0  0  0
  1 25  1  0  0  0  0
  2  3  1  0  0  0  0
  2  4  1  0  0  0  0
  2 17  1  0  0  0  0
  3 26  1  0  0  0  0
  3 27  1  0  0  0  0
  3 28  1  0  0  0  0
  4  5  1  0  0  0  0
  4 29  1  0  0  0  0
  4 30  1  0  0  0  0
  5  6  1  0  0  0  0
  5 31  1  0  0  0  0
  6  7  2  0  0  0  0
  6  8  1  0  0  0  0
  8 12  1  0  0  0  0
  8  9  1  0  0  0  0
  9 10  1  0  0  0  0
  9 32  1  0  0  0  0
  9 33  1  0  0  0  0
 10 11  1  0  0  0  0
 10 34  1  0  0  0  0
 10 35  1  0  0  0  0
 11 12  1  0  0  0  0
 11 36  1  0  0  0  0
 11 37  1  0  0  0  0
 12 13  1  0  0  0  0
 12 38  1  0  0  0  0
 13 14  1  0  0  0  0
 13 15  1  0  0  0  0
 13 16  1  0  0  0  0
 14 39  1  0  0  0  0
 14 40  1  0  0  0  0
 14 41  1  0  0  0  0
 15 42  1  0  0  0  0
 15 43  1  0  0  0  0
 15 44  1  0  0  0  0
 16 45  1  0  0  0  0
 17 22  1  0  0  0  0
 17 18  2  0  0  0  0
 18 19  1  0  0  0  0
 18 46  1  0  0  0  0
 19 20  2  0  0  0  0
 19 47  1  0  0  0  0
 20 21  1  0  0  0  0
 20 50  1  0  0  0  0
 21 22  2  0  0  0  0
 21 48  1  0  0  0  0
 22 49  1  0  0  0  0
M  CHG  1  20   1
M  END
> <s_m_source_file>
AV-unprocessed.smi

> <i_m_source_file_index>
2331

> <i_lp_mmshare_version>
43012

> <i_f3d_flags>
0

> <s_epik_input>
W2NIXTFbY0hdbltjSF1bY0hdYzFDKFtDSDNdKShbQ0gzXSlbQ0gyXVtOSF1DKD1PKU4yW0NIMl1bQ0gyXVtDSDJdW0NASF0yQyhbQ0gzXSkoW0NIM10pW09IXQ==

> <s_epik_cmdline>
J2VwaWtfcHl0aG9uJywgJy1waCcsICc3LjAnLCAnLXRuJywgJzgnLCAnLW1hJywgJzIwMCcsICctbWV0YWxfYmluZGluZycsICctaW1hZScsICc8aW5maWxlLm1hZT4nLCAnLW9tYWUnLCAnPG91dGZpbGUubWFlPic=

> <r_epik_Ionization_Penalty>
1.40501

> <r_epik_Ionization_Penalty_Charging>
1.40494

> <r_epik_Ionization_Penalty_Neutral>
7.00889e-05

> <r_epik_State_Penalty>
1.48741

> <r_epik_Charging_Adjusted_Penalty>
2.89235

> <i_epik_Tot_Q>
1

> <i_epik_Tot_abs_Q>
1

> <r_epik_Metal_State_Penalty>
1.54092

> <b_epik_Metal_Only>
0

> <s_lp_Force_Field>
OPLS_2005

> <r_lp_Energy>
57.0606

> <b_lp_Chiralities_Consistent>
1

> <s_lp_Variant>
AV-unprocessed.smi:2331-4

> <Gold.Version>
5.8.1

> <Gold.Id.Protein>
6NUR|6NUR_protein|mol2

> <Gold.PLP.Fitness>
50.9431

> <Gold.PLP.PLP>
-48.5048

> <Gold.PLP.part.hbond>
-2.6328

> <Gold.PLP.part.metal>
0.0000

> <Gold.PLP.part.buried>
-4.2440

> <Gold.PLP.part.nonpolar>
-39.3846

> <Gold.PLP.part.repulsive>
0.0422

> <Gold.PLP.ligand.clash>
0.0331

> <Gold.PLP.ligand.torsion>
0.7196

> <Gold.PLP.Chemscore.Hbond>
1.2161

> <Gold.PLP.Chemscore.CHOScore>
0.0000

> <Gold.PLP.Chemscore.Metal>
0.0000

> <Gold.Chemscore.Hbonds>
donor molecule, donor type, donor heavy atom, donor atom, acceptor molecule, acceptor atom, score
      L1  H    16    45       P1  8028  1.00
      P1  H  7997  8008       L1     7  0.07
      P1  H  8011  8017       L1    16  0.08

> <Gold.PLP.Chemscore.Internal.Correction>
0.2624

> <Gold.Rescore>
     Score         DG    S(hbond)    S(metal)    S(lipo)     H(rot)  DE(clash)    DE(int)     intcor
     18.83     -19.84       1.49        0.00     124.34       2.02       0.19       0.82       ----

> <Gold.Chemscore.Fitness>
18.8304

> <Gold.Chemscore.DG>
-19.8425

> <Gold.Chemscore.ZeroCoef>
-5.4800

> <Gold.Chemscore.Hbond>
1.4923

> <Gold.Chemscore.Metal>
0.0000

> <Gold.Chemscore.Lipo>
124.3360

> <Gold.Chemscore.Internal_Hbond>
0.0000

> <Gold.Chemscore.DEClash>
0.1935

> <Gold.Chemscore.DEInternal>
0.8185

> <Gold.Chemscore.Rot>
2.0192

> <Gold.Chemscore.Internal.Correction>
   9.000000E+99

> <Gold.Chemscore.Hbonds>
donor molecule, donor type, donor heavy atom, donor atom, acceptor molecule, acceptor atom, score
      L1  H    16    45       P1  8028  1.00
      P1  H  7997  8008       L1     7  0.10
      P1  H  8011  8017       L1    16  0.04

> <Gold.Chemscore.Hbond.Weighted>
-4.9843

> <Gold.Chemscore.Metal.Weighted>
-0.0000

> <Gold.Chemscore.Lipo.Weighted>
-14.5473

> <Gold.Chemscore.Internal_Hbond.Weighted>
0.0000

> <Gold.Chemscore.DEClash.Weighted>
0.1935

> <Gold.Chemscore.DEInternal.Weighted>
0.8185

> <Gold.Chemscore.Rot.Weighted>
5.1691

> <Gold.Chemscore.Internal.Correction.Weighted>
   9.000000E+99

> <Gold.Protein.RotatedTorsions>
[ 6907 6896 6895 6894 ] final   48.97 input  -60.11 | X-H torsion
[ 7974 7965 7964 7962 ] final   -1.07 input  175.53 | X-H torsion
[ 8008 7997 7996 7995 ] final  -51.54 input   59.86 | X-H torsion
[ 10167 10162 10161 10158 ] final  -49.27 input  -65.29 | X-H torsion
[ 10718 10713 10712 10709 ] final  -69.64 input   66.30 | X-H torsion
[ 10763 10752 10751 10750 ] final   72.34 input  -60.55 | X-H torsion
[ 11005 11000 10999 10996 ] final  -31.04 input  -57.11 | X-H torsion

> <Gold.Protein.ActiveResidues>
 VAL166  LYS551  ARG553  GLY616  TRP617  ASP618  TYR619  PRO620  LYS621  CYS622 
 ASP623  PHE694  ASN695  SER759  ASP760  ASP761  ALA762  ILE779  LEU786  VAL792 
 PHE793  MET794  SER795  GLU796  ALA797  LYS798  CYS799  TRP800  GLU811  SER814 

> <Gold.Protein.RotatedAtoms>
  152.2855  134.7781  160.0388 H   0  0  0  0  0  0  0  0  0  0  0  0  # atno 6907 bound_to 6896
  151.8345  133.3408  159.3632 H   0  0  0  0  0  0  0  0  0  0  0  0  # atno 6908 bound_to 6896
  150.7207  134.5379  159.5777 H   0  0  0  0  0  0  0  0  0  0  0  0  # atno 6909 bound_to 6896
  146.2421  140.1365  142.8336 H   0  0  0  0  0  0  0  0  0  0  0  0  # atno 7974 bound_to 7965
  154.4085  140.1245  156.4845 H   0  0  0  0  0  0  0  0  0  0  0  0  # atno 8008 bound_to 7997
  155.7051  140.3494  155.4930 H   0  0  0  0  0  0  0  0  0  0  0  0  # atno 8009 bound_to 7997
  155.9350  140.1076  157.1092 H   0  0  0  0  0  0  0  0  0  0  0  0  # atno 8010 bound_to 7997
  140.6693  143.2705  151.4191 H   0  0  0  0  0  0  0  0  0  0  0  0  # atno 10167 bound_to 10162
  156.0445  130.4316  150.2178 H   0  0  0  0  0  0  0  0  0  0  0  0  # atno 10718 bound_to 10713
  153.0453  135.5103  154.7730 H   0  0  0  0  0  0  0  0  0  0  0  0  # atno 10763 bound_to 10752
  154.6635  135.2942  154.9838 H   0  0  0  0  0  0  0  0  0  0  0  0  # atno 10764 bound_to 10752
  154.0681  135.6681  153.4873 H   0  0  0  0  0  0  0  0  0  0  0  0  # atno 10765 bound_to 10752
  140.9434  133.7264  156.1111 H   0  0  0  0  0  0  0  0  0  0  0  0  # atno 11005 bound_to 11000
  145.0282  140.8849  143.5125 LP  0  0  0  0  0  0  0  0  0  0  0  0  # atno 17320 bound_to 7965
  145.1425  139.2563  143.5483 LP  0  0  0  0  0  0  0  0  0  0  0  0  # atno 17321 bound_to 7965
  139.5954  144.1409  152.2137 LP  0  0  0  0  0  0  0  0  0  0  0  0  # atno 17342 bound_to 10162
  140.0776  144.5727  150.7145 LP  0  0  0  0  0  0  0  0  0  0  0  0  # atno 17343 bound_to 10162
  157.0269  130.9996  151.3323 LP  0  0  0  0  0  0  0  0  0  0  0  0  # atno 17370 bound_to 10713
  157.5305  130.8055  149.7911 LP  0  0  0  0  0  0  0  0  0  0  0  0  # atno 17371 bound_to 10713
  140.7702  134.3841  157.5509 LP  0  0  0  0  0  0  0  0  0  0  0  0  # atno 17394 bound_to 11000
  139.8827  134.9017  156.2817 LP  0  0  0  0  0  0  0  0  0  0  0  0  # atno 17395 bound_to 11000

$$$$
