AV-unprocessed.smi:2176|AV-procd|sdf|8847|dock7
  -GOLD-   2272012 43D 1   1.00000     0.00000
 Structure written by MMmdl.
 28 29  0  0  0  0  0  0  0  0  2 V2000
  153.7629  140.0816  159.6247 O   0  0  0  0  0  0  0  0  0  0  0  0
  152.6132  140.4700  159.4138 C   0  0  0  0  0  0  0  0  0  0  0  0
  151.5551  139.5047  158.8641 C   0  0  0  0  0  0  0  0  0  0  0  0
  151.0654  139.9073  157.5363 N   0  0  0  0  0  0  0  0  0  0  0  0
  149.7353  140.3512  157.4333 C   0  0  0  0  0  0  0  0  0  0  0  0
  149.2067  140.7444  156.2587 C   0  0  0  0  0  0  0  0  0  0  0  0
  150.0519  140.7009  155.0720 C   0  0  0  0  0  0  0  0  0  0  0  0
  149.5844  141.0514  153.9903 O   0  0  0  0  0  0  0  0  0  0  0  0
  151.3372  140.2667  155.2240 N   0  5  0  0  0  0  0  0  0  0  0  0
  151.8623  139.8724  156.4255 C   0  0  0  0  0  0  0  0  0  0  0  0
  153.0262  139.4860  156.5407 O   0  0  0  0  0  0  0  0  0  0  0  0
  152.2157  141.7341  159.6157 N   0  0  0  0  0  0  0  0  0  0  0  0
  153.0623  142.7927  160.1451 C   0  0  0  0  0  0  0  0  0  0  0  0
  152.6860  144.1781  159.6638 C   0  0  0  0  0  0  0  0  0  0  0  0
  151.2404  144.5384  159.4140 C   0  0  0  0  0  0  0  0  0  0  0  0
  152.1961  144.4016  158.2524 C   0  0  0  0  0  0  0  0  0  0  0  0
  151.9536  138.4889  158.8260 H   0  0  0  0  0  0  0  0  0  0  0  0
  150.7318  139.4619  159.5781 H   0  0  0  0  0  0  0  0  0  0  0  0
  149.1799  140.3589  158.3596 H   0  0  0  0  0  0  0  0  0  0  0  0
  148.1841  141.0863  156.1970 H   0  0  0  0  0  0  0  0  0  0  0  0
  151.2545  141.9695  159.4151 H   0  0  0  0  0  0  0  0  0  0  0  0
  153.0361  142.7768  161.2363 H   0  0  0  0  0  0  0  0  0  0  0  0
  154.0936  142.5936  159.8511 H   0  0  0  0  0  0  0  0  0  0  0  0
  153.2981  144.9709  160.0904 H   0  0  0  0  0  0  0  0  0  0  0  0
  150.4931  143.7579  159.5429 H   0  0  0  0  0  0  0  0  0  0  0  0
  150.9182  145.5420  159.6840 H   0  0  0  0  0  0  0  0  0  0  0  0
  152.5149  145.3127  157.7505 H   0  0  0  0  0  0  0  0  0  0  0  0
  152.0861  143.5299  157.6102 H   0  0  0  0  0  0  0  0  0  0  0  0
  1  2  2  0  0  0  0
  2  3  1  0  0  0  0
  2 12  1  0  0  0  0
  3  4  1  0  0  0  0
  3 17  1  0  0  0  0
  3 18  1  0  0  0  0
  4 10  1  0  0  0  0
  4  5  1  0  0  0  0
  5  6  2  0  0  0  0
  5 19  1  0  0  0  0
  6  7  1  0  0  0  0
  6 20  1  0  0  0  0
  7  8  2  0  0  0  0
  7  9  1  0  0  0  0
  9 10  1  0  0  0  0
 10 11  2  0  0  0  0
 12 13  1  0  0  0  0
 12 21  1  0  0  0  0
 13 14  1  0  0  0  0
 13 22  1  0  0  0  0
 13 23  1  0  0  0  0
 14 16  1  0  0  0  0
 14 15  1  0  0  0  0
 14 24  1  0  0  0  0
 15 16  1  0  0  0  0
 15 25  1  0  0  0  0
 15 26  1  0  0  0  0
 16 27  1  0  0  0  0
 16 28  1  0  0  0  0
M  CHG  1   9  -1
M  END
> <s_m_source_file>
AV-unprocessed.smi

> <i_m_source_file_index>
2176

> <i_lp_mmshare_version>
43012

> <i_f3d_flags>
0

> <s_epik_input>
W0NIMl0xW0NIMl1bQ0hdMVtDSDJdW05IXUMoPU8pW0NIMl1uMltjSF1bY0hdYyg9TylbbkhdYzI9Tw==

> <s_epik_cmdline>
J2VwaWtfcHl0aG9uJywgJy1waCcsICc3LjAnLCAnLXRuJywgJzgnLCAnLW1hJywgJzIwMCcsICctbWV0YWxfYmluZGluZycsICctaW1hZScsICc8aW5maWxlLm1hZT4nLCAnLW9tYWUnLCAnPG91dGZpbGUubWFlPic=

> <r_lp_tautomer_probability>
0.999537

> <r_epik_Ionization_Penalty>
3.07884

> <r_epik_Ionization_Penalty_Charging>
2.64713e-08

> <r_epik_Ionization_Penalty_Neutral>
3.07884

> <r_epik_State_Penalty>
3.07787

> <r_epik_Charging_Adjusted_Penalty>
3.07787

> <i_epik_Tot_Q>
-1

> <i_epik_Tot_abs_Q>
1

> <r_epik_Metal_State_Penalty>
0.459857

> <b_epik_Metal_Only>
1

> <s_lp_Force_Field>
OPLS_2005

> <r_lp_Energy>
21.5126

> <b_lp_Chiralities_Consistent>
1

> <s_lp_Variant>
AV-unprocessed.smi:2176-2

> <Gold.Version>
5.8.1

> <Gold.Id.Protein>
6NUR|6NUR_protein|mol2

> <Gold.PLP.Fitness>
43.7065

> <Gold.PLP.PLP>
-34.2531

> <Gold.PLP.part.hbond>
-4.2953

> <Gold.PLP.part.metal>
0.0000

> <Gold.PLP.part.buried>
-4.0771

> <Gold.PLP.part.nonpolar>
-26.2575

> <Gold.PLP.part.repulsive>
0.9511

> <Gold.PLP.ligand.clash>
0.0000

> <Gold.PLP.ligand.torsion>
0.5239

> <Gold.PLP.Chemscore.Hbond>
3.3200

> <Gold.PLP.Chemscore.CHOScore>
0.0000

> <Gold.PLP.Chemscore.Metal>
0.0000

> <Gold.Chemscore.Hbonds>
donor molecule, donor type, donor heavy atom, donor atom, acceptor molecule, acceptor atom, score
      P1  H  7989  7998       L1     9  0.35
      P1  H  7997  8009       L1    11  0.26
      P1  H  8011  8017       L1     8  0.59

> <Gold.PLP.Chemscore.Internal.Correction>
0.5411

> <Gold.Rescore>
     Score         DG    S(hbond)    S(metal)    S(lipo)     H(rot)  DE(clash)    DE(int)     intcor
     16.51     -17.39       3.04        0.00      58.64       1.99       0.32       0.57       ----

> <Gold.Chemscore.Fitness>
16.5070

> <Gold.Chemscore.DG>
-17.3926

> <Gold.Chemscore.ZeroCoef>
-5.4800

> <Gold.Chemscore.Hbond>
3.0373

> <Gold.Chemscore.Metal>
0.0000

> <Gold.Chemscore.Lipo>
58.6410

> <Gold.Chemscore.Internal_Hbond>
0.0000

> <Gold.Chemscore.DEClash>
0.3182

> <Gold.Chemscore.DEInternal>
0.5674

> <Gold.Chemscore.Rot>
1.9895

> <Gold.Chemscore.Internal.Correction>
   9.000000E+99

> <Gold.Chemscore.Hbonds>
donor molecule, donor type, donor heavy atom, donor atom, acceptor molecule, acceptor atom, score
      P1  H  7989  7998       L1     9  0.01
      P1  H  7997  8009       L1    11  0.26
      P1  H  8011  8017       L1     8  0.58

> <Gold.Chemscore.Hbond.Weighted>
-10.1447

> <Gold.Chemscore.Metal.Weighted>
-0.0000

> <Gold.Chemscore.Lipo.Weighted>
-6.8610

> <Gold.Chemscore.Internal_Hbond.Weighted>
0.0000

> <Gold.Chemscore.DEClash.Weighted>
0.3182

> <Gold.Chemscore.DEInternal.Weighted>
0.5674

> <Gold.Chemscore.Rot.Weighted>
5.0931

> <Gold.Chemscore.Internal.Correction.Weighted>
   9.000000E+99

> <Gold.Protein.RotatedTorsions>
[ 6907 6896 6895 6894 ] final -143.59 input  -60.11 | X-H torsion
[ 7974 7965 7964 7962 ] final   66.22 input  175.53 | X-H torsion
[ 8008 7997 7996 7995 ] final -121.57 input   59.86 | X-H torsion
[ 10167 10162 10161 10158 ] final  -11.87 input  -65.29 | X-H torsion
[ 10718 10713 10712 10709 ] final   63.24 input   66.30 | X-H torsion
[ 10763 10752 10751 10750 ] final  -30.61 input  -60.55 | X-H torsion
[ 11005 11000 10999 10996 ] final  101.43 input  -57.11 | X-H torsion

> <Gold.Protein.ActiveResidues>
 VAL166  LYS551  ARG553  GLY616  TRP617  ASP618  TYR619  PRO620  LYS621  CYS622 
 ASP623  PHE694  ASN695  SER759  ASP760  ASP761  ALA762  ILE779  LEU786  VAL792 
 PHE793  MET794  SER795  GLU796  ALA797  LYS798  CYS799  TRP800  GLU811  SER814 

> <Gold.Protein.RotatedAtoms>
  151.1025  133.5233  159.2609 H   0  0  0  0  0  0  0  0  0  0  0  0  # atno 6907 bound_to 6896
  151.2058  135.0461  159.8901 H   0  0  0  0  0  0  0  0  0  0  0  0  # atno 6908 bound_to 6896
  152.5444  134.0847  159.8304 H   0  0  0  0  0  0  0  0  0  0  0  0  # atno 6909 bound_to 6896
  145.8292  139.3129  143.0997 H   0  0  0  0  0  0  0  0  0  0  0  0  # atno 7974 bound_to 7965
  155.1502  140.0403  157.2819 H   0  0  0  0  0  0  0  0  0  0  0  0  # atno 8008 bound_to 7997
  154.6410  140.2547  155.7296 H   0  0  0  0  0  0  0  0  0  0  0  0  # atno 8009 bound_to 7997
  156.2532  140.2856  156.0803 H   0  0  0  0  0  0  0  0  0  0  0  0  # atno 8010 bound_to 7997
  140.7148  143.5593  150.9213 H   0  0  0  0  0  0  0  0  0  0  0  0  # atno 10167 bound_to 10162
  157.5957  130.9094  149.9690 H   0  0  0  0  0  0  0  0  0  0  0  0  # atno 10718 bound_to 10713
  153.7839  135.6903  153.4883 H   0  0  0  0  0  0  0  0  0  0  0  0  # atno 10763 bound_to 10752
  153.1794  135.4512  155.0006 H   0  0  0  0  0  0  0  0  0  0  0  0  # atno 10764 bound_to 10752
  154.8071  135.3361  154.7340 H   0  0  0  0  0  0  0  0  0  0  0  0  # atno 10765 bound_to 10752
  139.8773  134.9183  156.4906 H   0  0  0  0  0  0  0  0  0  0  0  0  # atno 11005 bound_to 11000
  145.9590  140.8850  143.0220 LP  0  0  0  0  0  0  0  0  0  0  0  0  # atno 17320 bound_to 7965
  144.6741  140.1785  143.7408 LP  0  0  0  0  0  0  0  0  0  0  0  0  # atno 17321 bound_to 7965
  139.9319  143.6484  152.3074 LP  0  0  0  0  0  0  0  0  0  0  0  0  # atno 17342 bound_to 10162
  139.6937  144.7644  151.1393 LP  0  0  0  0  0  0  0  0  0  0  0  0  # atno 17343 bound_to 10162
  156.1019  130.3655  150.0202 LP  0  0  0  0  0  0  0  0  0  0  0  0  # atno 17370 bound_to 10713
  156.8316  130.9394  151.3637 LP  0  0  0  0  0  0  0  0  0  0  0  0  # atno 17371 bound_to 10713
  140.8661  133.8023  155.9315 LP  0  0  0  0  0  0  0  0  0  0  0  0  # atno 17394 bound_to 11000
  140.9000  134.2390  157.5047 LP  0  0  0  0  0  0  0  0  0  0  0  0  # atno 17395 bound_to 11000

$$$$
