AV-unprocessed.smi:1669|AV-procd|sdf|6691|dock6
  -GOLD-   22720 7423D 1   1.00000     0.00000
 Structure written by MMmdl.
 49 51  0  0  0  0  0  0  0  0  3 V2000
  146.0150  138.1113  155.0239 C   0  0  0  0  0  0  0  0  0  0  0  0
  145.5230  138.2175  153.6297 N   0  3  1  0  0  0  0  0  0  0  0  0
  146.5785  138.7521  152.7299 C   0  0  0  0  0  0  0  0  0  0  0  0
  147.4421  139.8107  153.3957 C   0  0  0  0  0  0  0  0  0  0  0  0
  148.7905  139.5346  153.7105 C   0  0  0  0  0  0  0  0  0  0  0  0
  149.5919  140.5210  154.3172 C   0  0  0  0  0  0  0  0  0  0  0  0
  149.0476  141.7849  154.6161 C   0  0  0  0  0  0  0  0  0  0  0  0
  147.7015  142.0623  154.3082 C   0  0  0  0  0  0  0  0  0  0  0  0
  146.8999  141.0771  153.6996 C   0  0  0  0  0  0  0  0  0  0  0  0
  144.9118  136.9560  153.1256 C   0  0  0  0  0  0  0  0  0  0  0  0
  143.5613  136.5982  153.7867 C   0  0  1  0  0  0  0  0  0  0  0  0
  142.5385  137.4003  153.2314 O   0  0  0  0  0  0  0  0  0  0  0  0
  143.1428  135.1272  153.5759 C   0  0  0  0  0  0  0  0  0  0  0  0
  144.2781  134.2175  153.3472 N   0  0  0  0  0  0  0  0  0  0  0  0
  145.2898  133.8521  154.1872 C   0  0  0  0  0  0  0  0  0  0  0  0
  145.4984  134.3076  155.5938 C   0  0  0  0  0  0  0  0  0  0  0  0
  144.7294  133.5674  156.5152 O   0  0  0  0  0  0  0  0  0  0  0  0
  146.0794  132.9717  153.5106 N   0  3  0  0  0  0  0  0  0  0  0  0
  145.5695  132.7672  152.2281 C   0  0  0  0  0  0  0  0  0  0  0  0
  146.0243  131.9655  151.1857 C   0  0  0  0  0  0  0  0  0  0  0  0
  145.2667  131.9830  149.9965 C   0  0  0  0  0  0  0  0  0  0  0  0
  144.1064  132.7747  149.8773 C   0  0  0  0  0  0  0  0  0  0  0  0
  143.6539  133.5818  150.9417 C   0  0  0  0  0  0  0  0  0  0  0  0
  144.4092  133.5612  152.1153 C   0  0  0  0  0  0  0  0  0  0  0  0
  146.7726  137.3316  155.1126 H   0  0  0  0  0  0  0  0  0  0  0  0
  145.2075  137.8875  155.7197 H   0  0  0  0  0  0  0  0  0  0  0  0
  146.4582  139.0527  155.3504 H   0  0  0  0  0  0  0  0  0  0  0  0
  147.2370  137.9420  152.4128 H   0  0  0  0  0  0  0  0  0  0  0  0
  146.1231  139.1535  151.8230 H   0  0  0  0  0  0  0  0  0  0  0  0
  149.2167  138.5684  153.4820 H   0  0  0  0  0  0  0  0  0  0  0  0
  150.6241  140.3084  154.5542 H   0  0  0  0  0  0  0  0  0  0  0  0
  149.6619  142.5413  155.0824 H   0  0  0  0  0  0  0  0  0  0  0  0
  147.2844  143.0316  154.5389 H   0  0  0  0  0  0  0  0  0  0  0  0
  145.8687  141.2980  153.4643 H   0  0  0  0  0  0  0  0  0  0  0  0
  144.7353  137.0346  152.0541 H   0  0  0  0  0  0  0  0  0  0  0  0
  145.6309  136.1472  153.2609 H   0  0  0  0  0  0  0  0  0  0  0  0
  143.6021  136.7893  154.8582 H   0  0  0  0  0  0  0  0  0  0  0  0
  142.7772  137.6380  152.3486 H   0  0  0  0  0  0  0  0  0  0  0  0
  142.6087  134.7636  154.4547 H   0  0  0  0  0  0  0  0  0  0  0  0
  142.4422  135.0352  152.7457 H   0  0  0  0  0  0  0  0  0  0  0  0
  146.5528  134.2122  155.8542 H   0  0  0  0  0  0  0  0  0  0  0  0
  145.2416  135.3633  155.6790 H   0  0  0  0  0  0  0  0  0  0  0  0
  144.3359  132.8363  156.0634 H   0  0  0  0  0  0  0  0  0  0  0  0
  146.9112  131.3552  151.2756 H   0  0  0  0  0  0  0  0  0  0  0  0
  145.5808  131.3755  149.1597 H   0  0  0  0  0  0  0  0  0  0  0  0
  143.5500  132.7605  148.9509 H   0  0  0  0  0  0  0  0  0  0  0  0
  142.7621  134.1807  150.8337 H   0  0  0  0  0  0  0  0  0  0  0  0
  144.7885  138.9110  153.6347 H   0  0  0  0  0  0  0  0  0  0  0  0
  146.9030  132.5350  153.9048 H   0  0  0  0  0  0  0  0  0  0  0  0
  1  2  1  0  0  0  0
  1 25  1  0  0  0  0
  1 26  1  0  0  0  0
  1 27  1  0  0  0  0
  2  3  1  0  0  0  0
  2 10  1  0  0  0  0
  2 48  1  0  0  0  0
  3  4  1  0  0  0  0
  3 28  1  0  0  0  0
  3 29  1  0  0  0  0
  4  9  1  0  0  0  0
  4  5  2  0  0  0  0
  5  6  1  0  0  0  0
  5 30  1  0  0  0  0
  6  7  2  0  0  0  0
  6 31  1  0  0  0  0
  7  8  1  0  0  0  0
  7 32  1  0  0  0  0
  8  9  2  0  0  0  0
  8 33  1  0  0  0  0
  9 34  1  0  0  0  0
 10 11  1  0  0  0  0
 10 35  1  0  0  0  0
 10 36  1  0  0  0  0
 11 12  1  0  0  0  0
 11 13  1  0  0  0  0
 11 37  1  0  0  0  0
 12 38  1  0  0  0  0
 13 14  1  0  0  0  0
 13 39  1  0  0  0  0
 13 40  1  0  0  0  0
 14 24  1  0  0  0  0
 14 15  1  0  0  0  0
 15 16  1  0  0  0  0
 15 18  2  0  0  0  0
 16 17  1  0  0  0  0
 16 41  1  0  0  0  0
 16 42  1  0  0  0  0
 17 43  1  0  0  0  0
 18 19  1  0  0  0  0
 18 49  1  0  0  0  0
 19 24  2  0  0  0  0
 19 20  1  0  0  0  0
 20 21  2  0  0  0  0
 20 44  1  0  0  0  0
 21 22  1  0  0  0  0
 21 45  1  0  0  0  0
 22 23  2  0  0  0  0
 22 46  1  0  0  0  0
 23 24  1  0  0  0  0
 23 47  1  0  0  0  0
M  CHG  1   2   1
M  CHG  1  18   1
M  END
> <s_m_source_file>
AV-unprocessed.smi

> <i_m_source_file_index>
1669

> <i_lp_mmshare_version>
43012

> <i_f3d_flags>
0

> <s_epik_input>
W2NIXTFbY0hdW2NIXVtjSF1bY0hdYzFbQ0gyXU4oW0NIM10pW0NIMl1bQ0BIXShbT0hdKVtDSDJdbihjKG4yKVtDSDJdW09IXSljKGMyMylbY0hdW2NIXVtjSF1bY0hdMw==

> <s_epik_cmdline>
J2VwaWtfcHl0aG9uJywgJy1waCcsICc3LjAnLCAnLXRuJywgJzgnLCAnLW1hJywgJzIwMCcsICctbWV0YWxfYmluZGluZycsICctaW1hZScsICc8aW5maWxlLm1hZT4nLCAnLW9tYWUnLCAnPG91dGZpbGUubWFlPic=

> <r_epik_Ionization_Penalty>
1.57484

> <r_epik_Ionization_Penalty_Charging>
1.57398

> <r_epik_Ionization_Penalty_Neutral>
0.000858917

> <r_epik_State_Penalty>
1.64997

> <r_epik_Charging_Adjusted_Penalty>
3.22395

> <i_epik_Tot_Q>
2

> <i_epik_Tot_abs_Q>
2

> <r_epik_Metal_State_Penalty>
5.70481

> <b_epik_Metal_Only>
0

> <s_lp_Force_Field>
OPLS_2005

> <r_lp_Energy>
25.6323

> <b_lp_Chiralities_Consistent>
1

> <s_lp_Variant>
AV-unprocessed.smi:1669-9

> <Gold.Version>
5.8.1

> <Gold.Id.Protein>
6NUR|6NUR_protein|mol2

> <Gold.PLP.Fitness>
50.5097

> <Gold.PLP.PLP>
-40.7550

> <Gold.PLP.part.hbond>
-5.1745

> <Gold.PLP.part.metal>
0.0000

> <Gold.PLP.part.buried>
2.9131

> <Gold.PLP.part.nonpolar>
-37.8895

> <Gold.PLP.part.repulsive>
0.0000

> <Gold.PLP.ligand.clash>
0.0000

> <Gold.PLP.ligand.torsion>
1.3167

> <Gold.PLP.Chemscore.Hbond>
4.0000

> <Gold.PLP.Chemscore.CHOScore>
0.0000

> <Gold.PLP.Chemscore.Metal>
0.0000

> <Gold.Chemscore.Hbonds>
donor molecule, donor type, donor heavy atom, donor atom, acceptor molecule, acceptor atom, score
      L1  H     2    48       P1 10175  0.92
      L1  H    17    43       P1 10957  0.24

> <Gold.PLP.Chemscore.Internal.Correction>
0.3882

> <Gold.Rescore>
     Score         DG    S(hbond)    S(metal)    S(lipo)     H(rot)  DE(clash)    DE(int)     intcor
     16.36     -19.41       2.73        0.00     112.73       3.27       1.94       1.11       ----

> <Gold.Chemscore.Fitness>
16.3599

> <Gold.Chemscore.DG>
-19.4067

> <Gold.Chemscore.ZeroCoef>
-5.4800

> <Gold.Chemscore.Hbond>
2.7286

> <Gold.Chemscore.Metal>
0.0000

> <Gold.Chemscore.Lipo>
112.7260

> <Gold.Chemscore.Internal_Hbond>
0.0000

> <Gold.Chemscore.DEClash>
1.9375

> <Gold.Chemscore.DEInternal>
1.1093

> <Gold.Chemscore.Rot>
3.2718

> <Gold.Chemscore.Internal.Correction>
   9.000000E+99

> <Gold.Chemscore.Hbonds>
donor molecule, donor type, donor heavy atom, donor atom, acceptor molecule, acceptor atom, score
      L1  H     2    48       P1 10175  0.45
      L1  H    17    43       P1 10957  0.25

> <Gold.Chemscore.Hbond.Weighted>
-9.1136

> <Gold.Chemscore.Metal.Weighted>
-0.0000

> <Gold.Chemscore.Lipo.Weighted>
-13.1889

> <Gold.Chemscore.Internal_Hbond.Weighted>
0.0000

> <Gold.Chemscore.DEClash.Weighted>
1.9375

> <Gold.Chemscore.DEInternal.Weighted>
1.1093

> <Gold.Chemscore.Rot.Weighted>
8.3759

> <Gold.Chemscore.Internal.Correction.Weighted>
   9.000000E+99

> <Gold.Protein.RotatedTorsions>
[ 6907 6896 6895 6894 ] final   74.12 input  -60.11 | X-H torsion
[ 7974 7965 7964 7962 ] final  129.41 input  175.53 | X-H torsion
[ 8008 7997 7996 7995 ] final    5.66 input   59.86 | X-H torsion
[ 10167 10162 10161 10158 ] final  133.39 input  -65.29 | X-H torsion
[ 10718 10713 10712 10709 ] final  -62.04 input   66.30 | X-H torsion
[ 10763 10752 10751 10750 ] final  -57.72 input  -60.55 | X-H torsion
[ 11005 11000 10999 10996 ] final   43.51 input  -57.11 | X-H torsion

> <Gold.Protein.ActiveResidues>
 VAL166  LYS551  ARG553  GLY616  TRP617  ASP618  TYR619  PRO620  LYS621  CYS622 
 ASP623  PHE694  ASN695  SER759  ASP760  ASP761  ALA762  ILE779  LEU786  VAL792 
 PHE793  MET794  SER795  GLU796  ALA797  LYS798  CYS799  TRP800  GLU811  SER814 

> <Gold.Protein.RotatedAtoms>
  152.4959  134.4319  159.9514 H   0  0  0  0  0  0  0  0  0  0  0  0  # atno 6907 bound_to 6896
  151.4298  133.3667  159.2775 H   0  0  0  0  0  0  0  0  0  0  0  0  # atno 6908 bound_to 6896
  150.9163  134.8603  159.7518 H   0  0  0  0  0  0  0  0  0  0  0  0  # atno 6909 bound_to 6896
  145.0289  139.4064  143.5160 H   0  0  0  0  0  0  0  0  0  0  0  0  # atno 7974 bound_to 7965
  154.7312  140.2731  155.6454 H   0  0  0  0  0  0  0  0  0  0  0  0  # atno 8008 bound_to 7997
  156.2850  140.2715  156.1938 H   0  0  0  0  0  0  0  0  0  0  0  0  # atno 8009 bound_to 7997
  155.0379  140.0371  157.2488 H   0  0  0  0  0  0  0  0  0  0  0  0  # atno 8010 bound_to 7997
  139.5299  144.6618  151.4989 H   0  0  0  0  0  0  0  0  0  0  0  0  # atno 10167 bound_to 10162
  156.0881  130.4205  150.1079 H   0  0  0  0  0  0  0  0  0  0  0  0  # atno 10718 bound_to 10713
  154.2268  135.6368  153.5162 H   0  0  0  0  0  0  0  0  0  0  0  0  # atno 10763 bound_to 10752
  152.9957  135.5510  154.6055 H   0  0  0  0  0  0  0  0  0  0  0  0  # atno 10764 bound_to 10752
  154.5529  135.2903  155.0966 H   0  0  0  0  0  0  0  0  0  0  0  0  # atno 10765 bound_to 10752
  140.1639  134.4307  155.8300 H   0  0  0  0  0  0  0  0  0  0  0  0  # atno 11005 bound_to 11000
  146.3496  139.9828  142.8694 LP  0  0  0  0  0  0  0  0  0  0  0  0  # atno 17320 bound_to 7965
  145.1796  140.9761  143.4274 LP  0  0  0  0  0  0  0  0  0  0  0  0  # atno 17321 bound_to 7965
  140.6470  143.8775  150.6747 LP  0  0  0  0  0  0  0  0  0  0  0  0  # atno 17342 bound_to 10162
  140.2127  143.3870  152.1705 LP  0  0  0  0  0  0  0  0  0  0  0  0  # atno 17343 bound_to 10162
  156.9095  130.9647  151.3565 LP  0  0  0  0  0  0  0  0  0  0  0  0  # atno 17370 bound_to 10713
  157.6022  130.8521  149.8820 LP  0  0  0  0  0  0  0  0  0  0  0  0  # atno 17371 bound_to 10713
  141.2212  133.6925  156.7642 LP  0  0  0  0  0  0  0  0  0  0  0  0  # atno 17394 bound_to 11000
  140.2457  134.8579  157.3618 LP  0  0  0  0  0  0  0  0  0  0  0  0  # atno 17395 bound_to 11000

$$$$
