AV-unprocessed.smi:2252|AV-procd|sdf|9114|dock1
  -GOLD-   2272012323D 1   1.00000     0.00000
 Structure written by MMmdl.
 44 46  0  0  0  0  0  0  0  0  1 V2000
  144.5675  135.9798  150.8180 C   0  0  0  0  0  0  0  0  0  0  0  0
  145.5483  135.0833  151.3996 N   0  0  0  0  0  0  0  0  0  0  0  0
  146.1204  133.9825  150.7757 C   0  0  0  0  0  0  0  0  0  0  0  0
  146.9962  133.4292  151.6785 C   0  0  0  0  0  0  0  0  0  0  0  0
  146.9761  134.1703  152.8552 N   0  0  0  0  0  0  0  0  0  0  0  0
  146.0899  135.1362  152.6320 C   0  0  0  0  0  0  0  0  0  0  0  0
  145.7522  136.2012  153.6276 C   0  0  0  0  0  0  0  0  0  0  0  0
  146.9376  136.5425  154.5453 C   0  0  0  0  0  0  0  0  0  0  0  0
  147.7606  137.6032  153.9786 N   0  0  0  0  0  0  0  0  0  0  0  0
  148.2685  138.6341  154.6722 C   0  0  0  0  0  0  0  0  0  0  0  0
  148.0778  138.7927  155.8787 O   0  0  0  0  0  0  0  0  0  0  0  0
  149.1537  139.6213  153.8900 C   0  0  1  0  0  0  0  0  0  0  0  0
  148.5693  141.0475  153.9938 C   0  0  0  0  0  0  0  0  0  0  0  0
  147.7559  141.4655  155.2026 C   0  0  0  0  0  0  0  0  0  0  0  0
  147.0795  141.2883  153.8703 C   0  0  0  0  0  0  0  0  0  0  0  0
  150.5687  139.5988  154.3379 N   0  0  0  0  0  0  0  0  0  0  0  0
  150.7935  139.9999  155.7262 C   0  0  0  0  0  0  0  0  0  0  0  0
  152.2271  139.5511  156.0124 C   0  0  0  0  0  0  0  0  0  0  0  0
  152.4879  138.4227  155.0196 C   0  0  0  0  0  0  0  0  0  0  0  0
  151.1768  138.2745  154.2481 C   0  0  0  0  0  0  0  0  0  0  0  0
  144.4309  135.7536  149.7600 H   0  0  0  0  0  0  0  0  0  0  0  0
  144.9029  137.0127  150.9150 H   0  0  0  0  0  0  0  0  0  0  0  0
  143.6124  135.8626  151.3305 H   0  0  0  0  0  0  0  0  0  0  0  0
  145.8668  133.6933  149.7663 H   0  0  0  0  0  0  0  0  0  0  0  0
  147.6348  132.5646  151.5720 H   0  0  0  0  0  0  0  0  0  0  0  0
  145.4038  137.0902  153.1009 H   0  0  0  0  0  0  0  0  0  0  0  0
  144.9087  135.8577  154.2278 H   0  0  0  0  0  0  0  0  0  0  0  0
  146.5728  136.8753  155.5173 H   0  0  0  0  0  0  0  0  0  0  0  0
  147.5481  135.6569  154.7297 H   0  0  0  0  0  0  0  0  0  0  0  0
  147.9709  137.5431  152.9928 H   0  0  0  0  0  0  0  0  0  0  0  0
  149.1222  139.3141  152.8424 H   0  0  0  0  0  0  0  0  0  0  0  0
  149.2191  141.8210  153.5874 H   0  0  0  0  0  0  0  0  0  0  0  0
  147.5551  140.7177  155.9675 H   0  0  0  0  0  0  0  0  0  0  0  0
  147.8894  142.4813  155.5684 H   0  0  0  0  0  0  0  0  0  0  0  0
  146.7604  142.1853  153.3436 H   0  0  0  0  0  0  0  0  0  0  0  0
  146.4342  140.4211  153.7449 H   0  0  0  0  0  0  0  0  0  0  0  0
  150.6665  141.0720  155.8809 H   0  0  0  0  0  0  0  0  0  0  0  0
  150.0993  139.4741  156.3847 H   0  0  0  0  0  0  0  0  0  0  0  0
  152.9268  140.3701  155.8401 H   0  0  0  0  0  0  0  0  0  0  0  0
  152.3446  139.2264  157.0467 H   0  0  0  0  0  0  0  0  0  0  0  0
  153.2977  138.7000  154.3434 H   0  0  0  0  0  0  0  0  0  0  0  0
  152.7710  137.4927  155.5138 H   0  0  0  0  0  0  0  0  0  0  0  0
  150.5409  137.5311  154.7327 H   0  0  0  0  0  0  0  0  0  0  0  0
  151.3425  137.9620  153.2167 H   0  0  0  0  0  0  0  0  0  0  0  0
  1  2  1  0  0  0  0
  1 21  1  0  0  0  0
  1 22  1  0  0  0  0
  1 23  1  0  0  0  0
  2  6  1  0  0  0  0
  2  3  1  0  0  0  0
  3  4  2  0  0  0  0
  3 24  1  0  0  0  0
  4  5  1  0  0  0  0
  4 25  1  0  0  0  0
  5  6  2  0  0  0  0
  6  7  1  0  0  0  0
  7  8  1  0  0  0  0
  7 26  1  0  0  0  0
  7 27  1  0  0  0  0
  8  9  1  0  0  0  0
  8 28  1  0  0  0  0
  8 29  1  0  0  0  0
  9 10  1  0  0  0  0
  9 30  1  0  0  0  0
 10 11  2  0  0  0  0
 10 12  1  0  0  0  0
 12 13  1  0  0  0  0
 12 16  1  0  0  0  0
 12 31  1  0  0  0  0
 13 15  1  0  0  0  0
 13 14  1  0  0  0  0
 13 32  1  0  0  0  0
 14 15  1  0  0  0  0
 14 33  1  0  0  0  0
 14 34  1  0  0  0  0
 15 35  1  0  0  0  0
 15 36  1  0  0  0  0
 16 20  1  0  0  0  0
 16 17  1  0  0  0  0
 17 18  1  0  0  0  0
 17 37  1  0  0  0  0
 17 38  1  0  0  0  0
 18 19  1  0  0  0  0
 18 39  1  0  0  0  0
 18 40  1  0  0  0  0
 19 20  1  0  0  0  0
 19 41  1  0  0  0  0
 19 42  1  0  0  0  0
 20 43  1  0  0  0  0
 20 44  1  0  0  0  0
M  END
> <s_m_source_file>
AV-unprocessed.smi

> <i_m_source_file_index>
2252

> <i_lp_mmshare_version>
43012

> <i_f3d_flags>
0

> <s_epik_input>
W0NIM11uMVtjSF1bY0hdbmMxW0NIMl1bQ0gyXVtOSF1DKD1PKVtDQEhdKFtDSF0yW0NIMl1bQ0gyXTIpTjNbQ0gyXVtDSDJdW0NIMl1bQ0gyXTM=

> <s_epik_cmdline>
J2VwaWtfcHl0aG9uJywgJy1waCcsICc3LjAnLCAnLXRuJywgJzgnLCAnLW1hJywgJzIwMCcsICctbWV0YWxfYmluZGluZycsICctaW1hZScsICc8aW5maWxlLm1hZT4nLCAnLW9tYWUnLCAnPG91dGZpbGUubWFlPic=

> <r_epik_Ionization_Penalty>
3.7689

> <r_epik_Ionization_Penalty_Charging>
1.29411

> <r_epik_Ionization_Penalty_Neutral>
2.4748

> <r_epik_State_Penalty>
3.85943

> <r_epik_Charging_Adjusted_Penalty>
5.15353

> <i_epik_Tot_Q>
0

> <i_epik_Tot_abs_Q>
0

> <r_epik_Metal_State_Penalty>
2.88358

> <b_epik_Metal_Only>
1

> <s_lp_Force_Field>
OPLS_2005

> <r_lp_Energy>
29.995

> <b_lp_Chiralities_Consistent>
1

> <s_lp_Variant>
AV-unprocessed.smi:2252-12

> <Gold.Version>
5.8.1

> <Gold.Id.Protein>
6NUR|6NUR_protein|mol2

> <Gold.PLP.Fitness>
42.0536

> <Gold.PLP.PLP>
-32.7289

> <Gold.PLP.part.hbond>
-2.0000

> <Gold.PLP.part.metal>
0.0000

> <Gold.PLP.part.buried>
1.1739

> <Gold.PLP.part.nonpolar>
-31.9782

> <Gold.PLP.part.repulsive>
0.9856

> <Gold.PLP.ligand.clash>
0.0000

> <Gold.PLP.ligand.torsion>
1.2805

> <Gold.PLP.Chemscore.Hbond>
1.7520

> <Gold.PLP.Chemscore.CHOScore>
1.7977

> <Gold.PLP.Chemscore.Metal>
0.0000

> <Gold.Chemscore.Hbonds>
donor molecule, donor type, donor heavy atom, donor atom, acceptor molecule, acceptor atom, score
      L1  H     9    30       P1  7948  0.70
      P1  H  7989  7998       L1    16  1.00
      L1  C     3    24       P1  7921  0.92
      L1  C     4    25       P1 10747  1.00

> <Gold.PLP.Chemscore.Internal.Correction>
1.2367

> <Gold.Rescore>
     Score         DG    S(hbond)    S(metal)    S(lipo)     H(rot)  DE(clash)    DE(int)     intcor
      9.07     -13.12       1.09        0.00      74.91       1.86       0.18       3.88       ----

> <Gold.Chemscore.Fitness>
9.0672

> <Gold.Chemscore.DG>
-13.1208

> <Gold.Chemscore.ZeroCoef>
-5.4800

> <Gold.Chemscore.Hbond>
1.0905

> <Gold.Chemscore.Metal>
0.0000

> <Gold.Chemscore.Lipo>
74.9143

> <Gold.Chemscore.Internal_Hbond>
0.0000

> <Gold.Chemscore.DEClash>
0.1785

> <Gold.Chemscore.DEInternal>
3.8751

> <Gold.Chemscore.Rot>
1.8619

> <Gold.Chemscore.Internal.Correction>
   9.000000E+99

> <Gold.Chemscore.Hbonds>
donor molecule, donor type, donor heavy atom, donor atom, acceptor molecule, acceptor atom, score
      L1  H     9    30       P1  7948  0.68
      P1  H  7989  7998       L1    16  0.16

> <Gold.Chemscore.Hbond.Weighted>
-3.6424

> <Gold.Chemscore.Metal.Weighted>
-0.0000

> <Gold.Chemscore.Lipo.Weighted>
-8.7650

> <Gold.Chemscore.Internal_Hbond.Weighted>
0.0000

> <Gold.Chemscore.DEClash.Weighted>
0.1785

> <Gold.Chemscore.DEInternal.Weighted>
3.8751

> <Gold.Chemscore.Rot.Weighted>
4.7665

> <Gold.Chemscore.Internal.Correction.Weighted>
   9.000000E+99

> <Gold.Protein.RotatedTorsions>
[ 6907 6896 6895 6894 ] final  -39.18 input  -60.11 | X-H torsion
[ 7974 7965 7964 7962 ] final -149.64 input  175.53 | X-H torsion
[ 8008 7997 7996 7995 ] final  123.82 input   59.86 | X-H torsion
[ 10167 10162 10161 10158 ] final   32.13 input  -65.29 | X-H torsion
[ 10718 10713 10712 10709 ] final  -90.61 input   66.30 | X-H torsion
[ 10763 10752 10751 10750 ] final   60.63 input  -60.55 | X-H torsion
[ 11005 11000 10999 10996 ] final -169.70 input  -57.11 | X-H torsion

> <Gold.Protein.ActiveResidues>
 VAL166  LYS551  ARG553  GLY616  TRP617  ASP618  TYR619  PRO620  LYS621  CYS622 
 ASP623  PHE694  ASN695  SER759  ASP760  ASP761  ALA762  ILE779  LEU786  VAL792 
 PHE793  MET794  SER795  GLU796  ALA797  LYS798  CYS799  TRP800  GLU811  SER814 

> <Gold.Protein.RotatedAtoms>
  150.9935  134.9264  159.7912 H   0  0  0  0  0  0  0  0  0  0  0  0  # atno 6907 bound_to 6896
  152.5258  134.3250  159.9172 H   0  0  0  0  0  0  0  0  0  0  0  0  # atno 6908 bound_to 6896
  151.3255  133.3980  159.2692 H   0  0  0  0  0  0  0  0  0  0  0  0  # atno 6909 bound_to 6896
  144.7955  140.5037  143.5743 H   0  0  0  0  0  0  0  0  0  0  0  0  # atno 7974 bound_to 7965
  156.2780  140.2754  156.1689 H   0  0  0  0  0  0  0  0  0  0  0  0  # atno 8008 bound_to 7997
  155.0675  140.0387  157.2615 H   0  0  0  0  0  0  0  0  0  0  0  0  # atno 8009 bound_to 7997
  154.7067  140.2660  155.6673 H   0  0  0  0  0  0  0  0  0  0  0  0  # atno 8010 bound_to 7997
  140.4526  144.1025  150.6195 H   0  0  0  0  0  0  0  0  0  0  0  0  # atno 10167 bound_to 10162
  155.9989  130.4916  150.5349 H   0  0  0  0  0  0  0  0  0  0  0  0  # atno 10718 bound_to 10713
  152.9926  135.5529  154.5904 H   0  0  0  0  0  0  0  0  0  0  0  0  # atno 10763 bound_to 10752
  154.5267  135.2811  155.1218 H   0  0  0  0  0  0  0  0  0  0  0  0  # atno 10764 bound_to 10752
  154.2550  135.6392  153.5306 H   0  0  0  0  0  0  0  0  0  0  0  0  # atno 10765 bound_to 10752
  140.5278  134.5646  157.5066 H   0  0  0  0  0  0  0  0  0  0  0  0  # atno 11005 bound_to 11000
  145.5685  139.1482  143.3302 LP  0  0  0  0  0  0  0  0  0  0  0  0  # atno 17320 bound_to 7965
  146.2222  140.5818  142.9012 LP  0  0  0  0  0  0  0  0  0  0  0  0  # atno 17321 bound_to 7965
  140.4189  143.2621  151.9741 LP  0  0  0  0  0  0  0  0  0  0  0  0  # atno 17342 bound_to 10162
  139.4798  144.5849  151.7870 LP  0  0  0  0  0  0  0  0  0  0  0  0  # atno 17343 bound_to 10162
  157.3293  131.0696  151.1873 LP  0  0  0  0  0  0  0  0  0  0  0  0  # atno 17370 bound_to 10713
  157.2759  130.6726  149.6042 LP  0  0  0  0  0  0  0  0  0  0  0  0  # atno 17371 bound_to 10713
  139.9570  134.7517  156.0319 LP  0  0  0  0  0  0  0  0  0  0  0  0  # atno 17394 bound_to 11000
  141.1298  133.6589  156.3434 LP  0  0  0  0  0  0  0  0  0  0  0  0  # atno 17395 bound_to 11000

$$$$
