AV-unprocessed.smi:793|AV-procd|sdf|3755|dock4
  -GOLD-   22720 1183D 1   1.00000     0.00000
 Structure written by MMmdl.
 38 39  0  0  0  0  0  0  0  0  2 V2000
  152.4050  137.7962  159.8101 C   0  0  0  0  0  0  0  0  0  0  0  0
  151.9308  138.1476  158.3944 C   0  0  0  0  0  0  0  0  0  0  0  0
  150.3956  138.1994  158.2772 C   0  0  1  0  0  0  0  0  0  0  0  0
  150.0743  138.4969  156.9192 O   0  0  0  0  0  0  0  0  0  0  0  0
  150.8149  139.5525  156.3105 C   0  0  0  0  0  0  0  0  0  0  0  0
  150.3025  140.9067  156.8125 C   0  0  0  0  0  0  0  0  0  0  0  0
  149.0505  141.2122  155.9797 C   0  0  0  0  0  0  0  0  0  0  0  0
  149.1135  140.2972  154.7474 C   0  0  0  0  0  0  0  0  0  0  0  0
  150.4620  139.5753  154.8236 C   0  0  0  0  0  0  0  0  0  0  0  0
  149.7502  136.8687  158.7007 C   0  0  0  0  0  0  0  0  0  0  0  0
  150.0060  135.8406  158.0734 O   0  0  0  0  0  0  0  0  0  0  0  0
  148.9284  136.9342  159.7640 N   0  0  0  0  0  0  0  0  0  0  0  0
  148.1905  135.8943  160.3955 C   0  0  0  0  0  0  0  0  0  0  0  0
  147.9868  134.6135  159.8229 C   0  0  0  0  0  0  0  0  0  0  0  0
  147.2734  133.6335  160.4186 N   0  0  0  0  0  0  0  0  0  0  0  0
  146.7210  133.8959  161.6214 C   0  0  0  0  0  0  0  0  0  0  0  0
  146.8429  135.1374  162.2740 C   0  0  0  0  0  0  0  0  0  0  0  0
  147.5864  136.1566  161.6482 C   0  0  0  0  0  0  0  0  0  0  0  0
  147.7117  137.3725  162.2618 O   0  5  0  0  0  0  0  0  0  0  0  0
  153.4936  137.7633  159.8580 H   0  0  0  0  0  0  0  0  0  0  0  0
  152.0286  136.8212  160.1200 H   0  0  0  0  0  0  0  0  0  0  0  0
  152.0627  138.5341  160.5362 H   0  0  0  0  0  0  0  0  0  0  0  0
  152.3602  139.1061  158.0994 H   0  0  0  0  0  0  0  0  0  0  0  0
  152.3289  137.4062  157.7000 H   0  0  0  0  0  0  0  0  0  0  0  0
  150.0292  139.0021  158.9208 H   0  0  0  0  0  0  0  0  0  0  0  0
  151.8909  139.4373  156.4530 H   0  0  0  0  0  0  0  0  0  0  0  0
  150.1031  140.9197  157.8840 H   0  0  0  0  0  0  0  0  0  0  0  0
  151.0577  141.6686  156.6158 H   0  0  0  0  0  0  0  0  0  0  0  0
  148.1487  140.9988  156.5551 H   0  0  0  0  0  0  0  0  0  0  0  0
  149.0162  142.2654  155.6992 H   0  0  0  0  0  0  0  0  0  0  0  0
  148.3034  139.5684  154.7932 H   0  0  0  0  0  0  0  0  0  0  0  0
  149.0024  140.8508  153.8146 H   0  0  0  0  0  0  0  0  0  0  0  0
  151.2131  140.1528  154.2831 H   0  0  0  0  0  0  0  0  0  0  0  0
  150.4331  138.5787  154.3814 H   0  0  0  0  0  0  0  0  0  0  0  0
  148.8746  137.8297  160.2280 H   0  0  0  0  0  0  0  0  0  0  0  0
  148.3791  134.3522  158.8527 H   0  0  0  0  0  0  0  0  0  0  0  0
  146.1583  133.0936  162.0751 H   0  0  0  0  0  0  0  0  0  0  0  0
  146.3746  135.3014  163.2335 H   0  0  0  0  0  0  0  0  0  0  0  0
  1  2  1  0  0  0  0
  1 20  1  0  0  0  0
  1 21  1  0  0  0  0
  1 22  1  0  0  0  0
  2  3  1  0  0  0  0
  2 23  1  0  0  0  0
  2 24  1  0  0  0  0
  3  4  1  0  0  0  0
  3 10  1  0  0  0  0
  3 25  1  0  0  0  0
  4  5  1  0  0  0  0
  5  9  1  0  0  0  0
  5  6  1  0  0  0  0
  5 26  1  0  0  0  0
  6  7  1  0  0  0  0
  6 27  1  0  0  0  0
  6 28  1  0  0  0  0
  7  8  1  0  0  0  0
  7 29  1  0  0  0  0
  7 30  1  0  0  0  0
  8  9  1  0  0  0  0
  8 31  1  0  0  0  0
  8 32  1  0  0  0  0
  9 33  1  0  0  0  0
  9 34  1  0  0  0  0
 10 11  2  0  0  0  0
 10 12  1  0  0  0  0
 12 35  1  0  0  0  0
 12 13  1  0  0  0  0
 13 18  1  0  0  0  0
 13 14  2  0  0  0  0
 14 36  1  0  0  0  0
 14 15  1  0  0  0  0
 15 16  2  0  0  0  0
 16 37  1  0  0  0  0
 16 17  1  0  0  0  0
 17 18  2  0  0  0  0
 17 38  1  0  0  0  0
 18 19  1  0  0  0  0
M  CHG  1  19  -1
M  END
> <s_m_source_file>
AV-unprocessed.smi

> <i_m_source_file_index>
793

> <i_lp_mmshare_version>
43012

> <i_f3d_flags>
0

> <s_epik_input>
W0NIMl0xW0NIMl1bQ0gyXVtDSDJdW0NIXTFPW0NAQEhdKFtDSDJdW0NIM10pQyg9TylbTkhdYzJbY0hdbltjSF1bY0hdYzJbT0hd

> <s_epik_cmdline>
J2VwaWtfcHl0aG9uJywgJy1waCcsICc3LjAnLCAnLXRuJywgJzgnLCAnLW1hJywgJzIwMCcsICctbWV0YWxfYmluZGluZycsICctaW1hZScsICc8aW5maWxlLm1hZT4nLCAnLW9tYWUnLCAnPG91dGZpbGUubWFlPic=

> <r_lp_tautomer_probability>
1

> <r_epik_Ionization_Penalty>
5.91611

> <r_epik_Ionization_Penalty_Charging>
1.01889

> <r_epik_Ionization_Penalty_Neutral>
4.89722

> <r_epik_State_Penalty>
4.89706

> <r_epik_Charging_Adjusted_Penalty>
5.91595

> <i_epik_Tot_Q>
-1

> <i_epik_Tot_abs_Q>
1

> <r_epik_Metal_State_Penalty>
1.05012

> <b_epik_Metal_Only>
1

> <s_lp_Force_Field>
OPLS_2005

> <r_lp_Energy>
29.623

> <b_lp_Chiralities_Consistent>
1

> <s_lp_Variant>
AV-unprocessed.smi:793-4

> <Gold.Version>
5.8.1

> <Gold.Id.Protein>
6NUR|6NUR_protein|mol2

> <Gold.PLP.Fitness>
40.9465

> <Gold.PLP.PLP>
-30.3794

> <Gold.PLP.part.hbond>
-2.9735

> <Gold.PLP.part.metal>
0.0000

> <Gold.PLP.part.buried>
-3.2249

> <Gold.PLP.part.nonpolar>
-24.6179

> <Gold.PLP.part.repulsive>
0.2290

> <Gold.PLP.ligand.clash>
0.0068

> <Gold.PLP.ligand.torsion>
0.2139

> <Gold.PLP.Chemscore.Hbond>
3.6480

> <Gold.PLP.Chemscore.CHOScore>
0.0000

> <Gold.PLP.Chemscore.Metal>
0.0000

> <Gold.Chemscore.Hbonds>
donor molecule, donor type, donor heavy atom, donor atom, acceptor molecule, acceptor atom, score
      P1  H  6896  6908       L1    11  0.92
      P1  H  6931  6943       L1    19  1.70
      P1  H  6934  6947       L1    19  0.64

> <Gold.PLP.Chemscore.Internal.Correction>
0.0577

> <Gold.Rescore>
     Score         DG    S(hbond)    S(metal)    S(lipo)     H(rot)  DE(clash)    DE(int)     intcor
     15.87     -17.30       2.07        0.00      74.54       1.49       0.04       1.38       ----

> <Gold.Chemscore.Fitness>
15.8746

> <Gold.Chemscore.DG>
-17.3040

> <Gold.Chemscore.ZeroCoef>
-5.4800

> <Gold.Chemscore.Hbond>
2.0735

> <Gold.Chemscore.Metal>
0.0000

> <Gold.Chemscore.Lipo>
74.5403

> <Gold.Chemscore.Internal_Hbond>
0.0000

> <Gold.Chemscore.DEClash>
0.0447

> <Gold.Chemscore.DEInternal>
1.3848

> <Gold.Chemscore.Rot>
1.4932

> <Gold.Chemscore.Internal.Correction>
   9.000000E+99

> <Gold.Chemscore.Hbonds>
donor molecule, donor type, donor heavy atom, donor atom, acceptor molecule, acceptor atom, score
      P1  H  6896  6908       L1    11  0.21
      P1  H  6931  6943       L1    19  0.80
      P1  H  6934  6947       L1    19  0.27

> <Gold.Chemscore.Hbond.Weighted>
-6.9255

> <Gold.Chemscore.Metal.Weighted>
-0.0000

> <Gold.Chemscore.Lipo.Weighted>
-8.7212

> <Gold.Chemscore.Internal_Hbond.Weighted>
0.0000

> <Gold.Chemscore.DEClash.Weighted>
0.0447

> <Gold.Chemscore.DEInternal.Weighted>
1.3848

> <Gold.Chemscore.Rot.Weighted>
3.8226

> <Gold.Chemscore.Internal.Correction.Weighted>
   9.000000E+99

> <Gold.Protein.RotatedTorsions>
[ 6907 6896 6895 6894 ] final  175.82 input  -60.11 | X-H torsion
[ 7974 7965 7964 7962 ] final -151.54 input  175.53 | X-H torsion
[ 8008 7997 7996 7995 ] final -158.25 input   59.86 | X-H torsion
[ 10167 10162 10161 10158 ] final  148.40 input  -65.29 | X-H torsion
[ 10718 10713 10712 10709 ] final  -52.37 input   66.30 | X-H torsion
[ 10763 10752 10751 10750 ] final -117.26 input  -60.55 | X-H torsion
[ 11005 11000 10999 10996 ] final  101.56 input  -57.11 | X-H torsion

> <Gold.Protein.ActiveResidues>
 VAL166  LYS551  ARG553  GLY616  TRP617  ASP618  TYR619  PRO620  LYS621  CYS622 
 ASP623  PHE694  ASN695  SER759  ASP760  ASP761  ALA762  ILE779  LEU786  VAL792 
 PHE793  MET794  SER795  GLU796  ALA797  LYS798  CYS799  TRP800  GLU811  SER814 

> <Gold.Protein.RotatedAtoms>
  151.7301  133.3317  159.3337 H   0  0  0  0  0  0  0  0  0  0  0  0  # atno 6907 bound_to 6896
  150.7616  134.6371  159.6227 H   0  0  0  0  0  0  0  0  0  0  0  0  # atno 6908 bound_to 6896
  152.3597  134.6891  160.0262 H   0  0  0  0  0  0  0  0  0  0  0  0  # atno 6909 bound_to 6896
  144.7844  140.4783  143.5816 H   0  0  0  0  0  0  0  0  0  0  0  0  # atno 7974 bound_to 7965
  155.7448  140.0819  157.2229 H   0  0  0  0  0  0  0  0  0  0  0  0  # atno 8008 bound_to 7997
  154.4018  140.1571  156.2712 H   0  0  0  0  0  0  0  0  0  0  0  0  # atno 8009 bound_to 7997
  155.8986  140.3411  155.6012 H   0  0  0  0  0  0  0  0  0  0  0  0  # atno 8010 bound_to 7997
  139.4875  144.5682  151.7105 H   0  0  0  0  0  0  0  0  0  0  0  0  # atno 10167 bound_to 10162
  156.1627  130.4149  149.9768 H   0  0  0  0  0  0  0  0  0  0  0  0  # atno 10718 bound_to 10713
  154.8549  135.4316  154.1952 H   0  0  0  0  0  0  0  0  0  0  0  0  # atno 10763 bound_to 10752
  153.3011  135.6969  153.7208 H   0  0  0  0  0  0  0  0  0  0  0  0  # atno 10764 bound_to 10752
  153.6338  135.3480  155.3024 H   0  0  0  0  0  0  0  0  0  0  0  0  # atno 10765 bound_to 10752
  139.8774  134.9188  156.4925 H   0  0  0  0  0  0  0  0  0  0  0  0  # atno 11005 bound_to 11000
  145.5962  139.1500  143.3155 LP  0  0  0  0  0  0  0  0  0  0  0  0  # atno 17320 bound_to 7965
  146.2068  140.6085  142.9077 LP  0  0  0  0  0  0  0  0  0  0  0  0  # atno 17321 bound_to 7965
  140.5264  144.0799  150.6039 LP  0  0  0  0  0  0  0  0  0  0  0  0  # atno 17342 bound_to 10162
  140.3774  143.2821  152.0209 LP  0  0  0  0  0  0  0  0  0  0  0  0  # atno 17343 bound_to 10162
  156.7592  130.9144  151.3641 LP  0  0  0  0  0  0  0  0  0  0  0  0  # atno 17370 bound_to 10713
  157.6745  130.9081  150.0117 LP  0  0  0  0  0  0  0  0  0  0  0  0  # atno 17371 bound_to 10713
  140.8648  133.8032  155.9303 LP  0  0  0  0  0  0  0  0  0  0  0  0  # atno 17394 bound_to 11000
  140.9013  134.2375  157.5040 LP  0  0  0  0  0  0  0  0  0  0  0  0  # atno 17395 bound_to 11000

$$$$
