AV-unprocessed.smi:2062|AV-procd|sdf|8397|dock4
  -GOLD-   2272011 83D 1   1.00000     0.00000
 Structure written by MMmdl.
 43 44  0  0  0  0  0  0  0  0  2 V2000
  150.6415  141.3898  158.1855 C   0  0  0  0  0  0  0  0  0  0  0  0
  151.1225  141.9133  156.8241 C   0  0  0  0  0  0  0  0  0  0  0  0
  151.0182  143.4467  156.7716 C   0  0  0  0  0  0  0  0  0  0  0  0
  150.3368  141.2424  155.6763 C   0  0  0  0  0  0  0  0  0  0  0  0
  148.9439  141.7515  155.5450 N   0  3  2  0  0  0  0  0  0  0  0  0
  148.0562  141.3432  156.6608 C   0  0  0  0  0  0  0  0  0  0  0  0
  147.5902  139.8856  156.4952 C   0  0  0  0  0  0  0  0  0  0  0  0
  146.9415  139.7382  155.2383 O   0  0  0  0  0  0  0  0  0  0  0  0
  147.8099  140.0085  154.1419 C   0  0  1  0  0  0  0  0  0  0  0  0
  147.0387  139.7459  152.8358 C   0  0  0  0  0  0  0  0  0  0  0  0
  147.1093  138.3454  152.4324 N   0  0  0  0  0  0  0  0  0  0  0  0
  146.0589  137.5157  152.3576 C   0  0  0  0  0  0  0  0  0  0  0  0
  144.9077  137.8568  152.6314 O   0  0  0  0  0  0  0  0  0  0  0  0
  146.4318  136.2908  151.9481 N   0  0  0  0  0  0  0  0  0  0  0  0
  145.6103  135.1568  151.7137 C   0  0  0  0  0  0  0  0  0  0  0  0
  144.2732  135.1705  151.7648 N   0  0  0  0  0  0  0  0  0  0  0  0
  143.7252  133.9156  151.4868 C   0  0  0  0  0  0  0  0  0  0  0  0
  144.6664  132.9520  151.2225 C   0  0  0  0  0  0  0  0  0  0  0  0
  146.2882  133.5855  151.3125 S   0  0  0  0  0  0  0  0  0  0  0  0
  148.2934  141.4722  154.2384 C   0  0  0  0  0  0  0  0  0  0  0  0
  149.5900  141.6249  158.3536 H   0  0  0  0  0  0  0  0  0  0  0  0
  151.2151  141.8306  159.0015 H   0  0  0  0  0  0  0  0  0  0  0  0
  150.7561  140.3077  158.2535 H   0  0  0  0  0  0  0  0  0  0  0  0
  152.1755  141.6465  156.7439 H   0  0  0  0  0  0  0  0  0  0  0  0
  149.9819  143.7770  156.8519 H   0  0  0  0  0  0  0  0  0  0  0  0
  151.4237  143.8436  155.8410 H   0  0  0  0  0  0  0  0  0  0  0  0
  151.5757  143.9055  157.5887 H   0  0  0  0  0  0  0  0  0  0  0  0
  150.8690  141.3601  154.7326 H   0  0  0  0  0  0  0  0  0  0  0  0
  150.3104  140.1690  155.8697 H   0  0  0  0  0  0  0  0  0  0  0  0
  148.5500  141.4880  157.6222 H   0  0  0  0  0  0  0  0  0  0  0  0
  147.1853  142.0001  156.6640 H   0  0  0  0  0  0  0  0  0  0  0  0
  148.4259  139.1890  156.5754 H   0  0  0  0  0  0  0  0  0  0  0  0
  146.8856  139.6264  157.2854 H   0  0  0  0  0  0  0  0  0  0  0  0
  148.6670  139.3356  154.1869 H   0  0  0  0  0  0  0  0  0  0  0  0
  145.9895  140.0168  152.9578 H   0  0  0  0  0  0  0  0  0  0  0  0
  147.4288  140.3730  152.0323 H   0  0  0  0  0  0  0  0  0  0  0  0
  148.0211  137.9861  152.1895 H   0  0  0  0  0  0  0  0  0  0  0  0
  147.4167  136.1544  151.7758 H   0  0  0  0  0  0  0  0  0  0  0  0
  142.6518  133.7974  151.4981 H   0  0  0  0  0  0  0  0  0  0  0  0
  144.5045  131.9120  150.9809 H   0  0  0  0  0  0  0  0  0  0  0  0
  147.4376  142.1414  154.1408 H   0  0  0  0  0  0  0  0  0  0  0  0
  148.9572  141.7121  153.4091 H   0  0  0  0  0  0  0  0  0  0  0  0
  149.0280  142.7558  155.6161 H   0  0  0  0  0  0  0  0  0  0  0  0
  1  2  1  0  0  0  0
  1 21  1  0  0  0  0
  1 22  1  0  0  0  0
  1 23  1  0  0  0  0
  2  3  1  0  0  0  0
  2  4  1  0  0  0  0
  2 24  1  0  0  0  0
  3 25  1  0  0  0  0
  3 26  1  0  0  0  0
  3 27  1  0  0  0  0
  4  5  1  0  0  0  0
  4 28  1  0  0  0  0
  4 29  1  0  0  0  0
  5 20  1  0  0  0  0
  5  6  1  0  0  0  0
  5 43  1  0  0  0  0
  6  7  1  0  0  0  0
  6 30  1  0  0  0  0
  6 31  1  0  0  0  0
  7  8  1  0  0  0  0
  7 32  1  0  0  0  0
  7 33  1  0  0  0  0
  8  9  1  0  0  0  0
  9 10  1  0  0  0  0
  9 20  1  0  0  0  0
  9 34  1  0  0  0  0
 10 11  1  0  0  0  0
 10 35  1  0  0  0  0
 10 36  1  0  0  0  0
 11 12  1  0  0  0  0
 11 37  1  0  0  0  0
 12 13  2  0  0  0  0
 12 14  1  0  0  0  0
 14 15  1  0  0  0  0
 14 38  1  0  0  0  0
 15 19  1  0  0  0  0
 15 16  2  0  0  0  0
 16 17  1  0  0  0  0
 17 18  2  0  0  0  0
 17 39  1  0  0  0  0
 18 19  1  0  0  0  0
 18 40  1  0  0  0  0
 20 41  1  0  0  0  0
 20 42  1  0  0  0  0
M  CHG  1   5   1
M  END
> <s_m_source_file>
AV-unprocessed.smi

> <i_m_source_file_index>
2062

> <i_lp_mmshare_version>
43012

> <i_f3d_flags>
0

> <s_epik_input>
W0NIM11bQ0hdKFtDSDNdKVtDSDJdTjFbQ0gyXVtDSDJdT1tDQEhdKFtDSDJdMSlbQ0gyXVtOSF1DKD1PKVtOSF1jMm5bY0hdW2NIXXMy

> <s_epik_cmdline>
J2VwaWtfcHl0aG9uJywgJy1waCcsICc3LjAnLCAnLXRuJywgJzgnLCAnLW1hJywgJzIwMCcsICctbWV0YWxfYmluZGluZycsICctaW1hZScsICc8aW5maWxlLm1hZT4nLCAnLW9tYWUnLCAnPG91dGZpbGUubWFlPic=

> <r_lp_tautomer_probability>
0.999

> <r_epik_Ionization_Penalty>
0.0985527

> <r_epik_Ionization_Penalty_Charging>
0.098413

> <r_epik_Ionization_Penalty_Neutral>
0.000139681

> <r_epik_State_Penalty>
0.0884988

> <r_epik_Charging_Adjusted_Penalty>
0.186912

> <i_epik_Tot_Q>
1

> <i_epik_Tot_abs_Q>
1

> <r_epik_Metal_State_Penalty>
0.141792

> <b_epik_Metal_Only>
0

> <s_lp_Force_Field>
OPLS_2005

> <r_lp_Energy>
17.4544

> <b_lp_Chiralities_Consistent>
1

> <s_lp_Variant>
AV-unprocessed.smi:2062-2

> <Gold.Version>
5.8.1

> <Gold.Id.Protein>
6NUR|6NUR_protein|mol2

> <Gold.PLP.Fitness>
41.7013

> <Gold.PLP.PLP>
-28.1588

> <Gold.PLP.part.hbond>
-3.1736

> <Gold.PLP.part.metal>
0.0000

> <Gold.PLP.part.buried>
-2.2209

> <Gold.PLP.part.nonpolar>
-26.1787

> <Gold.PLP.part.repulsive>
2.7438

> <Gold.PLP.ligand.clash>
0.0000

> <Gold.PLP.ligand.torsion>
0.4964

> <Gold.PLP.Chemscore.Hbond>
3.8393

> <Gold.PLP.Chemscore.CHOScore>
0.9755

> <Gold.PLP.Chemscore.Metal>
0.0000

> <Gold.Chemscore.Hbonds>
donor molecule, donor type, donor heavy atom, donor atom, acceptor molecule, acceptor atom, score
      L1  H     5    43       P1  8028  2.00
      L1  H    11    37       P1  7948  0.82
      L1  H    14    38       P1  7948  0.96
      L1  C    17    39       P1 10186  0.75

> <Gold.PLP.Chemscore.Internal.Correction>
0.0911

> <Gold.Rescore>
     Score         DG    S(hbond)    S(metal)    S(lipo)     H(rot)  DE(clash)    DE(int)     intcor
     15.07     -19.03       2.90        0.00      71.43       1.76       2.04       1.93       ----

> <Gold.Chemscore.Fitness>
15.0653

> <Gold.Chemscore.DG>
-19.0306

> <Gold.Chemscore.ZeroCoef>
-5.4800

> <Gold.Chemscore.Hbond>
2.9036

> <Gold.Chemscore.Metal>
0.0000

> <Gold.Chemscore.Lipo>
71.4347

> <Gold.Chemscore.Internal_Hbond>
0.0000

> <Gold.Chemscore.DEClash>
2.0402

> <Gold.Chemscore.DEInternal>
1.9250

> <Gold.Chemscore.Rot>
1.7599

> <Gold.Chemscore.Internal.Correction>
   9.000000E+99

> <Gold.Chemscore.Hbonds>
donor molecule, donor type, donor heavy atom, donor atom, acceptor molecule, acceptor atom, score
      L1  H     5    43       P1  8028  0.98
      L1  H    11    37       P1  7948  0.79
      L1  H    14    38       P1  7948  0.90

> <Gold.Chemscore.Hbond.Weighted>
-9.6981

> <Gold.Chemscore.Metal.Weighted>
-0.0000

> <Gold.Chemscore.Lipo.Weighted>
-8.3579

> <Gold.Chemscore.Internal_Hbond.Weighted>
0.0000

> <Gold.Chemscore.DEClash.Weighted>
2.0402

> <Gold.Chemscore.DEInternal.Weighted>
1.9250

> <Gold.Chemscore.Rot.Weighted>
4.5054

> <Gold.Chemscore.Internal.Correction.Weighted>
   9.000000E+99

> <Gold.Protein.RotatedTorsions>
[ 6907 6896 6895 6894 ] final -154.07 input  -60.11 | X-H torsion
[ 7974 7965 7964 7962 ] final -136.33 input  175.53 | X-H torsion
[ 8008 7997 7996 7995 ] final   59.23 input   59.86 | X-H torsion
[ 10167 10162 10161 10158 ] final  -50.93 input  -65.29 | X-H torsion
[ 10718 10713 10712 10709 ] final -158.26 input   66.30 | X-H torsion
[ 10763 10752 10751 10750 ] final -172.84 input  -60.55 | X-H torsion
[ 11005 11000 10999 10996 ] final -101.54 input  -57.11 | X-H torsion

> <Gold.Protein.ActiveResidues>
 VAL166  LYS551  ARG553  GLY616  TRP617  ASP618  TYR619  PRO620  LYS621  CYS622 
 ASP623  PHE694  ASN695  SER759  ASP760  ASP761  ALA762  ILE779  LEU786  VAL792 
 PHE793  MET794  SER795  GLU796  ALA797  LYS798  CYS799  TRP800  GLU811  SER814 

> <Gold.Protein.RotatedAtoms>
  151.2520  133.4345  159.2611 H   0  0  0  0  0  0  0  0  0  0  0  0  # atno 6907 bound_to 6896
  151.0609  134.9736  159.8270 H   0  0  0  0  0  0  0  0  0  0  0  0  # atno 6908 bound_to 6896
  152.5398  134.2470  159.8937 H   0  0  0  0  0  0  0  0  0  0  0  0  # atno 6909 bound_to 6896
  144.8936  140.6676  143.5129 H   0  0  0  0  0  0  0  0  0  0  0  0  # atno 7974 bound_to 7965
  155.5628  140.3488  155.4495 H   0  0  0  0  0  0  0  0  0  0  0  0  # atno 8008 bound_to 7997
  156.0502  140.1316  157.0084 H   0  0  0  0  0  0  0  0  0  0  0  0  # atno 8009 bound_to 7997
  154.4431  140.1006  156.6350 H   0  0  0  0  0  0  0  0  0  0  0  0  # atno 8010 bound_to 7997
  140.6613  143.2638  151.4431 H   0  0  0  0  0  0  0  0  0  0  0  0  # atno 10167 bound_to 10162
  156.5517  130.8608  151.2782 H   0  0  0  0  0  0  0  0  0  0  0  0  # atno 10718 bound_to 10713
  154.6147  135.2868  155.0393 H   0  0  0  0  0  0  0  0  0  0  0  0  # atno 10763 bound_to 10752
  154.1610  135.6488  153.4990 H   0  0  0  0  0  0  0  0  0  0  0  0  # atno 10764 bound_to 10752
  153.0210  135.5378  154.6914 H   0  0  0  0  0  0  0  0  0  0  0  0  # atno 10765 bound_to 10752
  141.1227  133.8486  157.1244 H   0  0  0  0  0  0  0  0  0  0  0  0  # atno 11005 bound_to 11000
  145.3739  139.1652  143.4317 LP  0  0  0  0  0  0  0  0  0  0  0  0  # atno 17320 bound_to 7965
  146.3068  140.3813  142.8684 LP  0  0  0  0  0  0  0  0  0  0  0  0  # atno 17321 bound_to 7965
  139.5848  144.1629  152.2015 LP  0  0  0  0  0  0  0  0  0  0  0  0  # atno 17342 bound_to 10162
  140.0965  144.5576  150.7018 LP  0  0  0  0  0  0  0  0  0  0  0  0  # atno 17343 bound_to 10162
  157.7386  130.9817  150.2263 LP  0  0  0  0  0  0  0  0  0  0  0  0  # atno 17370 bound_to 10713
  156.2879  130.3742  149.7870 LP  0  0  0  0  0  0  0  0  0  0  0  0  # atno 17371 bound_to 10713
  140.0197  134.9951  157.0567 LP  0  0  0  0  0  0  0  0  0  0  0  0  # atno 17394 bound_to 11000
  140.4460  134.1632  155.7177 LP  0  0  0  0  0  0  0  0  0  0  0  0  # atno 17395 bound_to 11000

$$$$
