AV-unprocessed.smi:2607|AV-procd|sdf|10201|dock3
  -GOLD-   2272014213D 1   1.00000     0.00000
 Structure written by MMmdl.
 21 22  0  0  0  0  0  0  0  0  2 V2000
  149.8018  140.2892  158.3252 C   0  0  0  0  0  0  0  0  0  0  0  0
  151.1442  140.7574  157.7279 C   0  0  2  0  0  0  0  0  0  0  0  0
  151.5391  142.1557  158.2353 C   0  0  0  0  0  0  0  0  0  0  0  0
  151.3131  143.3343  157.4786 C   0  0  0  0  0  0  0  0  0  0  0  0
  151.6652  144.5585  157.9308 N   0  0  0  0  0  0  0  0  0  0  0  0
  152.2484  144.6104  159.1476 C   0  0  0  0  0  0  0  0  0  0  0  0
  152.4754  143.4466  159.9101 C   0  0  0  0  0  0  0  0  0  0  0  0
  152.1213  142.2238  159.4595 N   0  0  0  0  0  0  0  0  0  0  0  0
  151.0659  140.6807  156.2812 N   0  0  0  0  0  0  0  0  0  0  0  0
  151.9743  139.8465  155.7801 C   0  0  0  0  0  0  0  0  0  0  0  0
  152.0850  139.6633  154.5700 O   0  0  0  0  0  0  0  0  0  0  0  0
  152.6867  139.2856  156.7749 N   0  5  0  0  0  0  0  0  0  0  0  0
  152.2665  139.7345  157.9782 C   0  0  0  0  0  0  0  0  0  0  0  0
  152.6411  139.4210  159.1079 O   0  0  0  0  0  0  0  0  0  0  0  0
  149.8342  140.2640  159.4149 H   0  0  0  0  0  0  0  0  0  0  0  0
  149.5385  139.2866  157.9849 H   0  0  0  0  0  0  0  0  0  0  0  0
  148.9905  140.9579  158.0361 H   0  0  0  0  0  0  0  0  0  0  0  0
  150.8495  143.3121  156.5039 H   0  0  0  0  0  0  0  0  0  0  0  0
  152.5349  145.5843  159.5158 H   0  0  0  0  0  0  0  0  0  0  0  0
  152.9408  143.4973  160.8832 H   0  0  0  0  0  0  0  0  0  0  0  0
  150.4129  141.2188  155.7314 H   0  0  0  0  0  0  0  0  0  0  0  0
  1  2  1  0  0  0  0
  1 15  1  0  0  0  0
  1 16  1  0  0  0  0
  1 17  1  0  0  0  0
  2 13  1  0  0  0  0
  2  3  1  0  0  0  0
  2  9  1  0  0  0  0
  3  8  1  0  0  0  0
  3  4  2  0  0  0  0
  4  5  1  0  0  0  0
  4 18  1  0  0  0  0
  5  6  2  0  0  0  0
  6  7  1  0  0  0  0
  6 19  1  0  0  0  0
  7  8  2  0  0  0  0
  7 20  1  0  0  0  0
  9 10  1  0  0  0  0
  9 21  1  0  0  0  0
 10 11  2  0  0  0  0
 10 12  1  0  0  0  0
 12 13  1  0  0  0  0
 13 14  2  0  0  0  0
M  CHG  1  12  -1
M  END
> <s_m_source_file>
AV-unprocessed.smi

> <i_m_source_file_index>
2607

> <i_lp_mmshare_version>
43012

> <i_f3d_flags>
0

> <s_epik_input>
Tz1DMVtOSF1DKD1PKVtOSF1bQ0BAXTEoW0NIM10pYzJbY0hdbltjSF1bY0hdbjI=

> <s_epik_cmdline>
J2VwaWtfcHl0aG9uJywgJy1waCcsICc3LjAnLCAnLXRuJywgJzgnLCAnLW1hJywgJzIwMCcsICctbWV0YWxfYmluZGluZycsICctaW1hZScsICc8aW5maWxlLm1hZT4nLCAnLW9tYWUnLCAnPG91dGZpbGUubWFlPic=

> <r_lp_tautomer_probability>
1

> <r_epik_Ionization_Penalty>
1.72482

> <r_epik_Ionization_Penalty_Charging>
1.72482

> <r_epik_Ionization_Penalty_Neutral>
2.42073e-06

> <r_epik_State_Penalty>
1.83265

> <r_epik_Charging_Adjusted_Penalty>
3.55747

> <i_epik_Tot_Q>
-1

> <i_epik_Tot_abs_Q>
1

> <r_epik_Metal_State_Penalty>
0.535818

> <b_epik_Metal_Only>
0

> <s_lp_Force_Field>
OPLS_2005

> <r_lp_Energy>
15.5794

> <b_lp_Chiralities_Consistent>
1

> <s_lp_Variant>
AV-unprocessed.smi:2607-4

> <Gold.Version>
5.8.1

> <Gold.Id.Protein>
6NUR|6NUR_protein|mol2

> <Gold.PLP.Fitness>
33.7387

> <Gold.PLP.PLP>
-23.8158

> <Gold.PLP.part.hbond>
-1.8935

> <Gold.PLP.part.metal>
0.0000

> <Gold.PLP.part.buried>
-3.3729

> <Gold.PLP.part.nonpolar>
-19.0882

> <Gold.PLP.part.repulsive>
0.3134

> <Gold.PLP.ligand.clash>
0.0000

> <Gold.PLP.ligand.torsion>
0.8335

> <Gold.PLP.Chemscore.Hbond>
2.8640

> <Gold.PLP.Chemscore.CHOScore>
0.9717

> <Gold.PLP.Chemscore.Metal>
0.0000

> <Gold.Chemscore.Hbonds>
donor molecule, donor type, donor heavy atom, donor atom, acceptor molecule, acceptor atom, score
      P1  H  7989  7998       L1    11  0.83
      P1  H  7997  8010       L1    12  2.00
      L1  C     4    18       P1  8028  0.91

> <Gold.PLP.Chemscore.Internal.Correction>
0.0829

> <Gold.Rescore>
     Score         DG    S(hbond)    S(metal)    S(lipo)     H(rot)  DE(clash)    DE(int)     intcor
     13.47     -13.60       1.39        0.00      51.71       1.00       0.04       0.09       ----

> <Gold.Chemscore.Fitness>
13.4686

> <Gold.Chemscore.DG>
-13.5959

> <Gold.Chemscore.ZeroCoef>
-5.4800

> <Gold.Chemscore.Hbond>
1.3851

> <Gold.Chemscore.Metal>
0.0000

> <Gold.Chemscore.Lipo>
51.7069

> <Gold.Chemscore.Internal_Hbond>
0.0000

> <Gold.Chemscore.DEClash>
0.0392

> <Gold.Chemscore.DEInternal>
0.0882

> <Gold.Chemscore.Rot>
1.0000

> <Gold.Chemscore.Internal.Correction>
   9.000000E+99

> <Gold.Chemscore.Hbonds>
donor molecule, donor type, donor heavy atom, donor atom, acceptor molecule, acceptor atom, score
      P1  H  7989  7998       L1    11  0.82
      P1  H  7997  8010       L1    12  0.16

> <Gold.Chemscore.Hbond.Weighted>
-4.6262

> <Gold.Chemscore.Metal.Weighted>
-0.0000

> <Gold.Chemscore.Lipo.Weighted>
-6.0497

> <Gold.Chemscore.Internal_Hbond.Weighted>
0.0000

> <Gold.Chemscore.DEClash.Weighted>
0.0392

> <Gold.Chemscore.DEInternal.Weighted>
0.0882

> <Gold.Chemscore.Rot.Weighted>
2.5600

> <Gold.Chemscore.Internal.Correction.Weighted>
   9.000000E+99

> <Gold.Protein.RotatedTorsions>
[ 6907 6896 6895 6894 ] final  -57.32 input  -60.11 | X-H torsion
[ 7974 7965 7964 7962 ] final -122.61 input  175.53 | X-H torsion
[ 8008 7997 7996 7995 ] final   64.71 input   59.86 | X-H torsion
[ 10167 10162 10161 10158 ] final   14.53 input  -65.29 | X-H torsion
[ 10718 10713 10712 10709 ] final -121.51 input   66.30 | X-H torsion
[ 10763 10752 10751 10750 ] final  -32.07 input  -60.55 | X-H torsion
[ 11005 11000 10999 10996 ] final  -22.77 input  -57.11 | X-H torsion

> <Gold.Protein.ActiveResidues>
 VAL166  LYS551  ARG553  GLY616  TRP617  ASP618  TYR619  PRO620  LYS621  CYS622 
 ASP623  PHE694  ASN695  SER759  ASP760  ASP761  ALA762  ILE779  LEU786  VAL792 
 PHE793  MET794  SER795  GLU796  ALA797  LYS798  CYS799  TRP800  GLU811  SER814 

> <Gold.Protein.RotatedAtoms>
  150.8095  134.7242  159.6674 H   0  0  0  0  0  0  0  0  0  0  0  0  # atno 6907 bound_to 6896
  152.4215  134.5943  159.9992 H   0  0  0  0  0  0  0  0  0  0  0  0  # atno 6908 bound_to 6896
  151.6156  133.3306  159.3113 H   0  0  0  0  0  0  0  0  0  0  0  0  # atno 6909 bound_to 6896
  145.0276  140.8041  143.4343 H   0  0  0  0  0  0  0  0  0  0  0  0  # atno 7974 bound_to 7965
  155.6503  140.3497  155.4746 H   0  0  0  0  0  0  0  0  0  0  0  0  # atno 8008 bound_to 7997
  155.9853  140.1183  157.0712 H   0  0  0  0  0  0  0  0  0  0  0  0  # atno 8009 bound_to 7997
  154.4203  140.1130  156.5477 H   0  0  0  0  0  0  0  0  0  0  0  0  # atno 8010 bound_to 7997
  140.5929  143.8759  150.6890 H   0  0  0  0  0  0  0  0  0  0  0  0  # atno 10167 bound_to 10162
  156.1343  130.6419  150.9671 H   0  0  0  0  0  0  0  0  0  0  0  0  # atno 10718 bound_to 10713
  153.8077  135.6885  153.4845 H   0  0  0  0  0  0  0  0  0  0  0  0  # atno 10763 bound_to 10752
  153.1648  135.4565  154.9820 H   0  0  0  0  0  0  0  0  0  0  0  0  # atno 10764 bound_to 10752
  154.7980  135.3326  154.7560 H   0  0  0  0  0  0  0  0  0  0  0  0  # atno 10765 bound_to 10752
  140.8688  133.7735  156.0162 H   0  0  0  0  0  0  0  0  0  0  0  0  # atno 11005 bound_to 11000
  145.1813  139.2350  143.5291 LP  0  0  0  0  0  0  0  0  0  0  0  0  # atno 17320 bound_to 7965
  146.3494  140.1587  142.8591 LP  0  0  0  0  0  0  0  0  0  0  0  0  # atno 17321 bound_to 7965
  140.2286  143.3753  152.1584 LP  0  0  0  0  0  0  0  0  0  0  0  0  # atno 17342 bound_to 10162
  139.5239  144.7077  151.5303 LP  0  0  0  0  0  0  0  0  0  0  0  0  # atno 17343 bound_to 10162
  157.6517  131.0896  150.8035 LP  0  0  0  0  0  0  0  0  0  0  0  0  # atno 17370 bound_to 10713
  156.8117  130.4954  149.5355 LP  0  0  0  0  0  0  0  0  0  0  0  0  # atno 17371 bound_to 10713
  140.8597  134.2855  157.5240 LP  0  0  0  0  0  0  0  0  0  0  0  0  # atno 17394 bound_to 11000
  139.8711  134.9512  156.4077 LP  0  0  0  0  0  0  0  0  0  0  0  0  # atno 17395 bound_to 11000

$$$$
