AV-unprocessed.smi:515|AV-procd|sdf|2781|dock4
  -GOLD-   2262023253D 1   1.00000     0.00000
 Structure written by MMmdl.
 48 50  0  0  0  0  0  0  0  0  2 V2000
  147.5677  134.6261  162.0667 C   0  0  0  0  0  0  0  0  0  0  0  0
  147.0657  136.0591  161.8783 C   0  0  0  0  0  0  0  0  0  0  0  0
  147.7931  136.6585  160.8211 O   0  0  0  0  0  0  0  0  0  0  0  0
  147.5275  136.0685  159.5597 C   0  0  0  0  0  0  0  0  0  0  0  0
  148.8515  135.7796  158.8376 C   0  0  0  0  0  0  0  0  0  0  0  0
  148.6467  135.4285  157.4358 N   0  0  0  0  0  0  0  0  0  0  0  0
  148.1919  136.2308  156.4370 C   0  0  0  0  0  0  0  0  0  0  0  0
  147.8206  137.6741  156.6307 C   0  0  0  0  0  0  0  0  0  0  0  0
  148.6145  138.4101  155.6143 N   0  3  0  0  0  0  0  0  0  0  0  0
  148.3425  139.8698  155.5762 C   0  0  0  0  0  0  0  0  0  0  0  0
  149.1778  140.5425  154.4743 C   0  0  0  0  0  0  0  0  0  0  0  0
  150.5581  140.2777  154.6914 O   0  0  0  0  0  0  0  0  0  0  0  0
  150.8465  138.8861  154.6399 C   0  0  0  0  0  0  0  0  0  0  0  0
  150.0683  138.1575  155.7485 C   0  0  0  0  0  0  0  0  0  0  0  0
  148.1069  135.6277  155.2465 N   0  0  0  0  0  0  0  0  0  0  0  0
  148.5506  134.3399  155.5073 C   0  0  0  0  0  0  0  0  0  0  0  0
  148.8847  134.2014  156.8148 C   0  0  0  0  0  0  0  0  0  0  0  0
  149.4041  132.9413  157.3661 C   0  0  0  0  0  0  0  0  0  0  0  0
  149.7189  132.7939  158.5446 O   0  0  0  0  0  0  0  0  0  0  0  0
  149.5035  131.9576  156.4394 N   0  0  0  0  0  0  0  0  0  0  0  0
  149.1816  132.0299  155.1118 C   0  0  0  0  0  0  0  0  0  0  0  0
  149.3293  131.0453  154.3881 O   0  0  0  0  0  0  0  0  0  0  0  0
  148.6984  133.2226  154.6373 N   0  0  0  0  0  0  0  0  0  0  0  0
  148.3364  133.3551  153.2248 C   0  0  0  0  0  0  0  0  0  0  0  0
  149.8574  131.0701  156.7658 H   0  0  0  0  0  0  0  0  0  0  0  0
  147.0309  134.1284  162.8743 H   0  0  0  0  0  0  0  0  0  0  0  0
  148.6301  134.6128  162.3115 H   0  0  0  0  0  0  0  0  0  0  0  0
  147.4256  134.0396  161.1587 H   0  0  0  0  0  0  0  0  0  0  0  0
  145.9995  136.0532  161.6477 H   0  0  0  0  0  0  0  0  0  0  0  0
  147.2035  136.6272  162.7994 H   0  0  0  0  0  0  0  0  0  0  0  0
  146.9682  135.1412  159.6906 H   0  0  0  0  0  0  0  0  0  0  0  0
  146.9120  136.7394  158.9588 H   0  0  0  0  0  0  0  0  0  0  0  0
  149.5138  136.6411  158.9027 H   0  0  0  0  0  0  0  0  0  0  0  0
  149.3873  134.9735  159.3374 H   0  0  0  0  0  0  0  0  0  0  0  0
  146.7522  137.8600  156.5286 H   0  0  0  0  0  0  0  0  0  0  0  0
  148.1121  137.9697  157.6395 H   0  0  0  0  0  0  0  0  0  0  0  0
  147.2854  140.0589  155.3891 H   0  0  0  0  0  0  0  0  0  0  0  0
  148.5796  140.3110  156.5456 H   0  0  0  0  0  0  0  0  0  0  0  0
  148.8772  140.1887  153.4867 H   0  0  0  0  0  0  0  0  0  0  0  0
  149.0185  141.6207  154.4880 H   0  0  0  0  0  0  0  0  0  0  0  0
  150.5942  138.4850  153.6569 H   0  0  0  0  0  0  0  0  0  0  0  0
  151.9183  138.7419  154.7767 H   0  0  0  0  0  0  0  0  0  0  0  0
  150.4094  138.4943  156.7288 H   0  0  0  0  0  0  0  0  0  0  0  0
  150.2650  137.0861  155.6902 H   0  0  0  0  0  0  0  0  0  0  0  0
  147.5877  132.6113  152.9484 H   0  0  0  0  0  0  0  0  0  0  0  0
  149.2127  133.2080  152.5920 H   0  0  0  0  0  0  0  0  0  0  0  0
  147.9219  134.3347  152.9873 H   0  0  0  0  0  0  0  0  0  0  0  0
  148.3427  138.0342  154.7165 H   0  0  0  0  0  0  0  0  0  0  0  0
  1  2  1  0  0  0  0
  1 26  1  0  0  0  0
  1 27  1  0  0  0  0
  1 28  1  0  0  0  0
  2  3  1  0  0  0  0
  2 29  1  0  0  0  0
  2 30  1  0  0  0  0
  3  4  1  0  0  0  0
  4  5  1  0  0  0  0
  4 31  1  0  0  0  0
  4 32  1  0  0  0  0
  5  6  1  0  0  0  0
  5 33  1  0  0  0  0
  5 34  1  0  0  0  0
  6 17  1  0  0  0  0
  6  7  1  0  0  0  0
  7  8  1  0  0  0  0
  7 15  2  0  0  0  0
  8  9  1  0  0  0  0
  8 35  1  0  0  0  0
  8 36  1  0  0  0  0
  9 14  1  0  0  0  0
  9 10  1  0  0  0  0
  9 48  1  0  0  0  0
 10 11  1  0  0  0  0
 10 37  1  0  0  0  0
 10 38  1  0  0  0  0
 11 12  1  0  0  0  0
 11 39  1  0  0  0  0
 11 40  1  0  0  0  0
 12 13  1  0  0  0  0
 13 14  1  0  0  0  0
 13 41  1  0  0  0  0
 13 42  1  0  0  0  0
 14 43  1  0  0  0  0
 14 44  1  0  0  0  0
 15 16  1  0  0  0  0
 16 23  1  0  0  0  0
 16 17  2  0  0  0  0
 17 18  1  0  0  0  0
 18 19  2  0  0  0  0
 18 20  1  0  0  0  0
 20 25  1  0  0  0  0
 20 21  1  0  0  0  0
 21 22  2  0  0  0  0
 21 23  1  0  0  0  0
 23 24  1  0  0  0  0
 24 45  1  0  0  0  0
 24 46  1  0  0  0  0
 24 47  1  0  0  0  0
M  CHG  1   9   1
M  END
> <s_m_source_file>
AV-unprocessed.smi

> <i_m_source_file_index>
515

> <i_lp_mmshare_version>
43012

> <i_f3d_flags>
0

> <s_epik_input>
W0NIM11uMWMoPU8pW25IXWMoPU8pYyhjMTIpbihbQ0gyXVtDSDJdT1tDSDJdW0NIM10pYyhuMilbQ0gyXU4zW0NIMl1bQ0gyXU9bQ0gyXVtDSDJdMw==

> <s_epik_cmdline>
J2VwaWtfcHl0aG9uJywgJy1waCcsICc3LjAnLCAnLXRuJywgJzgnLCAnLW1hJywgJzIwMCcsICctbWV0YWxfYmluZGluZycsICctaW1hZScsICc8aW5maWxlLm1hZT4nLCAnLW9tYWUnLCAnPG91dGZpbGUubWFlPic=

> <r_epik_Ionization_Penalty>
1.12075

> <r_epik_Ionization_Penalty_Charging>
1.12075

> <r_epik_Ionization_Penalty_Neutral>
5.33793e-09

> <r_epik_State_Penalty>
1.17893

> <r_epik_Charging_Adjusted_Penalty>
2.29968

> <i_epik_Tot_Q>
1

> <i_epik_Tot_abs_Q>
1

> <r_epik_Metal_State_Penalty>
1.3264

> <b_epik_Metal_Only>
0

> <s_lp_Force_Field>
OPLS_2005

> <r_lp_Energy>
34.9817

> <b_lp_Chiralities_Consistent>
1

> <s_lp_Variant>
AV-unprocessed.smi:515-2

> <Gold.Version>
5.8.1

> <Gold.Id.Protein>
6NUR|6NUR_protein|mol2

> <Gold.PLP.Fitness>
36.3833

> <Gold.PLP.PLP>
-25.7858

> <Gold.PLP.part.hbond>
-4.0000

> <Gold.PLP.part.metal>
0.0000

> <Gold.PLP.part.buried>
-2.5183

> <Gold.PLP.part.nonpolar>
-20.0530

> <Gold.PLP.part.repulsive>
0.2188

> <Gold.PLP.ligand.clash>
0.0000

> <Gold.PLP.ligand.torsion>
0.4762

> <Gold.PLP.Chemscore.Hbond>
3.8240

> <Gold.PLP.Chemscore.CHOScore>
0.0000

> <Gold.PLP.Chemscore.Metal>
0.0000

> <Gold.Chemscore.Hbonds>
donor molecule, donor type, donor heavy atom, donor atom, acceptor molecule, acceptor atom, score
      P1  H  6896  6907       L1    19  1.00
      P1  H  6931  6943       L1     3  0.36
      P1  H  7989  7998       L1    12  1.00

> <Gold.PLP.Chemscore.Internal.Correction>
0.0780

> <Gold.Rescore>
     Score         DG    S(hbond)    S(metal)    S(lipo)     H(rot)  DE(clash)    DE(int)     intcor
     13.63     -14.36       2.43        0.00      55.18       2.22       0.11       0.63       ----

> <Gold.Chemscore.Fitness>
13.6267

> <Gold.Chemscore.DG>
-14.3637

> <Gold.Chemscore.ZeroCoef>
-5.4800

> <Gold.Chemscore.Hbond>
2.4270

> <Gold.Chemscore.Metal>
0.0000

> <Gold.Chemscore.Lipo>
55.1793

> <Gold.Chemscore.Internal_Hbond>
0.0000

> <Gold.Chemscore.DEClash>
0.1058

> <Gold.Chemscore.DEInternal>
0.6312

> <Gold.Chemscore.Rot>
2.2182

> <Gold.Chemscore.Internal.Correction>
   9.000000E+99

> <Gold.Chemscore.Hbonds>
donor molecule, donor type, donor heavy atom, donor atom, acceptor molecule, acceptor atom, score
      P1  H  6896  6907       L1    19  0.97
      P1  H  6931  6943       L1     3  0.13
      P1  H  6934  6947       L1     3  0.02
      P1  H  7989  7998       L1    12  0.28

> <Gold.Chemscore.Hbond.Weighted>
-8.1063

> <Gold.Chemscore.Metal.Weighted>
-0.0000

> <Gold.Chemscore.Lipo.Weighted>
-6.4560

> <Gold.Chemscore.Internal_Hbond.Weighted>
0.0000

> <Gold.Chemscore.DEClash.Weighted>
0.1058

> <Gold.Chemscore.DEInternal.Weighted>
0.6312

> <Gold.Chemscore.Rot.Weighted>
5.6785

> <Gold.Chemscore.Internal.Correction.Weighted>
   9.000000E+99

> <Gold.Protein.RotatedTorsions>
[ 6907 6896 6895 6894 ] final -116.39 input  -60.11 | X-H torsion
[ 7974 7965 7964 7962 ] final  147.37 input  175.53 | X-H torsion
[ 8008 7997 7996 7995 ] final  -87.62 input   59.86 | X-H torsion
[ 10167 10162 10161 10158 ] final  -37.88 input  -65.29 | X-H torsion
[ 10718 10713 10712 10709 ] final   87.02 input   66.30 | X-H torsion
[ 10763 10752 10751 10750 ] final  104.53 input  -60.55 | X-H torsion
[ 11005 11000 10999 10996 ] final -140.25 input  -57.11 | X-H torsion

> <Gold.Protein.ActiveResidues>
 VAL166  LYS551  ARG553  GLY616  TRP617  ASP618  TYR619  PRO620  LYS621  CYS622 
 ASP623  PHE694  ASN695  SER759  ASP760  ASP761  ALA762  ILE779  LEU786  VAL792 
 PHE793  MET794  SER795  GLU796  ALA797  LYS798  CYS799  TRP800  GLU811  SER814 

> <Gold.Protein.RotatedAtoms>
  150.8052  133.8523  159.3208 H   0  0  0  0  0  0  0  0  0  0  0  0  # atno 6907 bound_to 6896
  151.6324  135.1020  160.0134 H   0  0  0  0  0  0  0  0  0  0  0  0  # atno 6908 bound_to 6896
  152.4142  133.6972  159.6460 H   0  0  0  0  0  0  0  0  0  0  0  0  # atno 6909 bound_to 6896
  144.8597  139.6020  143.5936 H   0  0  0  0  0  0  0  0  0  0  0  0  # atno 7974 bound_to 7965
  154.6653  140.0563  157.0107 H   0  0  0  0  0  0  0  0  0  0  0  0  # atno 8008 bound_to 7997
  155.1168  140.3243  155.4489 H   0  0  0  0  0  0  0  0  0  0  0  0  # atno 8009 bound_to 7997
  156.2635  140.2004  156.6291 H   0  0  0  0  0  0  0  0  0  0  0  0  # atno 8010 bound_to 7997
  140.7107  143.3313  151.2563 H   0  0  0  0  0  0  0  0  0  0  0  0  # atno 10167 bound_to 10162
  157.6935  131.0239  150.3060 H   0  0  0  0  0  0  0  0  0  0  0  0  # atno 10718 bound_to 10713
  153.3671  135.3940  155.1761 H   0  0  0  0  0  0  0  0  0  0  0  0  # atno 10763 bound_to 10752
  154.8688  135.3693  154.5024 H   0  0  0  0  0  0  0  0  0  0  0  0  # atno 10764 bound_to 10752
  153.5489  135.7083  153.5661 H   0  0  0  0  0  0  0  0  0  0  0  0  # atno 10765 bound_to 10752
  140.8441  134.2366  157.4795 H   0  0  0  0  0  0  0  0  0  0  0  0  # atno 11005 bound_to 11000
  146.2851  139.6982  142.9201 LP  0  0  0  0  0  0  0  0  0  0  0  0  # atno 17320 bound_to 7965
  145.4336  141.0417  143.2897 LP  0  0  0  0  0  0  0  0  0  0  0  0  # atno 17321 bound_to 7965
  139.6796  143.9878  152.2801 LP  0  0  0  0  0  0  0  0  0  0  0  0  # atno 17342 bound_to 10162
  139.9503  144.6624  150.8178 LP  0  0  0  0  0  0  0  0  0  0  0  0  # atno 17343 bound_to 10162
  156.3568  130.3840  149.7283 LP  0  0  0  0  0  0  0  0  0  0  0  0  # atno 17370 bound_to 10713
  156.4743  130.8011  151.3028 LP  0  0  0  0  0  0  0  0  0  0  0  0  # atno 17371 bound_to 10713
  139.8703  134.9650  156.4515 LP  0  0  0  0  0  0  0  0  0  0  0  0  # atno 17394 bound_to 11000
  140.8863  133.7881  155.9521 LP  0  0  0  0  0  0  0  0  0  0  0  0  # atno 17395 bound_to 11000

$$$$
