AV-unprocessed.smi:1916|AV-procd|sdf|7766|dock10
  -GOLD-   22720 9513D 1   1.00000     0.00000
 Structure written by MMmdl.
 46 48  0  0  0  0  0  0  0  0  2 V2000
  148.2987  139.1648  155.7670 O   0  0  0  0  0  0  0  0  0  0  0  0
  148.6085  139.5338  154.6340 C   0  0  0  0  0  0  0  0  0  0  0  0
  147.9509  139.1534  153.5286 N   0  0  0  0  0  0  0  0  0  0  0  0
  146.7957  138.2607  153.4965 C   0  0  0  0  0  0  0  0  0  0  0  0
  146.3631  137.9252  152.0579 C   0  0  0  0  0  0  0  0  0  0  0  0
  145.6701  136.5800  151.9256 C   0  0  0  0  0  0  0  0  0  0  0  0
  144.3130  136.4023  152.2716 C   0  0  0  0  0  0  0  0  0  0  0  0
  143.7210  135.1320  152.1116 C   0  0  0  0  0  0  0  0  0  0  0  0
  144.4973  134.0675  151.6084 C   0  0  0  0  0  0  0  0  0  0  0  0
  145.8478  134.3003  151.2778 C   0  0  0  0  0  0  0  0  0  0  0  0
  146.3783  135.5318  151.4446 N   0  3  0  0  0  0  0  0  0  0  0  0
  149.8027  140.4795  154.4276 C   0  0  2  0  0  0  0  0  0  0  0  0
  151.1342  139.7810  154.7534 C   0  0  0  0  0  0  0  0  0  0  0  0
  151.6062  140.4662  156.0243 C   0  0  0  0  0  0  0  0  0  0  0  0
  152.5674  140.0561  156.6730 O   0  0  0  0  0  0  0  0  0  0  0  0
  150.8370  141.5208  156.3305 N   0  0  0  0  0  0  0  0  0  0  0  0
  150.9608  142.3250  157.5591 C   0  0  0  0  0  0  0  0  0  0  0  0
  151.8600  143.5709  157.4406 C   0  0  0  0  0  0  0  0  0  0  0  0
  152.3586  143.8186  158.8610 C   0  0  0  0  0  0  0  0  0  0  0  0
  152.6000  142.4157  159.4123 C   0  0  0  0  0  0  0  0  0  0  0  0
  151.5361  141.5284  158.7533 C   0  0  0  0  0  0  0  0  0  0  0  0
  149.7577  141.7047  155.3655 C   0  0  0  0  0  0  0  0  0  0  0  0
  148.2706  139.5181  152.6432 H   0  0  0  0  0  0  0  0  0  0  0  0
  146.9958  137.3321  154.0335 H   0  0  0  0  0  0  0  0  0  0  0  0
  145.9763  138.7528  154.0217 H   0  0  0  0  0  0  0  0  0  0  0  0
  145.6955  138.7039  151.6862 H   0  0  0  0  0  0  0  0  0  0  0  0
  147.2344  137.9388  151.4020 H   0  0  0  0  0  0  0  0  0  0  0  0
  143.7305  137.2291  152.6521 H   0  0  0  0  0  0  0  0  0  0  0  0
  142.6836  134.9766  152.3701 H   0  0  0  0  0  0  0  0  0  0  0  0
  144.0630  133.0870  151.4781 H   0  0  0  0  0  0  0  0  0  0  0  0
  146.5141  133.5448  150.8877 H   0  0  0  0  0  0  0  0  0  0  0  0
  149.8116  140.8192  153.3905 H   0  0  0  0  0  0  0  0  0  0  0  0
  151.0396  138.7051  154.9112 H   0  0  0  0  0  0  0  0  0  0  0  0
  151.8668  139.9421  153.9621 H   0  0  0  0  0  0  0  0  0  0  0  0
  149.9609  142.6667  157.8324 H   0  0  0  0  0  0  0  0  0  0  0  0
  152.7297  143.3767  156.8125 H   0  0  0  0  0  0  0  0  0  0  0  0
  151.3335  144.4309  157.0254 H   0  0  0  0  0  0  0  0  0  0  0  0
  153.2528  144.4417  158.8910 H   0  0  0  0  0  0  0  0  0  0  0  0
  151.5826  144.3176  159.4430 H   0  0  0  0  0  0  0  0  0  0  0  0
  153.5930  142.0749  159.1161 H   0  0  0  0  0  0  0  0  0  0  0  0
  152.5531  142.3842  160.5013 H   0  0  0  0  0  0  0  0  0  0  0  0
  150.7401  141.2896  159.4595 H   0  0  0  0  0  0  0  0  0  0  0  0
  151.9855  140.5832  158.4458 H   0  0  0  0  0  0  0  0  0  0  0  0
  149.9334  142.6199  154.7988 H   0  0  0  0  0  0  0  0  0  0  0  0
  148.7954  141.8074  155.8701 H   0  0  0  0  0  0  0  0  0  0  0  0
  147.3580  135.6773  151.1991 H   0  0  0  0  0  0  0  0  0  0  0  0
  1  2  2  0  0  0  0
  2  3  1  0  0  0  0
  2 12  1  0  0  0  0
  3  4  1  0  0  0  0
  3 23  1  0  0  0  0
  4  5  1  0  0  0  0
  4 24  1  0  0  0  0
  4 25  1  0  0  0  0
  5  6  1  0  0  0  0
  5 26  1  0  0  0  0
  5 27  1  0  0  0  0
  6 11  1  0  0  0  0
  6  7  2  0  0  0  0
  7  8  1  0  0  0  0
  7 28  1  0  0  0  0
  8  9  2  0  0  0  0
  8 29  1  0  0  0  0
  9 10  1  0  0  0  0
  9 30  1  0  0  0  0
 10 11  2  0  0  0  0
 10 31  1  0  0  0  0
 11 46  1  0  0  0  0
 12 22  1  0  0  0  0
 12 13  1  0  0  0  0
 12 32  1  0  0  0  0
 13 14  1  0  0  0  0
 13 33  1  0  0  0  0
 13 34  1  0  0  0  0
 14 15  2  0  0  0  0
 14 16  1  0  0  0  0
 16 17  1  0  0  0  0
 16 22  1  0  0  0  0
 17 21  1  0  0  0  0
 17 18  1  0  0  0  0
 17 35  1  0  0  0  0
 18 19  1  0  0  0  0
 18 36  1  0  0  0  0
 18 37  1  0  0  0  0
 19 20  1  0  0  0  0
 19 38  1  0  0  0  0
 19 39  1  0  0  0  0
 20 21  1  0  0  0  0
 20 40  1  0  0  0  0
 20 41  1  0  0  0  0
 21 42  1  0  0  0  0
 21 43  1  0  0  0  0
 22 44  1  0  0  0  0
 22 45  1  0  0  0  0
M  CHG  1  11   1
M  END
> <s_m_source_file>
AV-unprocessed.smi

> <i_m_source_file_index>
1916

> <i_lp_mmshare_version>
43012

> <i_f3d_flags>
0

> <s_epik_input>
W0NIMl0xW0NIMl1bQ0gyXVtDSDJdW0NIXTFOKFtDSDJdMilDKD1PKVtDSDJdW0NASF0yQyg9TylbTkhdW0NIMl1bQ0gyXWMzW2NIXVtjSF1bY0hdW2NIXW4z

> <s_epik_cmdline>
J2VwaWtfcHl0aG9uJywgJy1waCcsICc3LjAnLCAnLXRuJywgJzgnLCAnLW1hJywgJzIwMCcsICctbWV0YWxfYmluZGluZycsICctaW1hZScsICc8aW5maWxlLm1hZT4nLCAnLW9tYWUnLCAnPG91dGZpbGUubWFlPic=

> <r_epik_Ionization_Penalty>
1.88249

> <r_epik_Ionization_Penalty_Charging>
1.88249

> <r_epik_Ionization_Penalty_Neutral>
3.64574e-08

> <r_epik_State_Penalty>
2.00238

> <r_epik_Charging_Adjusted_Penalty>
3.88487

> <i_epik_Tot_Q>
1

> <i_epik_Tot_abs_Q>
1

> <r_epik_Metal_State_Penalty>
2.02676

> <b_epik_Metal_Only>
0

> <s_lp_Force_Field>
OPLS_2005

> <r_lp_Energy>
42.8241

> <b_lp_Chiralities_Consistent>
1

> <s_lp_Variant>
AV-unprocessed.smi:1916-3

> <Gold.Version>
5.8.1

> <Gold.Id.Protein>
6NUR|6NUR_protein|mol2

> <Gold.PLP.Fitness>
52.4193

> <Gold.PLP.PLP>
-43.1729

> <Gold.PLP.part.hbond>
-3.0000

> <Gold.PLP.part.metal>
0.0000

> <Gold.PLP.part.buried>
1.3190

> <Gold.PLP.part.nonpolar>
-41.2892

> <Gold.PLP.part.repulsive>
0.1057

> <Gold.PLP.ligand.clash>
0.0233

> <Gold.PLP.ligand.torsion>
1.3401

> <Gold.PLP.Chemscore.Hbond>
3.9590

> <Gold.PLP.Chemscore.CHOScore>
0.0000

> <Gold.PLP.Chemscore.Metal>
0.0000

> <Gold.Chemscore.Hbonds>
donor molecule, donor type, donor heavy atom, donor atom, acceptor molecule, acceptor atom, score
      L1  H     3    23       P1  7957  0.94
      L1  H    11    46       P1  7948  1.82
      P1  H  7997  8009       L1    15  1.00

> <Gold.PLP.Chemscore.Internal.Correction>
0.0728

> <Gold.Rescore>
     Score         DG    S(hbond)    S(metal)    S(lipo)     H(rot)  DE(clash)    DE(int)     intcor
     19.14     -24.13       2.89        0.00     114.32       1.72       2.12       2.86       ----

> <Gold.Chemscore.Fitness>
19.1432

> <Gold.Chemscore.DG>
-24.1286

> <Gold.Chemscore.ZeroCoef>
-5.4800

> <Gold.Chemscore.Hbond>
2.8938

> <Gold.Chemscore.Metal>
0.0000

> <Gold.Chemscore.Lipo>
114.3223

> <Gold.Chemscore.Internal_Hbond>
0.0000

> <Gold.Chemscore.DEClash>
2.1235

> <Gold.Chemscore.DEInternal>
2.8620

> <Gold.Chemscore.Rot>
1.7158

> <Gold.Chemscore.Internal.Correction>
   9.000000E+99

> <Gold.Chemscore.Hbonds>
donor molecule, donor type, donor heavy atom, donor atom, acceptor molecule, acceptor atom, score
      L1  H     3    23       P1  7957  0.89
      L1  H    11    46       P1  7948  0.78
      P1  H  7997  8009       L1    15  0.99

> <Gold.Chemscore.Hbond.Weighted>
-9.6652

> <Gold.Chemscore.Metal.Weighted>
-0.0000

> <Gold.Chemscore.Lipo.Weighted>
-13.3757

> <Gold.Chemscore.Internal_Hbond.Weighted>
0.0000

> <Gold.Chemscore.DEClash.Weighted>
2.1235

> <Gold.Chemscore.DEInternal.Weighted>
2.8620

> <Gold.Chemscore.Rot.Weighted>
4.3924

> <Gold.Chemscore.Internal.Correction.Weighted>
   9.000000E+99

> <Gold.Protein.RotatedTorsions>
[ 6907 6896 6895 6894 ] final  -44.69 input  -60.11 | X-H torsion
[ 7974 7965 7964 7962 ] final  150.76 input  175.53 | X-H torsion
[ 8008 7997 7996 7995 ] final -166.74 input   59.86 | X-H torsion
[ 10167 10162 10161 10158 ] final  -68.27 input  -65.29 | X-H torsion
[ 10718 10713 10712 10709 ] final   25.43 input   66.30 | X-H torsion
[ 10763 10752 10751 10750 ] final  108.22 input  -60.55 | X-H torsion
[ 11005 11000 10999 10996 ] final   92.45 input  -57.11 | X-H torsion

> <Gold.Protein.ActiveResidues>
 VAL166  LYS551  ARG553  GLY616  TRP617  ASP618  TYR619  PRO620  LYS621  CYS622 
 ASP623  PHE694  ASN695  SER759  ASP760  ASP761  ALA762  ILE779  LEU786  VAL792 
 PHE793  MET794  SER795  GLU796  ALA797  LYS798  CYS799  TRP800  GLU811  SER814 

> <Gold.Protein.RotatedAtoms>
  150.9301  134.8716  159.7545 H   0  0  0  0  0  0  0  0  0  0  0  0  # atno 6907 bound_to 6896
  152.5034  134.4091  159.9452 H   0  0  0  0  0  0  0  0  0  0  0  0  # atno 6908 bound_to 6896
  151.4119  133.3685  159.2780 H   0  0  0  0  0  0  0  0  0  0  0  0  # atno 6909 bound_to 6896
  144.8341  139.6449  143.6046 H   0  0  0  0  0  0  0  0  0  0  0  0  # atno 7974 bound_to 7965
  155.8680  140.0989  157.1569 H   0  0  0  0  0  0  0  0  0  0  0  0  # atno 8008 bound_to 7997
  154.3995  140.1352  156.4105 H   0  0  0  0  0  0  0  0  0  0  0  0  # atno 8009 bound_to 7997
  155.7783  140.3459  155.5286 H   0  0  0  0  0  0  0  0  0  0  0  0  # atno 8010 bound_to 7997
  140.5520  143.2312  151.6892 H   0  0  0  0  0  0  0  0  0  0  0  0  # atno 10167 bound_to 10162
  157.1932  130.6856  149.6158 H   0  0  0  0  0  0  0  0  0  0  0  0  # atno 10718 bound_to 10713
  153.4176  135.3819  155.2090 H   0  0  0  0  0  0  0  0  0  0  0  0  # atno 10763 bound_to 10752
  154.8742  135.3809  154.4424 H   0  0  0  0  0  0  0  0  0  0  0  0  # atno 10764 bound_to 10752
  153.4940  135.7088  153.5931 H   0  0  0  0  0  0  0  0  0  0  0  0  # atno 10765 bound_to 10752
  139.8823  134.8734  156.3575 H   0  0  0  0  0  0  0  0  0  0  0  0  # atno 11005 bound_to 11000
  146.2641  139.6480  142.9341 LP  0  0  0  0  0  0  0  0  0  0  0  0  # atno 17320 bound_to 7965
  145.4832  141.0438  143.2634 LP  0  0  0  0  0  0  0  0  0  0  0  0  # atno 17321 bound_to 7965
  139.5031  144.3802  152.0384 LP  0  0  0  0  0  0  0  0  0  0  0  0  # atno 17342 bound_to 10162
  140.2920  144.3743  150.6086 LP  0  0  0  0  0  0  0  0  0  0  0  0  # atno 17343 bound_to 10162
  155.9709  130.4607  150.6084 LP  0  0  0  0  0  0  0  0  0  0  0  0  # atno 17370 bound_to 10713
  157.3840  131.0785  151.1452 LP  0  0  0  0  0  0  0  0  0  0  0  0  # atno 17371 bound_to 10713
  140.9552  133.7424  156.0326 LP  0  0  0  0  0  0  0  0  0  0  0  0  # atno 17394 bound_to 11000
  140.8057  134.3457  157.5427 LP  0  0  0  0  0  0  0  0  0  0  0  0  # atno 17395 bound_to 11000

$$$$
