AV-unprocessed.smi:1379|AV-procd|sdf|5599|dock3
  -GOLD-   22720 5203D 1   1.00000     0.00000
 Structure written by MMmdl.
 35 36  0  0  0  0  0  0  0  0  2 V2000
  155.0865  133.7308  160.9131 C   0  0  0  0  0  0  0  0  0  0  0  0
  154.4502  134.8807  160.3840 O   0  0  0  0  0  0  0  0  0  0  0  0
  155.2981  136.0197  160.3913 C   0  0  0  0  0  0  0  0  0  0  0  0
  154.5412  137.2285  159.8382 C   0  0  0  0  0  0  0  0  0  0  0  0
  154.0283  137.1534  158.7228 O   0  0  0  0  0  0  0  0  0  0  0  0
  154.5222  138.3259  160.6187 N   0  0  0  0  0  0  0  0  0  0  0  0
  153.9041  139.5842  160.3821 C   0  0  0  0  0  0  0  0  0  0  0  0
  154.2472  140.6520  161.2392 C   0  0  0  0  0  0  0  0  0  0  0  0
  153.6547  141.9180  161.0552 C   0  0  0  0  0  0  0  0  0  0  0  0
  152.7134  142.0979  160.0153 C   0  0  0  0  0  0  0  0  0  0  0  0
  152.0690  143.3133  159.7450 N   0  0  0  0  0  0  0  0  0  0  0  0
  152.3121  144.3715  160.7112 C   0  0  0  0  0  0  0  0  0  0  0  0
  151.8838  145.6668  160.0167 C   0  0  0  0  0  0  0  0  0  0  0  0
  151.9272  145.3441  158.5182 C   0  0  0  0  0  0  0  0  0  0  0  0
  152.3736  143.8817  158.4429 C   0  0  0  0  0  0  0  0  0  0  0  0
  152.4034  141.0498  159.2221 N   0  3  0  0  0  0  0  0  0  0  0  0
  152.9484  139.8220  159.3635 C   0  0  0  0  0  0  0  0  0  0  0  0
  154.3945  132.8890  160.8986 H   0  0  0  0  0  0  0  0  0  0  0  0
  155.3989  133.8925  161.9457 H   0  0  0  0  0  0  0  0  0  0  0  0
  155.9612  133.4579  160.3212 H   0  0  0  0  0  0  0  0  0  0  0  0
  155.6292  136.2426  161.4068 H   0  0  0  0  0  0  0  0  0  0  0  0
  156.1847  135.8344  159.7824 H   0  0  0  0  0  0  0  0  0  0  0  0
  155.0434  138.2536  161.4807 H   0  0  0  0  0  0  0  0  0  0  0  0
  154.9654  140.5065  162.0332 H   0  0  0  0  0  0  0  0  0  0  0  0
  153.9249  142.7362  161.7068 H   0  0  0  0  0  0  0  0  0  0  0  0
  151.7451  144.2029  161.6273 H   0  0  0  0  0  0  0  0  0  0  0  0
  153.3693  144.4204  160.9747 H   0  0  0  0  0  0  0  0  0  0  0  0
  150.8680  145.9365  160.3086 H   0  0  0  0  0  0  0  0  0  0  0  0
  152.5371  146.4989  160.2813 H   0  0  0  0  0  0  0  0  0  0  0  0
  150.9332  145.4608  158.0847 H   0  0  0  0  0  0  0  0  0  0  0  0
  152.6065  145.9992  157.9718 H   0  0  0  0  0  0  0  0  0  0  0  0
  153.4442  143.8255  158.2411 H   0  0  0  0  0  0  0  0  0  0  0  0
  151.8530  143.3449  157.6492 H   0  0  0  0  0  0  0  0  0  0  0  0
  152.5861  139.0862  158.6620 H   0  0  0  0  0  0  0  0  0  0  0  0
  151.7190  141.1918  158.4788 H   0  0  0  0  0  0  0  0  0  0  0  0
  1  2  1  0  0  0  0
  1 18  1  0  0  0  0
  1 19  1  0  0  0  0
  1 20  1  0  0  0  0
  2  3  1  0  0  0  0
  3  4  1  0  0  0  0
  3 21  1  0  0  0  0
  3 22  1  0  0  0  0
  4  5  2  0  0  0  0
  4  6  1  0  0  0  0
  6  7  1  0  0  0  0
  6 23  1  0  0  0  0
  7 17  1  0  0  0  0
  7  8  2  0  0  0  0
  8  9  1  0  0  0  0
  8 24  1  0  0  0  0
  9 10  2  0  0  0  0
  9 25  1  0  0  0  0
 10 11  1  0  0  0  0
 10 16  1  0  0  0  0
 11 15  1  0  0  0  0
 11 12  1  0  0  0  0
 12 13  1  0  0  0  0
 12 26  1  0  0  0  0
 12 27  1  0  0  0  0
 13 14  1  0  0  0  0
 13 28  1  0  0  0  0
 13 29  1  0  0  0  0
 14 15  1  0  0  0  0
 14 30  1  0  0  0  0
 14 31  1  0  0  0  0
 15 32  1  0  0  0  0
 15 33  1  0  0  0  0
 16 17  2  0  0  0  0
 16 35  1  0  0  0  0
 17 34  1  0  0  0  0
M  CHG  1  16   1
M  END
> <s_m_source_file>
AV-unprocessed.smi

> <i_m_source_file_index>
1379

> <i_lp_mmshare_version>
43012

> <i_f3d_flags>
0

> <s_epik_input>
W0NIM11PW0NIMl1DKD1PKVtOSF1jMVtjSF1bY0hdYyhuW2NIXTEpTjJbQ0gyXVtDSDJdW0NIMl1bQ0gyXTI=

> <s_epik_cmdline>
J2VwaWtfcHl0aG9uJywgJy1waCcsICc3LjAnLCAnLXRuJywgJzgnLCAnLW1hJywgJzIwMCcsICctbWV0YWxfYmluZGluZycsICctaW1hZScsICc8aW5maWxlLm1hZT4nLCAnLW9tYWUnLCAnPG91dGZpbGUubWFlPic=

> <r_lp_tautomer_probability>
0.999994

> <r_epik_Ionization_Penalty>
1.86748

> <r_epik_Ionization_Penalty_Charging>
1.86748

> <r_epik_Ionization_Penalty_Neutral>
2.87909e-06

> <r_epik_State_Penalty>
1.98622

> <r_epik_Charging_Adjusted_Penalty>
3.8537

> <i_epik_Tot_Q>
1

> <i_epik_Tot_abs_Q>
1

> <r_epik_Metal_State_Penalty>
2.01386

> <b_epik_Metal_Only>
0

> <s_lp_Force_Field>
OPLS_2005

> <r_lp_Energy>
42.4744

> <b_lp_Chiralities_Consistent>
1

> <s_lp_Variant>
AV-unprocessed.smi:1379-2

> <Gold.Version>
5.8.1

> <Gold.Id.Protein>
6NUR|6NUR_protein|mol2

> <Gold.PLP.Fitness>
38.3436

> <Gold.PLP.PLP>
-35.5731

> <Gold.PLP.part.hbond>
-1.0000

> <Gold.PLP.part.metal>
0.0000

> <Gold.PLP.part.buried>
-5.4939

> <Gold.PLP.part.nonpolar>
-28.8645

> <Gold.PLP.part.repulsive>
0.1248

> <Gold.PLP.ligand.clash>
0.0000

> <Gold.PLP.ligand.torsion>
0.1243

> <Gold.PLP.Chemscore.Hbond>
1.0000

> <Gold.PLP.Chemscore.CHOScore>
0.0000

> <Gold.PLP.Chemscore.Metal>
0.0000

> <Gold.Chemscore.Hbonds>
donor molecule, donor type, donor heavy atom, donor atom, acceptor molecule, acceptor atom, score
      P1  H  6896  6909       L1     2  1.00

> <Gold.PLP.Chemscore.Internal.Correction>
0.0191

> <Gold.Rescore>
     Score         DG    S(hbond)    S(metal)    S(lipo)     H(rot)  DE(clash)    DE(int)     intcor
     13.99     -15.26       0.94        0.00      88.45       1.44       0.02       1.25       ----

> <Gold.Chemscore.Fitness>
13.9933

> <Gold.Chemscore.DG>
-15.2603

> <Gold.Chemscore.ZeroCoef>
-5.4800

> <Gold.Chemscore.Hbond>
0.9357

> <Gold.Chemscore.Metal>
0.0000

> <Gold.Chemscore.Lipo>
88.4517

> <Gold.Chemscore.Internal_Hbond>
0.0000

> <Gold.Chemscore.DEClash>
0.0202

> <Gold.Chemscore.DEInternal>
1.2467

> <Gold.Chemscore.Rot>
1.4428

> <Gold.Chemscore.Internal.Correction>
   9.000000E+99

> <Gold.Chemscore.Hbonds>
donor molecule, donor type, donor heavy atom, donor atom, acceptor molecule, acceptor atom, score
      P1  H  6896  6909       L1     2  0.79

> <Gold.Chemscore.Hbond.Weighted>
-3.1251

> <Gold.Chemscore.Metal.Weighted>
-0.0000

> <Gold.Chemscore.Lipo.Weighted>
-10.3488

> <Gold.Chemscore.Internal_Hbond.Weighted>
0.0000

> <Gold.Chemscore.DEClash.Weighted>
0.0202

> <Gold.Chemscore.DEInternal.Weighted>
1.2467

> <Gold.Chemscore.Rot.Weighted>
3.6937

> <Gold.Chemscore.Internal.Correction.Weighted>
   9.000000E+99

> <Gold.Protein.RotatedTorsions>
[ 6907 6896 6895 6894 ] final -174.90 input  -60.11 | X-H torsion
[ 7974 7965 7964 7962 ] final   60.37 input  175.53 | X-H torsion
[ 8008 7997 7996 7995 ] final  114.05 input   59.86 | X-H torsion
[ 10167 10162 10161 10158 ] final -150.58 input  -65.29 | X-H torsion
[ 10718 10713 10712 10709 ] final  -45.32 input   66.30 | X-H torsion
[ 10763 10752 10751 10750 ] final  -91.30 input  -60.55 | X-H torsion
[ 11005 11000 10999 10996 ] final  114.69 input  -57.11 | X-H torsion

> <Gold.Protein.ActiveResidues>
 VAL166  LYS551  ARG553  GLY616  TRP617  ASP618  TYR619  PRO620  LYS621  CYS622 
 ASP623  PHE694  ASN695  SER759  ASP760  ASP761  ALA762  ILE779  LEU786  VAL792 
 PHE793  MET794  SER795  GLU796  ALA797  LYS798  CYS799  TRP800  GLU811  SER814 

> <Gold.Protein.RotatedAtoms>
  151.5798  133.3379  159.3005 H   0  0  0  0  0  0  0  0  0  0  0  0  # atno 6907 bound_to 6896
  150.8320  134.7580  159.6872 H   0  0  0  0  0  0  0  0  0  0  0  0  # atno 6908 bound_to 6896
  152.4402  134.5613  159.9946 H   0  0  0  0  0  0  0  0  0  0  0  0  # atno 6909 bound_to 6896
  145.8968  139.3551  143.0616 H   0  0  0  0  0  0  0  0  0  0  0  0  # atno 7974 bound_to 7965
  156.2297  140.2967  156.0156 H   0  0  0  0  0  0  0  0  0  0  0  0  # atno 8008 bound_to 7997
  155.2259  140.0417  157.2972 H   0  0  0  0  0  0  0  0  0  0  0  0  # atno 8009 bound_to 7997
  154.5974  140.2418  155.7845 H   0  0  0  0  0  0  0  0  0  0  0  0  # atno 8010 bound_to 7997
  139.7342  143.8762  152.2544 H   0  0  0  0  0  0  0  0  0  0  0  0  # atno 10167 bound_to 10162
  156.2295  130.4171  149.8892 H   0  0  0  0  0  0  0  0  0  0  0  0  # atno 10718 bound_to 10713
  154.6747  135.5273  153.8184 H   0  0  0  0  0  0  0  0  0  0  0  0  # atno 10763 bound_to 10752
  153.0524  135.6537  154.0670 H   0  0  0  0  0  0  0  0  0  0  0  0  # atno 10764 bound_to 10752
  154.0565  135.2965  155.3312 H   0  0  0  0  0  0  0  0  0  0  0  0  # atno 10765 bound_to 10752
  139.8988  134.9572  156.6930 H   0  0  0  0  0  0  0  0  0  0  0  0  # atno 11005 bound_to 11000
  145.8841  140.9345  143.0586 LP  0  0  0  0  0  0  0  0  0  0  0  0  # atno 17320 bound_to 7965
  144.6733  140.0818  143.7469 LP  0  0  0  0  0  0  0  0  0  0  0  0  # atno 17321 bound_to 7965
  139.8693  144.7076  150.9006 LP  0  0  0  0  0  0  0  0  0  0  0  0  # atno 17342 bound_to 10162
  140.7776  143.3751  151.1578 LP  0  0  0  0  0  0  0  0  0  0  0  0  # atno 17343 bound_to 10162
  156.6511  130.8744  151.3531 LP  0  0  0  0  0  0  0  0  0  0  0  0  # atno 17370 bound_to 10713
  157.7126  130.9459  150.1143 LP  0  0  0  0  0  0  0  0  0  0  0  0  # atno 17371 bound_to 10713
  140.7210  133.9141  155.8146 LP  0  0  0  0  0  0  0  0  0  0  0  0  # atno 17394 bound_to 11000
  141.0228  134.0866  157.4102 LP  0  0  0  0  0  0  0  0  0  0  0  0  # atno 17395 bound_to 11000

$$$$
