AV-unprocessed.smi:2510|AV-procd|sdf|9877|dock6
  -GOLD-   2272013513D 1   1.00000     0.00000
 Structure written by MMmdl.
 48 49  0  0  0  0  0  0  0  0  1 V2000
  150.4695  143.0129  158.0803 C   0  0  0  0  0  0  0  0  0  0  0  0
  151.4762  142.1149  158.8189 C   0  0  0  0  0  0  0  0  0  0  0  0
  151.5151  140.6407  158.3478 C   0  0  0  0  0  0  0  0  0  0  0  0
  152.3638  139.8240  159.3589 C   0  0  0  0  0  0  0  0  0  0  0  0
  153.7444  140.4158  159.6839 C   0  0  0  0  0  0  0  0  0  0  0  0
  150.1191  140.0801  157.9357 C   0  0  2  0  0  0  0  0  0  0  0  0
  149.9946  138.6320  158.0926 N   0  0  0  0  0  0  0  0  0  0  0  0
  148.8709  137.9869  158.4387 C   0  0  0  0  0  0  0  0  0  0  0  0
  147.7793  138.5418  158.5616 O   0  0  0  0  0  0  0  0  0  0  0  0
  149.0112  136.4898  158.7189 C   0  0  0  0  0  0  0  0  0  0  0  0
  148.3280  136.1514  160.0182 C   0  0  0  0  0  0  0  0  0  0  0  0
  148.0190  134.8585  160.5356 C   0  0  0  0  0  0  0  0  0  0  0  0
  147.3620  135.1109  161.7066 C   0  0  0  0  0  0  0  0  0  0  0  0
  146.7587  134.1925  162.7143 C   0  0  0  0  0  0  0  0  0  0  0  0
  147.3196  136.4799  161.8364 N   0  0  0  0  0  0  0  0  0  0  0  0
  147.9106  137.1264  160.8149 N   0  0  0  0  0  0  0  0  0  0  0  0
  150.4137  140.4721  156.4773 C   0  0  2  0  0  0  0  0  0  0  0  0
  149.8924  139.6356  155.3105 C   0  0  0  0  0  0  0  0  0  0  0  0
  151.9066  140.4755  156.8539 C   0  0  2  0  0  0  0  0  0  0  0  0
  152.5333  139.2213  156.6044 O   0  0  0  0  0  0  0  0  0  0  0  0
  152.9229  139.0498  155.2530 C   0  0  0  0  0  0  0  0  0  0  0  0
  146.8962  136.9794  162.6054 H   0  0  0  0  0  0  0  0  0  0  0  0
  150.5959  144.0530  158.3808 H   0  0  0  0  0  0  0  0  0  0  0  0
  149.4392  142.7393  158.3052 H   0  0  0  0  0  0  0  0  0  0  0  0
  150.6030  142.9655  156.9998 H   0  0  0  0  0  0  0  0  0  0  0  0
  152.4595  142.5675  158.6924 H   0  0  0  0  0  0  0  0  0  0  0  0
  151.2926  142.1753  159.8910 H   0  0  0  0  0  0  0  0  0  0  0  0
  151.8128  139.6542  160.2834 H   0  0  0  0  0  0  0  0  0  0  0  0
  152.5503  138.8232  158.9720 H   0  0  0  0  0  0  0  0  0  0  0  0
  154.3252  139.7160  160.2853 H   0  0  0  0  0  0  0  0  0  0  0  0
  153.6684  141.3413  160.2535 H   0  0  0  0  0  0  0  0  0  0  0  0
  154.3134  140.6195  158.7766 H   0  0  0  0  0  0  0  0  0  0  0  0
  149.2747  140.6365  158.3449 H   0  0  0  0  0  0  0  0  0  0  0  0
  150.8458  138.0929  158.0200 H   0  0  0  0  0  0  0  0  0  0  0  0
  148.5698  135.9215  157.8995 H   0  0  0  0  0  0  0  0  0  0  0  0
  150.0697  136.2267  158.7486 H   0  0  0  0  0  0  0  0  0  0  0  0
  148.2314  133.8931  160.1007 H   0  0  0  0  0  0  0  0  0  0  0  0
  147.2986  133.2461  162.7488 H   0  0  0  0  0  0  0  0  0  0  0  0
  145.7189  133.9789  162.4654 H   0  0  0  0  0  0  0  0  0  0  0  0
  146.7855  134.6312  163.7122 H   0  0  0  0  0  0  0  0  0  0  0  0
  150.0973  141.5070  156.3387 H   0  0  0  0  0  0  0  0  0  0  0  0
  150.2435  138.6046  155.3548 H   0  0  0  0  0  0  0  0  0  0  0  0
  150.2159  140.0497  154.3558 H   0  0  0  0  0  0  0  0  0  0  0  0
  148.8027  139.6106  155.3028 H   0  0  0  0  0  0  0  0  0  0  0  0
  152.4685  141.3266  156.4647 H   0  0  0  0  0  0  0  0  0  0  0  0
  153.3565  138.0585  155.1217 H   0  0  0  0  0  0  0  0  0  0  0  0
  153.6755  139.7861  154.9689 H   0  0  0  0  0  0  0  0  0  0  0  0
  152.0747  139.1397  154.5745 H   0  0  0  0  0  0  0  0  0  0  0  0
  1  2  1  0  0  0  0
  1 23  1  0  0  0  0
  1 24  1  0  0  0  0
  1 25  1  0  0  0  0
  2  3  1  0  0  0  0
  2 26  1  0  0  0  0
  2 27  1  0  0  0  0
  3 19  1  0  0  0  0
  3  4  1  0  0  0  0
  3  6  1  0  0  0  0
  4  5  1  0  0  0  0
  4 28  1  0  0  0  0
  4 29  1  0  0  0  0
  5 30  1  0  0  0  0
  5 31  1  0  0  0  0
  5 32  1  0  0  0  0
  6  7  1  0  0  0  0
  6 17  1  0  0  0  0
  6 33  1  0  0  0  0
  7  8  1  0  0  0  0
  7 34  1  0  0  0  0
  8  9  2  0  0  0  0
  8 10  1  0  0  0  0
 10 11  1  0  0  0  0
 10 35  1  0  0  0  0
 10 36  1  0  0  0  0
 11 16  2  0  0  0  0
 11 12  1  0  0  0  0
 12 13  2  0  0  0  0
 12 37  1  0  0  0  0
 13 14  1  0  0  0  0
 13 15  1  0  0  0  0
 14 38  1  0  0  0  0
 14 39  1  0  0  0  0
 14 40  1  0  0  0  0
 15 22  1  0  0  0  0
 15 16  1  0  0  0  0
 17 18  1  0  0  0  0
 17 19  1  0  0  0  0
 17 41  1  0  0  0  0
 18 42  1  0  0  0  0
 18 43  1  0  0  0  0
 18 44  1  0  0  0  0
 19 20  1  0  0  0  0
 19 45  1  0  0  0  0
 20 21  1  0  0  0  0
 21 46  1  0  0  0  0
 21 47  1  0  0  0  0
 21 48  1  0  0  0  0
M  END
> <s_m_source_file>
AV-unprocessed.smi

> <i_m_source_file_index>
2510

> <i_lp_mmshare_version>
43012

> <i_f3d_flags>
0

> <s_epik_input>
W0NIM11PW0NAQEhdMVtDQEhdKFtDSDNdKVtDQEBIXShDMShbQ0gyXVtDSDNdKVtDSDJdW0NIM10pW05IXUMoPU8pW0NIMl1jMltjSF1jKFtDSDNdKVtuSF1uMg==

> <s_epik_cmdline>
J2VwaWtfcHl0aG9uJywgJy1waCcsICc3LjAnLCAnLXRuJywgJzgnLCAnLW1hJywgJzIwMCcsICctbWV0YWxfYmluZGluZycsICctaW1hZScsICc8aW5maWxlLm1hZT4nLCAnLW9tYWUnLCAnPG91dGZpbGUubWFlPic=

> <r_lp_tautomer_probability>
0.5

> <r_epik_Ionization_Penalty>
9.73156e-05

> <r_epik_Ionization_Penalty_Charging>
0

> <r_epik_Ionization_Penalty_Neutral>
9.73156e-05

> <r_epik_State_Penalty>
0.41068

> <r_epik_Charging_Adjusted_Penalty>
0.41068

> <i_epik_Tot_Q>
0

> <i_epik_Tot_abs_Q>
0

> <r_epik_Metal_State_Penalty>
0.410699

> <b_epik_Metal_Only>
0

> <s_lp_Force_Field>
OPLS_2005

> <r_lp_Energy>
26.3407

> <b_lp_Chiralities_Consistent>
1

> <s_lp_Variant>
AV-unprocessed.smi:2510-8

> <Gold.Version>
5.8.1

> <Gold.Id.Protein>
6NUR|6NUR_protein|mol2

> <Gold.PLP.Fitness>
38.1908

> <Gold.PLP.PLP>
-34.6752

> <Gold.PLP.part.hbond>
-3.7479

> <Gold.PLP.part.metal>
0.0000

> <Gold.PLP.part.buried>
-5.0909

> <Gold.PLP.part.nonpolar>
-26.9211

> <Gold.PLP.part.repulsive>
0.2615

> <Gold.PLP.ligand.clash>
0.0000

> <Gold.PLP.ligand.torsion>
0.8214

> <Gold.PLP.Chemscore.Hbond>
1.4840

> <Gold.PLP.Chemscore.CHOScore>
0.0000

> <Gold.PLP.Chemscore.Metal>
0.0000

> <Gold.Chemscore.Hbonds>
donor molecule, donor type, donor heavy atom, donor atom, acceptor molecule, acceptor atom, score
      P1  H  6931  6943       L1    16  0.76
      P1  H  6934  6947       L1    16  0.82

> <Gold.PLP.Chemscore.Internal.Correction>
0.7065

> <Gold.Rescore>
     Score         DG    S(hbond)    S(metal)    S(lipo)     H(rot)  DE(clash)    DE(int)     intcor
     11.95     -15.68       1.24        0.00      91.47       1.81       0.38       3.35       ----

> <Gold.Chemscore.Fitness>
11.9461

> <Gold.Chemscore.DG>
-15.6769

> <Gold.Chemscore.ZeroCoef>
-5.4800

> <Gold.Chemscore.Hbond>
1.2362

> <Gold.Chemscore.Metal>
0.0000

> <Gold.Chemscore.Lipo>
91.4718

> <Gold.Chemscore.Internal_Hbond>
0.0000

> <Gold.Chemscore.DEClash>
0.3771

> <Gold.Chemscore.DEInternal>
3.3538

> <Gold.Chemscore.Rot>
1.8102

> <Gold.Chemscore.Internal.Correction>
   9.000000E+99

> <Gold.Chemscore.Hbonds>
donor molecule, donor type, donor heavy atom, donor atom, acceptor molecule, acceptor atom, score
      P1  H  6931  6943       L1    16  0.13
      P1  H  6934  6947       L1    16  0.38

> <Gold.Chemscore.Hbond.Weighted>
-4.1288

> <Gold.Chemscore.Metal.Weighted>
-0.0000

> <Gold.Chemscore.Lipo.Weighted>
-10.7022

> <Gold.Chemscore.Internal_Hbond.Weighted>
0.0000

> <Gold.Chemscore.DEClash.Weighted>
0.3771

> <Gold.Chemscore.DEInternal.Weighted>
3.3538

> <Gold.Chemscore.Rot.Weighted>
4.6341

> <Gold.Chemscore.Internal.Correction.Weighted>
   9.000000E+99

> <Gold.Protein.RotatedTorsions>
[ 6907 6896 6895 6894 ] final  -73.39 input  -60.11 | X-H torsion
[ 7974 7965 7964 7962 ] final  169.03 input  175.53 | X-H torsion
[ 8008 7997 7996 7995 ] final   75.99 input   59.86 | X-H torsion
[ 10167 10162 10161 10158 ] final   37.29 input  -65.29 | X-H torsion
[ 10718 10713 10712 10709 ] final -118.00 input   66.30 | X-H torsion
[ 10763 10752 10751 10750 ] final  -11.71 input  -60.55 | X-H torsion
[ 11005 11000 10999 10996 ] final -107.45 input  -57.11 | X-H torsion

> <Gold.Protein.ActiveResidues>
 VAL166  LYS551  ARG553  GLY616  TRP617  ASP618  TYR619  PRO620  LYS621  CYS622 
 ASP623  PHE694  ASN695  SER759  ASP760  ASP761  ALA762  ILE779  LEU786  VAL792 
 PHE793  MET794  SER795  GLU796  ALA797  LYS798  CYS799  TRP800  GLU811  SER814 

> <Gold.Protein.RotatedAtoms>
  150.7132  134.5023  159.5566 H   0  0  0  0  0  0  0  0  0  0  0  0  # atno 6907 bound_to 6896
  152.2617  134.8024  160.0438 H   0  0  0  0  0  0  0  0  0  0  0  0  # atno 6908 bound_to 6896
  151.8735  133.3445  159.3779 H   0  0  0  0  0  0  0  0  0  0  0  0  # atno 6909 bound_to 6896
  144.7368  139.8995  143.6408 H   0  0  0  0  0  0  0  0  0  0  0  0  # atno 7974 bound_to 7965
  155.8208  140.3470  155.5513 H   0  0  0  0  0  0  0  0  0  0  0  0  # atno 8008 bound_to 7997
  155.8344  140.0932  157.1793 H   0  0  0  0  0  0  0  0  0  0  0  0  # atno 8009 bound_to 7997
  154.4004  140.1406  156.3640 H   0  0  0  0  0  0  0  0  0  0  0  0  # atno 8010 bound_to 7997
  140.4046  144.1676  150.6135 H   0  0  0  0  0  0  0  0  0  0  0  0  # atno 10167 bound_to 10162
  156.1074  130.6221  150.9235 H   0  0  0  0  0  0  0  0  0  0  0  0  # atno 10718 bound_to 10713
  153.4878  135.7017  153.5901 H   0  0  0  0  0  0  0  0  0  0  0  0  # atno 10763 bound_to 10752
  153.4087  135.3854  155.2036 H   0  0  0  0  0  0  0  0  0  0  0  0  # atno 10764 bound_to 10752
  154.8718  135.3899  154.4335 H   0  0  0  0  0  0  0  0  0  0  0  0  # atno 10765 bound_to 10752
  141.0953  133.8982  157.1977 H   0  0  0  0  0  0  0  0  0  0  0  0  # atno 11005 bound_to 11000
  146.1082  139.4084  143.0304 LP  0  0  0  0  0  0  0  0  0  0  0  0  # atno 17320 bound_to 7965
  145.7481  140.9983  143.1265 LP  0  0  0  0  0  0  0  0  0  0  0  0  # atno 17321 bound_to 7965
  140.4703  143.2415  151.9098 LP  0  0  0  0  0  0  0  0  0  0  0  0  # atno 17342 bound_to 10162
  139.4784  144.5376  151.8575 LP  0  0  0  0  0  0  0  0  0  0  0  0  # atno 17343 bound_to 10162
  157.6252  131.0926  150.8547 LP  0  0  0  0  0  0  0  0  0  0  0  0  # atno 17370 bound_to 10713
  156.8663  130.5130  149.5300 LP  0  0  0  0  0  0  0  0  0  0  0  0  # atno 17371 bound_to 10713
  139.9789  135.0105  156.9699 LP  0  0  0  0  0  0  0  0  0  0  0  0  # atno 17394 bound_to 11000
  140.5154  134.0960  155.7279 LP  0  0  0  0  0  0  0  0  0  0  0  0  # atno 17395 bound_to 11000

$$$$
