AV-unprocessed.smi:2799|AV-procd|sdf|10790|dock4
  -GOLD-   2272015223D 1   1.00000     0.00000
 Structure written by MMmdl.
 52 53  0  0  0  0  0  0  0  0  2 V2000
  150.6203  132.9705  155.8933 C   0  0  0  0  0  0  0  0  0  0  0  0
  149.7793  134.0806  155.2406 C   0  0  0  0  0  0  0  0  0  0  0  0
  149.2189  133.6046  153.8925 C   0  0  0  0  0  0  0  0  0  0  0  0
  150.5822  135.3890  155.0588 C   0  0  0  0  0  0  0  0  0  0  0  0
  149.7697  136.5599  154.6230 N   0  3  1  0  0  0  0  0  0  0  0  0
  148.3916  136.5197  155.1827 C   0  0  0  0  0  0  0  0  0  0  0  0
  147.4924  137.5847  154.5352 C   0  0  0  0  0  0  0  0  0  0  0  0
  148.1030  138.9833  154.6748 C   0  0  0  0  0  0  0  0  0  0  0  0
  149.5297  138.9854  154.1096 C   0  0  0  0  0  0  0  0  0  0  0  0
  150.4185  137.9018  154.7651 C   0  0  1  0  0  0  0  0  0  0  0  0
  150.8260  138.2369  156.2265 C   0  0  0  0  0  0  0  0  0  0  0  0
  151.2150  139.6339  156.3892 N   0  0  0  0  0  0  0  0  0  0  0  0
  151.1525  140.3130  157.5433 C   0  0  0  0  0  0  0  0  0  0  0  0
  150.7402  139.8169  158.5917 O   0  0  0  0  0  0  0  0  0  0  0  0
  151.6202  141.5656  157.3919 N   0  0  0  0  0  0  0  0  0  0  0  0
  151.7306  142.5947  158.3433 C   0  0  0  0  0  0  0  0  0  0  0  0
  151.4410  143.8987  158.1049 C   0  0  0  0  0  0  0  0  0  0  0  0
  151.5895  144.8930  159.1403 C   0  0  0  0  0  0  0  0  0  0  0  0
  152.0316  144.4998  160.3429 C   0  0  0  0  0  0  0  0  0  0  0  0
  152.3487  143.1569  160.6089 N   0  0  0  0  0  0  0  0  0  0  0  0
  152.8268  142.8269  161.9539 C   0  0  0  0  0  0  0  0  0  0  0  0
  152.2251  142.1731  159.6687 C   0  0  0  0  0  0  0  0  0  0  0  0
  152.5134  141.0021  159.9283 O   0  0  0  0  0  0  0  0  0  0  0  0
  151.5023  132.7372  155.2960 H   0  0  0  0  0  0  0  0  0  0  0  0
  150.0410  132.0530  156.0003 H   0  0  0  0  0  0  0  0  0  0  0  0
  150.9583  133.2559  156.8896 H   0  0  0  0  0  0  0  0  0  0  0  0
  148.9147  134.2727  155.8752 H   0  0  0  0  0  0  0  0  0  0  0  0
  150.0181  133.3798  153.1854 H   0  0  0  0  0  0  0  0  0  0  0  0
  148.5797  134.3646  153.4419 H   0  0  0  0  0  0  0  0  0  0  0  0
  148.6180  132.7026  154.0129 H   0  0  0  0  0  0  0  0  0  0  0  0
  151.0473  135.6342  156.0147 H   0  0  0  0  0  0  0  0  0  0  0  0
  151.4085  135.2341  154.3648 H   0  0  0  0  0  0  0  0  0  0  0  0
  147.9531  135.5369  155.0052 H   0  0  0  0  0  0  0  0  0  0  0  0
  148.4219  136.6527  156.2646 H   0  0  0  0  0  0  0  0  0  0  0  0
  147.3533  137.3510  153.4788 H   0  0  0  0  0  0  0  0  0  0  0  0
  146.5013  137.5633  154.9894 H   0  0  0  0  0  0  0  0  0  0  0  0
  147.4895  139.7137  154.1465 H   0  0  0  0  0  0  0  0  0  0  0  0
  148.1112  139.2858  155.7223 H   0  0  0  0  0  0  0  0  0  0  0  0
  149.4821  138.8003  153.0354 H   0  0  0  0  0  0  0  0  0  0  0  0
  149.9728  139.9758  154.2161 H   0  0  0  0  0  0  0  0  0  0  0  0
  151.3285  137.8833  154.1673 H   0  0  0  0  0  0  0  0  0  0  0  0
  150.0055  138.0415  156.9159 H   0  0  0  0  0  0  0  0  0  0  0  0
  151.6562  137.6130  156.5579 H   0  0  0  0  0  0  0  0  0  0  0  0
  151.5669  140.1110  155.5717 H   0  0  0  0  0  0  0  0  0  0  0  0
  151.9875  141.8000  156.4809 H   0  0  0  0  0  0  0  0  0  0  0  0
  151.1076  144.2415  157.1389 H   0  0  0  0  0  0  0  0  0  0  0  0
  151.3484  145.9285  158.9503 H   0  0  0  0  0  0  0  0  0  0  0  0
  152.1676  145.1825  161.1690 H   0  0  0  0  0  0  0  0  0  0  0  0
  152.1612  142.1058  162.4307 H   0  0  0  0  0  0  0  0  0  0  0  0
  152.8817  143.6984  162.6073 H   0  0  0  0  0  0  0  0  0  0  0  0
  153.8261  142.3915  161.9097 H   0  0  0  0  0  0  0  0  0  0  0  0
  149.6496  136.4340  153.6282 H   0  0  0  0  0  0  0  0  0  0  0  0
  1  2  1  0  0  0  0
  1 24  1  0  0  0  0
  1 25  1  0  0  0  0
  1 26  1  0  0  0  0
  2  3  1  0  0  0  0
  2  4  1  0  0  0  0
  2 27  1  0  0  0  0
  3 28  1  0  0  0  0
  3 29  1  0  0  0  0
  3 30  1  0  0  0  0
  4  5  1  0  0  0  0
  4 31  1  0  0  0  0
  4 32  1  0  0  0  0
  5 10  1  0  0  0  0
  5  6  1  0  0  0  0
  5 52  1  0  0  0  0
  6  7  1  0  0  0  0
  6 33  1  0  0  0  0
  6 34  1  0  0  0  0
  7  8  1  0  0  0  0
  7 35  1  0  0  0  0
  7 36  1  0  0  0  0
  8  9  1  0  0  0  0
  8 37  1  0  0  0  0
  8 38  1  0  0  0  0
  9 10  1  0  0  0  0
  9 39  1  0  0  0  0
  9 40  1  0  0  0  0
 10 11  1  0  0  0  0
 10 41  1  0  0  0  0
 11 12  1  0  0  0  0
 11 42  1  0  0  0  0
 11 43  1  0  0  0  0
 12 13  1  0  0  0  0
 12 44  1  0  0  0  0
 13 14  2  0  0  0  0
 13 15  1  0  0  0  0
 15 16  1  0  0  0  0
 15 45  1  0  0  0  0
 16 22  1  0  0  0  0
 16 17  2  0  0  0  0
 17 18  1  0  0  0  0
 17 46  1  0  0  0  0
 18 19  2  0  0  0  0
 18 47  1  0  0  0  0
 19 20  1  0  0  0  0
 19 48  1  0  0  0  0
 20 21  1  0  0  0  0
 20 22  1  0  0  0  0
 21 49  1  0  0  0  0
 21 50  1  0  0  0  0
 21 51  1  0  0  0  0
 22 23  2  0  0  0  0
M  CHG  1   5   1
M  END
> <s_m_source_file>
AV-unprocessed.smi

> <i_m_source_file_index>
2799

> <i_lp_mmshare_version>
43012

> <i_f3d_flags>
0

> <s_epik_input>
W0NIM11bQ0hdKFtDSDNdKVtDSDJdTjFbQ0gyXVtDSDJdW0NIMl1bQ0gyXVtDQEhdMVtDSDJdW05IXUMoPU8pW05IXWMyW2NIXVtjSF1bY0hdbihbQ0gzXSljMj1P

> <s_epik_cmdline>
J2VwaWtfcHl0aG9uJywgJy1waCcsICc3LjAnLCAnLXRuJywgJzgnLCAnLW1hJywgJzIwMCcsICctbWV0YWxfYmluZGluZycsICctaW1hZScsICc8aW5maWxlLm1hZT4nLCAnLW9tYWUnLCAnPG91dGZpbGUubWFlPic=

> <r_lp_tautomer_probability>
1

> <r_epik_Ionization_Penalty>
0.0010885

> <r_epik_Ionization_Penalty_Charging>
0.00106921

> <r_epik_Ionization_Penalty_Neutral>
1.92865e-05

> <r_epik_State_Penalty>
0.000697184

> <r_epik_Charging_Adjusted_Penalty>
0.0017664

> <i_epik_Tot_Q>
1

> <i_epik_Tot_abs_Q>
1

> <r_epik_Metal_State_Penalty>
-0

> <b_epik_Metal_Only>
0

> <s_lp_Force_Field>
OPLS_2005

> <r_lp_Energy>
35.5071

> <b_lp_Chiralities_Consistent>
1

> <s_lp_Variant>
AV-unprocessed.smi:2799-2

> <Gold.Version>
5.8.1

> <Gold.Id.Protein>
6NUR|6NUR_protein|mol2

> <Gold.PLP.Fitness>
48.0182

> <Gold.PLP.PLP>
-43.6119

> <Gold.PLP.part.hbond>
-1.0000

> <Gold.PLP.part.metal>
0.0000

> <Gold.PLP.part.buried>
-4.6051

> <Gold.PLP.part.nonpolar>
-37.5543

> <Gold.PLP.part.repulsive>
0.2225

> <Gold.PLP.ligand.clash>
0.0000

> <Gold.PLP.ligand.torsion>
0.8386

> <Gold.PLP.Chemscore.Hbond>
2.0000

> <Gold.PLP.Chemscore.CHOScore>
0.0000

> <Gold.PLP.Chemscore.Metal>
0.0000

> <Gold.Chemscore.Hbonds>
donor molecule, donor type, donor heavy atom, donor atom, acceptor molecule, acceptor atom, score
      L1  H     5    52       P1  7948  2.00

> <Gold.PLP.Chemscore.Internal.Correction>
0.0835

> <Gold.Rescore>
     Score         DG    S(hbond)    S(metal)    S(lipo)     H(rot)  DE(clash)    DE(int)     intcor
     12.13     -16.74       0.98        0.00     102.63       1.57       0.00       4.61       ----

> <Gold.Chemscore.Fitness>
12.1258

> <Gold.Chemscore.DG>
-16.7360

> <Gold.Chemscore.ZeroCoef>
-5.4800

> <Gold.Chemscore.Hbond>
0.9774

> <Gold.Chemscore.Metal>
0.0000

> <Gold.Chemscore.Lipo>
102.6280

> <Gold.Chemscore.Internal_Hbond>
0.0000

> <Gold.Chemscore.DEClash>
0.0030

> <Gold.Chemscore.DEInternal>
4.6072

> <Gold.Chemscore.Rot>
1.5688

> <Gold.Chemscore.Internal.Correction>
   9.000000E+99

> <Gold.Chemscore.Hbonds>
donor molecule, donor type, donor heavy atom, donor atom, acceptor molecule, acceptor atom, score
      L1  H     5    52       P1  7948  0.50

> <Gold.Chemscore.Hbond.Weighted>
-3.2646

> <Gold.Chemscore.Metal.Weighted>
-0.0000

> <Gold.Chemscore.Lipo.Weighted>
-12.0075

> <Gold.Chemscore.Internal_Hbond.Weighted>
0.0000

> <Gold.Chemscore.DEClash.Weighted>
0.0030

> <Gold.Chemscore.DEInternal.Weighted>
4.6072

> <Gold.Chemscore.Rot.Weighted>
4.0161

> <Gold.Chemscore.Internal.Correction.Weighted>
   9.000000E+99

> <Gold.Protein.RotatedTorsions>
[ 6907 6896 6895 6894 ] final -114.96 input  -60.11 | X-H torsion
[ 7974 7965 7964 7962 ] final   54.40 input  175.53 | X-H torsion
[ 8008 7997 7996 7995 ] final   33.26 input   59.86 | X-H torsion
[ 10167 10162 10161 10158 ] final   82.86 input  -65.29 | X-H torsion
[ 10718 10713 10712 10709 ] final  -78.70 input   66.30 | X-H torsion
[ 10763 10752 10751 10750 ] final  106.73 input  -60.55 | X-H torsion
[ 11005 11000 10999 10996 ] final  -29.57 input  -57.11 | X-H torsion

> <Gold.Protein.ActiveResidues>
 VAL166  LYS551  ARG553  GLY616  TRP617  ASP618  TYR619  PRO620  LYS621  CYS622 
 ASP623  PHE694  ASN695  SER759  ASP760  ASP761  ALA762  ILE779  LEU786  VAL792 
 PHE793  MET794  SER795  GLU796  ALA797  LYS798  CYS799  TRP800  GLU811  SER814 

> <Gold.Protein.RotatedAtoms>
  150.7942  133.8726  159.3262 H   0  0  0  0  0  0  0  0  0  0  0  0  # atno 6907 bound_to 6896
  151.6556  135.0994  160.0179 H   0  0  0  0  0  0  0  0  0  0  0  0  # atno 6908 bound_to 6896
  152.4021  133.6794  159.6360 H   0  0  0  0  0  0  0  0  0  0  0  0  # atno 6909 bound_to 6896
  145.9613  139.4061  143.0247 H   0  0  0  0  0  0  0  0  0  0  0  0  # atno 7974 bound_to 7965
  155.1358  140.3261  155.4463 H   0  0  0  0  0  0  0  0  0  0  0  0  # atno 8008 bound_to 7997
  156.2620  140.2002  156.6425 H   0  0  0  0  0  0  0  0  0  0  0  0  # atno 8009 bound_to 7997
  154.6579  140.0550  157.0016 H   0  0  0  0  0  0  0  0  0  0  0  0  # atno 8010 bound_to 7997
  139.9244  144.6192  150.8407 H   0  0  0  0  0  0  0  0  0  0  0  0  # atno 10167 bound_to 10162
  156.0111  130.4525  150.3537 H   0  0  0  0  0  0  0  0  0  0  0  0  # atno 10718 bound_to 10713
  153.3970  135.3867  155.1962 H   0  0  0  0  0  0  0  0  0  0  0  0  # atno 10763 bound_to 10752
  154.8725  135.3762  154.4666 H   0  0  0  0  0  0  0  0  0  0  0  0  # atno 10764 bound_to 10752
  153.5159  135.7087  153.5818 H   0  0  0  0  0  0  0  0  0  0  0  0  # atno 10765 bound_to 10752
  140.9308  133.7339  156.0933 H   0  0  0  0  0  0  0  0  0  0  0  0  # atno 11005 bound_to 11000
  145.8036  140.9759  143.0985 LP  0  0  0  0  0  0  0  0  0  0  0  0  # atno 17320 bound_to 7965
  144.6815  139.9833  143.7483 LP  0  0  0  0  0  0  0  0  0  0  0  0  # atno 17321 bound_to 7965
  140.7654  143.3274  151.2486 LP  0  0  0  0  0  0  0  0  0  0  0  0  # atno 17342 bound_to 10162
  139.6834  143.9815  152.2821 LP  0  0  0  0  0  0  0  0  0  0  0  0  # atno 17343 bound_to 10162
  157.1628  131.0349  151.2832 LP  0  0  0  0  0  0  0  0  0  0  0  0  # atno 17370 bound_to 10713
  157.4296  130.7483  149.6979 LP  0  0  0  0  0  0  0  0  0  0  0  0  # atno 17371 bound_to 10713
  140.7865  134.3666  157.5475 LP  0  0  0  0  0  0  0  0  0  0  0  0  # atno 17394 bound_to 11000
  139.8796  134.9114  156.3036 LP  0  0  0  0  0  0  0  0  0  0  0  0  # atno 17395 bound_to 11000

$$$$
