AV-unprocessed.smi:2994|AV-procd|sdf|11404|dock6
  -GOLD-   2272016323D 1   1.00000     0.00000
 Structure written by MMmdl.
 47 49  0  0  0  0  0  0  0  0  1 V2000
  145.7849  137.3588  150.8779 C   0  0  0  0  0  0  0  0  0  0  0  0
  145.8831  137.9859  152.2785 C   0  0  2  0  0  0  0  0  0  0  0  0
  147.2472  137.8631  152.7850 N   0  0  0  0  0  0  0  0  0  0  0  0
  147.7726  138.5759  153.7922 C   0  0  0  0  0  0  0  0  0  0  0  0
  147.1478  139.4372  154.4105 O   0  0  0  0  0  0  0  0  0  0  0  0
  149.0535  138.2311  154.0110 N   0  0  0  0  0  0  0  0  0  0  0  0
  149.9768  138.7625  154.9532 C   0  0  0  0  0  0  0  0  0  0  0  0
  151.3772  138.8323  154.7582 C   0  0  0  0  0  0  0  0  0  0  0  0
  152.1787  139.3893  155.7727 C   0  0  0  0  0  0  0  0  0  0  0  0
  151.5583  139.8601  156.9515 C   0  0  0  0  0  0  0  0  0  0  0  0
  152.3778  140.4789  158.0460 C   0  0  0  0  0  0  0  0  0  0  0  0
  153.4697  139.9786  158.3198 O   0  0  0  0  0  0  0  0  0  0  0  0
  151.8711  141.5555  158.6988 N   0  0  0  0  0  0  0  0  0  0  0  0
  150.7478  142.3888  158.2400 C   0  0  0  0  0  0  0  0  0  0  0  0
  151.2946  143.7457  157.7581 C   0  0  0  0  0  0  0  0  0  0  0  0
  152.1155  144.4379  158.8617 C   0  0  0  0  0  0  0  0  0  0  0  0
  153.1761  143.4918  159.4531 C   0  0  0  0  0  0  0  0  0  0  0  0
  152.5447  142.1488  159.8620 C   0  0  0  0  0  0  0  0  0  0  0  0
  150.2195  139.8202  157.1327 N   0  0  0  0  0  0  0  0  0  0  0  0
  149.4575  139.2831  156.1568 C   0  0  0  0  0  0  0  0  0  0  0  0
  144.8602  137.3710  153.2150 C   0  0  0  0  0  0  0  0  0  0  0  0
  144.4863  135.9119  153.1083 C   0  0  0  0  0  0  0  0  0  0  0  0
  143.4863  136.9800  152.7259 C   0  0  0  0  0  0  0  0  0  0  0  0
  144.7795  137.4681  150.4702 H   0  0  0  0  0  0  0  0  0  0  0  0
  146.0196  136.2942  150.9021 H   0  0  0  0  0  0  0  0  0  0  0  0
  146.4714  137.8355  150.1777 H   0  0  0  0  0  0  0  0  0  0  0  0
  145.6437  139.0476  152.1899 H   0  0  0  0  0  0  0  0  0  0  0  0
  147.8357  137.1788  152.3329 H   0  0  0  0  0  0  0  0  0  0  0  0
  149.4341  137.5374  153.3840 H   0  0  0  0  0  0  0  0  0  0  0  0
  151.8548  138.4853  153.8559 H   0  0  0  0  0  0  0  0  0  0  0  0
  153.2495  139.4540  155.6449 H   0  0  0  0  0  0  0  0  0  0  0  0
  150.1643  141.9422  157.4369 H   0  0  0  0  0  0  0  0  0  0  0  0
  150.0502  142.5365  159.0655 H   0  0  0  0  0  0  0  0  0  0  0  0
  151.9213  143.5920  156.8785 H   0  0  0  0  0  0  0  0  0  0  0  0
  150.4740  144.3911  157.4437 H   0  0  0  0  0  0  0  0  0  0  0  0
  152.5884  145.3399  158.4723 H   0  0  0  0  0  0  0  0  0  0  0  0
  151.4426  144.7615  159.6568 H   0  0  0  0  0  0  0  0  0  0  0  0
  153.9621  143.3158  158.7172 H   0  0  0  0  0  0  0  0  0  0  0  0
  153.6555  143.9591  160.3138 H   0  0  0  0  0  0  0  0  0  0  0  0
  151.8143  142.3054  160.6571 H   0  0  0  0  0  0  0  0  0  0  0  0
  153.3055  141.4923  160.2869 H   0  0  0  0  0  0  0  0  0  0  0  0
  148.3941  139.2661  156.3472 H   0  0  0  0  0  0  0  0  0  0  0  0
  144.9067  137.7668  154.2281 H   0  0  0  0  0  0  0  0  0  0  0  0
  144.9314  135.3307  152.3030 H   0  0  0  0  0  0  0  0  0  0  0  0
  144.3149  135.3693  154.0358 H   0  0  0  0  0  0  0  0  0  0  0  0
  142.6472  137.1469  153.3983 H   0  0  0  0  0  0  0  0  0  0  0  0
  143.2687  137.1079  151.6675 H   0  0  0  0  0  0  0  0  0  0  0  0
  1  2  1  0  0  0  0
  1 24  1  0  0  0  0
  1 25  1  0  0  0  0
  1 26  1  0  0  0  0
  2  3  1  0  0  0  0
  2 21  1  0  0  0  0
  2 27  1  0  0  0  0
  3  4  1  0  0  0  0
  3 28  1  0  0  0  0
  4  5  2  0  0  0  0
  4  6  1  0  0  0  0
  6  7  1  0  0  0  0
  6 29  1  0  0  0  0
  7 20  1  0  0  0  0
  7  8  2  0  0  0  0
  8  9  1  0  0  0  0
  8 30  1  0  0  0  0
  9 10  2  0  0  0  0
  9 31  1  0  0  0  0
 10 11  1  0  0  0  0
 10 19  1  0  0  0  0
 11 12  2  0  0  0  0
 11 13  1  0  0  0  0
 13 18  1  0  0  0  0
 13 14  1  0  0  0  0
 14 15  1  0  0  0  0
 14 32  1  0  0  0  0
 14 33  1  0  0  0  0
 15 16  1  0  0  0  0
 15 34  1  0  0  0  0
 15 35  1  0  0  0  0
 16 17  1  0  0  0  0
 16 36  1  0  0  0  0
 16 37  1  0  0  0  0
 17 18  1  0  0  0  0
 17 38  1  0  0  0  0
 17 39  1  0  0  0  0
 18 40  1  0  0  0  0
 18 41  1  0  0  0  0
 19 20  2  0  0  0  0
 20 42  1  0  0  0  0
 21 23  1  0  0  0  0
 21 22  1  0  0  0  0
 21 43  1  0  0  0  0
 22 23  1  0  0  0  0
 22 44  1  0  0  0  0
 22 45  1  0  0  0  0
 23 46  1  0  0  0  0
 23 47  1  0  0  0  0
M  END
> <s_m_source_file>
AV-unprocessed.smi

> <i_m_source_file_index>
2994

> <i_lp_mmshare_version>
43012

> <i_f3d_flags>
0

> <s_epik_input>
W0NIMl0xW0NIMl1bQ0hdMVtDQEhdKFtDSDNdKVtOSF1DKD1PKVtOSF1jMltjSF1bY0hdYyhuW2NIXTIpQyg9TylOM1tDSDJdW0NIMl1bQ0gyXVtDSDJdW0NIMl0z

> <s_epik_cmdline>
J2VwaWtfcHl0aG9uJywgJy1waCcsICc3LjAnLCAnLXRuJywgJzgnLCAnLW1hJywgJzIwMCcsICctbWV0YWxfYmluZGluZycsICctaW1hZScsICc8aW5maWxlLm1hZT4nLCAnLW9tYWUnLCAnPG91dGZpbGUubWFlPic=

> <r_lp_tautomer_probability>
1

> <r_epik_Ionization_Penalty>
4.52104e-05

> <r_epik_Ionization_Penalty_Charging>
0

> <r_epik_Ionization_Penalty_Neutral>
4.52104e-05

> <r_epik_State_Penalty>
-0

> <r_epik_Charging_Adjusted_Penalty>
0

> <i_epik_Tot_Q>
0

> <i_epik_Tot_abs_Q>
0

> <r_epik_Metal_State_Penalty>
-0

> <b_epik_Metal_Only>
0

> <s_lp_Force_Field>
OPLS_2005

> <r_lp_Energy>
45.7479

> <b_lp_Chiralities_Consistent>
1

> <s_lp_Variant>
AV-unprocessed.smi:2994-1

> <Gold.Version>
5.8.1

> <Gold.Id.Protein>
6NUR|6NUR_protein|mol2

> <Gold.PLP.Fitness>
48.6218

> <Gold.PLP.PLP>
-41.1539

> <Gold.PLP.part.hbond>
-2.9487

> <Gold.PLP.part.metal>
0.0000

> <Gold.PLP.part.buried>
2.9730

> <Gold.PLP.part.nonpolar>
-41.9582

> <Gold.PLP.part.repulsive>
0.2052

> <Gold.PLP.ligand.clash>
0.0000

> <Gold.PLP.ligand.torsion>
1.5618

> <Gold.PLP.Chemscore.Hbond>
2.8710

> <Gold.PLP.Chemscore.CHOScore>
0.0000

> <Gold.PLP.Chemscore.Metal>
0.0000

> <Gold.Chemscore.Hbonds>
donor molecule, donor type, donor heavy atom, donor atom, acceptor molecule, acceptor atom, score
      L1  H     3    28       P1  7948  0.99
      L1  H     6    29       P1  7948  0.89
      P1  H  7997  8009       L1    12  1.00

> <Gold.PLP.Chemscore.Internal.Correction>
1.9785

> <Gold.Rescore>
     Score         DG    S(hbond)    S(metal)    S(lipo)     H(rot)  DE(clash)    DE(int)     intcor
     19.25     -25.25       2.82        0.00     113.49       1.14       1.87       4.13       ----

> <Gold.Chemscore.Fitness>
19.2478

> <Gold.Chemscore.DG>
-25.2456

> <Gold.Chemscore.ZeroCoef>
-5.4800

> <Gold.Chemscore.Hbond>
2.8161

> <Gold.Chemscore.Metal>
0.0000

> <Gold.Chemscore.Lipo>
113.4860

> <Gold.Chemscore.Internal_Hbond>
0.0000

> <Gold.Chemscore.DEClash>
1.8704

> <Gold.Chemscore.DEInternal>
4.1275

> <Gold.Chemscore.Rot>
1.1399

> <Gold.Chemscore.Internal.Correction>
   9.000000E+99

> <Gold.Chemscore.Hbonds>
donor molecule, donor type, donor heavy atom, donor atom, acceptor molecule, acceptor atom, score
      L1  H     3    28       P1  7948  0.92
      L1  H     6    29       P1  7948  0.77
      P1  H  7997  8009       L1    12  0.93

> <Gold.Chemscore.Hbond.Weighted>
-9.4058

> <Gold.Chemscore.Metal.Weighted>
-0.0000

> <Gold.Chemscore.Lipo.Weighted>
-13.2779

> <Gold.Chemscore.Internal_Hbond.Weighted>
0.0000

> <Gold.Chemscore.DEClash.Weighted>
1.8704

> <Gold.Chemscore.DEInternal.Weighted>
4.1275

> <Gold.Chemscore.Rot.Weighted>
2.9180

> <Gold.Chemscore.Internal.Correction.Weighted>
   9.000000E+99

> <Gold.Protein.RotatedTorsions>
[ 6907 6896 6895 6894 ] final -134.24 input  -60.11 | X-H torsion
[ 7974 7965 7964 7962 ] final   67.27 input  175.53 | X-H torsion
[ 8008 7997 7996 7995 ] final  140.38 input   59.86 | X-H torsion
[ 10167 10162 10161 10158 ] final  -79.27 input  -65.29 | X-H torsion
[ 10718 10713 10712 10709 ] final -119.37 input   66.30 | X-H torsion
[ 10763 10752 10751 10750 ] final  163.51 input  -60.55 | X-H torsion
[ 11005 11000 10999 10996 ] final  145.71 input  -57.11 | X-H torsion

> <Gold.Protein.ActiveResidues>
 VAL166  LYS551  ARG553  GLY616  TRP617  ASP618  TYR619  PRO620  LYS621  CYS622 
 ASP623  PHE694  ASN695  SER759  ASP760  ASP761  ALA762  ILE779  LEU786  VAL792 
 PHE793  MET794  SER795  GLU796  ALA797  LYS798  CYS799  TRP800  GLU811  SER814 

> <Gold.Protein.RotatedAtoms>
  150.9835  133.6221  159.2718 H   0  0  0  0  0  0  0  0  0  0  0  0  # atno 6907 bound_to 6896
  151.3467  135.0874  159.9399 H   0  0  0  0  0  0  0  0  0  0  0  0  # atno 6908 bound_to 6896
  152.5223  133.9436  159.7693 H   0  0  0  0  0  0  0  0  0  0  0  0  # atno 6909 bound_to 6896
  145.8166  139.3062  143.1068 H   0  0  0  0  0  0  0  0  0  0  0  0  # atno 7974 bound_to 7965
  156.2979  140.2343  156.4392 H   0  0  0  0  0  0  0  0  0  0  0  0  # atno 8008 bound_to 7997
  154.8201  140.0438  157.1425 H   0  0  0  0  0  0  0  0  0  0  0  0  # atno 8009 bound_to 7997
  154.9325  140.3018  155.5164 H   0  0  0  0  0  0  0  0  0  0  0  0  # atno 8010 bound_to 7997
  140.4608  143.2454  151.8351 H   0  0  0  0  0  0  0  0  0  0  0  0  # atno 10167 bound_to 10162
  156.1176  130.6298  150.9408 H   0  0  0  0  0  0  0  0  0  0  0  0  # atno 10718 bound_to 10713
  154.2948  135.2760  155.2638 H   0  0  0  0  0  0  0  0  0  0  0  0  # atno 10763 bound_to 10752
  154.5101  135.5784  153.6602 H   0  0  0  0  0  0  0  0  0  0  0  0  # atno 10764 bound_to 10752
  152.9909  135.6179  154.3115 H   0  0  0  0  0  0  0  0  0  0  0  0  # atno 10765 bound_to 10752
  140.0734  134.9139  157.1383 H   0  0  0  0  0  0  0  0  0  0  0  0  # atno 11005 bound_to 11000
  145.9720  140.8753  143.0158 LP  0  0  0  0  0  0  0  0  0  0  0  0  # atno 17320 bound_to 7965
  144.6752  140.1959  143.7392 LP  0  0  0  0  0  0  0  0  0  0  0  0  # atno 17321 bound_to 7965
  139.4806  144.5009  151.9061 LP  0  0  0  0  0  0  0  0  0  0  0  0  # atno 17342 bound_to 10162
  140.4095  144.2387  150.5889 LP  0  0  0  0  0  0  0  0  0  0  0  0  # atno 17343 bound_to 10162
  157.6360  131.0916  150.8348 LP  0  0  0  0  0  0  0  0  0  0  0  0  # atno 17370 bound_to 10713
  156.8449  130.5061  149.5317 LP  0  0  0  0  0  0  0  0  0  0  0  0  # atno 17371 bound_to 10713
  140.3593  134.2511  155.7189 LP  0  0  0  0  0  0  0  0  0  0  0  0  # atno 17394 bound_to 11000
  141.2020  133.7948  157.0411 LP  0  0  0  0  0  0  0  0  0  0  0  0  # atno 17395 bound_to 11000

$$$$
