AV-unprocessed.smi:813|AV-procd|sdf|3819|dock4
  -GOLD-   22720 1263D 1   1.00000     0.00000
 Structure written by MMmdl.
 35 36  0  0  0  0  0  0  0  0  2 V2000
  150.3602  138.5970  155.8110 C   0  0  0  0  0  0  0  0  0  0  0  0
  150.3176  138.9088  157.3162 C   0  0  2  0  0  0  0  0  0  0  0  0
  149.2217  138.1415  157.9082 N   0  0  0  0  0  0  0  0  0  0  0  0
  149.3455  137.1671  158.8223 C   0  0  0  0  0  0  0  0  0  0  0  0
  150.4641  136.8459  159.2312 O   0  0  0  0  0  0  0  0  0  0  0  0
  148.1670  136.6244  159.2038 N   0  5  0  0  0  0  0  0  0  0  0  0
  147.9677  136.2883  160.4889 C   0  0  0  0  0  0  0  0  0  0  0  0
  147.9630  137.1977  161.4769 N   0  0  0  0  0  0  0  0  0  0  0  0
  147.7344  136.6427  162.7287 N   0  0  0  0  0  0  0  0  0  0  0  0
  147.5643  135.3231  162.6513 C   0  0  0  0  0  0  0  0  0  0  0  0
  147.6654  134.6390  161.0426 S   0  0  0  0  0  0  0  0  0  0  0  0
  150.0792  140.4175  157.4891 C   0  0  0  0  0  0  0  0  0  0  0  0
  149.1105  140.9660  156.9608 O   0  0  0  0  0  0  0  0  0  0  0  0
  150.9859  141.0774  158.2255 N   0  0  0  0  0  0  0  0  0  0  0  0
  150.9460  142.5057  158.5266 C   0  0  0  0  0  0  0  0  0  0  0  0
  151.1641  143.3417  157.2507 C   0  0  0  0  0  0  0  0  0  0  0  0
  152.2295  144.3819  157.6024 C   0  0  0  0  0  0  0  0  0  0  0  0
  153.0810  143.7022  158.6698 C   0  0  0  0  0  0  0  0  0  0  0  0
  152.0736  142.9059  159.4992 C   0  0  0  0  0  0  0  0  0  0  0  0
  151.1645  139.1426  155.3159 H   0  0  0  0  0  0  0  0  0  0  0  0
  149.4244  138.8587  155.3143 H   0  0  0  0  0  0  0  0  0  0  0  0
  150.5367  137.5346  155.6398 H   0  0  0  0  0  0  0  0  0  0  0  0
  151.2648  138.6182  157.7749 H   0  0  0  0  0  0  0  0  0  0  0  0
  148.2874  138.3778  157.6086 H   0  0  0  0  0  0  0  0  0  0  0  0
  147.3756  134.7496  163.5462 H   0  0  0  0  0  0  0  0  0  0  0  0
  151.7468  140.5469  158.6239 H   0  0  0  0  0  0  0  0  0  0  0  0
  149.9798  142.7616  158.9652 H   0  0  0  0  0  0  0  0  0  0  0  0
  151.5358  142.7152  156.4379 H   0  0  0  0  0  0  0  0  0  0  0  0
  150.2418  143.8066  156.9011 H   0  0  0  0  0  0  0  0  0  0  0  0
  152.8120  144.6962  156.7360 H   0  0  0  0  0  0  0  0  0  0  0  0
  151.7539  145.2686  158.0238 H   0  0  0  0  0  0  0  0  0  0  0  0
  153.7879  143.0195  158.1963 H   0  0  0  0  0  0  0  0  0  0  0  0
  153.6515  144.4118  159.2696 H   0  0  0  0  0  0  0  0  0  0  0  0
  151.6624  143.5478  160.2793 H   0  0  0  0  0  0  0  0  0  0  0  0
  152.5394  142.0554  159.9999 H   0  0  0  0  0  0  0  0  0  0  0  0
  1  2  1  0  0  0  0
  1 20  1  0  0  0  0
  1 21  1  0  0  0  0
  1 22  1  0  0  0  0
  2  3  1  0  0  0  0
  2 12  1  0  0  0  0
  2 23  1  0  0  0  0
  3  4  1  0  0  0  0
  3 24  1  0  0  0  0
  4  5  2  0  0  0  0
  4  6  1  0  0  0  0
  6  7  1  0  0  0  0
  7 11  1  0  0  0  0
  7  8  2  0  0  0  0
  8  9  1  0  0  0  0
  9 10  2  0  0  0  0
 10 11  1  0  0  0  0
 10 25  1  0  0  0  0
 12 13  2  0  0  0  0
 12 14  1  0  0  0  0
 14 15  1  0  0  0  0
 14 26  1  0  0  0  0
 15 19  1  0  0  0  0
 15 16  1  0  0  0  0
 15 27  1  0  0  0  0
 16 17  1  0  0  0  0
 16 28  1  0  0  0  0
 16 29  1  0  0  0  0
 17 18  1  0  0  0  0
 17 30  1  0  0  0  0
 17 31  1  0  0  0  0
 18 19  1  0  0  0  0
 18 32  1  0  0  0  0
 18 33  1  0  0  0  0
 19 34  1  0  0  0  0
 19 35  1  0  0  0  0
M  CHG  1   6  -1
M  END
> <s_m_source_file>
AV-unprocessed.smi

> <i_m_source_file_index>
813

> <i_lp_mmshare_version>
43012

> <i_f3d_flags>
0

> <s_epik_input>
W0NIMl0xW0NIMl1bQ0gyXVtDSDJdW0NIXTFbTkhdQyg9TylbQ0BIXShbQ0gzXSlbTkhdQyg9TylbTkhdYzJubltjSF1zMg==

> <s_epik_cmdline>
J2VwaWtfcHl0aG9uJywgJy1waCcsICc3LjAnLCAnLXRuJywgJzgnLCAnLW1hJywgJzIwMCcsICctbWV0YWxfYmluZGluZycsICctaW1hZScsICc8aW5maWxlLm1hZT4nLCAnLW9tYWUnLCAnPG91dGZpbGUubWFlPic=

> <r_lp_tautomer_probability>
1

> <r_epik_Ionization_Penalty>
3.13682

> <r_epik_Ionization_Penalty_Charging>
3.09647

> <r_epik_Ionization_Penalty_Neutral>
0.0403479

> <r_epik_State_Penalty>
3.09328

> <r_epik_Charging_Adjusted_Penalty>
6.18976

> <i_epik_Tot_Q>
-1

> <i_epik_Tot_abs_Q>
1

> <r_epik_Metal_State_Penalty>
0.461392

> <b_epik_Metal_Only>
1

> <s_lp_Force_Field>
OPLS_2005

> <r_lp_Energy>
16.0843

> <b_lp_Chiralities_Consistent>
1

> <s_lp_Variant>
AV-unprocessed.smi:813-3

> <Gold.Version>
5.8.1

> <Gold.Id.Protein>
6NUR|6NUR_protein|mol2

> <Gold.PLP.Fitness>
41.3911

> <Gold.PLP.PLP>
-35.1903

> <Gold.PLP.part.hbond>
-3.3822

> <Gold.PLP.part.metal>
0.0000

> <Gold.PLP.part.buried>
-5.1941

> <Gold.PLP.part.nonpolar>
-26.8869

> <Gold.PLP.part.repulsive>
0.2904

> <Gold.PLP.ligand.clash>
0.0000

> <Gold.PLP.ligand.torsion>
0.9823

> <Gold.PLP.Chemscore.Hbond>
2.7040

> <Gold.PLP.Chemscore.CHOScore>
0.0000

> <Gold.PLP.Chemscore.Metal>
0.0000

> <Gold.Chemscore.Hbonds>
donor molecule, donor type, donor heavy atom, donor atom, acceptor molecule, acceptor atom, score
      P1  H  6896  6907       L1     5  1.00
      P1  H  6931  6943       L1     8  0.90
      P1  H  6934  6947       L1     8  0.63

> <Gold.PLP.Chemscore.Internal.Correction>
0.0534

> <Gold.Rescore>
     Score         DG    S(hbond)    S(metal)    S(lipo)     H(rot)  DE(clash)    DE(int)     intcor
     17.11     -18.50       2.39        0.00      80.85       1.72       0.01       1.38       ----

> <Gold.Chemscore.Fitness>
17.1106

> <Gold.Chemscore.DG>
-18.5042

> <Gold.Chemscore.ZeroCoef>
-5.4800

> <Gold.Chemscore.Hbond>
2.3852

> <Gold.Chemscore.Metal>
0.0000

> <Gold.Chemscore.Lipo>
80.8483

> <Gold.Chemscore.Internal_Hbond>
0.0000

> <Gold.Chemscore.DEClash>
0.0134

> <Gold.Chemscore.DEInternal>
1.3802

> <Gold.Chemscore.Rot>
1.7194

> <Gold.Chemscore.Internal.Correction>
   9.000000E+99

> <Gold.Chemscore.Hbonds>
donor molecule, donor type, donor heavy atom, donor atom, acceptor molecule, acceptor atom, score
      P1  H  6896  6907       L1     5  0.94
      P1  H  6931  6943       L1     8  0.17
      P1  H  6934  6947       L1     8  0.53

> <Gold.Chemscore.Hbond.Weighted>
-7.9666

> <Gold.Chemscore.Metal.Weighted>
-0.0000

> <Gold.Chemscore.Lipo.Weighted>
-9.4592

> <Gold.Chemscore.Internal_Hbond.Weighted>
0.0000

> <Gold.Chemscore.DEClash.Weighted>
0.0134

> <Gold.Chemscore.DEInternal.Weighted>
1.3802

> <Gold.Chemscore.Rot.Weighted>
4.4016

> <Gold.Chemscore.Internal.Correction.Weighted>
   9.000000E+99

> <Gold.Protein.RotatedTorsions>
[ 6907 6896 6895 6894 ] final  -41.68 input  -60.11 | X-H torsion
[ 7974 7965 7964 7962 ] final   81.30 input  175.53 | X-H torsion
[ 8008 7997 7996 7995 ] final  132.56 input   59.86 | X-H torsion
[ 10167 10162 10161 10158 ] final  150.35 input  -65.29 | X-H torsion
[ 10718 10713 10712 10709 ] final   25.74 input   66.30 | X-H torsion
[ 10763 10752 10751 10750 ] final   74.33 input  -60.55 | X-H torsion
[ 11005 11000 10999 10996 ] final   -6.39 input  -57.11 | X-H torsion

> <Gold.Protein.ActiveResidues>
 VAL166  LYS551  ARG553  GLY616  TRP617  ASP618  TYR619  PRO620  LYS621  CYS622 
 ASP623  PHE694  ASN695  SER759  ASP760  ASP761  ALA762  ILE779  LEU786  VAL792 
 PHE793  MET794  SER795  GLU796  ALA797  LYS798  CYS799  TRP800  GLU811  SER814 

> <Gold.Protein.RotatedAtoms>
  150.9640  134.9023  159.7747 H   0  0  0  0  0  0  0  0  0  0  0  0  # atno 6907 bound_to 6896
  152.5166  134.3634  159.9302 H   0  0  0  0  0  0  0  0  0  0  0  0  # atno 6908 bound_to 6896
  151.3645  133.3837  159.2728 H   0  0  0  0  0  0  0  0  0  0  0  0  # atno 6909 bound_to 6896
  145.6399  139.2423  143.2036 H   0  0  0  0  0  0  0  0  0  0  0  0  # atno 7974 bound_to 7965
  156.2984  140.2543  156.3109 H   0  0  0  0  0  0  0  0  0  0  0  0  # atno 8008 bound_to 7997
  154.9327  140.0398  157.2075 H   0  0  0  0  0  0  0  0  0  0  0  0  # atno 8009 bound_to 7997
  154.8202  140.2859  155.5796 H   0  0  0  0  0  0  0  0  0  0  0  0  # atno 8010 bound_to 7997
  139.4851  144.5529  151.7368 H   0  0  0  0  0  0  0  0  0  0  0  0  # atno 10167 bound_to 10162
  157.1974  130.6874  149.6174 H   0  0  0  0  0  0  0  0  0  0  0  0  # atno 10718 bound_to 10713
  153.0580  135.5030  154.8026 H   0  0  0  0  0  0  0  0  0  0  0  0  # atno 10763 bound_to 10752
  154.6837  135.2972  154.9579 H   0  0  0  0  0  0  0  0  0  0  0  0  # atno 10764 bound_to 10752
  154.0356  135.6723  153.4837 H   0  0  0  0  0  0  0  0  0  0  0  0  # atno 10765 bound_to 10752
  140.7015  133.8986  155.8686 H   0  0  0  0  0  0  0  0  0  0  0  0  # atno 11005 bound_to 11000
  146.1289  140.7212  142.9422 LP  0  0  0  0  0  0  0  0  0  0  0  0  # atno 17320 bound_to 7965
  144.7161  140.4215  143.7043 LP  0  0  0  0  0  0  0  0  0  0  0  0  # atno 17321 bound_to 7965
  140.5086  144.1059  150.5989 LP  0  0  0  0  0  0  0  0  0  0  0  0  # atno 17342 bound_to 10162
  140.3977  143.2719  151.9985 LP  0  0  0  0  0  0  0  0  0  0  0  0  # atno 17343 bound_to 10162
  155.9704  130.4594  150.6035 LP  0  0  0  0  0  0  0  0  0  0  0  0  # atno 17370 bound_to 10713
  157.3801  131.0779  151.1484 LP  0  0  0  0  0  0  0  0  0  0  0  0  # atno 17371 bound_to 10713
  141.0160  134.0955  157.4172 LP  0  0  0  0  0  0  0  0  0  0  0  0  # atno 17394 bound_to 11000
  139.8895  135.0106  156.6685 LP  0  0  0  0  0  0  0  0  0  0  0  0  # atno 17395 bound_to 11000

$$$$
