AV-unprocessed.smi:1510|AV-procd|sdf|6096|dock5
  -GOLD-   22720 6223D 1   1.00000     0.00000
 Structure written by MMmdl.
 33 34  0  0  0  0  0  0  0  0  1 V2000
  151.0216  140.0941  158.3936 O   0  0  0  0  0  0  0  0  0  0  0  0
  152.2452  140.0568  158.2581 C   0  0  0  0  0  0  0  0  0  0  0  0
  152.8784  139.2454  157.1199 C   0  0  0  0  0  0  0  0  0  0  0  0
  151.9066  138.8650  156.0853 N   0  0  0  0  0  0  0  0  0  0  0  0
  151.2640  139.9381  155.4864 N   0  0  0  0  0  0  0  0  0  0  0  0
  150.3975  139.7307  154.5534 C   0  0  0  0  0  0  0  0  0  0  0  0
  149.7886  140.8215  153.9833 O   0  0  0  0  0  0  0  0  0  0  0  0
  150.0728  138.3904  154.1170 C   0  0  0  0  0  0  0  0  0  0  0  0
  150.7015  137.3513  154.7090 C   0  0  0  0  0  0  0  0  0  0  0  0
  151.6924  137.5508  155.7680 C   0  0  0  0  0  0  0  0  0  0  0  0
  152.2817  136.6237  156.3236 O   0  0  0  0  0  0  0  0  0  0  0  0
  153.0965  140.6908  159.0782 N   0  0  0  0  0  0  0  0  0  0  0  0
  152.7079  141.5418  160.1972 C   0  0  0  0  0  0  0  0  0  0  0  0
  152.8212  143.0385  159.8553 C   0  0  2  0  0  0  0  0  0  0  0  0
  152.1116  143.9772  160.8291 C   0  0  0  0  0  0  0  0  0  0  0  0
  151.8746  145.2230  159.9923 C   0  0  0  0  0  0  0  0  0  0  0  0
  151.9906  144.7294  158.5459 C   0  0  0  0  0  0  0  0  0  0  0  0
  152.1629  143.3204  158.6316 O   0  0  0  0  0  0  0  0  0  0  0  0
  149.7733  140.6432  153.0555 H   0  0  0  0  0  0  0  0  0  0  0  0
  153.6984  139.8077  156.6687 H   0  0  0  0  0  0  0  0  0  0  0  0
  153.3380  138.3563  157.5553 H   0  0  0  0  0  0  0  0  0  0  0  0
  149.3434  138.2347  153.3358 H   0  0  0  0  0  0  0  0  0  0  0  0
  150.4689  136.3450  154.3931 H   0  0  0  0  0  0  0  0  0  0  0  0
  154.0857  140.5991  158.8980 H   0  0  0  0  0  0  0  0  0  0  0  0
  151.6917  141.3014  160.5135 H   0  0  0  0  0  0  0  0  0  0  0  0
  153.3581  141.3044  161.0396 H   0  0  0  0  0  0  0  0  0  0  0  0
  153.8688  143.3299  159.7587 H   0  0  0  0  0  0  0  0  0  0  0  0
  151.1544  143.5514  161.1330 H   0  0  0  0  0  0  0  0  0  0  0  0
  152.6956  144.1739  161.7289 H   0  0  0  0  0  0  0  0  0  0  0  0
  150.8987  145.6623  160.2006 H   0  0  0  0  0  0  0  0  0  0  0  0
  152.6334  145.9793  160.1954 H   0  0  0  0  0  0  0  0  0  0  0  0
  151.1102  144.9730  157.9508 H   0  0  0  0  0  0  0  0  0  0  0  0
  152.8616  145.1700  158.0590 H   0  0  0  0  0  0  0  0  0  0  0  0
  1  2  2  0  0  0  0
  2  3  1  0  0  0  0
  2 12  1  0  0  0  0
  3 20  1  0  0  0  0
  3 21  1  0  0  0  0
  3  4  1  0  0  0  0
  4  5  1  0  0  0  0
  4 10  1  0  0  0  0
  5  6  2  0  0  0  0
  6  7  1  0  0  0  0
  6  8  1  0  0  0  0
  7 19  1  0  0  0  0
  8 22  1  0  0  0  0
  8  9  2  0  0  0  0
  9 23  1  0  0  0  0
  9 10  1  0  0  0  0
 10 11  2  0  0  0  0
 12 13  1  0  0  0  0
 12 24  1  0  0  0  0
 13 14  1  0  0  0  0
 13 25  1  0  0  0  0
 13 26  1  0  0  0  0
 14 18  1  0  0  0  0
 14 15  1  0  0  0  0
 14 27  1  0  0  0  0
 15 16  1  0  0  0  0
 15 28  1  0  0  0  0
 15 29  1  0  0  0  0
 16 17  1  0  0  0  0
 16 30  1  0  0  0  0
 16 31  1  0  0  0  0
 17 18  1  0  0  0  0
 17 32  1  0  0  0  0
 17 33  1  0  0  0  0
M  END
> <s_m_source_file>
AV-unprocessed.smi

> <i_m_source_file_index>
1510

> <i_lp_mmshare_version>
43012

> <i_f3d_flags>
0

> <s_epik_input>
TzFbQ0gyXVtDSDJdW0NIMl1bQ0BIXTFbQ0gyXVtOSF1DKD1PKVtDSDJdbjJbbkhdYyg9TylbY0hdW2NIXWMyPU8=

> <s_epik_cmdline>
J2VwaWtfcHl0aG9uJywgJy1waCcsICc3LjAnLCAnLXRuJywgJzgnLCAnLW1hJywgJzIwMCcsICctbWV0YWxfYmluZGluZycsICctaW1hZScsICc8aW5maWxlLm1hZT4nLCAnLW9tYWUnLCAnPG91dGZpbGUubWFlPic=

> <r_lp_tautomer_probability>
0.9996

> <r_epik_Ionization_Penalty>
2.13037

> <r_epik_Ionization_Penalty_Charging>
3.76e-08

> <r_epik_Ionization_Penalty_Neutral>
2.13037

> <r_epik_State_Penalty>
1.70753

> <r_epik_Charging_Adjusted_Penalty>
1.70753

> <i_epik_Tot_Q>
0

> <i_epik_Tot_abs_Q>
0

> <r_epik_Metal_State_Penalty>
1.70753

> <b_epik_Metal_Only>
0

> <s_lp_Force_Field>
OPLS_2005

> <r_lp_Energy>
28.2415

> <b_lp_Chiralities_Consistent>
1

> <s_lp_Variant>
AV-unprocessed.smi:1510-3

> <Gold.Version>
5.8.1

> <Gold.Id.Protein>
6NUR|6NUR_protein|mol2

> <Gold.PLP.Fitness>
42.0976

> <Gold.PLP.PLP>
-36.8566

> <Gold.PLP.part.hbond>
-4.1119

> <Gold.PLP.part.metal>
0.0000

> <Gold.PLP.part.buried>
-1.0376

> <Gold.PLP.part.nonpolar>
-32.3731

> <Gold.PLP.part.repulsive>
0.1271

> <Gold.PLP.ligand.clash>
0.0000

> <Gold.PLP.ligand.torsion>
0.3843

> <Gold.PLP.Chemscore.Hbond>
2.0000

> <Gold.PLP.Chemscore.CHOScore>
0.0000

> <Gold.PLP.Chemscore.Metal>
0.0000

> <Gold.Chemscore.Hbonds>
donor molecule, donor type, donor heavy atom, donor atom, acceptor molecule, acceptor atom, score
      L1  H     7    19       P1  7957  1.00
      P1  H 10752 10765       L1    11  1.00

> <Gold.PLP.Chemscore.Internal.Correction>
0.0095

> <Gold.Rescore>
     Score         DG    S(hbond)    S(metal)    S(lipo)     H(rot)  DE(clash)    DE(int)     intcor
     11.64     -14.44       1.93        0.00      80.51       2.69       1.26       1.55       ----

> <Gold.Chemscore.Fitness>
11.6363

> <Gold.Chemscore.DG>
-14.4409

> <Gold.Chemscore.ZeroCoef>
-5.4800

> <Gold.Chemscore.Hbond>
1.9274

> <Gold.Chemscore.Metal>
0.0000

> <Gold.Chemscore.Lipo>
80.5052

> <Gold.Chemscore.Internal_Hbond>
0.0000

> <Gold.Chemscore.DEClash>
1.2561

> <Gold.Chemscore.DEInternal>
1.5484

> <Gold.Chemscore.Rot>
2.6937

> <Gold.Chemscore.Internal.Correction>
   9.000000E+99

> <Gold.Chemscore.Hbonds>
donor molecule, donor type, donor heavy atom, donor atom, acceptor molecule, acceptor atom, score
      L1  H     7    19       P1  7957  0.97
      P1  H 10752 10765       L1    11  0.73

> <Gold.Chemscore.Hbond.Weighted>
-6.4377

> <Gold.Chemscore.Metal.Weighted>
-0.0000

> <Gold.Chemscore.Lipo.Weighted>
-9.4191

> <Gold.Chemscore.Internal_Hbond.Weighted>
0.0000

> <Gold.Chemscore.DEClash.Weighted>
1.2561

> <Gold.Chemscore.DEInternal.Weighted>
1.5484

> <Gold.Chemscore.Rot.Weighted>
6.8959

> <Gold.Chemscore.Internal.Correction.Weighted>
   9.000000E+99

> <Gold.Protein.RotatedTorsions>
[ 6907 6896 6895 6894 ] final  149.82 input  -60.11 | X-H torsion
[ 7974 7965 7964 7962 ] final   46.20 input  175.53 | X-H torsion
[ 8008 7997 7996 7995 ] final  153.44 input   59.86 | X-H torsion
[ 10167 10162 10161 10158 ] final  158.80 input  -65.29 | X-H torsion
[ 10718 10713 10712 10709 ] final   10.54 input   66.30 | X-H torsion
[ 10763 10752 10751 10750 ] final -152.87 input  -60.55 | X-H torsion
[ 11005 11000 10999 10996 ] final  141.67 input  -57.11 | X-H torsion

> <Gold.Protein.ActiveResidues>
 VAL166  LYS551  ARG553  GLY616  TRP617  ASP618  TYR619  PRO620  LYS621  CYS622 
 ASP623  PHE694  ASN695  SER759  ASP760  ASP761  ALA762  ILE779  LEU786  VAL792 
 PHE793  MET794  SER795  GLU796  ALA797  LYS798  CYS799  TRP800  GLU811  SER814 

> <Gold.Protein.RotatedAtoms>
  152.1228  133.4363  159.4683 H   0  0  0  0  0  0  0  0  0  0  0  0  # atno 6907 bound_to 6896
  150.6873  134.2514  159.4521 H   0  0  0  0  0  0  0  0  0  0  0  0  # atno 6908 bound_to 6896
  152.0392  134.9721  160.0624 H   0  0  0  0  0  0  0  0  0  0  0  0  # atno 6909 bound_to 6896
  146.0411  139.4882  142.9777 H   0  0  0  0  0  0  0  0  0  0  0  0  # atno 7974 bound_to 7965
  156.2581  140.1993  156.6491 H   0  0  0  0  0  0  0  0  0  0  0  0  # atno 8008 bound_to 7997
  154.6551  140.0567  157.0024 H   0  0  0  0  0  0  0  0  0  0  0  0  # atno 8009 bound_to 7997
  155.1360  140.3238  155.4466 H   0  0  0  0  0  0  0  0  0  0  0  0  # atno 8010 bound_to 7997
  139.4828  144.4791  151.8470 H   0  0  0  0  0  0  0  0  0  0  0  0  # atno 10167 bound_to 10162
  156.9824  130.6011  149.5678 H   0  0  0  0  0  0  0  0  0  0  0  0  # atno 10718 bound_to 10713
  154.7965  135.3226  154.7653 H   0  0  0  0  0  0  0  0  0  0  0  0  # atno 10763 bound_to 10752
  153.8331  135.6877  153.4816 H   0  0  0  0  0  0  0  0  0  0  0  0  # atno 10764 bound_to 10752
  153.1659  135.4642  154.9779 H   0  0  0  0  0  0  0  0  0  0  0  0  # atno 10765 bound_to 10752
  140.0418  134.9301  157.0858 H   0  0  0  0  0  0  0  0  0  0  0  0  # atno 11005 bound_to 11000
  145.6882  141.0172  143.1569 LP  0  0  0  0  0  0  0  0  0  0  0  0  # atno 17320 bound_to 7965
  144.7075  139.8501  143.7425 LP  0  0  0  0  0  0  0  0  0  0  0  0  # atno 17321 bound_to 7965
  140.4265  144.2173  150.5887 LP  0  0  0  0  0  0  0  0  0  0  0  0  # atno 17342 bound_to 10162
  140.4822  143.2375  151.8939 LP  0  0  0  0  0  0  0  0  0  0  0  0  # atno 17343 bound_to 10162
  156.0239  130.5333  150.8352 LP  0  0  0  0  0  0  0  0  0  0  0  0  # atno 17370 bound_to 10713
  157.5516  131.0944  150.9687 LP  0  0  0  0  0  0  0  0  0  0  0  0  # atno 17371 bound_to 10713
  140.4056  134.2036  155.7163 LP  0  0  0  0  0  0  0  0  0  0  0  0  # atno 17394 bound_to 11000
  141.1887  133.8254  157.0985 LP  0  0  0  0  0  0  0  0  0  0  0  0  # atno 17395 bound_to 11000

$$$$
