AV-unprocessed.smi:148|AV-procd|sdf|1203|dock7
  -GOLD-   2262018363D 1   1.00000     0.00000
 Structure written by MMmdl.
 63 67  0  0  0  0  0  0  0  0  1 V2000
  150.9730  140.9628  155.4582 O   0  0  0  0  0  0  0  0  0  0  0  0
  151.9018  140.7466  156.5010 C   0  0  0  0  0  0  0  0  0  0  0  0
  151.3330  141.1962  157.8689 C   0  0  1  0  0  0  0  0  0  0  0  0
  151.8710  140.2518  158.9802 C   0  0  0  0  0  0  0  0  0  0  0  0
  151.3854  138.8829  158.9253 N   0  0  0  0  0  0  0  0  0  0  0  0
  152.1370  137.7395  159.0858 C   0  0  0  0  0  0  0  0  0  0  0  0
  151.4844  136.6175  158.9477 N   0  0  0  0  0  0  0  0  0  0  0  0
  150.1880  137.0193  158.6551 C   0  0  0  0  0  0  0  0  0  0  0  0
  148.9831  136.3253  158.3704 C   0  0  0  0  0  0  0  0  0  0  0  0
  148.9442  134.9770  158.2799 N   0  0  0  0  0  0  0  0  0  0  0  0
  149.0988  134.6089  156.8696 C   0  0  0  0  0  0  0  0  0  0  0  0
  149.3579  133.1103  156.6993 C   0  0  0  0  0  0  0  0  0  0  0  0
  148.2326  132.3180  157.3621 C   0  0  0  0  0  0  0  0  0  0  0  0
  148.1156  132.7230  158.8361 C   0  0  0  0  0  0  0  0  0  0  0  0
  147.9003  134.2510  159.0368 C   0  0  1  0  0  0  0  0  0  0  0  0
  147.8740  134.5979  160.5674 C   0  0  2  0  0  0  0  0  0  0  0  0
  146.8956  133.7379  161.3942 C   0  0  0  0  0  0  0  0  0  0  0  0
  146.5937  134.5507  162.6456 C   0  0  0  0  0  0  0  0  0  0  0  0
  146.4582  135.9665  162.1047 C   0  0  0  0  0  0  0  0  0  0  0  0
  147.4581  136.0493  160.9399 C   0  0  1  0  0  0  0  0  0  0  0  0
  148.5808  136.7901  161.3709 O   0  0  0  0  0  0  0  0  0  0  0  0
  147.8719  137.0607  158.1006 N   0  0  0  0  0  0  0  0  0  0  0  0
  147.9355  138.3959  158.1289 C   0  0  0  0  0  0  0  0  0  0  0  0
  148.9890  139.1782  158.3768 N   0  0  0  0  0  0  0  0  0  0  0  0
  150.1059  138.4395  158.6370 C   0  0  0  0  0  0  0  0  0  0  0  0
  151.6375  142.6985  158.1478 C   0  0  2  0  0  0  0  0  0  0  0  0
  153.0104  142.9845  158.7534 C   0  0  0  0  0  0  0  0  0  0  0  0
  152.8070  144.1994  159.6624 C   0  0  0  0  0  0  0  0  0  0  0  0
  151.4379  144.5471  159.5308 O   0  0  0  0  0  0  0  0  0  0  0  0
  150.7299  143.3717  159.1819 C   0  0  0  0  0  0  0  0  0  0  0  0
  150.4808  141.7462  155.6513 H   0  0  0  0  0  0  0  0  0  0  0  0
  152.1812  139.6928  156.5241 H   0  0  0  0  0  0  0  0  0  0  0  0
  152.7953  141.3098  156.2349 H   0  0  0  0  0  0  0  0  0  0  0  0
  150.2496  141.0831  157.8113 H   0  0  0  0  0  0  0  0  0  0  0  0
  152.9590  140.1969  158.9388 H   0  0  0  0  0  0  0  0  0  0  0  0
  151.6274  140.6635  159.9607 H   0  0  0  0  0  0  0  0  0  0  0  0
  153.1936  137.7628  159.3090 H   0  0  0  0  0  0  0  0  0  0  0  0
  148.1975  134.8868  156.3206 H   0  0  0  0  0  0  0  0  0  0  0  0
  149.9250  135.1660  156.4240 H   0  0  0  0  0  0  0  0  0  0  0  0
  149.4252  132.8583  155.6407 H   0  0  0  0  0  0  0  0  0  0  0  0
  150.3162  132.8456  157.1481 H   0  0  0  0  0  0  0  0  0  0  0  0
  147.2892  132.5087  156.8487 H   0  0  0  0  0  0  0  0  0  0  0  0
  148.4257  131.2481  157.2792 H   0  0  0  0  0  0  0  0  0  0  0  0
  147.2954  132.1494  159.2657 H   0  0  0  0  0  0  0  0  0  0  0  0
  149.0194  132.4110  159.3618 H   0  0  0  0  0  0  0  0  0  0  0  0
  146.9319  134.5077  158.6048 H   0  0  0  0  0  0  0  0  0  0  0  0
  148.8673  134.3979  160.9748 H   0  0  0  0  0  0  0  0  0  0  0  0
  145.9642  133.5894  160.8457 H   0  0  0  0  0  0  0  0  0  0  0  0
  147.3021  132.7556  161.6372 H   0  0  0  0  0  0  0  0  0  0  0  0
  145.6974  134.2100  163.1646 H   0  0  0  0  0  0  0  0  0  0  0  0
  147.4323  134.4921  163.3411 H   0  0  0  0  0  0  0  0  0  0  0  0
  145.4472  136.1043  161.7189 H   0  0  0  0  0  0  0  0  0  0  0  0
  146.6146  136.7249  162.8735 H   0  0  0  0  0  0  0  0  0  0  0  0
  146.9853  136.5654  160.1053 H   0  0  0  0  0  0  0  0  0  0  0  0
  149.3624  136.3476  161.0772 H   0  0  0  0  0  0  0  0  0  0  0  0
  147.0113  138.9121  157.9146 H   0  0  0  0  0  0  0  0  0  0  0  0
  151.5451  143.2609  157.2172 H   0  0  0  0  0  0  0  0  0  0  0  0
  153.3547  142.1407  159.3519 H   0  0  0  0  0  0  0  0  0  0  0  0
  153.7612  143.1835  157.9891 H   0  0  0  0  0  0  0  0  0  0  0  0
  153.0218  143.9428  160.7006 H   0  0  0  0  0  0  0  0  0  0  0  0
  153.4423  145.0394  159.3810 H   0  0  0  0  0  0  0  0  0  0  0  0
  149.7454  143.6211  158.7854 H   0  0  0  0  0  0  0  0  0  0  0  0
  150.6011  142.7459  160.0670 H   0  0  0  0  0  0  0  0  0  0  0  0
  1  2  1  0  0  0  0
  1 31  1  0  0  0  0
  2  3  1  0  0  0  0
  2 32  1  0  0  0  0
  2 33  1  0  0  0  0
  3  4  1  0  0  0  0
  3 26  1  0  0  0  0
  3 34  1  0  0  0  0
  4  5  1  0  0  0  0
  4 35  1  0  0  0  0
  4 36  1  0  0  0  0
  5 25  1  0  0  0  0
  5  6  1  0  0  0  0
  6  7  2  0  0  0  0
  6 37  1  0  0  0  0
  7  8  1  0  0  0  0
  8 25  2  0  0  0  0
  8  9  1  0  0  0  0
  9 10  1  0  0  0  0
  9 22  2  0  0  0  0
 10 15  1  0  0  0  0
 10 11  1  0  0  0  0
 11 12  1  0  0  0  0
 11 38  1  0  0  0  0
 11 39  1  0  0  0  0
 12 13  1  0  0  0  0
 12 40  1  0  0  0  0
 12 41  1  0  0  0  0
 13 14  1  0  0  0  0
 13 42  1  0  0  0  0
 13 43  1  0  0  0  0
 14 15  1  0  0  0  0
 14 44  1  0  0  0  0
 14 45  1  0  0  0  0
 15 16  1  0  0  0  0
 15 46  1  0  0  0  0
 16 20  1  0  0  0  0
 16 17  1  0  0  0  0
 16 47  1  0  0  0  0
 17 18  1  0  0  0  0
 17 48  1  0  0  0  0
 17 49  1  0  0  0  0
 18 19  1  0  0  0  0
 18 50  1  0  0  0  0
 18 51  1  0  0  0  0
 19 20  1  0  0  0  0
 19 52  1  0  0  0  0
 19 53  1  0  0  0  0
 20 21  1  0  0  0  0
 20 54  1  0  0  0  0
 21 55  1  0  0  0  0
 22 23  1  0  0  0  0
 23 24  2  0  0  0  0
 23 56  1  0  0  0  0
 24 25  1  0  0  0  0
 26 30  1  0  0  0  0
 26 27  1  0  0  0  0
 26 57  1  0  0  0  0
 27 28  1  0  0  0  0
 27 58  1  0  0  0  0
 27 59  1  0  0  0  0
 28 29  1  0  0  0  0
 28 60  1  0  0  0  0
 28 61  1  0  0  0  0
 29 30  1  0  0  0  0
 30 62  1  0  0  0  0
 30 63  1  0  0  0  0
M  END
> <s_m_source_file>
AV-unprocessed.smi

> <i_m_source_file_index>
148

> <i_lp_mmshare_version>
43012

> <i_f3d_flags>
0

> <s_epik_input>
W0NIMl0xT1tDSDJdW0NIMl1bQ0BIXTFbQ0BIXShbQ0gyXVtPSF0pW0NIMl1uKFtjSF1uMiljKGMyMyluW2NIXW5jM040W0NIMl1bQ0gyXVtDSDJdW0NIMl1bQ0BIXTRbQ0BASF01W0NIMl1bQ0gyXVtDSDJdW0NASF01W09IXQ==

> <s_epik_cmdline>
J2VwaWtfcHl0aG9uJywgJy1waCcsICc3LjAnLCAnLXRuJywgJzgnLCAnLW1hJywgJzIwMCcsICctbWV0YWxfYmluZGluZycsICctaW1hZScsICc8aW5maWxlLm1hZT4nLCAnLW9tYWUnLCAnPG91dGZpbGUubWFlPic=

> <r_lp_tautomer_probability>
1

> <r_epik_Ionization_Penalty>
0.00556303

> <r_epik_Ionization_Penalty_Charging>
0

> <r_epik_Ionization_Penalty_Neutral>
0.00556303

> <r_epik_State_Penalty>
0.00401767

> <r_epik_Charging_Adjusted_Penalty>
0.00401767

> <i_epik_Tot_Q>
0

> <i_epik_Tot_abs_Q>
0

> <r_epik_Metal_State_Penalty>
-0

> <b_epik_Metal_Only>
0

> <s_lp_Force_Field>
OPLS_2005

> <r_lp_Energy>
69.6021

> <b_lp_Chiralities_Consistent>
1

> <s_lp_Variant>
AV-unprocessed.smi:148-2

> <Gold.Version>
5.8.1

> <Gold.Id.Protein>
6NUR|6NUR_protein|mol2

> <Gold.PLP.Fitness>
53.3118

> <Gold.PLP.PLP>
-47.2051

> <Gold.PLP.part.hbond>
-4.8621

> <Gold.PLP.part.metal>
0.0000

> <Gold.PLP.part.buried>
-7.5898

> <Gold.PLP.part.nonpolar>
-35.2069

> <Gold.PLP.part.repulsive>
0.1513

> <Gold.PLP.ligand.clash>
0.0000

> <Gold.PLP.ligand.torsion>
1.5602

> <Gold.PLP.Chemscore.Hbond>
2.9505

> <Gold.PLP.Chemscore.CHOScore>
0.0000

> <Gold.PLP.Chemscore.Metal>
0.0000

> <Gold.Chemscore.Hbonds>
donor molecule, donor type, donor heavy atom, donor atom, acceptor molecule, acceptor atom, score
      P1  H  6896  6908       L1    10  0.64
      P1  H  6896  6909       L1     7  0.35
      P1  H  6931  6943       L1    21  1.00
      P1  H  7989  7998       L1     1  0.65

> <Gold.PLP.Chemscore.Internal.Correction>
0.3756

> <Gold.Rescore>
     Score         DG    S(hbond)    S(metal)    S(lipo)     H(rot)  DE(clash)    DE(int)     intcor
     13.02     -14.34       1.09        0.00     117.39       3.32       0.13       1.19       ----

> <Gold.Chemscore.Fitness>
13.0215

> <Gold.Chemscore.DG>
-14.3412

> <Gold.Chemscore.ZeroCoef>
-5.4800

> <Gold.Chemscore.Hbond>
1.0860

> <Gold.Chemscore.Metal>
0.0000

> <Gold.Chemscore.Lipo>
117.3854

> <Gold.Chemscore.Internal_Hbond>
0.0000

> <Gold.Chemscore.DEClash>
0.1295

> <Gold.Chemscore.DEInternal>
1.1902

> <Gold.Chemscore.Rot>
3.3203

> <Gold.Chemscore.Internal.Correction>
   9.000000E+99

> <Gold.Chemscore.Hbonds>
donor molecule, donor type, donor heavy atom, donor atom, acceptor molecule, acceptor atom, score
      P1  H  6896  6908       L1    10  0.04
      P1  H  6896  6909       L1     7  0.30
      P1  H  6931  6943       L1    21  0.55
      P1  H  7989  7998       L1     1  0.51

> <Gold.Chemscore.Hbond.Weighted>
-3.6271

> <Gold.Chemscore.Metal.Weighted>
-0.0000

> <Gold.Chemscore.Lipo.Weighted>
-13.7341

> <Gold.Chemscore.Internal_Hbond.Weighted>
0.0000

> <Gold.Chemscore.DEClash.Weighted>
0.1295

> <Gold.Chemscore.DEInternal.Weighted>
1.1902

> <Gold.Chemscore.Rot.Weighted>
8.5000

> <Gold.Chemscore.Internal.Correction.Weighted>
   9.000000E+99

> <Gold.Protein.RotatedTorsions>
[ 6907 6896 6895 6894 ] final  153.51 input  -60.11 | X-H torsion
[ 7974 7965 7964 7962 ] final -102.53 input  175.53 | X-H torsion
[ 8008 7997 7996 7995 ] final   62.05 input   59.86 | X-H torsion
[ 10167 10162 10161 10158 ] final   54.36 input  -65.29 | X-H torsion
[ 10718 10713 10712 10709 ] final  -93.66 input   66.30 | X-H torsion
[ 10763 10752 10751 10750 ] final   52.46 input  -60.55 | X-H torsion
[ 11005 11000 10999 10996 ] final  -79.55 input  -57.11 | X-H torsion

> <Gold.Protein.ActiveResidues>
 VAL166  LYS551  ARG553  GLY616  TRP617  ASP618  TYR619  PRO620  LYS621  CYS622 
 ASP623  PHE694  ASN695  SER759  ASP760  ASP761  ALA762  ILE779  LEU786  VAL792 
 PHE793  MET794  SER795  GLU796  ALA797  LYS798  CYS799  TRP800  GLU811  SER814 

> <Gold.Protein.RotatedAtoms>
  152.0716  133.4109  159.4461 H   0  0  0  0  0  0  0  0  0  0  0  0  # atno 6907 bound_to 6896
  150.6863  134.3085  159.4745 H   0  0  0  0  0  0  0  0  0  0  0  0  # atno 6908 bound_to 6896
  152.0917  134.9402  160.0622 H   0  0  0  0  0  0  0  0  0  0  0  0  # atno 6909 bound_to 6896
  145.2676  140.9288  143.3005 H   0  0  0  0  0  0  0  0  0  0  0  0  # atno 7974 bound_to 7965
  155.6081  140.3494  155.4614 H   0  0  0  0  0  0  0  0  0  0  0  0  # atno 8008 bound_to 7997
  156.0176  140.1246  157.0415 H   0  0  0  0  0  0  0  0  0  0  0  0  # atno 8009 bound_to 7997
  154.4303  140.1069  156.5903 H   0  0  0  0  0  0  0  0  0  0  0  0  # atno 8010 bound_to 7997
  140.2310  144.3687  150.6414 H   0  0  0  0  0  0  0  0  0  0  0  0  # atno 10167 bound_to 10162
  156.0016  130.5036  150.5809 H   0  0  0  0  0  0  0  0  0  0  0  0  # atno 10718 bound_to 10713
  152.9789  135.5812  154.4582 H   0  0  0  0  0  0  0  0  0  0  0  0  # atno 10763 bound_to 10752
  154.4162  135.2771  155.2007 H   0  0  0  0  0  0  0  0  0  0  0  0  # atno 10764 bound_to 10752
  154.3776  135.6154  153.5827 H   0  0  0  0  0  0  0  0  0  0  0  0  # atno 10765 bound_to 10752
  141.1667  133.7111  156.8139 H   0  0  0  0  0  0  0  0  0  0  0  0  # atno 11005 bound_to 11000
  144.9364  139.4239  143.6470 LP  0  0  0  0  0  0  0  0  0  0  0  0  # atno 17320 bound_to 7965
  146.3256  139.8301  142.8910 LP  0  0  0  0  0  0  0  0  0  0  0  0  # atno 17321 bound_to 7965
  140.6185  143.2174  151.6742 LP  0  0  0  0  0  0  0  0  0  0  0  0  # atno 17342 bound_to 10162
  139.5110  144.3524  152.0640 LP  0  0  0  0  0  0  0  0  0  0  0  0  # atno 17343 bound_to 10162
  157.3689  131.0762  151.1574 LP  0  0  0  0  0  0  0  0  0  0  0  0  # atno 17370 bound_to 10713
  157.2334  130.6536  149.5859 LP  0  0  0  0  0  0  0  0  0  0  0  0  # atno 17371 bound_to 10713
  140.2168  134.8787  157.3334 LP  0  0  0  0  0  0  0  0  0  0  0  0  # atno 17394 bound_to 11000
  140.2030  134.4232  155.7653 LP  0  0  0  0  0  0  0  0  0  0  0  0  # atno 17395 bound_to 11000

$$$$
