AV-unprocessed.smi:1658|AV-procd|sdf|6648|dock5
  -GOLD-   22720 7353D 1   1.00000     0.00000
 Structure written by MMmdl.
 46 47  0  0  0  0  0  0  0  0  1 V2000
  147.8896  129.3158  153.1443 C   0  0  0  0  0  0  0  0  0  0  0  0
  148.8610  129.7724  154.0792 O   0  0  0  0  0  0  0  0  0  0  0  0
  149.0202  131.1326  154.2473 C   0  0  0  0  0  0  0  0  0  0  0  0
  149.8333  131.5902  155.3035 C   0  0  0  0  0  0  0  0  0  0  0  0
  149.9980  132.9768  155.4847 C   0  0  0  0  0  0  0  0  0  0  0  0
  149.3350  133.8644  154.6047 C   0  0  0  0  0  0  0  0  0  0  0  0
  149.4409  135.2791  154.6746 N   0  0  0  0  0  0  0  0  0  0  0  0
  149.7452  136.0369  155.7416 C   0  0  0  0  0  0  0  0  0  0  0  0
  149.9491  135.6113  156.8784 O   0  0  0  0  0  0  0  0  0  0  0  0
  149.7728  137.3366  155.4166 N   0  0  0  0  0  0  0  0  0  0  0  0
  150.0140  138.4469  156.3378 C   0  0  0  0  0  0  0  0  0  0  0  0
  150.8213  139.6005  155.6746 C   0  0  0  0  0  0  0  0  0  0  0  0
  152.1058  138.9558  155.0941 C   0  0  0  0  0  0  0  0  0  0  0  0
  149.9853  140.1138  154.4772 C   0  0  0  0  0  0  0  0  0  0  0  0
  151.1555  140.6727  156.6547 N   0  0  0  0  0  0  0  0  0  0  0  0
  150.0252  141.5198  157.0538 C   0  0  0  0  0  0  0  0  0  0  0  0
  150.4617  142.6741  157.9724 C   0  0  0  0  0  0  0  0  0  0  0  0
  151.1244  142.1522  159.1176 O   0  0  0  0  0  0  0  0  0  0  0  0
  152.2644  141.3738  158.7760 C   0  0  0  0  0  0  0  0  0  0  0  0
  151.8424  140.2083  157.8659 C   0  0  0  0  0  0  0  0  0  0  0  0
  148.5584  133.3054  153.5689 C   0  0  0  0  0  0  0  0  0  0  0  0
  148.3949  131.9777  153.3906 N   0  0  0  0  0  0  0  0  0  0  0  0
  147.8818  128.2260  153.1356 H   0  0  0  0  0  0  0  0  0  0  0  0
  148.1201  129.6531  152.1327 H   0  0  0  0  0  0  0  0  0  0  0  0
  146.8872  129.6509  153.4144 H   0  0  0  0  0  0  0  0  0  0  0  0
  150.3256  130.8894  155.9612 H   0  0  0  0  0  0  0  0  0  0  0  0
  150.6364  133.3302  156.2797 H   0  0  0  0  0  0  0  0  0  0  0  0
  149.1975  135.7757  153.8299 H   0  0  0  0  0  0  0  0  0  0  0  0
  149.5798  137.5871  154.4579 H   0  0  0  0  0  0  0  0  0  0  0  0
  149.0734  138.8329  156.7349 H   0  0  0  0  0  0  0  0  0  0  0  0
  150.5334  138.0527  157.2108 H   0  0  0  0  0  0  0  0  0  0  0  0
  151.8777  138.0570  154.5196 H   0  0  0  0  0  0  0  0  0  0  0  0
  152.8040  138.6684  155.8811 H   0  0  0  0  0  0  0  0  0  0  0  0
  152.6332  139.6247  154.4140 H   0  0  0  0  0  0  0  0  0  0  0  0
  149.7744  139.3073  153.7740 H   0  0  0  0  0  0  0  0  0  0  0  0
  150.5024  140.8911  153.9148 H   0  0  0  0  0  0  0  0  0  0  0  0
  149.0218  140.5157  154.7899 H   0  0  0  0  0  0  0  0  0  0  0  0
  149.5401  141.9569  156.1829 H   0  0  0  0  0  0  0  0  0  0  0  0
  149.2727  140.9256  157.5721 H   0  0  0  0  0  0  0  0  0  0  0  0
  151.1226  143.3618  157.4421 H   0  0  0  0  0  0  0  0  0  0  0  0
  149.5941  143.2495  158.2953 H   0  0  0  0  0  0  0  0  0  0  0  0
  153.0082  142.0004  158.2811 H   0  0  0  0  0  0  0  0  0  0  0  0
  152.7224  140.9936  159.6891 H   0  0  0  0  0  0  0  0  0  0  0  0
  151.1957  139.5381  158.4326 H   0  0  0  0  0  0  0  0  0  0  0  0
  152.7390  139.6451  157.6145 H   0  0  0  0  0  0  0  0  0  0  0  0
  148.0454  133.9428  152.8632 H   0  0  0  0  0  0  0  0  0  0  0  0
  1  2  1  0  0  0  0
  1 23  1  0  0  0  0
  1 24  1  0  0  0  0
  1 25  1  0  0  0  0
  2  3  1  0  0  0  0
  3 22  1  0  0  0  0
  3  4  2  0  0  0  0
  4  5  1  0  0  0  0
  4 26  1  0  0  0  0
  5  6  2  0  0  0  0
  5 27  1  0  0  0  0
  6  7  1  0  0  0  0
  6 21  1  0  0  0  0
  7  8  1  0  0  0  0
  7 28  1  0  0  0  0
  8  9  2  0  0  0  0
  8 10  1  0  0  0  0
 10 11  1  0  0  0  0
 10 29  1  0  0  0  0
 11 12  1  0  0  0  0
 11 30  1  0  0  0  0
 11 31  1  0  0  0  0
 12 13  1  0  0  0  0
 12 14  1  0  0  0  0
 12 15  1  0  0  0  0
 13 32  1  0  0  0  0
 13 33  1  0  0  0  0
 13 34  1  0  0  0  0
 14 35  1  0  0  0  0
 14 36  1  0  0  0  0
 14 37  1  0  0  0  0
 15 20  1  0  0  0  0
 15 16  1  0  0  0  0
 16 17  1  0  0  0  0
 16 38  1  0  0  0  0
 16 39  1  0  0  0  0
 17 18  1  0  0  0  0
 17 40  1  0  0  0  0
 17 41  1  0  0  0  0
 18 19  1  0  0  0  0
 19 20  1  0  0  0  0
 19 42  1  0  0  0  0
 19 43  1  0  0  0  0
 20 44  1  0  0  0  0
 20 45  1  0  0  0  0
 21 22  2  0  0  0  0
 21 46  1  0  0  0  0
M  END
> <s_m_source_file>
AV-unprocessed.smi

> <i_m_source_file_index>
1658

> <i_lp_mmshare_version>
43012

> <i_f3d_flags>
0

> <s_epik_input>
W0NIM11PYzFbY0hdW2NIXWMoW2NIXW4xKVtOSF1DKD1PKVtOSF1bQ0gyXUMoW0NIM10pKFtDSDNdKU4yW0NIMl1bQ0gyXU9bQ0gyXVtDSDJdMg==

> <s_epik_cmdline>
J2VwaWtfcHl0aG9uJywgJy1waCcsICc3LjAnLCAnLXRuJywgJzgnLCAnLW1hJywgJzIwMCcsICctbWV0YWxfYmluZGluZycsICctaW1hZScsICc8aW5maWxlLm1hZT4nLCAnLW9tYWUnLCAnPG91dGZpbGUubWFlPic=

> <r_lp_tautomer_probability>
1

> <r_epik_Ionization_Penalty>
0.266086

> <r_epik_Ionization_Penalty_Charging>
0

> <r_epik_Ionization_Penalty_Neutral>
0.266086

> <r_epik_State_Penalty>
0.257924

> <r_epik_Charging_Adjusted_Penalty>
0.257924

> <i_epik_Tot_Q>
0

> <i_epik_Tot_abs_Q>
0

> <r_epik_Metal_State_Penalty>
0.257921

> <b_epik_Metal_Only>
0

> <s_lp_Force_Field>
OPLS_2005

> <r_lp_Energy>
44.8547

> <b_lp_Chiralities_Consistent>
1

> <s_lp_Variant>
AV-unprocessed.smi:1658-1

> <Gold.Version>
5.8.1

> <Gold.Id.Protein>
6NUR|6NUR_protein|mol2

> <Gold.PLP.Fitness>
37.5115

> <Gold.PLP.PLP>
-33.2292

> <Gold.PLP.part.hbond>
-1.1509

> <Gold.PLP.part.metal>
0.0000

> <Gold.PLP.part.buried>
-3.1451

> <Gold.PLP.part.nonpolar>
-28.6771

> <Gold.PLP.part.repulsive>
0.3058

> <Gold.PLP.ligand.clash>
0.0000

> <Gold.PLP.ligand.torsion>
0.5292

> <Gold.PLP.Chemscore.Hbond>
1.0000

> <Gold.PLP.Chemscore.CHOScore>
0.7568

> <Gold.PLP.Chemscore.Metal>
0.0000

> <Gold.Chemscore.Hbonds>
donor molecule, donor type, donor heavy atom, donor atom, acceptor molecule, acceptor atom, score
      L1  H     7    28       P1  7948  1.00
      L1  C    21    46       P1  7948  0.73

> <Gold.PLP.Chemscore.Internal.Correction>
0.0702

> <Gold.Rescore>
     Score         DG    S(hbond)    S(metal)    S(lipo)     H(rot)  DE(clash)    DE(int)     intcor
     11.63     -13.49       0.92        0.00      79.39       1.70       0.21       1.66       ----

> <Gold.Chemscore.Fitness>
11.6261

> <Gold.Chemscore.DG>
-13.4927

> <Gold.Chemscore.ZeroCoef>
-5.4800

> <Gold.Chemscore.Hbond>
0.9228

> <Gold.Chemscore.Metal>
0.0000

> <Gold.Chemscore.Lipo>
79.3923

> <Gold.Chemscore.Internal_Hbond>
0.0000

> <Gold.Chemscore.DEClash>
0.2053

> <Gold.Chemscore.DEInternal>
1.6613

> <Gold.Chemscore.Rot>
1.7024

> <Gold.Chemscore.Internal.Correction>
   9.000000E+99

> <Gold.Chemscore.Hbonds>
donor molecule, donor type, donor heavy atom, donor atom, acceptor molecule, acceptor atom, score
      L1  H     7    28       P1  7948  0.74

> <Gold.Chemscore.Hbond.Weighted>
-3.0821

> <Gold.Chemscore.Metal.Weighted>
-0.0000

> <Gold.Chemscore.Lipo.Weighted>
-9.2889

> <Gold.Chemscore.Internal_Hbond.Weighted>
0.0000

> <Gold.Chemscore.DEClash.Weighted>
0.2053

> <Gold.Chemscore.DEInternal.Weighted>
1.6613

> <Gold.Chemscore.Rot.Weighted>
4.3583

> <Gold.Chemscore.Internal.Correction.Weighted>
   9.000000E+99

> <Gold.Protein.RotatedTorsions>
[ 6907 6896 6895 6894 ] final  105.62 input  -60.11 | X-H torsion
[ 7974 7965 7964 7962 ] final  -36.28 input  175.53 | X-H torsion
[ 8008 7997 7996 7995 ] final  -95.76 input   59.86 | X-H torsion
[ 10167 10162 10161 10158 ] final   17.66 input  -65.29 | X-H torsion
[ 10718 10713 10712 10709 ] final   16.90 input   66.30 | X-H torsion
[ 10763 10752 10751 10750 ] final   34.97 input  -60.55 | X-H torsion
[ 11005 11000 10999 10996 ] final   64.97 input  -57.11 | X-H torsion

> <Gold.Protein.ActiveResidues>
 VAL166  LYS551  ARG553  GLY616  TRP617  ASP618  TYR619  PRO620  LYS621  CYS622 
 ASP623  PHE694  ASN695  SER759  ASP760  ASP761  ALA762  ILE779  LEU786  VAL792 
 PHE793  MET794  SER795  GLU796  ALA797  LYS798  CYS799  TRP800  GLU811  SER814 

> <Gold.Protein.RotatedAtoms>
  152.5224  133.9502  159.7667 H   0  0  0  0  0  0  0  0  0  0  0  0  # atno 6907 bound_to 6896
  150.9814  133.6234  159.2729 H   0  0  0  0  0  0  0  0  0  0  0  0  # atno 6908 bound_to 6896
  151.3410  135.0869  159.9424 H   0  0  0  0  0  0  0  0  0  0  0  0  # atno 6909 bound_to 6896
  146.0675  140.6259  142.8968 H   0  0  0  0  0  0  0  0  0  0  0  0  # atno 7974 bound_to 7965
  154.7655  140.0477  157.1009 H   0  0  0  0  0  0  0  0  0  0  0  0  # atno 8008 bound_to 7997
  154.9884  140.3110  155.4897 H   0  0  0  0  0  0  0  0  0  0  0  0  # atno 8009 bound_to 7997
  156.2912  140.2223  156.4988 H   0  0  0  0  0  0  0  0  0  0  0  0  # atno 8010 bound_to 7997
  140.5710  143.9162  150.6713 H   0  0  0  0  0  0  0  0  0  0  0  0  # atno 10167 bound_to 10162
  157.0745  130.6362  149.5813 H   0  0  0  0  0  0  0  0  0  0  0  0  # atno 10718 bound_to 10713
  153.0140  135.6346  154.1753 H   0  0  0  0  0  0  0  0  0  0  0  0  # atno 10763 bound_to 10752
  154.1493  135.2830  155.3141 H   0  0  0  0  0  0  0  0  0  0  0  0  # atno 10764 bound_to 10752
  154.6065  135.5570  153.7489 H   0  0  0  0  0  0  0  0  0  0  0  0  # atno 10765 bound_to 10752
  139.9925  134.6570  156.0067 H   0  0  0  0  0  0  0  0  0  0  0  0  # atno 11005 bound_to 11000
  144.7211  140.4376  143.7007 LP  0  0  0  0  0  0  0  0  0  0  0  0  # atno 17320 bound_to 7965
  145.6451  139.1556  143.2893 LP  0  0  0  0  0  0  0  0  0  0  0  0  # atno 17321 bound_to 7965
  140.2637  143.3506  152.1300 LP  0  0  0  0  0  0  0  0  0  0  0  0  # atno 17342 bound_to 10162
  139.5117  144.6905  151.5771 LP  0  0  0  0  0  0  0  0  0  0  0  0  # atno 17343 bound_to 10162
  155.9941  130.5004  150.7406 LP  0  0  0  0  0  0  0  0  0  0  0  0  # atno 17370 bound_to 10713
  157.4851  131.0906  151.0492 LP  0  0  0  0  0  0  0  0  0  0  0  0  # atno 17371 bound_to 10713
  141.1577  133.6541  156.4216 LP  0  0  0  0  0  0  0  0  0  0  0  0  # atno 17394 bound_to 11000
  140.4882  134.6601  157.5199 LP  0  0  0  0  0  0  0  0  0  0  0  0  # atno 17395 bound_to 11000

$$$$
