AV-unprocessed.smi:1697|AV-procd|sdf|6808|dock4
  -GOLD-   22720 7583D 1   1.00000     0.00000
 Structure written by MMmdl.
 55 57  0  0  0  0  0  0  0  0  3 V2000
  144.4261  134.4448  150.6502 C   0  0  0  0  0  0  0  0  0  0  0  0
  145.3040  135.6729  150.9261 C   0  0  0  0  0  0  0  0  0  0  0  0
  144.9459  136.2913  152.1558 O   0  0  0  0  0  0  0  0  0  0  0  0
  145.8920  137.2227  152.6656 C   0  0  2  0  0  0  0  0  0  0  0  0
  145.2810  137.8833  153.9088 C   0  0  0  0  0  0  0  0  0  0  0  0
  146.2012  138.9856  154.4576 C   0  0  0  0  0  0  0  0  0  0  0  0
  146.4889  140.0116  153.4215 N   0  3  1  0  0  0  0  0  0  0  0  0
  147.2718  141.1507  153.9669 C   0  0  0  0  0  0  0  0  0  0  0  0
  148.6998  140.7518  154.4033 C   0  0  1  0  0  0  0  0  0  0  0  0
  149.5845  140.9319  153.3164 O   0  0  0  0  0  0  0  0  0  0  0  0
  149.2370  141.6012  155.5739 C   0  0  0  0  0  0  0  0  0  0  0  0
  150.3575  140.9699  156.2832 N   0  0  0  0  0  0  0  0  0  0  0  0
  150.9512  139.7608  156.0865 C   0  0  0  0  0  0  0  0  0  0  0  0
  151.9482  139.6391  157.0063 N   0  3  0  0  0  0  0  0  0  0  0  0
  151.9827  140.7805  157.8104 C   0  0  0  0  0  0  0  0  0  0  0  0
  152.8086  141.1203  158.8752 C   0  0  0  0  0  0  0  0  0  0  0  0
  152.5786  142.3685  159.4968 C   0  0  0  0  0  0  0  0  0  0  0  0
  153.4610  142.7693  160.6668 C   0  0  0  0  0  0  0  0  0  0  0  0
  151.5448  143.2297  159.0455 C   0  0  0  0  0  0  0  0  0  0  0  0
  151.3026  144.5664  159.7259 C   0  0  0  0  0  0  0  0  0  0  0  0
  150.7178  142.8673  157.9584 C   0  0  0  0  0  0  0  0  0  0  0  0
  150.9600  141.6354  157.3561 C   0  0  0  0  0  0  0  0  0  0  0  0
  147.1017  139.4044  152.2090 C   0  0  0  0  0  0  0  0  0  0  0  0
  146.2007  138.3069  151.6185 C   0  0  0  0  0  0  0  0  0  0  0  0
  144.6603  134.0135  149.6768 H   0  0  0  0  0  0  0  0  0  0  0  0
  143.3695  134.7140  150.6480 H   0  0  0  0  0  0  0  0  0  0  0  0
  144.5706  133.6648  151.3971 H   0  0  0  0  0  0  0  0  0  0  0  0
  146.3622  135.4121  150.8979 H   0  0  0  0  0  0  0  0  0  0  0  0
  145.1449  136.4029  150.1322 H   0  0  0  0  0  0  0  0  0  0  0  0
  146.8135  136.7186  152.9600 H   0  0  0  0  0  0  0  0  0  0  0  0
  144.3078  138.3102  153.6614 H   0  0  0  0  0  0  0  0  0  0  0  0
  145.1020  137.1318  154.6788 H   0  0  0  0  0  0  0  0  0  0  0  0
  145.7202  139.4537  155.3173 H   0  0  0  0  0  0  0  0  0  0  0  0
  147.1375  138.5529  154.8142 H   0  0  0  0  0  0  0  0  0  0  0  0
  147.3525  141.9388  153.2162 H   0  0  0  0  0  0  0  0  0  0  0  0
  146.7141  141.5835  154.7981 H   0  0  0  0  0  0  0  0  0  0  0  0
  148.7357  139.7026  154.6918 H   0  0  0  0  0  0  0  0  0  0  0  0
  149.3991  140.2832  152.6548 H   0  0  0  0  0  0  0  0  0  0  0  0
  149.5630  142.5834  155.2278 H   0  0  0  0  0  0  0  0  0  0  0  0
  148.4479  141.7781  156.3064 H   0  0  0  0  0  0  0  0  0  0  0  0
  150.6838  139.0316  155.3351 H   0  0  0  0  0  0  0  0  0  0  0  0
  153.5910  140.4580  159.2163 H   0  0  0  0  0  0  0  0  0  0  0  0
  153.9523  143.7227  160.4714 H   0  0  0  0  0  0  0  0  0  0  0  0
  154.2383  142.0274  160.8532 H   0  0  0  0  0  0  0  0  0  0  0  0
  152.8666  142.8655  161.5758 H   0  0  0  0  0  0  0  0  0  0  0  0
  150.4579  145.0933  159.2813 H   0  0  0  0  0  0  0  0  0  0  0  0
  152.1802  145.2068  159.6350 H   0  0  0  0  0  0  0  0  0  0  0  0
  151.0851  144.4236  160.7848 H   0  0  0  0  0  0  0  0  0  0  0  0
  149.9289  143.5211  157.6167 H   0  0  0  0  0  0  0  0  0  0  0  0
  147.2733  140.1633  151.4467 H   0  0  0  0  0  0  0  0  0  0  0  0
  148.0779  138.9879  152.4621 H   0  0  0  0  0  0  0  0  0  0  0  0
  146.6851  137.8700  150.7455 H   0  0  0  0  0  0  0  0  0  0  0  0
  145.2696  138.7512  151.2640 H   0  0  0  0  0  0  0  0  0  0  0  0
  145.5922  140.3861  153.1460 H   0  0  0  0  0  0  0  0  0  0  0  0
  152.5541  138.8318  157.0830 H   0  0  0  0  0  0  0  0  0  0  0  0
  1  2  1  0  0  0  0
  1 25  1  0  0  0  0
  1 26  1  0  0  0  0
  1 27  1  0  0  0  0
  2  3  1  0  0  0  0
  2 28  1  0  0  0  0
  2 29  1  0  0  0  0
  3  4  1  0  0  0  0
  4 24  1  0  0  0  0
  4  5  1  0  0  0  0
  4 30  1  0  0  0  0
  5  6  1  0  0  0  0
  5 31  1  0  0  0  0
  5 32  1  0  0  0  0
  6  7  1  0  0  0  0
  6 33  1  0  0  0  0
  6 34  1  0  0  0  0
  7  8  1  0  0  0  0
  7 23  1  0  0  0  0
  7 54  1  0  0  0  0
  8  9  1  0  0  0  0
  8 35  1  0  0  0  0
  8 36  1  0  0  0  0
  9 10  1  0  0  0  0
  9 11  1  0  0  0  0
  9 37  1  0  0  0  0
 10 38  1  0  0  0  0
 11 12  1  0  0  0  0
 11 39  1  0  0  0  0
 11 40  1  0  0  0  0
 12 22  1  0  0  0  0
 12 13  1  0  0  0  0
 13 14  2  0  0  0  0
 13 41  1  0  0  0  0
 14 15  1  0  0  0  0
 14 55  1  0  0  0  0
 15 22  2  0  0  0  0
 15 16  1  0  0  0  0
 16 17  2  0  0  0  0
 16 42  1  0  0  0  0
 17 18  1  0  0  0  0
 17 19  1  0  0  0  0
 18 43  1  0  0  0  0
 18 44  1  0  0  0  0
 18 45  1  0  0  0  0
 19 20  1  0  0  0  0
 19 21  2  0  0  0  0
 20 46  1  0  0  0  0
 20 47  1  0  0  0  0
 20 48  1  0  0  0  0
 21 22  1  0  0  0  0
 21 49  1  0  0  0  0
 23 24  1  0  0  0  0
 23 50  1  0  0  0  0
 23 51  1  0  0  0  0
 24 52  1  0  0  0  0
 24 53  1  0  0  0  0
M  CHG  1   7   1
M  CHG  1  14   1
M  END
> <s_m_source_file>
AV-unprocessed.smi

> <i_m_source_file_index>
1697

> <i_lp_mmshare_version>
43012

> <i_f3d_flags>
0

> <s_epik_input>
W0NIM11bQ0gyXU9bQ0hdMVtDSDJdW0NIMl1OKFtDSDJdW0NIMl0xKVtDSDJdW0NASF0oW09IXSlbQ0gyXW4oW2NIXW4yKWMoYzIzKVtjSF1jKFtDSDNdKWMoW2NIXTMpW0NIM10=

> <s_epik_cmdline>
J2VwaWtfcHl0aG9uJywgJy1waCcsICc3LjAnLCAnLXRuJywgJzgnLCAnLW1hJywgJzIwMCcsICctbWV0YWxfYmluZGluZycsICctaW1hZScsICc8aW5maWxlLm1hZT4nLCAnLW9tYWUnLCAnPG91dGZpbGUubWFlPic=

> <r_epik_Ionization_Penalty>
1.20016

> <r_epik_Ionization_Penalty_Charging>
1.20016

> <r_epik_Ionization_Penalty_Neutral>
1.70998e-06

> <r_epik_State_Penalty>
1.27959

> <r_epik_Charging_Adjusted_Penalty>
2.47975

> <i_epik_Tot_Q>
2

> <i_epik_Tot_abs_Q>
2

> <r_epik_Metal_State_Penalty>
5.29682

> <b_epik_Metal_Only>
0

> <s_lp_Force_Field>
OPLS_2005

> <r_lp_Energy>
35.517

> <b_lp_Chiralities_Consistent>
1

> <s_lp_Variant>
AV-unprocessed.smi:1697-6

> <Gold.Version>
5.8.1

> <Gold.Id.Protein>
6NUR|6NUR_protein|mol2

> <Gold.PLP.Fitness>
58.4477

> <Gold.PLP.PLP>
-47.4240

> <Gold.PLP.part.hbond>
-3.3805

> <Gold.PLP.part.metal>
0.0000

> <Gold.PLP.part.buried>
-0.7355

> <Gold.PLP.part.nonpolar>
-45.1188

> <Gold.PLP.part.repulsive>
0.2821

> <Gold.PLP.ligand.clash>
0.0000

> <Gold.PLP.ligand.torsion>
0.6446

> <Gold.PLP.Chemscore.Hbond>
4.0486

> <Gold.PLP.Chemscore.CHOScore>
0.0000

> <Gold.PLP.Chemscore.Metal>
0.0000

> <Gold.Chemscore.Hbonds>
donor molecule, donor type, donor heavy atom, donor atom, acceptor molecule, acceptor atom, score
      L1  H     7    54       P1 10175  2.00
      L1  H    10    38       P1  7957  0.79
      P1  H  7989  7998       L1    10  0.22
      P1  H  8011  8017       L1    10  1.00

> <Gold.PLP.Chemscore.Internal.Correction>
0.1671

> <Gold.Rescore>
     Score         DG    S(hbond)    S(metal)    S(lipo)     H(rot)  DE(clash)    DE(int)     intcor
     21.31     -23.32       2.41        0.00     135.13       2.35       1.32       0.69       ----

> <Gold.Chemscore.Fitness>
21.3102

> <Gold.Chemscore.DG>
-23.3179

> <Gold.Chemscore.ZeroCoef>
-5.4800

> <Gold.Chemscore.Hbond>
2.4057

> <Gold.Chemscore.Metal>
0.0000

> <Gold.Chemscore.Lipo>
135.1335

> <Gold.Chemscore.Internal_Hbond>
0.0000

> <Gold.Chemscore.DEClash>
1.3177

> <Gold.Chemscore.DEInternal>
0.6901

> <Gold.Chemscore.Rot>
2.3468

> <Gold.Chemscore.Internal.Correction>
   9.000000E+99

> <Gold.Chemscore.Hbonds>
donor molecule, donor type, donor heavy atom, donor atom, acceptor molecule, acceptor atom, score
      L1  H     7    54       P1 10175  0.89
      L1  H    10    38       P1  7957  0.73
      P1  H  7989  7998       L1    10  0.08
      P1  H  8011  8017       L1    10  0.34

> <Gold.Chemscore.Hbond.Weighted>
-8.0351

> <Gold.Chemscore.Metal.Weighted>
-0.0000

> <Gold.Chemscore.Lipo.Weighted>
-15.8106

> <Gold.Chemscore.Internal_Hbond.Weighted>
0.0000

> <Gold.Chemscore.DEClash.Weighted>
1.3177

> <Gold.Chemscore.DEInternal.Weighted>
0.6901

> <Gold.Chemscore.Rot.Weighted>
6.0077

> <Gold.Chemscore.Internal.Correction.Weighted>
   9.000000E+99

> <Gold.Protein.RotatedTorsions>
[ 6907 6896 6895 6894 ] final  -58.07 input  -60.11 | X-H torsion
[ 7974 7965 7964 7962 ] final  139.60 input  175.53 | X-H torsion
[ 8008 7997 7996 7995 ] final -148.57 input   59.86 | X-H torsion
[ 10167 10162 10161 10158 ] final   26.14 input  -65.29 | X-H torsion
[ 10718 10713 10712 10709 ] final    9.45 input   66.30 | X-H torsion
[ 10763 10752 10751 10750 ] final  177.05 input  -60.55 | X-H torsion
[ 11005 11000 10999 10996 ] final   86.01 input  -57.11 | X-H torsion

> <Gold.Protein.ActiveResidues>
 VAL166  LYS551  ARG553  GLY616  TRP617  ASP618  TYR619  PRO620  LYS621  CYS622 
 ASP623  PHE694  ASN695  SER759  ASP760  ASP761  ALA762  ILE779  LEU786  VAL792 
 PHE793  MET794  SER795  GLU796  ALA797  LYS798  CYS799  TRP800  GLU811  SER814 

> <Gold.Protein.RotatedAtoms>
  150.8036  134.7146  159.6622 H   0  0  0  0  0  0  0  0  0  0  0  0  # atno 6907 bound_to 6896
  152.4154  134.6048  160.0019 H   0  0  0  0  0  0  0  0  0  0  0  0  # atno 6908 bound_to 6896
  151.6278  133.3297  159.3138 H   0  0  0  0  0  0  0  0  0  0  0  0  # atno 6909 bound_to 6896
  144.9263  139.5103  143.5639 H   0  0  0  0  0  0  0  0  0  0  0  0  # atno 7974 bound_to 7965
  155.5938  140.0655  157.2751 H   0  0  0  0  0  0  0  0  0  0  0  0  # atno 8008 bound_to 7997
  154.4298  140.1830  156.1149 H   0  0  0  0  0  0  0  0  0  0  0  0  # atno 8009 bound_to 7997
  156.0212  140.3316  155.7044 H   0  0  0  0  0  0  0  0  0  0  0  0  # atno 8010 bound_to 7997
  140.5047  144.0258  150.6347 H   0  0  0  0  0  0  0  0  0  0  0  0  # atno 10167 bound_to 10162
  156.9665  130.5953  149.5665 H   0  0  0  0  0  0  0  0  0  0  0  0  # atno 10718 bound_to 10713
  154.4894  135.2778  155.1509 H   0  0  0  0  0  0  0  0  0  0  0  0  # atno 10763 bound_to 10752
  154.3187  135.6214  153.5501 H   0  0  0  0  0  0  0  0  0  0  0  0  # atno 10764 bound_to 10752
  152.9886  135.5737  154.5312 H   0  0  0  0  0  0  0  0  0  0  0  0  # atno 10765 bound_to 10752
  139.8956  134.8326  156.2661 H   0  0  0  0  0  0  0  0  0  0  0  0  # atno 11005 bound_to 11000
  146.3227  139.8181  142.8932 LP  0  0  0  0  0  0  0  0  0  0  0  0  # atno 17320 bound_to 7965
  145.3213  141.0244  143.3499 LP  0  0  0  0  0  0  0  0  0  0  0  0  # atno 17321 bound_to 7965
  140.3563  143.2933  152.0432 LP  0  0  0  0  0  0  0  0  0  0  0  0  # atno 17342 bound_to 10162
  139.4881  144.6336  151.7020 LP  0  0  0  0  0  0  0  0  0  0  0  0  # atno 17343 bound_to 10162
  156.0300  130.5392  150.8510 LP  0  0  0  0  0  0  0  0  0  0  0  0  # atno 17370 bound_to 10713
  157.5622  131.0946  150.9542 LP  0  0  0  0  0  0  0  0  0  0  0  0  # atno 17371 bound_to 10713
  141.0131  133.7084  156.1144 LP  0  0  0  0  0  0  0  0  0  0  0  0  # atno 17394 bound_to 11000
  140.7340  134.4224  157.5563 LP  0  0  0  0  0  0  0  0  0  0  0  0  # atno 17395 bound_to 11000

$$$$
