AV-unprocessed.smi:1326|AV-procd|sdf|5474|dock10
  -GOLD-   22720 5 43D 1   1.00000     0.00000
 Structure written by MMmdl.
 39 39  0  0  0  0  0  0  0  0  1 V2000
  146.5133  138.3172  152.0129 C   0  0  0  0  0  0  0  0  0  0  0  0
  147.2688  139.3538  152.8174 C   0  0  0  0  0  0  0  0  0  0  0  0
  146.7491  140.4598  153.2380 N   0  0  0  0  0  0  0  0  0  0  0  0
  147.5495  141.3452  153.9735 C   0  0  0  0  0  0  0  0  0  0  0  0
  146.8591  142.6179  154.4345 C   0  0  0  0  0  0  0  0  0  0  0  0
  148.8569  141.0641  154.2520 C   0  0  0  0  0  0  0  0  0  0  0  0
  149.7708  142.0036  155.0392 C   0  0  0  0  0  0  0  0  0  0  0  0
  150.3039  141.4701  156.3725 C   0  0  0  0  0  0  0  0  0  0  0  0
  150.2026  140.2725  156.6367 O   0  0  0  0  0  0  0  0  0  0  0  0
  150.8583  142.3603  157.2083 N   0  0  0  0  0  0  0  0  0  0  0  0
  151.4116  142.0370  158.5151 C   0  0  0  0  0  0  0  0  0  0  0  0
  152.2870  143.1928  159.0261 C   0  0  0  0  0  0  0  0  0  0  0  0
  151.6330  144.0335  160.1417 C   0  0  0  0  0  0  0  0  0  0  0  0
  151.7037  145.5440  159.8596 C   0  0  0  0  0  0  0  0  0  0  0  0
  152.2672  143.7148  161.5043 C   0  0  0  0  0  0  0  0  0  0  0  0
  149.4392  139.7977  153.7672 C   0  0  0  0  0  0  0  0  0  0  0  0
  150.6031  139.4491  153.9580 O   0  0  0  0  0  0  0  0  0  0  0  0
  148.5948  139.0066  153.0685 N   0  0  0  0  0  0  0  0  0  0  0  0
  148.9470  138.1286  152.7156 H   0  0  0  0  0  0  0  0  0  0  0  0
  147.1451  137.4651  151.7584 H   0  0  0  0  0  0  0  0  0  0  0  0
  146.1449  138.7572  151.0857 H   0  0  0  0  0  0  0  0  0  0  0  0
  145.6588  137.9505  152.5822 H   0  0  0  0  0  0  0  0  0  0  0  0
  146.7994  142.6448  155.5227 H   0  0  0  0  0  0  0  0  0  0  0  0
  145.8427  142.6809  154.0435 H   0  0  0  0  0  0  0  0  0  0  0  0
  147.3989  143.5011  154.0948 H   0  0  0  0  0  0  0  0  0  0  0  0
  150.6316  142.2774  154.4301 H   0  0  0  0  0  0  0  0  0  0  0  0
  149.2508  142.9463  155.2173 H   0  0  0  0  0  0  0  0  0  0  0  0
  150.9003  143.3265  156.9175 H   0  0  0  0  0  0  0  0  0  0  0  0
  150.5930  141.8397  159.2081 H   0  0  0  0  0  0  0  0  0  0  0  0
  152.0008  141.1222  158.4379 H   0  0  0  0  0  0  0  0  0  0  0  0
  153.2208  142.7732  159.4035 H   0  0  0  0  0  0  0  0  0  0  0  0
  152.5639  143.8407  158.1929 H   0  0  0  0  0  0  0  0  0  0  0  0
  150.5806  143.7530  160.2027 H   0  0  0  0  0  0  0  0  0  0  0  0
  152.7351  145.8774  159.7393 H   0  0  0  0  0  0  0  0  0  0  0  0
  151.2651  146.1153  160.6782 H   0  0  0  0  0  0  0  0  0  0  0  0
  151.1577  145.8118  158.9555 H   0  0  0  0  0  0  0  0  0  0  0  0
  153.3283  143.9670  161.5159 H   0  0  0  0  0  0  0  0  0  0  0  0
  152.1742  142.6555  161.7454 H   0  0  0  0  0  0  0  0  0  0  0  0
  151.7834  144.2750  162.3050 H   0  0  0  0  0  0  0  0  0  0  0  0
  1  2  1  0  0  0  0
  1 20  1  0  0  0  0
  1 21  1  0  0  0  0
  1 22  1  0  0  0  0
  2 18  1  0  0  0  0
  2  3  2  0  0  0  0
  3  4  1  0  0  0  0
  4  5  1  0  0  0  0
  4  6  2  0  0  0  0
  5 23  1  0  0  0  0
  5 24  1  0  0  0  0
  5 25  1  0  0  0  0
  6  7  1  0  0  0  0
  6 16  1  0  0  0  0
  7  8  1  0  0  0  0
  7 26  1  0  0  0  0
  7 27  1  0  0  0  0
  8  9  2  0  0  0  0
  8 10  1  0  0  0  0
 10 11  1  0  0  0  0
 10 28  1  0  0  0  0
 11 12  1  0  0  0  0
 11 29  1  0  0  0  0
 11 30  1  0  0  0  0
 12 13  1  0  0  0  0
 12 31  1  0  0  0  0
 12 32  1  0  0  0  0
 13 14  1  0  0  0  0
 13 15  1  0  0  0  0
 13 33  1  0  0  0  0
 14 34  1  0  0  0  0
 14 35  1  0  0  0  0
 14 36  1  0  0  0  0
 15 37  1  0  0  0  0
 15 38  1  0  0  0  0
 15 39  1  0  0  0  0
 16 17  2  0  0  0  0
 16 18  1  0  0  0  0
 18 19  1  0  0  0  0
M  END
> <s_m_source_file>
AV-unprocessed.smi

> <i_m_source_file_index>
1326

> <i_lp_mmshare_version>
43012

> <i_f3d_flags>
0

> <s_epik_input>
W0NIM11jMW5jKFtDSDNdKWMoYyg9TylbbkhdMSlbQ0gyXUMoPU8pW05IXVtDSDJdW0NIMl1bQ0hdKFtDSDNdKVtDSDNd

> <s_epik_cmdline>
J2VwaWtfcHl0aG9uJywgJy1waCcsICc3LjAnLCAnLXRuJywgJzgnLCAnLW1hJywgJzIwMCcsICctbWV0YWxfYmluZGluZycsICctaW1hZScsICc8aW5maWxlLm1hZT4nLCAnLW9tYWUnLCAnPG91dGZpbGUubWFlPic=

> <r_lp_tautomer_probability>
0.839158

> <r_epik_Ionization_Penalty>
0.000369141

> <r_epik_Ionization_Penalty_Charging>
0.00033405

> <r_epik_Ionization_Penalty_Neutral>
3.5091e-05

> <r_epik_State_Penalty>
0.09125

> <r_epik_Charging_Adjusted_Penalty>
0.0915841

> <i_epik_Tot_Q>
0

> <i_epik_Tot_abs_Q>
0

> <r_epik_Metal_State_Penalty>
0.250923

> <b_epik_Metal_Only>
0

> <s_lp_Force_Field>
OPLS_2005

> <r_lp_Energy>
6.99246

> <b_lp_Chiralities_Consistent>
1

> <s_lp_Variant>
AV-unprocessed.smi:1326-1

> <Gold.Version>
5.8.1

> <Gold.Id.Protein>
6NUR|6NUR_protein|mol2

> <Gold.PLP.Fitness>
42.9189

> <Gold.PLP.PLP>
-39.4328

> <Gold.PLP.part.hbond>
-3.0000

> <Gold.PLP.part.metal>
0.0000

> <Gold.PLP.part.buried>
2.3497

> <Gold.PLP.part.nonpolar>
-38.5263

> <Gold.PLP.part.repulsive>
0.4827

> <Gold.PLP.ligand.clash>
0.0000

> <Gold.PLP.ligand.torsion>
1.2633

> <Gold.PLP.Chemscore.Hbond>
2.0000

> <Gold.PLP.Chemscore.CHOScore>
0.0000

> <Gold.PLP.Chemscore.Metal>
0.0000

> <Gold.Chemscore.Hbonds>
donor molecule, donor type, donor heavy atom, donor atom, acceptor molecule, acceptor atom, score
      L1  H    18    19       P1  7948  0.96
      P1  H  7989  7998       L1    17  1.00

> <Gold.PLP.Chemscore.Internal.Correction>
0.0128

> <Gold.Rescore>
     Score         DG    S(hbond)    S(metal)    S(lipo)     H(rot)  DE(clash)    DE(int)     intcor
     14.38     -15.97       1.53        0.00      87.35       1.89       0.14       1.45       ----

> <Gold.Chemscore.Fitness>
14.3809

> <Gold.Chemscore.DG>
-15.9699

> <Gold.Chemscore.ZeroCoef>
-5.4800

> <Gold.Chemscore.Hbond>
1.5307

> <Gold.Chemscore.Metal>
0.0000

> <Gold.Chemscore.Lipo>
87.3497

> <Gold.Chemscore.Internal_Hbond>
0.0000

> <Gold.Chemscore.DEClash>
0.1378

> <Gold.Chemscore.DEInternal>
1.4512

> <Gold.Chemscore.Rot>
1.8916

> <Gold.Chemscore.Internal.Correction>
   9.000000E+99

> <Gold.Chemscore.Hbonds>
donor molecule, donor type, donor heavy atom, donor atom, acceptor molecule, acceptor atom, score
      L1  H    18    19       P1  7948  0.91
      P1  H  7989  7998       L1    17  0.54

> <Gold.Chemscore.Hbond.Weighted>
-5.1124

> <Gold.Chemscore.Metal.Weighted>
-0.0000

> <Gold.Chemscore.Lipo.Weighted>
-10.2199

> <Gold.Chemscore.Internal_Hbond.Weighted>
0.0000

> <Gold.Chemscore.DEClash.Weighted>
0.1378

> <Gold.Chemscore.DEInternal.Weighted>
1.4512

> <Gold.Chemscore.Rot.Weighted>
4.8424

> <Gold.Chemscore.Internal.Correction.Weighted>
   9.000000E+99

> <Gold.Protein.RotatedTorsions>
[ 6907 6896 6895 6894 ] final   42.45 input  -60.11 | X-H torsion
[ 7974 7965 7964 7962 ] final  109.32 input  175.53 | X-H torsion
[ 8008 7997 7996 7995 ] final  -10.20 input   59.86 | X-H torsion
[ 10167 10162 10161 10158 ] final  110.03 input  -65.29 | X-H torsion
[ 10718 10713 10712 10709 ] final -122.63 input   66.30 | X-H torsion
[ 10763 10752 10751 10750 ] final  -47.43 input  -60.55 | X-H torsion
[ 11005 11000 10999 10996 ] final   20.91 input  -57.11 | X-H torsion

> <Gold.Protein.ActiveResidues>
 VAL166  LYS551  ARG553  GLY616  TRP617  ASP618  TYR619  PRO620  LYS621  CYS622 
 ASP623  PHE694  ASN695  SER759  ASP760  ASP761  ALA762  ILE779  LEU786  VAL792 
 PHE793  MET794  SER795  GLU796  ALA797  LYS798  CYS799  TRP800  GLU811  SER814 

> <Gold.Protein.RotatedAtoms>
  152.2079  134.8528  160.0500 H   0  0  0  0  0  0  0  0  0  0  0  0  # atno 6907 bound_to 6896
  151.9357  133.3618  159.3955 H   0  0  0  0  0  0  0  0  0  0  0  0  # atno 6908 bound_to 6896
  150.6969  134.4416  159.5339 H   0  0  0  0  0  0  0  0  0  0  0  0  # atno 6909 bound_to 6896
  145.2693  139.2672  143.3975 H   0  0  0  0  0  0  0  0  0  0  0  0  # atno 7974 bound_to 7965
  154.5577  140.2335  155.8385 H   0  0  0  0  0  0  0  0  0  0  0  0  # atno 8008 bound_to 7997
  156.2002  140.3054  155.9471 H   0  0  0  0  0  0  0  0  0  0  0  0  # atno 8009 bound_to 7997
  155.2949  140.0428  157.3016 H   0  0  0  0  0  0  0  0  0  0  0  0  # atno 8010 bound_to 7997
  139.6720  144.7124  151.1670 H   0  0  0  0  0  0  0  0  0  0  0  0  # atno 10167 bound_to 10162
  156.1434  130.6482  150.9806 H   0  0  0  0  0  0  0  0  0  0  0  0  # atno 10718 bound_to 10713
  154.0612  135.6617  153.4812 H   0  0  0  0  0  0  0  0  0  0  0  0  # atno 10763 bound_to 10752
  153.0426  135.5135  154.7657 H   0  0  0  0  0  0  0  0  0  0  0  0  # atno 10764 bound_to 10752
  154.6694  135.3027  154.9729 H   0  0  0  0  0  0  0  0  0  0  0  0  # atno 10765 bound_to 10752
  140.3974  134.1754  155.7663 H   0  0  0  0  0  0  0  0  0  0  0  0  # atno 11005 bound_to 11000
  146.3251  140.3132  142.8628 LP  0  0  0  0  0  0  0  0  0  0  0  0  # atno 17320 bound_to 7965
  144.9349  140.8015  143.5666 LP  0  0  0  0  0  0  0  0  0  0  0  0  # atno 17321 bound_to 7965
  140.7621  143.5830  150.8875 LP  0  0  0  0  0  0  0  0  0  0  0  0  # atno 17342 bound_to 10162
  139.9496  143.6288  152.3032 LP  0  0  0  0  0  0  0  0  0  0  0  0  # atno 17343 bound_to 10162
  157.6596  131.0883  150.7870 LP  0  0  0  0  0  0  0  0  0  0  0  0  # atno 17370 bound_to 10713
  156.7943  130.4900  149.5380 LP  0  0  0  0  0  0  0  0  0  0  0  0  # atno 17371 bound_to 10713
  141.1869  133.8293  157.1052 LP  0  0  0  0  0  0  0  0  0  0  0  0  # atno 17394 bound_to 11000
  140.0361  134.9877  157.0874 LP  0  0  0  0  0  0  0  0  0  0  0  0  # atno 17395 bound_to 11000

$$$$
