AV-unprocessed.smi:3110|AV-procd|sdf|11828|dock7
  -GOLD-   2272017203D 1   1.00000     0.00000
 Structure written by MMmdl.
 34 35  0  0  0  0  0  0  0  0  2 V2000
  150.5411  141.5124  158.7417 O   0  0  0  0  0  0  0  0  0  0  0  0
  150.2956  142.4802  158.0209 C   0  0  0  0  0  0  0  0  0  0  0  0
  150.3356  143.9035  158.5882 C   0  0  0  0  0  0  0  0  0  0  0  0
  151.6545  144.2412  159.3147 C   0  0  2  0  0  0  0  0  0  0  0  0
  152.7885  143.3486  158.8812 C   0  0  0  0  0  0  0  0  0  0  0  0
  153.4296  142.7938  159.9076 C   0  0  0  0  0  0  0  0  0  0  0  0
  152.8526  143.2026  161.2343 C   0  0  0  0  0  0  0  0  0  0  0  0
  151.6124  144.0410  160.8538 C   0  0  0  0  0  0  0  0  0  0  0  0
  149.9785  142.3653  156.7220 N   0  0  0  0  0  0  0  0  0  0  0  0
  149.8976  141.1063  155.9916 C   0  0  0  0  0  0  0  0  0  0  0  0
  149.4966  141.3274  154.5235 C   0  0  0  0  0  0  0  0  0  0  0  0
  148.0545  141.5320  154.3819 N   0  0  0  0  0  0  0  0  0  0  0  0
  147.2659  142.4133  155.0757 C   0  0  0  0  0  0  0  0  0  0  0  0
  145.9896  142.2517  154.6008 C   0  0  0  0  0  0  0  0  0  0  0  0
  146.0538  141.2798  153.6383 N   0  3  0  0  0  0  0  0  0  0  0  0
  147.3109  140.8437  153.5063 C   0  0  0  0  0  0  0  0  0  0  0  0
  150.1662  144.6216  157.7841 H   0  0  0  0  0  0  0  0  0  0  0  0
  149.4983  144.0108  159.2786 H   0  0  0  0  0  0  0  0  0  0  0  0
  151.9543  145.2647  159.0839 H   0  0  0  0  0  0  0  0  0  0  0  0
  153.0426  143.2058  157.8410 H   0  0  0  0  0  0  0  0  0  0  0  0
  154.2806  142.1333  159.8278 H   0  0  0  0  0  0  0  0  0  0  0  0
  152.5858  142.3273  161.8271 H   0  0  0  0  0  0  0  0  0  0  0  0
  153.5837  143.7916  161.7891 H   0  0  0  0  0  0  0  0  0  0  0  0
  151.5974  144.9963  161.3796 H   0  0  0  0  0  0  0  0  0  0  0  0
  150.7116  143.5010  161.1489 H   0  0  0  0  0  0  0  0  0  0  0  0
  149.7907  143.2107  156.2022 H   0  0  0  0  0  0  0  0  0  0  0  0
  150.8729  140.6211  156.0420 H   0  0  0  0  0  0  0  0  0  0  0  0
  149.1922  140.4363  156.4864 H   0  0  0  0  0  0  0  0  0  0  0  0
  150.0024  142.1980  154.1028 H   0  0  0  0  0  0  0  0  0  0  0  0
  149.7764  140.4677  153.9131 H   0  0  0  0  0  0  0  0  0  0  0  0
  147.6604  143.0723  155.8354 H   0  0  0  0  0  0  0  0  0  0  0  0
  145.0648  142.7422  154.8686 H   0  0  0  0  0  0  0  0  0  0  0  0
  147.6573  140.0859  152.8258 H   0  0  0  0  0  0  0  0  0  0  0  0
  145.2656  140.9384  153.1025 H   0  0  0  0  0  0  0  0  0  0  0  0
  1  2  2  0  0  0  0
  2  3  1  0  0  0  0
  2  9  1  0  0  0  0
  3  4  1  0  0  0  0
  3 17  1  0  0  0  0
  3 18  1  0  0  0  0
  4  8  1  0  0  0  0
  4  5  1  0  0  0  0
  4 19  1  0  0  0  0
  5  6  2  0  0  0  0
  5 20  1  0  0  0  0
  6  7  1  0  0  0  0
  6 21  1  0  0  0  0
  7  8  1  0  0  0  0
  7 22  1  0  0  0  0
  7 23  1  0  0  0  0
  8 24  1  0  0  0  0
  8 25  1  0  0  0  0
  9 10  1  0  0  0  0
  9 26  1  0  0  0  0
 10 11  1  0  0  0  0
 10 27  1  0  0  0  0
 10 28  1  0  0  0  0
 11 12  1  0  0  0  0
 11 29  1  0  0  0  0
 11 30  1  0  0  0  0
 12 16  1  0  0  0  0
 12 13  1  0  0  0  0
 13 14  2  0  0  0  0
 13 31  1  0  0  0  0
 14 15  1  0  0  0  0
 14 32  1  0  0  0  0
 15 16  2  0  0  0  0
 15 34  1  0  0  0  0
 16 33  1  0  0  0  0
M  CHG  1  15   1
M  END
> <s_m_source_file>
AV-unprocessed.smi

> <i_m_source_file_index>
3110

> <i_lp_mmshare_version>
43012

> <i_f3d_flags>
0

> <s_epik_input>
W0NIMl0xW0NIMl1bQ0hdPVtDSF1bQ0BIXTFbQ0gyXUMoPU8pW05IXVtDSDJdW0NIMl1uMltjSF1bY0hdbltjSF0y

> <s_epik_cmdline>
J2VwaWtfcHl0aG9uJywgJy1waCcsICc3LjAnLCAnLXRuJywgJzgnLCAnLW1hJywgJzIwMCcsICctbWV0YWxfYmluZGluZycsICctaW1hZScsICc8aW5maWxlLm1hZT4nLCAnLW9tYWUnLCAnPG91dGZpbGUubWFlPic=

> <r_lp_tautomer_probability>
1

> <r_epik_Ionization_Penalty>
0.271094

> <r_epik_Ionization_Penalty_Charging>
0

> <r_epik_Ionization_Penalty_Neutral>
0.271094

> <r_epik_State_Penalty>
0.263241

> <r_epik_Charging_Adjusted_Penalty>
0.263241

> <i_epik_Tot_Q>
1

> <i_epik_Tot_abs_Q>
1

> <r_epik_Metal_State_Penalty>
0.547832

> <b_epik_Metal_Only>
0

> <s_lp_Force_Field>
OPLS_2005

> <r_lp_Energy>
18.4695

> <b_lp_Chiralities_Consistent>
1

> <s_lp_Variant>
AV-unprocessed.smi:3110-1

> <Gold.Version>
5.8.1

> <Gold.Id.Protein>
6NUR|6NUR_protein|mol2

> <Gold.PLP.Fitness>
51.2679

> <Gold.PLP.PLP>
-37.7119

> <Gold.PLP.part.hbond>
-2.1387

> <Gold.PLP.part.metal>
0.0000

> <Gold.PLP.part.buried>
-0.7750

> <Gold.PLP.part.nonpolar>
-34.9049

> <Gold.PLP.part.repulsive>
0.0634

> <Gold.PLP.ligand.clash>
0.0000

> <Gold.PLP.ligand.torsion>
0.7333

> <Gold.PLP.Chemscore.Hbond>
3.0000

> <Gold.PLP.Chemscore.CHOScore>
2.0000

> <Gold.PLP.Chemscore.Metal>
0.0000

> <Gold.Chemscore.Hbonds>
donor molecule, donor type, donor heavy atom, donor atom, acceptor molecule, acceptor atom, score
      L1  H     9    26       P1  8028  1.00
      L1  H    15    34       P1 10175  2.00
      L1  C    13    31       P1  8028  1.00
      L1  C    16    33       P1  7957  0.95

> <Gold.PLP.Chemscore.Internal.Correction>
0.0226

> <Gold.Rescore>
     Score         DG    S(hbond)    S(metal)    S(lipo)     H(rot)  DE(clash)    DE(int)     intcor
     16.01     -17.64       1.96        0.00      93.78       2.10       0.11       1.53       ----

> <Gold.Chemscore.Fitness>
16.0097

> <Gold.Chemscore.DG>
-17.6410

> <Gold.Chemscore.ZeroCoef>
-5.4800

> <Gold.Chemscore.Hbond>
1.9625

> <Gold.Chemscore.Metal>
0.0000

> <Gold.Chemscore.Lipo>
93.7834

> <Gold.Chemscore.Internal_Hbond>
0.0000

> <Gold.Chemscore.DEClash>
0.1060

> <Gold.Chemscore.DEInternal>
1.5253

> <Gold.Chemscore.Rot>
2.0963

> <Gold.Chemscore.Internal.Correction>
   9.000000E+99

> <Gold.Chemscore.Hbonds>
donor molecule, donor type, donor heavy atom, donor atom, acceptor molecule, acceptor atom, score
      L1  H     9    26       P1  8028  0.99
      L1  H    15    34       P1 10175  0.45

> <Gold.Chemscore.Hbond.Weighted>
-6.5547

> <Gold.Chemscore.Metal.Weighted>
-0.0000

> <Gold.Chemscore.Lipo.Weighted>
-10.9727

> <Gold.Chemscore.Internal_Hbond.Weighted>
0.0000

> <Gold.Chemscore.DEClash.Weighted>
0.1060

> <Gold.Chemscore.DEInternal.Weighted>
1.5253

> <Gold.Chemscore.Rot.Weighted>
5.3665

> <Gold.Chemscore.Internal.Correction.Weighted>
   9.000000E+99

> <Gold.Protein.RotatedTorsions>
[ 6907 6896 6895 6894 ] final  -92.71 input  -60.11 | X-H torsion
[ 7974 7965 7964 7962 ] final   57.85 input  175.53 | X-H torsion
[ 8008 7997 7996 7995 ] final  113.21 input   59.86 | X-H torsion
[ 10167 10162 10161 10158 ] final  148.79 input  -65.29 | X-H torsion
[ 10718 10713 10712 10709 ] final    8.98 input   66.30 | X-H torsion
[ 10763 10752 10751 10750 ] final   69.04 input  -60.55 | X-H torsion
[ 11005 11000 10999 10996 ] final  131.37 input  -57.11 | X-H torsion

> <Gold.Protein.ActiveResidues>
 VAL166  LYS551  ARG553  GLY616  TRP617  ASP618  TYR619  PRO620  LYS621  CYS622 
 ASP623  PHE694  ASN695  SER759  ASP760  ASP761  ALA762  ILE779  LEU786  VAL792 
 PHE793  MET794  SER795  GLU796  ALA797  LYS798  CYS799  TRP800  GLU811  SER814 

> <Gold.Protein.RotatedAtoms>
  150.6910  134.2079  159.4347 H   0  0  0  0  0  0  0  0  0  0  0  0  # atno 6907 bound_to 6896
  152.0042  134.9909  160.0575 H   0  0  0  0  0  0  0  0  0  0  0  0  # atno 6908 bound_to 6896
  152.1549  133.4510  159.4869 H   0  0  0  0  0  0  0  0  0  0  0  0  # atno 6909 bound_to 6896
  145.9246  139.3757  143.0458 H   0  0  0  0  0  0  0  0  0  0  0  0  # atno 7974 bound_to 7965
  156.2243  140.2984  156.0029 H   0  0  0  0  0  0  0  0  0  0  0  0  # atno 8008 bound_to 7997
  155.2398  140.0422  157.2990 H   0  0  0  0  0  0  0  0  0  0  0  0  # atno 8009 bound_to 7997
  154.5890  140.2396  155.7954 H   0  0  0  0  0  0  0  0  0  0  0  0  # atno 8010 bound_to 7997
  139.4870  144.5652  151.7157 H   0  0  0  0  0  0  0  0  0  0  0  0  # atno 10167 bound_to 10162
  156.9597  130.5928  149.5661 H   0  0  0  0  0  0  0  0  0  0  0  0  # atno 10718 bound_to 10713
  153.0266  135.5225  154.7227 H   0  0  0  0  0  0  0  0  0  0  0  0  # atno 10763 bound_to 10752
  154.6278  135.2896  155.0254 H   0  0  0  0  0  0  0  0  0  0  0  0  # atno 10764 bound_to 10752
  154.1218  135.6606  153.4957 H   0  0  0  0  0  0  0  0  0  0  0  0  # atno 10765 bound_to 10752
  139.9726  134.9573  156.9429 H   0  0  0  0  0  0  0  0  0  0  0  0  # atno 11005 bound_to 11000
  145.8505  140.9531  143.0752 LP  0  0  0  0  0  0  0  0  0  0  0  0  # atno 17320 bound_to 7965
  144.6757  140.0401  143.7481 LP  0  0  0  0  0  0  0  0  0  0  0  0  # atno 17321 bound_to 7965
  140.5229  144.0851  150.6028 LP  0  0  0  0  0  0  0  0  0  0  0  0  # atno 17342 bound_to 10162
  140.3815  143.2800  152.0165 LP  0  0  0  0  0  0  0  0  0  0  0  0  # atno 17343 bound_to 10162
  156.0327  130.5418  150.8577 LP  0  0  0  0  0  0  0  0  0  0  0  0  # atno 17370 bound_to 10713
  157.5666  131.0946  150.9480 LP  0  0  0  0  0  0  0  0  0  0  0  0  # atno 17371 bound_to 10713
  140.5261  134.0860  155.7304 LP  0  0  0  0  0  0  0  0  0  0  0  0  # atno 17394 bound_to 11000
  141.1405  133.9146  157.2336 LP  0  0  0  0  0  0  0  0  0  0  0  0  # atno 17395 bound_to 11000

$$$$
