AV-unprocessed.smi:910|AV-procd|sdf|4127|dock3
  -GOLD-   22720 2 33D 1   1.00000     0.00000
 Structure written by MMmdl.
 46 47  0  0  0  0  0  0  0  0  1 V2000
  146.8136  132.1919  160.9715 C   0  0  0  0  0  0  0  0  0  0  0  0
  146.7928  133.7040  161.0099 C   0  0  0  0  0  0  0  0  0  0  0  0
  147.6595  134.4610  160.2711 N   0  0  0  0  0  0  0  0  0  0  0  0
  147.3885  135.8043  160.5213 C   0  0  0  0  0  0  0  0  0  0  0  0
  147.9119  136.9083  160.0833 N   0  0  0  0  0  0  0  0  0  0  0  0
  148.9487  136.8658  159.1622 C   0  0  0  0  0  0  0  0  0  0  0  0
  149.5951  135.8855  158.7789 O   0  0  0  0  0  0  0  0  0  0  0  0
  149.2110  138.1002  158.7084 N   0  0  0  0  0  0  0  0  0  0  0  0
  150.2570  138.4509  157.7530 C   0  0  0  0  0  0  0  0  0  0  0  0
  150.3813  139.9714  157.5795 C   0  0  0  0  0  0  0  0  0  0  0  0
  151.0947  140.5015  158.6868 O   0  0  0  0  0  0  0  0  0  0  0  0
  151.6888  141.7718  158.4528 C   0  0  1  0  0  0  0  0  0  0  0  0
  150.6350  142.7307  157.8604 C   0  0  0  0  0  0  0  0  0  0  0  0
  151.1866  144.1569  157.7196 C   0  0  0  0  0  0  0  0  0  0  0  0
  151.7068  144.6804  159.0656 C   0  0  0  0  0  0  0  0  0  0  0  0
  152.7637  143.7338  159.6549 C   0  0  0  0  0  0  0  0  0  0  0  0
  152.2261  142.2959  159.8036 C   0  0  2  0  0  0  0  0  0  0  0  0
  153.3080  141.3682  160.3821 C   0  0  0  0  0  0  0  0  0  0  0  0
  146.3525  135.8237  161.4210 O   0  0  0  0  0  0  0  0  0  0  0  0
  146.0117  134.5338  161.6966 C   0  0  0  0  0  0  0  0  0  0  0  0
  144.8845  134.2708  162.6692 C   0  0  0  0  0  0  0  0  0  0  0  0
  146.9981  131.7921  161.9688 H   0  0  0  0  0  0  0  0  0  0  0  0
  147.5959  131.8282  160.3047 H   0  0  0  0  0  0  0  0  0  0  0  0
  145.8553  131.8104  160.6183 H   0  0  0  0  0  0  0  0  0  0  0  0
  148.3603  134.0696  159.6583 H   0  0  0  0  0  0  0  0  0  0  0  0
  148.6526  138.8611  159.0677 H   0  0  0  0  0  0  0  0  0  0  0  0
  151.2103  138.0275  158.0731 H   0  0  0  0  0  0  0  0  0  0  0  0
  150.0180  137.9872  156.7957 H   0  0  0  0  0  0  0  0  0  0  0  0
  150.8962  140.2045  156.6462 H   0  0  0  0  0  0  0  0  0  0  0  0
  149.3875  140.4157  157.5213 H   0  0  0  0  0  0  0  0  0  0  0  0
  152.5294  141.6788  157.7622 H   0  0  0  0  0  0  0  0  0  0  0  0
  150.3005  142.3769  156.8855 H   0  0  0  0  0  0  0  0  0  0  0  0
  149.7529  142.7448  158.5023 H   0  0  0  0  0  0  0  0  0  0  0  0
  151.9931  144.1672  156.9852 H   0  0  0  0  0  0  0  0  0  0  0  0
  150.4102  144.8200  157.3373 H   0  0  0  0  0  0  0  0  0  0  0  0
  152.1302  145.6771  158.9385 H   0  0  0  0  0  0  0  0  0  0  0  0
  150.8759  144.7835  159.7648 H   0  0  0  0  0  0  0  0  0  0  0  0
  153.6458  143.7327  159.0130 H   0  0  0  0  0  0  0  0  0  0  0  0
  153.0895  144.1121  160.6245 H   0  0  0  0  0  0  0  0  0  0  0  0
  151.3970  142.3208  160.5125 H   0  0  0  0  0  0  0  0  0  0  0  0
  154.1610  141.2849  159.7076 H   0  0  0  0  0  0  0  0  0  0  0  0
  152.9213  140.3629  160.5522 H   0  0  0  0  0  0  0  0  0  0  0  0
  153.6752  141.7421  161.3382 H   0  0  0  0  0  0  0  0  0  0  0  0
  144.2789  133.4288  162.3330 H   0  0  0  0  0  0  0  0  0  0  0  0
  144.2410  135.1466  162.7531 H   0  0  0  0  0  0  0  0  0  0  0  0
  145.2850  134.0385  163.6560 H   0  0  0  0  0  0  0  0  0  0  0  0
  1 22  1  0  0  0  0
  1 23  1  0  0  0  0
  1 24  1  0  0  0  0
  1  2  1  0  0  0  0
  2  3  1  0  0  0  0
  2 20  2  0  0  0  0
  3 25  1  0  0  0  0
  3  4  1  0  0  0  0
  4 19  1  0  0  0  0
  4  5  2  0  0  0  0
  5  6  1  0  0  0  0
  6  8  1  0  0  0  0
  6  7  2  0  0  0  0
  8  9  1  0  0  0  0
  8 26  1  0  0  0  0
  9 10  1  0  0  0  0
  9 27  1  0  0  0  0
  9 28  1  0  0  0  0
 10 11  1  0  0  0  0
 10 29  1  0  0  0  0
 10 30  1  0  0  0  0
 11 12  1  0  0  0  0
 12 17  1  0  0  0  0
 12 13  1  0  0  0  0
 12 31  1  0  0  0  0
 13 14  1  0  0  0  0
 13 32  1  0  0  0  0
 13 33  1  0  0  0  0
 14 15  1  0  0  0  0
 14 34  1  0  0  0  0
 14 35  1  0  0  0  0
 15 16  1  0  0  0  0
 15 36  1  0  0  0  0
 15 37  1  0  0  0  0
 16 17  1  0  0  0  0
 16 38  1  0  0  0  0
 16 39  1  0  0  0  0
 17 18  1  0  0  0  0
 17 40  1  0  0  0  0
 18 41  1  0  0  0  0
 18 42  1  0  0  0  0
 18 43  1  0  0  0  0
 19 20  1  0  0  0  0
 20 21  1  0  0  0  0
 21 44  1  0  0  0  0
 21 45  1  0  0  0  0
 21 46  1  0  0  0  0
M  END
> <s_m_source_file>
AV-unprocessed.smi

> <i_m_source_file_index>
910

> <i_lp_mmshare_version>
43012

> <i_f3d_flags>
0

> <s_epik_input>
W0NIM11jMW5jKG9jMVtDSDNdKVtOSF1DKD1PKVtOSF1bQ0gyXVtDSDJdT1tDQEBIXTJbQ0gyXVtDSDJdW0NIMl1bQ0gyXVtDQEhdMltDSDNd

> <s_epik_cmdline>
J2VwaWtfcHl0aG9uJywgJy1waCcsICc3LjAnLCAnLXRuJywgJzgnLCAnLW1hJywgJzIwMCcsICctbWV0YWxfYmluZGluZycsICctaW1hZScsICc8aW5maWxlLm1hZT4nLCAnLW9tYWUnLCAnPG91dGZpbGUubWFlPic=

> <r_lp_tautomer_probability>
0.107061

> <r_epik_Ionization_Penalty>
0.727192

> <r_epik_Ionization_Penalty_Charging>
0.726719

> <r_epik_Ionization_Penalty_Neutral>
0.000473387

> <r_epik_State_Penalty>
2.53712

> <r_epik_Charging_Adjusted_Penalty>
3.26383

> <i_epik_Tot_Q>
0

> <i_epik_Tot_abs_Q>
0

> <r_epik_Metal_State_Penalty>
3.71015

> <b_epik_Metal_Only>
0

> <s_lp_Force_Field>
OPLS_2005

> <r_lp_Energy>
31.2477

> <b_lp_Chiralities_Consistent>
1

> <s_lp_Variant>
AV-unprocessed.smi:910-12

> <Gold.Version>
5.8.1

> <Gold.Id.Protein>
6NUR|6NUR_protein|mol2

> <Gold.PLP.Fitness>
48.1728

> <Gold.PLP.PLP>
-42.7546

> <Gold.PLP.part.hbond>
-3.0000

> <Gold.PLP.part.metal>
0.0000

> <Gold.PLP.part.buried>
-6.2676

> <Gold.PLP.part.nonpolar>
-35.3559

> <Gold.PLP.part.repulsive>
0.2894

> <Gold.PLP.ligand.clash>
0.0000

> <Gold.PLP.ligand.torsion>
0.2662

> <Gold.PLP.Chemscore.Hbond>
1.9803

> <Gold.PLP.Chemscore.CHOScore>
0.0000

> <Gold.PLP.Chemscore.Metal>
0.0000

> <Gold.Chemscore.Hbonds>
donor molecule, donor type, donor heavy atom, donor atom, acceptor molecule, acceptor atom, score
      P1  H  6896  6909       L1     7  1.00
      P1  H  6934  6947       L1     5  0.09

> <Gold.PLP.Chemscore.Internal.Correction>
0.0098

> <Gold.Rescore>
     Score         DG    S(hbond)    S(metal)    S(lipo)     H(rot)  DE(clash)    DE(int)     intcor
     18.48     -20.12       1.81        0.00     109.84       1.66       0.08       1.56       ----

> <Gold.Chemscore.Fitness>
18.4799

> <Gold.Chemscore.DG>
-20.1246

> <Gold.Chemscore.ZeroCoef>
-5.4800

> <Gold.Chemscore.Hbond>
1.8075

> <Gold.Chemscore.Metal>
0.0000

> <Gold.Chemscore.Lipo>
109.8400

> <Gold.Chemscore.Internal_Hbond>
0.0000

> <Gold.Chemscore.DEClash>
0.0815

> <Gold.Chemscore.DEInternal>
1.5632

> <Gold.Chemscore.Rot>
1.6576

> <Gold.Chemscore.Internal.Correction>
   9.000000E+99

> <Gold.Chemscore.Hbonds>
donor molecule, donor type, donor heavy atom, donor atom, acceptor molecule, acceptor atom, score
      P1  H  6896  6909       L1     7  1.00
      P1  H  6934  6947       L1     5  0.11

> <Gold.Chemscore.Hbond.Weighted>
-6.0369

> <Gold.Chemscore.Metal.Weighted>
-0.0000

> <Gold.Chemscore.Lipo.Weighted>
-12.8513

> <Gold.Chemscore.Internal_Hbond.Weighted>
0.0000

> <Gold.Chemscore.DEClash.Weighted>
0.0815

> <Gold.Chemscore.DEInternal.Weighted>
1.5632

> <Gold.Chemscore.Rot.Weighted>
4.2436

> <Gold.Chemscore.Internal.Correction.Weighted>
   9.000000E+99

> <Gold.Protein.RotatedTorsions>
[ 6907 6896 6895 6894 ] final   50.48 input  -60.11 | X-H torsion
[ 7974 7965 7964 7962 ] final  -23.40 input  175.53 | X-H torsion
[ 8008 7997 7996 7995 ] final  111.66 input   59.86 | X-H torsion
[ 10167 10162 10161 10158 ] final  174.80 input  -65.29 | X-H torsion
[ 10718 10713 10712 10709 ] final -139.53 input   66.30 | X-H torsion
[ 10763 10752 10751 10750 ] final -117.80 input  -60.55 | X-H torsion
[ 11005 11000 10999 10996 ] final  -70.35 input  -57.11 | X-H torsion

> <Gold.Protein.ActiveResidues>
 VAL166  LYS551  ARG553  GLY616  TRP617  ASP618  TYR619  PRO620  LYS621  CYS622 
 ASP623  PHE694  ASN695  SER759  ASP760  ASP761  ALA762  ILE779  LEU786  VAL792 
 PHE793  MET794  SER795  GLU796  ALA797  LYS798  CYS799  TRP800  GLU811  SER814 

> <Gold.Protein.RotatedAtoms>
  152.3022  134.7597  160.0354 H   0  0  0  0  0  0  0  0  0  0  0  0  # atno 6907 bound_to 6896
  151.8106  133.3376  159.3562 H   0  0  0  0  0  0  0  0  0  0  0  0  # atno 6908 bound_to 6896
  150.7279  134.5597  159.5880 H   0  0  0  0  0  0  0  0  0  0  0  0  # atno 6909 bound_to 6896
  146.1618  140.4611  142.8568 H   0  0  0  0  0  0  0  0  0  0  0  0  # atno 7974 bound_to 7965
  156.2139  140.3015  155.9795 H   0  0  0  0  0  0  0  0  0  0  0  0  # atno 8008 bound_to 7997
  155.2655  140.0431  157.3019 H   0  0  0  0  0  0  0  0  0  0  0  0  # atno 8009 bound_to 7997
  154.5739  140.2356  155.8159 H   0  0  0  0  0  0  0  0  0  0  0  0  # atno 8010 bound_to 7997
  139.5155  144.3104  152.0296 H   0  0  0  0  0  0  0  0  0  0  0  0  # atno 10167 bound_to 10162
  156.3118  130.7486  151.1563 H   0  0  0  0  0  0  0  0  0  0  0  0  # atno 10718 bound_to 10713
  154.8567  135.4296  154.2038 H   0  0  0  0  0  0  0  0  0  0  0  0  # atno 10763 bound_to 10752
  153.3079  135.6973  153.7149 H   0  0  0  0  0  0  0  0  0  0  0  0  # atno 10764 bound_to 10752
  153.6253  135.3494  155.2998 H   0  0  0  0  0  0  0  0  0  0  0  0  # atno 10765 bound_to 10752
  141.1572  133.6787  156.6738 H   0  0  0  0  0  0  0  0  0  0  0  0  # atno 11005 bound_to 11000
  144.8038  140.6261  143.6461 LP  0  0  0  0  0  0  0  0  0  0  0  0  # atno 17320 bound_to 7965
  145.4568  139.1517  143.3888 LP  0  0  0  0  0  0  0  0  0  0  0  0  # atno 17321 bound_to 7965
  140.2549  144.4129  150.6207 LP  0  0  0  0  0  0  0  0  0  0  0  0  # atno 17342 bound_to 10162
  140.6198  143.2175  151.6716 LP  0  0  0  0  0  0  0  0  0  0  0  0  # atno 17343 bound_to 10162
  157.7392  131.0531  150.5243 LP  0  0  0  0  0  0  0  0  0  0  0  0  # atno 17370 bound_to 10713
  156.5384  130.4202  149.6166 LP  0  0  0  0  0  0  0  0  0  0  0  0  # atno 17371 bound_to 10713
  140.3154  134.8051  157.4210 LP  0  0  0  0  0  0  0  0  0  0  0  0  # atno 17394 bound_to 11000
  140.1142  134.5305  155.8239 LP  0  0  0  0  0  0  0  0  0  0  0  0  # atno 17395 bound_to 11000

$$$$
