AV-unprocessed.smi:3245|AV-procd|sdf|12402|dock3
  -GOLD-   2272018273D 1   1.00000     0.00000
 Structure written by MMmdl.
 36 37  0  0  0  0  0  0  0  0  2 V2000
  149.7007  142.7678  158.6779 C   0  0  0  0  0  0  0  0  0  0  0  0
  151.0303  142.4450  157.9830 C   0  0  2  0  0  0  0  0  0  0  0  0
  152.1540  143.3681  158.5028 C   0  0  0  0  0  0  0  0  0  0  0  0
  152.5201  143.0958  159.8814 N   0  0  0  0  0  0  0  0  0  0  0  0
  153.0956  141.9587  160.4076 C   0  0  0  0  0  0  0  0  0  0  0  0
  153.2723  142.1750  161.7442 C   0  0  0  0  0  0  0  0  0  0  0  0
  152.7624  143.4879  161.9458 C   0  0  0  0  0  0  0  0  0  0  0  0
  152.3134  144.0369  160.8285 N   0  0  0  0  0  0  0  0  0  0  0  0
  150.8642  142.5770  156.5176 N   0  3  0  0  0  0  0  0  0  0  0  0
  150.3118  141.3848  155.8425 C   0  0  0  0  0  0  0  0  0  0  0  0
  149.2253  141.7811  154.8325 C   0  0  0  0  0  0  0  0  0  0  0  0
  148.5307  140.6015  154.3111 N   0  0  0  0  0  0  0  0  0  0  0  0
  147.2332  140.5797  153.9792 C   0  0  0  0  0  0  0  0  0  0  0  0
  146.4268  141.5062  154.0539 O   0  0  0  0  0  0  0  0  0  0  0  0
  146.8940  139.1982  153.4636 C   0  0  0  0  0  0  0  0  0  0  0  0
  148.1959  138.5773  153.5835 N   0  0  0  0  0  0  0  0  0  0  0  0
  149.1195  139.4162  154.0702 C   0  0  0  0  0  0  0  0  0  0  0  0
  150.3036  139.1390  154.2544 O   0  0  0  0  0  0  0  0  0  0  0  0
  149.7814  142.6403  159.7579 H   0  0  0  0  0  0  0  0  0  0  0  0
  148.9039  142.1097  158.3297 H   0  0  0  0  0  0  0  0  0  0  0  0
  149.3910  143.7961  158.4873 H   0  0  0  0  0  0  0  0  0  0  0  0
  151.2782  141.4097  158.2240 H   0  0  0  0  0  0  0  0  0  0  0  0
  153.0431  143.2806  157.8757 H   0  0  0  0  0  0  0  0  0  0  0  0
  151.8374  144.4102  158.4431 H   0  0  0  0  0  0  0  0  0  0  0  0
  153.3333  141.1025  159.7938 H   0  0  0  0  0  0  0  0  0  0  0  0
  153.6993  141.4978  162.4689 H   0  0  0  0  0  0  0  0  0  0  0  0
  152.7084  144.0547  162.8635 H   0  0  0  0  0  0  0  0  0  0  0  0
  150.2392  143.3488  156.3340 H   0  0  0  0  0  0  0  0  0  0  0  0
  151.1073  140.8461  155.3281 H   0  0  0  0  0  0  0  0  0  0  0  0
  149.9061  140.7068  156.5944 H   0  0  0  0  0  0  0  0  0  0  0  0
  148.5124  142.4636  155.2985 H   0  0  0  0  0  0  0  0  0  0  0  0
  149.6708  142.3376  154.0059 H   0  0  0  0  0  0  0  0  0  0  0  0
  146.1521  138.7037  154.0914 H   0  0  0  0  0  0  0  0  0  0  0  0
  146.5552  139.2258  152.4276 H   0  0  0  0  0  0  0  0  0  0  0  0
  148.3748  137.6192  153.3195 H   0  0  0  0  0  0  0  0  0  0  0  0
  151.7668  142.7924  156.1179 H   0  0  0  0  0  0  0  0  0  0  0  0
  1  2  1  0  0  0  0
  1 19  1  0  0  0  0
  1 20  1  0  0  0  0
  1 21  1  0  0  0  0
  2  3  1  0  0  0  0
  2  9  1  0  0  0  0
  2 22  1  0  0  0  0
  3  4  1  0  0  0  0
  3 23  1  0  0  0  0
  3 24  1  0  0  0  0
  4  8  1  0  0  0  0
  4  5  1  0  0  0  0
  5  6  2  0  0  0  0
  5 25  1  0  0  0  0
  6  7  1  0  0  0  0
  6 26  1  0  0  0  0
  7  8  2  0  0  0  0
  7 27  1  0  0  0  0
  9 10  1  0  0  0  0
  9 28  1  0  0  0  0
  9 36  1  0  0  0  0
 10 11  1  0  0  0  0
 10 29  1  0  0  0  0
 10 30  1  0  0  0  0
 11 12  1  0  0  0  0
 11 31  1  0  0  0  0
 11 32  1  0  0  0  0
 12 17  1  0  0  0  0
 12 13  1  0  0  0  0
 13 14  2  0  0  0  0
 13 15  1  0  0  0  0
 15 16  1  0  0  0  0
 15 33  1  0  0  0  0
 15 34  1  0  0  0  0
 16 17  1  0  0  0  0
 16 35  1  0  0  0  0
 17 18  2  0  0  0  0
M  CHG  1   9   1
M  END
> <s_m_source_file>
AV-unprocessed.smi

> <i_m_source_file_index>
3245

> <i_lp_mmshare_version>
43012

> <i_f3d_flags>
0

> <s_epik_input>
bjFbY0hdW2NIXVtjSF1uMVtDSDJdW0NAQEhdKFtDSDNdKVtOSF1bQ0gyXVtDSDJdTjJDKD1PKVtDSDJdW05IXUMyPU8=

> <s_epik_cmdline>
J2VwaWtfcHl0aG9uJywgJy1waCcsICc3LjAnLCAnLXRuJywgJzgnLCAnLW1hJywgJzIwMCcsICctbWV0YWxfYmluZGluZycsICctaW1hZScsICc8aW5maWxlLm1hZT4nLCAnLW9tYWUnLCAnPG91dGZpbGUubWFlPic=

> <r_lp_tautomer_probability>
1

> <r_epik_Ionization_Penalty>
0.0160742

> <r_epik_Ionization_Penalty_Charging>
0.0159586

> <r_epik_Ionization_Penalty_Neutral>
0.000115543

> <r_epik_State_Penalty>
0.0125702

> <r_epik_Charging_Adjusted_Penalty>
0.0285288

> <i_epik_Tot_Q>
1

> <i_epik_Tot_abs_Q>
1

> <r_epik_Metal_State_Penalty>
0.0881892

> <b_epik_Metal_Only>
0

> <s_lp_Force_Field>
OPLS_2005

> <r_lp_Energy>
19.7378

> <b_lp_Chiralities_Consistent>
1

> <s_lp_Variant>
AV-unprocessed.smi:3245-1

> <Gold.Version>
5.8.1

> <Gold.Id.Protein>
6NUR|6NUR_protein|mol2

> <Gold.PLP.Fitness>
50.9163

> <Gold.PLP.PLP>
-40.8689

> <Gold.PLP.part.hbond>
-4.0000

> <Gold.PLP.part.metal>
0.0000

> <Gold.PLP.part.buried>
1.0447

> <Gold.PLP.part.nonpolar>
-36.7483

> <Gold.PLP.part.repulsive>
0.6222

> <Gold.PLP.ligand.clash>
0.0000

> <Gold.PLP.ligand.torsion>
1.0418

> <Gold.PLP.Chemscore.Hbond>
4.0000

> <Gold.PLP.Chemscore.CHOScore>
0.0000

> <Gold.PLP.Chemscore.Metal>
0.0000

> <Gold.Chemscore.Hbonds>
donor molecule, donor type, donor heavy atom, donor atom, acceptor molecule, acceptor atom, score
      L1  H     9    28       P1  8028  1.98
      L1  H    16    35       P1  7948  0.84
      P1  H  7989  7998       L1    18  0.32

> <Gold.PLP.Chemscore.Internal.Correction>
0.1310

> <Gold.Rescore>
     Score         DG    S(hbond)    S(metal)    S(lipo)     H(rot)  DE(clash)    DE(int)     intcor
     13.96     -16.64       2.66        0.00      79.42       2.74       0.12       2.56       ----

> <Gold.Chemscore.Fitness>
13.9555

> <Gold.Chemscore.DG>
-16.6372

> <Gold.Chemscore.ZeroCoef>
-5.4800

> <Gold.Chemscore.Hbond>
2.6561

> <Gold.Chemscore.Metal>
0.0000

> <Gold.Chemscore.Lipo>
79.4219

> <Gold.Chemscore.Internal_Hbond>
0.0000

> <Gold.Chemscore.DEClash>
0.1214

> <Gold.Chemscore.DEInternal>
2.5603

> <Gold.Chemscore.Rot>
2.7369

> <Gold.Chemscore.Internal.Correction>
   9.000000E+99

> <Gold.Chemscore.Hbonds>
donor molecule, donor type, donor heavy atom, donor atom, acceptor molecule, acceptor atom, score
      L1  H     9    28       P1  8028  0.92
      L1  H    16    35       P1  7948  0.78
      P1  H  7989  7998       L1    18  0.23

> <Gold.Chemscore.Hbond.Weighted>
-8.8713

> <Gold.Chemscore.Metal.Weighted>
-0.0000

> <Gold.Chemscore.Lipo.Weighted>
-9.2924

> <Gold.Chemscore.Internal_Hbond.Weighted>
0.0000

> <Gold.Chemscore.DEClash.Weighted>
0.1214

> <Gold.Chemscore.DEInternal.Weighted>
2.5603

> <Gold.Chemscore.Rot.Weighted>
7.0065

> <Gold.Chemscore.Internal.Correction.Weighted>
   9.000000E+99

> <Gold.Protein.RotatedTorsions>
[ 6907 6896 6895 6894 ] final  -24.47 input  -60.11 | X-H torsion
[ 7974 7965 7964 7962 ] final   12.54 input  175.53 | X-H torsion
[ 8008 7997 7996 7995 ] final  -26.71 input   59.86 | X-H torsion
[ 10167 10162 10161 10158 ] final -158.23 input  -65.29 | X-H torsion
[ 10718 10713 10712 10709 ] final  -91.37 input   66.30 | X-H torsion
[ 10763 10752 10751 10750 ] final  109.93 input  -60.55 | X-H torsion
[ 11005 11000 10999 10996 ] final  133.98 input  -57.11 | X-H torsion

> <Gold.Protein.ActiveResidues>
 VAL166  LYS551  ARG553  GLY616  TRP617  ASP618  TYR619  PRO620  LYS621  CYS622 
 ASP623  PHE694  ASN695  SER759  ASP760  ASP761  ALA762  ILE779  LEU786  VAL792 
 PHE793  MET794  SER795  GLU796  ALA797  LYS798  CYS799  TRP800  GLU811  SER814 

> <Gold.Protein.RotatedAtoms>
  151.1891  135.0394  159.8824 H   0  0  0  0  0  0  0  0  0  0  0  0  # atno 6907 bound_to 6896
  152.5440  134.0976  159.8314 H   0  0  0  0  0  0  0  0  0  0  0  0  # atno 6908 bound_to 6896
  151.1103  133.5131  159.2638 H   0  0  0  0  0  0  0  0  0  0  0  0  # atno 6909 bound_to 6896
  146.2349  139.9322  142.8495 H   0  0  0  0  0  0  0  0  0  0  0  0  # atno 7974 bound_to 7965
  154.4412  140.1892  156.0817 H   0  0  0  0  0  0  0  0  0  0  0  0  # atno 8008 bound_to 7997
  156.0433  140.3317  155.7242 H   0  0  0  0  0  0  0  0  0  0  0  0  # atno 8009 bound_to 7997
  155.5667  140.0608  157.2807 H   0  0  0  0  0  0  0  0  0  0  0  0  # atno 8010 bound_to 7997
  139.6708  143.9748  152.2282 H   0  0  0  0  0  0  0  0  0  0  0  0  # atno 10167 bound_to 10162
  155.9993  130.4945  150.5463 H   0  0  0  0  0  0  0  0  0  0  0  0  # atno 10718 bound_to 10713
  153.4417  135.3764  155.2232 H   0  0  0  0  0  0  0  0  0  0  0  0  # atno 10763 bound_to 10752
  154.8754  135.3864  154.4144 H   0  0  0  0  0  0  0  0  0  0  0  0  # atno 10764 bound_to 10752
  153.4691  135.7087  153.6067 H   0  0  0  0  0  0  0  0  0  0  0  0  # atno 10765 bound_to 10752
  139.9886  134.9523  156.9802 H   0  0  0  0  0  0  0  0  0  0  0  0  # atno 11005 bound_to 11000
  145.2034  140.9864  143.4143 LP  0  0  0  0  0  0  0  0  0  0  0  0  # atno 17320 bound_to 7965
  144.9754  139.3837  143.6288 LP  0  0  0  0  0  0  0  0  0  0  0  0  # atno 17321 bound_to 7965
  139.9512  144.6619  150.8170 LP  0  0  0  0  0  0  0  0  0  0  0  0  # atno 17342 bound_to 10162
  140.7617  143.3181  151.2686 LP  0  0  0  0  0  0  0  0  0  0  0  0  # atno 17343 bound_to 10162
  157.3393  131.0714  151.1801 LP  0  0  0  0  0  0  0  0  0  0  0  0  # atno 17370 bound_to 10713
  157.2655  130.6679  149.5994 LP  0  0  0  0  0  0  0  0  0  0  0  0  # atno 17371 bound_to 10713
  140.4953  134.1152  155.7240 LP  0  0  0  0  0  0  0  0  0  0  0  0  # atno 17394 bound_to 11000
  141.1546  133.8906  157.2010 LP  0  0  0  0  0  0  0  0  0  0  0  0  # atno 17395 bound_to 11000

$$$$
