AV-unprocessed.smi:696|AV-procd|sdf|3388|dock5
  -GOLD-   22720 0363D 1   1.00000     0.00000
 Structure written by MMmdl.
 37 38  0  0  0  0  0  0  0  0  2 V2000
  151.0250  140.5528  155.4276 O   0  0  0  0  0  0  0  0  0  0  0  0
  150.3949  141.4868  155.9253 C   0  0  0  0  0  0  0  0  0  0  0  0
  149.3102  142.0308  155.3516 N   0  0  0  0  0  0  0  0  0  0  0  0
  148.7267  141.6038  154.0850 C   0  0  0  0  0  0  0  0  0  0  0  0
  147.2340  141.2593  154.2384 C   0  0  0  0  0  0  0  0  0  0  0  0
  146.9146  139.9183  153.6363 C   0  0  0  0  0  0  0  0  0  0  0  0
  146.6038  138.8556  154.2800 N   0  0  0  0  0  0  0  0  0  0  0  0
  146.4248  137.9519  153.3025 N   0  0  0  0  0  0  0  0  0  0  0  0
  146.6291  138.4809  152.0938 C   0  0  0  0  0  0  0  0  0  0  0  0
  146.5242  137.8451  151.0472 O   0  0  0  0  0  0  0  0  0  0  0  0
  146.9512  139.7727  152.2846 N   0  5  0  0  0  0  0  0  0  0  0  0
  150.8399  142.0907  157.2658 C   0  0  0  0  0  0  0  0  0  0  0  0
  151.2088  143.5814  157.0813 C   0  0  0  0  0  0  0  0  0  0  0  0
  151.2417  144.3609  158.4071 C   0  0  0  0  0  0  0  0  0  0  0  0
  152.5826  144.3278  159.1623 C   0  0  0  0  0  0  0  0  0  0  0  0
  153.3563  142.9974  159.1385 C   0  0  0  0  0  0  0  0  0  0  0  0
  152.4939  141.7288  159.2376 C   0  0  0  0  0  0  0  0  0  0  0  0
  151.9810  141.2448  157.8694 C   0  0  0  0  0  0  0  0  0  0  0  0
  146.1683  137.0023  153.5284 H   0  0  0  0  0  0  0  0  0  0  0  0
  148.8523  142.7941  155.8281 H   0  0  0  0  0  0  0  0  0  0  0  0
  148.8519  142.4185  153.3706 H   0  0  0  0  0  0  0  0  0  0  0  0
  149.2816  140.7530  153.6850 H   0  0  0  0  0  0  0  0  0  0  0  0
  146.9592  141.2559  155.2940 H   0  0  0  0  0  0  0  0  0  0  0  0
  146.6242  142.0324  153.7687 H   0  0  0  0  0  0  0  0  0  0  0  0
  149.9872  142.0342  157.9447 H   0  0  0  0  0  0  0  0  0  0  0  0
  152.1534  143.6914  156.5466 H   0  0  0  0  0  0  0  0  0  0  0  0
  150.4551  144.0511  156.4468 H   0  0  0  0  0  0  0  0  0  0  0  0
  150.9977  145.4051  158.2085 H   0  0  0  0  0  0  0  0  0  0  0  0
  150.4451  144.0033  159.0605 H   0  0  0  0  0  0  0  0  0  0  0  0
  153.2358  145.1045  158.7629 H   0  0  0  0  0  0  0  0  0  0  0  0
  152.3938  144.6123  160.1982 H   0  0  0  0  0  0  0  0  0  0  0  0
  153.9704  142.9482  158.2383 H   0  0  0  0  0  0  0  0  0  0  0  0
  154.0660  143.0089  159.9666 H   0  0  0  0  0  0  0  0  0  0  0  0
  153.1146  140.9350  159.6544 H   0  0  0  0  0  0  0  0  0  0  0  0
  151.6727  141.8648  159.9422 H   0  0  0  0  0  0  0  0  0  0  0  0
  151.6244  140.2202  157.9879 H   0  0  0  0  0  0  0  0  0  0  0  0
  152.8177  141.1832  157.1717 H   0  0  0  0  0  0  0  0  0  0  0  0
  1  2  2  0  0  0  0
  2  3  1  0  0  0  0
  2 12  1  0  0  0  0
  3  4  1  0  0  0  0
  3 20  1  0  0  0  0
  4  5  1  0  0  0  0
  4 21  1  0  0  0  0
  4 22  1  0  0  0  0
  5  6  1  0  0  0  0
  5 23  1  0  0  0  0
  5 24  1  0  0  0  0
  6 11  1  0  0  0  0
  6  7  2  0  0  0  0
  7  8  1  0  0  0  0
  8 19  1  0  0  0  0
  8  9  1  0  0  0  0
  9 10  2  0  0  0  0
  9 11  1  0  0  0  0
 12 18  1  0  0  0  0
 12 13  1  0  0  0  0
 12 25  1  0  0  0  0
 13 14  1  0  0  0  0
 13 26  1  0  0  0  0
 13 27  1  0  0  0  0
 14 15  1  0  0  0  0
 14 28  1  0  0  0  0
 14 29  1  0  0  0  0
 15 16  1  0  0  0  0
 15 30  1  0  0  0  0
 15 31  1  0  0  0  0
 16 17  1  0  0  0  0
 16 32  1  0  0  0  0
 16 33  1  0  0  0  0
 17 18  1  0  0  0  0
 17 34  1  0  0  0  0
 17 35  1  0  0  0  0
 18 36  1  0  0  0  0
 18 37  1  0  0  0  0
M  CHG  1  11  -1
M  END
> <s_m_source_file>
AV-unprocessed.smi

> <i_m_source_file_index>
696

> <i_lp_mmshare_version>
43012

> <i_f3d_flags>
0

> <s_epik_input>
W0NIMl0xW0NIMl1bQ0gyXVtDSDJdW0NIMl1bQ0gyXVtDSF0xQyg9TylbTkhdW0NIMl1bQ0gyXWMybltuSF1jKD1PKVtuSF0y

> <s_epik_cmdline>
J2VwaWtfcHl0aG9uJywgJy1waCcsICc3LjAnLCAnLXRuJywgJzgnLCAnLW1hJywgJzIwMCcsICctbWV0YWxfYmluZGluZycsICctaW1hZScsICc8aW5maWxlLm1hZT4nLCAnLW9tYWUnLCAnPG91dGZpbGUubWFlPic=

> <r_lp_tautomer_probability>
1

> <r_epik_Ionization_Penalty>
13.715

> <r_epik_Ionization_Penalty_Charging>
13.715

> <r_epik_Ionization_Penalty_Neutral>
5.16152e-06

> <r_epik_State_Penalty>
4.03036

> <r_epik_Charging_Adjusted_Penalty>
17.7454

> <i_epik_Tot_Q>
-1

> <i_epik_Tot_abs_Q>
1

> <r_epik_Metal_State_Penalty>
0.449398

> <b_epik_Metal_Only>
1

> <s_lp_Force_Field>
OPLS_2005

> <r_lp_Energy>
29.0226

> <b_lp_Chiralities_Consistent>
1

> <s_lp_Variant>
AV-unprocessed.smi:696-3

> <Gold.Version>
5.8.1

> <Gold.Id.Protein>
6NUR|6NUR_protein|mol2

> <Gold.PLP.Fitness>
42.1318

> <Gold.PLP.PLP>
-34.8541

> <Gold.PLP.part.hbond>
-3.0000

> <Gold.PLP.part.metal>
0.0000

> <Gold.PLP.part.buried>
-3.2638

> <Gold.PLP.part.nonpolar>
-33.9499

> <Gold.PLP.part.repulsive>
4.8771

> <Gold.PLP.ligand.clash>
0.0000

> <Gold.PLP.ligand.torsion>
0.5095

> <Gold.PLP.Chemscore.Hbond>
2.7528

> <Gold.PLP.Chemscore.CHOScore>
0.0000

> <Gold.PLP.Chemscore.Metal>
0.0000

> <Gold.Chemscore.Hbonds>
donor molecule, donor type, donor heavy atom, donor atom, acceptor molecule, acceptor atom, score
      L1  H     3    20       P1  8028  0.70
      P1  H  7954  7966       L1    10  1.00
      P1  H  7989  7998       L1     1  0.89

> <Gold.PLP.Chemscore.Internal.Correction>
0.0382

> <Gold.Rescore>
     Score         DG    S(hbond)    S(metal)    S(lipo)     H(rot)  DE(clash)    DE(int)     intcor
     14.37     -18.44       2.47        0.00      89.49       2.25       3.59       0.48       ----

> <Gold.Chemscore.Fitness>
14.3749

> <Gold.Chemscore.DG>
-18.4439

> <Gold.Chemscore.ZeroCoef>
-5.4800

> <Gold.Chemscore.Hbond>
2.4711

> <Gold.Chemscore.Metal>
0.0000

> <Gold.Chemscore.Lipo>
89.4944

> <Gold.Chemscore.Internal_Hbond>
0.0000

> <Gold.Chemscore.DEClash>
3.5885

> <Gold.Chemscore.DEInternal>
0.4805

> <Gold.Chemscore.Rot>
2.2501

> <Gold.Chemscore.Internal.Correction>
   9.000000E+99

> <Gold.Chemscore.Hbonds>
donor molecule, donor type, donor heavy atom, donor atom, acceptor molecule, acceptor atom, score
      L1  H     3    20       P1  8028  0.70
      P1  H  7954  7966       L1    10  0.87
      P1  H  7989  7998       L1     1  0.72

> <Gold.Chemscore.Hbond.Weighted>
-8.2534

> <Gold.Chemscore.Metal.Weighted>
-0.0000

> <Gold.Chemscore.Lipo.Weighted>
-10.4708

> <Gold.Chemscore.Internal_Hbond.Weighted>
0.0000

> <Gold.Chemscore.DEClash.Weighted>
3.5885

> <Gold.Chemscore.DEInternal.Weighted>
0.4805

> <Gold.Chemscore.Rot.Weighted>
5.7603

> <Gold.Chemscore.Internal.Correction.Weighted>
   9.000000E+99

> <Gold.Protein.RotatedTorsions>
[ 6907 6896 6895 6894 ] final -127.17 input  -60.11 | X-H torsion
[ 7974 7965 7964 7962 ] final   14.21 input  175.53 | X-H torsion
[ 8008 7997 7996 7995 ] final   89.90 input   59.86 | X-H torsion
[ 10167 10162 10161 10158 ] final   -1.95 input  -65.29 | X-H torsion
[ 10718 10713 10712 10709 ] final  140.86 input   66.30 | X-H torsion
[ 10763 10752 10751 10750 ] final    7.48 input  -60.55 | X-H torsion
[ 11005 11000 10999 10996 ] final -147.06 input  -57.11 | X-H torsion

> <Gold.Protein.ActiveResidues>
 VAL166  LYS551  ARG553  GLY616  TRP617  ASP618  TYR619  PRO620  LYS621  CYS622 
 ASP623  PHE694  ASN695  SER759  ASP760  ASP761  ALA762  ILE779  LEU786  VAL792 
 PHE793  MET794  SER795  GLU796  ALA797  LYS798  CYS799  TRP800  GLU811  SER814 

> <Gold.Protein.RotatedAtoms>
  150.9045  133.7076  159.2870 H   0  0  0  0  0  0  0  0  0  0  0  0  # atno 6907 bound_to 6896
  151.4583  135.1035  159.9727 H   0  0  0  0  0  0  0  0  0  0  0  0  # atno 6908 bound_to 6896
  152.4895  133.8414  159.7210 H   0  0  0  0  0  0  0  0  0  0  0  0  # atno 6909 bound_to 6896
  146.2310  139.9074  142.8530 H   0  0  0  0  0  0  0  0  0  0  0  0  # atno 7974 bound_to 7965
  156.0055  140.3355  155.6888 H   0  0  0  0  0  0  0  0  0  0  0  0  # atno 8008 bound_to 7997
  155.6231  140.0677  157.2690 H   0  0  0  0  0  0  0  0  0  0  0  0  # atno 8009 bound_to 7997
  154.4263  140.1773  156.1380 H   0  0  0  0  0  0  0  0  0  0  0  0  # atno 8010 bound_to 7997
  140.6831  143.6715  150.8181 H   0  0  0  0  0  0  0  0  0  0  0  0  # atno 10167 bound_to 10162
  157.3985  131.1014  151.0575 H   0  0  0  0  0  0  0  0  0  0  0  0  # atno 10718 bound_to 10713
  153.2358  135.6898  153.7838 H   0  0  0  0  0  0  0  0  0  0  0  0  # atno 10763 bound_to 10752
  153.6985  135.3301  155.3220 H   0  0  0  0  0  0  0  0  0  0  0  0  # atno 10764 bound_to 10752
  154.8334  135.4562  154.1262 H   0  0  0  0  0  0  0  0  0  0  0  0  # atno 10765 bound_to 10752
  140.7755  134.3139  157.5062 H   0  0  0  0  0  0  0  0  0  0  0  0  # atno 11005 bound_to 11000
  145.2263  140.9955  143.4016 LP  0  0  0  0  0  0  0  0  0  0  0  0  # atno 17320 bound_to 7965
  144.9567  139.4023  143.6376 LP  0  0  0  0  0  0  0  0  0  0  0  0  # atno 17321 bound_to 7965
  140.0418  143.5338  152.2714 LP  0  0  0  0  0  0  0  0  0  0  0  0  # atno 17342 bound_to 10162
  139.6168  144.7621  151.2828 LP  0  0  0  0  0  0  0  0  0  0  0  0  # atno 17343 bound_to 10162
  157.1583  130.6214  149.5603 LP  0  0  0  0  0  0  0  0  0  0  0  0  # atno 17370 bound_to 10713
  155.9817  130.4825  150.6840 LP  0  0  0  0  0  0  0  0  0  0  0  0  # atno 17371 bound_to 10713
  139.8749  134.9287  156.3457 LP  0  0  0  0  0  0  0  0  0  0  0  0  # atno 17394 bound_to 11000
  140.9532  133.7437  156.0301 LP  0  0  0  0  0  0  0  0  0  0  0  0  # atno 17395 bound_to 11000

$$$$
