AV-unprocessed.smi:2384|AV-procd|sdf|9462|dock6
  -GOLD-   2272013 93D 1   1.00000     0.00000
 Structure written by MMmdl.
 43 44  0  0  0  0  0  0  0  0  1 V2000
  151.9545  145.9028  160.3144 C   0  0  0  0  0  0  0  0  0  0  0  0
  151.9977  144.5376  159.6603 C   0  0  0  0  0  0  0  0  0  0  0  0
  152.8063  143.5107  160.1842 C   0  0  0  0  0  0  0  0  0  0  0  0
  152.8061  142.2642  159.5280 C   0  0  0  0  0  0  0  0  0  0  0  0
  153.6488  141.1142  160.0377 C   0  0  0  0  0  0  0  0  0  0  0  0
  152.0708  142.0130  158.4240 N   0  0  0  0  0  0  0  0  0  0  0  0
  151.2883  142.9941  157.9103 C   0  0  0  0  0  0  0  0  0  0  0  0
  150.4749  142.8282  156.7579 N   0  0  0  0  0  0  0  0  0  0  0  0
  150.2176  141.6955  156.0799 C   0  0  0  0  0  0  0  0  0  0  0  0
  150.6866  140.5867  156.3390 O   0  0  0  0  0  0  0  0  0  0  0  0
  149.3805  141.9221  155.0575 N   0  0  0  0  0  0  0  0  0  0  0  0
  148.9236  140.9119  154.1086 C   0  0  0  0  0  0  0  0  0  0  0  0
  147.4757  141.1540  153.6455 C   0  0  0  0  0  0  0  0  0  0  0  0
  146.4222  140.7902  154.7087 C   0  0  0  0  0  0  0  0  0  0  0  0
  145.7995  141.9807  155.2810 N   0  0  0  0  0  0  0  0  0  0  0  0
  145.2126  142.9970  154.4236 C   0  0  0  0  0  0  0  0  0  0  0  0
  144.8451  144.1551  155.3634 C   0  0  0  0  0  0  0  0  0  0  0  0
  145.0092  143.6126  156.7874 C   0  0  0  0  0  0  0  0  0  0  0  0
  145.7094  142.2805  156.5818 C   0  0  0  0  0  0  0  0  0  0  0  0
  146.1268  141.5957  157.5146 O   0  0  0  0  0  0  0  0  0  0  0  0
  151.2273  144.2725  158.5098 C   0  0  0  0  0  0  0  0  0  0  0  0
  152.5682  145.9306  161.2155 H   0  0  0  0  0  0  0  0  0  0  0  0
  150.9316  146.1586  160.5911 H   0  0  0  0  0  0  0  0  0  0  0  0
  152.3256  146.6623  159.6260 H   0  0  0  0  0  0  0  0  0  0  0  0
  153.4099  143.6736  161.0651 H   0  0  0  0  0  0  0  0  0  0  0  0
  154.1947  141.3918  160.9397 H   0  0  0  0  0  0  0  0  0  0  0  0
  154.3731  140.8113  159.2812 H   0  0  0  0  0  0  0  0  0  0  0  0
  153.0175  140.2569  160.2731 H   0  0  0  0  0  0  0  0  0  0  0  0
  150.0390  143.6689  156.4093 H   0  0  0  0  0  0  0  0  0  0  0  0
  149.0412  142.8626  154.9184 H   0  0  0  0  0  0  0  0  0  0  0  0
  149.5929  140.8812  153.2474 H   0  0  0  0  0  0  0  0  0  0  0  0
  148.9995  139.9361  154.5888 H   0  0  0  0  0  0  0  0  0  0  0  0
  147.3540  142.1979  153.3533 H   0  0  0  0  0  0  0  0  0  0  0  0
  147.3005  140.5675  152.7429 H   0  0  0  0  0  0  0  0  0  0  0  0
  145.6507  140.1549  154.2708 H   0  0  0  0  0  0  0  0  0  0  0  0
  146.8795  140.2087  155.5100 H   0  0  0  0  0  0  0  0  0  0  0  0
  145.9124  143.3159  153.6502 H   0  0  0  0  0  0  0  0  0  0  0  0
  144.3259  142.5898  153.9356 H   0  0  0  0  0  0  0  0  0  0  0  0
  145.5203  144.9972  155.2059 H   0  0  0  0  0  0  0  0  0  0  0  0
  143.8305  144.5110  155.1817 H   0  0  0  0  0  0  0  0  0  0  0  0
  145.6028  144.2779  157.4152 H   0  0  0  0  0  0  0  0  0  0  0  0
  144.0435  143.4471  157.2659 H   0  0  0  0  0  0  0  0  0  0  0  0
  150.5991  145.0459  158.0916 H   0  0  0  0  0  0  0  0  0  0  0  0
  1  2  1  0  0  0  0
  1 22  1  0  0  0  0
  1 23  1  0  0  0  0
  1 24  1  0  0  0  0
  2 21  1  0  0  0  0
  2  3  2  0  0  0  0
  3  4  1  0  0  0  0
  3 25  1  0  0  0  0
  4  5  1  0  0  0  0
  4  6  2  0  0  0  0
  5 26  1  0  0  0  0
  5 27  1  0  0  0  0
  5 28  1  0  0  0  0
  6  7  1  0  0  0  0
  7  8  1  0  0  0  0
  7 21  2  0  0  0  0
  8  9  1  0  0  0  0
  8 29  1  0  0  0  0
  9 10  2  0  0  0  0
  9 11  1  0  0  0  0
 11 12  1  0  0  0  0
 11 30  1  0  0  0  0
 12 13  1  0  0  0  0
 12 31  1  0  0  0  0
 12 32  1  0  0  0  0
 13 14  1  0  0  0  0
 13 33  1  0  0  0  0
 13 34  1  0  0  0  0
 14 15  1  0  0  0  0
 14 35  1  0  0  0  0
 14 36  1  0  0  0  0
 15 19  1  0  0  0  0
 15 16  1  0  0  0  0
 16 17  1  0  0  0  0
 16 37  1  0  0  0  0
 16 38  1  0  0  0  0
 17 18  1  0  0  0  0
 17 39  1  0  0  0  0
 17 40  1  0  0  0  0
 18 19  1  0  0  0  0
 18 41  1  0  0  0  0
 18 42  1  0  0  0  0
 19 20  2  0  0  0  0
 21 43  1  0  0  0  0
M  END
> <s_m_source_file>
AV-unprocessed.smi

> <i_m_source_file_index>
2384

> <i_lp_mmshare_version>
43012

> <i_f3d_flags>
0

> <s_epik_input>
W0NIM11jMVtjSF1jKFtDSDNdKW5jKFtjSF0xKVtOSF1DKD1PKVtOSF1bQ0gyXVtDSDJdW0NIMl1OMltDSDJdW0NIMl1bQ0gyXUMyPU8=

> <s_epik_cmdline>
J2VwaWtfcHl0aG9uJywgJy1waCcsICc3LjAnLCAnLXRuJywgJzgnLCAnLW1hJywgJzIwMCcsICctbWV0YWxfYmluZGluZycsICctaW1hZScsICc8aW5maWxlLm1hZT4nLCAnLW9tYWUnLCAnPG91dGZpbGUubWFlPic=

> <r_lp_tautomer_probability>
1

> <r_epik_Ionization_Penalty>
0.000241796

> <r_epik_Ionization_Penalty_Charging>
0

> <r_epik_Ionization_Penalty_Neutral>
0.000241796

> <r_epik_State_Penalty>
-0

> <r_epik_Charging_Adjusted_Penalty>
0

> <i_epik_Tot_Q>
0

> <i_epik_Tot_abs_Q>
0

> <r_epik_Metal_State_Penalty>
-0

> <b_epik_Metal_Only>
0

> <s_lp_Force_Field>
OPLS_2005

> <r_lp_Energy>
18.86

> <b_lp_Chiralities_Consistent>
1

> <s_lp_Variant>
AV-unprocessed.smi:2384-1

> <Gold.Version>
5.8.1

> <Gold.Id.Protein>
6NUR|6NUR_protein|mol2

> <Gold.PLP.Fitness>
49.8354

> <Gold.PLP.PLP>
-45.1977

> <Gold.PLP.part.hbond>
-2.0000

> <Gold.PLP.part.metal>
0.0000

> <Gold.PLP.part.buried>
-7.1013

> <Gold.PLP.part.nonpolar>
-38.0725

> <Gold.PLP.part.repulsive>
0.3143

> <Gold.PLP.ligand.clash>
0.0000

> <Gold.PLP.ligand.torsion>
0.6327

> <Gold.PLP.Chemscore.Hbond>
1.9600

> <Gold.PLP.Chemscore.CHOScore>
0.0000

> <Gold.PLP.Chemscore.Metal>
0.0000

> <Gold.Chemscore.Hbonds>
donor molecule, donor type, donor heavy atom, donor atom, acceptor molecule, acceptor atom, score
      L1  H     8    29       P1  8028  1.00
      L1  H    11    30       P1  8028  0.96

> <Gold.PLP.Chemscore.Internal.Correction>
0.0230

> <Gold.Rescore>
     Score         DG    S(hbond)    S(metal)    S(lipo)     H(rot)  DE(clash)    DE(int)     intcor
     17.86     -19.83       1.93        0.00     105.78       1.75       0.06       1.91       ----

> <Gold.Chemscore.Fitness>
17.8573

> <Gold.Chemscore.DG>
-19.8293

> <Gold.Chemscore.ZeroCoef>
-5.4800

> <Gold.Chemscore.Hbond>
1.9282

> <Gold.Chemscore.Metal>
0.0000

> <Gold.Chemscore.Lipo>
105.7825

> <Gold.Chemscore.Internal_Hbond>
0.0000

> <Gold.Chemscore.DEClash>
0.0588

> <Gold.Chemscore.DEInternal>
1.9132

> <Gold.Chemscore.Rot>
1.7451

> <Gold.Chemscore.Internal.Correction>
   9.000000E+99

> <Gold.Chemscore.Hbonds>
donor molecule, donor type, donor heavy atom, donor atom, acceptor molecule, acceptor atom, score
      L1  H     8    29       P1  8028  1.00
      L1  H    11    30       P1  8028  0.89

> <Gold.Chemscore.Hbond.Weighted>
-6.4402

> <Gold.Chemscore.Metal.Weighted>
-0.0000

> <Gold.Chemscore.Lipo.Weighted>
-12.3766

> <Gold.Chemscore.Internal_Hbond.Weighted>
0.0000

> <Gold.Chemscore.DEClash.Weighted>
0.0588

> <Gold.Chemscore.DEInternal.Weighted>
1.9132

> <Gold.Chemscore.Rot.Weighted>
4.4675

> <Gold.Chemscore.Internal.Correction.Weighted>
   9.000000E+99

> <Gold.Protein.RotatedTorsions>
[ 6907 6896 6895 6894 ] final   -5.43 input  -60.11 | X-H torsion
[ 7974 7965 7964 7962 ] final -171.61 input  175.53 | X-H torsion
[ 8008 7997 7996 7995 ] final  -52.68 input   59.86 | X-H torsion
[ 10167 10162 10161 10158 ] final   16.24 input  -65.29 | X-H torsion
[ 10718 10713 10712 10709 ] final   20.34 input   66.30 | X-H torsion
[ 10763 10752 10751 10750 ] final  139.46 input  -60.55 | X-H torsion
[ 11005 11000 10999 10996 ] final  128.40 input  -57.11 | X-H torsion

> <Gold.Protein.ActiveResidues>
 VAL166  LYS551  ARG553  GLY616  TRP617  ASP618  TYR619  PRO620  LYS621  CYS622 
 ASP623  PHE694  ASN695  SER759  ASP760  ASP761  ALA762  ILE779  LEU786  VAL792 
 PHE793  MET794  SER795  GLU796  ALA797  LYS798  CYS799  TRP800  GLU811  SER814 

> <Gold.Protein.RotatedAtoms>
  151.4817  135.1052  159.9779 H   0  0  0  0  0  0  0  0  0  0  0  0  # atno 6907 bound_to 6896
  152.4776  133.8173  159.7045 H   0  0  0  0  0  0  0  0  0  0  0  0  # atno 6908 bound_to 6896
  150.8825  133.7290  159.2954 H   0  0  0  0  0  0  0  0  0  0  0  0  # atno 6909 bound_to 6896
  144.7155  140.1896  143.6350 H   0  0  0  0  0  0  0  0  0  0  0  0  # atno 7974 bound_to 7965
  154.4113  140.1218  156.5030 H   0  0  0  0  0  0  0  0  0  0  0  0  # atno 8008 bound_to 7997
  155.6876  140.3495  155.4861 H   0  0  0  0  0  0  0  0  0  0  0  0  # atno 8009 bound_to 7997
  155.9497  140.1102  157.0977 H   0  0  0  0  0  0  0  0  0  0  0  0  # atno 8010 bound_to 7997
  140.5811  143.8978  150.6791 H   0  0  0  0  0  0  0  0  0  0  0  0  # atno 10167 bound_to 10162
  157.1231  130.6558  149.5930 H   0  0  0  0  0  0  0  0  0  0  0  0  # atno 10718 bound_to 10713
  153.9065  135.3016  155.3448 H   0  0  0  0  0  0  0  0  0  0  0  0  # atno 10763 bound_to 10752
  154.7644  135.4918  153.9529 H   0  0  0  0  0  0  0  0  0  0  0  0  # atno 10764 bound_to 10752
  153.1216  135.6783  153.9427 H   0  0  0  0  0  0  0  0  0  0  0  0  # atno 10765 bound_to 10752
  139.9559  134.9613  156.8997 H   0  0  0  0  0  0  0  0  0  0  0  0  # atno 11005 bound_to 11000
  145.8781  139.2308  143.1621 LP  0  0  0  0  0  0  0  0  0  0  0  0  # atno 17320 bound_to 7965
  146.0021  140.8511  143.0013 LP  0  0  0  0  0  0  0  0  0  0  0  0  # atno 17321 bound_to 7965
  140.2478  143.3616  152.1432 LP  0  0  0  0  0  0  0  0  0  0  0  0  # atno 17342 bound_to 10162
  139.5170  144.6986  151.5559 LP  0  0  0  0  0  0  0  0  0  0  0  0  # atno 17343 bound_to 10162
  155.9824  130.4837  150.6879 LP  0  0  0  0  0  0  0  0  0  0  0  0  # atno 17370 bound_to 10713
  157.4458  131.0867  151.0896 LP  0  0  0  0  0  0  0  0  0  0  0  0  # atno 17371 bound_to 10713
  140.5611  134.0534  155.7399 LP  0  0  0  0  0  0  0  0  0  0  0  0  # atno 17394 bound_to 11000
  141.1230  133.9430  157.2692 LP  0  0  0  0  0  0  0  0  0  0  0  0  # atno 17395 bound_to 11000

$$$$
