AV-unprocessed.smi:759|AV-procd|sdf|3621|dock7
  -GOLD-   22720 1 13D 1   1.00000     0.00000
 Structure written by MMmdl.
 24 25  0  0  0  0  0  0  0  0  2 V2000
  151.8705  140.5783  157.8074 C   0  0  0  0  0  0  0  0  0  0  0  0
  152.7692  139.8940  157.1025 N   0  0  0  0  0  0  0  0  0  0  0  0
  152.1335  139.7212  155.9250 N   0  0  0  0  0  0  0  0  0  0  0  0
  150.9271  140.2890  155.9863 C   0  0  0  0  0  0  0  0  0  0  0  0
  149.9737  140.2714  154.8307 C   0  0  2  0  0  0  0  0  0  0  0  0
  148.6757  141.0416  155.1402 C   0  0  0  0  0  0  0  0  0  0  0  0
  147.7198  140.9915  153.9382 C   0  0  0  0  0  0  0  0  0  0  0  0
  147.4574  139.5400  153.5037 C   0  0  0  0  0  0  0  0  0  0  0  0
  148.7296  138.8440  153.2115 N   0  3  0  0  0  0  0  0  0  0  0  0
  149.6618  138.8354  154.3606 C   0  0  0  0  0  0  0  0  0  0  0  0
  150.6965  140.8581  157.1657 N   0  0  0  0  0  0  0  0  0  0  0  0
  152.0669  140.8875  158.8236 H   0  0  0  0  0  0  0  0  0  0  0  0
  150.4656  140.7841  154.0020 H   0  0  0  0  0  0  0  0  0  0  0  0
  148.1839  140.6096  156.0132 H   0  0  0  0  0  0  0  0  0  0  0  0
  148.9023  142.0784  155.3917 H   0  0  0  0  0  0  0  0  0  0  0  0
  146.7790  141.4820  154.1898 H   0  0  0  0  0  0  0  0  0  0  0  0
  148.1479  141.5518  153.1059 H   0  0  0  0  0  0  0  0  0  0  0  0
  146.9224  138.9993  154.2859 H   0  0  0  0  0  0  0  0  0  0  0  0
  146.8280  139.5190  152.6138 H   0  0  0  0  0  0  0  0  0  0  0  0
  148.5282  137.8903  152.9463 H   0  0  0  0  0  0  0  0  0  0  0  0
  150.5786  138.3247  154.0648 H   0  0  0  0  0  0  0  0  0  0  0  0
  149.2200  138.2526  155.1705 H   0  0  0  0  0  0  0  0  0  0  0  0
  149.1792  139.3094  152.4362 H   0  0  0  0  0  0  0  0  0  0  0  0
  152.5459  139.2315  155.1436 H   0  0  0  0  0  0  0  0  0  0  0  0
  1 11  1  0  0  0  0
  1 12  1  0  0  0  0
  1  2  2  0  0  0  0
  2  3  1  0  0  0  0
  3  4  1  0  0  0  0
  3 24  1  0  0  0  0
  4 11  2  0  0  0  0
  4  5  1  0  0  0  0
  5 10  1  0  0  0  0
  5  6  1  0  0  0  0
  5 13  1  0  0  0  0
  6  7  1  0  0  0  0
  6 14  1  0  0  0  0
  6 15  1  0  0  0  0
  7  8  1  0  0  0  0
  7 16  1  0  0  0  0
  7 17  1  0  0  0  0
  8  9  1  0  0  0  0
  8 18  1  0  0  0  0
  8 19  1  0  0  0  0
  9 10  1  0  0  0  0
  9 20  1  0  0  0  0
  9 23  1  0  0  0  0
 10 21  1  0  0  0  0
 10 22  1  0  0  0  0
M  CHG  1   9   1
M  END
> <s_m_source_file>
AV-unprocessed.smi

> <i_m_source_file_index>
759

> <i_lp_mmshare_version>
43012

> <i_f3d_flags>
0

> <s_epik_input>
W25IXTFbY0hdbm5jMVtDQEBIXTJbQ0gyXVtDSDJdW0NIMl1bTkhdW0NIMl0y

> <s_epik_cmdline>
J2VwaWtfcHl0aG9uJywgJy1waCcsICc3LjAnLCAnLXRuJywgJzgnLCAnLW1hJywgJzIwMCcsICctbWV0YWxfYmluZGluZycsICctaW1hZScsICc8aW5maWxlLm1hZT4nLCAnLW9tYWUnLCAnPG91dGZpbGUubWFlPic=

> <r_epik_Ionization_Penalty>
0.00885924

> <r_epik_Ionization_Penalty_Charging>
0.000426856

> <r_epik_Ionization_Penalty_Neutral>
0.00843239

> <r_epik_State_Penalty>
0.640618

> <r_epik_Charging_Adjusted_Penalty>
0.641045

> <i_epik_Tot_Q>
1

> <i_epik_Tot_abs_Q>
1

> <r_epik_Metal_State_Penalty>
0.906339

> <b_epik_Metal_Only>
0

> <s_lp_Force_Field>
OPLS_2005

> <r_lp_Energy>
13.0828

> <b_lp_Chiralities_Consistent>
1

> <s_lp_Variant>
AV-unprocessed.smi:759-3

> <Gold.Version>
5.8.1

> <Gold.Id.Protein>
6NUR|6NUR_protein|mol2

> <Gold.PLP.Fitness>
31.5664

> <Gold.PLP.PLP>
-19.6417

> <Gold.PLP.part.hbond>
-2.9766

> <Gold.PLP.part.metal>
0.0000

> <Gold.PLP.part.buried>
-1.8877

> <Gold.PLP.part.nonpolar>
-15.0769

> <Gold.PLP.part.repulsive>
0.2747

> <Gold.PLP.ligand.clash>
0.0000

> <Gold.PLP.ligand.torsion>
0.0150

> <Gold.PLP.Chemscore.Hbond>
3.9753

> <Gold.PLP.Chemscore.CHOScore>
0.0000

> <Gold.PLP.Chemscore.Metal>
0.0000

> <Gold.Chemscore.Hbonds>
donor molecule, donor type, donor heavy atom, donor atom, acceptor molecule, acceptor atom, score
      L1  H     9    20       P1  7948  1.98
      L1  H     9    23       P1  7957  0.99
      P1  H  7997  8009       L1     2  1.00

> <Gold.PLP.Chemscore.Internal.Correction>
0.0290

> <Gold.Rescore>
     Score         DG    S(hbond)    S(metal)    S(lipo)     H(rot)  DE(clash)    DE(int)     intcor
     16.12     -16.15       2.78        0.00      33.72       1.00       0.00       0.03       ----

> <Gold.Chemscore.Fitness>
16.1196

> <Gold.Chemscore.DG>
-16.1547

> <Gold.Chemscore.ZeroCoef>
-5.4800

> <Gold.Chemscore.Hbond>
2.7813

> <Gold.Chemscore.Metal>
0.0000

> <Gold.Chemscore.Lipo>
33.7193

> <Gold.Chemscore.Internal_Hbond>
0.0000

> <Gold.Chemscore.DEClash>
0.0038

> <Gold.Chemscore.DEInternal>
0.0313

> <Gold.Chemscore.Rot>
1.0000

> <Gold.Chemscore.Internal.Correction>
   9.000000E+99

> <Gold.Chemscore.Hbonds>
donor molecule, donor type, donor heavy atom, donor atom, acceptor molecule, acceptor atom, score
      L1  H     9    20       P1  7948  0.89
      L1  H     9    23       P1  7957  0.92
      P1  H  7997  8009       L1     2  0.75

> <Gold.Chemscore.Hbond.Weighted>
-9.2895

> <Gold.Chemscore.Metal.Weighted>
-0.0000

> <Gold.Chemscore.Lipo.Weighted>
-3.9452

> <Gold.Chemscore.Internal_Hbond.Weighted>
0.0000

> <Gold.Chemscore.DEClash.Weighted>
0.0038

> <Gold.Chemscore.DEInternal.Weighted>
0.0313

> <Gold.Chemscore.Rot.Weighted>
2.5600

> <Gold.Chemscore.Internal.Correction.Weighted>
   9.000000E+99

> <Gold.Protein.RotatedTorsions>
[ 6907 6896 6895 6894 ] final  -89.79 input  -60.11 | X-H torsion
[ 7974 7965 7964 7962 ] final  103.60 input  175.53 | X-H torsion
[ 8008 7997 7996 7995 ] final  165.53 input   59.86 | X-H torsion
[ 10167 10162 10161 10158 ] final  -38.60 input  -65.29 | X-H torsion
[ 10718 10713 10712 10709 ] final   95.68 input   66.30 | X-H torsion
[ 10763 10752 10751 10750 ] final -127.45 input  -60.55 | X-H torsion
[ 11005 11000 10999 10996 ] final  154.94 input  -57.11 | X-H torsion

> <Gold.Protein.ActiveResidues>
 VAL166  LYS551  ARG553  GLY616  TRP617  ASP618  TYR619  PRO620  LYS621  CYS622 
 ASP623  PHE694  ASN695  SER759  ASP760  ASP761  ALA762  ILE779  LEU786  VAL792 
 PHE793  MET794  SER795  GLU796  ALA797  LYS798  CYS799  TRP800  GLU811  SER814 

> <Gold.Protein.RotatedAtoms>
  150.6876  134.2532  159.4518 H   0  0  0  0  0  0  0  0  0  0  0  0  # atno 6907 bound_to 6896
  152.0468  134.9675  160.0583 H   0  0  0  0  0  0  0  0  0  0  0  0  # atno 6908 bound_to 6896
  152.1155  133.4290  159.4688 H   0  0  0  0  0  0  0  0  0  0  0  0  # atno 6909 bound_to 6896
  145.3438  139.2456  143.3595 H   0  0  0  0  0  0  0  0  0  0  0  0  # atno 7974 bound_to 7965
  156.1793  140.1667  156.8304 H   0  0  0  0  0  0  0  0  0  0  0  0  # atno 8008 bound_to 7997
  154.5342  140.0750  156.8431 H   0  0  0  0  0  0  0  0  0  0  0  0  # atno 8009 bound_to 7997
  155.3345  140.3381  155.4241 H   0  0  0  0  0  0  0  0  0  0  0  0  # atno 8010 bound_to 7997
  140.7087  143.3267  151.2664 H   0  0  0  0  0  0  0  0  0  0  0  0  # atno 10167 bound_to 10162
  157.6936  131.0553  150.4375 H   0  0  0  0  0  0  0  0  0  0  0  0  # atno 10718 bound_to 10713
  154.8752  135.3961  154.3596 H   0  0  0  0  0  0  0  0  0  0  0  0  # atno 10763 bound_to 10752
  153.4370  135.7026  153.6198 H   0  0  0  0  0  0  0  0  0  0  0  0  # atno 10764 bound_to 10752
  153.4796  135.3772  155.2404 H   0  0  0  0  0  0  0  0  0  0  0  0  # atno 10765 bound_to 10752
  140.1535  134.8658  157.2484 H   0  0  0  0  0  0  0  0  0  0  0  0  # atno 11005 bound_to 11000
  146.2996  140.4040  142.8709 LP  0  0  0  0  0  0  0  0  0  0  0  0  # atno 17320 bound_to 7965
  144.8770  140.7350  143.6011 LP  0  0  0  0  0  0  0  0  0  0  0  0  # atno 17321 bound_to 7965
  139.6737  143.9975  152.2768 LP  0  0  0  0  0  0  0  0  0  0  0  0  # atno 17342 bound_to 10162
  139.9582  144.6575  150.8105 LP  0  0  0  0  0  0  0  0  0  0  0  0  # atno 17343 bound_to 10162
  156.4737  130.4058  149.6503 LP  0  0  0  0  0  0  0  0  0  0  0  0  # atno 17370 bound_to 10713
  156.3574  130.7464  151.2431 LP  0  0  0  0  0  0  0  0  0  0  0  0  # atno 17371 bound_to 10713
  140.2576  134.3609  155.7418 LP  0  0  0  0  0  0  0  0  0  0  0  0  # atno 17394 bound_to 11000
  141.2202  133.7351  156.9031 LP  0  0  0  0  0  0  0  0  0  0  0  0  # atno 17395 bound_to 11000

$$$$
