AV-unprocessed.smi:801|AV-procd|sdf|3789|dock9
  -GOLD-   22720 1223D 1   1.00000     0.00000
 Structure written by MMmdl.
 44 45  0  0  0  0  0  0  0  0  1 V2000
  152.3188  144.8057  158.5599 C   0  0  0  0  0  0  0  0  0  0  0  0
  151.8391  143.8766  157.6004 O   0  0  0  0  0  0  0  0  0  0  0  0
  151.4586  142.6234  158.1491 C   0  0  0  0  0  0  0  0  0  0  0  0
  151.2778  141.5559  157.0545 C   0  0  0  0  0  0  0  0  0  0  0  0
  150.9635  140.2516  157.6029 N   0  0  0  0  0  0  0  0  0  0  0  0
  149.8413  139.5079  157.2269 C   0  0  0  0  0  0  0  0  0  0  0  0
  148.9546  140.0824  156.3027 N   0  0  0  0  0  0  0  0  0  0  0  0
  149.2965  140.4918  155.0685 C   0  0  0  0  0  0  0  0  0  0  0  0
  148.2041  141.1897  154.2661 C   0  0  0  0  0  0  0  0  0  0  0  0
  150.4156  140.3374  154.5799 O   0  0  0  0  0  0  0  0  0  0  0  0
  149.5636  138.2762  157.7587 C   0  0  0  0  0  0  0  0  0  0  0  0
  148.4119  137.5743  157.3974 N   0  0  0  0  0  0  0  0  0  0  0  0
  147.9070  136.2752  157.8165 C   0  0  0  0  0  0  0  0  0  0  0  0
  147.4342  136.2509  159.2590 C   0  0  0  0  0  0  0  0  0  0  0  0
  148.0428  135.3882  160.1970 C   0  0  0  0  0  0  0  0  0  0  0  0
  147.5976  135.3651  161.5329 C   0  0  0  0  0  0  0  0  0  0  0  0
  146.5391  136.2010  161.9374 C   0  0  0  0  0  0  0  0  0  0  0  0
  145.9250  137.0590  161.0047 C   0  0  0  0  0  0  0  0  0  0  0  0
  146.3703  137.0827  159.6685 C   0  0  0  0  0  0  0  0  0  0  0  0
  150.4781  137.6934  158.7570 C   0  0  0  0  0  0  0  0  0  0  0  0
  150.3711  136.5953  159.3005 O   0  0  0  0  0  0  0  0  0  0  0  0
  151.5610  138.4966  159.1071 N   0  0  0  0  0  0  0  0  0  0  0  0
  151.8416  139.7552  158.5918 C   0  0  0  0  0  0  0  0  0  0  0  0
  152.8209  140.3749  159.0082 O   0  0  0  0  0  0  0  0  0  0  0  0
  152.1958  138.1330  159.8029 H   0  0  0  0  0  0  0  0  0  0  0  0
  152.6306  145.7195  158.0546 H   0  0  0  0  0  0  0  0  0  0  0  0
  153.1829  144.4099  159.0953 H   0  0  0  0  0  0  0  0  0  0  0  0
  151.5516  145.0755  159.2854 H   0  0  0  0  0  0  0  0  0  0  0  0
  152.2520  142.3103  158.8283 H   0  0  0  0  0  0  0  0  0  0  0  0
  150.5573  142.7272  158.7555 H   0  0  0  0  0  0  0  0  0  0  0  0
  150.4719  141.8009  156.3649 H   0  0  0  0  0  0  0  0  0  0  0  0
  152.1648  141.4645  156.4253 H   0  0  0  0  0  0  0  0  0  0  0  0
  148.0402  140.3323  156.6503 H   0  0  0  0  0  0  0  0  0  0  0  0
  147.5283  140.4537  153.8304 H   0  0  0  0  0  0  0  0  0  0  0  0
  148.6363  141.7799  153.4575 H   0  0  0  0  0  0  0  0  0  0  0  0
  147.6238  141.8592  154.9020 H   0  0  0  0  0  0  0  0  0  0  0  0
  147.8471  138.0102  156.6828 H   0  0  0  0  0  0  0  0  0  0  0  0
  147.0867  135.9851  157.1586 H   0  0  0  0  0  0  0  0  0  0  0  0
  148.6941  135.5285  157.7075 H   0  0  0  0  0  0  0  0  0  0  0  0
  148.8523  134.7397  159.8951 H   0  0  0  0  0  0  0  0  0  0  0  0
  148.0674  134.7048  162.2468 H   0  0  0  0  0  0  0  0  0  0  0  0
  146.1973  136.1823  162.9618 H   0  0  0  0  0  0  0  0  0  0  0  0
  145.1119  137.6992  161.3137 H   0  0  0  0  0  0  0  0  0  0  0  0
  145.8920  137.7435  158.9601 H   0  0  0  0  0  0  0  0  0  0  0  0
  1  2  1  0  0  0  0
  1 26  1  0  0  0  0
  1 27  1  0  0  0  0
  1 28  1  0  0  0  0
  2  3  1  0  0  0  0
  3  4  1  0  0  0  0
  3 29  1  0  0  0  0
  3 30  1  0  0  0  0
  4  5  1  0  0  0  0
  4 31  1  0  0  0  0
  4 32  1  0  0  0  0
  5 23  1  0  0  0  0
  5  6  1  0  0  0  0
  6  7  1  0  0  0  0
  6 11  2  0  0  0  0
  7  8  1  0  0  0  0
  7 33  1  0  0  0  0
  8  9  1  0  0  0  0
  8 10  2  0  0  0  0
  9 34  1  0  0  0  0
  9 35  1  0  0  0  0
  9 36  1  0  0  0  0
 11 12  1  0  0  0  0
 11 20  1  0  0  0  0
 12 13  1  0  0  0  0
 12 37  1  0  0  0  0
 13 14  1  0  0  0  0
 13 38  1  0  0  0  0
 13 39  1  0  0  0  0
 14 19  1  0  0  0  0
 14 15  2  0  0  0  0
 15 16  1  0  0  0  0
 15 40  1  0  0  0  0
 16 17  2  0  0  0  0
 16 41  1  0  0  0  0
 17 18  1  0  0  0  0
 17 42  1  0  0  0  0
 18 19  2  0  0  0  0
 18 43  1  0  0  0  0
 19 44  1  0  0  0  0
 20 21  2  0  0  0  0
 20 22  1  0  0  0  0
 22 25  1  0  0  0  0
 22 23  1  0  0  0  0
 23 24  2  0  0  0  0
M  END
> <s_m_source_file>
AV-unprocessed.smi

> <i_m_source_file_index>
801

> <i_lp_mmshare_version>
43012

> <i_f3d_flags>
0

> <s_epik_input>
W0NIM11PW0NIMl1bQ0gyXW4xYyhbTkhdQyg9TylbQ0gzXSljKGMoPU8pW25IXWMxPU8pW05IXVtDSDJdYzJbY0hdW2NIXVtjSF1bY0hdW2NIXTI=

> <s_epik_cmdline>
J2VwaWtfcHl0aG9uJywgJy1waCcsICc3LjAnLCAnLXRuJywgJzgnLCAnLW1hJywgJzIwMCcsICctbWV0YWxfYmluZGluZycsICctaW1hZScsICc8aW5maWxlLm1hZT4nLCAnLW9tYWUnLCAnPG91dGZpbGUubWFlPic=

> <r_lp_tautomer_probability>
0.999901

> <r_epik_Ionization_Penalty>
0.000786563

> <r_epik_Ionization_Penalty_Charging>
0.000779429

> <r_epik_Ionization_Penalty_Neutral>
7.13436e-06

> <r_epik_State_Penalty>
0.00049961

> <r_epik_Charging_Adjusted_Penalty>
0.00127904

> <i_epik_Tot_Q>
0

> <i_epik_Tot_abs_Q>
0

> <r_epik_Metal_State_Penalty>
0.266924

> <b_epik_Metal_Only>
0

> <s_lp_Force_Field>
OPLS_2005

> <r_lp_Energy>
22.7844

> <b_lp_Chiralities_Consistent>
1

> <s_lp_Variant>
AV-unprocessed.smi:801-1

> <Gold.Version>
5.8.1

> <Gold.Id.Protein>
6NUR|6NUR_protein|mol2

> <Gold.PLP.Fitness>
40.6010

> <Gold.PLP.PLP>
-34.8144

> <Gold.PLP.part.hbond>
-2.0000

> <Gold.PLP.part.metal>
0.0000

> <Gold.PLP.part.buried>
-7.4129

> <Gold.PLP.part.nonpolar>
-25.6428

> <Gold.PLP.part.repulsive>
0.3886

> <Gold.PLP.ligand.clash>
0.0000

> <Gold.PLP.ligand.torsion>
0.6576

> <Gold.PLP.Chemscore.Hbond>
2.0000

> <Gold.PLP.Chemscore.CHOScore>
0.0000

> <Gold.PLP.Chemscore.Metal>
0.0000

> <Gold.Chemscore.Hbonds>
donor molecule, donor type, donor heavy atom, donor atom, acceptor molecule, acceptor atom, score
      P1  H  6896  6907       L1    21  1.00
      P1  H  7989  7998       L1    10  1.00

> <Gold.PLP.Chemscore.Internal.Correction>
1.1019

> <Gold.Rescore>
     Score         DG    S(hbond)    S(metal)    S(lipo)     H(rot)  DE(clash)    DE(int)     intcor
     12.08     -15.66       1.98        0.00      74.65       2.02       0.04       3.54       ----

> <Gold.Chemscore.Fitness>
12.0827

> <Gold.Chemscore.DG>
-15.6633

> <Gold.Chemscore.ZeroCoef>
-5.4800

> <Gold.Chemscore.Hbond>
1.9799

> <Gold.Chemscore.Metal>
0.0000

> <Gold.Chemscore.Lipo>
74.6496

> <Gold.Chemscore.Internal_Hbond>
0.0000

> <Gold.Chemscore.DEClash>
0.0359

> <Gold.Chemscore.DEInternal>
3.5448

> <Gold.Chemscore.Rot>
2.0170

> <Gold.Chemscore.Internal.Correction>
   9.000000E+99

> <Gold.Chemscore.Hbonds>
donor molecule, donor type, donor heavy atom, donor atom, acceptor molecule, acceptor atom, score
      P1  H  6896  6907       L1    21  0.99
      P1  H  7989  7998       L1    10  0.98

> <Gold.Chemscore.Hbond.Weighted>
-6.6129

> <Gold.Chemscore.Metal.Weighted>
-0.0000

> <Gold.Chemscore.Lipo.Weighted>
-8.7340

> <Gold.Chemscore.Internal_Hbond.Weighted>
0.0000

> <Gold.Chemscore.DEClash.Weighted>
0.0359

> <Gold.Chemscore.DEInternal.Weighted>
3.5448

> <Gold.Chemscore.Rot.Weighted>
5.1636

> <Gold.Chemscore.Internal.Correction.Weighted>
   9.000000E+99

> <Gold.Protein.RotatedTorsions>
[ 6907 6896 6895 6894 ] final  -47.26 input  -60.11 | X-H torsion
[ 7974 7965 7964 7962 ] final  165.82 input  175.53 | X-H torsion
[ 8008 7997 7996 7995 ] final  -87.78 input   59.86 | X-H torsion
[ 10167 10162 10161 10158 ] final  139.97 input  -65.29 | X-H torsion
[ 10718 10713 10712 10709 ] final  -67.39 input   66.30 | X-H torsion
[ 10763 10752 10751 10750 ] final   97.94 input  -60.55 | X-H torsion
[ 11005 11000 10999 10996 ] final  -23.93 input  -57.11 | X-H torsion

> <Gold.Protein.ActiveResidues>
 VAL166  LYS551  ARG553  GLY616  TRP617  ASP618  TYR619  PRO620  LYS621  CYS622 
 ASP623  PHE694  ASN695  SER759  ASP760  ASP761  ALA762  ILE779  LEU786  VAL792 
 PHE793  MET794  SER795  GLU796  ALA797  LYS798  CYS799  TRP800  GLU811  SER814 

> <Gold.Protein.RotatedAtoms>
  150.9026  134.8439  159.7370 H   0  0  0  0  0  0  0  0  0  0  0  0  # atno 6907 bound_to 6896
  152.4901  134.4479  159.9575 H   0  0  0  0  0  0  0  0  0  0  0  0  # atno 6908 bound_to 6896
  151.4529  133.3573  159.2833 H   0  0  0  0  0  0  0  0  0  0  0  0  # atno 6909 bound_to 6896
  144.7487  139.8525  143.6373 H   0  0  0  0  0  0  0  0  0  0  0  0  # atno 7974 bound_to 7965
  154.6672  140.0561  157.0126 H   0  0  0  0  0  0  0  0  0  0  0  0  # atno 8008 bound_to 7997
  155.1142  140.3241  155.4495 H   0  0  0  0  0  0  0  0  0  0  0  0  # atno 8009 bound_to 7997
  156.2642  140.2009  156.6266 H   0  0  0  0  0  0  0  0  0  0  0  0  # atno 8010 bound_to 7997
  139.5063  144.6263  151.5929 H   0  0  0  0  0  0  0  0  0  0  0  0  # atno 10167 bound_to 10162
  156.0560  130.4277  150.1847 H   0  0  0  0  0  0  0  0  0  0  0  0  # atno 10718 bound_to 10713
  153.2830  135.4166  155.1096 H   0  0  0  0  0  0  0  0  0  0  0  0  # atno 10763 bound_to 10752
  154.8495  135.3500  154.6086 H   0  0  0  0  0  0  0  0  0  0  0  0  # atno 10764 bound_to 10752
  153.6507  135.7053  153.5267 H   0  0  0  0  0  0  0  0  0  0  0  0  # atno 10765 bound_to 10752
  140.8798  133.7662  156.0288 H   0  0  0  0  0  0  0  0  0  0  0  0  # atno 11005 bound_to 11000
  146.1406  139.4462  143.0111 LP  0  0  0  0  0  0  0  0  0  0  0  0  # atno 17320 bound_to 7965
  145.7024  141.0132  143.1497 LP  0  0  0  0  0  0  0  0  0  0  0  0  # atno 17321 bound_to 7965
  140.5981  143.9660  150.6367 LP  0  0  0  0  0  0  0  0  0  0  0  0  # atno 17342 bound_to 10162
  140.2862  143.3355  152.1105 LP  0  0  0  0  0  0  0  0  0  0  0  0  # atno 17343 bound_to 10162
  156.9923  130.9897  151.3411 LP  0  0  0  0  0  0  0  0  0  0  0  0  # atno 17370 bound_to 10713
  157.5530  130.8195  149.8169 LP  0  0  0  0  0  0  0  0  0  0  0  0  # atno 17371 bound_to 10713
  140.8475  134.2993  157.5289 LP  0  0  0  0  0  0  0  0  0  0  0  0  # atno 17394 bound_to 11000
  139.8718  134.9450  156.3896 LP  0  0  0  0  0  0  0  0  0  0  0  0  # atno 17395 bound_to 11000

$$$$
