AV-unprocessed.smi:2283|AV-procd|sdf|9200|dock5
  -GOLD-   2272012413D 1   1.00000     0.00000
 Structure written by MMmdl.
 37 38  0  0  0  0  0  0  0  0  1 V2000
  150.3101  138.3978  154.8730 C   0  0  0  0  0  0  0  0  0  0  0  0
  149.2757  139.4208  154.4347 C   0  0  0  0  0  0  0  0  0  0  0  0
  148.2353  139.0028  153.5768 C   0  0  0  0  0  0  0  0  0  0  0  0
  147.2458  139.9097  153.1560 C   0  0  0  0  0  0  0  0  0  0  0  0
  147.2878  141.2444  153.5946 C   0  0  0  0  0  0  0  0  0  0  0  0
  148.3220  141.6705  154.4480 C   0  0  0  0  0  0  0  0  0  0  0  0
  149.3296  140.7719  154.8701 C   0  0  0  0  0  0  0  0  0  0  0  0
  150.4327  141.2721  155.8029 C   0  0  1  0  0  0  0  0  0  0  0  0
  150.5401  142.6821  155.7703 O   0  0  0  0  0  0  0  0  0  0  0  0
  150.1628  140.8242  157.2576 C   0  0  0  0  0  0  0  0  0  0  0  0
  151.3450  140.9792  158.1238 N   0  0  0  0  0  0  0  0  0  0  0  0
  152.3810  140.0484  157.9378 C   0  0  0  0  0  0  0  0  0  0  0  0
  153.4680  140.0914  158.6360 N   0  0  0  0  0  0  0  0  0  0  0  0
  153.6343  141.0844  159.6054 C   0  0  0  0  0  0  0  0  0  0  0  0
  154.9482  141.0451  160.3658 C   0  0  0  0  0  0  0  0  0  0  0  0
  152.6691  142.0159  159.8361 C   0  0  0  0  0  0  0  0  0  0  0  0
  152.7952  143.1206  160.8779 C   0  0  0  0  0  0  0  0  0  0  0  0
  151.4251  141.9781  159.0499 C   0  0  0  0  0  0  0  0  0  0  0  0
  150.5118  142.7900  159.2097 O   0  0  0  0  0  0  0  0  0  0  0  0
  150.0431  137.3946  154.5393 H   0  0  0  0  0  0  0  0  0  0  0  0
  150.3903  138.3730  155.9596 H   0  0  0  0  0  0  0  0  0  0  0  0
  151.2873  138.6393  154.4544 H   0  0  0  0  0  0  0  0  0  0  0  0
  148.1887  137.9782  153.2376 H   0  0  0  0  0  0  0  0  0  0  0  0
  146.4529  139.5802  152.5007 H   0  0  0  0  0  0  0  0  0  0  0  0
  146.5261  141.9419  153.2784 H   0  0  0  0  0  0  0  0  0  0  0  0
  148.3346  142.6981  154.7809 H   0  0  0  0  0  0  0  0  0  0  0  0
  151.3957  140.8899  155.4676 H   0  0  0  0  0  0  0  0  0  0  0  0
  149.6711  143.0501  155.8210 H   0  0  0  0  0  0  0  0  0  0  0  0
  149.2883  141.3385  157.6603 H   0  0  0  0  0  0  0  0  0  0  0  0
  149.8740  139.7709  157.2567 H   0  0  0  0  0  0  0  0  0  0  0  0
  152.2033  139.2969  157.1668 H   0  0  0  0  0  0  0  0  0  0  0  0
  155.5019  141.9730  160.2201 H   0  0  0  0  0  0  0  0  0  0  0  0
  155.5796  140.2230  160.0267 H   0  0  0  0  0  0  0  0  0  0  0  0
  154.7679  140.9095  161.4325 H   0  0  0  0  0  0  0  0  0  0  0  0
  151.9928  143.0389  161.6120 H   0  0  0  0  0  0  0  0  0  0  0  0
  152.7186  144.0976  160.3997 H   0  0  0  0  0  0  0  0  0  0  0  0
  153.7390  143.0950  161.4197 H   0  0  0  0  0  0  0  0  0  0  0  0
  1  2  1  0  0  0  0
  1 20  1  0  0  0  0
  1 21  1  0  0  0  0
  1 22  1  0  0  0  0
  2  7  1  0  0  0  0
  2  3  2  0  0  0  0
  3  4  1  0  0  0  0
  3 23  1  0  0  0  0
  4  5  2  0  0  0  0
  4 24  1  0  0  0  0
  5  6  1  0  0  0  0
  5 25  1  0  0  0  0
  6  7  2  0  0  0  0
  6 26  1  0  0  0  0
  7  8  1  0  0  0  0
  8  9  1  0  0  0  0
  8 10  1  0  0  0  0
  8 27  1  0  0  0  0
  9 28  1  0  0  0  0
 10 11  1  0  0  0  0
 10 29  1  0  0  0  0
 10 30  1  0  0  0  0
 11 18  1  0  0  0  0
 11 12  1  0  0  0  0
 12 13  2  0  0  0  0
 12 31  1  0  0  0  0
 13 14  1  0  0  0  0
 14 15  1  0  0  0  0
 14 16  2  0  0  0  0
 15 32  1  0  0  0  0
 15 33  1  0  0  0  0
 15 34  1  0  0  0  0
 16 17  1  0  0  0  0
 16 18  1  0  0  0  0
 17 35  1  0  0  0  0
 17 36  1  0  0  0  0
 17 37  1  0  0  0  0
 18 19  2  0  0  0  0
M  END
> <s_m_source_file>
AV-unprocessed.smi

> <i_m_source_file_index>
2283

> <i_lp_mmshare_version>
43012

> <i_f3d_flags>
0

> <s_epik_input>
W0NIM11jMVtjSF1bY0hdW2NIXVtjSF1jMVtDQEhdKFtPSF0pW0NIMl1uMltjSF1uYyhbQ0gzXSljKFtDSDNdKWMyPU8=

> <s_epik_cmdline>
J2VwaWtfcHl0aG9uJywgJy1waCcsICc3LjAnLCAnLXRuJywgJzgnLCAnLW1hJywgJzIwMCcsICctbWV0YWxfYmluZGluZycsICctaW1hZScsICc8aW5maWxlLm1hZT4nLCAnLW9tYWUnLCAnPG91dGZpbGUubWFlPic=

> <r_lp_tautomer_probability>
1

> <r_epik_Ionization_Penalty>
5.07259e-05

> <r_epik_Ionization_Penalty_Charging>
7.56727e-08

> <r_epik_Ionization_Penalty_Neutral>
5.06502e-05

> <r_epik_State_Penalty>
-0

> <r_epik_Charging_Adjusted_Penalty>
7.56727e-08

> <i_epik_Tot_Q>
0

> <i_epik_Tot_abs_Q>
0

> <r_epik_Metal_State_Penalty>
-0

> <b_epik_Metal_Only>
0

> <s_lp_Force_Field>
OPLS_2005

> <r_lp_Energy>
21.1785

> <b_lp_Chiralities_Consistent>
1

> <s_lp_Variant>
AV-unprocessed.smi:2283-2

> <Gold.Version>
5.8.1

> <Gold.Id.Protein>
6NUR|6NUR_protein|mol2

> <Gold.PLP.Fitness>
43.9424

> <Gold.PLP.PLP>
-40.2238

> <Gold.PLP.part.hbond>
-2.7284

> <Gold.PLP.part.metal>
0.0000

> <Gold.PLP.part.buried>
-0.5348

> <Gold.PLP.part.nonpolar>
-36.1108

> <Gold.PLP.part.repulsive>
0.0556

> <Gold.PLP.ligand.clash>
0.0000

> <Gold.PLP.ligand.torsion>
0.7488

> <Gold.PLP.Chemscore.Hbond>
1.7360

> <Gold.PLP.Chemscore.CHOScore>
0.0000

> <Gold.PLP.Chemscore.Metal>
0.0000

> <Gold.Chemscore.Hbonds>
donor molecule, donor type, donor heavy atom, donor atom, acceptor molecule, acceptor atom, score
      L1  H     9    28       P1  8028  0.74
      P1  H  7997  8010       L1    13  0.85

> <Gold.PLP.Chemscore.Internal.Correction>
0.0083

> <Gold.Rescore>
     Score         DG    S(hbond)    S(metal)    S(lipo)     H(rot)  DE(clash)    DE(int)     intcor
     15.38     -16.73       1.35        0.00      99.46       1.91       0.79       0.56       ----

> <Gold.Chemscore.Fitness>
15.3821

> <Gold.Chemscore.DG>
-16.7333

> <Gold.Chemscore.ZeroCoef>
-5.4800

> <Gold.Chemscore.Hbond>
1.3461

> <Gold.Chemscore.Metal>
0.0000

> <Gold.Chemscore.Lipo>
99.4621

> <Gold.Chemscore.Internal_Hbond>
0.0000

> <Gold.Chemscore.DEClash>
0.7900

> <Gold.Chemscore.DEInternal>
0.5611

> <Gold.Chemscore.Rot>
1.9061

> <Gold.Chemscore.Internal.Correction>
   9.000000E+99

> <Gold.Chemscore.Hbonds>
donor molecule, donor type, donor heavy atom, donor atom, acceptor molecule, acceptor atom, score
      L1  H     9    28       P1  8028  0.74
      P1  H  7997  8010       L1    13  0.13

> <Gold.Chemscore.Hbond.Weighted>
-4.4959

> <Gold.Chemscore.Metal.Weighted>
-0.0000

> <Gold.Chemscore.Lipo.Weighted>
-11.6371

> <Gold.Chemscore.Internal_Hbond.Weighted>
0.0000

> <Gold.Chemscore.DEClash.Weighted>
0.7900

> <Gold.Chemscore.DEInternal.Weighted>
0.5611

> <Gold.Chemscore.Rot.Weighted>
4.8797

> <Gold.Chemscore.Internal.Correction.Weighted>
   9.000000E+99

> <Gold.Protein.RotatedTorsions>
[ 6907 6896 6895 6894 ] final   74.31 input  -60.11 | X-H torsion
[ 7974 7965 7964 7962 ] final   30.53 input  175.53 | X-H torsion
[ 8008 7997 7996 7995 ] final   25.91 input   59.86 | X-H torsion
[ 10167 10162 10161 10158 ] final   27.32 input  -65.29 | X-H torsion
[ 10718 10713 10712 10709 ] final   76.53 input   66.30 | X-H torsion
[ 10763 10752 10751 10750 ] final    7.68 input  -60.55 | X-H torsion
[ 11005 11000 10999 10996 ] final  128.89 input  -57.11 | X-H torsion

> <Gold.Protein.ActiveResidues>
 VAL166  LYS551  ARG553  GLY616  TRP617  ASP618  TYR619  PRO620  LYS621  CYS622 
 ASP623  PHE694  ASN695  SER759  ASP760  ASP761  ALA762  ILE779  LEU786  VAL792 
 PHE793  MET794  SER795  GLU796  ALA797  LYS798  CYS799  TRP800  GLU811  SER814 

> <Gold.Protein.RotatedAtoms>
  152.4969  134.4291  159.9505 H   0  0  0  0  0  0  0  0  0  0  0  0  # atno 6907 bound_to 6896
  151.4268  133.3676  159.2771 H   0  0  0  0  0  0  0  0  0  0  0  0  # atno 6908 bound_to 6896
  150.9183  134.8623  159.7531 H   0  0  0  0  0  0  0  0  0  0  0  0  # atno 6909 bound_to 6896
  146.1606  139.6776  142.9036 H   0  0  0  0  0  0  0  0  0  0  0  0  # atno 7974 bound_to 7965
  155.0191  140.3145  155.4800 H   0  0  0  0  0  0  0  0  0  0  0  0  # atno 8008 bound_to 7997
  156.2895  140.2200  156.5250 H   0  0  0  0  0  0  0  0  0  0  0  0  # atno 8009 bound_to 7997
  154.7468  140.0469  157.0846 H   0  0  0  0  0  0  0  0  0  0  0  0  # atno 8010 bound_to 7997
  140.4948  144.0409  150.6310 H   0  0  0  0  0  0  0  0  0  0  0  0  # atno 10167 bound_to 10162
  157.6677  130.9779  150.1510 H   0  0  0  0  0  0  0  0  0  0  0  0  # atno 10718 bound_to 10713
  153.2336  135.6895  153.7862 H   0  0  0  0  0  0  0  0  0  0  0  0  # atno 10763 bound_to 10752
  153.7017  135.3296  155.3227 H   0  0  0  0  0  0  0  0  0  0  0  0  # atno 10764 bound_to 10752
  154.8325  135.4569  154.1231 H   0  0  0  0  0  0  0  0  0  0  0  0  # atno 10765 bound_to 10752
  139.9585  134.9607  156.9068 H   0  0  0  0  0  0  0  0  0  0  0  0  # atno 11005 bound_to 11000
  145.4597  141.0432  143.2758 LP  0  0  0  0  0  0  0  0  0  0  0  0  # atno 17320 bound_to 7965
  144.8022  139.6119  143.7066 LP  0  0  0  0  0  0  0  0  0  0  0  0  # atno 17321 bound_to 7965
  140.3689  143.2866  152.0301 LP  0  0  0  0  0  0  0  0  0  0  0  0  # atno 17342 bound_to 10162
  139.4859  144.6245  151.7190 LP  0  0  0  0  0  0  0  0  0  0  0  0  # atno 17343 bound_to 10162
  156.2309  130.3682  149.8446 LP  0  0  0  0  0  0  0  0  0  0  0  0  # atno 17370 bound_to 10713
  156.6272  130.8651  151.3488 LP  0  0  0  0  0  0  0  0  0  0  0  0  # atno 17371 bound_to 10713
  140.5553  134.0587  155.7382 LP  0  0  0  0  0  0  0  0  0  0  0  0  # atno 17394 bound_to 11000
  141.1260  133.9383  157.2635 LP  0  0  0  0  0  0  0  0  0  0  0  0  # atno 17395 bound_to 11000

$$$$
