AV-unprocessed.smi:1002|AV-procd|sdf|4358|dock2
  -GOLD-   22720 2263D 1   1.00000     0.00000
 Structure written by MMmdl.
 36 37  0  0  0  0  0  0  0  0  2 V2000
  146.1525  132.9314  153.9191 O   0  0  0  0  0  0  0  0  0  0  0  0
  146.8259  133.7688  153.3191 C   0  0  0  0  0  0  0  0  0  0  0  0
  146.2312  134.5038  152.1144 C   0  0  0  0  0  0  0  0  0  0  0  0
  145.6023  133.5347  151.1264 C   0  0  0  0  0  0  0  0  0  0  0  0
  144.2042  133.3503  151.0856 C   0  0  0  0  0  0  0  0  0  0  0  0
  143.6727  132.4396  150.1506 C   0  0  0  0  0  0  0  0  0  0  0  0
  144.4346  131.7306  149.2899 N   0  0  0  0  0  0  0  0  0  0  0  0
  145.7722  131.9098  149.3358 C   0  0  0  0  0  0  0  0  0  0  0  0
  146.4044  132.7950  150.2317 C   0  0  0  0  0  0  0  0  0  0  0  0
  148.0908  134.0761  153.6490 N   0  0  0  0  0  0  0  0  0  0  0  0
  148.8531  133.4861  154.7446 C   0  0  2  0  0  0  0  0  0  0  0  0
  150.0907  134.3571  155.0319 C   0  0  0  0  0  0  0  0  0  0  0  0
  150.9809  133.7340  156.1190 C   0  0  0  0  0  0  0  0  0  0  0  0
  151.4025  132.3007  155.7355 C   0  0  1  0  0  0  0  0  0  0  0  0
  152.2789  131.6870  156.8365 C   0  0  0  0  0  0  0  0  0  0  0  0
  152.6966  130.5196  156.6667 O   0  0  0  0  0  0  0  0  0  0  0  0
  152.5139  132.3999  157.8367 O   0  5  0  0  0  0  0  0  0  0  0  0
  150.1586  131.4249  155.4765 C   0  0  0  0  0  0  0  0  0  0  0  0
  149.2625  132.0420  154.3907 C   0  0  0  0  0  0  0  0  0  0  0  0
  145.4858  135.2198  152.4626 H   0  0  0  0  0  0  0  0  0  0  0  0
  147.0090  135.0795  151.6105 H   0  0  0  0  0  0  0  0  0  0  0  0
  143.5524  133.8955  151.7525 H   0  0  0  0  0  0  0  0  0  0  0  0
  142.6068  132.2764  150.0929 H   0  0  0  0  0  0  0  0  0  0  0  0
  146.3574  131.3304  148.6369 H   0  0  0  0  0  0  0  0  0  0  0  0
  147.4792  132.9026  150.2283 H   0  0  0  0  0  0  0  0  0  0  0  0
  148.5643  134.7763  153.0964 H   0  0  0  0  0  0  0  0  0  0  0  0
  148.2390  133.4667  155.6471 H   0  0  0  0  0  0  0  0  0  0  0  0
  150.6750  134.4843  154.1193 H   0  0  0  0  0  0  0  0  0  0  0  0
  149.7805  135.3561  155.3411 H   0  0  0  0  0  0  0  0  0  0  0  0
  151.8625  134.3581  156.2712 H   0  0  0  0  0  0  0  0  0  0  0  0
  150.4388  133.7286  157.0662 H   0  0  0  0  0  0  0  0  0  0  0  0
  151.9921  132.3458  154.8179 H   0  0  0  0  0  0  0  0  0  0  0  0
  150.4618  130.4220  155.1728 H   0  0  0  0  0  0  0  0  0  0  0  0
  149.5783  131.3079  156.3932 H   0  0  0  0  0  0  0  0  0  0  0  0
  148.3748  131.4230  154.2548 H   0  0  0  0  0  0  0  0  0  0  0  0
  149.7942  132.0319  153.4382 H   0  0  0  0  0  0  0  0  0  0  0  0
  1  2  2  0  0  0  0
  2  3  1  0  0  0  0
  2 10  1  0  0  0  0
  3  4  1  0  0  0  0
  3 20  1  0  0  0  0
  3 21  1  0  0  0  0
  4  9  1  0  0  0  0
  4  5  2  0  0  0  0
  5  6  1  0  0  0  0
  5 22  1  0  0  0  0
  6  7  2  0  0  0  0
  6 23  1  0  0  0  0
  7  8  1  0  0  0  0
  8  9  2  0  0  0  0
  8 24  1  0  0  0  0
  9 25  1  0  0  0  0
 10 11  1  0  0  0  0
 10 26  1  0  0  0  0
 11 19  1  0  0  0  0
 11 12  1  0  0  0  0
 11 27  1  0  0  0  0
 12 13  1  0  0  0  0
 12 28  1  0  0  0  0
 12 29  1  0  0  0  0
 13 14  1  0  0  0  0
 13 30  1  0  0  0  0
 13 31  1  0  0  0  0
 14 15  1  0  0  0  0
 14 18  1  0  0  0  0
 14 32  1  0  0  0  0
 15 16  2  0  0  0  0
 15 17  1  0  0  0  0
 18 19  1  0  0  0  0
 18 33  1  0  0  0  0
 18 34  1  0  0  0  0
 19 35  1  0  0  0  0
 19 36  1  0  0  0  0
M  CHG  1  17  -1
M  END
> <s_m_source_file>
AV-unprocessed.smi

> <i_m_source_file_index>
1002

> <i_lp_mmshare_version>
43012

> <i_f3d_flags>
0

> <s_epik_input>
Tz1DKFtPSF0pW0NAQEhdKFtDSDJdW0NIMl0xKVtDSDJdW0NIMl1bQ0BIXTFbTkhdQyg9TylbQ0gyXWMyW2NIXVtjSF1uW2NIXVtjSF0y

> <s_epik_cmdline>
J2VwaWtfcHl0aG9uJywgJy1waCcsICc3LjAnLCAnLXRuJywgJzgnLCAnLW1hJywgJzIwMCcsICctbWV0YWxfYmluZGluZycsICctaW1hZScsICc8aW5maWxlLm1hZT4nLCAnLW9tYWUnLCAnPG91dGZpbGUubWFlPic=

> <r_lp_tautomer_probability>
1

> <r_epik_Ionization_Penalty>
0.0065671

> <r_epik_Ionization_Penalty_Charging>
0.00222897

> <r_epik_Ionization_Penalty_Neutral>
0.00433813

> <r_epik_State_Penalty>
-0

> <r_epik_Charging_Adjusted_Penalty>
0.00222897

> <i_epik_Tot_Q>
-1

> <i_epik_Tot_abs_Q>
1

> <r_epik_Metal_State_Penalty>
-0

> <b_epik_Metal_Only>
0

> <s_lp_Force_Field>
OPLS_2005

> <r_lp_Energy>
12.3295

> <b_lp_Chiralities_Consistent>
1

> <s_lp_Variant>
AV-unprocessed.smi:1002-1

> <Gold.Version>
5.8.1

> <Gold.Id.Protein>
6NUR|6NUR_protein|mol2

> <Gold.PLP.Fitness>
46.9279

> <Gold.PLP.PLP>
-32.8102

> <Gold.PLP.part.hbond>
-3.0000

> <Gold.PLP.part.metal>
0.0000

> <Gold.PLP.part.buried>
-3.8889

> <Gold.PLP.part.nonpolar>
-26.3251

> <Gold.PLP.part.repulsive>
0.2861

> <Gold.PLP.ligand.clash>
0.0000

> <Gold.PLP.ligand.torsion>
0.5317

> <Gold.PLP.Chemscore.Hbond>
3.5760

> <Gold.PLP.Chemscore.CHOScore>
1.4785

> <Gold.PLP.Chemscore.Metal>
0.0000

> <Gold.Chemscore.Hbonds>
donor molecule, donor type, donor heavy atom, donor atom, acceptor molecule, acceptor atom, score
      L1  H    10    26       P1  7948  1.00
      P1  H  6896  6909       L1    17  2.00
      P1  H 10785 10796       L1     7  0.41
      L1  C     6    23       P1 10186  0.40
      L1  C     6    23       P1 10952  0.64

> <Gold.PLP.Chemscore.Internal.Correction>
0.0174

> <Gold.Rescore>
     Score         DG    S(hbond)    S(metal)    S(lipo)     H(rot)  DE(clash)    DE(int)     intcor
     16.79     -17.70       2.34        0.00      78.76       1.88       0.00       0.90       ----

> <Gold.Chemscore.Fitness>
16.7923

> <Gold.Chemscore.DG>
-17.6969

> <Gold.Chemscore.ZeroCoef>
-5.4800

> <Gold.Chemscore.Hbond>
2.3417

> <Gold.Chemscore.Metal>
0.0000

> <Gold.Chemscore.Lipo>
78.7645

> <Gold.Chemscore.Internal_Hbond>
0.0000

> <Gold.Chemscore.DEClash>
0.0000

> <Gold.Chemscore.DEInternal>
0.9046

> <Gold.Chemscore.Rot>
1.8828

> <Gold.Chemscore.Internal.Correction>
   9.000000E+99

> <Gold.Chemscore.Hbonds>
donor molecule, donor type, donor heavy atom, donor atom, acceptor molecule, acceptor atom, score
      L1  H    10    26       P1  7948  0.45
      P1  H  6896  6909       L1    17  0.98
      P1  H 10785 10796       L1     7  0.21

> <Gold.Chemscore.Hbond.Weighted>
-7.8213

> <Gold.Chemscore.Metal.Weighted>
-0.0000

> <Gold.Chemscore.Lipo.Weighted>
-9.2155

> <Gold.Chemscore.Internal_Hbond.Weighted>
0.0000

> <Gold.Chemscore.DEClash.Weighted>
0.0000

> <Gold.Chemscore.DEInternal.Weighted>
0.9046

> <Gold.Chemscore.Rot.Weighted>
4.8199

> <Gold.Chemscore.Internal.Correction.Weighted>
   9.000000E+99

> <Gold.Protein.RotatedTorsions>
[ 6907 6896 6895 6894 ] final  -84.86 input  -60.11 | X-H torsion
[ 7974 7965 7964 7962 ] final -167.08 input  175.53 | X-H torsion
[ 8008 7997 7996 7995 ] final  -82.75 input   59.86 | X-H torsion
[ 10167 10162 10161 10158 ] final  101.91 input  -65.29 | X-H torsion
[ 10718 10713 10712 10709 ] final   51.54 input   66.30 | X-H torsion
[ 10763 10752 10751 10750 ] final  149.14 input  -60.55 | X-H torsion
[ 11005 11000 10999 10996 ] final -111.73 input  -57.11 | X-H torsion

> <Gold.Protein.ActiveResidues>
 VAL166  LYS551  ARG553  GLY616  TRP617  ASP618  TYR619  PRO620  LYS621  CYS622 
 ASP623  PHE694  ASN695  SER759  ASP760  ASP761  ALA762  ILE779  LEU786  VAL792 
 PHE793  MET794  SER795  GLU796  ALA797  LYS798  CYS799  TRP800  GLU811  SER814 

> <Gold.Protein.RotatedAtoms>
  150.6873  134.3294  159.4820 H   0  0  0  0  0  0  0  0  0  0  0  0  # atno 6907 bound_to 6896
  152.1160  134.9237  160.0574 H   0  0  0  0  0  0  0  0  0  0  0  0  # atno 6908 bound_to 6896
  152.0461  133.3964  159.4394 H   0  0  0  0  0  0  0  0  0  0  0  0  # atno 6909 bound_to 6896
  144.7231  140.2571  143.6270 H   0  0  0  0  0  0  0  0  0  0  0  0  # atno 7974 bound_to 7965
  154.6118  140.0628  156.9504 H   0  0  0  0  0  0  0  0  0  0  0  0  # atno 8008 bound_to 7997
  155.1960  140.3311  155.4332 H   0  0  0  0  0  0  0  0  0  0  0  0  # atno 8009 bound_to 7997
  156.2381  140.1873  156.7047 H   0  0  0  0  0  0  0  0  0  0  0  0  # atno 8010 bound_to 7997
  139.7396  144.7015  151.0595 H   0  0  0  0  0  0  0  0  0  0  0  0  # atno 10167 bound_to 10162
  157.4990  130.8425  149.8293 H   0  0  0  0  0  0  0  0  0  0  0  0  # atno 10718 bound_to 10713
  154.0663  135.2870  155.3316 H   0  0  0  0  0  0  0  0  0  0  0  0  # atno 10763 bound_to 10752
  154.6776  135.5276  153.8223 H   0  0  0  0  0  0  0  0  0  0  0  0  # atno 10764 bound_to 10752
  153.0503  135.6573  154.0847 H   0  0  0  0  0  0  0  0  0  0  0  0  # atno 10765 bound_to 10752
  141.0717  133.9368  157.2471 H   0  0  0  0  0  0  0  0  0  0  0  0  # atno 11005 bound_to 11000
  145.8172  139.2028  143.1959 LP  0  0  0  0  0  0  0  0  0  0  0  0  # atno 17320 bound_to 7965
  146.0545  140.8034  142.9765 LP  0  0  0  0  0  0  0  0  0  0  0  0  # atno 17321 bound_to 7965
  140.7784  143.4941  150.9856 LP  0  0  0  0  0  0  0  0  0  0  0  0  # atno 17342 bound_to 10162
  139.8629  143.7291  152.3172 LP  0  0  0  0  0  0  0  0  0  0  0  0  # atno 17343 bound_to 10162
  156.0218  130.3793  150.1940 LP  0  0  0  0  0  0  0  0  0  0  0  0  # atno 17370 bound_to 10713
  157.0130  130.9956  151.3360 LP  0  0  0  0  0  0  0  0  0  0  0  0  # atno 17371 bound_to 10713
  139.9530  135.0171  156.9049 LP  0  0  0  0  0  0  0  0  0  0  0  0  # atno 17394 bound_to 11000
  140.5659  134.0490  155.7414 LP  0  0  0  0  0  0  0  0  0  0  0  0  # atno 17395 bound_to 11000

$$$$
