AV-unprocessed.smi:2591|AV-procd|sdf|10157|dock2
  -GOLD-   2272014173D 1   1.00000     0.00000
 Structure written by MMmdl.
 34 35  0  0  0  0  0  0  0  0  1 V2000
  150.8150  134.4292  156.1586 C   0  0  0  0  0  0  0  0  0  0  0  0
  151.2999  135.7304  155.7243 N   0  0  0  0  0  0  0  0  0  0  0  0
  150.2459  136.5178  155.0996 C   0  0  0  0  0  0  0  0  0  0  0  0
  150.7618  137.8936  154.6458 C   0  0  0  0  0  0  0  0  0  0  0  0
  151.3311  138.5812  155.7559 O   0  0  0  0  0  0  0  0  0  0  0  0
  152.4013  137.8647  156.3743 C   0  0  1  0  0  0  0  0  0  0  0  0
  152.9583  138.7059  157.5320 C   0  0  0  0  0  0  0  0  0  0  0  0
  153.9867  138.3544  158.1122 O   0  0  0  0  0  0  0  0  0  0  0  0
  152.2651  139.8227  157.8263 N   0  0  0  0  0  0  0  0  0  0  0  0
  152.5385  140.7938  158.8255 C   0  0  0  0  0  0  0  0  0  0  0  0
  152.1027  142.1030  158.5225 C   0  0  0  0  0  0  0  0  0  0  0  0
  152.3326  143.1482  159.4432 C   0  0  0  0  0  0  0  0  0  0  0  0
  151.8713  144.5665  159.1451 C   0  0  0  0  0  0  0  0  0  0  0  0
  150.5766  144.5873  158.8270 F   0  0  0  0  0  0  0  0  0  0  0  0
  152.0542  145.3565  160.2038 F   0  0  0  0  0  0  0  0  0  0  0  0
  152.5730  145.0507  158.1213 F   0  0  0  0  0  0  0  0  0  0  0  0
  152.9851  142.8398  160.6541 C   0  0  0  0  0  0  0  0  0  0  0  0
  153.3831  141.5097  160.8787 C   0  0  0  0  0  0  0  0  0  0  0  0
  153.1696  140.5153  159.9928 N   0  0  0  0  0  0  0  0  0  0  0  0
  151.8826  136.4810  156.8292 C   0  0  0  0  0  0  0  0  0  0  0  0
  150.4114  133.8663  155.3163 H   0  0  0  0  0  0  0  0  0  0  0  0
  150.0289  134.5314  156.9080 H   0  0  0  0  0  0  0  0  0  0  0  0
  151.6243  133.8417  156.5933 H   0  0  0  0  0  0  0  0  0  0  0  0
  149.8407  135.9803  154.2416 H   0  0  0  0  0  0  0  0  0  0  0  0
  149.4210  136.6552  155.8007 H   0  0  0  0  0  0  0  0  0  0  0  0
  151.5063  137.7855  153.8556 H   0  0  0  0  0  0  0  0  0  0  0  0
  149.9454  138.4892  154.2376 H   0  0  0  0  0  0  0  0  0  0  0  0
  153.2049  137.7326  155.6475 H   0  0  0  0  0  0  0  0  0  0  0  0
  151.4428  139.9930  157.2659 H   0  0  0  0  0  0  0  0  0  0  0  0
  151.5966  142.3046  157.5894 H   0  0  0  0  0  0  0  0  0  0  0  0
  153.1765  143.6003  161.3969 H   0  0  0  0  0  0  0  0  0  0  0  0
  153.8851  141.2360  161.7948 H   0  0  0  0  0  0  0  0  0  0  0  0
  151.1394  136.6099  157.6183 H   0  0  0  0  0  0  0  0  0  0  0  0
  152.7022  135.9068  157.2638 H   0  0  0  0  0  0  0  0  0  0  0  0
  1  2  1  0  0  0  0
  1 21  1  0  0  0  0
  1 22  1  0  0  0  0
  1 23  1  0  0  0  0
  2 20  1  0  0  0  0
  2  3  1  0  0  0  0
  3  4  1  0  0  0  0
  3 24  1  0  0  0  0
  3 25  1  0  0  0  0
  4  5  1  0  0  0  0
  4 26  1  0  0  0  0
  4 27  1  0  0  0  0
  5  6  1  0  0  0  0
  6  7  1  0  0  0  0
  6 20  1  0  0  0  0
  6 28  1  0  0  0  0
  7  8  2  0  0  0  0
  7  9  1  0  0  0  0
  9 10  1  0  0  0  0
  9 29  1  0  0  0  0
 10 19  1  0  0  0  0
 10 11  2  0  0  0  0
 11 12  1  0  0  0  0
 11 30  1  0  0  0  0
 12 13  1  0  0  0  0
 12 17  2  0  0  0  0
 13 14  1  0  0  0  0
 13 15  1  0  0  0  0
 13 16  1  0  0  0  0
 17 18  1  0  0  0  0
 17 31  1  0  0  0  0
 18 19  2  0  0  0  0
 18 32  1  0  0  0  0
 20 33  1  0  0  0  0
 20 34  1  0  0  0  0
M  END
> <s_m_source_file>
AV-unprocessed.smi

> <i_m_source_file_index>
2591

> <i_lp_mmshare_version>
43012

> <i_f3d_flags>
0

> <s_epik_input>
W0NIM11OMVtDSDJdW0NIMl1PW0NASF0oW0NIMl0xKUMoPU8pW05IXWMyW2NIXWMoQyhGKShGKUYpW2NIXVtjSF1uMg==

> <s_epik_cmdline>
J2VwaWtfcHl0aG9uJywgJy1waCcsICc3LjAnLCAnLXRuJywgJzgnLCAnLW1hJywgJzIwMCcsICctbWV0YWxfYmluZGluZycsICctaW1hZScsICc8aW5maWxlLm1hZT4nLCAnLW9tYWUnLCAnPG91dGZpbGUubWFlPic=

> <r_epik_Ionization_Penalty>
0.526245

> <r_epik_Ionization_Penalty_Charging>
0

> <r_epik_Ionization_Penalty_Neutral>
0.526245

> <r_epik_State_Penalty>
0.534659

> <r_epik_Charging_Adjusted_Penalty>
0.534659

> <i_epik_Tot_Q>
0

> <i_epik_Tot_abs_Q>
0

> <r_epik_Metal_State_Penalty>
0.534657

> <b_epik_Metal_Only>
0

> <s_lp_Force_Field>
OPLS_2005

> <r_lp_Energy>
21.9247

> <b_lp_Chiralities_Consistent>
1

> <s_lp_Variant>
AV-unprocessed.smi:2591-5

> <Gold.Version>
5.8.1

> <Gold.Id.Protein>
6NUR|6NUR_protein|mol2

> <Gold.PLP.Fitness>
44.9198

> <Gold.PLP.PLP>
-40.9025

> <Gold.PLP.part.hbond>
-2.0000

> <Gold.PLP.part.metal>
0.0000

> <Gold.PLP.part.buried>
-4.9590

> <Gold.PLP.part.nonpolar>
-34.1377

> <Gold.PLP.part.repulsive>
0.1513

> <Gold.PLP.ligand.clash>
1.0553

> <Gold.PLP.ligand.torsion>
0.4188

> <Gold.PLP.Chemscore.Hbond>
1.6080

> <Gold.PLP.Chemscore.CHOScore>
0.0000

> <Gold.PLP.Chemscore.Metal>
0.0000

> <Gold.Chemscore.Hbonds>
donor molecule, donor type, donor heavy atom, donor atom, acceptor molecule, acceptor atom, score
      P1  H  7997  8008       L1     8  0.38
      P1  H 10752 10763       L1     2  0.94

> <Gold.PLP.Chemscore.Internal.Correction>
1.0861

> <Gold.Rescore>
     Score         DG    S(hbond)    S(metal)    S(lipo)     H(rot)  DE(clash)    DE(int)     intcor
     11.74     -13.58       0.31        0.00      82.23       1.00       0.43       1.42       ----

> <Gold.Chemscore.Fitness>
11.7360

> <Gold.Chemscore.DG>
-13.5810

> <Gold.Chemscore.ZeroCoef>
-5.4800

> <Gold.Chemscore.Hbond>
0.3113

> <Gold.Chemscore.Metal>
0.0000

> <Gold.Chemscore.Lipo>
82.2337

> <Gold.Chemscore.Internal_Hbond>
0.0000

> <Gold.Chemscore.DEClash>
0.4276

> <Gold.Chemscore.DEInternal>
1.4175

> <Gold.Chemscore.Rot>
1.0000

> <Gold.Chemscore.Internal.Correction>
   9.000000E+99

> <Gold.Chemscore.Hbonds>
donor molecule, donor type, donor heavy atom, donor atom, acceptor molecule, acceptor atom, score
      P1  H  7997  8008       L1     8  0.02
      P1  H 10752 10763       L1     2  0.13

> <Gold.Chemscore.Hbond.Weighted>
-1.0397

> <Gold.Chemscore.Metal.Weighted>
-0.0000

> <Gold.Chemscore.Lipo.Weighted>
-9.6213

> <Gold.Chemscore.Internal_Hbond.Weighted>
0.0000

> <Gold.Chemscore.DEClash.Weighted>
0.4276

> <Gold.Chemscore.DEInternal.Weighted>
1.4175

> <Gold.Chemscore.Rot.Weighted>
2.5600

> <Gold.Chemscore.Internal.Correction.Weighted>
   9.000000E+99

> <Gold.Protein.RotatedTorsions>
[ 6907 6896 6895 6894 ] final  -91.14 input  -60.11 | X-H torsion
[ 7974 7965 7964 7962 ] final -154.09 input  175.53 | X-H torsion
[ 8008 7997 7996 7995 ] final -118.56 input   59.86 | X-H torsion
[ 10167 10162 10161 10158 ] final  -80.32 input  -65.29 | X-H torsion
[ 10718 10713 10712 10709 ] final   -3.53 input   66.30 | X-H torsion
[ 10763 10752 10751 10750 ] final   56.31 input  -60.55 | X-H torsion
[ 11005 11000 10999 10996 ] final  162.45 input  -57.11 | X-H torsion

> <Gold.Protein.ActiveResidues>
 VAL166  LYS551  ARG553  GLY616  TRP617  ASP618  TYR619  PRO620  LYS621  CYS622 
 ASP623  PHE694  ASN695  SER759  ASP760  ASP761  ALA762  ILE779  LEU786  VAL792 
 PHE793  MET794  SER795  GLU796  ALA797  LYS798  CYS799  TRP800  GLU811  SER814 

> <Gold.Protein.RotatedAtoms>
  150.6889  134.2323  159.4439 H   0  0  0  0  0  0  0  0  0  0  0  0  # atno 6907 bound_to 6896
  152.0273  134.9786  160.0581 H   0  0  0  0  0  0  0  0  0  0  0  0  # atno 6908 bound_to 6896
  152.1339  133.4389  159.4771 H   0  0  0  0  0  0  0  0  0  0  0  0  # atno 6909 bound_to 6896
  144.7707  140.4435  143.5909 H   0  0  0  0  0  0  0  0  0  0  0  0  # atno 7974 bound_to 7965
  155.1016  140.0396  157.2698 H   0  0  0  0  0  0  0  0  0  0  0  0  # atno 8008 bound_to 7997
  154.6754  140.2621  155.6938 H   0  0  0  0  0  0  0  0  0  0  0  0  # atno 8009 bound_to 7997
  156.2674  140.2789  156.1278 H   0  0  0  0  0  0  0  0  0  0  0  0  # atno 8010 bound_to 7997
  140.4513  143.2482  151.8484 H   0  0  0  0  0  0  0  0  0  0  0  0  # atno 10167 bound_to 10162
  156.7747  130.5311  149.5761 H   0  0  0  0  0  0  0  0  0  0  0  0  # atno 10718 bound_to 10713
  152.9830  135.5681  154.5208 H   0  0  0  0  0  0  0  0  0  0  0  0  # atno 10763 bound_to 10752
  154.4696  135.2784  155.1654 H   0  0  0  0  0  0  0  0  0  0  0  0  # atno 10764 bound_to 10752
  154.3208  135.6269  153.5560 H   0  0  0  0  0  0  0  0  0  0  0  0  # atno 10765 bound_to 10752
  140.2258  134.8161  157.3267 H   0  0  0  0  0  0  0  0  0  0  0  0  # atno 11005 bound_to 11000
  145.6334  139.1539  143.2956 LP  0  0  0  0  0  0  0  0  0  0  0  0  # atno 17320 bound_to 7965
  146.1851  140.6436  142.9171 LP  0  0  0  0  0  0  0  0  0  0  0  0  # atno 17321 bound_to 7965
  139.4797  144.5116  151.8924 LP  0  0  0  0  0  0  0  0  0  0  0  0  # atno 17342 bound_to 10162
  140.4203  144.2252  150.5887 LP  0  0  0  0  0  0  0  0  0  0  0  0  # atno 17343 bound_to 10162
  156.1256  130.6141  151.0258 LP  0  0  0  0  0  0  0  0  0  0  0  0  # atno 17370 bound_to 10713
  157.6674  131.0868  150.7694 LP  0  0  0  0  0  0  0  0  0  0  0  0  # atno 17371 bound_to 10713
  140.1801  134.4500  155.7777 LP  0  0  0  0  0  0  0  0  0  0  0  0  # atno 17394 bound_to 11000
  141.2220  133.6980  156.7855 LP  0  0  0  0  0  0  0  0  0  0  0  0  # atno 17395 bound_to 11000

$$$$
