AV-unprocessed.smi:223|AV-procd|sdf|1704|dock7
  -GOLD-   2262020163D 1   1.00000     0.00000
 Structure written by MMmdl.
 47 50  0  0  0  0  0  0  0  0  1 V2000
  150.7702  143.9642  158.7739 C   0  0  0  0  0  0  0  0  0  0  0  0
  151.3075  142.6401  158.2190 C   0  0  1  0  0  0  0  0  0  0  0  0
  152.2560  142.0330  159.1673 C   0  0  0  0  0  0  0  0  0  0  0  0
  153.0029  141.5565  159.9116 N   0  0  0  0  0  0  0  0  0  0  0  0
  150.1525  141.6864  157.8467 C   0  0  0  0  0  0  0  0  0  0  0  0
  150.5829  140.4746  157.1488 N   0  0  0  0  0  0  0  0  0  0  0  0
  150.5911  139.3207  157.8698 C   0  0  0  0  0  0  0  0  0  0  0  0
  151.7819  138.7752  158.2372 N   0  0  0  0  0  0  0  0  0  0  0  0
  151.8221  137.6294  158.9217 C   0  0  0  0  0  0  0  0  0  0  0  0
  150.8070  136.8726  159.3396 N   0  0  0  0  0  0  0  0  0  0  0  0
  149.6073  137.4168  158.9885 C   0  0  0  0  0  0  0  0  0  0  0  0
  149.4094  138.6230  158.2566 C   0  0  0  0  0  0  0  0  0  0  0  0
  148.0479  138.8495  158.0895 N   0  0  0  0  0  0  0  0  0  0  0  0
  147.4769  137.8349  158.6780 C   0  0  0  0  0  0  0  0  0  0  0  0
  148.3385  136.9315  159.2568 N   0  0  0  0  0  0  0  0  0  0  0  0
  147.9776  135.7166  159.9730 C   0  0  0  0  0  0  0  0  0  0  0  0
  147.2217  135.9614  161.3045 C   0  0  1  0  0  0  0  0  0  0  0  0
  147.6280  137.2010  161.8541 O   0  0  0  0  0  0  0  0  0  0  0  0
  145.6968  135.9500  161.1721 C   0  0  0  0  0  0  0  0  0  0  0  0
  145.3205  134.5520  161.6415 C   0  0  0  0  0  0  0  0  0  0  0  0
  146.2162  134.3440  162.7181 O   0  0  0  0  0  0  0  0  0  0  0  0
  147.4913  134.8339  162.3221 C   0  0  0  0  0  0  0  0  0  0  0  0
  150.3094  140.3883  155.7160 C   0  0  0  0  0  0  0  0  0  0  0  0
  149.4859  141.4731  155.0580 C   0  0  0  0  0  0  0  0  0  0  0  0
  148.8971  140.0976  155.2655 C   0  0  0  0  0  0  0  0  0  0  0  0
  151.5858  144.6493  159.0068 H   0  0  0  0  0  0  0  0  0  0  0  0
  150.1971  143.8057  159.6878 H   0  0  0  0  0  0  0  0  0  0  0  0
  150.1202  144.4580  158.0511 H   0  0  0  0  0  0  0  0  0  0  0  0
  151.8849  142.8725  157.3242 H   0  0  0  0  0  0  0  0  0  0  0  0
  149.6284  141.3929  158.7569 H   0  0  0  0  0  0  0  0  0  0  0  0
  149.4096  142.2078  157.2452 H   0  0  0  0  0  0  0  0  0  0  0  0
  152.8090  137.2666  159.1683 H   0  0  0  0  0  0  0  0  0  0  0  0
  146.4031  137.7208  158.7107 H   0  0  0  0  0  0  0  0  0  0  0  0
  147.3724  135.0995  159.3075 H   0  0  0  0  0  0  0  0  0  0  0  0
  148.8920  135.1523  160.1612 H   0  0  0  0  0  0  0  0  0  0  0  0
  147.3791  137.2209  162.7654 H   0  0  0  0  0  0  0  0  0  0  0  0
  145.2444  136.6768  161.8490 H   0  0  0  0  0  0  0  0  0  0  0  0
  145.3268  136.1673  160.1717 H   0  0  0  0  0  0  0  0  0  0  0  0
  144.2806  134.4783  161.9604 H   0  0  0  0  0  0  0  0  0  0  0  0
  145.4991  133.8118  160.8600 H   0  0  0  0  0  0  0  0  0  0  0  0
  148.0466  134.0135  161.8649 H   0  0  0  0  0  0  0  0  0  0  0  0
  148.0589  135.1634  163.1935 H   0  0  0  0  0  0  0  0  0  0  0  0
  151.1023  139.9620  155.1054 H   0  0  0  0  0  0  0  0  0  0  0  0
  149.1115  142.2795  155.6858 H   0  0  0  0  0  0  0  0  0  0  0  0
  149.7550  141.7588  154.0434 H   0  0  0  0  0  0  0  0  0  0  0  0
  148.7707  139.4666  154.3881 H   0  0  0  0  0  0  0  0  0  0  0  0
  148.1302  139.9917  156.0303 H   0  0  0  0  0  0  0  0  0  0  0  0
  1  2  1  0  0  0  0
  1 26  1  0  0  0  0
  1 27  1  0  0  0  0
  1 28  1  0  0  0  0
  2  3  1  0  0  0  0
  2  5  1  0  0  0  0
  2 29  1  0  0  0  0
  3  4  3  0  0  0  0
  5  6  1  0  0  0  0
  5 30  1  0  0  0  0
  5 31  1  0  0  0  0
  6  7  1  0  0  0  0
  6 23  1  0  0  0  0
  7 12  1  0  0  0  0
  7  8  2  0  0  0  0
  8  9  1  0  0  0  0
  9 10  2  0  0  0  0
  9 32  1  0  0  0  0
 10 11  1  0  0  0  0
 11 15  1  0  0  0  0
 11 12  2  0  0  0  0
 12 13  1  0  0  0  0
 13 14  2  0  0  0  0
 14 15  1  0  0  0  0
 14 33  1  0  0  0  0
 15 16  1  0  0  0  0
 16 17  1  0  0  0  0
 16 34  1  0  0  0  0
 16 35  1  0  0  0  0
 17 22  1  0  0  0  0
 17 18  1  0  0  0  0
 17 19  1  0  0  0  0
 18 36  1  0  0  0  0
 19 20  1  0  0  0  0
 19 37  1  0  0  0  0
 19 38  1  0  0  0  0
 20 21  1  0  0  0  0
 20 39  1  0  0  0  0
 20 40  1  0  0  0  0
 21 22  1  0  0  0  0
 22 41  1  0  0  0  0
 22 42  1  0  0  0  0
 23 25  1  0  0  0  0
 23 24  1  0  0  0  0
 23 43  1  0  0  0  0
 24 25  1  0  0  0  0
 24 44  1  0  0  0  0
 24 45  1  0  0  0  0
 25 46  1  0  0  0  0
 25 47  1  0  0  0  0
M  END
> <s_m_source_file>
AV-unprocessed.smi

> <i_m_source_file_index>
223

> <i_lp_mmshare_version>
43012

> <i_f3d_flags>
0

> <s_epik_input>
TiNDW0NAQEhdKFtDSDNdKVtDSDJdTihbQ0hdMVtDSDJdW0NIMl0xKWMobltjSF1uMiljKGMyMyluW2NIXW4zW0NIMl1bQ0BAXTQoW09IXSlbQ0gyXVtDSDJdT1tDSDJdNA==

> <s_epik_cmdline>
J2VwaWtfcHl0aG9uJywgJy1waCcsICc3LjAnLCAnLXRuJywgJzgnLCAnLW1hJywgJzIwMCcsICctbWV0YWxfYmluZGluZycsICctaW1hZScsICc8aW5maWxlLm1hZT4nLCAnLW9tYWUnLCAnPG91dGZpbGUubWFlPic=

> <r_lp_tautomer_probability>
1

> <r_epik_Ionization_Penalty>
0.000756152

> <r_epik_Ionization_Penalty_Charging>
0

> <r_epik_Ionization_Penalty_Neutral>
0.000756152

> <r_epik_State_Penalty>
0.00038036

> <r_epik_Charging_Adjusted_Penalty>
0.00038036

> <i_epik_Tot_Q>
0

> <i_epik_Tot_abs_Q>
0

> <r_epik_Metal_State_Penalty>
-0

> <b_epik_Metal_Only>
0

> <s_lp_Force_Field>
OPLS_2005

> <r_lp_Energy>
37.1098

> <b_lp_Chiralities_Consistent>
1

> <s_lp_Variant>
AV-unprocessed.smi:223-2

> <Gold.Version>
5.8.1

> <Gold.Id.Protein>
6NUR|6NUR_protein|mol2

> <Gold.PLP.Fitness>
43.9519

> <Gold.PLP.PLP>
-39.8492

> <Gold.PLP.part.hbond>
-3.5888

> <Gold.PLP.part.metal>
0.0000

> <Gold.PLP.part.buried>
-7.5782

> <Gold.PLP.part.nonpolar>
-29.1088

> <Gold.PLP.part.repulsive>
0.0037

> <Gold.PLP.ligand.clash>
0.0000

> <Gold.PLP.ligand.torsion>
2.5577

> <Gold.PLP.Chemscore.Hbond>
2.6308

> <Gold.PLP.Chemscore.CHOScore>
0.0000

> <Gold.PLP.Chemscore.Metal>
0.0000

> <Gold.Chemscore.Hbonds>
donor molecule, donor type, donor heavy atom, donor atom, acceptor molecule, acceptor atom, score
      P1  H  6896  6907       L1    10  1.00
      P1  H  6931  6943       L1    18  0.94
      P1  H  6934  6947       L1    18  0.60

> <Gold.PLP.Chemscore.Internal.Correction>
1.3256

> <Gold.Rescore>
     Score         DG    S(hbond)    S(metal)    S(lipo)     H(rot)  DE(clash)    DE(int)     intcor
     11.73     -14.05       2.14        0.00      71.65       2.72       0.07       2.26       ----

> <Gold.Chemscore.Fitness>
11.7296

> <Gold.Chemscore.DG>
-14.0525

> <Gold.Chemscore.ZeroCoef>
-5.4800

> <Gold.Chemscore.Hbond>
2.1393

> <Gold.Chemscore.Metal>
0.0000

> <Gold.Chemscore.Lipo>
71.6513

> <Gold.Chemscore.Internal_Hbond>
0.0000

> <Gold.Chemscore.DEClash>
0.0650

> <Gold.Chemscore.DEInternal>
2.2579

> <Gold.Chemscore.Rot>
2.7171

> <Gold.Chemscore.Internal.Correction>
   9.000000E+99

> <Gold.Chemscore.Hbonds>
donor molecule, donor type, donor heavy atom, donor atom, acceptor molecule, acceptor atom, score
      P1  H  6896  6907       L1    10  0.95
      P1  H  6931  6943       L1    18  0.20
      P1  H  6934  6947       L1    18  0.43

> <Gold.Chemscore.Hbond.Weighted>
-7.1451

> <Gold.Chemscore.Metal.Weighted>
-0.0000

> <Gold.Chemscore.Lipo.Weighted>
-8.3832

> <Gold.Chemscore.Internal_Hbond.Weighted>
0.0000

> <Gold.Chemscore.DEClash.Weighted>
0.0650

> <Gold.Chemscore.DEInternal.Weighted>
2.2579

> <Gold.Chemscore.Rot.Weighted>
6.9558

> <Gold.Chemscore.Internal.Correction.Weighted>
   9.000000E+99

> <Gold.Protein.RotatedTorsions>
[ 6907 6896 6895 6894 ] final  -38.78 input  -60.11 | X-H torsion
[ 7974 7965 7964 7962 ] final  150.55 input  175.53 | X-H torsion
[ 8008 7997 7996 7995 ] final  -60.14 input   59.86 | X-H torsion
[ 10167 10162 10161 10158 ] final   62.32 input  -65.29 | X-H torsion
[ 10718 10713 10712 10709 ] final  -43.65 input   66.30 | X-H torsion
[ 10763 10752 10751 10750 ] final   73.42 input  -60.55 | X-H torsion
[ 11005 11000 10999 10996 ] final  -65.97 input  -57.11 | X-H torsion

> <Gold.Protein.ActiveResidues>
 VAL166  LYS551  ARG553  GLY616  TRP617  ASP618  TYR619  PRO620  LYS621  CYS622 
 ASP623  PHE694  ASN695  SER759  ASP760  ASP761  ALA762  ILE779  LEU786  VAL792 
 PHE793  MET794  SER795  GLU796  ALA797  LYS798  CYS799  TRP800  GLU811  SER814 

> <Gold.Protein.RotatedAtoms>
  150.9983  134.9301  159.7939 H   0  0  0  0  0  0  0  0  0  0  0  0  # atno 6907 bound_to 6896
  152.5271  134.3188  159.9151 H   0  0  0  0  0  0  0  0  0  0  0  0  # atno 6908 bound_to 6896
  151.3194  133.4005  159.2687 H   0  0  0  0  0  0  0  0  0  0  0  0  # atno 6909 bound_to 6896
  144.8356  139.6423  143.6039 H   0  0  0  0  0  0  0  0  0  0  0  0  # atno 7974 bound_to 7965
  154.4385  140.1046  156.6226 H   0  0  0  0  0  0  0  0  0  0  0  0  # atno 8008 bound_to 7997
  155.5691  140.3489  155.4492 H   0  0  0  0  0  0  0  0  0  0  0  0  # atno 8009 bound_to 7997
  156.0403  140.1280  157.0152 H   0  0  0  0  0  0  0  0  0  0  0  0  # atno 8010 bound_to 7997
  140.1452  144.4515  150.6789 H   0  0  0  0  0  0  0  0  0  0  0  0  # atno 10167 bound_to 10162
  156.2468  130.4184  149.8696 H   0  0  0  0  0  0  0  0  0  0  0  0  # atno 10718 bound_to 10713
  153.0521  135.5063  154.7892 H   0  0  0  0  0  0  0  0  0  0  0  0  # atno 10763 bound_to 10752
  154.6746  135.2958  154.9698 H   0  0  0  0  0  0  0  0  0  0  0  0  # atno 10764 bound_to 10752
  154.0505  135.6704  153.4852 H   0  0  0  0  0  0  0  0  0  0  0  0  # atno 10765 bound_to 10752
  141.1469  133.6691  156.6068 H   0  0  0  0  0  0  0  0  0  0  0  0  # atno 11005 bound_to 11000
  146.2655  139.6509  142.9332 LP  0  0  0  0  0  0  0  0  0  0  0  0  # atno 17320 bound_to 7965
  145.4803  141.0438  143.2650 LP  0  0  0  0  0  0  0  0  0  0  0  0  # atno 17321 bound_to 7965
  140.6736  143.2296  151.5563 LP  0  0  0  0  0  0  0  0  0  0  0  0  # atno 17342 bound_to 10162
  139.5452  144.2539  152.1429 LP  0  0  0  0  0  0  0  0  0  0  0  0  # atno 17343 bound_to 10162
  156.6259  130.8645  151.3485 LP  0  0  0  0  0  0  0  0  0  0  0  0  # atno 17370 bound_to 10713
  157.7198  130.9544  150.1394 LP  0  0  0  0  0  0  0  0  0  0  0  0  # atno 17371 bound_to 10713
  140.3646  134.7658  157.4557 LP  0  0  0  0  0  0  0  0  0  0  0  0  # atno 17394 bound_to 11000
  140.0758  134.5799  155.8592 LP  0  0  0  0  0  0  0  0  0  0  0  0  # atno 17395 bound_to 11000

$$$$
