AV-unprocessed.smi:809|AV-procd|sdf|3805|dock6
  -GOLD-   22720 1243D 1   1.00000     0.00000
 Structure written by MMmdl.
 40 41  0  0  0  0  0  0  0  0  2 V2000
  151.1369  141.3435  155.5591 C   0  0  0  0  0  0  0  0  0  0  0  0
  149.9061  141.0116  154.7754 C   0  0  0  0  0  0  0  0  0  0  0  0
  148.9717  141.8942  154.2910 C   0  0  0  0  0  0  0  0  0  0  0  0
  147.6934  141.0840  153.4256 S   0  0  0  0  0  0  0  0  0  0  0  0
  148.4891  139.5545  153.7617 C   0  0  0  0  0  0  0  0  0  0  0  0
  147.9616  138.3184  153.3053 N   0  0  0  0  0  0  0  0  0  0  0  0
  146.6890  137.8885  153.3572 C   0  0  0  0  0  0  0  0  0  0  0  0
  145.7366  138.5343  153.7949 O   0  0  0  0  0  0  0  0  0  0  0  0
  146.5784  136.6457  152.8671 N   0  0  0  0  0  0  0  0  0  0  0  0
  145.3408  135.8718  152.8053 C   0  0  0  0  0  0  0  0  0  0  0  0
  145.2846  134.8821  151.6117 C   0  0  1  0  0  0  0  0  0  0  0  0
  146.6106  134.4495  151.3648 O   0  0  0  0  0  0  0  0  0  0  0  0
  144.4636  133.6340  152.0061 C   0  0  0  0  0  0  0  0  0  0  0  0
  144.2736  132.6489  150.8383 C   0  0  0  0  0  0  0  0  0  0  0  0
  143.6648  133.3242  149.6674 N   0  3  2  0  0  0  0  0  0  0  0  0
  143.3453  132.3790  148.5760 C   0  0  0  0  0  0  0  0  0  0  0  0
  144.4874  134.4671  149.2027 C   0  0  0  0  0  0  0  0  0  0  0  0
  144.6896  135.5024  150.3247 C   0  0  0  0  0  0  0  0  0  0  0  0
  149.6201  139.6788  154.4658 N   0  0  0  0  0  0  0  0  0  0  0  0
  151.1414  142.3880  155.8715 H   0  0  0  0  0  0  0  0  0  0  0  0
  152.0363  141.1717  154.9675 H   0  0  0  0  0  0  0  0  0  0  0  0
  151.2098  140.7312  156.4583 H   0  0  0  0  0  0  0  0  0  0  0  0
  148.9587  142.9696  154.3891 H   0  0  0  0  0  0  0  0  0  0  0  0
  148.6350  137.6831  152.9030 H   0  0  0  0  0  0  0  0  0  0  0  0
  147.4131  136.1960  152.5209 H   0  0  0  0  0  0  0  0  0  0  0  0
  145.1485  135.3622  153.7515 H   0  0  0  0  0  0  0  0  0  0  0  0
  144.5416  136.6060  152.7001 H   0  0  0  0  0  0  0  0  0  0  0  0
  147.1951  135.1880  151.4363 H   0  0  0  0  0  0  0  0  0  0  0  0
  144.9318  133.1222  152.8484 H   0  0  0  0  0  0  0  0  0  0  0  0
  143.4781  133.9458  152.3551 H   0  0  0  0  0  0  0  0  0  0  0  0
  145.2289  132.2057  150.5520 H   0  0  0  0  0  0  0  0  0  0  0  0
  143.6310  131.8284  151.1598 H   0  0  0  0  0  0  0  0  0  0  0  0
  144.2506  131.9173  148.1794 H   0  0  0  0  0  0  0  0  0  0  0  0
  142.8358  132.8910  147.7591 H   0  0  0  0  0  0  0  0  0  0  0  0
  142.6860  131.5873  148.9331 H   0  0  0  0  0  0  0  0  0  0  0  0
  145.4516  134.1028  148.8442 H   0  0  0  0  0  0  0  0  0  0  0  0
  143.9983  134.9466  148.3540 H   0  0  0  0  0  0  0  0  0  0  0  0
  143.7275  135.9602  150.5593 H   0  0  0  0  0  0  0  0  0  0  0  0
  145.3268  136.3061  149.9536 H   0  0  0  0  0  0  0  0  0  0  0  0
  142.7844  133.7087  149.9797 H   0  0  0  0  0  0  0  0  0  0  0  0
  1  2  1  0  0  0  0
  1 20  1  0  0  0  0
  1 21  1  0  0  0  0
  1 22  1  0  0  0  0
  2 19  1  0  0  0  0
  2  3  2  0  0  0  0
  3  4  1  0  0  0  0
  3 23  1  0  0  0  0
  4  5  1  0  0  0  0
  5  6  1  0  0  0  0
  5 19  2  0  0  0  0
  6  7  1  0  0  0  0
  6 24  1  0  0  0  0
  7  8  2  0  0  0  0
  7  9  1  0  0  0  0
  9 10  1  0  0  0  0
  9 25  1  0  0  0  0
 10 11  1  0  0  0  0
 10 26  1  0  0  0  0
 10 27  1  0  0  0  0
 11 18  1  0  0  0  0
 11 12  1  0  0  0  0
 11 13  1  0  0  0  0
 12 28  1  0  0  0  0
 13 14  1  0  0  0  0
 13 29  1  0  0  0  0
 13 30  1  0  0  0  0
 14 15  1  0  0  0  0
 14 31  1  0  0  0  0
 14 32  1  0  0  0  0
 15 16  1  0  0  0  0
 15 17  1  0  0  0  0
 15 40  1  0  0  0  0
 16 33  1  0  0  0  0
 16 34  1  0  0  0  0
 16 35  1  0  0  0  0
 17 18  1  0  0  0  0
 17 36  1  0  0  0  0
 17 37  1  0  0  0  0
 18 38  1  0  0  0  0
 18 39  1  0  0  0  0
M  CHG  1  15   1
M  END
> <s_m_source_file>
AV-unprocessed.smi

> <i_m_source_file_index>
809

> <i_lp_mmshare_version>
43012

> <i_f3d_flags>
0

> <s_epik_input>
W0NIM11jMVtjSF1zYyhuMSlbTkhdQyg9TylbTkhdW0NIMl1DMihbT0hdKVtDSDJdW0NIMl1OKFtDSDNdKVtDSDJdW0NIMl0y

> <s_epik_cmdline>
J2VwaWtfcHl0aG9uJywgJy1waCcsICc3LjAnLCAnLXRuJywgJzgnLCAnLW1hJywgJzIwMCcsICctbWV0YWxfYmluZGluZycsICctaW1hZScsICc8aW5maWxlLm1hZT4nLCAnLW9tYWUnLCAnPG91dGZpbGUubWFlPic=

> <r_lp_tautomer_probability>
0.999

> <r_epik_Ionization_Penalty>
0.00116503

> <r_epik_Ionization_Penalty_Charging>
0.000767707

> <r_epik_Ionization_Penalty_Neutral>
0.00039732

> <r_epik_State_Penalty>
0.000177984

> <r_epik_Charging_Adjusted_Penalty>
0.00094569

> <i_epik_Tot_Q>
1

> <i_epik_Tot_abs_Q>
1

> <r_epik_Metal_State_Penalty>
0.00775393

> <b_epik_Metal_Only>
0

> <s_lp_Force_Field>
OPLS_2005

> <r_lp_Energy>
16.8218

> <b_lp_Chiralities_Consistent>
1

> <s_lp_Variant>
AV-unprocessed.smi:809-1

> <Gold.Version>
5.8.1

> <Gold.Id.Protein>
6NUR|6NUR_protein|mol2

> <Gold.PLP.Fitness>
44.1078

> <Gold.PLP.PLP>
-28.5742

> <Gold.PLP.part.hbond>
-4.0000

> <Gold.PLP.part.metal>
0.0000

> <Gold.PLP.part.buried>
4.2912

> <Gold.PLP.part.nonpolar>
-29.2220

> <Gold.PLP.part.repulsive>
0.3449

> <Gold.PLP.ligand.clash>
0.0000

> <Gold.PLP.ligand.torsion>
1.1154

> <Gold.PLP.Chemscore.Hbond>
4.9200

> <Gold.PLP.Chemscore.CHOScore>
1.0000

> <Gold.PLP.Chemscore.Metal>
0.0000

> <Gold.Chemscore.Hbonds>
donor molecule, donor type, donor heavy atom, donor atom, acceptor molecule, acceptor atom, score
      L1  H     6    24       P1  7948  0.98
      L1  H     9    25       P1  7948  1.00
      L1  H    12    28       P1  7948  0.98
      L1  H    15    40       P1 10186  1.98
      L1  C     3    23       P1  8028  1.00

> <Gold.PLP.Chemscore.Internal.Correction>
0.0045

> <Gold.Rescore>
     Score         DG    S(hbond)    S(metal)    S(lipo)     H(rot)  DE(clash)    DE(int)     intcor
     19.60     -22.87       3.78        0.00      81.06       1.85       2.18       1.08       ----

> <Gold.Chemscore.Fitness>
19.6042

> <Gold.Chemscore.DG>
-22.8675

> <Gold.Chemscore.ZeroCoef>
-5.4800

> <Gold.Chemscore.Hbond>
3.7821

> <Gold.Chemscore.Metal>
0.0000

> <Gold.Chemscore.Lipo>
81.0587

> <Gold.Chemscore.Internal_Hbond>
0.0000

> <Gold.Chemscore.DEClash>
2.1796

> <Gold.Chemscore.DEInternal>
1.0836

> <Gold.Chemscore.Rot>
1.8471

> <Gold.Chemscore.Internal.Correction>
   9.000000E+99

> <Gold.Chemscore.Hbonds>
donor molecule, donor type, donor heavy atom, donor atom, acceptor molecule, acceptor atom, score
      L1  H     6    24       P1  7948  0.93
      L1  H     9    25       P1  7948  0.97
      L1  H    12    28       P1  7948  0.78
      L1  H    15    40       P1 10186  0.92

> <Gold.Chemscore.Hbond.Weighted>
-12.6322

> <Gold.Chemscore.Metal.Weighted>
-0.0000

> <Gold.Chemscore.Lipo.Weighted>
-9.4839

> <Gold.Chemscore.Internal_Hbond.Weighted>
0.0000

> <Gold.Chemscore.DEClash.Weighted>
2.1796

> <Gold.Chemscore.DEInternal.Weighted>
1.0836

> <Gold.Chemscore.Rot.Weighted>
4.7286

> <Gold.Chemscore.Internal.Correction.Weighted>
   9.000000E+99

> <Gold.Protein.RotatedTorsions>
[ 6907 6896 6895 6894 ] final -138.12 input  -60.11 | X-H torsion
[ 7974 7965 7964 7962 ] final -172.91 input  175.53 | X-H torsion
[ 8008 7997 7996 7995 ] final  179.23 input   59.86 | X-H torsion
[ 10167 10162 10161 10158 ] final  103.59 input  -65.29 | X-H torsion
[ 10718 10713 10712 10709 ] final  -77.79 input   66.30 | X-H torsion
[ 10763 10752 10751 10750 ] final  124.22 input  -60.55 | X-H torsion
[ 11005 11000 10999 10996 ] final  -67.24 input  -57.11 | X-H torsion

> <Gold.Protein.ActiveResidues>
 VAL166  LYS551  ARG553  GLY616  TRP617  ASP618  TYR619  PRO620  LYS621  CYS622 
 ASP623  PHE694  ASN695  SER759  ASP760  ASP761  ALA762  ILE779  LEU786  VAL792 
 PHE793  MET794  SER795  GLU796  ALA797  LYS798  CYS799  TRP800  GLU811  SER814 

> <Gold.Protein.RotatedAtoms>
  151.0310  133.5790  159.2660 H   0  0  0  0  0  0  0  0  0  0  0  0  # atno 6907 bound_to 6896
  151.2872  135.0730  159.9201 H   0  0  0  0  0  0  0  0  0  0  0  0  # atno 6908 bound_to 6896
  152.5344  134.0015  159.7951 H   0  0  0  0  0  0  0  0  0  0  0  0  # atno 6909 bound_to 6896
  144.7142  140.1701  143.6368 H   0  0  0  0  0  0  0  0  0  0  0  0  # atno 7974 bound_to 7965
  156.0458  140.1314  157.0106 H   0  0  0  0  0  0  0  0  0  0  0  0  # atno 8008 bound_to 7997
  154.4411  140.1021  156.6374 H   0  0  0  0  0  0  0  0  0  0  0  0  # atno 8009 bound_to 7997
  155.5599  140.3464  155.4491 H   0  0  0  0  0  0  0  0  0  0  0  0  # atno 8010 bound_to 7997
  139.7249  144.7049  151.0813 H   0  0  0  0  0  0  0  0  0  0  0  0  # atno 10167 bound_to 10162
  156.0135  130.4500  150.3398 H   0  0  0  0  0  0  0  0  0  0  0  0  # atno 10718 bound_to 10713
  153.6580  135.3351  155.3119 H   0  0  0  0  0  0  0  0  0  0  0  0  # atno 10763 bound_to 10752
  154.8522  135.4357  154.1835 H   0  0  0  0  0  0  0  0  0  0  0  0  # atno 10764 bound_to 10752
  153.2794  135.7007  153.7476 H   0  0  0  0  0  0  0  0  0  0  0  0  # atno 10765 bound_to 10752
  141.1503  133.6715  156.6262 H   0  0  0  0  0  0  0  0  0  0  0  0  # atno 11005 bound_to 11000
  145.8951  139.2398  143.1526 LP  0  0  0  0  0  0  0  0  0  0  0  0  # atno 17320 bound_to 7965
  145.9865  140.8638  143.0088 LP  0  0  0  0  0  0  0  0  0  0  0  0  # atno 17321 bound_to 7965
  140.7761  143.5117  150.9644 LP  0  0  0  0  0  0  0  0  0  0  0  0  # atno 17342 bound_to 10162
  139.8805  143.7078  152.3157 LP  0  0  0  0  0  0  0  0  0  0  0  0  # atno 17343 bound_to 10162
  157.1494  131.0317  151.2892 LP  0  0  0  0  0  0  0  0  0  0  0  0  # atno 17370 bound_to 10713
  157.4405  130.7541  149.7065 LP  0  0  0  0  0  0  0  0  0  0  0  0  # atno 17371 bound_to 10713
  140.3502  134.7775  157.4461 LP  0  0  0  0  0  0  0  0  0  0  0  0  # atno 17394 bound_to 11000
  140.0867  134.5657  155.8485 LP  0  0  0  0  0  0  0  0  0  0  0  0  # atno 17395 bound_to 11000

$$$$
