AV-unprocessed.smi:2133|AV-procd|sdf|8692|dock8
  -GOLD-   2272011453D 1   1.00000     0.00000
 Structure written by MMmdl.
 45 47  0  0  0  0  0  0  0  0  1 V2000
  143.9946  145.2336  153.4552 C   0  0  0  0  0  0  0  0  0  0  0  0
  144.3695  144.3982  154.6118 N   0  0  0  0  0  0  0  0  0  0  0  0
  145.2858  143.3976  154.4190 C   0  0  0  0  0  0  0  0  0  0  0  0
  145.8346  143.1437  153.3464 O   0  0  0  0  0  0  0  0  0  0  0  0
  145.5803  142.6214  155.6280 C   0  0  0  0  0  0  0  0  0  0  0  0
  145.0062  142.8820  156.8276 C   0  0  0  0  0  0  0  0  0  0  0  0
  145.4593  142.0075  157.8084 N   0  0  0  0  0  0  0  0  0  0  0  0
  146.3079  141.2398  157.1244 C   0  0  0  0  0  0  0  0  0  0  0  0
  146.4395  141.5387  155.8159 N   0  0  0  0  0  0  0  0  0  0  0  0
  147.2998  140.8476  154.8674 C   0  0  0  0  0  0  0  0  0  0  0  0
  148.6780  141.5220  154.7193 C   0  0  2  0  0  0  0  0  0  0  0  0
  149.1235  141.4360  153.3802 O   0  0  0  0  0  0  0  0  0  0  0  0
  149.7392  140.8874  155.6296 C   0  0  0  0  0  0  0  0  0  0  0  0
  150.5455  141.9160  156.1798 O   0  0  0  0  0  0  0  0  0  0  0  0
  151.1194  141.5637  157.4280 C   0  0  0  0  0  0  0  0  0  0  0  0
  151.4132  142.7811  158.2851 C   0  0  0  0  0  0  0  0  0  0  0  0
  151.9232  142.6304  159.5928 C   0  0  0  0  0  0  0  0  0  0  0  0
  152.1787  143.7641  160.3890 C   0  0  0  0  0  0  0  0  0  0  0  0
  151.9191  145.0529  159.8844 C   0  0  0  0  0  0  0  0  0  0  0  0
  151.4015  145.2077  158.5840 C   0  0  0  0  0  0  0  0  0  0  0  0
  151.1463  144.0742  157.7874 C   0  0  0  0  0  0  0  0  0  0  0  0
  144.0760  143.9464  156.9205 N   0  0  0  0  0  0  0  0  0  0  0  0
  143.4778  144.1986  158.2349 C   0  0  0  0  0  0  0  0  0  0  0  0
  143.7559  144.6992  155.8164 C   0  0  0  0  0  0  0  0  0  0  0  0
  142.9403  145.6216  155.8983 O   0  0  0  0  0  0  0  0  0  0  0  0
  144.4940  144.9762  152.5207 H   0  0  0  0  0  0  0  0  0  0  0  0
  144.2278  146.2813  153.6514 H   0  0  0  0  0  0  0  0  0  0  0  0
  142.9229  145.1589  153.2634 H   0  0  0  0  0  0  0  0  0  0  0  0
  146.8550  140.4335  157.5907 H   0  0  0  0  0  0  0  0  0  0  0  0
  147.4276  139.8243  155.2227 H   0  0  0  0  0  0  0  0  0  0  0  0
  146.7982  140.7643  153.9047 H   0  0  0  0  0  0  0  0  0  0  0  0
  148.5916  142.5811  154.9657 H   0  0  0  0  0  0  0  0  0  0  0  0
  149.0510  140.5374  153.0971 H   0  0  0  0  0  0  0  0  0  0  0  0
  149.2657  140.3070  156.4233 H   0  0  0  0  0  0  0  0  0  0  0  0
  150.3667  140.2059  155.0526 H   0  0  0  0  0  0  0  0  0  0  0  0
  150.4427  140.8986  157.9673 H   0  0  0  0  0  0  0  0  0  0  0  0
  152.0522  141.0212  157.2682 H   0  0  0  0  0  0  0  0  0  0  0  0
  152.1208  141.6460  159.9912 H   0  0  0  0  0  0  0  0  0  0  0  0
  152.5723  143.6443  161.3877 H   0  0  0  0  0  0  0  0  0  0  0  0
  152.1138  145.9218  160.4957 H   0  0  0  0  0  0  0  0  0  0  0  0
  151.1986  146.1957  158.1979 H   0  0  0  0  0  0  0  0  0  0  0  0
  150.7461  144.2014  156.7921 H   0  0  0  0  0  0  0  0  0  0  0  0
  142.7669  145.0251  158.2566 H   0  0  0  0  0  0  0  0  0  0  0  0
  144.2597  144.4252  158.9604 H   0  0  0  0  0  0  0  0  0  0  0  0
  142.9500  143.3087  158.5798 H   0  0  0  0  0  0  0  0  0  0  0  0
  1  2  1  0  0  0  0
  1 26  1  0  0  0  0
  1 27  1  0  0  0  0
  1 28  1  0  0  0  0
  2 24  1  0  0  0  0
  2  3  1  0  0  0  0
  3  4  2  0  0  0  0
  3  5  1  0  0  0  0
  5  9  1  0  0  0  0
  5  6  2  0  0  0  0
  6  7  1  0  0  0  0
  6 22  1  0  0  0  0
  7  8  2  0  0  0  0
  8  9  1  0  0  0  0
  8 29  1  0  0  0  0
  9 10  1  0  0  0  0
 10 11  1  0  0  0  0
 10 30  1  0  0  0  0
 10 31  1  0  0  0  0
 11 12  1  0  0  0  0
 11 13  1  0  0  0  0
 11 32  1  0  0  0  0
 12 33  1  0  0  0  0
 13 14  1  0  0  0  0
 13 34  1  0  0  0  0
 13 35  1  0  0  0  0
 14 15  1  0  0  0  0
 15 16  1  0  0  0  0
 15 36  1  0  0  0  0
 15 37  1  0  0  0  0
 16 21  1  0  0  0  0
 16 17  2  0  0  0  0
 17 18  1  0  0  0  0
 17 38  1  0  0  0  0
 18 19  2  0  0  0  0
 18 39  1  0  0  0  0
 19 20  1  0  0  0  0
 19 40  1  0  0  0  0
 20 21  2  0  0  0  0
 20 41  1  0  0  0  0
 21 42  1  0  0  0  0
 22 23  1  0  0  0  0
 22 24  1  0  0  0  0
 23 43  1  0  0  0  0
 23 44  1  0  0  0  0
 23 45  1  0  0  0  0
 24 25  2  0  0  0  0
M  END
> <s_m_source_file>
AV-unprocessed.smi

> <i_m_source_file_index>
2133

> <i_lp_mmshare_version>
43012

> <i_f3d_flags>
0

> <s_epik_input>
Tz1jMW4oW0NIM10pYyg9TyluKFtDSDNdKWMoYzEyKW5bY0hdbjJbQ0gyXVtDQEhdKFtPSF0pW0NIMl1PW0NIMl1jM1tjSF1bY0hdW2NIXVtjSF1bY0hdMw==

> <s_epik_cmdline>
J2VwaWtfcHl0aG9uJywgJy1waCcsICc3LjAnLCAnLXRuJywgJzgnLCAnLW1hJywgJzIwMCcsICctbWV0YWxfYmluZGluZycsICctaW1hZScsICc8aW5maWxlLm1hZT4nLCAnLW9tYWUnLCAnPG91dGZpbGUubWFlPic=

> <r_lp_tautomer_probability>
1

> <r_epik_Ionization_Penalty>
1.52174e-06

> <r_epik_Ionization_Penalty_Charging>
3.83535e-09

> <r_epik_Ionization_Penalty_Neutral>
1.5179e-06

> <r_epik_State_Penalty>
-0

> <r_epik_Charging_Adjusted_Penalty>
3.83535e-09

> <i_epik_Tot_Q>
0

> <i_epik_Tot_abs_Q>
0

> <r_epik_Metal_State_Penalty>
-0

> <b_epik_Metal_Only>
0

> <s_lp_Force_Field>
OPLS_2005

> <r_lp_Energy>
38.2919

> <b_lp_Chiralities_Consistent>
1

> <s_lp_Variant>
AV-unprocessed.smi:2133-1

> <Gold.Version>
5.8.1

> <Gold.Id.Protein>
6NUR|6NUR_protein|mol2

> <Gold.PLP.Fitness>
48.2108

> <Gold.PLP.PLP>
-47.4636

> <Gold.PLP.part.hbond>
-2.8600

> <Gold.PLP.part.metal>
0.0000

> <Gold.PLP.part.buried>
-7.3186

> <Gold.PLP.part.nonpolar>
-38.3320

> <Gold.PLP.part.repulsive>
0.3277

> <Gold.PLP.ligand.clash>
0.0000

> <Gold.PLP.ligand.torsion>
1.7060

> <Gold.PLP.Chemscore.Hbond>
1.3600

> <Gold.PLP.Chemscore.CHOScore>
0.0000

> <Gold.PLP.Chemscore.Metal>
0.0000

> <Gold.Chemscore.Hbonds>
donor molecule, donor type, donor heavy atom, donor atom, acceptor molecule, acceptor atom, score
      L1  H    12    33       P1  7957  0.33
      P1  H  8011  8017       L1    12  0.93

> <Gold.PLP.Chemscore.Internal.Correction>
0.0791

> <Gold.Rescore>
     Score         DG    S(hbond)    S(metal)    S(lipo)     H(rot)  DE(clash)    DE(int)     intcor
     12.59     -14.46       1.09        0.00     109.31       2.91       0.06       1.81       ----

> <Gold.Chemscore.Fitness>
12.5897

> <Gold.Chemscore.DG>
-14.4627

> <Gold.Chemscore.ZeroCoef>
-5.4800

> <Gold.Chemscore.Hbond>
1.0931

> <Gold.Chemscore.Metal>
0.0000

> <Gold.Chemscore.Lipo>
109.3132

> <Gold.Chemscore.Internal_Hbond>
0.0000

> <Gold.Chemscore.DEClash>
0.0583

> <Gold.Chemscore.DEInternal>
1.8148

> <Gold.Chemscore.Rot>
2.9132

> <Gold.Chemscore.Internal.Correction>
   9.000000E+99

> <Gold.Chemscore.Hbonds>
donor molecule, donor type, donor heavy atom, donor atom, acceptor molecule, acceptor atom, score
      L1  H    12    33       P1  7957  0.33
      P1  H  8011  8017       L1    12  0.79

> <Gold.Chemscore.Hbond.Weighted>
-3.6508

> <Gold.Chemscore.Metal.Weighted>
-0.0000

> <Gold.Chemscore.Lipo.Weighted>
-12.7896

> <Gold.Chemscore.Internal_Hbond.Weighted>
0.0000

> <Gold.Chemscore.DEClash.Weighted>
0.0583

> <Gold.Chemscore.DEInternal.Weighted>
1.8148

> <Gold.Chemscore.Rot.Weighted>
7.4578

> <Gold.Chemscore.Internal.Correction.Weighted>
   9.000000E+99

> <Gold.Protein.RotatedTorsions>
[ 6907 6896 6895 6894 ] final  127.00 input  -60.11 | X-H torsion
[ 7974 7965 7964 7962 ] final -150.84 input  175.53 | X-H torsion
[ 8008 7997 7996 7995 ] final    4.88 input   59.86 | X-H torsion
[ 10167 10162 10161 10158 ] final  -52.38 input  -65.29 | X-H torsion
[ 10718 10713 10712 10709 ] final  143.33 input   66.30 | X-H torsion
[ 10763 10752 10751 10750 ] final   42.68 input  -60.55 | X-H torsion
[ 11005 11000 10999 10996 ] final  138.44 input  -57.11 | X-H torsion

> <Gold.Protein.ActiveResidues>
 VAL166  LYS551  ARG553  GLY616  TRP617  ASP618  TYR619  PRO620  LYS621  CYS622 
 ASP623  PHE694  ASN695  SER759  ASP760  ASP761  ALA762  ILE779  LEU786  VAL792 
 PHE793  MET794  SER795  GLU796  ALA797  LYS798  CYS799  TRP800  GLU811  SER814 

> <Gold.Protein.RotatedAtoms>
  152.3852  133.6601  159.6192 H   0  0  0  0  0  0  0  0  0  0  0  0  # atno 6907 bound_to 6896
  150.7773  133.9047  159.3360 H   0  0  0  0  0  0  0  0  0  0  0  0  # atno 6908 bound_to 6896
  151.6845  135.0958  160.0273 H   0  0  0  0  0  0  0  0  0  0  0  0  # atno 6909 bound_to 6896
  144.7884  140.4878  143.5790 H   0  0  0  0  0  0  0  0  0  0  0  0  # atno 7974 bound_to 7965
  154.7214  140.2712  155.6538 H   0  0  0  0  0  0  0  0  0  0  0  0  # atno 8008 bound_to 7997
  156.2824  140.2733  156.1811 H   0  0  0  0  0  0  0  0  0  0  0  0  # atno 8009 bound_to 7997
  155.0502  140.0371  157.2531 H   0  0  0  0  0  0  0  0  0  0  0  0  # atno 8010 bound_to 7997
  140.6540  143.2586  151.4639 H   0  0  0  0  0  0  0  0  0  0  0  0  # atno 10167 bound_to 10162
  157.3702  131.0978  151.0835 H   0  0  0  0  0  0  0  0  0  0  0  0  # atno 10718 bound_to 10713
  152.9877  135.6124  154.2989 H   0  0  0  0  0  0  0  0  0  0  0  0  # atno 10763 bound_to 10752
  154.2711  135.2779  155.2740 H   0  0  0  0  0  0  0  0  0  0  0  0  # atno 10764 bound_to 10752
  154.5122  135.5838  153.6670 H   0  0  0  0  0  0  0  0  0  0  0  0  # atno 10765 bound_to 10752
  140.0184  134.9408  157.0424 H   0  0  0  0  0  0  0  0  0  0  0  0  # atno 11005 bound_to 11000
  145.5859  139.1492  143.3209 LP  0  0  0  0  0  0  0  0  0  0  0  0  # atno 17320 bound_to 7965
  146.2126  140.5987  142.9053 LP  0  0  0  0  0  0  0  0  0  0  0  0  # atno 17321 bound_to 7965
  139.5760  144.1819  152.1903 LP  0  0  0  0  0  0  0  0  0  0  0  0  # atno 17342 bound_to 10162
  140.1129  144.5441  150.6913 LP  0  0  0  0  0  0  0  0  0  0  0  0  # atno 17343 bound_to 10162
  157.1942  130.6365  149.5715 LP  0  0  0  0  0  0  0  0  0  0  0  0  # atno 17370 bound_to 10713
  155.9754  130.4712  150.6457 LP  0  0  0  0  0  0  0  0  0  0  0  0  # atno 17371 bound_to 10713
  140.4430  134.1661  155.7175 LP  0  0  0  0  0  0  0  0  0  0  0  0  # atno 17394 bound_to 11000
  141.1758  133.8517  157.1426 LP  0  0  0  0  0  0  0  0  0  0  0  0  # atno 17395 bound_to 11000

$$$$
