AV-unprocessed.smi:3044|AV-procd|sdf|11605|dock5
  -GOLD-   2272016583D 1   1.00000     0.00000
 Structure written by MMmdl.
 41 42  0  0  0  0  0  0  0  0  1 V2000
  153.1210  142.6223  162.6931 C   0  0  0  0  0  0  0  0  0  0  0  0
  152.8233  142.9350  161.2363 C   0  0  0  0  0  0  0  0  0  0  0  0
  152.4564  144.2104  160.9793 N   0  0  0  0  0  0  0  0  0  0  0  0
  152.1817  144.5505  159.7027 C   0  0  0  0  0  0  0  0  0  0  0  0
  152.2664  143.6456  158.6280 C   0  0  0  0  0  0  0  0  0  0  0  0
  152.6479  142.3178  158.8970 C   0  0  0  0  0  0  0  0  0  0  0  0
  152.9235  141.9394  160.2333 C   0  0  0  0  0  0  0  0  0  0  0  0
  153.3341  140.6303  160.6060 N   0  0  0  0  0  0  0  0  0  0  0  0
  153.8441  139.6506  159.8362 C   0  0  0  0  0  0  0  0  0  0  0  0
  154.0786  139.7565  158.6333 O   0  0  0  0  0  0  0  0  0  0  0  0
  154.1364  138.3235  160.5399 C   0  0  0  0  0  0  0  0  0  0  0  0
  155.1752  138.5143  161.4924 O   0  0  0  0  0  0  0  0  0  0  0  0
  155.7142  137.3208  162.0449 C   0  0  2  0  0  0  0  0  0  0  0  0
  154.6018  136.2957  162.3465 C   0  0  0  0  0  0  0  0  0  0  0  0
  153.6417  136.8044  163.4340 C   0  0  0  0  0  0  0  0  0  0  0  0
  154.4005  137.1868  164.7146 C   0  0  0  0  0  0  0  0  0  0  0  0
  155.5042  138.2232  164.4306 C   0  0  1  0  0  0  0  0  0  0  0  0
  156.2667  138.5974  165.7094 C   0  0  0  0  0  0  0  0  0  0  0  0
  156.4605  137.7074  163.3350 C   0  0  0  0  0  0  0  0  0  0  0  0
  152.4631  141.8313  163.0544 H   0  0  0  0  0  0  0  0  0  0  0  0
  152.9760  143.4965  163.3292 H   0  0  0  0  0  0  0  0  0  0  0  0
  154.1532  142.2902  162.8072 H   0  0  0  0  0  0  0  0  0  0  0  0
  151.8926  145.5767  159.5315 H   0  0  0  0  0  0  0  0  0  0  0  0
  152.0488  143.9646  157.6195 H   0  0  0  0  0  0  0  0  0  0  0  0
  152.7359  141.6229  158.0764 H   0  0  0  0  0  0  0  0  0  0  0  0
  153.1269  140.3671  161.5588 H   0  0  0  0  0  0  0  0  0  0  0  0
  153.2250  137.9666  161.0200 H   0  0  0  0  0  0  0  0  0  0  0  0
  154.4350  137.5853  159.7943 H   0  0  0  0  0  0  0  0  0  0  0  0
  156.4354  136.8901  161.3480 H   0  0  0  0  0  0  0  0  0  0  0  0
  154.0446  136.0453  161.4443 H   0  0  0  0  0  0  0  0  0  0  0  0
  155.0587  135.3640  162.6826 H   0  0  0  0  0  0  0  0  0  0  0  0
  153.0911  137.6695  163.0620 H   0  0  0  0  0  0  0  0  0  0  0  0
  152.8982  136.0393  163.6585 H   0  0  0  0  0  0  0  0  0  0  0  0
  153.6987  137.5809  165.4504 H   0  0  0  0  0  0  0  0  0  0  0  0
  154.8401  136.2915  165.1565 H   0  0  0  0  0  0  0  0  0  0  0  0
  155.0245  139.1315  164.0625 H   0  0  0  0  0  0  0  0  0  0  0  0
  156.7767  137.7325  166.1345 H   0  0  0  0  0  0  0  0  0  0  0  0
  155.5905  138.9921  166.4683 H   0  0  0  0  0  0  0  0  0  0  0  0
  157.0179  139.3616  165.5086 H   0  0  0  0  0  0  0  0  0  0  0  0
  157.0040  136.8381  163.7075 H   0  0  0  0  0  0  0  0  0  0  0  0
  157.2131  138.4638  163.1090 H   0  0  0  0  0  0  0  0  0  0  0  0
  1  2  1  0  0  0  0
  1 20  1  0  0  0  0
  1 21  1  0  0  0  0
  1 22  1  0  0  0  0
  2  7  1  0  0  0  0
  2  3  2  0  0  0  0
  3  4  1  0  0  0  0
  4  5  2  0  0  0  0
  4 23  1  0  0  0  0
  5  6  1  0  0  0  0
  5 24  1  0  0  0  0
  6  7  2  0  0  0  0
  6 25  1  0  0  0  0
  7  8  1  0  0  0  0
  8  9  1  0  0  0  0
  8 26  1  0  0  0  0
  9 10  2  0  0  0  0
  9 11  1  0  0  0  0
 11 12  1  0  0  0  0
 11 27  1  0  0  0  0
 11 28  1  0  0  0  0
 12 13  1  0  0  0  0
 13 19  1  0  0  0  0
 13 14  1  0  0  0  0
 13 29  1  0  0  0  0
 14 15  1  0  0  0  0
 14 30  1  0  0  0  0
 14 31  1  0  0  0  0
 15 16  1  0  0  0  0
 15 32  1  0  0  0  0
 15 33  1  0  0  0  0
 16 17  1  0  0  0  0
 16 34  1  0  0  0  0
 16 35  1  0  0  0  0
 17 18  1  0  0  0  0
 17 19  1  0  0  0  0
 17 36  1  0  0  0  0
 18 37  1  0  0  0  0
 18 38  1  0  0  0  0
 18 39  1  0  0  0  0
 19 40  1  0  0  0  0
 19 41  1  0  0  0  0
M  END
> <s_m_source_file>
AV-unprocessed.smi

> <i_m_source_file_index>
3044

> <i_lp_mmshare_version>
43012

> <i_f3d_flags>
0

> <s_epik_input>
W0NIM11jMW5bY0hdW2NIXVtjSF1jMVtOSF1DKD1PKVtDSDJdT1tDQEBIXTJbQ0gyXVtDSDJdW0NIMl1bQ0BASF0oW0NIM10pW0NIMl0y

> <s_epik_cmdline>
J2VwaWtfcHl0aG9uJywgJy1waCcsICc3LjAnLCAnLXRuJywgJzgnLCAnLW1hJywgJzIwMCcsICctbWV0YWxfYmluZGluZycsICctaW1hZScsICc8aW5maWxlLm1hZT4nLCAnLW9tYWUnLCAnPG91dGZpbGUubWFlPic=

> <r_epik_Ionization_Penalty>
0.0077122

> <r_epik_Ionization_Penalty_Charging>
0

> <r_epik_Ionization_Penalty_Neutral>
0.0077122

> <r_epik_State_Penalty>
0.00577497

> <r_epik_Charging_Adjusted_Penalty>
0.00577497

> <i_epik_Tot_Q>
0

> <i_epik_Tot_abs_Q>
0

> <r_epik_Metal_State_Penalty>
-0

> <b_epik_Metal_Only>
0

> <s_lp_Force_Field>
OPLS_2005

> <r_lp_Energy>
17.2241

> <b_lp_Chiralities_Consistent>
1

> <s_lp_Variant>
AV-unprocessed.smi:3044-1

> <Gold.Version>
5.8.1

> <Gold.Id.Protein>
6NUR|6NUR_protein|mol2

> <Gold.PLP.Fitness>
43.9552

> <Gold.PLP.PLP>
-41.5485

> <Gold.PLP.part.hbond>
-1.0000

> <Gold.PLP.part.metal>
0.0000

> <Gold.PLP.part.buried>
-2.4594

> <Gold.PLP.part.nonpolar>
-37.3506

> <Gold.PLP.part.repulsive>
0.1908

> <Gold.PLP.ligand.clash>
0.0000

> <Gold.PLP.ligand.torsion>
0.3031

> <Gold.PLP.Chemscore.Hbond>
1.0000

> <Gold.PLP.Chemscore.CHOScore>
0.0000

> <Gold.PLP.Chemscore.Metal>
0.0000

> <Gold.Chemscore.Hbonds>
donor molecule, donor type, donor heavy atom, donor atom, acceptor molecule, acceptor atom, score
      P1  H  7997  8010       L1    10  1.00

> <Gold.PLP.Chemscore.Internal.Correction>
0.0129

> <Gold.Rescore>
     Score         DG    S(hbond)    S(metal)    S(lipo)     H(rot)  DE(clash)    DE(int)     intcor
     17.93     -19.52       0.99        0.00     120.36       1.31       0.04       1.54       ----

> <Gold.Chemscore.Fitness>
17.9327

> <Gold.Chemscore.DG>
-19.5177

> <Gold.Chemscore.ZeroCoef>
-5.4800

> <Gold.Chemscore.Hbond>
0.9879

> <Gold.Chemscore.Metal>
0.0000

> <Gold.Chemscore.Lipo>
120.3629

> <Gold.Chemscore.Internal_Hbond>
0.0000

> <Gold.Chemscore.DEClash>
0.0409

> <Gold.Chemscore.DEInternal>
1.5441

> <Gold.Chemscore.Rot>
1.3064

> <Gold.Chemscore.Internal.Correction>
   9.000000E+99

> <Gold.Chemscore.Hbonds>
donor molecule, donor type, donor heavy atom, donor atom, acceptor molecule, acceptor atom, score
      P1  H  7997  8010       L1    10  0.99

> <Gold.Chemscore.Hbond.Weighted>
-3.2996

> <Gold.Chemscore.Metal.Weighted>
-0.0000

> <Gold.Chemscore.Lipo.Weighted>
-14.0825

> <Gold.Chemscore.Internal_Hbond.Weighted>
0.0000

> <Gold.Chemscore.DEClash.Weighted>
0.0409

> <Gold.Chemscore.DEInternal.Weighted>
1.5441

> <Gold.Chemscore.Rot.Weighted>
3.3443

> <Gold.Chemscore.Internal.Correction.Weighted>
   9.000000E+99

> <Gold.Protein.RotatedTorsions>
[ 6907 6896 6895 6894 ] final  -32.24 input  -60.11 | X-H torsion
[ 7974 7965 7964 7962 ] final    6.72 input  175.53 | X-H torsion
[ 8008 7997 7996 7995 ] final    9.67 input   59.86 | X-H torsion
[ 10167 10162 10161 10158 ] final  -63.70 input  -65.29 | X-H torsion
[ 10718 10713 10712 10709 ] final  107.04 input   66.30 | X-H torsion
[ 10763 10752 10751 10750 ] final  -49.19 input  -60.55 | X-H torsion
[ 11005 11000 10999 10996 ] final    6.08 input  -57.11 | X-H torsion

> <Gold.Protein.ActiveResidues>
 VAL166  LYS551  ARG553  GLY616  TRP617  ASP618  TYR619  PRO620  LYS621  CYS622 
 ASP623  PHE694  ASN695  SER759  ASP760  ASP761  ALA762  ILE779  LEU786  VAL792 
 PHE793  MET794  SER795  GLU796  ALA797  LYS798  CYS799  TRP800  GLU811  SER814 

> <Gold.Protein.RotatedAtoms>
  151.0814  134.9860  159.8357 H   0  0  0  0  0  0  0  0  0  0  0  0  # atno 6907 bound_to 6896
  152.5420  134.2177  159.8785 H   0  0  0  0  0  0  0  0  0  0  0  0  # atno 6908 bound_to 6896
  151.2208  133.4460  159.2634 H   0  0  0  0  0  0  0  0  0  0  0  0  # atno 6909 bound_to 6896
  146.2432  140.0190  142.8399 H   0  0  0  0  0  0  0  0  0  0  0  0  # atno 7974 bound_to 7965
  154.7831  140.2822  155.6048 H   0  0  0  0  0  0  0  0  0  0  0  0  # atno 8008 bound_to 7997
  156.2953  140.2619  156.2590 H   0  0  0  0  0  0  0  0  0  0  0  0  # atno 8009 bound_to 7997
  154.9760  140.0375  157.2246 H   0  0  0  0  0  0  0  0  0  0  0  0  # atno 8010 bound_to 7997
  140.5852  143.2333  151.6257 H   0  0  0  0  0  0  0  0  0  0  0  0  # atno 10167 bound_to 10162
  157.6644  131.0864  150.6096 H   0  0  0  0  0  0  0  0  0  0  0  0  # atno 10718 bound_to 10713
  154.0901  135.6578  153.4851 H   0  0  0  0  0  0  0  0  0  0  0  0  # atno 10763 bound_to 10752
  153.0325  135.5200  154.7389 H   0  0  0  0  0  0  0  0  0  0  0  0  # atno 10764 bound_to 10752
  154.6510  135.3001  154.9955 H   0  0  0  0  0  0  0  0  0  0  0  0  # atno 10765 bound_to 10752
  140.5635  134.0170  155.7981 H   0  0  0  0  0  0  0  0  0  0  0  0  # atno 11005 bound_to 11000
  145.1258  140.9489  143.4573 LP  0  0  0  0  0  0  0  0  0  0  0  0  # atno 17320 bound_to 7965
  145.0436  139.3239  143.5964 LP  0  0  0  0  0  0  0  0  0  0  0  0  # atno 17321 bound_to 7965
  139.5193  144.3256  152.0872 LP  0  0  0  0  0  0  0  0  0  0  0  0  # atno 17342 bound_to 10162
  140.2412  144.4267  150.6259 LP  0  0  0  0  0  0  0  0  0  0  0  0  # atno 17343 bound_to 10162
  156.6398  130.4455  149.5756 LP  0  0  0  0  0  0  0  0  0  0  0  0  # atno 17370 bound_to 10713
  156.2218  130.6742  151.1376 LP  0  0  0  0  0  0  0  0  0  0  0  0  # atno 17371 bound_to 10713
  141.1100  133.9632  157.2928 LP  0  0  0  0  0  0  0  0  0  0  0  0  # atno 17394 bound_to 11000
  139.9396  135.0192  156.8666 LP  0  0  0  0  0  0  0  0  0  0  0  0  # atno 17395 bound_to 11000

$$$$
