AV-unprocessed.smi:72|AV-procd|sdf|665|dock2
  -GOLD-   2262016563D 1   1.00000     0.00000
 Structure written by MMmdl.
 29 30  0  0  0  0  0  0  0  0  1 V2000
  152.7777  141.2926  158.7496 N   0  0  0  0  0  0  0  0  0  0  0  0
  151.9939  141.2809  157.7312 C   0  0  0  0  0  0  0  0  0  0  0  0
  150.8115  142.0254  157.6096 N   0  0  0  0  0  0  0  0  0  0  0  0
  150.1039  141.9005  156.5293 C   0  0  0  0  0  0  0  0  0  0  0  0
  150.4859  140.9994  155.4484 N   0  0  0  0  0  0  0  0  0  0  0  0
  149.6714  140.8486  154.1734 C   0  0  2  0  0  0  0  0  0  0  0  0
  148.7797  141.9190  154.0465 O   0  0  0  0  0  0  0  0  0  0  0  0
  147.4902  141.5307  154.5121 C   0  0  1  0  0  0  0  0  0  0  0  0
  146.4014  142.4980  154.0163 C   0  0  0  0  0  0  0  0  0  0  0  0
  145.1475  142.1237  154.5464 O   0  0  0  0  0  0  0  0  0  0  0  0
  147.3905  140.0924  153.9959 C   0  0  1  0  0  0  0  0  0  0  0  0
  147.0109  140.0805  152.6290 O   0  0  0  0  0  0  0  0  0  0  0  0
  148.8089  139.5671  154.2179 C   0  0  1  0  0  0  0  0  0  0  0  0
  149.1865  138.6010  153.2548 O   0  0  0  0  0  0  0  0  0  0  0  0
  151.7016  140.2769  155.5404 C   0  0  0  0  0  0  0  0  0  0  0  0
  152.1000  139.5393  154.6392 O   0  0  0  0  0  0  0  0  0  0  0  0
  152.3992  140.4435  156.6843 N   0  0  0  0  0  0  0  0  0  0  0  0
  150.4001  140.8791  153.3612 H   0  0  0  0  0  0  0  0  0  0  0  0
  147.4905  141.4988  155.6034 H   0  0  0  0  0  0  0  0  0  0  0  0
  146.6567  139.5119  154.5561 H   0  0  0  0  0  0  0  0  0  0  0  0
  148.8706  139.1223  155.2125 H   0  0  0  0  0  0  0  0  0  0  0  0
  152.4245  141.9149  159.4614 H   0  0  0  0  0  0  0  0  0  0  0  0
  149.1848  142.4651  156.3730 H   0  0  0  0  0  0  0  0  0  0  0  0
  146.6320  143.5298  154.2834 H   0  0  0  0  0  0  0  0  0  0  0  0
  146.3238  142.4510  152.9296 H   0  0  0  0  0  0  0  0  0  0  0  0
  144.8622  141.3342  154.1124 H   0  0  0  0  0  0  0  0  0  0  0  0
  147.7482  139.7774  152.1209 H   0  0  0  0  0  0  0  0  0  0  0  0
  149.4327  139.0528  152.4615 H   0  0  0  0  0  0  0  0  0  0  0  0
  153.2647  139.9327  156.7798 H   0  0  0  0  0  0  0  0  0  0  0  0
  1  2  2  0  0  0  0
  1 22  1  0  0  0  0
  2 17  1  0  0  0  0
  2  3  1  0  0  0  0
  3  4  2  0  0  0  0
  4  5  1  0  0  0  0
  4 23  1  0  0  0  0
  5  6  1  0  0  0  0
  5 15  1  0  0  0  0
  6 18  1  0  0  0  0
  6 13  1  0  0  0  0
  6  7  1  0  0  0  0
  7  8  1  0  0  0  0
  8 19  1  0  0  0  0
  8  9  1  0  0  0  0
  8 11  1  0  0  0  0
  9 10  1  0  0  0  0
  9 24  1  0  0  0  0
  9 25  1  0  0  0  0
 10 26  1  0  0  0  0
 11 20  1  0  0  0  0
 11 12  1  0  0  0  0
 11 13  1  0  0  0  0
 12 27  1  0  0  0  0
 13 21  1  0  0  0  0
 13 14  1  0  0  0  0
 14 28  1  0  0  0  0
 15 16  2  0  0  0  0
 15 17  1  0  0  0  0
 17 29  1  0  0  0  0
M  END
> <s_m_source_file>
AV-unprocessed.smi

> <i_m_source_file_index>
72

> <i_lp_mmshare_version>
43012

> <i_f3d_flags>
0

> <s_epik_input>
W05IMl1jMW5bY0hdbihjKD1PKW4xKVtDQEBIXTJPW0NASF0oW0NIMl1bT0hdKVtDQEBIXShbT0hdKVtDQEhdMltPSF0=

> <s_epik_cmdline>
J2VwaWtfcHl0aG9uJywgJy1waCcsICc3LjAnLCAnLXRuJywgJzgnLCAnLW1hJywgJzIwMCcsICctbWV0YWxfYmluZGluZycsICctaW1hZScsICc8aW5maWxlLm1hZT4nLCAnLW9tYWUnLCAnPG91dGZpbGUubWFlPic=

> <r_lp_tautomer_probability>
7.17554e-07

> <r_epik_Ionization_Penalty>
0.0066451

> <r_epik_Ionization_Penalty_Charging>
0.00663793

> <r_epik_Ionization_Penalty_Neutral>
7.17052e-06

> <r_epik_State_Penalty>
0.419231

> <r_epik_Charging_Adjusted_Penalty>
0.425868

> <i_epik_Tot_Q>
0

> <i_epik_Tot_abs_Q>
0

> <r_epik_Metal_State_Penalty>
1.44144

> <b_epik_Metal_Only>
0

> <s_epik_Chemistry_Notes>
This compound contains an acetal/aminal-like group ( X-CH(R)-Y where X, Y are N, S, or O) that may be acid/base labile, releasing an aldehyde.

> <s_lp_Force_Field>
OPLS_2005

> <r_lp_Energy>
42.7632

> <b_lp_Chiralities_Consistent>
1

> <s_lp_Variant>
AV-unprocessed.smi:72-3

> <Gold.Version>
5.8.1

> <Gold.Id.Protein>
6NUR|6NUR_protein|mol2

> <Gold.PLP.Fitness>
42.4784

> <Gold.PLP.PLP>
-29.7059

> <Gold.PLP.part.hbond>
-6.0000

> <Gold.PLP.part.metal>
0.0000

> <Gold.PLP.part.buried>
-2.7527

> <Gold.PLP.part.nonpolar>
-21.3610

> <Gold.PLP.part.repulsive>
0.4223

> <Gold.PLP.ligand.clash>
0.0000

> <Gold.PLP.ligand.torsion>
0.5474

> <Gold.PLP.Chemscore.Hbond>
3.6250

> <Gold.PLP.Chemscore.CHOScore>
0.9895

> <Gold.PLP.Chemscore.Metal>
0.0000

> <Gold.Chemscore.Hbonds>
donor molecule, donor type, donor heavy atom, donor atom, acceptor molecule, acceptor atom, score
      L1  H    10    26       P1 10175  0.58
      L1  H    12    27       P1  7957  0.86
      L1  H    14    28       P1  7957  1.00
      P1  H  7989  7998       L1    16  0.30
      P1  H  8011  8017       L1     7  0.17
      L1  C     4    23       P1  8028  1.00

> <Gold.PLP.Chemscore.Internal.Correction>
0.0237

> <Gold.Rescore>
     Score         DG    S(hbond)    S(metal)    S(lipo)     H(rot)  DE(clash)    DE(int)     intcor
      5.38      -5.99       2.44        0.00      23.46       4.06       0.49       0.12       ----

> <Gold.Chemscore.Fitness>
5.3846

> <Gold.Chemscore.DG>
-5.9950

> <Gold.Chemscore.ZeroCoef>
-5.4800

> <Gold.Chemscore.Hbond>
2.4444

> <Gold.Chemscore.Metal>
0.0000

> <Gold.Chemscore.Lipo>
23.4559

> <Gold.Chemscore.Internal_Hbond>
0.0000

> <Gold.Chemscore.DEClash>
0.4943

> <Gold.Chemscore.DEInternal>
0.1161

> <Gold.Chemscore.Rot>
4.0600

> <Gold.Chemscore.Internal.Correction>
   9.000000E+99

> <Gold.Chemscore.Hbonds>
donor molecule, donor type, donor heavy atom, donor atom, acceptor molecule, acceptor atom, score
      L1  H    10    26       P1 10175  0.31
      L1  H    12    27       P1  7957  0.82
      L1  H    14    28       P1  7957  0.94
      P1  H  7989  7998       L1    16  0.01

> <Gold.Chemscore.Hbond.Weighted>
-8.1642

> <Gold.Chemscore.Metal.Weighted>
-0.0000

> <Gold.Chemscore.Lipo.Weighted>
-2.7443

> <Gold.Chemscore.Internal_Hbond.Weighted>
0.0000

> <Gold.Chemscore.DEClash.Weighted>
0.4943

> <Gold.Chemscore.DEInternal.Weighted>
0.1161

> <Gold.Chemscore.Rot.Weighted>
10.3936

> <Gold.Chemscore.Internal.Correction.Weighted>
   9.000000E+99

> <Gold.Protein.RotatedTorsions>
[ 6907 6896 6895 6894 ] final    2.54 input  -60.11 | X-H torsion
[ 7974 7965 7964 7962 ] final  137.37 input  175.53 | X-H torsion
[ 8008 7997 7996 7995 ] final  140.35 input   59.86 | X-H torsion
[ 10167 10162 10161 10158 ] final -175.00 input  -65.29 | X-H torsion
[ 10718 10713 10712 10709 ] final -158.11 input   66.30 | X-H torsion
[ 10763 10752 10751 10750 ] final  165.15 input  -60.55 | X-H torsion
[ 11005 11000 10999 10996 ] final   26.80 input  -57.11 | X-H torsion

> <Gold.Protein.ActiveResidues>
 VAL166  LYS551  ARG553  GLY616  TRP617  ASP618  TYR619  PRO620  LYS621  CYS622 
 ASP623  PHE694  ASN695  SER759  ASP760  ASP761  ALA762  ILE779  LEU786  VAL792 
 PHE793  MET794  SER795  GLU796  ALA797  LYS798  CYS799  TRP800  GLU811  SER814 

> <Gold.Protein.RotatedAtoms>
  151.6105  135.1040  160.0079 H   0  0  0  0  0  0  0  0  0  0  0  0  # atno 6907 bound_to 6896
  152.4211  133.7113  159.6491 H   0  0  0  0  0  0  0  0  0  0  0  0  # atno 6908 bound_to 6896
  150.8098  133.8369  159.3209 H   0  0  0  0  0  0  0  0  0  0  0  0  # atno 6909 bound_to 6896
  144.9474  139.4858  143.5542 H   0  0  0  0  0  0  0  0  0  0  0  0  # atno 7974 bound_to 7965
  156.2980  140.2343  156.4387 H   0  0  0  0  0  0  0  0  0  0  0  0  # atno 8008 bound_to 7997
  154.8205  140.0438  157.1428 H   0  0  0  0  0  0  0  0  0  0  0  0  # atno 8009 bound_to 7997
  154.9320  140.3018  155.5166 H   0  0  0  0  0  0  0  0  0  0  0  0  # atno 8010 bound_to 7997
  139.5604  144.1884  152.1229 H   0  0  0  0  0  0  0  0  0  0  0  0  # atno 10167 bound_to 10162
  156.5496  130.8599  151.2775 H   0  0  0  0  0  0  0  0  0  0  0  0  # atno 10718 bound_to 10713
  154.3196  135.2756  155.2526 H   0  0  0  0  0  0  0  0  0  0  0  0  # atno 10763 bound_to 10752
  154.4885  135.5840  153.6445 H   0  0  0  0  0  0  0  0  0  0  0  0  # atno 10764 bound_to 10752
  152.9878  135.6129  154.3380 H   0  0  0  0  0  0  0  0  0  0  0  0  # atno 10765 bound_to 10752
  140.3331  134.2415  155.7699 H   0  0  0  0  0  0  0  0  0  0  0  0  # atno 11005 bound_to 11000
  146.3309  139.8536  142.8868 LP  0  0  0  0  0  0  0  0  0  0  0  0  # atno 17320 bound_to 7965
  145.2896  141.0163  143.3671 LP  0  0  0  0  0  0  0  0  0  0  0  0  # atno 17321 bound_to 7965
  140.1397  144.5214  150.6752 LP  0  0  0  0  0  0  0  0  0  0  0  0  # atno 17342 bound_to 10162
  140.6883  143.2362  151.5201 LP  0  0  0  0  0  0  0  0  0  0  0  0  # atno 17343 bound_to 10162
  157.7390  130.9823  150.2286 LP  0  0  0  0  0  0  0  0  0  0  0  0  # atno 17370 bound_to 10713
  156.2896  130.3744  149.7854 LP  0  0  0  0  0  0  0  0  0  0  0  0  # atno 17371 bound_to 10713
  141.2058  133.7850  157.0212 LP  0  0  0  0  0  0  0  0  0  0  0  0  # atno 17394 bound_to 11000
  140.0843  134.9629  157.1675 LP  0  0  0  0  0  0  0  0  0  0  0  0  # atno 17395 bound_to 11000

$$$$
