AV-unprocessed.smi:1275|AV-procd|sdf|5343|dock1
  -GOLD-   22720 4473D 1   1.00000     0.00000
 Structure written by MMmdl.
 42 43  0  0  0  0  0  0  0  0  1 V2000
  145.2954  135.3582  151.9541 C   0  0  0  0  0  0  0  0  0  0  0  0
  146.0143  136.5663  152.1304 O   0  0  0  0  0  0  0  0  0  0  0  0
  145.7397  137.1846  153.3762 C   0  0  0  0  0  0  0  0  0  0  0  0
  146.4337  138.5486  153.4215 C   0  0  0  0  0  0  0  0  0  0  0  0
  147.8098  138.3520  153.7322 O   0  0  0  0  0  0  0  0  0  0  0  0
  148.4645  139.3195  154.4667 C   0  0  0  0  0  0  0  0  0  0  0  0
  149.8333  139.1407  154.7481 C   0  0  0  0  0  0  0  0  0  0  0  0
  150.5063  140.1260  155.4949 C   0  0  0  0  0  0  0  0  0  0  0  0
  149.7972  141.2634  155.9305 C   0  0  0  0  0  0  0  0  0  0  0  0
  150.4975  142.2317  156.6995 N   0  0  0  0  0  0  0  0  0  0  0  0
  151.5636  142.0589  157.5058 C   0  0  0  0  0  0  0  0  0  0  0  0
  152.1091  140.9693  157.6819 O   0  0  0  0  0  0  0  0  0  0  0  0
  152.0012  143.1982  158.0993 N   0  0  0  0  0  0  0  0  0  0  0  0
  151.4569  144.5523  157.9197 C   0  0  0  0  0  0  0  0  0  0  0  0
  150.7491  144.9618  159.2235 C   0  0  0  0  0  0  0  0  0  0  0  0
  151.6708  144.9007  160.3097 O   0  0  0  0  0  0  0  0  0  0  0  0
  152.2479  143.6086  160.4934 C   0  0  2  0  0  0  0  0  0  0  0  0
  153.1988  143.6739  161.6935 C   0  0  0  0  0  0  0  0  0  0  0  0
  152.9725  143.1923  159.1972 C   0  0  0  0  0  0  0  0  0  0  0  0
  148.4202  141.3439  155.6097 C   0  0  0  0  0  0  0  0  0  0  0  0
  147.7691  140.4019  154.8947 N   0  0  0  0  0  0  0  0  0  0  0  0
  145.5437  134.9221  150.9866 H   0  0  0  0  0  0  0  0  0  0  0  0
  144.2191  135.5325  151.9778 H   0  0  0  0  0  0  0  0  0  0  0  0
  145.5497  134.6310  152.7260 H   0  0  0  0  0  0  0  0  0  0  0  0
  144.6635  137.3099  153.5042 H   0  0  0  0  0  0  0  0  0  0  0  0
  146.0991  136.5563  154.1927 H   0  0  0  0  0  0  0  0  0  0  0  0
  146.3309  139.0449  152.4549 H   0  0  0  0  0  0  0  0  0  0  0  0
  145.9593  139.1770  154.1770 H   0  0  0  0  0  0  0  0  0  0  0  0
  150.3571  138.2635  154.3979 H   0  0  0  0  0  0  0  0  0  0  0  0
  151.5554  140.0088  155.7246 H   0  0  0  0  0  0  0  0  0  0  0  0
  150.1003  143.1597  156.6924 H   0  0  0  0  0  0  0  0  0  0  0  0
  152.2747  145.2423  157.7068 H   0  0  0  0  0  0  0  0  0  0  0  0
  150.7652  144.6499  157.0833 H   0  0  0  0  0  0  0  0  0  0  0  0
  150.3673  145.9797  159.1426 H   0  0  0  0  0  0  0  0  0  0  0  0
  149.8940  144.3138  159.4221 H   0  0  0  0  0  0  0  0  0  0  0  0
  151.4536  142.8938  160.7162 H   0  0  0  0  0  0  0  0  0  0  0  0
  153.6583  142.7036  161.8830 H   0  0  0  0  0  0  0  0  0  0  0  0
  152.6657  143.9706  162.5968 H   0  0  0  0  0  0  0  0  0  0  0  0
  153.9980  144.3963  161.5257 H   0  0  0  0  0  0  0  0  0  0  0  0
  153.4514  142.2213  159.3314 H   0  0  0  0  0  0  0  0  0  0  0  0
  153.7781  143.8926  158.9703 H   0  0  0  0  0  0  0  0  0  0  0  0
  147.8017  142.1625  155.9427 H   0  0  0  0  0  0  0  0  0  0  0  0
  1  2  1  0  0  0  0
  1 22  1  0  0  0  0
  1 23  1  0  0  0  0
  1 24  1  0  0  0  0
  2  3  1  0  0  0  0
  3  4  1  0  0  0  0
  3 25  1  0  0  0  0
  3 26  1  0  0  0  0
  4  5  1  0  0  0  0
  4 27  1  0  0  0  0
  4 28  1  0  0  0  0
  5  6  1  0  0  0  0
  6 21  1  0  0  0  0
  6  7  2  0  0  0  0
  7  8  1  0  0  0  0
  7 29  1  0  0  0  0
  8  9  2  0  0  0  0
  8 30  1  0  0  0  0
  9 10  1  0  0  0  0
  9 20  1  0  0  0  0
 10 11  1  0  0  0  0
 10 31  1  0  0  0  0
 11 12  2  0  0  0  0
 11 13  1  0  0  0  0
 13 19  1  0  0  0  0
 13 14  1  0  0  0  0
 14 15  1  0  0  0  0
 14 32  1  0  0  0  0
 14 33  1  0  0  0  0
 15 16  1  0  0  0  0
 15 34  1  0  0  0  0
 15 35  1  0  0  0  0
 16 17  1  0  0  0  0
 17 18  1  0  0  0  0
 17 19  1  0  0  0  0
 17 36  1  0  0  0  0
 18 37  1  0  0  0  0
 18 38  1  0  0  0  0
 18 39  1  0  0  0  0
 19 40  1  0  0  0  0
 19 41  1  0  0  0  0
 20 21  2  0  0  0  0
 20 42  1  0  0  0  0
M  END
> <s_m_source_file>
AV-unprocessed.smi

> <i_m_source_file_index>
1275

> <i_lp_mmshare_version>
43012

> <i_f3d_flags>
0

> <s_epik_input>
W0NIM11PW0NIMl1bQ0gyXU9jMVtjSF1bY0hdYyhbY0hdbjEpW05IXUMoPU8pTjJbQ0gyXVtDSDJdT1tDQEBIXShbQ0gzXSlbQ0gyXTI=

> <s_epik_cmdline>
J2VwaWtfcHl0aG9uJywgJy1waCcsICc3LjAnLCAnLXRuJywgJzgnLCAnLW1hJywgJzIwMCcsICctbWV0YWxfYmluZGluZycsICctaW1hZScsICc8aW5maWxlLm1hZT4nLCAnLW9tYWUnLCAnPG91dGZpbGUubWFlPic=

> <r_lp_tautomer_probability>
1

> <r_epik_Ionization_Penalty>
5.69099e-05

> <r_epik_Ionization_Penalty_Charging>
0

> <r_epik_Ionization_Penalty_Neutral>
5.69099e-05

> <r_epik_State_Penalty>
-0

> <r_epik_Charging_Adjusted_Penalty>
0

> <i_epik_Tot_Q>
0

> <i_epik_Tot_abs_Q>
0

> <r_epik_Metal_State_Penalty>
-0

> <b_epik_Metal_Only>
0

> <s_lp_Force_Field>
OPLS_2005

> <r_lp_Energy>
33.547

> <b_lp_Chiralities_Consistent>
1

> <s_lp_Variant>
AV-unprocessed.smi:1275-2

> <Gold.Version>
5.8.1

> <Gold.Id.Protein>
6NUR|6NUR_protein|mol2

> <Gold.PLP.Fitness>
46.0725

> <Gold.PLP.PLP>
-41.6075

> <Gold.PLP.part.hbond>
-1.0000

> <Gold.PLP.part.metal>
0.0000

> <Gold.PLP.part.buried>
-5.5492

> <Gold.PLP.part.nonpolar>
-38.8515

> <Gold.PLP.part.repulsive>
4.4055

> <Gold.PLP.ligand.clash>
0.0000

> <Gold.PLP.ligand.torsion>
0.5237

> <Gold.PLP.Chemscore.Hbond>
0.8268

> <Gold.PLP.Chemscore.CHOScore>
0.9931

> <Gold.PLP.Chemscore.Metal>
0.0000

> <Gold.Chemscore.Hbonds>
donor molecule, donor type, donor heavy atom, donor atom, acceptor molecule, acceptor atom, score
      L1  H    10    31       P1  8028  0.50
      L1  C    20    42       P1  8028  0.29

> <Gold.PLP.Chemscore.Internal.Correction>
0.0528

> <Gold.Rescore>
     Score         DG    S(hbond)    S(metal)    S(lipo)     H(rot)  DE(clash)    DE(int)     intcor
     12.33     -16.60       0.92        0.00     104.20       1.62       2.42       1.85       ----

> <Gold.Chemscore.Fitness>
12.3299

> <Gold.Chemscore.DG>
-16.6047

> <Gold.Chemscore.ZeroCoef>
-5.4800

> <Gold.Chemscore.Hbond>
0.9207

> <Gold.Chemscore.Metal>
0.0000

> <Gold.Chemscore.Lipo>
104.1984

> <Gold.Chemscore.Internal_Hbond>
0.0000

> <Gold.Chemscore.DEClash>
2.4222

> <Gold.Chemscore.DEInternal>
1.8526

> <Gold.Chemscore.Rot>
1.6178

> <Gold.Chemscore.Internal.Correction>
   9.000000E+99

> <Gold.Chemscore.Hbonds>
donor molecule, donor type, donor heavy atom, donor atom, acceptor molecule, acceptor atom, score
      L1  H    10    31       P1  8028  0.49

> <Gold.Chemscore.Hbond.Weighted>
-3.0751

> <Gold.Chemscore.Metal.Weighted>
-0.0000

> <Gold.Chemscore.Lipo.Weighted>
-12.1912

> <Gold.Chemscore.Internal_Hbond.Weighted>
0.0000

> <Gold.Chemscore.DEClash.Weighted>
2.4222

> <Gold.Chemscore.DEInternal.Weighted>
1.8526

> <Gold.Chemscore.Rot.Weighted>
4.1416

> <Gold.Chemscore.Internal.Correction.Weighted>
   9.000000E+99

> <Gold.Protein.RotatedTorsions>
[ 6907 6896 6895 6894 ] final  -96.48 input  -60.11 | X-H torsion
[ 7974 7965 7964 7962 ] final  172.15 input  175.53 | X-H torsion
[ 8008 7997 7996 7995 ] final   24.80 input   59.86 | X-H torsion
[ 10167 10162 10161 10158 ] final  134.87 input  -65.29 | X-H torsion
[ 10718 10713 10712 10709 ] final  132.15 input   66.30 | X-H torsion
[ 10763 10752 10751 10750 ] final   62.39 input  -60.55 | X-H torsion
[ 11005 11000 10999 10996 ] final  119.57 input  -57.11 | X-H torsion

> <Gold.Protein.ActiveResidues>
 VAL166  LYS551  ARG553  GLY616  TRP617  ASP618  TYR619  PRO620  LYS621  CYS622 
 ASP623  PHE694  ASN695  SER759  ASP760  ASP761  ALA762  ILE779  LEU786  VAL792 
 PHE793  MET794  SER795  GLU796  ALA797  LYS798  CYS799  TRP800  GLU811  SER814 

> <Gold.Protein.RotatedAtoms>
  150.6990  134.1496  159.4135 H   0  0  0  0  0  0  0  0  0  0  0  0  # atno 6907 bound_to 6896
  151.9479  135.0181  160.0549 H   0  0  0  0  0  0  0  0  0  0  0  0  # atno 6908 bound_to 6896
  152.2037  133.4824  159.5109 H   0  0  0  0  0  0  0  0  0  0  0  0  # atno 6909 bound_to 6896
  144.7275  139.9456  143.6430 H   0  0  0  0  0  0  0  0  0  0  0  0  # atno 7974 bound_to 7965
  155.0019  140.3126  155.4864 H   0  0  0  0  0  0  0  0  0  0  0  0  # atno 8008 bound_to 7997
  156.2923  140.2230  156.5070 H   0  0  0  0  0  0  0  0  0  0  0  0  # atno 8009 bound_to 7997
  154.7611  140.0459  157.0962 H   0  0  0  0  0  0  0  0  0  0  0  0  # atno 8010 bound_to 7997
  139.5239  144.6545  151.5202 H   0  0  0  0  0  0  0  0  0  0  0  0  # atno 10167 bound_to 10162
  157.4899  131.1090  150.9570 H   0  0  0  0  0  0  0  0  0  0  0  0  # atno 10718 bound_to 10713
  152.9981  135.5466  154.6186 H   0  0  0  0  0  0  0  0  0  0  0  0  # atno 10763 bound_to 10752
  154.5490  135.2825  155.1028 H   0  0  0  0  0  0  0  0  0  0  0  0  # atno 10764 bound_to 10752
  154.2275  135.6439  153.5217 H   0  0  0  0  0  0  0  0  0  0  0  0  # atno 10765 bound_to 10752
  139.9151  134.9629  156.7675 H   0  0  0  0  0  0  0  0  0  0  0  0  # atno 11005 bound_to 11000
  146.0751  139.3739  143.0499 LP  0  0  0  0  0  0  0  0  0  0  0  0  # atno 17320 bound_to 7965
  145.7916  140.9811  143.1046 LP  0  0  0  0  0  0  0  0  0  0  0  0  # atno 17321 bound_to 7965
  140.6365  143.8973  150.6652 LP  0  0  0  0  0  0  0  0  0  0  0  0  # atno 17342 bound_to 10162
  140.2294  143.3747  152.1578 LP  0  0  0  0  0  0  0  0  0  0  0  0  # atno 17343 bound_to 10162
  157.0275  130.5698  149.5339 LP  0  0  0  0  0  0  0  0  0  0  0  0  # atno 17370 bound_to 10713
  156.0167  130.5262  150.8157 LP  0  0  0  0  0  0  0  0  0  0  0  0  # atno 17371 bound_to 10713
  140.6647  133.9613  155.7824 LP  0  0  0  0  0  0  0  0  0  0  0  0  # atno 17394 bound_to 11000
  141.0619  134.0334  157.3647 LP  0  0  0  0  0  0  0  0  0  0  0  0  # atno 17395 bound_to 11000

$$$$
