AV-unprocessed.smi:2552|AV-procd|sdf|10015|dock1
  -GOLD-   2272014 63D 1   1.00000     0.00000
 Structure written by MMmdl.
 34 36  0  0  0  0  0  0  0  0  1 V2000
  146.7571  141.9212  155.0453 C   0  0  0  0  0  0  0  0  0  0  0  0
  147.8628  140.9667  155.0145 N   0  0  0  0  0  0  0  0  0  0  0  0
  147.9184  140.1696  153.8649 N   0  0  0  0  0  0  0  0  0  0  0  0
  148.8477  139.2794  153.7065 C   0  0  0  0  0  0  0  0  0  0  0  0
  149.8428  139.1244  154.7630 C   0  0  0  0  0  0  0  0  0  0  0  0
  150.9763  138.2905  154.9684 C   0  0  0  0  0  0  0  0  0  0  0  0
  151.5735  138.5382  156.1326 N   0  0  0  0  0  0  0  0  0  0  0  0
  150.8504  139.5297  156.7153 N   0  0  0  0  0  0  0  0  0  0  0  0
  151.2302  140.0281  158.0283 C   0  0  0  0  0  0  0  0  0  0  0  0
  152.4760  140.9355  157.9742 C   0  0  2  0  0  0  0  0  0  0  0  0
  153.5607  140.2301  158.5437 O   0  0  0  0  0  0  0  0  0  0  0  0
  152.2422  142.2823  158.6495 C   0  0  0  0  0  0  0  0  0  0  0  0
  151.6206  143.3358  157.9426 C   0  0  0  0  0  0  0  0  0  0  0  0
  151.4212  144.5865  158.5580 C   0  0  0  0  0  0  0  0  0  0  0  0
  151.8439  144.7939  159.8844 C   0  0  0  0  0  0  0  0  0  0  0  0
  152.4686  143.7506  160.5936 C   0  0  0  0  0  0  0  0  0  0  0  0
  152.6704  142.4990  159.9796 C   0  0  0  0  0  0  0  0  0  0  0  0
  153.2859  141.5111  160.6734 F   0  0  0  0  0  0  0  0  0  0  0  0
  149.8087  139.8860  155.8838 C   0  0  0  0  0  0  0  0  0  0  0  0
  148.7453  140.9029  156.0564 C   0  0  0  0  0  0  0  0  0  0  0  0
  148.6842  141.6150  157.0589 O   0  0  0  0  0  0  0  0  0  0  0  0
  147.1332  142.9432  155.1131 H   0  0  0  0  0  0  0  0  0  0  0  0
  146.1136  141.7358  155.9066 H   0  0  0  0  0  0  0  0  0  0  0  0
  146.1365  141.8568  154.1500 H   0  0  0  0  0  0  0  0  0  0  0  0
  148.8895  138.6600  152.8107 H   0  0  0  0  0  0  0  0  0  0  0  0
  151.3798  137.5238  154.3237 H   0  0  0  0  0  0  0  0  0  0  0  0
  150.3853  140.5656  158.4625 H   0  0  0  0  0  0  0  0  0  0  0  0
  151.4121  139.1699  158.6758 H   0  0  0  0  0  0  0  0  0  0  0  0
  152.7473  141.1069  156.9327 H   0  0  0  0  0  0  0  0  0  0  0  0
  153.2212  139.4704  158.9917 H   0  0  0  0  0  0  0  0  0  0  0  0
  151.2989  143.1895  156.9219 H   0  0  0  0  0  0  0  0  0  0  0  0
  150.9462  145.3875  158.0110 H   0  0  0  0  0  0  0  0  0  0  0  0
  151.6919  145.7533  160.3564 H   0  0  0  0  0  0  0  0  0  0  0  0
  152.7970  143.9112  161.6097 H   0  0  0  0  0  0  0  0  0  0  0  0
  1  2  1  0  0  0  0
  1 22  1  0  0  0  0
  1 23  1  0  0  0  0
  1 24  1  0  0  0  0
  2 20  1  0  0  0  0
  2  3  1  0  0  0  0
  3  4  2  0  0  0  0
  4  5  1  0  0  0  0
  4 25  1  0  0  0  0
  5 19  2  0  0  0  0
  5  6  1  0  0  0  0
  6  7  2  0  0  0  0
  6 26  1  0  0  0  0
  7  8  1  0  0  0  0
  8  9  1  0  0  0  0
  8 19  1  0  0  0  0
  9 10  1  0  0  0  0
  9 27  1  0  0  0  0
  9 28  1  0  0  0  0
 10 11  1  0  0  0  0
 10 12  1  0  0  0  0
 10 29  1  0  0  0  0
 11 30  1  0  0  0  0
 12 17  1  0  0  0  0
 12 13  2  0  0  0  0
 13 14  1  0  0  0  0
 13 31  1  0  0  0  0
 14 15  2  0  0  0  0
 14 32  1  0  0  0  0
 15 16  1  0  0  0  0
 15 33  1  0  0  0  0
 16 17  2  0  0  0  0
 16 34  1  0  0  0  0
 17 18  1  0  0  0  0
 19 20  1  0  0  0  0
 20 21  2  0  0  0  0
M  END
> <s_m_source_file>
AV-unprocessed.smi

> <i_m_source_file_index>
2552

> <i_lp_mmshare_version>
43012

> <i_f3d_flags>
0

> <s_epik_input>
W2NIXTFubihbQ0gzXSljKD1PKWMoYzEyKW4obltjSF0yKVtDSDJdW0NASF0oW09IXSljM1tjSF1bY0hdW2NIXVtjSF1jM0Y=

> <s_epik_cmdline>
J2VwaWtfcHl0aG9uJywgJy1waCcsICc3LjAnLCAnLXRuJywgJzgnLCAnLW1hJywgJzIwMCcsICctbWV0YWxfYmluZGluZycsICctaW1hZScsICc8aW5maWxlLm1hZT4nLCAnLW9tYWUnLCAnPG91dGZpbGUubWFlPic=

> <r_lp_tautomer_probability>
1

> <r_epik_Ionization_Penalty>
6.28011e-06

> <r_epik_Ionization_Penalty_Charging>
1.65421e-10

> <r_epik_Ionization_Penalty_Neutral>
6.27995e-06

> <r_epik_State_Penalty>
-0

> <r_epik_Charging_Adjusted_Penalty>
1.65421e-10

> <i_epik_Tot_Q>
0

> <i_epik_Tot_abs_Q>
0

> <r_epik_Metal_State_Penalty>
-0

> <b_epik_Metal_Only>
0

> <s_lp_Force_Field>
OPLS_2005

> <r_lp_Energy>
28.555

> <b_lp_Chiralities_Consistent>
1

> <s_lp_Variant>
AV-unprocessed.smi:2552-1

> <Gold.Version>
5.8.1

> <Gold.Id.Protein>
6NUR|6NUR_protein|mol2

> <Gold.PLP.Fitness>
43.5264

> <Gold.PLP.PLP>
-39.6936

> <Gold.PLP.part.hbond>
-1.0000

> <Gold.PLP.part.metal>
0.0000

> <Gold.PLP.part.buried>
-1.8245

> <Gold.PLP.part.nonpolar>
-37.2832

> <Gold.PLP.part.repulsive>
0.7801

> <Gold.PLP.ligand.clash>
0.0000

> <Gold.PLP.ligand.torsion>
1.5592

> <Gold.PLP.Chemscore.Hbond>
0.9760

> <Gold.PLP.Chemscore.CHOScore>
1.3335

> <Gold.PLP.Chemscore.Metal>
0.0000

> <Gold.Chemscore.Hbonds>
donor molecule, donor type, donor heavy atom, donor atom, acceptor molecule, acceptor atom, score
      P1  H  7997  8008       L1    11  0.93
      L1  C     4    25       P1  7948  0.89
      L1  C     4    25       P1  7957  0.53

> <Gold.PLP.Chemscore.Internal.Correction>
0.0227

> <Gold.Rescore>
     Score         DG    S(hbond)    S(metal)    S(lipo)     H(rot)  DE(clash)    DE(int)     intcor
     11.44     -14.81       0.73        0.00     102.97       2.02       0.12       3.24       ----

> <Gold.Chemscore.Fitness>
11.4433

> <Gold.Chemscore.DG>
-14.8089

> <Gold.Chemscore.ZeroCoef>
-5.4800

> <Gold.Chemscore.Hbond>
0.7330

> <Gold.Chemscore.Metal>
0.0000

> <Gold.Chemscore.Lipo>
102.9650

> <Gold.Chemscore.Internal_Hbond>
0.0000

> <Gold.Chemscore.DEClash>
0.1219

> <Gold.Chemscore.DEInternal>
3.2436

> <Gold.Chemscore.Rot>
2.0181

> <Gold.Chemscore.Internal.Correction>
   9.000000E+99

> <Gold.Chemscore.Hbonds>
donor molecule, donor type, donor heavy atom, donor atom, acceptor molecule, acceptor atom, score
      P1  H  7997  8008       L1    11  0.35

> <Gold.Chemscore.Hbond.Weighted>
-2.4483

> <Gold.Chemscore.Metal.Weighted>
-0.0000

> <Gold.Chemscore.Lipo.Weighted>
-12.0469

> <Gold.Chemscore.Internal_Hbond.Weighted>
0.0000

> <Gold.Chemscore.DEClash.Weighted>
0.1219

> <Gold.Chemscore.DEInternal.Weighted>
3.2436

> <Gold.Chemscore.Rot.Weighted>
5.1663

> <Gold.Chemscore.Internal.Correction.Weighted>
   9.000000E+99

> <Gold.Protein.RotatedTorsions>
[ 6907 6896 6895 6894 ] final  114.76 input  -60.11 | X-H torsion
[ 7974 7965 7964 7962 ] final -126.68 input  175.53 | X-H torsion
[ 8008 7997 7996 7995 ] final  -96.01 input   59.86 | X-H torsion
[ 10167 10162 10161 10158 ] final  158.28 input  -65.29 | X-H torsion
[ 10718 10713 10712 10709 ] final   60.96 input   66.30 | X-H torsion
[ 10763 10752 10751 10750 ] final  170.62 input  -60.55 | X-H torsion
[ 11005 11000 10999 10996 ] final  104.49 input  -57.11 | X-H torsion

> <Gold.Protein.ActiveResidues>
 VAL166  LYS551  ARG553  GLY616  TRP617  ASP618  TYR619  PRO620  LYS621  CYS622 
 ASP623  PHE694  ASN695  SER759  ASP760  ASP761  ALA762  ILE779  LEU786  VAL792 
 PHE793  MET794  SER795  GLU796  ALA797  LYS798  CYS799  TRP800  GLU811  SER814 

> <Gold.Protein.RotatedAtoms>
  152.4783  133.8191  159.7043 H   0  0  0  0  0  0  0  0  0  0  0  0  # atno 6907 bound_to 6896
  150.8814  133.7357  159.2937 H   0  0  0  0  0  0  0  0  0  0  0  0  # atno 6908 bound_to 6896
  151.4860  135.1058  159.9842 H   0  0  0  0  0  0  0  0  0  0  0  0  # atno 6909 bound_to 6896
  144.9848  140.7675  143.4590 H   0  0  0  0  0  0  0  0  0  0  0  0  # atno 7974 bound_to 7965
  154.7689  140.0475  157.1035 H   0  0  0  0  0  0  0  0  0  0  0  0  # atno 8008 bound_to 7997
  154.9845  140.3105  155.4913 H   0  0  0  0  0  0  0  0  0  0  0  0  # atno 8009 bound_to 7997
  156.2917  140.2230  156.4946 H   0  0  0  0  0  0  0  0  0  0  0  0  # atno 8010 bound_to 7997
  139.4826  144.4839  151.8405 H   0  0  0  0  0  0  0  0  0  0  0  0  # atno 10167 bound_to 10162
  157.5793  130.8968  149.9402 H   0  0  0  0  0  0  0  0  0  0  0  0  # atno 10718 bound_to 10713
  154.4002  135.2755  155.2101 H   0  0  0  0  0  0  0  0  0  0  0  0  # atno 10763 bound_to 10752
  154.4130  135.6018  153.5968 H   0  0  0  0  0  0  0  0  0  0  0  0  # atno 10764 bound_to 10752
  152.9831  135.5954  154.4268 H   0  0  0  0  0  0  0  0  0  0  0  0  # atno 10765 bound_to 10752
  139.8792  134.9302  156.5369 H   0  0  0  0  0  0  0  0  0  0  0  0  # atno 11005 bound_to 11000
  145.2369  139.2089  143.5013 LP  0  0  0  0  0  0  0  0  0  0  0  0  # atno 17320 bound_to 7965
  146.3417  140.2257  142.8592 LP  0  0  0  0  0  0  0  0  0  0  0  0  # atno 17321 bound_to 7965
  140.4317  144.2107  150.5888 LP  0  0  0  0  0  0  0  0  0  0  0  0  # atno 17342 bound_to 10162
  140.4773  143.2391  151.9005 LP  0  0  0  0  0  0  0  0  0  0  0  0  # atno 17343 bound_to 10162
  156.0838  130.3670  150.0528 LP  0  0  0  0  0  0  0  0  0  0  0  0  # atno 17370 bound_to 10713
  156.8670  130.9511  151.3613 LP  0  0  0  0  0  0  0  0  0  0  0  0  # atno 17371 bound_to 10713
  140.8339  133.8257  155.9010 LP  0  0  0  0  0  0  0  0  0  0  0  0  # atno 17394 bound_to 11000
  140.9302  134.2031  157.4869 LP  0  0  0  0  0  0  0  0  0  0  0  0  # atno 17395 bound_to 11000

$$$$
