AV-unprocessed.smi:43|AV-procd|sdf|393|dock5
  -GOLD-   2262016243D 1   1.00000     0.00000
 Structure written by MMmdl.
 25 26  0  0  0  0  0  0  0  0  2 V2000
  153.0107  139.1313  159.0930 C   0  0  0  0  0  0  0  0  0  0  0  0
  151.8416  138.2852  158.9392 N   0  0  0  0  0  0  0  0  0  0  0  0
  151.8026  137.0756  159.5523 N   0  0  0  0  0  0  0  0  0  0  0  0
  150.6411  136.5524  159.2861 N   0  0  0  0  0  0  0  0  0  0  0  0
  149.8818  137.3922  158.4961 N   0  0  0  0  0  0  0  0  0  0  0  0
  150.6691  138.4432  158.2995 C   0  0  0  0  0  0  0  0  0  0  0  0
  150.3392  139.5740  157.5424 N   0  0  0  0  0  0  0  0  0  0  0  0
  149.0377  140.2154  157.3842 C   0  0  0  0  0  0  0  0  0  0  0  0
  149.3100  141.6965  157.1562 C   0  0  2  0  0  0  0  0  0  0  0  0
  148.2261  142.3602  156.5408 O   0  0  0  0  0  0  0  0  0  0  0  0
  150.5453  141.6521  156.2783 C   0  0  0  0  0  0  0  0  0  0  0  0
  151.2922  140.4129  156.8025 C   0  0  2  0  0  0  0  0  0  0  0  0
  151.9741  139.6337  155.6677 C   0  0  0  0  0  0  0  0  0  0  0  0
  151.2840  139.3958  154.6530 O   0  0  0  0  0  0  0  0  0  0  0  0
  153.1659  139.2888  155.8328 O   0  5  0  0  0  0  0  0  0  0  0  0
  149.5465  142.1817  158.1044 H   0  0  0  0  0  0  0  0  0  0  0  0
  152.0537  140.7363  157.5137 H   0  0  0  0  0  0  0  0  0  0  0  0
  152.7044  140.1593  159.2855 H   0  0  0  0  0  0  0  0  0  0  0  0
  153.6172  139.0917  158.1886 H   0  0  0  0  0  0  0  0  0  0  0  0
  153.6155  138.7922  159.9350 H   0  0  0  0  0  0  0  0  0  0  0  0
  148.5318  139.7722  156.5249 H   0  0  0  0  0  0  0  0  0  0  0  0
  148.4070  140.0777  158.2617 H   0  0  0  0  0  0  0  0  0  0  0  0
  148.5479  143.1580  156.1498 H   0  0  0  0  0  0  0  0  0  0  0  0
  150.2553  141.5278  155.2329 H   0  0  0  0  0  0  0  0  0  0  0  0
  151.1419  142.5619  156.3512 H   0  0  0  0  0  0  0  0  0  0  0  0
  1  2  1  0  0  0  0
  1 18  1  0  0  0  0
  1 19  1  0  0  0  0
  1 20  1  0  0  0  0
  2  6  1  0  0  0  0
  2  3  1  0  0  0  0
  3  4  2  0  0  0  0
  4  5  1  0  0  0  0
  5  6  2  0  0  0  0
  6  7  1  0  0  0  0
  7 12  1  0  0  0  0
  7  8  1  0  0  0  0
  8  9  1  0  0  0  0
  8 21  1  0  0  0  0
  8 22  1  0  0  0  0
  9 16  1  0  0  0  0
  9 10  1  0  0  0  0
  9 11  1  0  0  0  0
 10 23  1  0  0  0  0
 11 12  1  0  0  0  0
 11 24  1  0  0  0  0
 11 25  1  0  0  0  0
 12 17  1  0  0  0  0
 12 13  1  0  0  0  0
 13 14  2  0  0  0  0
 13 15  1  0  0  0  0
M  CHG  1  15  -1
M  END
> <s_m_source_file>
AV-unprocessed.smi

> <i_m_source_file_index>
43

> <i_lp_mmshare_version>
43012

> <i_f3d_flags>
0

> <s_epik_input>
W0NIM11uMW5ubmMxTjJbQ0gyXVtDQEhdKFtPSF0pW0NIMl1bQ0BIXTJDKD1PKVtPSF0=

> <s_epik_cmdline>
J2VwaWtfcHl0aG9uJywgJy1waCcsICc3LjAnLCAnLXRuJywgJzgnLCAnLW1hJywgJzIwMCcsICctbWV0YWxfYmluZGluZycsICctaW1hZScsICc8aW5maWxlLm1hZT4nLCAnLW9tYWUnLCAnPG91dGZpbGUubWFlPic=

> <r_lp_tautomer_probability>
1

> <r_epik_Ionization_Penalty>
0.000193127

> <r_epik_Ionization_Penalty_Charging>
0.000192933

> <r_epik_Ionization_Penalty_Neutral>
1.93728e-07

> <r_epik_State_Penalty>
-0

> <r_epik_Charging_Adjusted_Penalty>
0.000192933

> <i_epik_Tot_Q>
-1

> <i_epik_Tot_abs_Q>
1

> <r_epik_Metal_State_Penalty>
-0

> <b_epik_Metal_Only>
0

> <s_lp_Force_Field>
OPLS_2005

> <r_lp_Energy>
21.0116

> <b_lp_Chiralities_Consistent>
1

> <s_lp_Variant>
AV-unprocessed.smi:43-3

> <Gold.Version>
5.8.1

> <Gold.Id.Protein>
6NUR|6NUR_protein|mol2

> <Gold.PLP.Fitness>
35.3055

> <Gold.PLP.PLP>
-21.7812

> <Gold.PLP.part.hbond>
-4.8489

> <Gold.PLP.part.metal>
0.0000

> <Gold.PLP.part.buried>
-4.9622

> <Gold.PLP.part.nonpolar>
-12.7936

> <Gold.PLP.part.repulsive>
0.0998

> <Gold.PLP.ligand.clash>
0.0000

> <Gold.PLP.ligand.torsion>
0.7419

> <Gold.PLP.Chemscore.Hbond>
5.0000

> <Gold.PLP.Chemscore.CHOScore>
0.0000

> <Gold.PLP.Chemscore.Metal>
0.0000

> <Gold.Chemscore.Hbonds>
donor molecule, donor type, donor heavy atom, donor atom, acceptor molecule, acceptor atom, score
      L1  H    10    23       P1  8028  1.00
      P1  H  6896  6909       L1     4  0.80
      P1  H  7989  7998       L1    14  1.00
      P1  H  7997  8009       L1    15  1.89

> <Gold.PLP.Chemscore.Internal.Correction>
0.0080

> <Gold.Rescore>
     Score         DG    S(hbond)    S(metal)    S(lipo)     H(rot)  DE(clash)    DE(int)     intcor
     15.36     -16.57       3.72        0.00      25.70       1.69       0.00       1.21       ----

> <Gold.Chemscore.Fitness>
15.3637

> <Gold.Chemscore.DG>
-16.5746

> <Gold.Chemscore.ZeroCoef>
-5.4800

> <Gold.Chemscore.Hbond>
3.7158

> <Gold.Chemscore.Metal>
0.0000

> <Gold.Chemscore.Lipo>
25.7000

> <Gold.Chemscore.Internal_Hbond>
0.0000

> <Gold.Chemscore.DEClash>
0.0000

> <Gold.Chemscore.DEInternal>
1.2109

> <Gold.Chemscore.Rot>
1.6887

> <Gold.Chemscore.Internal.Correction>
   9.000000E+99

> <Gold.Chemscore.Hbonds>
donor molecule, donor type, donor heavy atom, donor atom, acceptor molecule, acceptor atom, score
      L1  H    10    23       P1  8028  0.94
      P1  H  6896  6909       L1     4  0.12
      P1  H  7989  7998       L1    14  0.45
      P1  H  7997  8009       L1    15  0.90

> <Gold.Chemscore.Hbond.Weighted>
-12.4109

> <Gold.Chemscore.Metal.Weighted>
-0.0000

> <Gold.Chemscore.Lipo.Weighted>
-3.0069

> <Gold.Chemscore.Internal_Hbond.Weighted>
0.0000

> <Gold.Chemscore.DEClash.Weighted>
0.0000

> <Gold.Chemscore.DEInternal.Weighted>
1.2109

> <Gold.Chemscore.Rot.Weighted>
4.3232

> <Gold.Chemscore.Internal.Correction.Weighted>
   9.000000E+99

> <Gold.Protein.RotatedTorsions>
[ 6907 6896 6895 6894 ] final   84.00 input  -60.11 | X-H torsion
[ 7974 7965 7964 7962 ] final   95.55 input  175.53 | X-H torsion
[ 8008 7997 7996 7995 ] final -160.71 input   59.86 | X-H torsion
[ 10167 10162 10161 10158 ] final -179.45 input  -65.29 | X-H torsion
[ 10718 10713 10712 10709 ] final  -26.29 input   66.30 | X-H torsion
[ 10763 10752 10751 10750 ] final  -30.47 input  -60.55 | X-H torsion
[ 11005 11000 10999 10996 ] final  133.28 input  -57.11 | X-H torsion

> <Gold.Protein.ActiveResidues>
 VAL166  LYS551  ARG553  GLY616  TRP617  ASP618  TYR619  PRO620  LYS621  CYS622 
 ASP623  PHE694  ASN695  SER759  ASP760  ASP761  ALA762  ILE779  LEU786  VAL792 
 PHE793  MET794  SER795  GLU796  ALA797  LYS798  CYS799  TRP800  GLU811  SER814 

> <Gold.Protein.RotatedAtoms>
  152.5341  134.2808  159.9006 H   0  0  0  0  0  0  0  0  0  0  0  0  # atno 6907 bound_to 6896
  151.2763  133.4224  159.2632 H   0  0  0  0  0  0  0  0  0  0  0  0  # atno 6908 bound_to 6896
  151.0323  134.9563  159.8174 H   0  0  0  0  0  0  0  0  0  0  0  0  # atno 6909 bound_to 6896
  145.4506  139.2293  143.3041 H   0  0  0  0  0  0  0  0  0  0  0  0  # atno 7974 bound_to 7965
  155.7814  140.0865  157.2057 H   0  0  0  0  0  0  0  0  0  0  0  0  # atno 8008 bound_to 7997
  154.3990  140.1507  156.3114 H   0  0  0  0  0  0  0  0  0  0  0  0  # atno 8009 bound_to 7997
  155.8649  140.3428  155.5784 H   0  0  0  0  0  0  0  0  0  0  0  0  # atno 8010 bound_to 7997
  139.5385  144.2428  152.0847 H   0  0  0  0  0  0  0  0  0  0  0  0  # atno 10167 bound_to 10162
  156.4531  130.4488  149.6977 H   0  0  0  0  0  0  0  0  0  0  0  0  # atno 10718 bound_to 10713
  153.7814  135.6905  153.4888 H   0  0  0  0  0  0  0  0  0  0  0  0  # atno 10763 bound_to 10752
  153.1809  135.4507  155.0025 H   0  0  0  0  0  0  0  0  0  0  0  0  # atno 10764 bound_to 10752
  154.8080  135.3365  154.7317 H   0  0  0  0  0  0  0  0  0  0  0  0  # atno 10765 bound_to 10752
  139.9842  134.9538  156.9703 H   0  0  0  0  0  0  0  0  0  0  0  0  # atno 11005 bound_to 11000
  146.2506  140.5265  142.8895 LP  0  0  0  0  0  0  0  0  0  0  0  0  # atno 17320 bound_to 7965
  144.8064  140.6306  143.6444 LP  0  0  0  0  0  0  0  0  0  0  0  0  # atno 17321 bound_to 7965
  140.1902  144.4759  150.6483 LP  0  0  0  0  0  0  0  0  0  0  0  0  # atno 17342 bound_to 10162
  140.6604  143.2250  151.5868 LP  0  0  0  0  0  0  0  0  0  0  0  0  # atno 17343 bound_to 10162
  156.3795  130.7571  151.2563 LP  0  0  0  0  0  0  0  0  0  0  0  0  # atno 17370 bound_to 10713
  157.7502  131.0300  150.4117 LP  0  0  0  0  0  0  0  0  0  0  0  0  # atno 17371 bound_to 10713
  140.5035  134.1073  155.7255 LP  0  0  0  0  0  0  0  0  0  0  0  0  # atno 17394 bound_to 11000
  141.1510  133.8969  157.2098 LP  0  0  0  0  0  0  0  0  0  0  0  0  # atno 17395 bound_to 11000

$$$$
