AV-unprocessed.smi:1803|AV-procd|sdf|7287|dock9
  -GOLD-   22720 8543D 1   1.00000     0.00000
 Structure written by MMmdl.
 35 37  0  0  0  0  0  0  0  0  3 V2000
  147.7633  131.2996  154.8113 O   0  0  0  0  0  0  0  0  0  0  0  0
  148.4378  131.0780  153.8066 C   0  0  0  0  0  0  0  0  0  0  0  0
  149.5121  130.2466  153.7958 N   0  5  0  0  0  0  0  0  0  0  0  0
  150.5222  130.3545  154.6789 C   0  0  0  0  0  0  0  0  0  0  0  0
  150.5358  131.2824  155.6494 N   0  0  0  0  0  0  0  0  0  0  0  0
  151.6651  131.2142  156.4537 N   0  0  0  0  0  0  0  0  0  0  0  0
  152.4856  130.2411  156.0582 C   0  0  0  0  0  0  0  0  0  0  0  0
  151.9473  129.3122  154.6749 S   0  0  0  0  0  0  0  0  0  0  0  0
  148.1026  131.6842  152.6524 N   0  0  0  0  0  0  0  0  0  0  0  0
  146.9967  132.6156  152.4670 C   0  0  2  0  0  0  0  0  0  0  0  0
  146.9530  133.7500  153.5029 C   0  0  0  0  0  0  0  0  0  0  0  0
  145.4604  133.9423  153.8348 C   0  0  0  0  0  0  0  0  0  0  0  0
  144.7053  133.0330  152.9421 N   0  3  1  0  0  0  0  0  0  0  0  0
  144.1893  133.7344  151.7346 C   0  0  0  0  0  0  0  0  0  0  0  0
  143.6177  132.7575  150.6985 C   0  0  0  0  0  0  0  0  0  0  0  0
  144.6855  131.7422  150.2833 C   0  0  0  0  0  0  0  0  0  0  0  0
  145.1812  130.9863  151.5209 C   0  0  0  0  0  0  0  0  0  0  0  0
  145.6457  131.9226  152.6589 C   0  0  1  0  0  0  0  0  0  0  0  0
  153.4119  130.0679  156.5852 H   0  0  0  0  0  0  0  0  0  0  0  0
  148.6675  131.4786  151.8412 H   0  0  0  0  0  0  0  0  0  0  0  0
  147.0462  133.0444  151.4648 H   0  0  0  0  0  0  0  0  0  0  0  0
  147.5039  133.4886  154.4078 H   0  0  0  0  0  0  0  0  0  0  0  0
  147.3988  134.6602  153.1003 H   0  0  0  0  0  0  0  0  0  0  0  0
  145.2748  133.6397  154.8660 H   0  0  0  0  0  0  0  0  0  0  0  0
  145.1418  134.9815  153.7416 H   0  0  0  0  0  0  0  0  0  0  0  0
  143.4189  134.4436  152.0389 H   0  0  0  0  0  0  0  0  0  0  0  0
  144.9873  134.3205  151.2756 H   0  0  0  0  0  0  0  0  0  0  0  0
  142.7499  132.2409  151.1111 H   0  0  0  0  0  0  0  0  0  0  0  0
  143.2676  133.3066  149.8240 H   0  0  0  0  0  0  0  0  0  0  0  0
  144.2768  131.0412  149.5553 H   0  0  0  0  0  0  0  0  0  0  0  0
  145.5166  132.2507  149.7932 H   0  0  0  0  0  0  0  0  0  0  0  0
  144.3678  130.3622  151.8934 H   0  0  0  0  0  0  0  0  0  0  0  0
  145.9833  130.3003  151.2467 H   0  0  0  0  0  0  0  0  0  0  0  0
  145.7046  131.3250  153.5711 H   0  0  0  0  0  0  0  0  0  0  0  0
  143.9078  132.6624  153.4384 H   0  0  0  0  0  0  0  0  0  0  0  0
  1  2  2  0  0  0  0
  2  3  1  0  0  0  0
  2  9  1  0  0  0  0
  3  4  1  0  0  0  0
  4  8  1  0  0  0  0
  4  5  2  0  0  0  0
  5  6  1  0  0  0  0
  6  7  2  0  0  0  0
  7  8  1  0  0  0  0
  7 19  1  0  0  0  0
  9 10  1  0  0  0  0
  9 20  1  0  0  0  0
 10 18  1  0  0  0  0
 10 11  1  0  0  0  0
 10 21  1  0  0  0  0
 11 12  1  0  0  0  0
 11 22  1  0  0  0  0
 11 23  1  0  0  0  0
 12 13  1  0  0  0  0
 12 24  1  0  0  0  0
 12 25  1  0  0  0  0
 13 18  1  0  0  0  0
 13 14  1  0  0  0  0
 13 35  1  0  0  0  0
 14 15  1  0  0  0  0
 14 26  1  0  0  0  0
 14 27  1  0  0  0  0
 15 16  1  0  0  0  0
 15 28  1  0  0  0  0
 15 29  1  0  0  0  0
 16 17  1  0  0  0  0
 16 30  1  0  0  0  0
 16 31  1  0  0  0  0
 17 18  1  0  0  0  0
 17 32  1  0  0  0  0
 17 33  1  0  0  0  0
 18 34  1  0  0  0  0
M  CHG  1   3  -1
M  CHG  1  13   1
M  END
> <s_m_source_file>
AV-unprocessed.smi

> <i_m_source_file_index>
1803

> <i_lp_mmshare_version>
43012

> <i_f3d_flags>
0

> <s_epik_input>
czFbY0hdbm5jMVtOSF1DKD1PKVtOSF1bQ0BIXShbQ0gyXVtDSDJdMilbQ0BASF0oTjIzKVtDSDJdW0NIMl1bQ0gyXVtDSDJdMw==

> <s_epik_cmdline>
J2VwaWtfcHl0aG9uJywgJy1waCcsICc3LjAnLCAnLXRuJywgJzgnLCAnLW1hJywgJzIwMCcsICctbWV0YWxfYmluZGluZycsICctaW1hZScsICc8aW5maWxlLm1hZT4nLCAnLW9tYWUnLCAnPG91dGZpbGUubWFlPic=

> <r_lp_tautomer_probability>
1

> <r_epik_Ionization_Penalty>
3.78828

> <r_epik_Ionization_Penalty_Charging>
3.7591

> <r_epik_Ionization_Penalty_Neutral>
0.0291838

> <r_epik_State_Penalty>
3.757

> <r_epik_Charging_Adjusted_Penalty>
7.51609

> <i_epik_Tot_Q>
0

> <i_epik_Tot_abs_Q>
2

> <r_epik_Metal_State_Penalty>
0.558016

> <b_epik_Metal_Only>
1

> <s_lp_Force_Field>
OPLS_2005

> <r_lp_Energy>
31.4386

> <b_lp_Chiralities_Consistent>
1

> <s_lp_Variant>
AV-unprocessed.smi:1803-9

> <Gold.Version>
5.8.1

> <Gold.Id.Protein>
6NUR|6NUR_protein|mol2

> <Gold.PLP.Fitness>
36.1327

> <Gold.PLP.PLP>
-28.1816

> <Gold.PLP.part.hbond>
-2.0000

> <Gold.PLP.part.metal>
0.0000

> <Gold.PLP.part.buried>
-4.6342

> <Gold.PLP.part.nonpolar>
-22.1639

> <Gold.PLP.part.repulsive>
0.1431

> <Gold.PLP.ligand.clash>
0.0000

> <Gold.PLP.ligand.torsion>
0.5290

> <Gold.PLP.Chemscore.Hbond>
3.0000

> <Gold.PLP.Chemscore.CHOScore>
0.0000

> <Gold.PLP.Chemscore.Metal>
0.0000

> <Gold.Chemscore.Hbonds>
donor molecule, donor type, donor heavy atom, donor atom, acceptor molecule, acceptor atom, score
      L1  H     9    20       P1 10747  1.00
      L1  H    13    35       P1 10957  2.00

> <Gold.PLP.Chemscore.Internal.Correction>
0.0092

> <Gold.Rescore>
     Score         DG    S(hbond)    S(metal)    S(lipo)     H(rot)  DE(clash)    DE(int)     intcor
     12.75     -15.92       1.90        0.00      56.89       1.00       0.00       3.17       ----

> <Gold.Chemscore.Fitness>
12.7513

> <Gold.Chemscore.DG>
-15.9249

> <Gold.Chemscore.ZeroCoef>
-5.4800

> <Gold.Chemscore.Hbond>
1.9008

> <Gold.Chemscore.Metal>
0.0000

> <Gold.Chemscore.Lipo>
56.8905

> <Gold.Chemscore.Internal_Hbond>
0.0000

> <Gold.Chemscore.DEClash>
0.0000

> <Gold.Chemscore.DEInternal>
3.1737

> <Gold.Chemscore.Rot>
1.0000

> <Gold.Chemscore.Internal.Correction>
   9.000000E+99

> <Gold.Chemscore.Hbonds>
donor molecule, donor type, donor heavy atom, donor atom, acceptor molecule, acceptor atom, score
      L1  H     9    20       P1 10747  0.97
      L1  H    13    35       P1 10957  0.42

> <Gold.Chemscore.Hbond.Weighted>
-6.3487

> <Gold.Chemscore.Metal.Weighted>
-0.0000

> <Gold.Chemscore.Lipo.Weighted>
-6.6562

> <Gold.Chemscore.Internal_Hbond.Weighted>
0.0000

> <Gold.Chemscore.DEClash.Weighted>
0.0000

> <Gold.Chemscore.DEInternal.Weighted>
3.1737

> <Gold.Chemscore.Rot.Weighted>
2.5600

> <Gold.Chemscore.Internal.Correction.Weighted>
   9.000000E+99

> <Gold.Protein.RotatedTorsions>
[ 6907 6896 6895 6894 ] final -173.52 input  -60.11 | X-H torsion
[ 7974 7965 7964 7962 ] final  107.53 input  175.53 | X-H torsion
[ 8008 7997 7996 7995 ] final -164.84 input   59.86 | X-H torsion
[ 10167 10162 10161 10158 ] final  -87.54 input  -65.29 | X-H torsion
[ 10718 10713 10712 10709 ] final -134.32 input   66.30 | X-H torsion
[ 10763 10752 10751 10750 ] final  -81.18 input  -60.55 | X-H torsion
[ 11005 11000 10999 10996 ] final -101.66 input  -57.11 | X-H torsion

> <Gold.Protein.ActiveResidues>
 VAL166  LYS551  ARG553  GLY616  TRP617  ASP618  TYR619  PRO620  LYS621  CYS622 
 ASP623  PHE694  ASN695  SER759  ASP760  ASP761  ALA762  ILE779  LEU786  VAL792 
 PHE793  MET794  SER795  GLU796  ALA797  LYS798  CYS799  TRP800  GLU811  SER814 

> <Gold.Protein.RotatedAtoms>
  151.5575  133.3408  159.2964 H   0  0  0  0  0  0  0  0  0  0  0  0  # atno 6907 bound_to 6896
  150.8442  134.7748  159.6968 H   0  0  0  0  0  0  0  0  0  0  0  0  # atno 6908 bound_to 6896
  152.4503  134.5415  159.9892 H   0  0  0  0  0  0  0  0  0  0  0  0  # atno 6909 bound_to 6896
  145.2924  139.2596  143.3858 H   0  0  0  0  0  0  0  0  0  0  0  0  # atno 7974 bound_to 7965
  155.8413  140.0949  157.1732 H   0  0  0  0  0  0  0  0  0  0  0  0  # atno 8008 bound_to 7997
  154.3982  140.1400  156.3794 H   0  0  0  0  0  0  0  0  0  0  0  0  # atno 8009 bound_to 7997
  155.8061  140.3451  155.5433 H   0  0  0  0  0  0  0  0  0  0  0  0  # atno 8010 bound_to 7997
  140.3835  143.2738  151.9355 H   0  0  0  0  0  0  0  0  0  0  0  0  # atno 10167 bound_to 10162
  156.2543  130.7171  151.1082 H   0  0  0  0  0  0  0  0  0  0  0  0  # atno 10718 bound_to 10713
  154.5604  135.5635  153.7002 H   0  0  0  0  0  0  0  0  0  0  0  0  # atno 10763 bound_to 10752
  153.0016  135.6272  154.2252 H   0  0  0  0  0  0  0  0  0  0  0  0  # atno 10764 bound_to 10752
  154.2190  135.2870  155.2911 H   0  0  0  0  0  0  0  0  0  0  0  0  # atno 10765 bound_to 10752
  141.1221  133.8496  157.1261 H   0  0  0  0  0  0  0  0  0  0  0  0  # atno 11005 bound_to 11000
  146.3180  140.3418  142.8648 LP  0  0  0  0  0  0  0  0  0  0  0  0  # atno 17320 bound_to 7965
  144.9162  140.7815  143.5777 LP  0  0  0  0  0  0  0  0  0  0  0  0  # atno 17321 bound_to 7965
  139.4793  144.5796  151.7954 LP  0  0  0  0  0  0  0  0  0  0  0  0  # atno 17342 bound_to 10162
  140.4914  144.1305  150.5951 LP  0  0  0  0  0  0  0  0  0  0  0  0  # atno 17343 bound_to 10162
  157.7226  131.0671  150.6070 LP  0  0  0  0  0  0  0  0  0  0  0  0  # atno 17370 bound_to 10713
  156.6152  130.4391  149.5843 LP  0  0  0  0  0  0  0  0  0  0  0  0  # atno 17371 bound_to 10713
  140.0188  134.9955  157.0548 LP  0  0  0  0  0  0  0  0  0  0  0  0  # atno 17394 bound_to 11000
  140.4475  134.1617  155.7178 LP  0  0  0  0  0  0  0  0  0  0  0  0  # atno 17395 bound_to 11000

$$$$
