AV-unprocessed.smi:535|AV-procd|sdf|2858|dock8
  -GOLD-   2262023353D 1   1.00000     0.00000
 Structure written by MMmdl.
 46 48  0  0  0  0  0  0  0  0  1 V2000
  147.6104  141.7301  153.7452 C   0  0  0  0  0  0  0  0  0  0  0  0
  149.0058  141.7511  153.9889 O   0  0  0  0  0  0  0  0  0  0  0  0
  149.3397  141.2365  155.2663 C   0  0  0  0  0  0  0  0  0  0  0  0
  150.6483  141.8828  155.7344 C   0  0  0  0  0  0  0  0  0  0  0  0
  151.3328  141.0491  156.7184 N   0  0  0  0  0  0  0  0  0  0  0  0
  151.7839  141.3906  157.9577 C   0  0  0  0  0  0  0  0  0  0  0  0
  151.6208  142.6715  158.4894 N   0  0  0  0  0  0  0  0  0  0  0  0
  151.4457  143.9132  157.7363 C   0  0  0  0  0  0  0  0  0  0  0  0
  152.4357  144.9961  158.1987 C   0  0  0  0  0  0  0  0  0  0  0  0
  152.2638  145.2715  159.6987 C   0  0  0  0  0  0  0  0  0  0  0  0
  152.3326  143.9564  160.4951 C   0  0  1  0  0  0  0  0  0  0  0  0
  152.0711  144.1870  161.9895 C   0  0  0  0  0  0  0  0  0  0  0  0
  151.3481  142.9266  159.9031 C   0  0  0  0  0  0  0  0  0  0  0  0
  152.4431  140.4192  158.5953 N   0  0  0  0  0  0  0  0  0  0  0  0
  152.3940  139.3632  157.6996 C   0  0  0  0  0  0  0  0  0  0  0  0
  151.7486  139.7248  156.5616 C   0  0  0  0  0  0  0  0  0  0  0  0
  151.6046  138.8125  155.4179 C   0  0  0  0  0  0  0  0  0  0  0  0
  151.0492  139.1218  154.3662 O   0  0  0  0  0  0  0  0  0  0  0  0
  152.1596  137.5953  155.6346 N   0  0  0  0  0  0  0  0  0  0  0  0
  152.8137  137.1669  156.7567 C   0  0  0  0  0  0  0  0  0  0  0  0
  153.2763  136.0271  156.8014 O   0  0  0  0  0  0  0  0  0  0  0  0
  152.9298  138.0479  157.8013 N   0  0  0  0  0  0  0  0  0  0  0  0
  153.6245  137.6488  159.0269 C   0  0  0  0  0  0  0  0  0  0  0  0
  152.0889  136.9306  154.8779 H   0  0  0  0  0  0  0  0  0  0  0  0
  147.4052  142.1348  152.7542 H   0  0  0  0  0  0  0  0  0  0  0  0
  147.0736  142.3378  154.4749 H   0  0  0  0  0  0  0  0  0  0  0  0
  147.2190  140.7124  153.7811 H   0  0  0  0  0  0  0  0  0  0  0  0
  148.5402  141.4471  155.9786 H   0  0  0  0  0  0  0  0  0  0  0  0
  149.4557  140.1531  155.2105 H   0  0  0  0  0  0  0  0  0  0  0  0
  151.2984  142.0680  154.8854 H   0  0  0  0  0  0  0  0  0  0  0  0
  150.4586  142.8689  156.1538 H   0  0  0  0  0  0  0  0  0  0  0  0
  151.5406  143.7290  156.6669 H   0  0  0  0  0  0  0  0  0  0  0  0
  150.4237  144.2665  157.8799 H   0  0  0  0  0  0  0  0  0  0  0  0
  153.4594  144.6780  157.9995 H   0  0  0  0  0  0  0  0  0  0  0  0
  152.2797  145.9133  157.6304 H   0  0  0  0  0  0  0  0  0  0  0  0
  153.0301  145.9671  160.0424 H   0  0  0  0  0  0  0  0  0  0  0  0
  151.3015  145.7561  159.8696 H   0  0  0  0  0  0  0  0  0  0  0  0
  153.3416  143.5533  160.3959 H   0  0  0  0  0  0  0  0  0  0  0  0
  151.0677  144.5779  162.1612 H   0  0  0  0  0  0  0  0  0  0  0  0
  152.7827  144.8998  162.4069 H   0  0  0  0  0  0  0  0  0  0  0  0
  152.1674  143.2577  162.5517 H   0  0  0  0  0  0  0  0  0  0  0  0
  150.3190  143.2707  160.0167 H   0  0  0  0  0  0  0  0  0  0  0  0
  151.4241  141.9913  160.4591 H   0  0  0  0  0  0  0  0  0  0  0  0
  153.2762  136.6763  159.3784 H   0  0  0  0  0  0  0  0  0  0  0  0
  153.4669  138.3553  159.8418 H   0  0  0  0  0  0  0  0  0  0  0  0
  154.6981  137.5828  158.8470 H   0  0  0  0  0  0  0  0  0  0  0  0
  1  2  1  0  0  0  0
  1 25  1  0  0  0  0
  1 26  1  0  0  0  0
  1 27  1  0  0  0  0
  2  3  1  0  0  0  0
  3  4  1  0  0  0  0
  3 28  1  0  0  0  0
  3 29  1  0  0  0  0
  4  5  1  0  0  0  0
  4 30  1  0  0  0  0
  4 31  1  0  0  0  0
  5 16  1  0  0  0  0
  5  6  1  0  0  0  0
  6  7  1  0  0  0  0
  6 14  2  0  0  0  0
  7 13  1  0  0  0  0
  7  8  1  0  0  0  0
  8  9  1  0  0  0  0
  8 32  1  0  0  0  0
  8 33  1  0  0  0  0
  9 10  1  0  0  0  0
  9 34  1  0  0  0  0
  9 35  1  0  0  0  0
 10 11  1  0  0  0  0
 10 36  1  0  0  0  0
 10 37  1  0  0  0  0
 11 12  1  0  0  0  0
 11 13  1  0  0  0  0
 11 38  1  0  0  0  0
 12 39  1  0  0  0  0
 12 40  1  0  0  0  0
 12 41  1  0  0  0  0
 13 42  1  0  0  0  0
 13 43  1  0  0  0  0
 14 15  1  0  0  0  0
 15 22  1  0  0  0  0
 15 16  2  0  0  0  0
 16 17  1  0  0  0  0
 17 18  2  0  0  0  0
 17 19  1  0  0  0  0
 19 24  1  0  0  0  0
 19 20  1  0  0  0  0
 20 21  2  0  0  0  0
 20 22  1  0  0  0  0
 22 23  1  0  0  0  0
 23 44  1  0  0  0  0
 23 45  1  0  0  0  0
 23 46  1  0  0  0  0
M  END
> <s_m_source_file>
AV-unprocessed.smi

> <i_m_source_file_index>
535

> <i_lp_mmshare_version>
43012

> <i_f3d_flags>
0

> <s_epik_input>
W0NIM11uMWMoPU8pW25IXWMoPU8pYyhjMTIpbihbQ0gyXVtDSDJdT1tDSDNdKWMobjIpTjNbQ0gyXVtDSDJdW0NIMl1bQ0BASF0oW0NIM10pW0NIMl0z

> <s_epik_cmdline>
J2VwaWtfcHl0aG9uJywgJy1waCcsICc3LjAnLCAnLXRuJywgJzgnLCAnLW1hJywgJzIwMCcsICctbWV0YWxfYmluZGluZycsICctaW1hZScsICc8aW5maWxlLm1hZT4nLCAnLW9tYWUnLCAnPG91dGZpbGUubWFlPic=

> <r_lp_tautomer_probability>
1

> <r_epik_Ionization_Penalty>
0.00042181

> <r_epik_Ionization_Penalty_Charging>
0.000122112

> <r_epik_Ionization_Penalty_Neutral>
0.000299698

> <r_epik_State_Penalty>
-0

> <r_epik_Charging_Adjusted_Penalty>
0.000122112

> <i_epik_Tot_Q>
0

> <i_epik_Tot_abs_Q>
0

> <r_epik_Metal_State_Penalty>
0.0934894

> <b_epik_Metal_Only>
0

> <s_lp_Force_Field>
OPLS_2005

> <r_lp_Energy>
38.8925

> <b_lp_Chiralities_Consistent>
1

> <s_lp_Variant>
AV-unprocessed.smi:535-1

> <Gold.Version>
5.8.1

> <Gold.Id.Protein>
6NUR|6NUR_protein|mol2

> <Gold.PLP.Fitness>
46.9638

> <Gold.PLP.PLP>
-41.6880

> <Gold.PLP.part.hbond>
-3.3312

> <Gold.PLP.part.metal>
0.0000

> <Gold.PLP.part.buried>
-3.8978

> <Gold.PLP.part.nonpolar>
-33.8148

> <Gold.PLP.part.repulsive>
0.4849

> <Gold.PLP.ligand.clash>
1.2998

> <Gold.PLP.ligand.torsion>
0.7477

> <Gold.PLP.Chemscore.Hbond>
2.5350

> <Gold.PLP.Chemscore.CHOScore>
0.0000

> <Gold.PLP.Chemscore.Metal>
0.0000

> <Gold.Chemscore.Hbonds>
donor molecule, donor type, donor heavy atom, donor atom, acceptor molecule, acceptor atom, score
      P1  H  7989  7998       L1    18  1.00
      P1  H  8011  8017       L1     2  0.56
      P1  H 10752 10765       L1    21  1.00

> <Gold.PLP.Chemscore.Internal.Correction>
0.4661

> <Gold.Rescore>
     Score         DG    S(hbond)    S(metal)    S(lipo)     H(rot)  DE(clash)    DE(int)     intcor
     17.41     -21.59       2.16        0.00     107.86       1.46       1.08       3.10       ----

> <Gold.Chemscore.Fitness>
17.4066

> <Gold.Chemscore.DG>
-21.5892

> <Gold.Chemscore.ZeroCoef>
-5.4800

> <Gold.Chemscore.Hbond>
2.1606

> <Gold.Chemscore.Metal>
0.0000

> <Gold.Chemscore.Lipo>
107.8598

> <Gold.Chemscore.Internal_Hbond>
0.0000

> <Gold.Chemscore.DEClash>
1.0790

> <Gold.Chemscore.DEInternal>
3.1037

> <Gold.Chemscore.Rot>
1.4557

> <Gold.Chemscore.Internal.Correction>
   9.000000E+99

> <Gold.Chemscore.Hbonds>
donor molecule, donor type, donor heavy atom, donor atom, acceptor molecule, acceptor atom, score
      P1  H  7989  7998       L1    18  0.88
      P1  H  8011  8017       L1     2  0.28
      P1  H 10752 10765       L1    21  0.93

> <Gold.Chemscore.Hbond.Weighted>
-7.2163

> <Gold.Chemscore.Metal.Weighted>
-0.0000

> <Gold.Chemscore.Lipo.Weighted>
-12.6196

> <Gold.Chemscore.Internal_Hbond.Weighted>
0.0000

> <Gold.Chemscore.DEClash.Weighted>
1.0790

> <Gold.Chemscore.DEInternal.Weighted>
3.1037

> <Gold.Chemscore.Rot.Weighted>
3.7267

> <Gold.Chemscore.Internal.Correction.Weighted>
   9.000000E+99

> <Gold.Protein.RotatedTorsions>
[ 6907 6896 6895 6894 ] final   66.91 input  -60.11 | X-H torsion
[ 7974 7965 7964 7962 ] final  -36.58 input  175.53 | X-H torsion
[ 8008 7997 7996 7995 ] final  163.46 input   59.86 | X-H torsion
[ 10167 10162 10161 10158 ] final   80.02 input  -65.29 | X-H torsion
[ 10718 10713 10712 10709 ] final  161.00 input   66.30 | X-H torsion
[ 10763 10752 10751 10750 ] final -108.72 input  -60.55 | X-H torsion
[ 11005 11000 10999 10996 ] final  108.19 input  -57.11 | X-H torsion

> <Gold.Protein.ActiveResidues>
 VAL166  LYS551  ARG553  GLY616  TRP617  ASP618  TYR619  PRO620  LYS621  CYS622 
 ASP623  PHE694  ASN695  SER759  ASP760  ASP761  ALA762  ILE779  LEU786  VAL792 
 PHE793  MET794  SER795  GLU796  ALA797  LYS798  CYS799  TRP800  GLU811  SER814 

> <Gold.Protein.RotatedAtoms>
  152.4515  134.5384  159.9831 H   0  0  0  0  0  0  0  0  0  0  0  0  # atno 6907 bound_to 6896
  151.5455  133.3420  159.2951 H   0  0  0  0  0  0  0  0  0  0  0  0  # atno 6908 bound_to 6896
  150.8445  134.7781  159.7022 H   0  0  0  0  0  0  0  0  0  0  0  0  # atno 6909 bound_to 6896
  146.0649  140.6295  142.8979 H   0  0  0  0  0  0  0  0  0  0  0  0  # atno 7974 bound_to 7965
  156.1955  140.1723  156.8007 H   0  0  0  0  0  0  0  0  0  0  0  0  # atno 8008 bound_to 7997
  154.5524  140.0715  156.8720 H   0  0  0  0  0  0  0  0  0  0  0  0  # atno 8009 bound_to 7997
  155.3003  140.3361  155.4250 H   0  0  0  0  0  0  0  0  0  0  0  0  # atno 8010 bound_to 7997
  139.9541  144.6006  150.8133 H   0  0  0  0  0  0  0  0  0  0  0  0  # atno 10167 bound_to 10162
  157.1425  131.0544  151.2319 H   0  0  0  0  0  0  0  0  0  0  0  0  # atno 10718 bound_to 10713
  154.8152  135.4627  154.0623 H   0  0  0  0  0  0  0  0  0  0  0  0  # atno 10763 bound_to 10752
  153.2022  135.6870  153.8223 H   0  0  0  0  0  0  0  0  0  0  0  0  # atno 10764 bound_to 10752
  153.7704  135.3271  155.3328 H   0  0  0  0  0  0  0  0  0  0  0  0  # atno 10765 bound_to 10752
  139.8840  134.9423  156.5934 H   0  0  0  0  0  0  0  0  0  0  0  0  # atno 11005 bound_to 11000
  144.7196  140.4330  143.7018 LP  0  0  0  0  0  0  0  0  0  0  0  0  # atno 17320 bound_to 7965
  145.6494  139.1562  143.2870 LP  0  0  0  0  0  0  0  0  0  0  0  0  # atno 17321 bound_to 7965
  140.7574  143.3085  151.2903 LP  0  0  0  0  0  0  0  0  0  0  0  0  # atno 17342 bound_to 10162
  139.6605  144.0198  152.2689 LP  0  0  0  0  0  0  0  0  0  0  0  0  # atno 17343 bound_to 10162
  157.4294  130.7482  149.6977 LP  0  0  0  0  0  0  0  0  0  0  0  0  # atno 17370 bound_to 10713
  155.9786  130.4050  150.3640 LP  0  0  0  0  0  0  0  0  0  0  0  0  # atno 17371 bound_to 10713
  140.7938  133.8561  155.8668 LP  0  0  0  0  0  0  0  0  0  0  0  0  # atno 17394 bound_to 11000
  140.9654  134.1601  157.4620 LP  0  0  0  0  0  0  0  0  0  0  0  0  # atno 17395 bound_to 11000

$$$$
