AV-unprocessed.smi:1258|AV-procd|sdf|5287|dock1
  -GOLD-   22720 4403D 1   1.00000     0.00000
 Structure written by MMmdl.
 33 34  0  0  0  0  0  0  0  0  1 V2000
  151.5522  145.3809  159.5269 C   0  0  0  0  0  0  0  0  0  0  0  0
  151.8869  143.9822  160.0637 C   0  0  2  0  0  0  0  0  0  0  0  0
  152.2236  144.0214  161.5669 C   0  0  0  0  0  0  0  0  0  0  0  0
  152.5673  142.6247  162.1089 C   0  0  0  0  0  0  0  0  0  0  0  0
  153.7093  141.9750  161.3068 C   0  0  0  0  0  0  0  0  0  0  0  0
  153.4023  141.9270  159.7977 C   0  0  1  0  0  0  0  0  0  0  0  0
  152.3229  140.9773  159.5420 N   0  0  0  0  0  0  0  0  0  0  0  0
  152.4234  139.8447  158.8286 C   0  0  0  0  0  0  0  0  0  0  0  0
  153.4865  139.4180  158.3798 O   0  0  0  0  0  0  0  0  0  0  0  0
  151.1217  139.0815  158.5711 C   0  0  0  0  0  0  0  0  0  0  0  0
  151.3766  137.7945  157.9468 N   0  0  0  0  0  0  0  0  0  0  0  0
  151.9651  137.4833  156.7900 C   0  0  0  0  0  0  0  0  0  0  0  0
  152.0237  136.1733  156.6075 N   0  0  0  0  0  0  0  0  0  0  0  0
  151.4184  135.6699  157.7468 N   0  0  0  0  0  0  0  0  0  0  0  0
  151.0313  136.6269  158.5449 N   0  0  0  0  0  0  0  0  0  0  0  0
  153.0429  143.3349  159.2716 C   0  0  0  0  0  0  0  0  0  0  0  0
  152.4013  146.0582  159.6247 H   0  0  0  0  0  0  0  0  0  0  0  0
  150.7131  145.8185  160.0686 H   0  0  0  0  0  0  0  0  0  0  0  0
  151.2777  145.3410  158.4724 H   0  0  0  0  0  0  0  0  0  0  0  0
  150.9957  143.3661  159.9334 H   0  0  0  0  0  0  0  0  0  0  0  0
  153.0660  144.6932  161.7379 H   0  0  0  0  0  0  0  0  0  0  0  0
  151.3831  144.4328  162.1271 H   0  0  0  0  0  0  0  0  0  0  0  0
  152.8487  142.6956  163.1598 H   0  0  0  0  0  0  0  0  0  0  0  0
  151.6806  141.9905  162.0725 H   0  0  0  0  0  0  0  0  0  0  0  0
  154.6255  142.5448  161.4672 H   0  0  0  0  0  0  0  0  0  0  0  0
  153.9071  140.9711  161.6843 H   0  0  0  0  0  0  0  0  0  0  0  0
  154.2959  141.5734  159.2803 H   0  0  0  0  0  0  0  0  0  0  0  0
  151.4087  141.2394  159.8804 H   0  0  0  0  0  0  0  0  0  0  0  0
  150.5846  138.9225  159.5074 H   0  0  0  0  0  0  0  0  0  0  0  0
  150.4744  139.6700  157.9202 H   0  0  0  0  0  0  0  0  0  0  0  0
  152.3564  138.2102  156.0936 H   0  0  0  0  0  0  0  0  0  0  0  0
  152.7897  143.2886  158.2116 H   0  0  0  0  0  0  0  0  0  0  0  0
  153.9253  143.9728  159.3385 H   0  0  0  0  0  0  0  0  0  0  0  0
  1  2  1  0  0  0  0
  1 17  1  0  0  0  0
  1 18  1  0  0  0  0
  1 19  1  0  0  0  0
  2 16  1  0  0  0  0
  2  3  1  0  0  0  0
  2 20  1  0  0  0  0
  3  4  1  0  0  0  0
  3 21  1  0  0  0  0
  3 22  1  0  0  0  0
  4  5  1  0  0  0  0
  4 23  1  0  0  0  0
  4 24  1  0  0  0  0
  5  6  1  0  0  0  0
  5 25  1  0  0  0  0
  5 26  1  0  0  0  0
  6  7  1  0  0  0  0
  6 16  1  0  0  0  0
  6 27  1  0  0  0  0
  7  8  1  0  0  0  0
  7 28  1  0  0  0  0
  8  9  2  0  0  0  0
  8 10  1  0  0  0  0
 10 11  1  0  0  0  0
 10 29  1  0  0  0  0
 10 30  1  0  0  0  0
 11 15  1  0  0  0  0
 11 12  1  0  0  0  0
 12 13  2  0  0  0  0
 12 31  1  0  0  0  0
 13 14  1  0  0  0  0
 14 15  2  0  0  0  0
 16 32  1  0  0  0  0
 16 33  1  0  0  0  0
M  END
> <s_m_source_file>
AV-unprocessed.smi

> <i_m_source_file_index>
1258

> <i_lp_mmshare_version>
43012

> <i_f3d_flags>
0

> <s_epik_input>
W0NIM11bQ0BASF0xW0NIMl1bQ0gyXVtDSDJdW0NASF0oW0NIMl0xKVtOSF1DKD1PKVtDSDJdbjJbY0hdbm5uMg==

> <s_epik_cmdline>
J2VwaWtfcHl0aG9uJywgJy1waCcsICc3LjAnLCAnLXRuJywgJzgnLCAnLW1hJywgJzIwMCcsICctbWV0YWxfYmluZGluZycsICctaW1hZScsICc8aW5maWxlLm1hZT4nLCAnLW9tYWUnLCAnPG91dGZpbGUubWFlPic=

> <r_lp_tautomer_probability>
1

> <r_epik_Ionization_Penalty>
5.03816e-07

> <r_epik_Ionization_Penalty_Charging>
0

> <r_epik_Ionization_Penalty_Neutral>
5.03816e-07

> <r_epik_State_Penalty>
-0

> <r_epik_Charging_Adjusted_Penalty>
0

> <i_epik_Tot_Q>
0

> <i_epik_Tot_abs_Q>
0

> <r_epik_Metal_State_Penalty>
-0

> <b_epik_Metal_Only>
0

> <s_lp_Force_Field>
OPLS_2005

> <r_lp_Energy>
9.71314

> <b_lp_Chiralities_Consistent>
1

> <s_lp_Variant>
AV-unprocessed.smi:1258-1

> <Gold.Version>
5.8.1

> <Gold.Id.Protein>
6NUR|6NUR_protein|mol2

> <Gold.PLP.Fitness>
43.5073

> <Gold.PLP.PLP>
-37.6360

> <Gold.PLP.part.hbond>
-4.0000

> <Gold.PLP.part.metal>
0.0000

> <Gold.PLP.part.buried>
-5.3142

> <Gold.PLP.part.nonpolar>
-28.8798

> <Gold.PLP.part.repulsive>
0.1351

> <Gold.PLP.ligand.clash>
0.0000

> <Gold.PLP.ligand.torsion>
0.0683

> <Gold.PLP.Chemscore.Hbond>
2.0000

> <Gold.PLP.Chemscore.CHOScore>
0.0000

> <Gold.PLP.Chemscore.Metal>
0.0000

> <Gold.Chemscore.Hbonds>
donor molecule, donor type, donor heavy atom, donor atom, acceptor molecule, acceptor atom, score
      P1  H  7997  8009       L1     9  1.00
      P1  H 10752 10765       L1    13  1.00

> <Gold.PLP.Chemscore.Internal.Correction>
0.0079

> <Gold.Rescore>
     Score         DG    S(hbond)    S(metal)    S(lipo)     H(rot)  DE(clash)    DE(int)     intcor
     17.51     -17.71       1.99        0.00      89.55       1.92       0.02       0.18       ----

> <Gold.Chemscore.Fitness>
17.5101

> <Gold.Chemscore.DG>
-17.7129

> <Gold.Chemscore.ZeroCoef>
-5.4800

> <Gold.Chemscore.Hbond>
1.9948

> <Gold.Chemscore.Metal>
0.0000

> <Gold.Chemscore.Lipo>
89.5531

> <Gold.Chemscore.Internal_Hbond>
0.0000

> <Gold.Chemscore.DEClash>
0.0232

> <Gold.Chemscore.DEInternal>
0.1795

> <Gold.Chemscore.Rot>
1.9169

> <Gold.Chemscore.Internal.Correction>
   9.000000E+99

> <Gold.Chemscore.Hbonds>
donor molecule, donor type, donor heavy atom, donor atom, acceptor molecule, acceptor atom, score
      P1  H  7997  8009       L1     9  0.99
      P1  H 10752 10765       L1    13  0.90

> <Gold.Chemscore.Hbond.Weighted>
-6.6625

> <Gold.Chemscore.Metal.Weighted>
-0.0000

> <Gold.Chemscore.Lipo.Weighted>
-10.4777

> <Gold.Chemscore.Internal_Hbond.Weighted>
0.0000

> <Gold.Chemscore.DEClash.Weighted>
0.0232

> <Gold.Chemscore.DEInternal.Weighted>
0.1795

> <Gold.Chemscore.Rot.Weighted>
4.9073

> <Gold.Chemscore.Internal.Correction.Weighted>
   9.000000E+99

> <Gold.Protein.RotatedTorsions>
[ 6907 6896 6895 6894 ] final   47.01 input  -60.11 | X-H torsion
[ 7974 7965 7964 7962 ] final  -35.55 input  175.53 | X-H torsion
[ 8008 7997 7996 7995 ] final  134.81 input   59.86 | X-H torsion
[ 10167 10162 10161 10158 ] final -146.57 input  -65.29 | X-H torsion
[ 10718 10713 10712 10709 ] final   -5.21 input   66.30 | X-H torsion
[ 10763 10752 10751 10750 ] final -146.86 input  -60.55 | X-H torsion
[ 11005 11000 10999 10996 ] final  -95.32 input  -57.11 | X-H torsion

> <Gold.Protein.ActiveResidues>
 VAL166  LYS551  ARG553  GLY616  TRP617  ASP618  TYR619  PRO620  LYS621  CYS622 
 ASP623  PHE694  ASN695  SER759  ASP760  ASP761  ALA762  ILE779  LEU786  VAL792 
 PHE793  MET794  SER795  GLU796  ALA797  LYS798  CYS799  TRP800  GLU811  SER814 

> <Gold.Protein.RotatedAtoms>
  152.2630  134.8013  160.0427 H   0  0  0  0  0  0  0  0  0  0  0  0  # atno 6907 bound_to 6896
  151.8653  133.3460  159.3725 H   0  0  0  0  0  0  0  0  0  0  0  0  # atno 6908 bound_to 6896
  150.7124  134.5093  159.5644 H   0  0  0  0  0  0  0  0  0  0  0  0  # atno 6909 bound_to 6896
  146.0736  140.6173  142.8941 H   0  0  0  0  0  0  0  0  0  0  0  0  # atno 7974 bound_to 7965
  156.3001  140.2487  156.3478 H   0  0  0  0  0  0  0  0  0  0  0  0  # atno 8008 bound_to 7997
  154.8994  140.0406  157.1904 H   0  0  0  0  0  0  0  0  0  0  0  0  # atno 8009 bound_to 7997
  154.8516  140.2906  155.5599 H   0  0  0  0  0  0  0  0  0  0  0  0  # atno 8010 bound_to 7997
  139.7701  143.8251  152.2623 H   0  0  0  0  0  0  0  0  0  0  0  0  # atno 10167 bound_to 10162
  156.7499  130.5236  149.5806 H   0  0  0  0  0  0  0  0  0  0  0  0  # atno 10718 bound_to 10713
  154.8315  135.3375  154.6728 H   0  0  0  0  0  0  0  0  0  0  0  0  # atno 10763 bound_to 10752
  153.7347  135.6950  153.4985 H   0  0  0  0  0  0  0  0  0  0  0  0  # atno 10764 bound_to 10752
  153.2287  135.4424  155.0522 H   0  0  0  0  0  0  0  0  0  0  0  0  # atno 10765 bound_to 10752
  141.1445  133.8018  157.0419 H   0  0  0  0  0  0  0  0  0  0  0  0  # atno 11005 bound_to 11000
  144.7247  140.4488  143.6982 LP  0  0  0  0  0  0  0  0  0  0  0  0  # atno 17320 bound_to 7965
  145.6346  139.1541  143.2950 LP  0  0  0  0  0  0  0  0  0  0  0  0  # atno 17321 bound_to 7965
  139.8282  144.7265  150.9484 LP  0  0  0  0  0  0  0  0  0  0  0  0  # atno 17342 bound_to 10162
  140.7813  143.4094  151.1017 LP  0  0  0  0  0  0  0  0  0  0  0  0  # atno 17343 bound_to 10162
  156.1408  130.6243  151.0464 LP  0  0  0  0  0  0  0  0  0  0  0  0  # atno 17370 bound_to 10713
  157.6781  131.0845  150.7441 LP  0  0  0  0  0  0  0  0  0  0  0  0  # atno 17371 bound_to 10713
  140.0687  134.9714  157.1430 LP  0  0  0  0  0  0  0  0  0  0  0  0  # atno 17394 bound_to 11000
  140.3742  134.2357  155.7175 LP  0  0  0  0  0  0  0  0  0  0  0  0  # atno 17395 bound_to 11000

$$$$
