AV-unprocessed.smi:683|AV-procd|sdf|3330|dock10
  -GOLD-   22720 0303D 1   1.00000     0.00000
 Structure written by MMmdl.
 30 31  0  0  0  0  0  0  0  0  1 V2000
  153.6235  142.6743  163.4996 N   0  0  0  0  0  0  0  0  0  0  0  0
  153.1183  142.8734  162.4779 C   0  0  0  0  0  0  0  0  0  0  0  0
  152.4841  143.1230  161.1942 C   0  0  0  0  0  0  0  0  0  0  0  0
  151.8251  144.3463  160.9604 C   0  0  0  0  0  0  0  0  0  0  0  0
  151.2111  144.5849  159.7172 C   0  0  0  0  0  0  0  0  0  0  0  0
  151.2557  143.6027  158.7096 C   0  0  0  0  0  0  0  0  0  0  0  0
  151.9112  142.3734  158.9274 C   0  0  0  0  0  0  0  0  0  0  0  0
  151.9055  141.4698  157.8864 O   0  0  0  0  0  0  0  0  0  0  0  0
  150.8047  141.4847  156.9884 C   0  0  0  0  0  0  0  0  0  0  0  0
  151.1485  140.6000  155.7803 C   0  0  0  0  0  0  0  0  0  0  0  0
  150.0161  140.3600  154.9208 N   0  0  0  0  0  0  0  0  0  0  0  0
  148.9872  141.2770  154.7712 C   0  0  0  0  0  0  0  0  0  0  0  0
  147.9089  141.0603  153.9797 C   0  0  0  0  0  0  0  0  0  0  0  0
  146.6659  142.2524  153.8454 Cl  0  0  0  0  0  0  0  0  0  0  0  0
  147.7885  139.8083  153.2333 C   0  0  0  0  0  0  0  0  0  0  0  0
  146.8579  139.5106  152.4871 O   0  0  0  0  0  0  0  0  0  0  0  0
  148.8440  138.9108  153.4214 N   0  0  0  0  0  0  0  0  0  0  0  0
  149.9563  139.1243  154.2362 C   0  0  0  0  0  0  0  0  0  0  0  0
  150.8228  138.2551  154.3326 O   0  0  0  0  0  0  0  0  0  0  0  0
  152.5276  142.1403  160.1833 C   0  0  0  0  0  0  0  0  0  0  0  0
  148.7962  138.0322  152.9261 H   0  0  0  0  0  0  0  0  0  0  0  0
  151.7869  145.1051  161.7292 H   0  0  0  0  0  0  0  0  0  0  0  0
  150.7055  145.5219  159.5356 H   0  0  0  0  0  0  0  0  0  0  0  0
  150.7822  143.7953  157.7580 H   0  0  0  0  0  0  0  0  0  0  0  0
  149.9105  141.1096  157.4884 H   0  0  0  0  0  0  0  0  0  0  0  0
  150.6063  142.5040  156.6525 H   0  0  0  0  0  0  0  0  0  0  0  0
  151.9088  141.0754  155.1585 H   0  0  0  0  0  0  0  0  0  0  0  0
  151.5554  139.6296  156.0730 H   0  0  0  0  0  0  0  0  0  0  0  0
  149.0417  142.2113  155.3118 H   0  0  0  0  0  0  0  0  0  0  0  0
  153.0391  141.2118  160.3904 H   0  0  0  0  0  0  0  0  0  0  0  0
  1  2  3  0  0  0  0
  2  3  1  0  0  0  0
  3 20  1  0  0  0  0
  3  4  2  0  0  0  0
  4  5  1  0  0  0  0
  4 22  1  0  0  0  0
  5  6  2  0  0  0  0
  5 23  1  0  0  0  0
  6  7  1  0  0  0  0
  6 24  1  0  0  0  0
  7  8  1  0  0  0  0
  7 20  2  0  0  0  0
  8  9  1  0  0  0  0
  9 10  1  0  0  0  0
  9 25  1  0  0  0  0
  9 26  1  0  0  0  0
 10 11  1  0  0  0  0
 10 27  1  0  0  0  0
 10 28  1  0  0  0  0
 11 18  1  0  0  0  0
 11 12  1  0  0  0  0
 12 13  2  0  0  0  0
 12 29  1  0  0  0  0
 13 14  1  0  0  0  0
 13 15  1  0  0  0  0
 15 16  2  0  0  0  0
 15 17  1  0  0  0  0
 17 21  1  0  0  0  0
 17 18  1  0  0  0  0
 18 19  2  0  0  0  0
 20 30  1  0  0  0  0
M  END
> <s_m_source_file>
AV-unprocessed.smi

> <i_m_source_file_index>
683

> <i_lp_mmshare_version>
43012

> <i_f3d_flags>
0

> <s_epik_input>
TiNDYzFbY0hdW2NIXVtjSF1jKFtjSF0xKU9bQ0gyXVtDSDJdbjJbY0hdYyhDbCljKD1PKVtuSF1jMj1P

> <s_epik_cmdline>
J2VwaWtfcHl0aG9uJywgJy1waCcsICc3LjAnLCAnLXRuJywgJzgnLCAnLW1hJywgJzIwMCcsICctbWV0YWxfYmluZGluZycsICctaW1hZScsICc8aW5maWxlLm1hZT4nLCAnLW9tYWUnLCAnPG91dGZpbGUubWFlPic=

> <r_lp_tautomer_probability>
0.999537

> <r_epik_Ionization_Penalty>
0.0498777

> <r_epik_Ionization_Penalty_Charging>
0.0498777

> <r_epik_Ionization_Penalty_Neutral>
0

> <r_epik_State_Penalty>
0.042632

> <r_epik_Charging_Adjusted_Penalty>
0.0925097

> <i_epik_Tot_Q>
0

> <i_epik_Tot_abs_Q>
0

> <r_epik_Metal_State_Penalty>
2.56282

> <b_epik_Metal_Only>
0

> <s_lp_Force_Field>
OPLS_2005

> <r_lp_Energy>
12.7666

> <b_lp_Chiralities_Consistent>
1

> <s_lp_Variant>
AV-unprocessed.smi:683-1

> <Gold.Version>
5.8.1

> <Gold.Id.Protein>
6NUR|6NUR_protein|mol2

> <Gold.PLP.Fitness>
52.2594

> <Gold.PLP.PLP>
-48.2203

> <Gold.PLP.part.hbond>
-1.8493

> <Gold.PLP.part.metal>
0.0000

> <Gold.PLP.part.buried>
-4.6238

> <Gold.PLP.part.nonpolar>
-42.3178

> <Gold.PLP.part.repulsive>
0.7209

> <Gold.PLP.ligand.clash>
0.0000

> <Gold.PLP.ligand.torsion>
0.8039

> <Gold.PLP.Chemscore.Hbond>
0.8775

> <Gold.PLP.Chemscore.CHOScore>
0.9979

> <Gold.PLP.Chemscore.Metal>
0.0000

> <Gold.Chemscore.Hbonds>
donor molecule, donor type, donor heavy atom, donor atom, acceptor molecule, acceptor atom, score
      L1  H    17    21       P1  7948  0.89
      L1  C    12    29       P1  8028  1.00

> <Gold.PLP.Chemscore.Internal.Correction>
0.0207

> <Gold.Rescore>
     Score         DG    S(hbond)    S(metal)    S(lipo)     H(rot)  DE(clash)    DE(int)     intcor
     14.08     -14.96       0.96        0.00      97.91       2.03       0.03       0.84       ----

> <Gold.Chemscore.Fitness>
14.0847

> <Gold.Chemscore.DG>
-14.9606

> <Gold.Chemscore.ZeroCoef>
-5.4800

> <Gold.Chemscore.Hbond>
0.9614

> <Gold.Chemscore.Metal>
0.0000

> <Gold.Chemscore.Lipo>
97.9093

> <Gold.Chemscore.Internal_Hbond>
0.0000

> <Gold.Chemscore.DEClash>
0.0317

> <Gold.Chemscore.DEInternal>
0.8442

> <Gold.Chemscore.Rot>
2.0258

> <Gold.Chemscore.Internal.Correction>
   9.000000E+99

> <Gold.Chemscore.Hbonds>
donor molecule, donor type, donor heavy atom, donor atom, acceptor molecule, acceptor atom, score
      L1  H    17    21       P1  7948  0.87

> <Gold.Chemscore.Hbond.Weighted>
-3.2112

> <Gold.Chemscore.Metal.Weighted>
-0.0000

> <Gold.Chemscore.Lipo.Weighted>
-11.4554

> <Gold.Chemscore.Internal_Hbond.Weighted>
0.0000

> <Gold.Chemscore.DEClash.Weighted>
0.0317

> <Gold.Chemscore.DEInternal.Weighted>
0.8442

> <Gold.Chemscore.Rot.Weighted>
5.1860

> <Gold.Chemscore.Internal.Correction.Weighted>
   9.000000E+99

> <Gold.Protein.RotatedTorsions>
[ 6907 6896 6895 6894 ] final  -42.20 input  -60.11 | X-H torsion
[ 7974 7965 7964 7962 ] final -103.77 input  175.53 | X-H torsion
[ 8008 7997 7996 7995 ] final  132.81 input   59.86 | X-H torsion
[ 10167 10162 10161 10158 ] final -104.06 input  -65.29 | X-H torsion
[ 10718 10713 10712 10709 ] final  -54.35 input   66.30 | X-H torsion
[ 10763 10752 10751 10750 ] final   43.96 input  -60.55 | X-H torsion
[ 11005 11000 10999 10996 ] final   50.27 input  -57.11 | X-H torsion

> <Gold.Protein.ActiveResidues>
 VAL166  LYS551  ARG553  GLY616  TRP617  ASP618  TYR619  PRO620  LYS621  CYS622 
 ASP623  PHE694  ASN695  SER759  ASP760  ASP761  ALA762  ILE779  LEU786  VAL792 
 PHE793  MET794  SER795  GLU796  ALA797  LYS798  CYS799  TRP800  GLU811  SER814 

> <Gold.Protein.RotatedAtoms>
  150.9579  134.8971  159.7712 H   0  0  0  0  0  0  0  0  0  0  0  0  # atno 6907 bound_to 6896
  152.5145  134.3714  159.9329 H   0  0  0  0  0  0  0  0  0  0  0  0  # atno 6908 bound_to 6896
  151.3727  133.3809  159.2736 H   0  0  0  0  0  0  0  0  0  0  0  0  # atno 6909 bound_to 6896
  145.2517  140.9240  143.3091 H   0  0  0  0  0  0  0  0  0  0  0  0  # atno 7974 bound_to 7965
  156.2986  140.2537  156.3151 H   0  0  0  0  0  0  0  0  0  0  0  0  # atno 8008 bound_to 7997
  154.9289  140.0399  157.2056 H   0  0  0  0  0  0  0  0  0  0  0  0  # atno 8009 bound_to 7997
  154.8237  140.2864  155.5773 H   0  0  0  0  0  0  0  0  0  0  0  0  # atno 8010 bound_to 7997
  140.2133  143.3730  152.1032 H   0  0  0  0  0  0  0  0  0  0  0  0  # atno 10167 bound_to 10162
  156.1458  130.4153  150.0027 H   0  0  0  0  0  0  0  0  0  0  0  0  # atno 10718 bound_to 10713
  152.9850  135.6085  154.3197 H   0  0  0  0  0  0  0  0  0  0  0  0  # atno 10763 bound_to 10752
  154.2907  135.2775  155.2657 H   0  0  0  0  0  0  0  0  0  0  0  0  # atno 10764 bound_to 10752
  154.4954  135.5881  153.6547 H   0  0  0  0  0  0  0  0  0  0  0  0  # atno 10765 bound_to 10752
  140.1032  134.5053  155.8743 H   0  0  0  0  0  0  0  0  0  0  0  0  # atno 11005 bound_to 11000
  144.9497  139.4097  143.6408 LP  0  0  0  0  0  0  0  0  0  0  0  0  # atno 17320 bound_to 7965
  146.3300  139.8498  142.8875 LP  0  0  0  0  0  0  0  0  0  0  0  0  # atno 17321 bound_to 7965
  139.5171  144.6987  151.5555 LP  0  0  0  0  0  0  0  0  0  0  0  0  # atno 17342 bound_to 10162
  140.6307  143.9081  150.6603 LP  0  0  0  0  0  0  0  0  0  0  0  0  # atno 17343 bound_to 10162
  156.7899  130.9252  151.3646 LP  0  0  0  0  0  0  0  0  0  0  0  0  # atno 17370 bound_to 10713
  157.6615  130.8970  149.9840 LP  0  0  0  0  0  0  0  0  0  0  0  0  # atno 17371 bound_to 10713
  141.2111  133.6703  156.6559 LP  0  0  0  0  0  0  0  0  0  0  0  0  # atno 17394 bound_to 11000
  140.3191  134.8022  157.4238 LP  0  0  0  0  0  0  0  0  0  0  0  0  # atno 17395 bound_to 11000

$$$$
