AV-unprocessed.smi:1453|AV-procd|sdf|5912|dock7
  -GOLD-   22720 5593D 1   1.00000     0.00000
 Structure written by MMmdl.
 43 44  0  0  0  0  0  0  0  0  1 V2000
  149.2504  133.2541  154.6609 C   0  0  0  0  0  0  0  0  0  0  0  0
  150.1673  134.4568  154.9364 C   0  0  1  0  0  0  0  0  0  0  0  0
  149.4223  135.7884  154.7716 C   0  0  0  0  0  0  0  0  0  0  0  0
  148.1929  135.8280  154.8251 O   0  0  0  0  0  0  0  0  0  0  0  0
  150.1810  136.8765  154.5634 N   0  0  0  0  0  0  0  0  0  0  0  0
  149.6667  138.2299  154.3796 C   0  0  0  0  0  0  0  0  0  0  0  0
  150.2554  139.2626  155.3308 C   0  0  0  0  0  0  0  0  0  0  0  0
  149.9810  140.6314  155.1462 C   0  0  0  0  0  0  0  0  0  0  0  0
  150.5260  141.5675  156.0456 C   0  0  0  0  0  0  0  0  0  0  0  0
  151.3310  141.1101  157.1159 C   0  0  0  0  0  0  0  0  0  0  0  0
  151.8851  142.0305  158.0324 N   0  0  0  0  0  0  0  0  0  0  0  0
  151.5647  143.4351  157.7902 C   0  0  0  0  0  0  0  0  0  0  0  0
  152.4577  144.3452  158.6508 C   0  0  0  0  0  0  0  0  0  0  0  0
  152.3396  143.9805  160.0218 O   0  0  0  0  0  0  0  0  0  0  0  0
  152.7667  142.6419  160.2512 C   0  0  0  0  0  0  0  0  0  0  0  0
  151.8830  141.6714  159.4496 C   0  0  0  0  0  0  0  0  0  0  0  0
  151.5947  139.7912  157.2897 N   0  0  0  0  0  0  0  0  0  0  0  0
  151.0692  138.8983  156.4250 C   0  0  0  0  0  0  0  0  0  0  0  0
  150.8781  134.3313  156.6447 S   0  0  0  0  0  0  0  0  0  0  0  0
  151.6775  132.6713  156.6419 C   0  0  0  0  0  0  0  0  0  0  0  0
  151.9331  135.3444  156.8003 O   0  0  0  0  0  0  0  0  0  0  0  0
  149.7616  134.3010  157.6017 O   0  0  0  0  0  0  0  0  0  0  0  0
  148.7907  133.3224  153.6743 H   0  0  0  0  0  0  0  0  0  0  0  0
  148.4507  133.1820  155.3992 H   0  0  0  0  0  0  0  0  0  0  0  0
  149.8137  132.3215  154.6956 H   0  0  0  0  0  0  0  0  0  0  0  0
  151.0032  134.4228  154.2368 H   0  0  0  0  0  0  0  0  0  0  0  0
  151.1835  136.7612  154.5289 H   0  0  0  0  0  0  0  0  0  0  0  0
  149.8238  138.5463  153.3468 H   0  0  0  0  0  0  0  0  0  0  0  0
  148.5876  138.2043  154.5318 H   0  0  0  0  0  0  0  0  0  0  0  0
  149.3640  140.9640  154.3244 H   0  0  0  0  0  0  0  0  0  0  0  0
  150.3324  142.6191  155.8962 H   0  0  0  0  0  0  0  0  0  0  0  0
  151.6919  143.7042  156.7428 H   0  0  0  0  0  0  0  0  0  0  0  0
  150.5154  143.6034  158.0359 H   0  0  0  0  0  0  0  0  0  0  0  0
  153.4999  144.2792  158.3342 H   0  0  0  0  0  0  0  0  0  0  0  0
  152.1555  145.3859  158.5334 H   0  0  0  0  0  0  0  0  0  0  0  0
  153.8166  142.5306  159.9747 H   0  0  0  0  0  0  0  0  0  0  0  0
  152.6936  142.4233  161.3165 H   0  0  0  0  0  0  0  0  0  0  0  0
  150.8604  141.6987  159.8283 H   0  0  0  0  0  0  0  0  0  0  0  0
  152.2536  140.6543  159.5815 H   0  0  0  0  0  0  0  0  0  0  0  0
  151.3066  137.8633  156.6217 H   0  0  0  0  0  0  0  0  0  0  0  0
  152.0585  132.4553  157.6398 H   0  0  0  0  0  0  0  0  0  0  0  0
  152.5065  132.6588  155.9351 H   0  0  0  0  0  0  0  0  0  0  0  0
  150.9462  131.9128  156.3642 H   0  0  0  0  0  0  0  0  0  0  0  0
  1  2  1  0  0  0  0
  1 23  1  0  0  0  0
  1 24  1  0  0  0  0
  1 25  1  0  0  0  0
  2  3  1  0  0  0  0
  2 19  1  0  0  0  0
  2 26  1  0  0  0  0
  3  4  2  0  0  0  0
  3  5  1  0  0  0  0
  5  6  1  0  0  0  0
  5 27  1  0  0  0  0
  6  7  1  0  0  0  0
  6 28  1  0  0  0  0
  6 29  1  0  0  0  0
  7 18  1  0  0  0  0
  7  8  2  0  0  0  0
  8  9  1  0  0  0  0
  8 30  1  0  0  0  0
  9 10  2  0  0  0  0
  9 31  1  0  0  0  0
 10 11  1  0  0  0  0
 10 17  1  0  0  0  0
 11 16  1  0  0  0  0
 11 12  1  0  0  0  0
 12 13  1  0  0  0  0
 12 32  1  0  0  0  0
 12 33  1  0  0  0  0
 13 14  1  0  0  0  0
 13 34  1  0  0  0  0
 13 35  1  0  0  0  0
 14 15  1  0  0  0  0
 15 16  1  0  0  0  0
 15 36  1  0  0  0  0
 15 37  1  0  0  0  0
 16 38  1  0  0  0  0
 16 39  1  0  0  0  0
 17 18  2  0  0  0  0
 18 40  1  0  0  0  0
 19 20  1  0  0  0  0
 19 21  2  0  0  0  0
 19 22  2  0  0  0  0
 20 41  1  0  0  0  0
 20 42  1  0  0  0  0
 20 43  1  0  0  0  0
M  END
> <s_m_source_file>
AV-unprocessed.smi

> <i_m_source_file_index>
1453

> <i_lp_mmshare_version>
43012

> <i_f3d_flags>
0

> <s_epik_input>
W0NIM11TKD1PKSg9TylbQ0BIXShbQ0gzXSlDKD1PKVtOSF1bQ0gyXWMxW2NIXVtjSF1jKG5bY0hdMSlOMltDSDJdW0NIMl1PW0NIMl1bQ0gyXTI=

> <s_epik_cmdline>
J2VwaWtfcHl0aG9uJywgJy1waCcsICc3LjAnLCAnLXRuJywgJzgnLCAnLW1hJywgJzIwMCcsICctbWV0YWxfYmluZGluZycsICctaW1hZScsICc8aW5maWxlLm1hZT4nLCAnLW9tYWUnLCAnPG91dGZpbGUubWFlPic=

> <r_lp_tautomer_probability>
1

> <r_epik_Ionization_Penalty>
0.00349781

> <r_epik_Ionization_Penalty_Charging>
0

> <r_epik_Ionization_Penalty_Neutral>
0.00349781

> <r_epik_State_Penalty>
0.00248024

> <r_epik_Charging_Adjusted_Penalty>
0.00248024

> <i_epik_Tot_Q>
0

> <i_epik_Tot_abs_Q>
0

> <r_epik_Metal_State_Penalty>
-0

> <b_epik_Metal_Only>
0

> <s_lp_Force_Field>
OPLS_2005

> <r_lp_Energy>
14.4852

> <b_lp_Chiralities_Consistent>
1

> <s_lp_Variant>
AV-unprocessed.smi:1453-2

> <Gold.Version>
5.8.1

> <Gold.Id.Protein>
6NUR|6NUR_protein|mol2

> <Gold.PLP.Fitness>
40.4751

> <Gold.PLP.PLP>
-36.5875

> <Gold.PLP.part.hbond>
-3.0384

> <Gold.PLP.part.metal>
0.0000

> <Gold.PLP.part.buried>
-2.8158

> <Gold.PLP.part.nonpolar>
-31.5083

> <Gold.PLP.part.repulsive>
0.5127

> <Gold.PLP.ligand.clash>
0.0000

> <Gold.PLP.ligand.torsion>
0.9835

> <Gold.PLP.Chemscore.Hbond>
1.7840

> <Gold.PLP.Chemscore.CHOScore>
0.0000

> <Gold.PLP.Chemscore.Metal>
0.0000

> <Gold.Chemscore.Hbonds>
donor molecule, donor type, donor heavy atom, donor atom, acceptor molecule, acceptor atom, score
      P1  H  6896  6907       L1    22  0.65
      P1  H 10752 10763       L1    21  0.73

> <Gold.PLP.Chemscore.Internal.Correction>
0.5027

> <Gold.Rescore>
     Score         DG    S(hbond)    S(metal)    S(lipo)     H(rot)  DE(clash)    DE(int)     intcor
     16.01     -16.99       1.80        0.00      92.51       2.08       0.10       0.89       ----

> <Gold.Chemscore.Fitness>
16.0090

> <Gold.Chemscore.DG>
-16.9915

> <Gold.Chemscore.ZeroCoef>
-5.4800

> <Gold.Chemscore.Hbond>
1.7973

> <Gold.Chemscore.Metal>
0.0000

> <Gold.Chemscore.Lipo>
92.5123

> <Gold.Chemscore.Internal_Hbond>
0.0000

> <Gold.Chemscore.DEClash>
0.0956

> <Gold.Chemscore.DEInternal>
0.8869

> <Gold.Chemscore.Rot>
2.0764

> <Gold.Chemscore.Internal.Correction>
   9.000000E+99

> <Gold.Chemscore.Hbonds>
donor molecule, donor type, donor heavy atom, donor atom, acceptor molecule, acceptor atom, score
      P1  H  6896  6907       L1    22  0.10
      P1  H 10752 10763       L1    21  0.66

> <Gold.Chemscore.Hbond.Weighted>
-6.0031

> <Gold.Chemscore.Metal.Weighted>
-0.0000

> <Gold.Chemscore.Lipo.Weighted>
-10.8239

> <Gold.Chemscore.Internal_Hbond.Weighted>
0.0000

> <Gold.Chemscore.DEClash.Weighted>
0.0956

> <Gold.Chemscore.DEInternal.Weighted>
0.8869

> <Gold.Chemscore.Rot.Weighted>
5.3155

> <Gold.Chemscore.Internal.Correction.Weighted>
   9.000000E+99

> <Gold.Protein.RotatedTorsions>
[ 6907 6896 6895 6894 ] final -126.91 input  -60.11 | X-H torsion
[ 7974 7965 7964 7962 ] final  -36.37 input  175.53 | X-H torsion
[ 8008 7997 7996 7995 ] final    9.97 input   59.86 | X-H torsion
[ 10167 10162 10161 10158 ] final   43.26 input  -65.29 | X-H torsion
[ 10718 10713 10712 10709 ] final   21.41 input   66.30 | X-H torsion
[ 10763 10752 10751 10750 ] final  114.77 input  -60.55 | X-H torsion
[ 11005 11000 10999 10996 ] final   12.33 input  -57.11 | X-H torsion

> <Gold.Protein.ActiveResidues>
 VAL166  LYS551  ARG553  GLY616  TRP617  ASP618  TYR619  PRO620  LYS621  CYS622 
 ASP623  PHE694  ASN695  SER759  ASP760  ASP761  ALA762  ILE779  LEU786  VAL792 
 PHE793  MET794  SER795  GLU796  ALA797  LYS798  CYS799  TRP800  GLU811  SER814 

> <Gold.Protein.RotatedAtoms>
  150.9018  133.7109  159.2876 H   0  0  0  0  0  0  0  0  0  0  0  0  # atno 6907 bound_to 6896
  151.4625  135.1038  159.9738 H   0  0  0  0  0  0  0  0  0  0  0  0  # atno 6908 bound_to 6896
  152.4881  133.8377  159.7192 H   0  0  0  0  0  0  0  0  0  0  0  0  # atno 6909 bound_to 6896
  146.0667  140.6270  142.8971 H   0  0  0  0  0  0  0  0  0  0  0  0  # atno 7974 bound_to 7965
  154.7871  140.2829  155.6019 H   0  0  0  0  0  0  0  0  0  0  0  0  # atno 8008 bound_to 7997
  156.2959  140.2612  156.2638 H   0  0  0  0  0  0  0  0  0  0  0  0  # atno 8009 bound_to 7997
  154.9715  140.0376  157.2226 H   0  0  0  0  0  0  0  0  0  0  0  0  # atno 8010 bound_to 7997
  140.3461  144.2409  150.6150 H   0  0  0  0  0  0  0  0  0  0  0  0  # atno 10167 bound_to 10162
  157.1380  130.6620  149.5972 H   0  0  0  0  0  0  0  0  0  0  0  0  # atno 10718 bound_to 10713
  153.5123  135.3615  155.2592 H   0  0  0  0  0  0  0  0  0  0  0  0  # atno 10763 bound_to 10752
  154.8741  135.4025  154.3355 H   0  0  0  0  0  0  0  0  0  0  0  0  # atno 10764 bound_to 10752
  153.4010  135.7075  153.6493 H   0  0  0  0  0  0  0  0  0  0  0  0  # atno 10765 bound_to 10752
  140.4932  134.0820  155.7776 H   0  0  0  0  0  0  0  0  0  0  0  0  # atno 11005 bound_to 11000
  144.7207  140.4363  143.7010 LP  0  0  0  0  0  0  0  0  0  0  0  0  # atno 17320 bound_to 7965
  145.6464  139.1558  143.2887 LP  0  0  0  0  0  0  0  0  0  0  0  0  # atno 17321 bound_to 7965
  140.5263  143.2253  151.8309 LP  0  0  0  0  0  0  0  0  0  0  0  0  # atno 17342 bound_to 10162
  139.4833  144.4775  151.9348 LP  0  0  0  0  0  0  0  0  0  0  0  0  # atno 17343 bound_to 10162
  155.9794  130.4787  150.6714 LP  0  0  0  0  0  0  0  0  0  0  0  0  # atno 17370 bound_to 10713
  157.4332  131.0852  151.1017 LP  0  0  0  0  0  0  0  0  0  0  0  0  # atno 17371 bound_to 10713
  141.1473  133.9031  157.2183 LP  0  0  0  0  0  0  0  0  0  0  0  0  # atno 17394 bound_to 11000
  139.9757  135.0114  156.9624 LP  0  0  0  0  0  0  0  0  0  0  0  0  # atno 17395 bound_to 11000

$$$$
