AV-unprocessed.smi:3182|AV-procd|sdf|12152|dock3
  -GOLD-   2272017593D 1   1.00000     0.00000
 Structure written by MMmdl.
 37 38  0  0  0  0  0  0  0  0  1 V2000
  151.7974  139.7394  155.6776 C   0  0  0  0  0  0  0  0  0  0  0  0
  150.9771  140.4895  154.7901 O   0  0  0  0  0  0  0  0  0  0  0  0
  149.6028  140.7139  155.1343 C   0  0  0  0  0  0  0  0  0  0  0  0
  149.6958  141.3792  156.5329 C   0  0  0  0  0  0  0  0  0  0  0  0
  150.4017  142.6587  156.5144 N   0  0  0  0  0  0  0  0  0  0  0  0
  151.3060  143.0168  157.5252 C   0  0  0  0  0  0  0  0  0  0  0  0
  151.6393  144.3792  157.6772 C   0  0  0  0  0  0  0  0  0  0  0  0
  152.5375  144.7494  158.6969 C   0  0  0  0  0  0  0  0  0  0  0  0
  153.0737  143.7472  159.5273 C   0  0  0  0  0  0  0  0  0  0  0  0
  152.6873  142.4110  159.2957 C   0  0  0  0  0  0  0  0  0  0  0  0
  153.2224  141.2842  160.1540 C   0  0  0  0  0  0  0  0  0  0  0  0
  151.8276  142.0516  158.3181 N   0  0  0  0  0  0  0  0  0  0  0  0
  148.8319  141.5829  154.1048 C   0  0  0  0  0  0  0  0  0  0  0  0
  147.3283  141.6463  154.4279 C   0  0  0  0  0  0  0  0  0  0  0  0
  146.7887  140.3303  154.4719 O   0  0  0  0  0  0  0  0  0  0  0  0
  147.3657  139.5263  155.4949 C   0  0  0  0  0  0  0  0  0  0  0  0
  148.8756  139.3531  155.2449 C   0  0  0  0  0  0  0  0  0  0  0  0
  152.8255  139.7718  155.3175 H   0  0  0  0  0  0  0  0  0  0  0  0
  151.5031  138.6904  155.7048 H   0  0  0  0  0  0  0  0  0  0  0  0
  151.7959  140.1352  156.6921 H   0  0  0  0  0  0  0  0  0  0  0  0
  148.7132  141.4782  156.9905 H   0  0  0  0  0  0  0  0  0  0  0  0
  150.2551  140.7233  157.2007 H   0  0  0  0  0  0  0  0  0  0  0  0
  149.9717  143.4043  155.9864 H   0  0  0  0  0  0  0  0  0  0  0  0
  151.2115  145.1309  157.0300 H   0  0  0  0  0  0  0  0  0  0  0  0
  152.8082  145.7849  158.8410 H   0  0  0  0  0  0  0  0  0  0  0  0
  153.7631  144.0004  160.3194 H   0  0  0  0  0  0  0  0  0  0  0  0
  154.0034  141.6365  160.8284 H   0  0  0  0  0  0  0  0  0  0  0  0
  153.6439  140.4963  159.5293 H   0  0  0  0  0  0  0  0  0  0  0  0
  152.4199  140.8544  160.7542 H   0  0  0  0  0  0  0  0  0  0  0  0
  149.2517  142.5863  154.0382 H   0  0  0  0  0  0  0  0  0  0  0  0
  148.9167  141.1549  153.1064 H   0  0  0  0  0  0  0  0  0  0  0  0
  147.1358  142.1589  155.3698 H   0  0  0  0  0  0  0  0  0  0  0  0
  146.8078  142.2114  153.6545 H   0  0  0  0  0  0  0  0  0  0  0  0
  147.1684  139.9649  156.4735 H   0  0  0  0  0  0  0  0  0  0  0  0
  146.8763  138.5522  155.4880 H   0  0  0  0  0  0  0  0  0  0  0  0
  148.9907  138.7828  154.3244 H   0  0  0  0  0  0  0  0  0  0  0  0
  149.3194  138.7456  156.0345 H   0  0  0  0  0  0  0  0  0  0  0  0
  1  2  1  0  0  0  0
  1 18  1  0  0  0  0
  1 19  1  0  0  0  0
  1 20  1  0  0  0  0
  2  3  1  0  0  0  0
  3 17  1  0  0  0  0
  3  4  1  0  0  0  0
  3 13  1  0  0  0  0
  4  5  1  0  0  0  0
  4 21  1  0  0  0  0
  4 22  1  0  0  0  0
  5  6  1  0  0  0  0
  5 23  1  0  0  0  0
  6 12  1  0  0  0  0
  6  7  2  0  0  0  0
  7  8  1  0  0  0  0
  7 24  1  0  0  0  0
  8  9  2  0  0  0  0
  8 25  1  0  0  0  0
  9 10  1  0  0  0  0
  9 26  1  0  0  0  0
 10 11  1  0  0  0  0
 10 12  2  0  0  0  0
 11 27  1  0  0  0  0
 11 28  1  0  0  0  0
 11 29  1  0  0  0  0
 13 14  1  0  0  0  0
 13 30  1  0  0  0  0
 13 31  1  0  0  0  0
 14 15  1  0  0  0  0
 14 32  1  0  0  0  0
 14 33  1  0  0  0  0
 15 16  1  0  0  0  0
 16 17  1  0  0  0  0
 16 34  1  0  0  0  0
 16 35  1  0  0  0  0
 17 36  1  0  0  0  0
 17 37  1  0  0  0  0
M  END
> <s_m_source_file>
AV-unprocessed.smi

> <i_m_source_file_index>
3182

> <i_lp_mmshare_version>
43012

> <i_f3d_flags>
0

> <s_epik_input>
W0NIMl0xW0NIMl1PW0NIMl1bQ0gyXUMxKE9bQ0gzXSlbQ0gyXVtOSF1jMltjSF1bY0hdW2NIXWMobjIpW0NIM10=

> <s_epik_cmdline>
J2VwaWtfcHl0aG9uJywgJy1waCcsICc3LjAnLCAnLXRuJywgJzgnLCAnLW1hJywgJzIwMCcsICctbWV0YWxfYmluZGluZycsICctaW1hZScsICc8aW5maWxlLm1hZT4nLCAnLW9tYWUnLCAnPG91dGZpbGUubWFlPic=

> <r_lp_tautomer_probability>
1

> <r_epik_Ionization_Penalty>
1.20659

> <r_epik_Ionization_Penalty_Charging>
0

> <r_epik_Ionization_Penalty_Neutral>
1.20659

> <r_epik_State_Penalty>
1.27263

> <r_epik_Charging_Adjusted_Penalty>
1.27263

> <i_epik_Tot_Q>
0

> <i_epik_Tot_abs_Q>
0

> <r_epik_Metal_State_Penalty>
0.00446659

> <b_epik_Metal_Only>
0

> <s_lp_Force_Field>
OPLS_2005

> <r_lp_Energy>
17.6133

> <b_lp_Chiralities_Consistent>
1

> <s_lp_Variant>
AV-unprocessed.smi:3182-2

> <Gold.Version>
5.8.1

> <Gold.Id.Protein>
6NUR|6NUR_protein|mol2

> <Gold.PLP.Fitness>
44.0476

> <Gold.PLP.PLP>
-38.4696

> <Gold.PLP.part.hbond>
-1.8395

> <Gold.PLP.part.metal>
0.0000

> <Gold.PLP.part.buried>
-2.5264

> <Gold.PLP.part.nonpolar>
-34.1337

> <Gold.PLP.part.repulsive>
0.2595

> <Gold.PLP.ligand.clash>
0.0000

> <Gold.PLP.ligand.torsion>
0.2186

> <Gold.PLP.Chemscore.Hbond>
2.0000

> <Gold.PLP.Chemscore.CHOScore>
0.0000

> <Gold.PLP.Chemscore.Metal>
0.0000

> <Gold.Chemscore.Hbonds>
donor molecule, donor type, donor heavy atom, donor atom, acceptor molecule, acceptor atom, score
      L1  H     5    23       P1  8028  1.00
      P1  H  7989  7998       L1     2  0.91

> <Gold.PLP.Chemscore.Internal.Correction>
0.0152

> <Gold.Rescore>
     Score         DG    S(hbond)    S(metal)    S(lipo)     H(rot)  DE(clash)    DE(int)     intcor
     19.72     -19.91       1.93        0.00      97.64       1.35       0.01       0.17       ----

> <Gold.Chemscore.Fitness>
19.7218

> <Gold.Chemscore.DG>
-19.9060

> <Gold.Chemscore.ZeroCoef>
-5.4800

> <Gold.Chemscore.Hbond>
1.9312

> <Gold.Chemscore.Metal>
0.0000

> <Gold.Chemscore.Lipo>
97.6446

> <Gold.Chemscore.Internal_Hbond>
0.0000

> <Gold.Chemscore.DEClash>
0.0150

> <Gold.Chemscore.DEInternal>
0.1693

> <Gold.Chemscore.Rot>
1.3471

> <Gold.Chemscore.Internal.Correction>
   9.000000E+99

> <Gold.Chemscore.Hbonds>
donor molecule, donor type, donor heavy atom, donor atom, acceptor molecule, acceptor atom, score
      L1  H     5    23       P1  8028  0.99
      P1  H  7989  7998       L1     2  0.77

> <Gold.Chemscore.Hbond.Weighted>
-6.4502

> <Gold.Chemscore.Metal.Weighted>
-0.0000

> <Gold.Chemscore.Lipo.Weighted>
-11.4244

> <Gold.Chemscore.Internal_Hbond.Weighted>
0.0000

> <Gold.Chemscore.DEClash.Weighted>
0.0150

> <Gold.Chemscore.DEInternal.Weighted>
0.1693

> <Gold.Chemscore.Rot.Weighted>
3.4486

> <Gold.Chemscore.Internal.Correction.Weighted>
   9.000000E+99

> <Gold.Protein.RotatedTorsions>
[ 6907 6896 6895 6894 ] final  -51.33 input  -60.11 | X-H torsion
[ 7974 7965 7964 7962 ] final -108.15 input  175.53 | X-H torsion
[ 8008 7997 7996 7995 ] final  154.29 input   59.86 | X-H torsion
[ 10167 10162 10161 10158 ] final  136.73 input  -65.29 | X-H torsion
[ 10718 10713 10712 10709 ] final  143.14 input   66.30 | X-H torsion
[ 10763 10752 10751 10750 ] final  -79.94 input  -60.55 | X-H torsion
[ 11005 11000 10999 10996 ] final  176.34 input  -57.11 | X-H torsion

> <Gold.Protein.ActiveResidues>
 VAL166  LYS551  ARG553  GLY616  TRP617  ASP618  TYR619  PRO620  LYS621  CYS622 
 ASP623  PHE694  ASN695  SER759  ASP760  ASP761  ALA762  ILE779  LEU786  VAL792 
 PHE793  MET794  SER795  GLU796  ALA797  LYS798  CYS799  TRP800  GLU811  SER814 

> <Gold.Protein.RotatedAtoms>
  150.8621  134.7976  159.7090 H   0  0  0  0  0  0  0  0  0  0  0  0  # atno 6907 bound_to 6896
  152.4655  134.5083  159.9755 H   0  0  0  0  0  0  0  0  0  0  0  0  # atno 6908 bound_to 6896
  151.5185  133.3433  159.2933 H   0  0  0  0  0  0  0  0  0  0  0  0  # atno 6909 bound_to 6896
  145.1965  140.9038  143.3394 H   0  0  0  0  0  0  0  0  0  0  0  0  # atno 7974 bound_to 7965
  156.2539  140.1971  156.6622 H   0  0  0  0  0  0  0  0  0  0  0  0  # atno 8008 bound_to 7997
  154.6455  140.0578  156.9921 H   0  0  0  0  0  0  0  0  0  0  0  0  # atno 8009 bound_to 7997
  155.1497  140.3250  155.4436 H   0  0  0  0  0  0  0  0  0  0  0  0  # atno 8010 bound_to 7997
  139.5169  144.6448  151.5468 H   0  0  0  0  0  0  0  0  0  0  0  0  # atno 10167 bound_to 10162
  157.3724  131.0981  151.0816 H   0  0  0  0  0  0  0  0  0  0  0  0  # atno 10718 bound_to 10713
  154.5449  135.5678  153.6871 H   0  0  0  0  0  0  0  0  0  0  0  0  # atno 10763 bound_to 10752
  152.9973  135.6237  154.2452 H   0  0  0  0  0  0  0  0  0  0  0  0  # atno 10764 bound_to 10752
  154.2384  135.2863  155.2843 H   0  0  0  0  0  0  0  0  0  0  0  0  # atno 10765 bound_to 10752
  140.3720  134.7021  157.4398 H   0  0  0  0  0  0  0  0  0  0  0  0  # atno 11005 bound_to 11000
  144.9990  139.3617  143.6177 LP  0  0  0  0  0  0  0  0  0  0  0  0  # atno 17320 bound_to 7965
  146.3426  139.9205  142.8767 LP  0  0  0  0  0  0  0  0  0  0  0  0  # atno 17321 bound_to 7965
  140.6229  143.9223  150.6541 LP  0  0  0  0  0  0  0  0  0  0  0  0  # atno 17342 bound_to 10162
  140.2503  143.3598  152.1411 LP  0  0  0  0  0  0  0  0  0  0  0  0  # atno 17343 bound_to 10162
  157.1915  130.6354  149.5706 LP  0  0  0  0  0  0  0  0  0  0  0  0  # atno 17370 bound_to 10713
  155.9758  130.4720  150.6486 LP  0  0  0  0  0  0  0  0  0  0  0  0  # atno 17371 bound_to 10713
  140.0544  134.6084  155.8823 LP  0  0  0  0  0  0  0  0  0  0  0  0  # atno 17394 bound_to 11000
  141.1951  133.6586  156.5628 LP  0  0  0  0  0  0  0  0  0  0  0  0  # atno 17395 bound_to 11000

$$$$
