AV-unprocessed.smi:2608|AV-procd|sdf|10204|dock2
  -GOLD-   2272014213D 1   1.00000     0.00000
 Structure written by MMmdl.
 40 41  0  0  0  0  0  0  0  0  1 V2000
  153.8538  142.0130  160.6656 C   0  0  0  0  0  0  0  0  0  0  0  0
  152.9323  142.8387  159.7551 C   0  0  0  0  0  0  0  0  0  0  0  0
  152.5346  144.1545  160.4485 C   0  0  0  0  0  0  0  0  0  0  0  0
  151.7181  141.9943  159.3041 C   0  0  0  0  0  0  0  0  0  0  0  0
  152.0582  140.9419  158.2438 C   0  0  0  0  0  0  0  0  0  0  0  0
  153.0778  140.2631  158.3630 O   0  0  0  0  0  0  0  0  0  0  0  0
  151.1857  140.8413  157.2251 N   0  0  0  0  0  0  0  0  0  0  0  0
  151.2175  139.9551  156.1112 C   0  0  0  0  0  0  0  0  0  0  0  0
  152.2907  139.0651  155.8644 C   0  0  0  0  0  0  0  0  0  0  0  0
  152.2490  138.2410  154.7249 C   0  0  0  0  0  0  0  0  0  0  0  0
  151.1403  138.3422  153.8655 C   0  0  0  0  0  0  0  0  0  0  0  0
  150.1177  139.1956  154.0772 N   0  0  0  0  0  0  0  0  0  0  0  0
  150.1537  139.9906  155.1738 C   0  0  0  0  0  0  0  0  0  0  0  0
  149.0748  140.8694  155.3686 N   0  0  0  0  0  0  0  0  0  0  0  0
  148.2624  141.0816  154.1778 C   0  0  0  0  0  0  0  0  0  0  0  0
  147.2078  142.1674  154.4518 C   0  0  0  0  0  0  0  0  0  0  0  0
  146.4256  141.7979  155.5841 O   0  0  0  0  0  0  0  0  0  0  0  0
  147.2172  141.6609  156.7613 C   0  0  0  0  0  0  0  0  0  0  0  0
  148.2749  140.5643  156.5480 C   0  0  0  0  0  0  0  0  0  0  0  0
  153.3426  141.7166  161.5820 H   0  0  0  0  0  0  0  0  0  0  0  0
  154.7410  142.5808  160.9475 H   0  0  0  0  0  0  0  0  0  0  0  0
  154.1927  141.1055  160.1651 H   0  0  0  0  0  0  0  0  0  0  0  0
  153.5114  143.0976  158.8672 H   0  0  0  0  0  0  0  0  0  0  0  0
  151.9013  143.9684  161.3165 H   0  0  0  0  0  0  0  0  0  0  0  0
  151.9935  144.8198  159.7764 H   0  0  0  0  0  0  0  0  0  0  0  0
  153.4153  144.6979  160.7918 H   0  0  0  0  0  0  0  0  0  0  0  0
  151.2808  141.4890  160.1669 H   0  0  0  0  0  0  0  0  0  0  0  0
  150.9354  142.6452  158.9123 H   0  0  0  0  0  0  0  0  0  0  0  0
  150.3504  141.4033  157.3035 H   0  0  0  0  0  0  0  0  0  0  0  0
  153.1488  139.0107  156.5162 H   0  0  0  0  0  0  0  0  0  0  0  0
  153.0518  137.5510  154.5121 H   0  0  0  0  0  0  0  0  0  0  0  0
  151.0755  137.7269  152.9805 H   0  0  0  0  0  0  0  0  0  0  0  0
  148.8990  141.3779  153.3432 H   0  0  0  0  0  0  0  0  0  0  0  0
  147.7697  140.1501  153.8953 H   0  0  0  0  0  0  0  0  0  0  0  0
  147.6817  143.1353  154.6245 H   0  0  0  0  0  0  0  0  0  0  0  0
  146.5524  142.2826  153.5883 H   0  0  0  0  0  0  0  0  0  0  0  0
  147.6888  142.6135  157.0076 H   0  0  0  0  0  0  0  0  0  0  0  0
  146.5687  141.4007  157.5979 H   0  0  0  0  0  0  0  0  0  0  0  0
  147.7849  139.5977  156.4219 H   0  0  0  0  0  0  0  0  0  0  0  0
  148.9202  140.4888  157.4242 H   0  0  0  0  0  0  0  0  0  0  0  0
  1  2  1  0  0  0  0
  1 20  1  0  0  0  0
  1 21  1  0  0  0  0
  1 22  1  0  0  0  0
  2  3  1  0  0  0  0
  2  4  1  0  0  0  0
  2 23  1  0  0  0  0
  3 24  1  0  0  0  0
  3 25  1  0  0  0  0
  3 26  1  0  0  0  0
  4  5  1  0  0  0  0
  4 27  1  0  0  0  0
  4 28  1  0  0  0  0
  5  6  2  0  0  0  0
  5  7  1  0  0  0  0
  7  8  1  0  0  0  0
  7 29  1  0  0  0  0
  8 13  1  0  0  0  0
  8  9  2  0  0  0  0
  9 10  1  0  0  0  0
  9 30  1  0  0  0  0
 10 11  2  0  0  0  0
 10 31  1  0  0  0  0
 11 12  1  0  0  0  0
 11 32  1  0  0  0  0
 12 13  2  0  0  0  0
 13 14  1  0  0  0  0
 14 19  1  0  0  0  0
 14 15  1  0  0  0  0
 15 16  1  0  0  0  0
 15 33  1  0  0  0  0
 15 34  1  0  0  0  0
 16 17  1  0  0  0  0
 16 35  1  0  0  0  0
 16 36  1  0  0  0  0
 17 18  1  0  0  0  0
 18 19  1  0  0  0  0
 18 37  1  0  0  0  0
 18 38  1  0  0  0  0
 19 39  1  0  0  0  0
 19 40  1  0  0  0  0
M  END
> <s_m_source_file>
AV-unprocessed.smi

> <i_m_source_file_index>
2608

> <i_lp_mmshare_version>
43012

> <i_f3d_flags>
0

> <s_epik_input>
W0NIM11bQ0hdKFtDSDNdKVtDSDJdQyg9TylbTkhdYzFbY0hdW2NIXVtjSF1uYzFOMltDSDJdW0NIMl1PW0NIMl1bQ0gyXTI=

> <s_epik_cmdline>
J2VwaWtfcHl0aG9uJywgJy1waCcsICc3LjAnLCAnLXRuJywgJzgnLCAnLW1hJywgJzIwMCcsICctbWV0YWxfYmluZGluZycsICctaW1hZScsICc8aW5maWxlLm1hZT4nLCAnLW9tYWUnLCAnPG91dGZpbGUubWFlPic=

> <r_lp_tautomer_probability>
1

> <r_epik_Ionization_Penalty>
0.0006373

> <r_epik_Ionization_Penalty_Charging>
0

> <r_epik_Ionization_Penalty_Neutral>
0.0006373

> <r_epik_State_Penalty>
0.000394234

> <r_epik_Charging_Adjusted_Penalty>
0.000394234

> <i_epik_Tot_Q>
0

> <i_epik_Tot_abs_Q>
0

> <r_epik_Metal_State_Penalty>
-0

> <b_epik_Metal_Only>
0

> <s_lp_Force_Field>
OPLS_2005

> <r_lp_Energy>
24.3939

> <b_lp_Chiralities_Consistent>
1

> <s_lp_Variant>
AV-unprocessed.smi:2608-1

> <Gold.Version>
5.8.1

> <Gold.Id.Protein>
6NUR|6NUR_protein|mol2

> <Gold.PLP.Fitness>
40.9273

> <Gold.PLP.PLP>
-35.9630

> <Gold.PLP.part.hbond>
-1.2666

> <Gold.PLP.part.metal>
0.0000

> <Gold.PLP.part.buried>
-5.6088

> <Gold.PLP.part.nonpolar>
-29.8401

> <Gold.PLP.part.repulsive>
1.4049

> <Gold.PLP.ligand.clash>
0.0000

> <Gold.PLP.ligand.torsion>
0.6010

> <Gold.PLP.Chemscore.Hbond>
0.9600

> <Gold.PLP.Chemscore.CHOScore>
1.0500

> <Gold.PLP.Chemscore.Metal>
0.0000

> <Gold.Chemscore.Hbonds>
donor molecule, donor type, donor heavy atom, donor atom, acceptor molecule, acceptor atom, score
      P1  H  7997  8010       L1     6  0.93
      L1  C    11    32       P1  7948  0.02
      L1  C    11    32       P1  7949  1.00

> <Gold.PLP.Chemscore.Internal.Correction>
0.1363

> <Gold.Rescore>
     Score         DG    S(hbond)    S(metal)    S(lipo)     H(rot)  DE(clash)    DE(int)     intcor
     13.08     -16.24       0.92        0.00      94.44       1.31       0.08       3.08       ----

> <Gold.Chemscore.Fitness>
13.0795

> <Gold.Chemscore.DG>
-16.2350

> <Gold.Chemscore.ZeroCoef>
-5.4800

> <Gold.Chemscore.Hbond>
0.9175

> <Gold.Chemscore.Metal>
0.0000

> <Gold.Chemscore.Lipo>
94.4433

> <Gold.Chemscore.Internal_Hbond>
0.0000

> <Gold.Chemscore.DEClash>
0.0756

> <Gold.Chemscore.DEInternal>
3.0799

> <Gold.Chemscore.Rot>
1.3122

> <Gold.Chemscore.Internal.Correction>
   9.000000E+99

> <Gold.Chemscore.Hbonds>
donor molecule, donor type, donor heavy atom, donor atom, acceptor molecule, acceptor atom, score
      P1  H  7997  8010       L1     6  0.84

> <Gold.Chemscore.Hbond.Weighted>
-3.0644

> <Gold.Chemscore.Metal.Weighted>
-0.0000

> <Gold.Chemscore.Lipo.Weighted>
-11.0499

> <Gold.Chemscore.Internal_Hbond.Weighted>
0.0000

> <Gold.Chemscore.DEClash.Weighted>
0.0756

> <Gold.Chemscore.DEInternal.Weighted>
3.0799

> <Gold.Chemscore.Rot.Weighted>
3.3592

> <Gold.Chemscore.Internal.Correction.Weighted>
   9.000000E+99

> <Gold.Protein.RotatedTorsions>
[ 6907 6896 6895 6894 ] final  -26.48 input  -60.11 | X-H torsion
[ 7974 7965 7964 7962 ] final -139.95 input  175.53 | X-H torsion
[ 8008 7997 7996 7995 ] final   38.36 input   59.86 | X-H torsion
[ 10167 10162 10161 10158 ] final -119.29 input  -65.29 | X-H torsion
[ 10718 10713 10712 10709 ] final  122.76 input   66.30 | X-H torsion
[ 10763 10752 10751 10750 ] final  -90.47 input  -60.55 | X-H torsion
[ 11005 11000 10999 10996 ] final  -14.70 input  -57.11 | X-H torsion

> <Gold.Protein.ActiveResidues>
 VAL166  LYS551  ARG553  GLY616  TRP617  ASP618  TYR619  PRO620  LYS621  CYS622 
 ASP623  PHE694  ASN695  SER759  ASP760  ASP761  ALA762  ILE779  LEU786  VAL792 
 PHE793  MET794  SER795  GLU796  ALA797  LYS798  CYS799  TRP800  GLU811  SER814 

> <Gold.Protein.RotatedAtoms>
  151.1603  135.0270  159.8707 H   0  0  0  0  0  0  0  0  0  0  0  0  # atno 6907 bound_to 6896
  152.5451  134.1286  159.8440 H   0  0  0  0  0  0  0  0  0  0  0  0  # atno 6908 bound_to 6896
  151.1381  133.4944  159.2630 H   0  0  0  0  0  0  0  0  0  0  0  0  # atno 6909 bound_to 6896
  144.8635  140.6257  143.5313 H   0  0  0  0  0  0  0  0  0  0  0  0  # atno 7974 bound_to 7965
  155.2189  140.3329  155.4318 H   0  0  0  0  0  0  0  0  0  0  0  0  # atno 8008 bound_to 7997
  156.2341  140.1864  156.7213 H   0  0  0  0  0  0  0  0  0  0  0  0  # atno 8009 bound_to 7997
  154.6029  140.0620  156.9377 H   0  0  0  0  0  0  0  0  0  0  0  0  # atno 8010 bound_to 7997
  140.0482  143.5086  152.2095 H   0  0  0  0  0  0  0  0  0  0  0  0  # atno 10167 bound_to 10162
  157.5717  131.1082  150.8354 H   0  0  0  0  0  0  0  0  0  0  0  0  # atno 10718 bound_to 10713
  154.6661  135.5303  153.8079 H   0  0  0  0  0  0  0  0  0  0  0  0  # atno 10763 bound_to 10752
  153.0472  135.6517  154.0796 H   0  0  0  0  0  0  0  0  0  0  0  0  # atno 10764 bound_to 10752
  154.0700  135.2955  155.3289 H   0  0  0  0  0  0  0  0  0  0  0  0  # atno 10765 bound_to 10752
  140.7891  133.8302  155.9363 H   0  0  0  0  0  0  0  0  0  0  0  0  # atno 11005 bound_to 11000
  145.4266  139.1555  143.4045 LP  0  0  0  0  0  0  0  0  0  0  0  0  # atno 17320 bound_to 7965
  146.2879  140.4379  142.8751 LP  0  0  0  0  0  0  0  0  0  0  0  0  # atno 17321 bound_to 7965
  139.5970  144.7570  151.3263 LP  0  0  0  0  0  0  0  0  0  0  0  0  # atno 17342 bound_to 10162
  140.7229  143.7086  150.7788 LP  0  0  0  0  0  0  0  0  0  0  0  0  # atno 17343 bound_to 10162
  156.8824  130.5184  149.5290 LP  0  0  0  0  0  0  0  0  0  0  0  0  # atno 17370 bound_to 10713
  156.0762  130.5784  150.9478 LP  0  0  0  0  0  0  0  0  0  0  0  0  # atno 17371 bound_to 10713
  140.9407  134.1904  157.4799 LP  0  0  0  0  0  0  0  0  0  0  0  0  # atno 17394 bound_to 11000
  139.8733  134.9870  156.5351 LP  0  0  0  0  0  0  0  0  0  0  0  0  # atno 17395 bound_to 11000

$$$$
