AV-unprocessed.smi:1677|AV-procd|sdf|6726|dock1
  -GOLD-   22720 7473D 1   1.00000     0.00000
 Structure written by MMmdl.
 36 37  0  0  0  0  0  0  0  0  1 V2000
  152.4106  137.8901  159.5227 C   0  0  0  0  0  0  0  0  0  0  0  0
  151.8623  138.8263  158.4375 C   0  0  2  0  0  0  0  0  0  0  0  0
  152.5494  138.5751  157.0785 C   0  0  0  0  0  0  0  0  0  0  0  0
  151.7420  139.0119  155.9540 N   0  0  0  0  0  0  0  0  0  0  0  0
  151.2683  138.2301  154.9090 C   0  0  0  0  0  0  0  0  0  0  0  0
  150.5435  139.0662  154.0902 C   0  0  0  0  0  0  0  0  0  0  0  0
  150.5628  140.3601  154.6054 N   0  0  0  0  0  0  0  0  0  0  0  0
  151.2936  140.2505  155.7070 C   0  0  0  0  0  0  0  0  0  0  0  0
  152.0515  140.2117  158.8655 N   0  0  0  0  0  0  0  0  0  0  0  0
  153.2309  140.7966  159.1307 C   0  0  0  0  0  0  0  0  0  0  0  0
  154.3143  140.2253  159.0040 O   0  0  0  0  0  0  0  0  0  0  0  0
  153.1762  142.2443  159.6337 C   0  0  1  0  0  0  0  0  0  0  0  0
  152.3864  143.1389  158.6511 C   0  0  0  0  0  0  0  0  0  0  0  0
  152.0942  144.5103  159.2341 C   0  0  0  0  0  0  0  0  0  0  0  0
  152.1979  144.7941  160.5438 C   0  0  0  0  0  0  0  0  0  0  0  0
  152.6146  143.7751  161.5897 C   0  0  0  0  0  0  0  0  0  0  0  0
  152.5718  142.3330  161.0495 C   0  0  0  0  0  0  0  0  0  0  0  0
  152.2572  136.8450  159.2521 H   0  0  0  0  0  0  0  0  0  0  0  0
  151.9099  138.0586  160.4768 H   0  0  0  0  0  0  0  0  0  0  0  0
  153.4798  138.0407  159.6751 H   0  0  0  0  0  0  0  0  0  0  0  0
  150.7973  138.6102  158.3356 H   0  0  0  0  0  0  0  0  0  0  0  0
  153.5156  139.0802  157.0365 H   0  0  0  0  0  0  0  0  0  0  0  0
  152.7487  137.5105  156.9507 H   0  0  0  0  0  0  0  0  0  0  0  0
  151.4743  137.1721  154.8407 H   0  0  0  0  0  0  0  0  0  0  0  0
  150.0140  138.8381  153.1769 H   0  0  0  0  0  0  0  0  0  0  0  0
  151.4991  141.0897  156.3553 H   0  0  0  0  0  0  0  0  0  0  0  0
  151.2155  140.7625  158.9974 H   0  0  0  0  0  0  0  0  0  0  0  0
  154.1984  142.6238  159.6898 H   0  0  0  0  0  0  0  0  0  0  0  0
  152.9559  143.2663  157.7297 H   0  0  0  0  0  0  0  0  0  0  0  0
  151.4353  142.6819  158.3738 H   0  0  0  0  0  0  0  0  0  0  0  0
  151.7768  145.2764  158.5420 H   0  0  0  0  0  0  0  0  0  0  0  0
  151.9888  145.7941  160.8947 H   0  0  0  0  0  0  0  0  0  0  0  0
  153.6234  144.0239  161.9198 H   0  0  0  0  0  0  0  0  0  0  0  0
  151.9640  143.8648  162.4598 H   0  0  0  0  0  0  0  0  0  0  0  0
  151.5348  141.9936  161.0249 H   0  0  0  0  0  0  0  0  0  0  0  0
  153.0961  141.6682  161.7373 H   0  0  0  0  0  0  0  0  0  0  0  0
  1  2  1  0  0  0  0
  1 18  1  0  0  0  0
  1 19  1  0  0  0  0
  1 20  1  0  0  0  0
  2  3  1  0  0  0  0
  2  9  1  0  0  0  0
  2 21  1  0  0  0  0
  3  4  1  0  0  0  0
  3 22  1  0  0  0  0
  3 23  1  0  0  0  0
  4  8  1  0  0  0  0
  4  5  1  0  0  0  0
  5  6  2  0  0  0  0
  5 24  1  0  0  0  0
  6  7  1  0  0  0  0
  6 25  1  0  0  0  0
  7  8  2  0  0  0  0
  8 26  1  0  0  0  0
  9 10  1  0  0  0  0
  9 27  1  0  0  0  0
 10 11  2  0  0  0  0
 10 12  1  0  0  0  0
 12 17  1  0  0  0  0
 12 13  1  0  0  0  0
 12 28  1  0  0  0  0
 13 14  1  0  0  0  0
 13 29  1  0  0  0  0
 13 30  1  0  0  0  0
 14 15  2  0  0  0  0
 14 31  1  0  0  0  0
 15 16  1  0  0  0  0
 15 32  1  0  0  0  0
 16 17  1  0  0  0  0
 16 33  1  0  0  0  0
 16 34  1  0  0  0  0
 17 35  1  0  0  0  0
 17 36  1  0  0  0  0
M  END
> <s_m_source_file>
AV-unprocessed.smi

> <i_m_source_file_index>
1677

> <i_lp_mmshare_version>
43012

> <i_f3d_flags>
0

> <s_epik_input>
W2NIXTFuW2NIXVtjSF1uMVtDSDJdW0NAQEhdKFtDSDNdKVtOSF1DKD1PKVtDQEBIXTJbQ0gyXVtDSF09W0NIXVtDSDJdW0NIMl0y

> <s_epik_cmdline>
J2VwaWtfcHl0aG9uJywgJy1waCcsICc3LjAnLCAnLXRuJywgJzgnLCAnLW1hJywgJzIwMCcsICctbWV0YWxfYmluZGluZycsICctaW1hZScsICc8aW5maWxlLm1hZT4nLCAnLW9tYWUnLCAnPG91dGZpbGUubWFlPic=

> <r_lp_tautomer_probability>
1

> <r_epik_Ionization_Penalty>
0.640435

> <r_epik_Ionization_Penalty_Charging>
0.640435

> <r_epik_Ionization_Penalty_Neutral>
2.11108e-08

> <r_epik_State_Penalty>
0.658069

> <r_epik_Charging_Adjusted_Penalty>
1.2985

> <i_epik_Tot_Q>
0

> <i_epik_Tot_abs_Q>
0

> <r_epik_Metal_State_Penalty>
0.311689

> <b_epik_Metal_Only>
0

> <s_lp_Force_Field>
OPLS_2005

> <r_lp_Energy>
9.94345

> <b_lp_Chiralities_Consistent>
1

> <s_lp_Variant>
AV-unprocessed.smi:1677-7

> <Gold.Version>
5.8.1

> <Gold.Id.Protein>
6NUR|6NUR_protein|mol2

> <Gold.PLP.Fitness>
49.3338

> <Gold.PLP.PLP>
-40.3746

> <Gold.PLP.part.hbond>
-2.0000

> <Gold.PLP.part.metal>
0.0000

> <Gold.PLP.part.buried>
-4.2690

> <Gold.PLP.part.nonpolar>
-33.8317

> <Gold.PLP.part.repulsive>
0.2134

> <Gold.PLP.ligand.clash>
0.0000

> <Gold.PLP.ligand.torsion>
0.3439

> <Gold.PLP.Chemscore.Hbond>
1.9440

> <Gold.PLP.Chemscore.CHOScore>
1.2486

> <Gold.PLP.Chemscore.Metal>
0.0000

> <Gold.Chemscore.Hbonds>
donor molecule, donor type, donor heavy atom, donor atom, acceptor molecule, acceptor atom, score
      P1  H  7989  7998       L1     7  0.65
      P1  H  7997  8009       L1    11  0.91
      L1  C     6    25       P1  7957  1.00

> <Gold.PLP.Chemscore.Internal.Correction>
0.0692

> <Gold.Rescore>
     Score         DG    S(hbond)    S(metal)    S(lipo)     H(rot)  DE(clash)    DE(int)     intcor
     16.90     -18.05       1.65        0.00      98.66       1.75       0.01       1.14       ----

> <Gold.Chemscore.Fitness>
16.8974

> <Gold.Chemscore.DG>
-18.0482

> <Gold.Chemscore.ZeroCoef>
-5.4800

> <Gold.Chemscore.Hbond>
1.6461

> <Gold.Chemscore.Metal>
0.0000

> <Gold.Chemscore.Lipo>
98.6648

> <Gold.Chemscore.Internal_Hbond>
0.0000

> <Gold.Chemscore.DEClash>
0.0135

> <Gold.Chemscore.DEInternal>
1.1373

> <Gold.Chemscore.Rot>
1.7475

> <Gold.Chemscore.Internal.Correction>
   9.000000E+99

> <Gold.Chemscore.Hbonds>
donor molecule, donor type, donor heavy atom, donor atom, acceptor molecule, acceptor atom, score
      P1  H  7989  7998       L1     7  0.02
      P1  H  7997  8009       L1    11  0.86

> <Gold.Chemscore.Hbond.Weighted>
-5.4980

> <Gold.Chemscore.Metal.Weighted>
-0.0000

> <Gold.Chemscore.Lipo.Weighted>
-11.5438

> <Gold.Chemscore.Internal_Hbond.Weighted>
0.0000

> <Gold.Chemscore.DEClash.Weighted>
0.0135

> <Gold.Chemscore.DEInternal.Weighted>
1.1373

> <Gold.Chemscore.Rot.Weighted>
4.4735

> <Gold.Chemscore.Internal.Correction.Weighted>
   9.000000E+99

> <Gold.Protein.RotatedTorsions>
[ 6907 6896 6895 6894 ] final    9.33 input  -60.11 | X-H torsion
[ 7974 7965 7964 7962 ] final  153.53 input  175.53 | X-H torsion
[ 8008 7997 7996 7995 ] final  126.48 input   59.86 | X-H torsion
[ 10167 10162 10161 10158 ] final   88.46 input  -65.29 | X-H torsion
[ 10718 10713 10712 10709 ] final   81.27 input   66.30 | X-H torsion
[ 10763 10752 10751 10750 ] final   61.43 input  -60.55 | X-H torsion
[ 11005 11000 10999 10996 ] final  -89.07 input  -57.11 | X-H torsion

> <Gold.Protein.ActiveResidues>
 VAL166  LYS551  ARG553  GLY616  TRP617  ASP618  TYR619  PRO620  LYS621  CYS622 
 ASP623  PHE694  ASN695  SER759  ASP760  ASP761  ALA762  ILE779  LEU786  VAL792 
 PHE793  MET794  SER795  GLU796  ALA797  LYS798  CYS799  TRP800  GLU811  SER814 

> <Gold.Protein.RotatedAtoms>
  151.7204  135.0895  160.0282 H   0  0  0  0  0  0  0  0  0  0  0  0  # atno 6907 bound_to 6896
  152.3605  133.6287  159.6020 H   0  0  0  0  0  0  0  0  0  0  0  0  # atno 6908 bound_to 6896
  150.7601  133.9347  159.3479 H   0  0  0  0  0  0  0  0  0  0  0  0  # atno 6909 bound_to 6896
  144.8148  139.6812  143.6126 H   0  0  0  0  0  0  0  0  0  0  0  0  # atno 7974 bound_to 7965
  156.2865  140.2692  156.2118 H   0  0  0  0  0  0  0  0  0  0  0  0  # atno 8008 bound_to 7997
  155.0257  140.0386  157.2473 H   0  0  0  0  0  0  0  0  0  0  0  0  # atno 8009 bound_to 7997
  154.7397  140.2722  155.6389 H   0  0  0  0  0  0  0  0  0  0  0  0  # atno 8010 bound_to 7997
  139.8670  144.6513  150.8992 H   0  0  0  0  0  0  0  0  0  0  0  0  # atno 10167 bound_to 10162
  157.6828  130.9997  150.2202 H   0  0  0  0  0  0  0  0  0  0  0  0  # atno 10718 bound_to 10713
  152.9950  135.5501  154.6032 H   0  0  0  0  0  0  0  0  0  0  0  0  # atno 10763 bound_to 10752
  154.5369  135.2817  155.1133 H   0  0  0  0  0  0  0  0  0  0  0  0  # atno 10764 bound_to 10752
  154.2426  135.6413  153.5265 H   0  0  0  0  0  0  0  0  0  0  0  0  # atno 10765 bound_to 10752
  141.1591  133.7608  156.9542 H   0  0  0  0  0  0  0  0  0  0  0  0  # atno 11005 bound_to 11000
  146.2451  139.6081  142.9465 LP  0  0  0  0  0  0  0  0  0  0  0  0  # atno 17320 bound_to 7965
  145.5239  141.0430  143.2420 LP  0  0  0  0  0  0  0  0  0  0  0  0  # atno 17321 bound_to 7965
  140.7766  143.3695  151.1675 LP  0  0  0  0  0  0  0  0  0  0  0  0  # atno 17342 bound_to 10162
  139.7319  143.9059  152.3022 LP  0  0  0  0  0  0  0  0  0  0  0  0  # atno 17343 bound_to 10162
  156.2855  130.3739  149.7892 LP  0  0  0  0  0  0  0  0  0  0  0  0  # atno 17370 bound_to 10713
  156.5568  130.8366  151.3316 LP  0  0  0  0  0  0  0  0  0  0  0  0  # atno 17371 bound_to 10713
  140.1237  134.9401  157.2239 LP  0  0  0  0  0  0  0  0  0  0  0  0  # atno 17394 bound_to 11000
  140.3040  134.3099  155.7283 LP  0  0  0  0  0  0  0  0  0  0  0  0  # atno 17395 bound_to 11000

$$$$
