AV-unprocessed.smi:166|AV-procd|sdf|1391|dock9
  -GOLD-   2262019133D 1   1.00000     0.00000
 Structure written by MMmdl.
 54 58  0  0  0  0  0  0  0  0  1 V2000
  146.1017  134.4951  160.8189 O   0  0  0  0  0  0  0  0  0  0  0  0
  147.4611  134.5525  161.2166 C   0  0  2  0  0  0  0  0  0  0  0  0
  148.1726  133.2410  160.8076 C   0  0  0  0  0  0  0  0  0  0  0  0
  148.0375  132.9162  159.3960 N   0  0  0  0  0  0  0  0  0  0  0  0
  147.2579  131.9242  158.8440 C   0  0  0  0  0  0  0  0  0  0  0  0
  147.3069  131.8364  157.5428 N   0  0  0  0  0  0  0  0  0  0  0  0
  148.1807  132.8497  157.1679 C   0  0  0  0  0  0  0  0  0  0  0  0
  148.6844  133.3216  155.9231 C   0  0  0  0  0  0  0  0  0  0  0  0
  148.3690  132.8016  154.7188 N   0  0  0  0  0  0  0  0  0  0  0  0
  147.6606  133.7428  153.8569 C   0  0  0  0  0  0  0  0  0  0  0  0
  147.5435  133.1854  152.4292 C   0  0  0  0  0  0  0  0  0  0  0  0
  146.9010  131.7895  152.4403 C   0  0  0  0  0  0  0  0  0  0  0  0
  147.6775  130.8437  153.3734 C   0  0  2  0  0  0  0  0  0  0  0  0
  146.9755  129.6080  153.4096 O   0  0  0  0  0  0  0  0  0  0  0  0
  146.7116  129.0438  152.1341 C   0  0  0  0  0  0  0  0  0  0  0  0
  147.4247  127.7126  152.0346 C   0  0  0  0  0  0  0  0  0  0  0  0
  148.8831  127.5993  152.4166 C   0  0  0  0  0  0  0  0  0  0  0  0
  148.4730  127.4731  150.9717 C   0  0  0  0  0  0  0  0  0  0  0  0
  147.7890  131.4623  154.7828 C   0  0  0  0  0  0  0  0  0  0  0  0
  149.5339  134.3773  155.9373 N   0  0  0  0  0  0  0  0  0  0  0  0
  149.8810  134.9384  157.0997 C   0  0  0  0  0  0  0  0  0  0  0  0
  149.4996  134.6054  158.3351 N   0  0  0  0  0  0  0  0  0  0  0  0
  148.6417  133.5444  158.3209 C   0  0  0  0  0  0  0  0  0  0  0  0
  147.5087  134.7987  162.7207 C   0  0  0  0  0  0  0  0  0  0  0  0
  147.5423  136.3174  162.8189 C   0  0  0  0  0  0  0  0  0  0  0  0
  148.3912  136.6762  161.7430 O   0  0  0  0  0  0  0  0  0  0  0  0
  148.0887  135.8371  160.6334 C   0  0  0  0  0  0  0  0  0  0  0  0
  146.0636  134.5044  159.8746 H   0  0  0  0  0  0  0  0  0  0  0  0
  149.2363  133.3011  161.0424 H   0  0  0  0  0  0  0  0  0  0  0  0
  147.7800  132.4052  161.3883 H   0  0  0  0  0  0  0  0  0  0  0  0
  146.6463  131.2622  159.4396 H   0  0  0  0  0  0  0  0  0  0  0  0
  146.6662  133.9312  154.2641 H   0  0  0  0  0  0  0  0  0  0  0  0
  148.1859  134.6989  153.8395 H   0  0  0  0  0  0  0  0  0  0  0  0
  146.9569  133.8640  151.8095 H   0  0  0  0  0  0  0  0  0  0  0  0
  148.5345  133.1283  151.9771 H   0  0  0  0  0  0  0  0  0  0  0  0
  145.8655  131.8686  152.7745 H   0  0  0  0  0  0  0  0  0  0  0  0
  146.8728  131.3816  151.4295 H   0  0  0  0  0  0  0  0  0  0  0  0
  148.6750  130.6900  152.9572 H   0  0  0  0  0  0  0  0  0  0  0  0
  145.6397  128.9008  151.9887 H   0  0  0  0  0  0  0  0  0  0  0  0
  147.0758  129.6914  151.3369 H   0  0  0  0  0  0  0  0  0  0  0  0
  146.8027  126.8603  152.3022 H   0  0  0  0  0  0  0  0  0  0  0  0
  149.4023  128.5086  152.7134 H   0  0  0  0  0  0  0  0  0  0  0  0
  149.1979  126.6936  152.9310 H   0  0  0  0  0  0  0  0  0  0  0  0
  148.5118  126.4835  150.5210 H   0  0  0  0  0  0  0  0  0  0  0  0
  148.7189  128.2982  150.3060 H   0  0  0  0  0  0  0  0  0  0  0  0
  148.4077  130.8377  155.4276 H   0  0  0  0  0  0  0  0  0  0  0  0
  146.7988  131.5111  155.2367 H   0  0  0  0  0  0  0  0  0  0  0  0
  150.5608  135.7749  157.0298 H   0  0  0  0  0  0  0  0  0  0  0  0
  146.6769  134.3521  163.2671 H   0  0  0  0  0  0  0  0  0  0  0  0
  148.4326  134.3981  163.1404 H   0  0  0  0  0  0  0  0  0  0  0  0
  146.5501  136.7446  162.6653 H   0  0  0  0  0  0  0  0  0  0  0  0
  147.9296  136.6713  163.7745 H   0  0  0  0  0  0  0  0  0  0  0  0
  149.0103  135.6447  160.0853 H   0  0  0  0  0  0  0  0  0  0  0  0
  147.4082  136.3558  159.9560 H   0  0  0  0  0  0  0  0  0  0  0  0
  1  2  1  0  0  0  0
  1 28  1  0  0  0  0
  2 27  1  0  0  0  0
  2  3  1  0  0  0  0
  2 24  1  0  0  0  0
  3  4  1  0  0  0  0
  3 29  1  0  0  0  0
  3 30  1  0  0  0  0
  4 23  1  0  0  0  0
  4  5  1  0  0  0  0
  5  6  2  0  0  0  0
  5 31  1  0  0  0  0
  6  7  1  0  0  0  0
  7 23  2  0  0  0  0
  7  8  1  0  0  0  0
  8  9  1  0  0  0  0
  8 20  2  0  0  0  0
  9 19  1  0  0  0  0
  9 10  1  0  0  0  0
 10 11  1  0  0  0  0
 10 32  1  0  0  0  0
 10 33  1  0  0  0  0
 11 12  1  0  0  0  0
 11 34  1  0  0  0  0
 11 35  1  0  0  0  0
 12 13  1  0  0  0  0
 12 36  1  0  0  0  0
 12 37  1  0  0  0  0
 13 14  1  0  0  0  0
 13 19  1  0  0  0  0
 13 38  1  0  0  0  0
 14 15  1  0  0  0  0
 15 16  1  0  0  0  0
 15 39  1  0  0  0  0
 15 40  1  0  0  0  0
 16 18  1  0  0  0  0
 16 17  1  0  0  0  0
 16 41  1  0  0  0  0
 17 18  1  0  0  0  0
 17 42  1  0  0  0  0
 17 43  1  0  0  0  0
 18 44  1  0  0  0  0
 18 45  1  0  0  0  0
 19 46  1  0  0  0  0
 19 47  1  0  0  0  0
 20 21  1  0  0  0  0
 21 22  2  0  0  0  0
 21 48  1  0  0  0  0
 22 23  1  0  0  0  0
 24 25  1  0  0  0  0
 24 49  1  0  0  0  0
 24 50  1  0  0  0  0
 25 26  1  0  0  0  0
 25 51  1  0  0  0  0
 25 52  1  0  0  0  0
 26 27  1  0  0  0  0
 27 53  1  0  0  0  0
 27 54  1  0  0  0  0
M  END
> <s_m_source_file>
AV-unprocessed.smi

> <i_m_source_file_index>
166

> <i_lp_mmshare_version>
43012

> <i_f3d_flags>
0

> <s_epik_input>
W0NIMl0xT1tDSDJdW0NIMl1bQ0BAXTEoW09IXSlbQ0gyXW4oW2NIXW4yKWMoYzIzKW5bY0hdbmMzTjRbQ0gyXVtDSDJdW0NIMl1bQ0BIXShbQ0gyXTQpT1tDSDJdW0NIXTVbQ0gyXVtDSDJdNQ==

> <s_epik_cmdline>
J2VwaWtfcHl0aG9uJywgJy1waCcsICc3LjAnLCAnLXRuJywgJzgnLCAnLW1hJywgJzIwMCcsICctbWV0YWxfYmluZGluZycsICctaW1hZScsICc8aW5maWxlLm1hZT4nLCAnLW9tYWUnLCAnPG91dGZpbGUubWFlPic=

> <r_lp_tautomer_probability>
1

> <r_epik_Ionization_Penalty>
0.00342552

> <r_epik_Ionization_Penalty_Charging>
0

> <r_epik_Ionization_Penalty_Neutral>
0.00342552

> <r_epik_State_Penalty>
0.0022204

> <r_epik_Charging_Adjusted_Penalty>
0.0022204

> <i_epik_Tot_Q>
0

> <i_epik_Tot_abs_Q>
0

> <r_epik_Metal_State_Penalty>
-0

> <b_epik_Metal_Only>
0

> <s_lp_Force_Field>
OPLS_2005

> <r_lp_Energy>
47.9091

> <b_lp_Chiralities_Consistent>
1

> <s_lp_Variant>
AV-unprocessed.smi:166-4

> <Gold.Version>
5.8.1

> <Gold.Id.Protein>
6NUR|6NUR_protein|mol2

> <Gold.PLP.Fitness>
45.8682

> <Gold.PLP.PLP>
-41.4805

> <Gold.PLP.part.hbond>
-2.0000

> <Gold.PLP.part.metal>
0.0000

> <Gold.PLP.part.buried>
-4.8744

> <Gold.PLP.part.nonpolar>
-34.5617

> <Gold.PLP.part.repulsive>
0.1950

> <Gold.PLP.ligand.clash>
0.0000

> <Gold.PLP.ligand.torsion>
1.2170

> <Gold.PLP.Chemscore.Hbond>
2.0000

> <Gold.PLP.Chemscore.CHOScore>
0.0000

> <Gold.PLP.Chemscore.Metal>
0.0000

> <Gold.Chemscore.Hbonds>
donor molecule, donor type, donor heavy atom, donor atom, acceptor molecule, acceptor atom, score
      P1  H  6896  6907       L1    22  1.00
      P1  H  6931  6943       L1    26  1.00

> <Gold.PLP.Chemscore.Internal.Correction>
0.8218

> <Gold.Rescore>
     Score         DG    S(hbond)    S(metal)    S(lipo)     H(rot)  DE(clash)    DE(int)     intcor
     13.02     -16.38       1.81        0.00     100.09       2.68       0.00       3.36       ----

> <Gold.Chemscore.Fitness>
13.0188

> <Gold.Chemscore.DG>
-16.3835

> <Gold.Chemscore.ZeroCoef>
-5.4800

> <Gold.Chemscore.Hbond>
1.8136

> <Gold.Chemscore.Metal>
0.0000

> <Gold.Chemscore.Lipo>
100.0944

> <Gold.Chemscore.Internal_Hbond>
0.0000

> <Gold.Chemscore.DEClash>
0.0048

> <Gold.Chemscore.DEInternal>
3.3600

> <Gold.Chemscore.Rot>
2.6817

> <Gold.Chemscore.Internal.Correction>
   9.000000E+99

> <Gold.Chemscore.Hbonds>
donor molecule, donor type, donor heavy atom, donor atom, acceptor molecule, acceptor atom, score
      P1  H  6896  6907       L1    22  0.27
      P1  H  6931  6943       L1    26  0.85

> <Gold.Chemscore.Hbond.Weighted>
-6.0576

> <Gold.Chemscore.Metal.Weighted>
-0.0000

> <Gold.Chemscore.Lipo.Weighted>
-11.7110

> <Gold.Chemscore.Internal_Hbond.Weighted>
0.0000

> <Gold.Chemscore.DEClash.Weighted>
0.0048

> <Gold.Chemscore.DEInternal.Weighted>
3.3600

> <Gold.Chemscore.Rot.Weighted>
6.8651

> <Gold.Chemscore.Internal.Correction.Weighted>
   9.000000E+99

> <Gold.Protein.RotatedTorsions>
[ 6907 6896 6895 6894 ] final -103.99 input  -60.11 | X-H torsion
[ 7974 7965 7964 7962 ] final -140.85 input  175.53 | X-H torsion
[ 8008 7997 7996 7995 ] final  135.52 input   59.86 | X-H torsion
[ 10167 10162 10161 10158 ] final    5.74 input  -65.29 | X-H torsion
[ 10718 10713 10712 10709 ] final  101.64 input   66.30 | X-H torsion
[ 10763 10752 10751 10750 ] final  -39.37 input  -60.55 | X-H torsion
[ 11005 11000 10999 10996 ] final  -87.40 input  -57.11 | X-H torsion

> <Gold.Protein.ActiveResidues>
 VAL166  LYS551  ARG553  GLY616  TRP617  ASP618  TYR619  PRO620  LYS621  CYS622 
 ASP623  PHE694  ASN695  SER759  ASP760  ASP761  ALA762  ILE779  LEU786  VAL792 
 PHE793  MET794  SER795  GLU796  ALA797  LYS798  CYS799  TRP800  GLU811  SER814 

> <Gold.Protein.RotatedAtoms>
  150.7266  134.0345  159.3744 H   0  0  0  0  0  0  0  0  0  0  0  0  # atno 6907 bound_to 6896
  151.8316  135.0617  160.0447 H   0  0  0  0  0  0  0  0  0  0  0  0  # atno 6908 bound_to 6896
  152.2929  133.5543  159.5605 H   0  0  0  0  0  0  0  0  0  0  0  0  # atno 6909 bound_to 6896
  144.8565  140.6150  143.5356 H   0  0  0  0  0  0  0  0  0  0  0  0  # atno 7974 bound_to 7965
  156.3003  140.2468  156.3594 H   0  0  0  0  0  0  0  0  0  0  0  0  # atno 8008 bound_to 7997
  154.8891  140.0410  157.1847 H   0  0  0  0  0  0  0  0  0  0  0  0  # atno 8009 bound_to 7997
  154.8616  140.2921  155.5539 H   0  0  0  0  0  0  0  0  0  0  0  0  # atno 8010 bound_to 7997
  140.6466  143.7647  150.7508 H   0  0  0  0  0  0  0  0  0  0  0  0  # atno 10167 bound_to 10162
  157.6824  131.0731  150.5283 H   0  0  0  0  0  0  0  0  0  0  0  0  # atno 10718 bound_to 10713
  153.9283  135.6774  153.4746 H   0  0  0  0  0  0  0  0  0  0  0  0  # atno 10763 bound_to 10752
  153.0992  135.4836  154.8833 H   0  0  0  0  0  0  0  0  0  0  0  0  # atno 10764 bound_to 10752
  154.7441  135.3168  154.8633 H   0  0  0  0  0  0  0  0  0  0  0  0  # atno 10765 bound_to 10752
  141.1617  133.7509  156.9301 H   0  0  0  0  0  0  0  0  0  0  0  0  # atno 11005 bound_to 11000
  145.4397  139.1537  143.3977 LP  0  0  0  0  0  0  0  0  0  0  0  0  # atno 17320 bound_to 7965
  146.2827  140.4517  142.8770 LP  0  0  0  0  0  0  0  0  0  0  0  0  # atno 17321 bound_to 7965
  140.1290  143.4543  152.2266 LP  0  0  0  0  0  0  0  0  0  0  0  0  # atno 17342 bound_to 10162
  139.5677  144.7445  151.3977 LP  0  0  0  0  0  0  0  0  0  0  0  0  # atno 17343 bound_to 10162
  156.5594  130.4251  149.6070 LP  0  0  0  0  0  0  0  0  0  0  0  0  # atno 17370 bound_to 10713
  156.2834  130.7084  151.1914 LP  0  0  0  0  0  0  0  0  0  0  0  0  # atno 17371 bound_to 10713
  140.1392  134.9305  157.2444 LP  0  0  0  0  0  0  0  0  0  0  0  0  # atno 17394 bound_to 11000
  140.2857  134.3298  155.7329 LP  0  0  0  0  0  0  0  0  0  0  0  0  # atno 17395 bound_to 11000

$$$$
