AV-unprocessed.smi:1638|AV-procd|sdf|6547|dock9
  -GOLD-   22720 7233D 1   1.00000     0.00000
 Structure written by MMmdl.
 40 41  0  0  0  0  0  0  0  0  3 V2000
  145.7510  136.8585  151.6669 C   0  0  0  0  0  0  0  0  0  0  0  0
  146.4746  137.9222  152.4193 C   0  0  0  0  0  0  0  0  0  0  0  0
  146.5959  137.9132  153.7493 N   0  0  0  0  0  0  0  0  0  0  0  0
  147.3127  139.0049  154.2152 N   0  0  0  0  0  0  0  0  0  0  0  0
  147.7364  139.8137  153.2328 C   0  0  0  0  0  0  0  0  0  0  0  0
  148.4633  140.9165  153.4762 N   0  5  0  0  0  0  0  0  0  0  0  0
  149.3485  140.9179  154.4960 C   0  0  0  0  0  0  0  0  0  0  0  0
  150.3495  140.2049  154.5929 O   0  0  0  0  0  0  0  0  0  0  0  0
  149.0260  141.7581  155.4898 N   0  0  0  0  0  0  0  0  0  0  0  0
  149.6504  141.8051  156.8111 C   0  0  0  0  0  0  0  0  0  0  0  0
  151.1164  142.2766  156.7153 C   0  0  0  0  0  0  0  0  0  0  0  0
  151.5903  142.9050  157.9788 N   0  3  0  0  0  0  0  0  0  0  0  0
  152.1105  144.2872  157.8280 C   0  0  0  0  0  0  0  0  0  0  0  0
  151.4929  145.1931  158.9068 C   0  0  0  0  0  0  0  0  0  0  0  0
  152.0786  145.0011  160.3148 C   0  0  0  0  0  0  0  0  0  0  0  0
  152.0377  143.5545  160.8381 C   0  0  0  0  0  0  0  0  0  0  0  0
  153.0066  142.6258  160.0846 C   0  0  0  0  0  0  0  0  0  0  0  0
  152.4509  142.0016  158.7877 C   0  0  0  0  0  0  0  0  0  0  0  0
  147.2442  139.2860  151.6251 S   0  0  0  0  0  0  0  0  0  0  0  0
  146.4387  136.0533  151.4079 H   0  0  0  0  0  0  0  0  0  0  0  0
  145.3282  137.2678  150.7492 H   0  0  0  0  0  0  0  0  0  0  0  0
  144.9406  136.4489  152.2709 H   0  0  0  0  0  0  0  0  0  0  0  0
  148.2118  142.3397  155.3518 H   0  0  0  0  0  0  0  0  0  0  0  0
  149.0820  142.4401  157.4921 H   0  0  0  0  0  0  0  0  0  0  0  0
  149.6164  140.8028  157.2385 H   0  0  0  0  0  0  0  0  0  0  0  0
  151.7733  141.4548  156.4274 H   0  0  0  0  0  0  0  0  0  0  0  0
  151.1587  142.9957  155.8968 H   0  0  0  0  0  0  0  0  0  0  0  0
  153.2008  144.3106  157.8496 H   0  0  0  0  0  0  0  0  0  0  0  0
  151.8282  144.7009  156.8600 H   0  0  0  0  0  0  0  0  0  0  0  0
  151.6393  146.2344  158.6180 H   0  0  0  0  0  0  0  0  0  0  0  0
  150.4123  145.0432  158.9349 H   0  0  0  0  0  0  0  0  0  0  0  0
  153.1061  145.3657  160.3341 H   0  0  0  0  0  0  0  0  0  0  0  0
  151.5260  145.6386  161.0060 H   0  0  0  0  0  0  0  0  0  0  0  0
  152.3309  143.5738  161.8882 H   0  0  0  0  0  0  0  0  0  0  0  0
  151.0214  143.1603  160.8218 H   0  0  0  0  0  0  0  0  0  0  0  0
  153.9313  143.1630  159.8713 H   0  0  0  0  0  0  0  0  0  0  0  0
  153.2995  141.8102  160.7466 H   0  0  0  0  0  0  0  0  0  0  0  0
  151.8682  141.1180  159.0469 H   0  0  0  0  0  0  0  0  0  0  0  0
  153.2850  141.6485  158.1801 H   0  0  0  0  0  0  0  0  0  0  0  0
  150.7456  143.0285  158.5206 H   0  0  0  0  0  0  0  0  0  0  0  0
  1  2  1  0  0  0  0
  1 20  1  0  0  0  0
  1 21  1  0  0  0  0
  1 22  1  0  0  0  0
  2 19  1  0  0  0  0
  2  3  2  0  0  0  0
  3  4  1  0  0  0  0
  4  5  2  0  0  0  0
  5  6  1  0  0  0  0
  5 19  1  0  0  0  0
  6  7  1  0  0  0  0
  7  8  2  0  0  0  0
  7  9  1  0  0  0  0
  9 10  1  0  0  0  0
  9 23  1  0  0  0  0
 10 11  1  0  0  0  0
 10 24  1  0  0  0  0
 10 25  1  0  0  0  0
 11 12  1  0  0  0  0
 11 26  1  0  0  0  0
 11 27  1  0  0  0  0
 12 18  1  0  0  0  0
 12 13  1  0  0  0  0
 12 40  1  0  0  0  0
 13 14  1  0  0  0  0
 13 28  1  0  0  0  0
 13 29  1  0  0  0  0
 14 15  1  0  0  0  0
 14 30  1  0  0  0  0
 14 31  1  0  0  0  0
 15 16  1  0  0  0  0
 15 32  1  0  0  0  0
 15 33  1  0  0  0  0
 16 17  1  0  0  0  0
 16 34  1  0  0  0  0
 16 35  1  0  0  0  0
 17 18  1  0  0  0  0
 17 36  1  0  0  0  0
 17 37  1  0  0  0  0
 18 38  1  0  0  0  0
 18 39  1  0  0  0  0
M  CHG  1   6  -1
M  CHG  1  12   1
M  END
> <s_m_source_file>
AV-unprocessed.smi

> <i_m_source_file_index>
1638

> <i_lp_mmshare_version>
43012

> <i_f3d_flags>
0

> <s_epik_input>
W0NIM11jMW5uYyhzMSlbTkhdQyg9TylbTkhdW0NIMl1bQ0gyXU4yW0NIMl1bQ0gyXVtDSDJdW0NIMl1bQ0gyXVtDSDJdMg==

> <s_epik_cmdline>
J2VwaWtfcHl0aG9uJywgJy1waCcsICc3LjAnLCAnLXRuJywgJzgnLCAnLW1hJywgJzIwMCcsICctbWV0YWxfYmluZGluZycsICctaW1hZScsICc8aW5maWxlLm1hZT4nLCAnLW9tYWUnLCAnPG91dGZpbGUubWFlPic=

> <r_lp_tautomer_probability>
1

> <r_epik_Ionization_Penalty>
3.03755

> <r_epik_Ionization_Penalty_Charging>
2.92994

> <r_epik_Ionization_Penalty_Neutral>
0.107609

> <r_epik_State_Penalty>
2.92594

> <r_epik_Charging_Adjusted_Penalty>
5.85589

> <i_epik_Tot_Q>
0

> <i_epik_Tot_abs_Q>
2

> <r_epik_Metal_State_Penalty>
0.448256

> <b_epik_Metal_Only>
1

> <s_lp_Force_Field>
OPLS_2005

> <r_lp_Energy>
18.025

> <b_lp_Chiralities_Consistent>
1

> <s_lp_Variant>
AV-unprocessed.smi:1638-2

> <Gold.Version>
5.8.1

> <Gold.Id.Protein>
6NUR|6NUR_protein|mol2

> <Gold.PLP.Fitness>
41.3018

> <Gold.PLP.PLP>
-41.6073

> <Gold.PLP.part.hbond>
-2.0000

> <Gold.PLP.part.metal>
0.0000

> <Gold.PLP.part.buried>
-4.0524

> <Gold.PLP.part.nonpolar>
-36.9402

> <Gold.PLP.part.repulsive>
0.6975

> <Gold.PLP.ligand.clash>
0.0000

> <Gold.PLP.ligand.torsion>
1.6919

> <Gold.PLP.Chemscore.Hbond>
1.0000

> <Gold.PLP.Chemscore.CHOScore>
0.0000

> <Gold.PLP.Chemscore.Metal>
0.0000

> <Gold.Chemscore.Hbonds>
donor molecule, donor type, donor heavy atom, donor atom, acceptor molecule, acceptor atom, score
      P1  H  7989  7998       L1     8  1.00
      P1  H  8011  8017       L1     6  0.15

> <Gold.PLP.Chemscore.Internal.Correction>
0.0784

> <Gold.Rescore>
     Score         DG    S(hbond)    S(metal)    S(lipo)     H(rot)  DE(clash)    DE(int)     intcor
     14.87     -17.22       0.92        0.00     108.31       1.57       0.24       2.12       ----

> <Gold.Chemscore.Fitness>
14.8700

> <Gold.Chemscore.DG>
-17.2236

> <Gold.Chemscore.ZeroCoef>
-5.4800

> <Gold.Chemscore.Hbond>
0.9241

> <Gold.Chemscore.Metal>
0.0000

> <Gold.Chemscore.Lipo>
108.3143

> <Gold.Chemscore.Internal_Hbond>
0.0000

> <Gold.Chemscore.DEClash>
0.2366

> <Gold.Chemscore.DEInternal>
2.1169

> <Gold.Chemscore.Rot>
1.5686

> <Gold.Chemscore.Internal.Correction>
   9.000000E+99

> <Gold.Chemscore.Hbonds>
donor molecule, donor type, donor heavy atom, donor atom, acceptor molecule, acceptor atom, score
      P1  H  7989  7998       L1     8  0.64
      P1  H  8011  8017       L1     6  0.01

> <Gold.Chemscore.Hbond.Weighted>
-3.0865

> <Gold.Chemscore.Metal.Weighted>
-0.0000

> <Gold.Chemscore.Lipo.Weighted>
-12.6728

> <Gold.Chemscore.Internal_Hbond.Weighted>
0.0000

> <Gold.Chemscore.DEClash.Weighted>
0.2366

> <Gold.Chemscore.DEInternal.Weighted>
2.1169

> <Gold.Chemscore.Rot.Weighted>
4.0157

> <Gold.Chemscore.Internal.Correction.Weighted>
   9.000000E+99

> <Gold.Protein.RotatedTorsions>
[ 6907 6896 6895 6894 ] final -124.64 input  -60.11 | X-H torsion
[ 7974 7965 7964 7962 ] final -104.44 input  175.53 | X-H torsion
[ 8008 7997 7996 7995 ] final -145.56 input   59.86 | X-H torsion
[ 10167 10162 10161 10158 ] final  101.29 input  -65.29 | X-H torsion
[ 10718 10713 10712 10709 ] final    6.29 input   66.30 | X-H torsion
[ 10763 10752 10751 10750 ] final   83.38 input  -60.55 | X-H torsion
[ 11005 11000 10999 10996 ] final -147.10 input  -57.11 | X-H torsion

> <Gold.Protein.ActiveResidues>
 VAL166  LYS551  ARG553  GLY616  TRP617  ASP618  TYR619  PRO620  LYS621  CYS622 
 ASP623  PHE694  ASN695  SER759  ASP760  ASP761  ALA762  ILE779  LEU786  VAL792 
 PHE793  MET794  SER795  GLU796  ALA797  LYS798  CYS799  TRP800  GLU811  SER814 

> <Gold.Protein.RotatedAtoms>
  150.8788  133.7401  159.2938 H   0  0  0  0  0  0  0  0  0  0  0  0  # atno 6907 bound_to 6896
  151.4989  135.1059  159.9833 H   0  0  0  0  0  0  0  0  0  0  0  0  # atno 6908 bound_to 6896
  152.4746  133.8062  159.7035 H   0  0  0  0  0  0  0  0  0  0  0  0  # atno 6909 bound_to 6896
  145.2431  140.9212  143.3138 H   0  0  0  0  0  0  0  0  0  0  0  0  # atno 7974 bound_to 7965
  155.5452  140.0611  157.2861 H   0  0  0  0  0  0  0  0  0  0  0  0  # atno 8008 bound_to 7997
  154.4439  140.1912  156.0675 H   0  0  0  0  0  0  0  0  0  0  0  0  # atno 8009 bound_to 7997
  156.0556  140.3279  155.7405 H   0  0  0  0  0  0  0  0  0  0  0  0  # atno 8010 bound_to 7997
  139.7451  144.7000  151.0516 H   0  0  0  0  0  0  0  0  0  0  0  0  # atno 10167 bound_to 10162
  156.9200  130.5787  149.5648 H   0  0  0  0  0  0  0  0  0  0  0  0  # atno 10718 bound_to 10713
  153.1286  135.4693  154.9312 H   0  0  0  0  0  0  0  0  0  0  0  0  # atno 10763 bound_to 10752
  154.7643  135.3140  154.8319 H   0  0  0  0  0  0  0  0  0  0  0  0  # atno 10764 bound_to 10752
  153.8867  135.6889  153.4817 H   0  0  0  0  0  0  0  0  0  0  0  0  # atno 10765 bound_to 10752
  140.7752  134.3143  157.5063 H   0  0  0  0  0  0  0  0  0  0  0  0  # atno 11005 bound_to 11000
  144.9571  139.4020  143.6374 LP  0  0  0  0  0  0  0  0  0  0  0  0  # atno 17320 bound_to 7965
  146.3323  139.8606  142.8857 LP  0  0  0  0  0  0  0  0  0  0  0  0  # atno 17321 bound_to 7965
  140.7791  143.4877  150.9934 LP  0  0  0  0  0  0  0  0  0  0  0  0  # atno 17342 bound_to 10162
  139.8565  143.7370  152.3175 LP  0  0  0  0  0  0  0  0  0  0  0  0  # atno 17343 bound_to 10162
  156.0495  130.5567  150.8958 LP  0  0  0  0  0  0  0  0  0  0  0  0  # atno 17370 bound_to 10713
  157.5913  131.0944  150.9113 LP  0  0  0  0  0  0  0  0  0  0  0  0  # atno 17371 bound_to 10713
  139.8750  134.9285  156.3452 LP  0  0  0  0  0  0  0  0  0  0  0  0  # atno 17394 bound_to 11000
  140.9536  133.7435  156.0305 LP  0  0  0  0  0  0  0  0  0  0  0  0  # atno 17395 bound_to 11000

$$$$
