AV-unprocessed.smi:809|AV-procd|sdf|3805|dock3
  -GOLD-   22720 1243D 1   1.00000     0.00000
 Structure written by MMmdl.
 40 41  0  0  0  0  0  0  0  0  2 V2000
  153.4399  141.8230  161.1573 C   0  0  0  0  0  0  0  0  0  0  0  0
  152.4594  142.6655  160.4036 C   0  0  0  0  0  0  0  0  0  0  0  0
  152.0399  143.9333  160.7257 C   0  0  0  0  0  0  0  0  0  0  0  0
  150.8900  144.5545  159.5719 S   0  0  0  0  0  0  0  0  0  0  0  0
  151.0247  143.0447  158.6843 C   0  0  0  0  0  0  0  0  0  0  0  0
  150.2954  142.8095  157.4895 N   0  0  0  0  0  0  0  0  0  0  0  0
  150.4242  141.7880  156.6253 C   0  0  0  0  0  0  0  0  0  0  0  0
  151.2005  140.8410  156.7527 O   0  0  0  0  0  0  0  0  0  0  0  0
  149.5902  141.9271  155.5850 N   0  0  0  0  0  0  0  0  0  0  0  0
  149.4973  141.0101  154.4515 C   0  0  0  0  0  0  0  0  0  0  0  0
  148.3244  140.0005  154.5622 C   0  0  1  0  0  0  0  0  0  0  0  0
  147.3329  140.5996  155.3773 O   0  0  0  0  0  0  0  0  0  0  0  0
  147.6950  139.7759  153.1691 C   0  0  0  0  0  0  0  0  0  0  0  0
  146.5886  138.7055  153.1775 C   0  0  0  0  0  0  0  0  0  0  0  0
  147.0910  137.4267  153.7343 N   0  3  2  0  0  0  0  0  0  0  0  0
  146.0942  136.3390  153.6337 C   0  0  0  0  0  0  0  0  0  0  0  0
  147.6086  137.5933  155.1138 C   0  0  0  0  0  0  0  0  0  0  0  0
  148.7405  138.6364  155.1634 C   0  0  0  0  0  0  0  0  0  0  0  0
  151.8735  142.1696  159.2355 N   0  0  0  0  0  0  0  0  0  0  0  0
  153.6803  142.2610  162.1263 H   0  0  0  0  0  0  0  0  0  0  0  0
  154.3722  141.7160  160.6026 H   0  0  0  0  0  0  0  0  0  0  0  0
  153.0449  140.8230  161.3376 H   0  0  0  0  0  0  0  0  0  0  0  0
  152.3380  144.5386  161.5688 H   0  0  0  0  0  0  0  0  0  0  0  0
  149.6031  143.5075  157.2611 H   0  0  0  0  0  0  0  0  0  0  0  0
  148.9817  142.7322  155.5689 H   0  0  0  0  0  0  0  0  0  0  0  0
  149.4621  141.5558  153.5065 H   0  0  0  0  0  0  0  0  0  0  0  0
  150.4408  140.4636  154.4393 H   0  0  0  0  0  0  0  0  0  0  0  0
  146.8949  141.2759  154.8846 H   0  0  0  0  0  0  0  0  0  0  0  0
  147.2987  140.7135  152.7761 H   0  0  0  0  0  0  0  0  0  0  0  0
  148.4705  139.4616  152.4691 H   0  0  0  0  0  0  0  0  0  0  0  0
  145.7296  139.0472  153.7574 H   0  0  0  0  0  0  0  0  0  0  0  0
  146.2350  138.5446  152.1584 H   0  0  0  0  0  0  0  0  0  0  0  0
  145.2085  136.5624  154.2301 H   0  0  0  0  0  0  0  0  0  0  0  0
  146.5151  135.3965  153.9852 H   0  0  0  0  0  0  0  0  0  0  0  0
  145.7826  136.1970  152.5985 H   0  0  0  0  0  0  0  0  0  0  0  0
  146.7938  137.8856  155.7782 H   0  0  0  0  0  0  0  0  0  0  0  0
  147.9839  136.6370  155.4800 H   0  0  0  0  0  0  0  0  0  0  0  0
  149.6002  138.2500  154.6140 H   0  0  0  0  0  0  0  0  0  0  0  0
  149.0677  138.7542  156.1972 H   0  0  0  0  0  0  0  0  0  0  0  0
  147.8757  137.1494  153.1616 H   0  0  0  0  0  0  0  0  0  0  0  0
  1  2  1  0  0  0  0
  1 20  1  0  0  0  0
  1 21  1  0  0  0  0
  1 22  1  0  0  0  0
  2 19  1  0  0  0  0
  2  3  2  0  0  0  0
  3  4  1  0  0  0  0
  3 23  1  0  0  0  0
  4  5  1  0  0  0  0
  5  6  1  0  0  0  0
  5 19  2  0  0  0  0
  6  7  1  0  0  0  0
  6 24  1  0  0  0  0
  7  8  2  0  0  0  0
  7  9  1  0  0  0  0
  9 10  1  0  0  0  0
  9 25  1  0  0  0  0
 10 11  1  0  0  0  0
 10 26  1  0  0  0  0
 10 27  1  0  0  0  0
 11 18  1  0  0  0  0
 11 12  1  0  0  0  0
 11 13  1  0  0  0  0
 12 28  1  0  0  0  0
 13 14  1  0  0  0  0
 13 29  1  0  0  0  0
 13 30  1  0  0  0  0
 14 15  1  0  0  0  0
 14 31  1  0  0  0  0
 14 32  1  0  0  0  0
 15 16  1  0  0  0  0
 15 17  1  0  0  0  0
 15 40  1  0  0  0  0
 16 33  1  0  0  0  0
 16 34  1  0  0  0  0
 16 35  1  0  0  0  0
 17 18  1  0  0  0  0
 17 36  1  0  0  0  0
 17 37  1  0  0  0  0
 18 38  1  0  0  0  0
 18 39  1  0  0  0  0
M  CHG  1  15   1
M  END
> <s_m_source_file>
AV-unprocessed.smi

> <i_m_source_file_index>
809

> <i_lp_mmshare_version>
43012

> <i_f3d_flags>
0

> <s_epik_input>
W0NIM11jMVtjSF1zYyhuMSlbTkhdQyg9TylbTkhdW0NIMl1DMihbT0hdKVtDSDJdW0NIMl1OKFtDSDNdKVtDSDJdW0NIMl0y

> <s_epik_cmdline>
J2VwaWtfcHl0aG9uJywgJy1waCcsICc3LjAnLCAnLXRuJywgJzgnLCAnLW1hJywgJzIwMCcsICctbWV0YWxfYmluZGluZycsICctaW1hZScsICc8aW5maWxlLm1hZT4nLCAnLW9tYWUnLCAnPG91dGZpbGUubWFlPic=

> <r_lp_tautomer_probability>
0.999

> <r_epik_Ionization_Penalty>
0.00116503

> <r_epik_Ionization_Penalty_Charging>
0.000767707

> <r_epik_Ionization_Penalty_Neutral>
0.00039732

> <r_epik_State_Penalty>
0.000177984

> <r_epik_Charging_Adjusted_Penalty>
0.00094569

> <i_epik_Tot_Q>
1

> <i_epik_Tot_abs_Q>
1

> <r_epik_Metal_State_Penalty>
0.00775393

> <b_epik_Metal_Only>
0

> <s_lp_Force_Field>
OPLS_2005

> <r_lp_Energy>
16.8218

> <b_lp_Chiralities_Consistent>
1

> <s_lp_Variant>
AV-unprocessed.smi:809-1

> <Gold.Version>
5.8.1

> <Gold.Id.Protein>
6NUR|6NUR_protein|mol2

> <Gold.PLP.Fitness>
41.3331

> <Gold.PLP.PLP>
-31.1365

> <Gold.PLP.part.hbond>
-3.0000

> <Gold.PLP.part.metal>
0.0000

> <Gold.PLP.part.buried>
-1.0002

> <Gold.PLP.part.nonpolar>
-28.0550

> <Gold.PLP.part.repulsive>
0.1993

> <Gold.PLP.ligand.clash>
0.0000

> <Gold.PLP.ligand.torsion>
0.8919

> <Gold.PLP.Chemscore.Hbond>
3.9920

> <Gold.PLP.Chemscore.CHOScore>
0.0000

> <Gold.PLP.Chemscore.Metal>
0.0000

> <Gold.Chemscore.Hbonds>
donor molecule, donor type, donor heavy atom, donor atom, acceptor molecule, acceptor atom, score
      L1  H     6    24       P1  8028  0.67
      L1  H     9    25       P1  8028  0.93
      L1  H    15    40       P1  7948  2.00

> <Gold.PLP.Chemscore.Internal.Correction>
0.0045

> <Gold.Rescore>
     Score         DG    S(hbond)    S(metal)    S(lipo)     H(rot)  DE(clash)    DE(int)     intcor
     15.56     -19.31       2.85        0.00      77.29       1.85       1.57       2.18       ----

> <Gold.Chemscore.Fitness>
15.5594

> <Gold.Chemscore.DG>
-19.3099

> <Gold.Chemscore.ZeroCoef>
-5.4800

> <Gold.Chemscore.Hbond>
2.8489

> <Gold.Chemscore.Metal>
0.0000

> <Gold.Chemscore.Lipo>
77.2921

> <Gold.Chemscore.Internal_Hbond>
0.0000

> <Gold.Chemscore.DEClash>
1.5723

> <Gold.Chemscore.DEInternal>
2.1783

> <Gold.Chemscore.Rot>
1.8471

> <Gold.Chemscore.Internal.Correction>
   9.000000E+99

> <Gold.Chemscore.Hbonds>
donor molecule, donor type, donor heavy atom, donor atom, acceptor molecule, acceptor atom, score
      L1  H     6    24       P1  8028  0.56
      L1  H     9    25       P1  8028  0.87
      L1  H    15    40       P1  7948  0.99

> <Gold.Chemscore.Hbond.Weighted>
-9.5153

> <Gold.Chemscore.Metal.Weighted>
-0.0000

> <Gold.Chemscore.Lipo.Weighted>
-9.0432

> <Gold.Chemscore.Internal_Hbond.Weighted>
0.0000

> <Gold.Chemscore.DEClash.Weighted>
1.5723

> <Gold.Chemscore.DEInternal.Weighted>
2.1783

> <Gold.Chemscore.Rot.Weighted>
4.7286

> <Gold.Chemscore.Internal.Correction.Weighted>
   9.000000E+99

> <Gold.Protein.RotatedTorsions>
[ 6907 6896 6895 6894 ] final    4.71 input  -60.11 | X-H torsion
[ 7974 7965 7964 7962 ] final   28.89 input  175.53 | X-H torsion
[ 8008 7997 7996 7995 ] final -140.55 input   59.86 | X-H torsion
[ 10167 10162 10161 10158 ] final    2.49 input  -65.29 | X-H torsion
[ 10718 10713 10712 10709 ] final  -91.23 input   66.30 | X-H torsion
[ 10763 10752 10751 10750 ] final   76.56 input  -60.55 | X-H torsion
[ 11005 11000 10999 10996 ] final  177.76 input  -57.11 | X-H torsion

> <Gold.Protein.ActiveResidues>
 VAL166  LYS551  ARG553  GLY616  TRP617  ASP618  TYR619  PRO620  LYS621  CYS622 
 ASP623  PHE694  ASN695  SER759  ASP760  ASP761  ALA762  ILE779  LEU786  VAL792 
 PHE793  MET794  SER795  GLU796  ALA797  LYS798  CYS799  TRP800  GLU811  SER814 

> <Gold.Protein.RotatedAtoms>
  151.6457  135.1007  160.0150 H   0  0  0  0  0  0  0  0  0  0  0  0  # atno 6907 bound_to 6896
  152.4029  133.6841  159.6340 H   0  0  0  0  0  0  0  0  0  0  0  0  # atno 6908 bound_to 6896
  150.7927  133.8677  159.3290 H   0  0  0  0  0  0  0  0  0  0  0  0  # atno 6909 bound_to 6896
  146.1703  139.6995  142.8972 H   0  0  0  0  0  0  0  0  0  0  0  0  # atno 7974 bound_to 7965
  155.4631  140.0547  157.2988 H   0  0  0  0  0  0  0  0  0  0  0  0  # atno 8008 bound_to 7997
  154.4729  140.2048  155.9905 H   0  0  0  0  0  0  0  0  0  0  0  0  # atno 8009 bound_to 7997
  156.1085  140.3208  155.8044 H   0  0  0  0  0  0  0  0  0  0  0  0  # atno 8010 bound_to 7997
  140.6632  143.7248  150.7778 H   0  0  0  0  0  0  0  0  0  0  0  0  # atno 10167 bound_to 10162
  155.9992  130.4940  150.5443 H   0  0  0  0  0  0  0  0  0  0  0  0  # atno 10718 bound_to 10713
  153.0735  135.4946  154.8354 H   0  0  0  0  0  0  0  0  0  0  0  0  # atno 10763 bound_to 10752
  154.7055  135.3009  154.9280 H   0  0  0  0  0  0  0  0  0  0  0  0  # atno 10764 bound_to 10752
  153.9990  135.6768  153.4811 H   0  0  0  0  0  0  0  0  0  0  0  0  # atno 10765 bound_to 10752
  140.3877  134.6890  157.4489 H   0  0  0  0  0  0  0  0  0  0  0  0  # atno 11005 bound_to 11000
  145.4358  141.0418  143.2885 LP  0  0  0  0  0  0  0  0  0  0  0  0  # atno 17320 bound_to 7965
  144.8153  139.5888  143.7011 LP  0  0  0  0  0  0  0  0  0  0  0  0  # atno 17321 bound_to 7965
  140.0921  143.4868  152.2473 LP  0  0  0  0  0  0  0  0  0  0  0  0  # atno 17342 bound_to 10162
  139.5872  144.7536  151.3490 LP  0  0  0  0  0  0  0  0  0  0  0  0  # atno 17343 bound_to 10162
  157.3375  131.0710  151.1814 LP  0  0  0  0  0  0  0  0  0  0  0  0  # atno 17370 bound_to 10713
  157.2674  130.6688  149.6003 LP  0  0  0  0  0  0  0  0  0  0  0  0  # atno 17371 bound_to 10713
  140.0430  134.6239  155.8956 LP  0  0  0  0  0  0  0  0  0  0  0  0  # atno 17394 bound_to 11000
  141.1902  133.6567  156.5400 LP  0  0  0  0  0  0  0  0  0  0  0  0  # atno 17395 bound_to 11000

$$$$
