AV-unprocessed.smi:1867|AV-procd|sdf|7566|dock6
  -GOLD-   22720 9283D 1   1.00000     0.00000
 Structure written by MMmdl.
 52 55  0  0  0  0  0  0  0  0  2 V2000
  148.7442  135.2864  156.2837 O   0  0  0  0  0  0  0  0  0  0  0  0
  148.8641  135.4541  155.0724 C   0  0  0  0  0  0  0  0  0  0  0  0
  149.3642  136.5651  154.4974 N   0  0  0  0  0  0  0  0  0  0  0  0
  149.9089  137.7172  155.1236 C   0  0  0  0  0  0  0  0  0  0  0  0
  150.0510  137.7045  156.5245 C   0  0  0  0  0  0  0  0  0  0  0  0
  150.5701  138.8397  157.1748 C   0  0  0  0  0  0  0  0  0  0  0  0
  150.9287  139.9703  156.4023 C   0  0  0  0  0  0  0  0  0  0  0  0
  151.4487  141.1313  157.0087 N   0  0  0  0  0  0  0  0  0  0  0  0
  151.0054  142.4649  156.6360 C   0  0  0  0  0  0  0  0  0  0  0  0
  151.7017  143.3984  157.6259 C   0  0  0  0  0  0  0  0  0  0  0  0
  151.8150  142.5459  158.8896 C   0  0  0  0  0  0  0  0  0  0  0  0
  151.9953  141.1192  158.3601 C   0  0  0  0  0  0  0  0  0  0  0  0
  150.7718  139.9904  155.0574 N   0  0  0  0  0  0  0  0  0  0  0  0
  150.2771  138.8983  154.4374 C   0  0  0  0  0  0  0  0  0  0  0  0
  148.4742  134.5068  154.1996 N   0  0  0  0  0  0  0  0  0  0  0  0
  147.8922  133.1895  154.4762 C   0  0  2  0  0  0  0  0  0  0  0  0
  148.9253  132.0506  154.3720 C   0  0  0  0  0  0  0  0  0  0  0  0
  148.1763  130.9083  153.6788 C   0  0  0  0  0  0  0  0  0  0  0  0
  147.2654  131.6175  152.7737 N   0  3  1  0  0  0  0  0  0  0  0  0
  146.1994  130.8489  152.0996 C   0  0  0  0  0  0  0  0  0  0  0  0
  145.5112  131.7707  151.0699 C   0  0  0  0  0  0  0  0  0  0  0  0
  145.0406  133.1018  151.6988 C   0  0  0  0  0  0  0  0  0  0  0  0
  146.1676  133.7902  152.4994 C   0  0  0  0  0  0  0  0  0  0  0  0
  146.7509  132.7854  153.5099 C   0  0  2  0  0  0  0  0  0  0  0  0
  149.3103  136.6065  153.4905 H   0  0  0  0  0  0  0  0  0  0  0  0
  149.7696  136.8338  157.0988 H   0  0  0  0  0  0  0  0  0  0  0  0
  150.6820  138.8258  158.2485 H   0  0  0  0  0  0  0  0  0  0  0  0
  151.2704  142.7067  155.6063 H   0  0  0  0  0  0  0  0  0  0  0  0
  149.9217  142.5299  156.7414 H   0  0  0  0  0  0  0  0  0  0  0  0
  152.6990  143.6472  157.2602 H   0  0  0  0  0  0  0  0  0  0  0  0
  151.1577  144.3299  157.7848 H   0  0  0  0  0  0  0  0  0  0  0  0
  152.6283  142.8594  159.5447 H   0  0  0  0  0  0  0  0  0  0  0  0
  150.8848  142.6109  159.4558 H   0  0  0  0  0  0  0  0  0  0  0  0
  151.4958  140.3973  159.0075 H   0  0  0  0  0  0  0  0  0  0  0  0
  153.0523  140.8565  158.3069 H   0  0  0  0  0  0  0  0  0  0  0  0
  150.1601  139.0007  153.3699 H   0  0  0  0  0  0  0  0  0  0  0  0
  148.5987  134.7313  153.2227 H   0  0  0  0  0  0  0  0  0  0  0  0
  147.5025  133.1731  155.4957 H   0  0  0  0  0  0  0  0  0  0  0  0
  149.7667  132.3577  153.7484 H   0  0  0  0  0  0  0  0  0  0  0  0
  149.3269  131.7564  155.3421 H   0  0  0  0  0  0  0  0  0  0  0  0
  148.8421  130.2321  153.1415 H   0  0  0  0  0  0  0  0  0  0  0  0
  147.6015  130.3285  154.4029 H   0  0  0  0  0  0  0  0  0  0  0  0
  146.6304  129.9813  151.5989 H   0  0  0  0  0  0  0  0  0  0  0  0
  145.4815  130.4777  152.8323 H   0  0  0  0  0  0  0  0  0  0  0  0
  146.2118  131.9885  150.2627 H   0  0  0  0  0  0  0  0  0  0  0  0
  144.6675  131.2546  150.6107 H   0  0  0  0  0  0  0  0  0  0  0  0
  144.6696  133.7722  150.9229 H   0  0  0  0  0  0  0  0  0  0  0  0
  144.1974  132.9054  152.3624 H   0  0  0  0  0  0  0  0  0  0  0  0
  146.9455  134.1445  151.8217 H   0  0  0  0  0  0  0  0  0  0  0  0
  145.7678  134.6654  153.0115 H   0  0  0  0  0  0  0  0  0  0  0  0
  145.9301  132.4373  154.1411 H   0  0  0  0  0  0  0  0  0  0  0  0
  147.8539  131.9897  152.0420 H   0  0  0  0  0  0  0  0  0  0  0  0
  1  2  2  0  0  0  0
  2  3  1  0  0  0  0
  2 15  1  0  0  0  0
  3  4  1  0  0  0  0
  3 25  1  0  0  0  0
  4 14  1  0  0  0  0
  4  5  2  0  0  0  0
  5  6  1  0  0  0  0
  5 26  1  0  0  0  0
  6  7  2  0  0  0  0
  6 27  1  0  0  0  0
  7  8  1  0  0  0  0
  7 13  1  0  0  0  0
  8 12  1  0  0  0  0
  8  9  1  0  0  0  0
  9 10  1  0  0  0  0
  9 28  1  0  0  0  0
  9 29  1  0  0  0  0
 10 11  1  0  0  0  0
 10 30  1  0  0  0  0
 10 31  1  0  0  0  0
 11 12  1  0  0  0  0
 11 32  1  0  0  0  0
 11 33  1  0  0  0  0
 12 34  1  0  0  0  0
 12 35  1  0  0  0  0
 13 14  2  0  0  0  0
 14 36  1  0  0  0  0
 15 16  1  0  0  0  0
 15 37  1  0  0  0  0
 16 24  1  0  0  0  0
 16 17  1  0  0  0  0
 16 38  1  0  0  0  0
 17 18  1  0  0  0  0
 17 39  1  0  0  0  0
 17 40  1  0  0  0  0
 18 19  1  0  0  0  0
 18 41  1  0  0  0  0
 18 42  1  0  0  0  0
 19 24  1  0  0  0  0
 19 20  1  0  0  0  0
 19 52  1  0  0  0  0
 20 21  1  0  0  0  0
 20 43  1  0  0  0  0
 20 44  1  0  0  0  0
 21 22  1  0  0  0  0
 21 45  1  0  0  0  0
 21 46  1  0  0  0  0
 22 23  1  0  0  0  0
 22 47  1  0  0  0  0
 22 48  1  0  0  0  0
 23 24  1  0  0  0  0
 23 49  1  0  0  0  0
 23 50  1  0  0  0  0
 24 51  1  0  0  0  0
M  CHG  1  19   1
M  END
> <s_m_source_file>
AV-unprocessed.smi

> <i_m_source_file_index>
1867

> <i_lp_mmshare_version>
43012

> <i_f3d_flags>
0

> <s_epik_input>
W0NIMl0xW0NIMl1bQ0gyXVtDSDJdW0NASF0oTjEyKVtDQEBIXShbQ0gyXVtDSDJdMilbTkhdQyg9TylbTkhdYzNbY0hdW2NIXWMobltjSF0zKU40W0NIMl1bQ0gyXVtDSDJdW0NIMl00

> <s_epik_cmdline>
J2VwaWtfcHl0aG9uJywgJy1waCcsICc3LjAnLCAnLXRuJywgJzgnLCAnLW1hJywgJzIwMCcsICctbWV0YWxfYmluZGluZycsICctaW1hZScsICc8aW5maWxlLm1hZT4nLCAnLW9tYWUnLCAnPG91dGZpbGUubWFlPic=

> <r_lp_tautomer_probability>
1

> <r_epik_Ionization_Penalty>
0.0751123

> <r_epik_Ionization_Penalty_Charging>
0.000974069

> <r_epik_Ionization_Penalty_Neutral>
0.0741382

> <r_epik_State_Penalty>
0.0647261

> <r_epik_Charging_Adjusted_Penalty>
0.0657002

> <i_epik_Tot_Q>
1

> <i_epik_Tot_abs_Q>
1

> <r_epik_Metal_State_Penalty>
0.0580571

> <b_epik_Metal_Only>
0

> <s_lp_Force_Field>
OPLS_2005

> <r_lp_Energy>
77.2507

> <b_lp_Chiralities_Consistent>
1

> <s_lp_Variant>
AV-unprocessed.smi:1867-7

> <Gold.Version>
5.8.1

> <Gold.Id.Protein>
6NUR|6NUR_protein|mol2

> <Gold.PLP.Fitness>
48.8697

> <Gold.PLP.PLP>
-37.5133

> <Gold.PLP.part.hbond>
-4.0000

> <Gold.PLP.part.metal>
0.0000

> <Gold.PLP.part.buried>
-3.8254

> <Gold.PLP.part.nonpolar>
-29.4126

> <Gold.PLP.part.repulsive>
0.0987

> <Gold.PLP.ligand.clash>
0.0000

> <Gold.PLP.ligand.torsion>
0.7082

> <Gold.PLP.Chemscore.Hbond>
3.2031

> <Gold.PLP.Chemscore.CHOScore>
1.0000

> <Gold.PLP.Chemscore.Metal>
0.0000

> <Gold.Chemscore.Hbonds>
donor molecule, donor type, donor heavy atom, donor atom, acceptor molecule, acceptor atom, score
      L1  H     3    25       P1  7948  1.00
      L1  H    15    37       P1  7948  0.93
      L1  H    19    52       P1 10747  0.08
      P1  H  7989  7998       L1    13  0.95
      L1  C    14    36       P1  7957  1.00

> <Gold.PLP.Chemscore.Internal.Correction>
0.1634

> <Gold.Rescore>
     Score         DG    S(hbond)    S(metal)    S(lipo)     H(rot)  DE(clash)    DE(int)     intcor
     19.25     -21.68       2.02        0.00     102.72       1.00       0.20       2.23       ----

> <Gold.Chemscore.Fitness>
19.2476

> <Gold.Chemscore.DG>
-21.6784

> <Gold.Chemscore.ZeroCoef>
-5.4800

> <Gold.Chemscore.Hbond>
2.0181

> <Gold.Chemscore.Metal>
0.0000

> <Gold.Chemscore.Lipo>
102.7166

> <Gold.Chemscore.Internal_Hbond>
0.0000

> <Gold.Chemscore.DEClash>
0.1995

> <Gold.Chemscore.DEInternal>
2.2313

> <Gold.Chemscore.Rot>
1.0000

> <Gold.Chemscore.Internal.Correction>
   9.000000E+99

> <Gold.Chemscore.Hbonds>
donor molecule, donor type, donor heavy atom, donor atom, acceptor molecule, acceptor atom, score
      L1  H     3    25       P1  7948  0.93
      L1  H    15    37       P1  7948  0.38
      L1  H    19    52       P1 10747  0.10
      P1  H  7989  7998       L1    13  0.21

> <Gold.Chemscore.Hbond.Weighted>
-6.7405

> <Gold.Chemscore.Metal.Weighted>
-0.0000

> <Gold.Chemscore.Lipo.Weighted>
-12.0178

> <Gold.Chemscore.Internal_Hbond.Weighted>
0.0000

> <Gold.Chemscore.DEClash.Weighted>
0.1995

> <Gold.Chemscore.DEInternal.Weighted>
2.2313

> <Gold.Chemscore.Rot.Weighted>
2.5600

> <Gold.Chemscore.Internal.Correction.Weighted>
   9.000000E+99

> <Gold.Protein.RotatedTorsions>
[ 6907 6896 6895 6894 ] final  -28.35 input  -60.11 | X-H torsion
[ 7974 7965 7964 7962 ] final -152.43 input  175.53 | X-H torsion
[ 8008 7997 7996 7995 ] final   24.15 input   59.86 | X-H torsion
[ 10167 10162 10161 10158 ] final  103.31 input  -65.29 | X-H torsion
[ 10718 10713 10712 10709 ] final  107.71 input   66.30 | X-H torsion
[ 10763 10752 10751 10750 ] final  -52.30 input  -60.55 | X-H torsion
[ 11005 11000 10999 10996 ] final -106.94 input  -57.11 | X-H torsion

> <Gold.Protein.ActiveResidues>
 VAL166  LYS551  ARG553  GLY616  TRP617  ASP618  TYR619  PRO620  LYS621  CYS622 
 ASP623  PHE694  ASN695  SER759  ASP760  ASP761  ALA762  ILE779  LEU786  VAL792 
 PHE793  MET794  SER795  GLU796  ALA797  LYS798  CYS799  TRP800  GLU811  SER814 

> <Gold.Protein.RotatedAtoms>
  151.1342  135.0146  159.8595 H   0  0  0  0  0  0  0  0  0  0  0  0  # atno 6907 bound_to 6896
  152.5451  134.1575  159.8554 H   0  0  0  0  0  0  0  0  0  0  0  0  # atno 6908 bound_to 6896
  151.1645  133.4779  159.2627 H   0  0  0  0  0  0  0  0  0  0  0  0  # atno 6909 bound_to 6896
  144.7795  140.4663  143.5849 H   0  0  0  0  0  0  0  0  0  0  0  0  # atno 7974 bound_to 7965
  154.9919  140.3115  155.4903 H   0  0  0  0  0  0  0  0  0  0  0  0  # atno 8008 bound_to 7997
  156.2938  140.2247  156.4964 H   0  0  0  0  0  0  0  0  0  0  0  0  # atno 8009 bound_to 7997
  154.7696  140.0453  157.1028 H   0  0  0  0  0  0  0  0  0  0  0  0  # atno 8010 bound_to 7997
  139.7274  144.7044  151.0777 H   0  0  0  0  0  0  0  0  0  0  0  0  # atno 10167 bound_to 10162
  157.6617  131.0878  150.6197 H   0  0  0  0  0  0  0  0  0  0  0  0  # atno 10718 bound_to 10713
  154.1405  135.6506  153.4941 H   0  0  0  0  0  0  0  0  0  0  0  0  # atno 10763 bound_to 10752
  153.0167  135.5314  154.6909 H   0  0  0  0  0  0  0  0  0  0  0  0  # atno 10764 bound_to 10752
  154.6169  135.2960  155.0340 H   0  0  0  0  0  0  0  0  0  0  0  0  # atno 10765 bound_to 10752
  141.0979  133.8937  157.1916 H   0  0  0  0  0  0  0  0  0  0  0  0  # atno 11005 bound_to 11000
  145.6091  139.1511  143.3086 LP  0  0  0  0  0  0  0  0  0  0  0  0  # atno 17320 bound_to 7965
  146.1994  140.6208  142.9109 LP  0  0  0  0  0  0  0  0  0  0  0  0  # atno 17321 bound_to 7965
  140.7765  143.5088  150.9679 LP  0  0  0  0  0  0  0  0  0  0  0  0  # atno 17342 bound_to 10162
  139.8775  143.7113  152.3160 LP  0  0  0  0  0  0  0  0  0  0  0  0  # atno 17343 bound_to 10162
  156.6500  130.4482  149.5723 LP  0  0  0  0  0  0  0  0  0  0  0  0  # atno 17370 bound_to 10713
  156.2145  130.6699  151.1304 LP  0  0  0  0  0  0  0  0  0  0  0  0  # atno 17371 bound_to 10713
  139.9821  135.0094  156.9775 LP  0  0  0  0  0  0  0  0  0  0  0  0  # atno 17394 bound_to 11000
  140.5094  134.1017  155.7267 LP  0  0  0  0  0  0  0  0  0  0  0  0  # atno 17395 bound_to 11000

$$$$
