AV-unprocessed.smi:1399|AV-procd|sdf|5684|dock1
  -GOLD-   22720 5313D 1   1.00000     0.00000
 Structure written by MMmdl.
 37 38  0  0  0  0  0  0  0  0  3 V2000
  142.5501  132.9619  150.9557 N   0  5  0  0  0  0  0  0  0  0  0  0
  143.7327  132.4269  150.5969 C   0  0  0  0  0  0  0  0  0  0  0  0
  144.0300  131.8994  149.5270 O   0  0  0  0  0  0  0  0  0  0  0  0
  144.7899  132.5495  151.6993 C   0  0  0  0  0  0  0  0  0  0  0  0
  145.0564  133.9791  151.9957 N   0  3  2  0  0  0  0  0  0  0  0  0
  144.1012  134.5376  152.9860 C   0  0  0  0  0  0  0  0  0  0  0  0
  144.4863  135.9731  153.3825 C   0  0  0  0  0  0  0  0  0  0  0  0
  144.5760  136.8850  152.1485 C   0  0  1  0  0  0  0  0  0  0  0  0
  145.0236  138.2173  152.5439 N   0  0  0  0  0  0  0  0  0  0  0  0
  146.2441  138.5114  153.0152 C   0  0  0  0  0  0  0  0  0  0  0  0
  147.1362  137.6757  153.1603 O   0  0  0  0  0  0  0  0  0  0  0  0
  146.3541  139.8174  153.3076 N   0  0  0  0  0  0  0  0  0  0  0  0
  147.4931  140.4871  153.8210 C   0  0  0  0  0  0  0  0  0  0  0  0
  148.7920  139.9714  154.1048 C   0  0  0  0  0  0  0  0  0  0  0  0
  149.5918  140.9184  154.5745 N   0  0  0  0  0  0  0  0  0  0  0  0
  148.8203  142.0286  154.5927 N   0  0  0  0  0  0  0  0  0  0  0  0
  147.5373  141.8112  154.1410 C   0  0  0  0  0  0  0  0  0  0  0  0
  145.5422  136.2665  151.1222 C   0  0  0  0  0  0  0  0  0  0  0  0
  145.1359  134.8252  150.7743 C   0  0  0  0  0  0  0  0  0  0  0  0
  149.1801  142.9166  154.9131 H   0  0  0  0  0  0  0  0  0  0  0  0
  142.0556  133.5605  150.2832 H   0  0  0  0  0  0  0  0  0  0  0  0
  144.5160  132.0136  152.6109 H   0  0  0  0  0  0  0  0  0  0  0  0
  145.6946  132.0720  151.3208 H   0  0  0  0  0  0  0  0  0  0  0  0
  143.0924  134.5178  152.5704 H   0  0  0  0  0  0  0  0  0  0  0  0
  144.0895  133.9122  153.8794 H   0  0  0  0  0  0  0  0  0  0  0  0
  143.7541  136.3685  154.0876 H   0  0  0  0  0  0  0  0  0  0  0  0
  145.4438  135.9585  153.9058 H   0  0  0  0  0  0  0  0  0  0  0  0
  143.5812  136.9568  151.7040 H   0  0  0  0  0  0  0  0  0  0  0  0
  144.3538  138.9679  152.4580 H   0  0  0  0  0  0  0  0  0  0  0  0
  145.5382  140.3914  153.1534 H   0  0  0  0  0  0  0  0  0  0  0  0
  149.1816  138.9709  153.9911 H   0  0  0  0  0  0  0  0  0  0  0  0
  146.7937  142.5927  154.0909 H   0  0  0  0  0  0  0  0  0  0  0  0
  145.5638  136.8688  150.2131 H   0  0  0  0  0  0  0  0  0  0  0  0
  146.5586  136.2697  151.5189 H   0  0  0  0  0  0  0  0  0  0  0  0
  145.8627  134.4116  150.0748 H   0  0  0  0  0  0  0  0  0  0  0  0
  144.1714  134.8208  150.2641 H   0  0  0  0  0  0  0  0  0  0  0  0
  145.9675  134.0028  152.4313 H   0  0  0  0  0  0  0  0  0  0  0  0
  1  2  1  0  0  0  0
  1 21  1  0  0  0  0
  2  3  2  0  0  0  0
  2  4  1  0  0  0  0
  4  5  1  0  0  0  0
  4 22  1  0  0  0  0
  4 23  1  0  0  0  0
  5 19  1  0  0  0  0
  5  6  1  0  0  0  0
  5 37  1  0  0  0  0
  6  7  1  0  0  0  0
  6 24  1  0  0  0  0
  6 25  1  0  0  0  0
  7  8  1  0  0  0  0
  7 26  1  0  0  0  0
  7 27  1  0  0  0  0
  8  9  1  0  0  0  0
  8 18  1  0  0  0  0
  8 28  1  0  0  0  0
  9 10  1  0  0  0  0
  9 29  1  0  0  0  0
 10 11  2  0  0  0  0
 10 12  1  0  0  0  0
 12 13  1  0  0  0  0
 12 30  1  0  0  0  0
 13 17  2  0  0  0  0
 13 14  1  0  0  0  0
 14 15  2  0  0  0  0
 14 31  1  0  0  0  0
 15 16  1  0  0  0  0
 16 20  1  0  0  0  0
 16 17  1  0  0  0  0
 17 32  1  0  0  0  0
 18 19  1  0  0  0  0
 18 33  1  0  0  0  0
 18 34  1  0  0  0  0
 19 35  1  0  0  0  0
 19 36  1  0  0  0  0
M  CHG  1   1  -1
M  CHG  1   5   1
M  END
> <s_m_source_file>
AV-unprocessed.smi

> <i_m_source_file_index>
1399

> <i_lp_mmshare_version>
43012

> <i_f3d_flags>
0

> <s_epik_input>
W05IMl1DKD1PKVtDSDJdTjFbQ0gyXVtDSDJdW0NIXShbQ0gyXVtDSDJdMSlbTkhdQyg9TylbTkhdYzJbY0hdbltuSF1bY0hdMg==

> <s_epik_cmdline>
J2VwaWtfcHl0aG9uJywgJy1waCcsICc3LjAnLCAnLXRuJywgJzgnLCAnLW1hJywgJzIwMCcsICctbWV0YWxfYmluZGluZycsICctaW1hZScsICc8aW5maWxlLm1hZT4nLCAnLW9tYWUnLCAnPG91dGZpbGUubWFlPic=

> <r_lp_tautomer_probability>
0.5

> <r_epik_Ionization_Penalty>
5.72885

> <r_epik_Ionization_Penalty_Charging>
5.7288

> <r_epik_Ionization_Penalty_Neutral>
4.21226e-05

> <r_epik_State_Penalty>
6.54882

> <r_epik_Charging_Adjusted_Penalty>
12.2776

> <i_epik_Tot_Q>
0

> <i_epik_Tot_abs_Q>
2

> <r_epik_Metal_State_Penalty>
2.51297

> <b_epik_Metal_Only>
1

> <s_lp_Force_Field>
OPLS_2005

> <r_lp_Energy>
11.0753

> <b_lp_Chiralities_Consistent>
1

> <s_lp_Variant>
AV-unprocessed.smi:1399-4

> <Gold.Version>
5.8.1

> <Gold.Id.Protein>
6NUR|6NUR_protein|mol2

> <Gold.PLP.Fitness>
43.2540

> <Gold.PLP.PLP>
-28.6867

> <Gold.PLP.part.hbond>
-7.0000

> <Gold.PLP.part.metal>
0.0000

> <Gold.PLP.part.buried>
-4.2050

> <Gold.PLP.part.nonpolar>
-22.6101

> <Gold.PLP.part.repulsive>
4.6460

> <Gold.PLP.ligand.clash>
0.0000

> <Gold.PLP.ligand.torsion>
0.2773

> <Gold.PLP.Chemscore.Hbond>
5.0286

> <Gold.PLP.Chemscore.CHOScore>
0.0000

> <Gold.PLP.Chemscore.Metal>
0.0000

> <Gold.Chemscore.Hbonds>
donor molecule, donor type, donor heavy atom, donor atom, acceptor molecule, acceptor atom, score
      L1  H     1    21       P1 10186  1.00
      L1  H     9    29       P1 10175  1.00
      L1  H    12    30       P1 10175  0.94
      L1  H    16    20       P1  8028  1.00
      P1  H  7989  7998       L1    15  0.22
      P1  H 10785 10796       L1     3  0.62

> <Gold.PLP.Chemscore.Internal.Correction>
0.0360

> <Gold.Rescore>
     Score         DG    S(hbond)    S(metal)    S(lipo)     H(rot)  DE(clash)    DE(int)     intcor
     16.83     -20.95       4.52        0.00      48.11       2.06       1.44       2.68       ----

> <Gold.Chemscore.Fitness>
16.8315

> <Gold.Chemscore.DG>
-20.9526

> <Gold.Chemscore.ZeroCoef>
-5.4800

> <Gold.Chemscore.Hbond>
4.5249

> <Gold.Chemscore.Metal>
0.0000

> <Gold.Chemscore.Lipo>
48.1094

> <Gold.Chemscore.Internal_Hbond>
0.0000

> <Gold.Chemscore.DEClash>
1.4400

> <Gold.Chemscore.DEInternal>
2.6811

> <Gold.Chemscore.Rot>
2.0584

> <Gold.Chemscore.Internal.Correction>
   9.000000E+99

> <Gold.Chemscore.Hbonds>
donor molecule, donor type, donor heavy atom, donor atom, acceptor molecule, acceptor atom, score
      L1  H     1    21       P1 10186  0.93
      L1  H     9    29       P1 10175  0.99
      L1  H    12    30       P1 10175  0.85
      L1  H    16    20       P1  8028  0.93
      P1  H  7989  7998       L1    15  0.17
      P1  H 10785 10796       L1     3  0.61

> <Gold.Chemscore.Hbond.Weighted>
-15.1133

> <Gold.Chemscore.Metal.Weighted>
-0.0000

> <Gold.Chemscore.Lipo.Weighted>
-5.6288

> <Gold.Chemscore.Internal_Hbond.Weighted>
0.0000

> <Gold.Chemscore.DEClash.Weighted>
1.4400

> <Gold.Chemscore.DEInternal.Weighted>
2.6811

> <Gold.Chemscore.Rot.Weighted>
5.2695

> <Gold.Chemscore.Internal.Correction.Weighted>
   9.000000E+99

> <Gold.Protein.RotatedTorsions>
[ 6907 6896 6895 6894 ] final  -38.09 input  -60.11 | X-H torsion
[ 7974 7965 7964 7962 ] final  163.94 input  175.53 | X-H torsion
[ 8008 7997 7996 7995 ] final   -0.15 input   59.86 | X-H torsion
[ 10167 10162 10161 10158 ] final   31.79 input  -65.29 | X-H torsion
[ 10718 10713 10712 10709 ] final  -76.93 input   66.30 | X-H torsion
[ 10763 10752 10751 10750 ] final  -27.63 input  -60.55 | X-H torsion
[ 11005 11000 10999 10996 ] final   10.66 input  -57.11 | X-H torsion

> <Gold.Protein.ActiveResidues>
 VAL166  LYS551  ARG553  GLY616  TRP617  ASP618  TYR619  PRO620  LYS621  CYS622 
 ASP623  PHE694  ASN695  SER759  ASP760  ASP761  ALA762  ILE779  LEU786  VAL792 
 PHE793  MET794  SER795  GLU796  ALA797  LYS798  CYS799  TRP800  GLU811  SER814 

> <Gold.Protein.RotatedAtoms>
  151.0066  134.9364  159.7983 H   0  0  0  0  0  0  0  0  0  0  0  0  # atno 6907 bound_to 6896
  152.5292  134.3083  159.9114 H   0  0  0  0  0  0  0  0  0  0  0  0  # atno 6908 bound_to 6896
  151.3089  133.4047  159.2679 H   0  0  0  0  0  0  0  0  0  0  0  0  # atno 6909 bound_to 6896
  144.7567  139.8254  143.6347 H   0  0  0  0  0  0  0  0  0  0  0  0  # atno 7974 bound_to 7965
  154.6614  140.2591  155.7105 H   0  0  0  0  0  0  0  0  0  0  0  0  # atno 8008 bound_to 7997
  156.2620  140.2848  156.1009 H   0  0  0  0  0  0  0  0  0  0  0  0  # atno 8009 bound_to 7997
  155.1303  140.0378  157.2763 H   0  0  0  0  0  0  0  0  0  0  0  0  # atno 8010 bound_to 7997
  140.4557  144.0982  150.6201 H   0  0  0  0  0  0  0  0  0  0  0  0  # atno 10167 bound_to 10162
  156.0160  130.4478  150.3268 H   0  0  0  0  0  0  0  0  0  0  0  0  # atno 10718 bound_to 10713
  153.7353  135.6936  153.4979 H   0  0  0  0  0  0  0  0  0  0  0  0  # atno 10763 bound_to 10752
  153.2107  135.4404  155.0375 H   0  0  0  0  0  0  0  0  0  0  0  0  # atno 10764 bound_to 10752
  154.8239  135.3436  154.6881 H   0  0  0  0  0  0  0  0  0  0  0  0  # atno 10765 bound_to 10752
  140.5120  134.0643  155.7821 H   0  0  0  0  0  0  0  0  0  0  0  0  # atno 11005 bound_to 11000
  146.1586  139.4692  143.0003 LP  0  0  0  0  0  0  0  0  0  0  0  0  # atno 17320 bound_to 7965
  145.6755  141.0205  143.1635 LP  0  0  0  0  0  0  0  0  0  0  0  0  # atno 17321 bound_to 7965
  140.4154  143.2637  151.9781 LP  0  0  0  0  0  0  0  0  0  0  0  0  # atno 17342 bound_to 10162
  139.4801  144.5878  151.7823 LP  0  0  0  0  0  0  0  0  0  0  0  0  # atno 17343 bound_to 10162
  157.1367  131.0286  151.2946 LP  0  0  0  0  0  0  0  0  0  0  0  0  # atno 17370 bound_to 10713
  157.4506  130.7596  149.7148 LP  0  0  0  0  0  0  0  0  0  0  0  0  # atno 17371 bound_to 10713
  141.1380  133.9187  157.2389 LP  0  0  0  0  0  0  0  0  0  0  0  0  # atno 17394 bound_to 11000
  139.9653  135.0143  156.9371 LP  0  0  0  0  0  0  0  0  0  0  0  0  # atno 17395 bound_to 11000

$$$$
