AV-unprocessed.smi:1514|AV-procd|sdf|6114|dock9
  -GOLD-   22720 6243D 1   1.00000     0.00000
 Structure written by MMmdl.
 48 49  0  0  0  0  0  0  0  0  2 V2000
  151.3468  140.3377  156.2126 C   0  0  0  0  0  0  0  0  0  0  0  0
  150.7004  141.6841  156.5706 C   0  0  0  0  0  0  0  0  0  0  0  0
  149.3037  141.7980  156.0810 N   0  3  0  0  0  0  0  0  0  0  0  0
  148.3524  140.8910  156.7715 C   0  0  0  0  0  0  0  0  0  0  0  0
  146.9158  141.1130  156.2516 C   0  0  0  0  0  0  0  0  0  0  0  0
  146.8146  140.9134  154.8041 N   0  0  0  0  0  0  0  0  0  0  0  0
  146.9371  139.5015  154.4260 C   0  0  0  0  0  0  0  0  0  0  0  0
  146.3414  139.1950  153.0398 C   0  0  0  0  0  0  0  0  0  0  0  0
  146.7207  137.8642  152.5826 N   0  0  0  0  0  0  0  0  0  0  0  0
  145.8527  136.9319  152.1683 C   0  0  0  0  0  0  0  0  0  0  0  0
  144.6354  137.1122  152.1313 O   0  0  0  0  0  0  0  0  0  0  0  0
  146.4876  135.8021  151.8108 N   0  0  0  0  0  0  0  0  0  0  0  0
  145.9584  134.6437  151.3355 C   0  0  0  0  0  0  0  0  0  0  0  0
  144.8806  134.4629  150.5124 C   0  0  0  0  0  0  0  0  0  0  0  0
  144.8250  133.0453  150.3755 C   0  0  0  0  0  0  0  0  0  0  0  0
  143.8451  132.2324  149.5819 C   0  0  0  0  0  0  0  0  0  0  0  0
  145.7841  132.4264  151.0552 N   0  0  0  0  0  0  0  0  0  0  0  0
  146.4891  133.4127  151.6508 N   0  0  0  0  0  0  0  0  0  0  0  0
  147.6282  133.0886  152.4875 C   0  0  0  0  0  0  0  0  0  0  0  0
  147.7519  141.8226  154.1353 C   0  0  0  0  0  0  0  0  0  0  0  0
  149.2048  141.6162  154.6124 C   0  0  0  0  0  0  0  0  0  0  0  0
  152.3318  140.2526  156.6718 H   0  0  0  0  0  0  0  0  0  0  0  0
  151.4831  140.2211  155.1378 H   0  0  0  0  0  0  0  0  0  0  0  0
  150.7444  139.5022  156.5700 H   0  0  0  0  0  0  0  0  0  0  0  0
  150.7025  141.7755  157.6576 H   0  0  0  0  0  0  0  0  0  0  0  0
  151.2998  142.5118  156.1890 H   0  0  0  0  0  0  0  0  0  0  0  0
  148.6613  139.8529  156.6417 H   0  0  0  0  0  0  0  0  0  0  0  0
  148.3647  141.0852  157.8434 H   0  0  0  0  0  0  0  0  0  0  0  0
  146.2192  140.4488  156.7649 H   0  0  0  0  0  0  0  0  0  0  0  0
  146.5968  142.1296  156.4860 H   0  0  0  0  0  0  0  0  0  0  0  0
  147.9757  139.1748  154.4587 H   0  0  0  0  0  0  0  0  0  0  0  0
  146.4060  138.8985  155.1638 H   0  0  0  0  0  0  0  0  0  0  0  0
  145.2557  139.2945  153.0423 H   0  0  0  0  0  0  0  0  0  0  0  0
  146.7135  139.9291  152.3237 H   0  0  0  0  0  0  0  0  0  0  0  0
  147.7050  137.6397  152.5899 H   0  0  0  0  0  0  0  0  0  0  0  0
  147.4926  135.8089  151.9019 H   0  0  0  0  0  0  0  0  0  0  0  0
  144.2297  135.2030  150.0718 H   0  0  0  0  0  0  0  0  0  0  0  0
  143.0496  132.8588  149.1779 H   0  0  0  0  0  0  0  0  0  0  0  0
  143.3792  131.4638  150.1993 H   0  0  0  0  0  0  0  0  0  0  0  0
  144.3354  131.7367  148.7439 H   0  0  0  0  0  0  0  0  0  0  0  0
  147.4099  133.3569  153.5213 H   0  0  0  0  0  0  0  0  0  0  0  0
  148.5019  133.6470  152.1507 H   0  0  0  0  0  0  0  0  0  0  0  0
  147.8512  132.0219  152.4372 H   0  0  0  0  0  0  0  0  0  0  0  0
  147.6871  141.7143  153.0534 H   0  0  0  0  0  0  0  0  0  0  0  0
  147.4457  142.8478  154.3482 H   0  0  0  0  0  0  0  0  0  0  0  0
  149.8458  142.3450  154.1149 H   0  0  0  0  0  0  0  0  0  0  0  0
  149.5781  140.6315  154.3283 H   0  0  0  0  0  0  0  0  0  0  0  0
  149.0029  142.7433  156.2706 H   0  0  0  0  0  0  0  0  0  0  0  0
  1  2  1  0  0  0  0
  1 22  1  0  0  0  0
  1 23  1  0  0  0  0
  1 24  1  0  0  0  0
  2  3  1  0  0  0  0
  2 25  1  0  0  0  0
  2 26  1  0  0  0  0
  3 21  1  0  0  0  0
  3  4  1  0  0  0  0
  3 48  1  0  0  0  0
  4  5  1  0  0  0  0
  4 27  1  0  0  0  0
  4 28  1  0  0  0  0
  5  6  1  0  0  0  0
  5 29  1  0  0  0  0
  5 30  1  0  0  0  0
  6  7  1  0  0  0  0
  6 20  1  0  0  0  0
  7  8  1  0  0  0  0
  7 31  1  0  0  0  0
  7 32  1  0  0  0  0
  8  9  1  0  0  0  0
  8 33  1  0  0  0  0
  8 34  1  0  0  0  0
  9 10  1  0  0  0  0
  9 35  1  0  0  0  0
 10 11  2  0  0  0  0
 10 12  1  0  0  0  0
 12 13  1  0  0  0  0
 12 36  1  0  0  0  0
 13 18  1  0  0  0  0
 13 14  2  0  0  0  0
 14 15  1  0  0  0  0
 14 37  1  0  0  0  0
 15 16  1  0  0  0  0
 15 17  2  0  0  0  0
 16 38  1  0  0  0  0
 16 39  1  0  0  0  0
 16 40  1  0  0  0  0
 17 18  1  0  0  0  0
 18 19  1  0  0  0  0
 19 41  1  0  0  0  0
 19 42  1  0  0  0  0
 19 43  1  0  0  0  0
 20 21  1  0  0  0  0
 20 44  1  0  0  0  0
 20 45  1  0  0  0  0
 21 46  1  0  0  0  0
 21 47  1  0  0  0  0
M  CHG  1   3   1
M  END
> <s_m_source_file>
AV-unprocessed.smi

> <i_m_source_file_index>
1514

> <i_lp_mmshare_version>
43012

> <i_f3d_flags>
0

> <s_epik_input>
W0NIM11bQ0gyXU4xW0NIMl1bQ0gyXU4oW0NIMl1bQ0gyXTEpW0NIMl1bQ0gyXVtOSF1DKD1PKVtOSF1jMltjSF1jKFtDSDNdKW5uMltDSDNd

> <s_epik_cmdline>
J2VwaWtfcHl0aG9uJywgJy1waCcsICc3LjAnLCAnLXRuJywgJzgnLCAnLW1hJywgJzIwMCcsICctbWV0YWxfYmluZGluZycsICctaW1hZScsICc8aW5maWxlLm1hZT4nLCAnLW9tYWUnLCAnPG91dGZpbGUubWFlPic=

> <r_lp_tautomer_probability>
1

> <r_epik_Ionization_Penalty>
0.0527919

> <r_epik_Ionization_Penalty_Charging>
0.052373

> <r_epik_Ionization_Penalty_Neutral>
0.000418955

> <r_epik_State_Penalty>
0.130843

> <r_epik_Charging_Adjusted_Penalty>
0.183216

> <i_epik_Tot_Q>
1

> <i_epik_Tot_abs_Q>
1

> <r_epik_Metal_State_Penalty>
0.130841

> <b_epik_Metal_Only>
0

> <s_lp_Force_Field>
OPLS_2005

> <r_lp_Energy>
24.8956

> <b_lp_Chiralities_Consistent>
1

> <s_lp_Variant>
AV-unprocessed.smi:1514-1

> <Gold.Version>
5.8.1

> <Gold.Id.Protein>
6NUR|6NUR_protein|mol2

> <Gold.PLP.Fitness>
45.2691

> <Gold.PLP.PLP>
-34.7057

> <Gold.PLP.part.hbond>
-2.9667

> <Gold.PLP.part.metal>
0.0000

> <Gold.PLP.part.buried>
-2.0485

> <Gold.PLP.part.nonpolar>
-30.7740

> <Gold.PLP.part.repulsive>
1.2946

> <Gold.PLP.ligand.clash>
0.0000

> <Gold.PLP.ligand.torsion>
0.4865

> <Gold.PLP.Chemscore.Hbond>
3.8320

> <Gold.PLP.Chemscore.CHOScore>
0.0000

> <Gold.PLP.Chemscore.Metal>
0.0000

> <Gold.Chemscore.Hbonds>
donor molecule, donor type, donor heavy atom, donor atom, acceptor molecule, acceptor atom, score
      L1  H     3    48       P1  8028  1.74
      L1  H     9    35       P1  7948  0.78
      L1  H    12    36       P1  7948  0.89

> <Gold.PLP.Chemscore.Internal.Correction>
0.0403

> <Gold.Rescore>
     Score         DG    S(hbond)    S(metal)    S(lipo)     H(rot)  DE(clash)    DE(int)     intcor
     17.28     -19.05       2.79        0.00      73.49       1.69       1.24       0.54       ----

> <Gold.Chemscore.Fitness>
17.2791

> <Gold.Chemscore.DG>
-19.0542

> <Gold.Chemscore.ZeroCoef>
-5.4800

> <Gold.Chemscore.Hbond>
2.7863

> <Gold.Chemscore.Metal>
0.0000

> <Gold.Chemscore.Lipo>
73.4876

> <Gold.Chemscore.Internal_Hbond>
0.0000

> <Gold.Chemscore.DEClash>
1.2354

> <Gold.Chemscore.DEInternal>
0.5397

> <Gold.Chemscore.Rot>
1.6914

> <Gold.Chemscore.Internal.Correction>
   9.000000E+99

> <Gold.Chemscore.Hbonds>
donor molecule, donor type, donor heavy atom, donor atom, acceptor molecule, acceptor atom, score
      L1  H     3    48       P1  8028  0.81
      L1  H     9    35       P1  7948  0.75
      L1  H    12    36       P1  7948  0.87

> <Gold.Chemscore.Hbond.Weighted>
-9.3061

> <Gold.Chemscore.Metal.Weighted>
-0.0000

> <Gold.Chemscore.Lipo.Weighted>
-8.5981

> <Gold.Chemscore.Internal_Hbond.Weighted>
0.0000

> <Gold.Chemscore.DEClash.Weighted>
1.2354

> <Gold.Chemscore.DEInternal.Weighted>
0.5397

> <Gold.Chemscore.Rot.Weighted>
4.3299

> <Gold.Chemscore.Internal.Correction.Weighted>
   9.000000E+99

> <Gold.Protein.RotatedTorsions>
[ 6907 6896 6895 6894 ] final   80.97 input  -60.11 | X-H torsion
[ 7974 7965 7964 7962 ] final -112.90 input  175.53 | X-H torsion
[ 8008 7997 7996 7995 ] final -107.80 input   59.86 | X-H torsion
[ 10167 10162 10161 10158 ] final -147.04 input  -65.29 | X-H torsion
[ 10718 10713 10712 10709 ] final   -5.30 input   66.30 | X-H torsion
[ 10763 10752 10751 10750 ] final -167.41 input  -60.55 | X-H torsion
[ 11005 11000 10999 10996 ] final  150.85 input  -57.11 | X-H torsion

> <Gold.Protein.ActiveResidues>
 VAL166  LYS551  ARG553  GLY616  TRP617  ASP618  TYR619  PRO620  LYS621  CYS622 
 ASP623  PHE694  ASN695  SER759  ASP760  ASP761  ALA762  ILE779  LEU786  VAL792 
 PHE793  MET794  SER795  GLU796  ALA797  LYS798  CYS799  TRP800  GLU811  SER814 

> <Gold.Protein.RotatedAtoms>
  152.5253  134.3276  159.9170 H   0  0  0  0  0  0  0  0  0  0  0  0  # atno 6907 bound_to 6896
  151.3225  133.4027  159.2663 H   0  0  0  0  0  0  0  0  0  0  0  0  # atno 6908 bound_to 6896
  150.9947  134.9291  159.7977 H   0  0  0  0  0  0  0  0  0  0  0  0  # atno 6909 bound_to 6896
  145.1385  140.8764  143.3716 H   0  0  0  0  0  0  0  0  0  0  0  0  # atno 7974 bound_to 7965
  154.9348  140.0404  157.2066 H   0  0  0  0  0  0  0  0  0  0  0  0  # atno 8008 bound_to 7997
  154.8126  140.2870  155.5821 H   0  0  0  0  0  0  0  0  0  0  0  0  # atno 8009 bound_to 7997
  156.2973  140.2534  156.3017 H   0  0  0  0  0  0  0  0  0  0  0  0  # atno 8010 bound_to 7997
  139.7658  143.8310  152.2616 H   0  0  0  0  0  0  0  0  0  0  0  0  # atno 10167 bound_to 10162
  156.7487  130.5232  149.5808 H   0  0  0  0  0  0  0  0  0  0  0  0  # atno 10718 bound_to 10713
  154.6735  135.2943  154.9710 H   0  0  0  0  0  0  0  0  0  0  0  0  # atno 10763 bound_to 10752
  154.0729  135.6615  153.4831 H   0  0  0  0  0  0  0  0  0  0  0  0  # atno 10764 bound_to 10752
  153.0501  135.5179  154.7742 H   0  0  0  0  0  0  0  0  0  0  0  0  # atno 10765 bound_to 10752
  140.1167  134.8890  157.2014 H   0  0  0  0  0  0  0  0  0  0  0  0  # atno 11005 bound_to 11000
  145.0558  139.3145  143.5905 LP  0  0  0  0  0  0  0  0  0  0  0  0  # atno 17320 bound_to 7965
  146.3507  139.9982  142.8679 LP  0  0  0  0  0  0  0  0  0  0  0  0  # atno 17321 bound_to 7965
  139.8330  144.7245  150.9427 LP  0  0  0  0  0  0  0  0  0  0  0  0  # atno 17342 bound_to 10162
  140.7810  143.4053  151.1082 LP  0  0  0  0  0  0  0  0  0  0  0  0  # atno 17343 bound_to 10162
  156.1416  130.6248  151.0475 LP  0  0  0  0  0  0  0  0  0  0  0  0  # atno 17370 bound_to 10713
  157.6787  131.0844  150.7428 LP  0  0  0  0  0  0  0  0  0  0  0  0  # atno 17371 bound_to 10713
  140.3019  134.3122  155.7287 LP  0  0  0  0  0  0  0  0  0  0  0  0  # atno 17394 bound_to 11000
  141.2143  133.7597  156.9653 LP  0  0  0  0  0  0  0  0  0  0  0  0  # atno 17395 bound_to 11000

$$$$
