AV-unprocessed.smi:1340|AV-procd|sdf|5504|dock8
  -GOLD-   22720 5 83D 1   1.00000     0.00000
 Structure written by MMmdl.
 40 41  0  0  0  0  0  0  0  0  1 V2000
  146.2582  132.3718  151.5405 C   0  0  0  0  0  0  0  0  0  0  0  0
  146.2819  133.7712  150.9160 C   0  0  0  0  0  0  0  0  0  0  0  0
  145.2168  134.7032  151.5199 C   0  0  0  0  0  0  0  0  0  0  0  0
  145.6772  135.4313  152.7973 C   0  0  1  0  0  0  0  0  0  0  0  0
  146.5295  134.5134  153.6894 C   0  0  0  0  0  0  0  0  0  0  0  0
  146.4284  136.6360  152.4506 N   0  0  0  0  0  0  0  0  0  0  0  0
  146.1864  137.8689  152.9231 C   0  0  0  0  0  0  0  0  0  0  0  0
  145.2872  138.1171  153.7278 O   0  0  0  0  0  0  0  0  0  0  0  0
  147.1161  138.9776  152.4148 C   0  0  0  0  0  0  0  0  0  0  0  0
  147.3881  140.0058  153.4766 C   0  0  0  0  0  0  0  0  0  0  0  0
  146.5564  141.0285  153.8631 C   0  0  0  0  0  0  0  0  0  0  0  0
  147.2554  141.9961  155.1315 S   0  0  0  0  0  0  0  0  0  0  0  0
  148.6789  140.9512  155.0977 C   0  0  0  0  0  0  0  0  0  0  0  0
  149.8401  141.0767  155.9168 N   0  0  0  0  0  0  0  0  0  0  0  0
  149.8557  141.9328  157.0987 C   0  0  0  0  0  0  0  0  0  0  0  0
  151.2642  141.7589  157.6585 C   0  0  0  0  0  0  0  0  0  0  0  0
  151.8526  140.8347  156.7180 N   0  0  0  0  0  0  0  0  0  0  0  0
  151.0265  140.4624  155.7377 C   0  0  0  0  0  0  0  0  0  0  0  0
  151.3365  139.6856  154.8364 O   0  0  0  0  0  0  0  0  0  0  0  0
  148.5900  139.9708  154.1922 N   0  0  0  0  0  0  0  0  0  0  0  0
  147.0200  131.7336  151.0922 H   0  0  0  0  0  0  0  0  0  0  0  0
  145.2915  131.8904  151.3911 H   0  0  0  0  0  0  0  0  0  0  0  0
  146.4496  132.4155  152.6130 H   0  0  0  0  0  0  0  0  0  0  0  0
  147.2750  134.2010  151.0502 H   0  0  0  0  0  0  0  0  0  0  0  0
  146.1254  133.6857  149.8402 H   0  0  0  0  0  0  0  0  0  0  0  0
  144.9376  135.4465  150.7717 H   0  0  0  0  0  0  0  0  0  0  0  0
  144.3116  134.1319  151.7302 H   0  0  0  0  0  0  0  0  0  0  0  0
  144.7852  135.7193  153.3572 H   0  0  0  0  0  0  0  0  0  0  0  0
  145.9789  133.6135  153.9641 H   0  0  0  0  0  0  0  0  0  0  0  0
  146.8177  135.0135  154.6146 H   0  0  0  0  0  0  0  0  0  0  0  0
  147.4427  134.2021  153.1813 H   0  0  0  0  0  0  0  0  0  0  0  0
  147.1895  136.5228  151.7968 H   0  0  0  0  0  0  0  0  0  0  0  0
  148.0472  138.5180  152.0822 H   0  0  0  0  0  0  0  0  0  0  0  0
  146.6751  139.4499  151.5354 H   0  0  0  0  0  0  0  0  0  0  0  0
  145.5793  141.2736  153.4742 H   0  0  0  0  0  0  0  0  0  0  0  0
  149.6609  142.9709  156.8256 H   0  0  0  0  0  0  0  0  0  0  0  0
  149.0990  141.6128  157.8164 H   0  0  0  0  0  0  0  0  0  0  0  0
  151.8191  142.6977  157.6737 H   0  0  0  0  0  0  0  0  0  0  0  0
  151.2573  141.3323  158.6618 H   0  0  0  0  0  0  0  0  0  0  0  0
  152.8041  140.5076  156.8045 H   0  0  0  0  0  0  0  0  0  0  0  0
  1  2  1  0  0  0  0
  1 21  1  0  0  0  0
  1 22  1  0  0  0  0
  1 23  1  0  0  0  0
  2  3  1  0  0  0  0
  2 24  1  0  0  0  0
  2 25  1  0  0  0  0
  3  4  1  0  0  0  0
  3 26  1  0  0  0  0
  3 27  1  0  0  0  0
  4  5  1  0  0  0  0
  4  6  1  0  0  0  0
  4 28  1  0  0  0  0
  5 29  1  0  0  0  0
  5 30  1  0  0  0  0
  5 31  1  0  0  0  0
  6  7  1  0  0  0  0
  6 32  1  0  0  0  0
  7  8  2  0  0  0  0
  7  9  1  0  0  0  0
  9 10  1  0  0  0  0
  9 33  1  0  0  0  0
  9 34  1  0  0  0  0
 10 20  1  0  0  0  0
 10 11  2  0  0  0  0
 11 12  1  0  0  0  0
 11 35  1  0  0  0  0
 12 13  1  0  0  0  0
 13 14  1  0  0  0  0
 13 20  2  0  0  0  0
 14 18  1  0  0  0  0
 14 15  1  0  0  0  0
 15 16  1  0  0  0  0
 15 36  1  0  0  0  0
 15 37  1  0  0  0  0
 16 17  1  0  0  0  0
 16 38  1  0  0  0  0
 16 39  1  0  0  0  0
 17 18  1  0  0  0  0
 17 40  1  0  0  0  0
 18 19  2  0  0  0  0
M  END
> <s_m_source_file>
AV-unprocessed.smi

> <i_m_source_file_index>
1340

> <i_lp_mmshare_version>
43012

> <i_f3d_flags>
0

> <s_epik_input>
W0NIM11bQ0gyXVtDSDJdW0NASF0oW0NIM10pW05IXUMoPU8pW0NIMl1jMVtjSF1zYyhuMSlOMltDSDJdW0NIMl1bTkhdQzI9Tw==

> <s_epik_cmdline>
J2VwaWtfcHl0aG9uJywgJy1waCcsICc3LjAnLCAnLXRuJywgJzgnLCAnLW1hJywgJzIwMCcsICctbWV0YWxfYmluZGluZycsICctaW1hZScsICc8aW5maWxlLm1hZT4nLCAnLW9tYWUnLCAnPG91dGZpbGUubWFlPic=

> <r_lp_tautomer_probability>
1

> <r_epik_Ionization_Penalty>
0.00012151

> <r_epik_Ionization_Penalty_Charging>
0

> <r_epik_Ionization_Penalty_Neutral>
0.00012151

> <r_epik_State_Penalty>
-0

> <r_epik_Charging_Adjusted_Penalty>
0

> <i_epik_Tot_Q>
0

> <i_epik_Tot_abs_Q>
0

> <r_epik_Metal_State_Penalty>
-0

> <b_epik_Metal_Only>
0

> <s_lp_Force_Field>
OPLS_2005

> <r_lp_Energy>
32.5305

> <b_lp_Chiralities_Consistent>
1

> <s_lp_Variant>
AV-unprocessed.smi:1340-2

> <Gold.Version>
5.8.1

> <Gold.Id.Protein>
6NUR|6NUR_protein|mol2

> <Gold.PLP.Fitness>
36.0946

> <Gold.PLP.PLP>
-30.2379

> <Gold.PLP.part.hbond>
-2.0000

> <Gold.PLP.part.metal>
0.0000

> <Gold.PLP.part.buried>
-1.1715

> <Gold.PLP.part.nonpolar>
-27.9069

> <Gold.PLP.part.repulsive>
0.8392

> <Gold.PLP.ligand.clash>
0.0000

> <Gold.PLP.ligand.torsion>
1.1789

> <Gold.PLP.Chemscore.Hbond>
1.7200

> <Gold.PLP.Chemscore.CHOScore>
1.0000

> <Gold.PLP.Chemscore.Metal>
0.0000

> <Gold.Chemscore.Hbonds>
donor molecule, donor type, donor heavy atom, donor atom, acceptor molecule, acceptor atom, score
      L1  H     6    32       P1  7948  0.78
      P1  H  7989  7998       L1    19  1.00
      L1  C    11    35       P1 10175  1.00

> <Gold.PLP.Chemscore.Internal.Correction>
0.0545

> <Gold.Rescore>
     Score         DG    S(hbond)    S(metal)    S(lipo)     H(rot)  DE(clash)    DE(int)     intcor
     11.09     -13.56       1.93        0.00      55.92       1.92       0.00       2.47       ----

> <Gold.Chemscore.Fitness>
11.0898

> <Gold.Chemscore.DG>
-13.5647

> <Gold.Chemscore.ZeroCoef>
-5.4800

> <Gold.Chemscore.Hbond>
1.9314

> <Gold.Chemscore.Metal>
0.0000

> <Gold.Chemscore.Lipo>
55.9217

> <Gold.Chemscore.Internal_Hbond>
0.0000

> <Gold.Chemscore.DEClash>
0.0015

> <Gold.Chemscore.DEInternal>
2.4734

> <Gold.Chemscore.Rot>
1.9176

> <Gold.Chemscore.Internal.Correction>
   9.000000E+99

> <Gold.Chemscore.Hbonds>
donor molecule, donor type, donor heavy atom, donor atom, acceptor molecule, acceptor atom, score
      L1  H     6    32       P1  7948  0.78
      P1  H  7989  7998       L1    19  0.26

> <Gold.Chemscore.Hbond.Weighted>
-6.4509

> <Gold.Chemscore.Metal.Weighted>
-0.0000

> <Gold.Chemscore.Lipo.Weighted>
-6.5428

> <Gold.Chemscore.Internal_Hbond.Weighted>
0.0000

> <Gold.Chemscore.DEClash.Weighted>
0.0015

> <Gold.Chemscore.DEInternal.Weighted>
2.4734

> <Gold.Chemscore.Rot.Weighted>
4.9091

> <Gold.Chemscore.Internal.Correction.Weighted>
   9.000000E+99

> <Gold.Protein.RotatedTorsions>
[ 6907 6896 6895 6894 ] final    1.03 input  -60.11 | X-H torsion
[ 7974 7965 7964 7962 ] final -115.54 input  175.53 | X-H torsion
[ 8008 7997 7996 7995 ] final  -16.21 input   59.86 | X-H torsion
[ 10167 10162 10161 10158 ] final  -61.39 input  -65.29 | X-H torsion
[ 10718 10713 10712 10709 ] final  -82.91 input   66.30 | X-H torsion
[ 10763 10752 10751 10750 ] final -102.15 input  -60.55 | X-H torsion
[ 11005 11000 10999 10996 ] final  -51.98 input  -57.11 | X-H torsion

> <Gold.Protein.ActiveResidues>
 VAL166  LYS551  ARG553  GLY616  TRP617  ASP618  TYR619  PRO620  LYS621  CYS622 
 ASP623  PHE694  ASN695  SER759  ASP760  ASP761  ALA762  ILE779  LEU786  VAL792 
 PHE793  MET794  SER795  GLU796  ALA797  LYS798  CYS799  TRP800  GLU811  SER814 

> <Gold.Protein.RotatedAtoms>
  151.5861  135.1056  160.0028 H   0  0  0  0  0  0  0  0  0  0  0  0  # atno 6907 bound_to 6896
  152.4330  133.7306  159.6596 H   0  0  0  0  0  0  0  0  0  0  0  0  # atno 6908 bound_to 6896
  150.8224  133.8159  159.3156 H   0  0  0  0  0  0  0  0  0  0  0  0  # atno 6909 bound_to 6896
  145.1072  140.8589  143.3891 H   0  0  0  0  0  0  0  0  0  0  0  0  # atno 7974 bound_to 7965
  154.5070  140.2175  155.9231 H   0  0  0  0  0  0  0  0  0  0  0  0  # atno 8008 bound_to 7997
  156.1506  140.3162  155.8608 H   0  0  0  0  0  0  0  0  0  0  0  0  # atno 8009 bound_to 7997
  155.3946  140.0480  157.3030 H   0  0  0  0  0  0  0  0  0  0  0  0  # atno 8010 bound_to 7997
  140.6009  143.2361  151.5931 H   0  0  0  0  0  0  0  0  0  0  0  0  # atno 10167 bound_to 10162
  156.0026  130.4649  150.4176 H   0  0  0  0  0  0  0  0  0  0  0  0  # atno 10718 bound_to 10713
  154.7712  135.4871  153.9652 H   0  0  0  0  0  0  0  0  0  0  0  0  # atno 10763 bound_to 10752
  153.1370  135.6765  153.9095 H   0  0  0  0  0  0  0  0  0  0  0  0  # atno 10764 bound_to 10752
  153.8781  135.3135  155.3423 H   0  0  0  0  0  0  0  0  0  0  0  0  # atno 10765 bound_to 10752
  141.0900  133.6634  156.3956 H   0  0  0  0  0  0  0  0  0  0  0  0  # atno 11005 bound_to 11000
  145.0888  139.2905  143.5745 LP  0  0  0  0  0  0  0  0  0  0  0  0  # atno 17320 bound_to 7965
  146.3528  140.0419  142.8642 LP  0  0  0  0  0  0  0  0  0  0  0  0  # atno 17321 bound_to 7965
  139.5290  144.2972  152.1103 LP  0  0  0  0  0  0  0  0  0  0  0  0  # atno 17342 bound_to 10162
  140.2152  144.4522  150.6367 LP  0  0  0  0  0  0  0  0  0  0  0  0  # atno 17343 bound_to 10162
  157.2234  131.0488  151.2533 LP  0  0  0  0  0  0  0  0  0  0  0  0  # atno 17370 bound_to 10713
  157.3779  130.7215  149.6609 LP  0  0  0  0  0  0  0  0  0  0  0  0  # atno 17371 bound_to 10713
  140.5275  134.6245  157.5339 LP  0  0  0  0  0  0  0  0  0  0  0  0  # atno 17394 bound_to 11000
  139.9724  134.7271  156.0015 LP  0  0  0  0  0  0  0  0  0  0  0  0  # atno 17395 bound_to 11000

$$$$
