AV-unprocessed.smi:3058|AV-procd|sdf|11676|dock3
  -GOLD-   2272017 83D 1   1.00000     0.00000
 Structure written by MMmdl.
 39 41  0  0  0  0  0  0  0  0  2 V2000
  151.2939  140.5912  157.7100 O   0  0  0  0  0  0  0  0  0  0  0  0
  150.8594  141.7408  157.6325 C   0  0  0  0  0  0  0  0  0  0  0  0
  150.1964  142.2003  156.5587 N   0  0  0  0  0  0  0  0  0  0  0  0
  149.8503  141.4159  155.3749 C   0  0  0  0  0  0  0  0  0  0  0  0
  148.3608  141.5494  154.9983 C   0  0  0  0  0  0  0  0  0  0  0  0
  147.9170  140.5846  153.9115 C   0  0  0  0  0  0  0  0  0  0  0  0
  146.8010  140.8797  153.0966 C   0  0  0  0  0  0  0  0  0  0  0  0
  146.3888  139.9464  152.1232 C   0  0  0  0  0  0  0  0  0  0  0  0
  147.1036  138.7392  151.9841 C   0  0  0  0  0  0  0  0  0  0  0  0
  148.1687  138.4931  152.7780 N   0  3  0  0  0  0  0  0  0  0  0  0
  148.5955  139.3613  153.7212 C   0  0  0  0  0  0  0  0  0  0  0  0
  151.0234  142.7265  158.8020 C   0  0  1  0  0  0  0  0  0  0  0  0
  152.4977  142.8935  159.2481 C   0  0  0  0  0  0  0  0  0  0  0  0
  152.7230  144.4159  159.1602 C   0  0  2  0  0  0  0  0  0  0  0  0
  151.9038  145.1198  160.2591 C   0  0  0  0  0  0  0  0  0  0  0  0
  150.4573  144.9842  159.7443 C   0  0  0  0  0  0  0  0  0  0  0  0
  150.6381  144.1836  158.4400 C   0  0  1  0  0  0  0  0  0  0  0  0
  151.9404  144.7811  157.9066 C   0  0  0  0  0  0  0  0  0  0  0  0
  149.8813  143.1598  156.5749 H   0  0  0  0  0  0  0  0  0  0  0  0
  150.4678  141.7600  154.5450 H   0  0  0  0  0  0  0  0  0  0  0  0
  150.1062  140.3655  155.5243 H   0  0  0  0  0  0  0  0  0  0  0  0
  147.7448  141.3948  155.8852 H   0  0  0  0  0  0  0  0  0  0  0  0
  148.1587  142.5680  154.6651 H   0  0  0  0  0  0  0  0  0  0  0  0
  146.2569  141.8042  153.2237 H   0  0  0  0  0  0  0  0  0  0  0  0
  145.5335  140.1515  151.4962 H   0  0  0  0  0  0  0  0  0  0  0  0
  146.8564  137.9685  151.2685 H   0  0  0  0  0  0  0  0  0  0  0  0
  149.4503  139.0459  154.3016 H   0  0  0  0  0  0  0  0  0  0  0  0
  150.4146  142.3781  159.6384 H   0  0  0  0  0  0  0  0  0  0  0  0
  152.6649  142.5146  160.2571 H   0  0  0  0  0  0  0  0  0  0  0  0
  153.1922  142.3707  158.5879 H   0  0  0  0  0  0  0  0  0  0  0  0
  153.7749  144.7030  159.1470 H   0  0  0  0  0  0  0  0  0  0  0  0
  152.0435  144.6580  161.2374 H   0  0  0  0  0  0  0  0  0  0  0  0
  152.1836  146.1707  160.3417 H   0  0  0  0  0  0  0  0  0  0  0  0
  149.8035  144.4826  160.4587 H   0  0  0  0  0  0  0  0  0  0  0  0
  150.0317  145.9672  159.5381 H   0  0  0  0  0  0  0  0  0  0  0  0
  149.7885  144.2656  157.7607 H   0  0  0  0  0  0  0  0  0  0  0  0
  151.8821  145.8573  157.7327 H   0  0  0  0  0  0  0  0  0  0  0  0
  152.3207  144.3016  157.0045 H   0  0  0  0  0  0  0  0  0  0  0  0
  148.6694  137.6113  152.6640 H   0  0  0  0  0  0  0  0  0  0  0  0
  1  2  2  0  0  0  0
  2  3  1  0  0  0  0
  2 12  1  0  0  0  0
  3  4  1  0  0  0  0
  3 19  1  0  0  0  0
  4  5  1  0  0  0  0
  4 20  1  0  0  0  0
  4 21  1  0  0  0  0
  5  6  1  0  0  0  0
  5 22  1  0  0  0  0
  5 23  1  0  0  0  0
  6 11  1  0  0  0  0
  6  7  2  0  0  0  0
  7  8  1  0  0  0  0
  7 24  1  0  0  0  0
  8  9  2  0  0  0  0
  8 25  1  0  0  0  0
  9 10  1  0  0  0  0
  9 26  1  0  0  0  0
 10 11  2  0  0  0  0
 10 39  1  0  0  0  0
 11 27  1  0  0  0  0
 12 17  1  0  0  0  0
 12 13  1  0  0  0  0
 12 28  1  0  0  0  0
 13 14  1  0  0  0  0
 13 29  1  0  0  0  0
 13 30  1  0  0  0  0
 14 18  1  0  0  0  0
 14 15  1  0  0  0  0
 14 31  1  0  0  0  0
 15 16  1  0  0  0  0
 15 32  1  0  0  0  0
 15 33  1  0  0  0  0
 16 17  1  0  0  0  0
 16 34  1  0  0  0  0
 16 35  1  0  0  0  0
 17 18  1  0  0  0  0
 17 36  1  0  0  0  0
 18 37  1  0  0  0  0
 18 38  1  0  0  0  0
M  CHG  1  10   1
M  END
> <s_m_source_file>
AV-unprocessed.smi

> <i_m_source_file_index>
3058

> <i_lp_mmshare_version>
43012

> <i_f3d_flags>
0

> <s_epik_input>
W0NIMl0xW0NIMl1bQ0BIXShbQ0gyXTIpW0NAQEhdKFtDSDJdW0NAQEhdMTIpQyg9TylbTkhdW0NIMl1bQ0gyXWMzW2NIXVtjSF1bY0hdbltjSF0z

> <s_epik_cmdline>
J2VwaWtfcHl0aG9uJywgJy1waCcsICc3LjAnLCAnLXRuJywgJzgnLCAnLW1hJywgJzIwMCcsICctbWV0YWxfYmluZGluZycsICctaW1hZScsICc8aW5maWxlLm1hZT4nLCAnLW9tYWUnLCAnPG91dGZpbGUubWFlPic=

> <r_epik_Ionization_Penalty>
2.24375

> <r_epik_Ionization_Penalty_Charging>
2.24375

> <r_epik_Ionization_Penalty_Neutral>
1.89995e-08

> <r_epik_State_Penalty>
2.39035

> <r_epik_Charging_Adjusted_Penalty>
4.63411

> <i_epik_Tot_Q>
1

> <i_epik_Tot_abs_Q>
1

> <r_epik_Metal_State_Penalty>
2.40369

> <b_epik_Metal_Only>
0

> <s_lp_Force_Field>
OPLS_2005

> <r_lp_Energy>
53.8629

> <b_lp_Chiralities_Consistent>
1

> <s_lp_Variant>
AV-unprocessed.smi:3058-8

> <Gold.Version>
5.8.1

> <Gold.Id.Protein>
6NUR|6NUR_protein|mol2

> <Gold.PLP.Fitness>
48.7151

> <Gold.PLP.PLP>
-40.9853

> <Gold.PLP.part.hbond>
-3.0000

> <Gold.PLP.part.metal>
0.0000

> <Gold.PLP.part.buried>
4.3617

> <Gold.PLP.part.nonpolar>
-41.6211

> <Gold.PLP.part.repulsive>
0.1254

> <Gold.PLP.ligand.clash>
0.0000

> <Gold.PLP.ligand.torsion>
0.5545

> <Gold.PLP.Chemscore.Hbond>
2.9351

> <Gold.PLP.Chemscore.CHOScore>
0.0000

> <Gold.PLP.Chemscore.Metal>
0.0000

> <Gold.Chemscore.Hbonds>
donor molecule, donor type, donor heavy atom, donor atom, acceptor molecule, acceptor atom, score
      L1  H     3    19       P1  8028  0.92
      L1  H    10    39       P1  7948  2.00

> <Gold.PLP.Chemscore.Internal.Correction>
0.0336

> <Gold.Rescore>
     Score         DG    S(hbond)    S(metal)    S(lipo)     H(rot)  DE(clash)    DE(int)     intcor
     20.59     -23.55       1.82        0.00     134.25       1.45       2.57       0.39       ----

> <Gold.Chemscore.Fitness>
20.5856

> <Gold.Chemscore.DG>
-23.5455

> <Gold.Chemscore.ZeroCoef>
-5.4800

> <Gold.Chemscore.Hbond>
1.8210

> <Gold.Chemscore.Metal>
0.0000

> <Gold.Chemscore.Lipo>
134.2528

> <Gold.Chemscore.Internal_Hbond>
0.0000

> <Gold.Chemscore.DEClash>
2.5679

> <Gold.Chemscore.DEInternal>
0.3920

> <Gold.Chemscore.Rot>
1.4548

> <Gold.Chemscore.Internal.Correction>
   9.000000E+99

> <Gold.Chemscore.Hbonds>
donor molecule, donor type, donor heavy atom, donor atom, acceptor molecule, acceptor atom, score
      L1  H     3    19       P1  8028  0.84
      L1  H    10    39       P1  7948  0.94

> <Gold.Chemscore.Hbond.Weighted>
-6.0821

> <Gold.Chemscore.Metal.Weighted>
-0.0000

> <Gold.Chemscore.Lipo.Weighted>
-15.7076

> <Gold.Chemscore.Internal_Hbond.Weighted>
0.0000

> <Gold.Chemscore.DEClash.Weighted>
2.5679

> <Gold.Chemscore.DEInternal.Weighted>
0.3920

> <Gold.Chemscore.Rot.Weighted>
3.7242

> <Gold.Chemscore.Internal.Correction.Weighted>
   9.000000E+99

> <Gold.Protein.RotatedTorsions>
[ 6907 6896 6895 6894 ] final  176.93 input  -60.11 | X-H torsion
[ 7974 7965 7964 7962 ] final   73.99 input  175.53 | X-H torsion
[ 8008 7997 7996 7995 ] final  115.83 input   59.86 | X-H torsion
[ 10167 10162 10161 10158 ] final  -47.72 input  -65.29 | X-H torsion
[ 10718 10713 10712 10709 ] final  124.97 input   66.30 | X-H torsion
[ 10763 10752 10751 10750 ] final  165.88 input  -60.55 | X-H torsion
[ 11005 11000 10999 10996 ] final  -30.11 input  -57.11 | X-H torsion

> <Gold.Protein.ActiveResidues>
 VAL166  LYS551  ARG553  GLY616  TRP617  ASP618  TYR619  PRO620  LYS621  CYS622 
 ASP623  PHE694  ASN695  SER759  ASP760  ASP761  ALA762  ILE779  LEU786  VAL792 
 PHE793  MET794  SER795  GLU796  ALA797  LYS798  CYS799  TRP800  GLU811  SER814 

> <Gold.Protein.RotatedAtoms>
  151.7123  133.3312  159.3293 H   0  0  0  0  0  0  0  0  0  0  0  0  # atno 6907 bound_to 6896
  150.7689  134.6521  159.6303 H   0  0  0  0  0  0  0  0  0  0  0  0  # atno 6908 bound_to 6896
  152.3704  134.6745  160.0230 H   0  0  0  0  0  0  0  0  0  0  0  0  # atno 6909 bound_to 6896
  145.7339  139.2694  143.1525 H   0  0  0  0  0  0  0  0  0  0  0  0  # atno 7974 bound_to 7965
  156.2404  140.2930  156.0429 H   0  0  0  0  0  0  0  0  0  0  0  0  # atno 8008 bound_to 7997
  155.1968  140.0408  157.2927 H   0  0  0  0  0  0  0  0  0  0  0  0  # atno 8009 bound_to 7997
  154.6157  140.2463  155.7619 H   0  0  0  0  0  0  0  0  0  0  0  0  # atno 8010 bound_to 7997
  140.6763  143.2772  151.3967 H   0  0  0  0  0  0  0  0  0  0  0  0  # atno 10167 bound_to 10162
  157.5541  131.1093  150.8651 H   0  0  0  0  0  0  0  0  0  0  0  0  # atno 10718 bound_to 10713
  154.3307  135.2755  155.2473 H   0  0  0  0  0  0  0  0  0  0  0  0  # atno 10763 bound_to 10752
  154.4786  135.5864  153.6377 H   0  0  0  0  0  0  0  0  0  0  0  0  # atno 10764 bound_to 10752
  152.9867  135.6106  154.3499 H   0  0  0  0  0  0  0  0  0  0  0  0  # atno 10765 bound_to 10752
  140.9354  133.7312  156.0998 H   0  0  0  0  0  0  0  0  0  0  0  0  # atno 11005 bound_to 11000
  146.0511  140.8068  142.9781 LP  0  0  0  0  0  0  0  0  0  0  0  0  # atno 17320 bound_to 7965
  144.6886  140.3054  143.7256 LP  0  0  0  0  0  0  0  0  0  0  0  0  # atno 17321 bound_to 7965
  139.6057  144.1202  152.2246 LP  0  0  0  0  0  0  0  0  0  0  0  0  # atno 17342 bound_to 10162
  140.0600  144.5864  150.7270 LP  0  0  0  0  0  0  0  0  0  0  0  0  # atno 17343 bound_to 10162
  156.9168  130.5300  149.5279 LP  0  0  0  0  0  0  0  0  0  0  0  0  # atno 17370 bound_to 10713
  156.0603  130.5657  150.9178 LP  0  0  0  0  0  0  0  0  0  0  0  0  # atno 17371 bound_to 10713
  140.7806  134.3730  157.5488 LP  0  0  0  0  0  0  0  0  0  0  0  0  # atno 17394 bound_to 11000
  139.8806  134.9079  156.2955 LP  0  0  0  0  0  0  0  0  0  0  0  0  # atno 17395 bound_to 11000

$$$$
