AV-unprocessed.smi:1360|AV-procd|sdf|5552|dock8
  -GOLD-   22720 5143D 1   1.00000     0.00000
 Structure written by MMmdl.
 36 37  0  0  0  0  0  0  0  0  1 V2000
  147.0632  141.9656  155.6876 C   0  0  0  0  0  0  0  0  0  0  0  0
  148.3998  141.2114  155.7811 C   0  0  1  0  0  0  0  0  0  0  0  0
  148.9456  140.7666  154.4066 C   0  0  0  0  0  0  0  0  0  0  0  0
  150.0342  139.8123  154.5176 N   0  0  0  0  0  0  0  0  0  0  0  0
  150.0517  138.4887  154.1310 C   0  0  0  0  0  0  0  0  0  0  0  0
  151.2884  137.9941  154.4316 C   0  0  0  0  0  0  0  0  0  0  0  0
  151.9650  139.1042  155.0100 C   0  0  0  0  0  0  0  0  0  0  0  0
  151.2116  140.1909  155.0610 N   0  0  0  0  0  0  0  0  0  0  0  0
  149.3777  142.0558  156.4610 N   0  0  0  0  0  0  0  0  0  0  0  0
  150.1345  141.6866  157.5065 C   0  0  0  0  0  0  0  0  0  0  0  0
  150.0847  140.5655  158.0138 O   0  0  0  0  0  0  0  0  0  0  0  0
  151.0943  142.7468  158.0631 C   0  0  2  0  0  0  0  0  0  0  0  0
  152.0126  142.1557  159.1580 C   0  0  0  0  0  0  0  0  0  0  0  0
  152.7886  143.2321  159.8968 C   0  0  0  0  0  0  0  0  0  0  0  0
  152.4712  144.5372  159.8484 C   0  0  0  0  0  0  0  0  0  0  0  0
  151.2973  145.0830  159.0546 C   0  0  0  0  0  0  0  0  0  0  0  0
  150.3300  143.9714  158.6048 C   0  0  0  0  0  0  0  0  0  0  0  0
  146.2769  141.3364  155.2704 H   0  0  0  0  0  0  0  0  0  0  0  0
  147.1512  142.8509  155.0570 H   0  0  0  0  0  0  0  0  0  0  0  0
  146.7272  142.2905  156.6729 H   0  0  0  0  0  0  0  0  0  0  0  0
  148.2273  140.3216  156.3898 H   0  0  0  0  0  0  0  0  0  0  0  0
  148.1475  140.3252  153.8070 H   0  0  0  0  0  0  0  0  0  0  0  0
  149.3130  141.6278  153.8467 H   0  0  0  0  0  0  0  0  0  0  0  0
  149.1928  138.0165  153.6771 H   0  0  0  0  0  0  0  0  0  0  0  0
  151.6541  136.9918  154.2646 H   0  0  0  0  0  0  0  0  0  0  0  0
  152.9741  139.1522  155.3922 H   0  0  0  0  0  0  0  0  0  0  0  0
  149.4856  142.9966  156.1108 H   0  0  0  0  0  0  0  0  0  0  0  0
  151.7289  143.0924  157.2446 H   0  0  0  0  0  0  0  0  0  0  0  0
  151.4408  141.5897  159.8950 H   0  0  0  0  0  0  0  0  0  0  0  0
  152.7235  141.4620  158.7077 H   0  0  0  0  0  0  0  0  0  0  0  0
  153.6266  142.9050  160.4945 H   0  0  0  0  0  0  0  0  0  0  0  0
  153.0717  145.2563  160.3859 H   0  0  0  0  0  0  0  0  0  0  0  0
  150.7641  145.8175  159.6586 H   0  0  0  0  0  0  0  0  0  0  0  0
  151.6931  145.6120  158.1872 H   0  0  0  0  0  0  0  0  0  0  0  0
  149.6452  144.3650  157.8525 H   0  0  0  0  0  0  0  0  0  0  0  0
  149.7139  143.6697  159.4536 H   0  0  0  0  0  0  0  0  0  0  0  0
  1  2  1  0  0  0  0
  1 18  1  0  0  0  0
  1 19  1  0  0  0  0
  1 20  1  0  0  0  0
  2  3  1  0  0  0  0
  2  9  1  0  0  0  0
  2 21  1  0  0  0  0
  3  4  1  0  0  0  0
  3 22  1  0  0  0  0
  3 23  1  0  0  0  0
  4  8  1  0  0  0  0
  4  5  1  0  0  0  0
  5  6  2  0  0  0  0
  5 24  1  0  0  0  0
  6  7  1  0  0  0  0
  6 25  1  0  0  0  0
  7  8  2  0  0  0  0
  7 26  1  0  0  0  0
  9 10  1  0  0  0  0
  9 27  1  0  0  0  0
 10 11  2  0  0  0  0
 10 12  1  0  0  0  0
 12 17  1  0  0  0  0
 12 13  1  0  0  0  0
 12 28  1  0  0  0  0
 13 14  1  0  0  0  0
 13 29  1  0  0  0  0
 13 30  1  0  0  0  0
 14 15  2  0  0  0  0
 14 31  1  0  0  0  0
 15 16  1  0  0  0  0
 15 32  1  0  0  0  0
 16 17  1  0  0  0  0
 16 33  1  0  0  0  0
 16 34  1  0  0  0  0
 17 35  1  0  0  0  0
 17 36  1  0  0  0  0
M  END
> <s_m_source_file>
AV-unprocessed.smi

> <i_m_source_file_index>
1360

> <i_lp_mmshare_version>
43012

> <i_f3d_flags>
0

> <s_epik_input>
bjFbY0hdW2NIXVtjSF1uMVtDSDJdW0NAQEhdKFtDSDNdKVtOSF1DKD1PKVtDQEBIXTJbQ0gyXVtDSF09W0NIXVtDSDJdW0NIMl0y

> <s_epik_cmdline>
J2VwaWtfcHl0aG9uJywgJy1waCcsICc3LjAnLCAnLXRuJywgJzgnLCAnLW1hJywgJzIwMCcsICctbWV0YWxfYmluZGluZycsICctaW1hZScsICc8aW5maWxlLm1hZT4nLCAnLW9tYWUnLCAnPG91dGZpbGUubWFlPic=

> <r_lp_tautomer_probability>
1

> <r_epik_Ionization_Penalty>
0.000315076

> <r_epik_Ionization_Penalty_Charging>
0

> <r_epik_Ionization_Penalty_Neutral>
0.000315076

> <r_epik_State_Penalty>
-0

> <r_epik_Charging_Adjusted_Penalty>
0

> <i_epik_Tot_Q>
0

> <i_epik_Tot_abs_Q>
0

> <r_epik_Metal_State_Penalty>
-0

> <b_epik_Metal_Only>
0

> <s_lp_Force_Field>
OPLS_2005

> <r_lp_Energy>
7.97441

> <b_lp_Chiralities_Consistent>
1

> <s_lp_Variant>
AV-unprocessed.smi:1360-2

> <Gold.Version>
5.8.1

> <Gold.Id.Protein>
6NUR|6NUR_protein|mol2

> <Gold.PLP.Fitness>
46.2929

> <Gold.PLP.PLP>
-39.5734

> <Gold.PLP.part.hbond>
-2.0000

> <Gold.PLP.part.metal>
0.0000

> <Gold.PLP.part.buried>
-4.4381

> <Gold.PLP.part.nonpolar>
-33.6552

> <Gold.PLP.part.repulsive>
0.0899

> <Gold.PLP.ligand.clash>
0.0000

> <Gold.PLP.ligand.torsion>
0.2672

> <Gold.PLP.Chemscore.Hbond>
1.4050

> <Gold.PLP.Chemscore.CHOScore>
1.0000

> <Gold.PLP.Chemscore.Metal>
0.0000

> <Gold.Chemscore.Hbonds>
donor molecule, donor type, donor heavy atom, donor atom, acceptor molecule, acceptor atom, score
      L1  H     9    27       P1  8028  1.00
      P1  H  7989  7998       L1     8  0.36
      L1  C     5    24       P1  7948  0.99

> <Gold.PLP.Chemscore.Internal.Correction>
0.0389

> <Gold.Rescore>
     Score         DG    S(hbond)    S(metal)    S(lipo)     H(rot)  DE(clash)    DE(int)     intcor
     16.71     -17.07       0.99        0.00     103.63       1.51       0.06       0.30       ----

> <Gold.Chemscore.Fitness>
16.7120

> <Gold.Chemscore.DG>
-17.0726

> <Gold.Chemscore.ZeroCoef>
-5.4800

> <Gold.Chemscore.Hbond>
0.9946

> <Gold.Chemscore.Metal>
0.0000

> <Gold.Chemscore.Lipo>
103.6346

> <Gold.Chemscore.Internal_Hbond>
0.0000

> <Gold.Chemscore.DEClash>
0.0590

> <Gold.Chemscore.DEInternal>
0.3017

> <Gold.Chemscore.Rot>
1.5057

> <Gold.Chemscore.Internal.Correction>
   9.000000E+99

> <Gold.Chemscore.Hbonds>
donor molecule, donor type, donor heavy atom, donor atom, acceptor molecule, acceptor atom, score
      L1  H     9    27       P1  8028  0.98

> <Gold.Chemscore.Hbond.Weighted>
-3.3220

> <Gold.Chemscore.Metal.Weighted>
-0.0000

> <Gold.Chemscore.Lipo.Weighted>
-12.1253

> <Gold.Chemscore.Internal_Hbond.Weighted>
0.0000

> <Gold.Chemscore.DEClash.Weighted>
0.0590

> <Gold.Chemscore.DEInternal.Weighted>
0.3017

> <Gold.Chemscore.Rot.Weighted>
3.8546

> <Gold.Chemscore.Internal.Correction.Weighted>
   9.000000E+99

> <Gold.Protein.RotatedTorsions>
[ 6907 6896 6895 6894 ] final   78.62 input  -60.11 | X-H torsion
[ 7974 7965 7964 7962 ] final  -34.81 input  175.53 | X-H torsion
[ 8008 7997 7996 7995 ] final  -57.18 input   59.86 | X-H torsion
[ 10167 10162 10161 10158 ] final   89.95 input  -65.29 | X-H torsion
[ 10718 10713 10712 10709 ] final   91.21 input   66.30 | X-H torsion
[ 10763 10752 10751 10750 ] final -122.50 input  -60.55 | X-H torsion
[ 11005 11000 10999 10996 ] final -117.62 input  -57.11 | X-H torsion

> <Gold.Protein.ActiveResidues>
 VAL166  LYS551  ARG553  GLY616  TRP617  ASP618  TYR619  PRO620  LYS621  CYS622 
 ASP623  PHE694  ASN695  SER759  ASP760  ASP761  ALA762  ILE779  LEU786  VAL792 
 PHE793  MET794  SER795  GLU796  ALA797  LYS798  CYS799  TRP800  GLU811  SER814 

> <Gold.Protein.RotatedAtoms>
  152.5166  134.3636  159.9293 H   0  0  0  0  0  0  0  0  0  0  0  0  # atno 6907 bound_to 6896
  151.3589  133.3890  159.2695 H   0  0  0  0  0  0  0  0  0  0  0  0  # atno 6908 bound_to 6896
  150.9667  134.9066  159.7822 H   0  0  0  0  0  0  0  0  0  0  0  0  # atno 6909 bound_to 6896
  146.0799  140.6083  142.8913 H   0  0  0  0  0  0  0  0  0  0  0  0  # atno 7974 bound_to 7965
  154.4258  140.1112  156.5756 H   0  0  0  0  0  0  0  0  0  0  0  0  # atno 8008 bound_to 7997
  155.6166  140.3494  155.4620 H   0  0  0  0  0  0  0  0  0  0  0  0  # atno 8009 bound_to 7997
  156.0057  140.1208  157.0493 H   0  0  0  0  0  0  0  0  0  0  0  0  # atno 8010 bound_to 7997
  139.8522  144.6587  150.9156 H   0  0  0  0  0  0  0  0  0  0  0  0  # atno 10167 bound_to 10162
  157.6960  131.0399  150.3695 H   0  0  0  0  0  0  0  0  0  0  0  0  # atno 10718 bound_to 10713
  154.8690  135.4130  154.2792 H   0  0  0  0  0  0  0  0  0  0  0  0  # atno 10763 bound_to 10752
  153.3688  135.7006  153.6660 H   0  0  0  0  0  0  0  0  0  0  0  0  # atno 10764 bound_to 10752
  153.5530  135.3625  155.2739 H   0  0  0  0  0  0  0  0  0  0  0  0  # atno 10765 bound_to 10752
  141.0342  133.9935  157.3096 H   0  0  0  0  0  0  0  0  0  0  0  0  # atno 11005 bound_to 11000
  144.7286  140.4602  143.6954 LP  0  0  0  0  0  0  0  0  0  0  0  0  # atno 17320 bound_to 7965
  145.6238  139.1527  143.3008 LP  0  0  0  0  0  0  0  0  0  0  0  0  # atno 17321 bound_to 7965
  140.7786  143.3817  151.1465 LP  0  0  0  0  0  0  0  0  0  0  0  0  # atno 17342 bound_to 10162
  139.7454  143.8860  152.3062 LP  0  0  0  0  0  0  0  0  0  0  0  0  # atno 17343 bound_to 10162
  156.4122  130.3936  149.6884 LP  0  0  0  0  0  0  0  0  0  0  0  0  # atno 17370 bound_to 10713
  156.4164  130.7747  151.2762 LP  0  0  0  0  0  0  0  0  0  0  0  0  # atno 17371 bound_to 10713
  139.9229  135.0201  156.8129 LP  0  0  0  0  0  0  0  0  0  0  0  0  # atno 17394 bound_to 11000
  140.6352  133.9869  155.7681 LP  0  0  0  0  0  0  0  0  0  0  0  0  # atno 17395 bound_to 11000

$$$$
