AV-unprocessed.smi:2007|AV-procd|sdf|8134|dock4
  -GOLD-   2272010363D 1   1.00000     0.00000
 Structure written by MMmdl.
 36 37  0  0  0  0  0  0  0  0  1 V2000
  147.4928  141.7399  153.7284 C   0  0  0  0  0  0  0  0  0  0  0  0
  148.2535  140.9918  154.8313 C   0  0  1  0  0  0  0  0  0  0  0  0
  149.2016  139.9305  154.2308 C   0  0  0  0  0  0  0  0  0  0  0  0
  149.9090  139.0908  155.1986 N   0  0  0  0  0  0  0  0  0  0  0  0
  149.4768  137.6952  155.1577 C   0  0  0  0  0  0  0  0  0  0  0  0
  150.2405  136.8309  156.1758 C   0  0  0  0  0  0  0  0  0  0  0  0
  151.6405  136.9351  155.9371 O   0  0  0  0  0  0  0  0  0  0  0  0
  152.1109  138.2771  156.0081 C   0  0  0  0  0  0  0  0  0  0  0  0
  151.3513  139.1436  154.9885 C   0  0  0  0  0  0  0  0  0  0  0  0
  149.0115  141.9588  155.6240 N   0  0  0  0  0  0  0  0  0  0  0  0
  149.7135  141.6862  156.7343 C   0  0  0  0  0  0  0  0  0  0  0  0
  149.7830  140.5660  157.2410 O   0  0  0  0  0  0  0  0  0  0  0  0
  150.3221  142.7889  157.2047 N   0  0  0  0  0  0  0  0  0  0  0  0
  151.1673  142.9090  158.3389 C   0  0  0  0  0  0  0  0  0  0  0  0
  151.4942  141.8945  159.1481 N   0  0  0  0  0  0  0  0  0  0  0  0
  152.3425  142.3003  160.1814 C   0  0  0  0  0  0  0  0  0  0  0  0
  152.6533  143.6368  160.1436 C   0  0  0  0  0  0  0  0  0  0  0  0
  151.8882  144.4439  158.8008 S   0  0  0  0  0  0  0  0  0  0  0  0
  146.8971  141.0518  153.1281 H   0  0  0  0  0  0  0  0  0  0  0  0
  148.1753  142.2617  153.0567 H   0  0  0  0  0  0  0  0  0  0  0  0
  146.8121  142.4787  154.1528 H   0  0  0  0  0  0  0  0  0  0  0  0
  147.5011  140.5041  155.4515 H   0  0  0  0  0  0  0  0  0  0  0  0
  148.6417  139.2936  153.5443 H   0  0  0  0  0  0  0  0  0  0  0  0
  149.9351  140.4532  153.6151 H   0  0  0  0  0  0  0  0  0  0  0  0
  148.4115  137.6182  155.3689 H   0  0  0  0  0  0  0  0  0  0  0  0
  149.6261  137.2903  154.1557 H   0  0  0  0  0  0  0  0  0  0  0  0
  150.0128  137.1464  157.1952 H   0  0  0  0  0  0  0  0  0  0  0  0
  149.9399  135.7869  156.0884 H   0  0  0  0  0  0  0  0  0  0  0  0
  151.9770  138.6642  157.0195 H   0  0  0  0  0  0  0  0  0  0  0  0
  153.1801  138.2920  155.7971 H   0  0  0  0  0  0  0  0  0  0  0  0
  151.5910  138.8068  153.9787 H   0  0  0  0  0  0  0  0  0  0  0  0
  151.6994  140.1743  155.0644 H   0  0  0  0  0  0  0  0  0  0  0  0
  149.0165  142.9098  155.2860 H   0  0  0  0  0  0  0  0  0  0  0  0
  150.1712  143.6408  156.6849 H   0  0  0  0  0  0  0  0  0  0  0  0
  152.6783  141.5697  160.9022 H   0  0  0  0  0  0  0  0  0  0  0  0
  153.2838  144.1929  160.8215 H   0  0  0  0  0  0  0  0  0  0  0  0
  1  2  1  0  0  0  0
  1 19  1  0  0  0  0
  1 20  1  0  0  0  0
  1 21  1  0  0  0  0
  2  3  1  0  0  0  0
  2 10  1  0  0  0  0
  2 22  1  0  0  0  0
  3  4  1  0  0  0  0
  3 23  1  0  0  0  0
  3 24  1  0  0  0  0
  4  9  1  0  0  0  0
  4  5  1  0  0  0  0
  5  6  1  0  0  0  0
  5 25  1  0  0  0  0
  5 26  1  0  0  0  0
  6  7  1  0  0  0  0
  6 27  1  0  0  0  0
  6 28  1  0  0  0  0
  7  8  1  0  0  0  0
  8  9  1  0  0  0  0
  8 29  1  0  0  0  0
  8 30  1  0  0  0  0
  9 31  1  0  0  0  0
  9 32  1  0  0  0  0
 10 11  1  0  0  0  0
 10 33  1  0  0  0  0
 11 12  2  0  0  0  0
 11 13  1  0  0  0  0
 13 14  1  0  0  0  0
 13 34  1  0  0  0  0
 14 18  1  0  0  0  0
 14 15  2  0  0  0  0
 15 16  1  0  0  0  0
 16 17  2  0  0  0  0
 16 35  1  0  0  0  0
 17 18  1  0  0  0  0
 17 36  1  0  0  0  0
M  END
> <s_m_source_file>
AV-unprocessed.smi

> <i_m_source_file_index>
2007

> <i_lp_mmshare_version>
43012

> <i_f3d_flags>
0

> <s_epik_input>
W0NIMl0xW0NIMl1PW0NIMl1bQ0gyXU4xW0NIMl1bQ0BASF0oW0NIM10pW05IXUMoPU8pW05IXWMybltjSF1bY0hdczI=

> <s_epik_cmdline>
J2VwaWtfcHl0aG9uJywgJy1waCcsICc3LjAnLCAnLXRuJywgJzgnLCAnLW1hJywgJzIwMCcsICctbWV0YWxfYmluZGluZycsICctaW1hZScsICc8aW5maWxlLm1hZT4nLCAnLW9tYWUnLCAnPG91dGZpbGUubWFlPic=

> <r_lp_tautomer_probability>
0.999

> <r_epik_Ionization_Penalty>
0.219197

> <r_epik_Ionization_Penalty_Charging>
0

> <r_epik_Ionization_Penalty_Neutral>
0.219197

> <r_epik_State_Penalty>
0.209349

> <r_epik_Charging_Adjusted_Penalty>
0.209349

> <i_epik_Tot_Q>
0

> <i_epik_Tot_abs_Q>
0

> <r_epik_Metal_State_Penalty>
0.254604

> <b_epik_Metal_Only>
0

> <s_lp_Force_Field>
OPLS_2005

> <r_lp_Energy>
23.7512

> <b_lp_Chiralities_Consistent>
1

> <s_lp_Variant>
AV-unprocessed.smi:2007-2

> <Gold.Version>
5.8.1

> <Gold.Id.Protein>
6NUR|6NUR_protein|mol2

> <Gold.PLP.Fitness>
41.9781

> <Gold.PLP.PLP>
-34.5011

> <Gold.PLP.part.hbond>
-3.0000

> <Gold.PLP.part.metal>
0.0000

> <Gold.PLP.part.buried>
-3.1668

> <Gold.PLP.part.nonpolar>
-28.9438

> <Gold.PLP.part.repulsive>
0.2892

> <Gold.PLP.ligand.clash>
0.0000

> <Gold.PLP.ligand.torsion>
0.7564

> <Gold.PLP.Chemscore.Hbond>
2.9920

> <Gold.PLP.Chemscore.CHOScore>
0.0000

> <Gold.PLP.Chemscore.Metal>
0.0000

> <Gold.Chemscore.Hbonds>
donor molecule, donor type, donor heavy atom, donor atom, acceptor molecule, acceptor atom, score
      L1  H    10    33       P1  8028  0.99
      L1  H    13    34       P1  8028  0.94
      P1  H 10752 10763       L1     7  0.39

> <Gold.PLP.Chemscore.Internal.Correction>
0.0137

> <Gold.Rescore>
     Score         DG    S(hbond)    S(metal)    S(lipo)     H(rot)  DE(clash)    DE(int)     intcor
     16.37     -20.07       2.93        0.00      75.83       1.58       0.05       3.66       ----

> <Gold.Chemscore.Fitness>
16.3713

> <Gold.Chemscore.DG>
-20.0740

> <Gold.Chemscore.ZeroCoef>
-5.4800

> <Gold.Chemscore.Hbond>
2.9260

> <Gold.Chemscore.Metal>
0.0000

> <Gold.Chemscore.Lipo>
75.8326

> <Gold.Chemscore.Internal_Hbond>
0.0000

> <Gold.Chemscore.DEClash>
0.0456

> <Gold.Chemscore.DEInternal>
3.6571

> <Gold.Chemscore.Rot>
1.5825

> <Gold.Chemscore.Internal.Correction>
   9.000000E+99

> <Gold.Chemscore.Hbonds>
donor molecule, donor type, donor heavy atom, donor atom, acceptor molecule, acceptor atom, score
      L1  H    10    33       P1  8028  0.93
      L1  H    13    34       P1  8028  0.90
      P1  H 10752 10763       L1     7  0.32

> <Gold.Chemscore.Hbond.Weighted>
-9.7729

> <Gold.Chemscore.Metal.Weighted>
-0.0000

> <Gold.Chemscore.Lipo.Weighted>
-8.8724

> <Gold.Chemscore.Internal_Hbond.Weighted>
0.0000

> <Gold.Chemscore.DEClash.Weighted>
0.0456

> <Gold.Chemscore.DEInternal.Weighted>
3.6571

> <Gold.Chemscore.Rot.Weighted>
4.0512

> <Gold.Chemscore.Internal.Correction.Weighted>
   9.000000E+99

> <Gold.Protein.RotatedTorsions>
[ 6907 6896 6895 6894 ] final   66.80 input  -60.11 | X-H torsion
[ 7974 7965 7964 7962 ] final  -82.55 input  175.53 | X-H torsion
[ 8008 7997 7996 7995 ] final   50.51 input   59.86 | X-H torsion
[ 10167 10162 10161 10158 ] final  -60.19 input  -65.29 | X-H torsion
[ 10718 10713 10712 10709 ] final   22.46 input   66.30 | X-H torsion
[ 10763 10752 10751 10750 ] final   63.08 input  -60.55 | X-H torsion
[ 11005 11000 10999 10996 ] final  168.52 input  -57.11 | X-H torsion

> <Gold.Protein.ActiveResidues>
 VAL166  LYS551  ARG553  GLY616  TRP617  ASP618  TYR619  PRO620  LYS621  CYS622 
 ASP623  PHE694  ASN695  SER759  ASP760  ASP761  ALA762  ILE779  LEU786  VAL792 
 PHE793  MET794  SER795  GLU796  ALA797  LYS798  CYS799  TRP800  GLU811  SER814 

> <Gold.Protein.RotatedAtoms>
  152.4507  134.5400  159.9835 H   0  0  0  0  0  0  0  0  0  0  0  0  # atno 6907 bound_to 6896
  151.5473  133.3417  159.2954 H   0  0  0  0  0  0  0  0  0  0  0  0  # atno 6908 bound_to 6896
  150.8435  134.7767  159.7015 H   0  0  0  0  0  0  0  0  0  0  0  0  # atno 6909 bound_to 6896
  145.5318  140.9520  143.1599 H   0  0  0  0  0  0  0  0  0  0  0  0  # atno 7974 bound_to 7965
  155.4200  140.3446  155.4270 H   0  0  0  0  0  0  0  0  0  0  0  0  # atno 8008 bound_to 7997
  156.1399  140.1539  156.8968 H   0  0  0  0  0  0  0  0  0  0  0  0  # atno 8009 bound_to 7997
  154.4962  140.0827  156.7682 H   0  0  0  0  0  0  0  0  0  0  0  0  # atno 8010 bound_to 7997
  140.6087  143.2381  151.5760 H   0  0  0  0  0  0  0  0  0  0  0  0  # atno 10167 bound_to 10162
  157.1526  130.6681  149.6017 H   0  0  0  0  0  0  0  0  0  0  0  0  # atno 10718 bound_to 10713
  153.0005  135.5442  154.6295 H   0  0  0  0  0  0  0  0  0  0  0  0  # atno 10763 bound_to 10752
  154.5575  135.2831  155.0952 H   0  0  0  0  0  0  0  0  0  0  0  0  # atno 10764 bound_to 10752
  154.2168  135.6457  153.5185 H   0  0  0  0  0  0  0  0  0  0  0  0  # atno 10765 bound_to 10752
  140.2881  134.7695  157.3815 H   0  0  0  0  0  0  0  0  0  0  0  0  # atno 11005 bound_to 11000
  144.7622  139.6930  143.7230 LP  0  0  0  0  0  0  0  0  0  0  0  0  # atno 17320 bound_to 7965
  146.2039  139.5351  142.9725 LP  0  0  0  0  0  0  0  0  0  0  0  0  # atno 17321 bound_to 7965
  139.5344  144.2822  152.1220 LP  0  0  0  0  0  0  0  0  0  0  0  0  # atno 17342 bound_to 10162
  140.2016  144.4652  150.6428 LP  0  0  0  0  0  0  0  0  0  0  0  0  # atno 17343 bound_to 10162
  155.9768  130.4739  150.6550 LP  0  0  0  0  0  0  0  0  0  0  0  0  # atno 17370 bound_to 10713
  157.4206  131.0836  151.1134 LP  0  0  0  0  0  0  0  0  0  0  0  0  # atno 17371 bound_to 10713
  140.1221  134.5206  155.8175 LP  0  0  0  0  0  0  0  0  0  0  0  0  # atno 17394 bound_to 11000
  141.2151  133.6760  156.6884 LP  0  0  0  0  0  0  0  0  0  0  0  0  # atno 17395 bound_to 11000

$$$$
