AV-unprocessed.smi:2217|AV-procd|sdf|8968|dock8
  -GOLD-   2272012183D 1   1.00000     0.00000
 Structure written by MMmdl.
 45 48  0  0  0  0  0  0  0  0  1 V2000
  151.7283  140.0127  157.9234 C   0  0  0  0  0  0  0  0  0  0  0  0
  150.9755  139.0626  157.0157 C   0  0  0  0  0  0  0  0  0  0  0  0
  151.1871  139.0670  155.6245 C   0  0  0  0  0  0  0  0  0  0  0  0
  150.4638  138.1612  154.8251 C   0  0  0  0  0  0  0  0  0  0  0  0
  149.5466  137.2721  155.4296 C   0  0  0  0  0  0  0  0  0  0  0  0
  148.8807  136.4011  154.5171 N   0  0  0  0  0  0  0  0  0  0  0  0
  147.9888  135.4075  154.7177 C   0  0  0  0  0  0  0  0  0  0  0  0
  147.6081  135.1155  155.8500 O   0  0  0  0  0  0  0  0  0  0  0  0
  147.5501  134.7733  153.6198 N   0  0  0  0  0  0  0  0  0  0  0  0
  146.5343  133.7290  153.6040 C   0  0  2  0  0  0  0  0  0  0  0  0
  147.0438  132.4305  152.9791 C   0  0  1  0  0  0  0  0  0  0  0  0
  147.3310  131.0685  153.5021 C   0  0  0  0  0  0  0  0  0  0  0  0
  146.5989  130.2561  152.4019 C   0  0  0  0  0  0  0  0  0  0  0  0
  145.8413  131.2210  151.6329 O   0  0  0  0  0  0  0  0  0  0  0  0
  145.5995  132.2706  152.5480 C   0  0  2  0  0  0  0  0  0  0  0  0
  145.5730  133.8008  152.3566 C   0  0  0  0  0  0  0  0  0  0  0  0
  144.2251  134.5042  152.5686 C   0  0  0  0  0  0  0  0  0  0  0  0
  143.9580  135.4184  151.3706 C   0  0  0  0  0  0  0  0  0  0  0  0
  145.3310  135.6758  150.7668 C   0  0  0  0  0  0  0  0  0  0  0  0
  146.0860  134.3751  151.0191 C   0  0  0  0  0  0  0  0  0  0  0  0
  149.3549  137.2748  156.7737 N   0  0  0  0  0  0  0  0  0  0  0  0
  150.0476  138.1430  157.5402 C   0  0  0  0  0  0  0  0  0  0  0  0
  152.0170  140.9170  157.3870 H   0  0  0  0  0  0  0  0  0  0  0  0
  152.6311  139.5337  158.3027 H   0  0  0  0  0  0  0  0  0  0  0  0
  151.1112  140.3057  158.7733 H   0  0  0  0  0  0  0  0  0  0  0  0
  151.8911  139.7512  155.1736 H   0  0  0  0  0  0  0  0  0  0  0  0
  150.6163  138.1528  153.7554 H   0  0  0  0  0  0  0  0  0  0  0  0
  149.1555  136.5226  153.5534 H   0  0  0  0  0  0  0  0  0  0  0  0
  147.9167  135.0698  152.7259 H   0  0  0  0  0  0  0  0  0  0  0  0
  146.0258  133.5811  154.5615 H   0  0  0  0  0  0  0  0  0  0  0  0
  147.7103  132.6470  152.1384 H   0  0  0  0  0  0  0  0  0  0  0  0
  148.3978  130.8477  153.5461 H   0  0  0  0  0  0  0  0  0  0  0  0
  146.8921  130.9091  154.4879 H   0  0  0  0  0  0  0  0  0  0  0  0
  147.2976  129.7351  151.7468 H   0  0  0  0  0  0  0  0  0  0  0  0
  145.9326  129.5151  152.8455 H   0  0  0  0  0  0  0  0  0  0  0  0
  144.9284  131.9396  153.3491 H   0  0  0  0  0  0  0  0  0  0  0  0
  143.4083  133.7931  152.6952 H   0  0  0  0  0  0  0  0  0  0  0  0
  144.2538  135.1036  153.4787 H   0  0  0  0  0  0  0  0  0  0  0  0
  143.3350  134.8944  150.6447 H   0  0  0  0  0  0  0  0  0  0  0  0
  143.4419  136.3377  151.6491 H   0  0  0  0  0  0  0  0  0  0  0  0
  145.2868  135.9428  149.7109 H   0  0  0  0  0  0  0  0  0  0  0  0
  145.8202  136.4921  151.2999 H   0  0  0  0  0  0  0  0  0  0  0  0
  147.1620  134.5488  150.9999 H   0  0  0  0  0  0  0  0  0  0  0  0
  145.8710  133.6747  150.2110 H   0  0  0  0  0  0  0  0  0  0  0  0
  149.8544  138.0999  158.6022 H   0  0  0  0  0  0  0  0  0  0  0  0
  1  2  1  0  0  0  0
  1 23  1  0  0  0  0
  1 24  1  0  0  0  0
  1 25  1  0  0  0  0
  2 22  1  0  0  0  0
  2  3  2  0  0  0  0
  3  4  1  0  0  0  0
  3 26  1  0  0  0  0
  4  5  2  0  0  0  0
  4 27  1  0  0  0  0
  5  6  1  0  0  0  0
  5 21  1  0  0  0  0
  6  7  1  0  0  0  0
  6 28  1  0  0  0  0
  7  8  2  0  0  0  0
  7  9  1  0  0  0  0
  9 10  1  0  0  0  0
  9 29  1  0  0  0  0
 10 16  1  0  0  0  0
 10 11  1  0  0  0  0
 10 30  1  0  0  0  0
 11 15  1  0  0  0  0
 11 12  1  0  0  0  0
 11 31  1  0  0  0  0
 12 13  1  0  0  0  0
 12 32  1  0  0  0  0
 12 33  1  0  0  0  0
 13 14  1  0  0  0  0
 13 34  1  0  0  0  0
 13 35  1  0  0  0  0
 14 15  1  0  0  0  0
 15 16  1  0  0  0  0
 15 36  1  0  0  0  0
 16 20  1  0  0  0  0
 16 17  1  0  0  0  0
 17 18  1  0  0  0  0
 17 37  1  0  0  0  0
 17 38  1  0  0  0  0
 18 19  1  0  0  0  0
 18 39  1  0  0  0  0
 18 40  1  0  0  0  0
 19 20  1  0  0  0  0
 19 41  1  0  0  0  0
 19 42  1  0  0  0  0
 20 43  1  0  0  0  0
 20 44  1  0  0  0  0
 21 22  2  0  0  0  0
 22 45  1  0  0  0  0
M  END
> <s_m_source_file>
AV-unprocessed.smi

> <i_m_source_file_index>
2217

> <i_lp_mmshare_version>
43012

> <i_f3d_flags>
0

> <s_epik_input>
W0NIM11jMVtjSF1bY0hdYyhuW2NIXTEpW05IXUMoPU8pW05IXVtDQEBIXTJbQ0BASF0oW0NIMl1bQ0gyXU8zKVtDQEhdM0MyNFtDSDJdW0NIMl1bQ0gyXVtDSDJdNA==

> <s_epik_cmdline>
J2VwaWtfcHl0aG9uJywgJy1waCcsICc3LjAnLCAnLXRuJywgJzgnLCAnLW1hJywgJzIwMCcsICctbWV0YWxfYmluZGluZycsICctaW1hZScsICc8aW5maWxlLm1hZT4nLCAnLW9tYWUnLCAnPG91dGZpbGUubWFlPic=

> <r_lp_tautomer_probability>
1

> <r_epik_Ionization_Penalty>
6.14796e-05

> <r_epik_Ionization_Penalty_Charging>
0

> <r_epik_Ionization_Penalty_Neutral>
6.14796e-05

> <r_epik_State_Penalty>
-0

> <r_epik_Charging_Adjusted_Penalty>
0

> <i_epik_Tot_Q>
0

> <i_epik_Tot_abs_Q>
0

> <r_epik_Metal_State_Penalty>
-0

> <b_epik_Metal_Only>
0

> <s_lp_Force_Field>
OPLS_2005

> <r_lp_Energy>
79.4862

> <b_lp_Chiralities_Consistent>
1

> <s_lp_Variant>
AV-unprocessed.smi:2217-1

> <Gold.Version>
5.8.1

> <Gold.Id.Protein>
6NUR|6NUR_protein|mol2

> <Gold.PLP.Fitness>
34.7189

> <Gold.PLP.PLP>
-29.0320

> <Gold.PLP.part.hbond>
-2.0000

> <Gold.PLP.part.metal>
0.0000

> <Gold.PLP.part.buried>
-4.5901

> <Gold.PLP.part.nonpolar>
-22.7768

> <Gold.PLP.part.repulsive>
0.1847

> <Gold.PLP.ligand.clash>
0.0000

> <Gold.PLP.ligand.torsion>
0.1653

> <Gold.PLP.Chemscore.Hbond>
1.9120

> <Gold.PLP.Chemscore.CHOScore>
0.0000

> <Gold.PLP.Chemscore.Metal>
0.0000

> <Gold.Chemscore.Hbonds>
donor molecule, donor type, donor heavy atom, donor atom, acceptor molecule, acceptor atom, score
      L1  H     6    28       P1  7948  1.00
      L1  H     9    29       P1  7948  0.96

> <Gold.PLP.Chemscore.Internal.Correction>
0.2814

> <Gold.Rescore>
     Score         DG    S(hbond)    S(metal)    S(lipo)     H(rot)  DE(clash)    DE(int)     intcor
     16.49     -17.94       1.86        0.00      75.34       1.00       0.01       1.44       ----

> <Gold.Chemscore.Fitness>
16.4902

> <Gold.Chemscore.DG>
-17.9384

> <Gold.Chemscore.ZeroCoef>
-5.4800

> <Gold.Chemscore.Hbond>
1.8574

> <Gold.Chemscore.Metal>
0.0000

> <Gold.Chemscore.Lipo>
75.3400

> <Gold.Chemscore.Internal_Hbond>
0.0000

> <Gold.Chemscore.DEClash>
0.0106

> <Gold.Chemscore.DEInternal>
1.4375

> <Gold.Chemscore.Rot>
1.0000

> <Gold.Chemscore.Internal.Correction>
   9.000000E+99

> <Gold.Chemscore.Hbonds>
donor molecule, donor type, donor heavy atom, donor atom, acceptor molecule, acceptor atom, score
      L1  H     6    28       P1  7948  0.95
      L1  H     9    29       P1  7948  0.89

> <Gold.Chemscore.Hbond.Weighted>
-6.2036

> <Gold.Chemscore.Metal.Weighted>
-0.0000

> <Gold.Chemscore.Lipo.Weighted>
-8.8148

> <Gold.Chemscore.Internal_Hbond.Weighted>
0.0000

> <Gold.Chemscore.DEClash.Weighted>
0.0106

> <Gold.Chemscore.DEInternal.Weighted>
1.4375

> <Gold.Chemscore.Rot.Weighted>
2.5600

> <Gold.Chemscore.Internal.Correction.Weighted>
   9.000000E+99

> <Gold.Protein.RotatedTorsions>
[ 6907 6896 6895 6894 ] final -114.30 input  -60.11 | X-H torsion
[ 7974 7965 7964 7962 ] final   72.76 input  175.53 | X-H torsion
[ 8008 7997 7996 7995 ] final -165.84 input   59.86 | X-H torsion
[ 10167 10162 10161 10158 ] final  -70.32 input  -65.29 | X-H torsion
[ 10718 10713 10712 10709 ] final  141.02 input   66.30 | X-H torsion
[ 10763 10752 10751 10750 ] final  -53.96 input  -60.55 | X-H torsion
[ 11005 11000 10999 10996 ] final  142.00 input  -57.11 | X-H torsion

> <Gold.Protein.ActiveResidues>
 VAL166  LYS551  ARG553  GLY616  TRP617  ASP618  TYR619  PRO620  LYS621  CYS622 
 ASP623  PHE694  ASN695  SER759  ASP760  ASP761  ALA762  ILE779  LEU786  VAL792 
 PHE793  MET794  SER795  GLU796  ALA797  LYS798  CYS799  TRP800  GLU811  SER814 

> <Gold.Protein.RotatedAtoms>
  150.7892  133.8821  159.3288 H   0  0  0  0  0  0  0  0  0  0  0  0  # atno 6907 bound_to 6896
  151.6663  135.0980  160.0199 H   0  0  0  0  0  0  0  0  0  0  0  0  # atno 6908 bound_to 6896
  152.3962  133.6712  159.6314 H   0  0  0  0  0  0  0  0  0  0  0  0  # atno 6909 bound_to 6896
  145.7494  139.2753  143.1440 H   0  0  0  0  0  0  0  0  0  0  0  0  # atno 7974 bound_to 7965
  155.8554  140.0969  157.1648 H   0  0  0  0  0  0  0  0  0  0  0  0  # atno 8008 bound_to 7997
  154.3987  140.1375  156.3958 H   0  0  0  0  0  0  0  0  0  0  0  0  # atno 8009 bound_to 7997
  155.7915  140.3455  155.5354 H   0  0  0  0  0  0  0  0  0  0  0  0  # atno 8010 bound_to 7997
  140.5361  143.2318  151.7174 H   0  0  0  0  0  0  0  0  0  0  0  0  # atno 10167 bound_to 10162
  157.3967  131.1011  151.0592 H   0  0  0  0  0  0  0  0  0  0  0  0  # atno 10718 bound_to 10713
  154.1672  135.6465  153.5000 H   0  0  0  0  0  0  0  0  0  0  0  0  # atno 10763 bound_to 10752
  153.0094  135.5375  154.6650 H   0  0  0  0  0  0  0  0  0  0  0  0  # atno 10764 bound_to 10752
  154.5979  135.2941  155.0538 H   0  0  0  0  0  0  0  0  0  0  0  0  # atno 10765 bound_to 10752
  140.0443  134.9288  157.0901 H   0  0  0  0  0  0  0  0  0  0  0  0  # atno 11005 bound_to 11000
  146.0372  140.8201  142.9847 LP  0  0  0  0  0  0  0  0  0  0  0  0  # atno 17320 bound_to 7965
  144.6853  140.2856  143.7286 LP  0  0  0  0  0  0  0  0  0  0  0  0  # atno 17321 bound_to 7965
  139.4971  144.4040  152.0151 LP  0  0  0  0  0  0  0  0  0  0  0  0  # atno 17342 bound_to 10162
  140.3145  144.3499  150.6025 LP  0  0  0  0  0  0  0  0  0  0  0  0  # atno 17343 bound_to 10162
  157.1606  130.6224  149.5609 LP  0  0  0  0  0  0  0  0  0  0  0  0  # atno 17370 bound_to 10713
  155.9812  130.4818  150.6816 LP  0  0  0  0  0  0  0  0  0  0  0  0  # atno 17371 bound_to 10713
  140.4018  134.2074  155.7163 LP  0  0  0  0  0  0  0  0  0  0  0  0  # atno 17394 bound_to 11000
  141.1899  133.8228  157.0939 LP  0  0  0  0  0  0  0  0  0  0  0  0  # atno 17395 bound_to 11000

$$$$
