AV-unprocessed.smi:67|AV-procd|sdf|636|dock1
  -GOLD-   2262016533D 1   1.00000     0.00000
 Structure written by MMmdl.
 48 50  0  0  0  0  0  0  0  0  2 V2000
  144.4206  137.8246  153.5026 O   0  0  0  0  0  0  0  0  0  0  0  0
  145.3724  137.3016  152.5965 C   0  0  2  0  0  0  0  0  0  0  0  0
  146.2618  138.4647  152.0931 C   0  0  0  0  0  0  0  0  0  0  0  0
  146.8387  139.2552  153.2128 N   0  3  2  0  0  0  0  0  0  0  0  0
  146.9983  140.6966  152.8881 C   0  0  0  0  0  0  0  0  0  0  0  0
  147.3904  141.5063  154.1351 C   0  0  0  0  0  0  0  0  0  0  0  0
  148.6469  140.9082  154.8012 C   0  0  1  0  0  0  0  0  0  0  0  0
  149.1526  141.6568  155.9094 O   0  0  0  0  0  0  0  0  0  0  0  0
  150.3373  141.3573  156.5552 C   0  0  0  0  0  0  0  0  0  0  0  0
  151.0850  140.1614  156.4133 C   0  0  0  0  0  0  0  0  0  0  0  0
  152.2839  139.9784  157.1278 C   0  0  0  0  0  0  0  0  0  0  0  0
  152.7533  140.9807  157.9953 C   0  0  0  0  0  0  0  0  0  0  0  0
  152.0210  142.1747  158.1562 C   0  0  0  0  0  0  0  0  0  0  0  0
  152.5239  143.2692  159.0861 C   0  0  0  0  0  0  0  0  0  0  0  0
  152.9919  144.2820  158.3577 F   0  0  0  0  0  0  0  0  0  0  0  0
  151.5388  143.7186  159.8643 F   0  0  0  0  0  0  0  0  0  0  0  0
  153.5020  142.8179  159.8721 F   0  0  0  0  0  0  0  0  0  0  0  0
  150.8240  142.3521  157.4293 C   0  0  0  0  0  0  0  0  0  0  0  0
  148.5291  139.3892  155.0434 C   0  0  0  0  0  0  0  0  0  0  0  0
  148.0916  138.6690  153.7572 C   0  0  0  0  0  0  0  0  0  0  0  0
  144.7012  136.5053  151.4719 C   0  0  0  0  0  0  0  0  0  0  0  0
  145.7761  135.4933  151.0865 C   0  0  0  0  0  0  0  0  0  0  0  0
  146.4630  135.1620  152.3298 N   0  0  0  0  0  0  0  0  0  0  0  0
  146.2148  136.2251  153.3040 C   0  0  0  0  0  0  0  0  0  0  0  0
  143.9788  138.5527  153.0922 H   0  0  0  0  0  0  0  0  0  0  0  0
  147.0567  138.0837  151.4494 H   0  0  0  0  0  0  0  0  0  0  0  0
  145.6650  139.1136  151.4500 H   0  0  0  0  0  0  0  0  0  0  0  0
  147.7512  140.8130  152.1069 H   0  0  0  0  0  0  0  0  0  0  0  0
  146.0625  141.0906  152.4888 H   0  0  0  0  0  0  0  0  0  0  0  0
  147.5826  142.5417  153.8527 H   0  0  0  0  0  0  0  0  0  0  0  0
  146.5399  141.5351  154.8111 H   0  0  0  0  0  0  0  0  0  0  0  0
  149.4411  141.0171  154.0612 H   0  0  0  0  0  0  0  0  0  0  0  0
  150.7765  139.3601  155.7655 H   0  0  0  0  0  0  0  0  0  0  0  0
  152.8470  139.0645  157.0090 H   0  0  0  0  0  0  0  0  0  0  0  0
  153.6771  140.8286  158.5337 H   0  0  0  0  0  0  0  0  0  0  0  0
  150.2649  143.2697  157.5413 H   0  0  0  0  0  0  0  0  0  0  0  0
  149.4912  138.9952  155.3724 H   0  0  0  0  0  0  0  0  0  0  0  0
  147.8235  139.1485  155.8341 H   0  0  0  0  0  0  0  0  0  0  0  0
  147.9446  137.6101  153.9716 H   0  0  0  0  0  0  0  0  0  0  0  0
  148.8793  138.7318  153.0049 H   0  0  0  0  0  0  0  0  0  0  0  0
  143.8305  135.9709  151.8558 H   0  0  0  0  0  0  0  0  0  0  0  0
  144.3672  137.1117  150.6298 H   0  0  0  0  0  0  0  0  0  0  0  0
  145.3621  134.6078  150.6038 H   0  0  0  0  0  0  0  0  0  0  0  0
  146.4787  135.9513  150.3897 H   0  0  0  0  0  0  0  0  0  0  0  0
  147.4579  135.0424  152.1664 H   0  0  0  0  0  0  0  0  0  0  0  0
  147.1469  136.6265  153.7027 H   0  0  0  0  0  0  0  0  0  0  0  0
  145.6645  135.8047  154.1468 H   0  0  0  0  0  0  0  0  0  0  0  0
  146.1549  139.2095  153.9553 H   0  0  0  0  0  0  0  0  0  0  0  0
  1  2  1  0  0  0  0
  1 25  1  0  0  0  0
  2 24  1  0  0  0  0
  2  3  1  0  0  0  0
  2 21  1  0  0  0  0
  3  4  1  0  0  0  0
  3 26  1  0  0  0  0
  3 27  1  0  0  0  0
  4 20  1  0  0  0  0
  4  5  1  0  0  0  0
  4 48  1  0  0  0  0
  5  6  1  0  0  0  0
  5 28  1  0  0  0  0
  5 29  1  0  0  0  0
  6  7  1  0  0  0  0
  6 30  1  0  0  0  0
  6 31  1  0  0  0  0
  7  8  1  0  0  0  0
  7 19  1  0  0  0  0
  7 32  1  0  0  0  0
  8  9  1  0  0  0  0
  9 18  1  0  0  0  0
  9 10  2  0  0  0  0
 10 11  1  0  0  0  0
 10 33  1  0  0  0  0
 11 12  2  0  0  0  0
 11 34  1  0  0  0  0
 12 13  1  0  0  0  0
 12 35  1  0  0  0  0
 13 14  1  0  0  0  0
 13 18  2  0  0  0  0
 14 15  1  0  0  0  0
 14 16  1  0  0  0  0
 14 17  1  0  0  0  0
 18 36  1  0  0  0  0
 19 20  1  0  0  0  0
 19 37  1  0  0  0  0
 19 38  1  0  0  0  0
 20 39  1  0  0  0  0
 20 40  1  0  0  0  0
 21 22  1  0  0  0  0
 21 41  1  0  0  0  0
 21 42  1  0  0  0  0
 22 23  1  0  0  0  0
 22 43  1  0  0  0  0
 22 44  1  0  0  0  0
 23 24  1  0  0  0  0
 23 45  1  0  0  0  0
 24 46  1  0  0  0  0
 24 47  1  0  0  0  0
M  CHG  1   4   1
M  END
> <s_m_source_file>
AV-unprocessed.smi

> <i_m_source_file_index>
67

> <i_lp_mmshare_version>
43012

> <i_f3d_flags>
0

> <s_epik_input>
W0NIMl0xW05IXVtDSDJdW0NIMl1bQ0BAXTEoW09IXSlbQ0gyXU4yW0NIMl1bQ0gyXVtDSF0oW0NIMl1bQ0gyXTIpT2MzW2NIXVtjSF1bY0hdYyhDKEYpKEYpRilbY0hdMw==

> <s_epik_cmdline>
J2VwaWtfcHl0aG9uJywgJy1waCcsICc3LjAnLCAnLXRuJywgJzgnLCAnLW1hJywgJzIwMCcsICctbWV0YWxfYmluZGluZycsICctaW1hZScsICc8aW5maWxlLm1hZT4nLCAnLW9tYWUnLCAnPG91dGZpbGUubWFlPic=

> <r_epik_Ionization_Penalty>
2.37709

> <r_epik_Ionization_Penalty_Charging>
0.0305656

> <r_epik_Ionization_Penalty_Neutral>
2.34653

> <r_epik_State_Penalty>
2.56959

> <r_epik_Charging_Adjusted_Penalty>
2.60016

> <i_epik_Tot_Q>
1

> <i_epik_Tot_abs_Q>
1

> <r_epik_Metal_State_Penalty>
2.56925

> <b_epik_Metal_Only>
0

> <s_lp_Force_Field>
OPLS_2005

> <r_lp_Energy>
55.6007

> <b_lp_Chiralities_Consistent>
1

> <s_lp_Variant>
AV-unprocessed.smi:67-8

> <Gold.Version>
5.8.1

> <Gold.Id.Protein>
6NUR|6NUR_protein|mol2

> <Gold.PLP.Fitness>
48.9732

> <Gold.PLP.PLP>
-44.9507

> <Gold.PLP.part.hbond>
-2.0000

> <Gold.PLP.part.metal>
0.0000

> <Gold.PLP.part.buried>
-2.0115

> <Gold.PLP.part.nonpolar>
-41.5243

> <Gold.PLP.part.repulsive>
1.4787

> <Gold.PLP.ligand.clash>
0.6911

> <Gold.PLP.ligand.torsion>
1.0071

> <Gold.PLP.Chemscore.Hbond>
1.6240

> <Gold.PLP.Chemscore.CHOScore>
0.0000

> <Gold.PLP.Chemscore.Metal>
0.0000

> <Gold.Chemscore.Hbonds>
donor molecule, donor type, donor heavy atom, donor atom, acceptor molecule, acceptor atom, score
      L1  H     1    25       P1 10175  1.00
      L1  H    23    45       P1  7948  0.74

> <Gold.PLP.Chemscore.Internal.Correction>
1.8558

> <Gold.Rescore>
     Score         DG    S(hbond)    S(metal)    S(lipo)     H(rot)  DE(clash)    DE(int)     intcor
     16.01     -18.97       1.77        0.00     112.29       2.17       2.46       0.49       ----

> <Gold.Chemscore.Fitness>
16.0127

> <Gold.Chemscore.DG>
-18.9652

> <Gold.Chemscore.ZeroCoef>
-5.4800

> <Gold.Chemscore.Hbond>
1.7698

> <Gold.Chemscore.Metal>
0.0000

> <Gold.Chemscore.Lipo>
112.2902

> <Gold.Chemscore.Internal_Hbond>
0.0000

> <Gold.Chemscore.DEClash>
2.4575

> <Gold.Chemscore.DEInternal>
0.4950

> <Gold.Chemscore.Rot>
2.1734

> <Gold.Chemscore.Internal.Correction>
   9.000000E+99

> <Gold.Chemscore.Hbonds>
donor molecule, donor type, donor heavy atom, donor atom, acceptor molecule, acceptor atom, score
      L1  H     1    25       P1 10175  0.94
      L1  H    23    45       P1  7948  0.70

> <Gold.Chemscore.Hbond.Weighted>
-5.9112

> <Gold.Chemscore.Metal.Weighted>
-0.0000

> <Gold.Chemscore.Lipo.Weighted>
-13.1379

> <Gold.Chemscore.Internal_Hbond.Weighted>
0.0000

> <Gold.Chemscore.DEClash.Weighted>
2.4575

> <Gold.Chemscore.DEInternal.Weighted>
0.4950

> <Gold.Chemscore.Rot.Weighted>
5.5640

> <Gold.Chemscore.Internal.Correction.Weighted>
   9.000000E+99

> <Gold.Protein.RotatedTorsions>
[ 6907 6896 6895 6894 ] final   24.82 input  -60.11 | X-H torsion
[ 7974 7965 7964 7962 ] final  135.35 input  175.53 | X-H torsion
[ 8008 7997 7996 7995 ] final   62.11 input   59.86 | X-H torsion
[ 10167 10162 10161 10158 ] final   91.72 input  -65.29 | X-H torsion
[ 10718 10713 10712 10709 ] final  176.47 input   66.30 | X-H torsion
[ 10763 10752 10751 10750 ] final   14.06 input  -60.55 | X-H torsion
[ 11005 11000 10999 10996 ] final -140.15 input  -57.11 | X-H torsion

> <Gold.Protein.ActiveResidues>
 VAL166  LYS551  ARG553  GLY616  TRP617  ASP618  TYR619  PRO620  LYS621  CYS622 
 ASP623  PHE694  ASN695  SER759  ASP760  ASP761  ALA762  ILE779  LEU786  VAL792 
 PHE793  MET794  SER795  GLU796  ALA797  LYS798  CYS799  TRP800  GLU811  SER814 

> <Gold.Protein.RotatedAtoms>
  151.9632  135.0113  160.0548 H   0  0  0  0  0  0  0  0  0  0  0  0  # atno 6907 bound_to 6896
  152.1849  133.4728  159.4986 H   0  0  0  0  0  0  0  0  0  0  0  0  # atno 6908 bound_to 6896
  150.6924  134.1703  159.4252 H   0  0  0  0  0  0  0  0  0  0  0  0  # atno 6909 bound_to 6896
  144.9672  139.4645  143.5451 H   0  0  0  0  0  0  0  0  0  0  0  0  # atno 7974 bound_to 7965
  155.6091  140.3495  155.4617 H   0  0  0  0  0  0  0  0  0  0  0  0  # atno 8008 bound_to 7997
  156.0168  140.1245  157.0422 H   0  0  0  0  0  0  0  0  0  0  0  0  # atno 8009 bound_to 7997
  154.4300  140.1070  156.5893 H   0  0  0  0  0  0  0  0  0  0  0  0  # atno 8010 bound_to 7997
  139.8347  144.6670  150.9356 H   0  0  0  0  0  0  0  0  0  0  0  0  # atno 10167 bound_to 10162
  156.9197  130.9936  151.3007 H   0  0  0  0  0  0  0  0  0  0  0  0  # atno 10718 bound_to 10713
  153.1659  135.6804  153.8675 H   0  0  0  0  0  0  0  0  0  0  0  0  # atno 10763 bound_to 10752
  153.8055  135.3150  155.3396 H   0  0  0  0  0  0  0  0  0  0  0  0  # atno 10764 bound_to 10752
  154.7965  135.4804  154.0264 H   0  0  0  0  0  0  0  0  0  0  0  0  # atno 10765 bound_to 10752
  140.8450  134.2355  157.4790 H   0  0  0  0  0  0  0  0  0  0  0  0  # atno 11005 bound_to 11000
  146.3371  139.8860  142.8816 LP  0  0  0  0  0  0  0  0  0  0  0  0  # atno 17320 bound_to 7965
  145.2612  141.0078  143.3825 LP  0  0  0  0  0  0  0  0  0  0  0  0  # atno 17321 bound_to 7965
  140.7803  143.3968  151.1216 LP  0  0  0  0  0  0  0  0  0  0  0  0  # atno 17342 bound_to 10162
  139.7619  143.8623  152.3102 LP  0  0  0  0  0  0  0  0  0  0  0  0  # atno 17343 bound_to 10162
  157.5916  130.8447  149.8667 LP  0  0  0  0  0  0  0  0  0  0  0  0  # atno 17370 bound_to 10713
  156.0497  130.3720  150.1231 LP  0  0  0  0  0  0  0  0  0  0  0  0  # atno 17371 bound_to 10713
  139.8703  134.9655  156.4530 LP  0  0  0  0  0  0  0  0  0  0  0  0  # atno 17394 bound_to 11000
  140.8853  133.7888  155.9511 LP  0  0  0  0  0  0  0  0  0  0  0  0  # atno 17395 bound_to 11000

$$$$
