AV-unprocessed.smi:2252|AV-procd|sdf|9110|dock6
  -GOLD-   2272012313D 1   1.00000     0.00000
 Structure written by MMmdl.
 45 47  0  0  0  0  0  0  0  0  4 V2000
  153.0401  142.7446  160.1684 C   0  0  0  0  0  0  0  0  0  0  0  0
  152.0406  143.5238  159.4364 N   0  0  0  0  0  0  0  0  0  0  0  0
  151.8131  144.8706  159.5592 C   0  0  0  0  0  0  0  0  0  0  0  0
  150.8095  145.1820  158.6804 C   0  0  0  0  0  0  0  0  0  0  0  0
  150.4663  144.0137  158.0573 N   0  3  0  0  0  0  0  0  0  0  0  0
  151.2073  142.9968  158.5212 C   0  0  0  0  0  0  0  0  0  0  0  0
  151.1130  141.5620  158.0700 C   0  0  0  0  0  0  0  0  0  0  0  0
  149.8452  141.2089  157.2609 C   0  0  0  0  0  0  0  0  0  0  0  0
  149.4949  139.7955  157.4027 N   0  5  0  0  0  0  0  0  0  0  0  0
  149.2043  138.9744  156.3523 C   0  0  0  0  0  0  0  0  0  0  0  0
  148.4558  137.9943  156.2936 O   0  0  0  0  0  0  0  0  0  0  0  0
  149.9705  139.3795  155.0761 C   0  0  1  0  0  0  0  0  0  0  0  0
  150.8542  138.2079  154.5888 C   0  0  0  0  0  0  0  0  0  0  0  0
  151.7209  137.4349  155.5601 C   0  0  0  0  0  0  0  0  0  0  0  0
  152.3624  138.3329  154.5358 C   0  0  0  0  0  0  0  0  0  0  0  0
  149.0628  139.8787  154.0018 N   0  3  0  0  0  0  0  0  0  0  0  0
  147.9498  138.9768  153.6370 C   0  0  0  0  0  0  0  0  0  0  0  0
  146.9917  139.8508  152.8350 C   0  0  0  0  0  0  0  0  0  0  0  0
  147.1203  141.2319  153.4778 C   0  0  0  0  0  0  0  0  0  0  0  0
  148.4492  141.2044  154.2470 C   0  0  0  0  0  0  0  0  0  0  0  0
  153.4559  143.3483  160.9754 H   0  0  0  0  0  0  0  0  0  0  0  0
  153.8370  142.4516  159.4845 H   0  0  0  0  0  0  0  0  0  0  0  0
  152.5718  141.8561  160.5889 H   0  0  0  0  0  0  0  0  0  0  0  0
  152.3708  145.4932  160.2438 H   0  0  0  0  0  0  0  0  0  0  0  0
  150.3277  146.1223  158.4557 H   0  0  0  0  0  0  0  0  0  0  0  0
  151.9981  141.3817  157.4594 H   0  0  0  0  0  0  0  0  0  0  0  0
  151.2090  140.9186  158.9446 H   0  0  0  0  0  0  0  0  0  0  0  0
  149.0276  141.8460  157.5990 H   0  0  0  0  0  0  0  0  0  0  0  0
  150.0069  141.4831  156.2178 H   0  0  0  0  0  0  0  0  0  0  0  0
  150.6290  140.2072  155.3469 H   0  0  0  0  0  0  0  0  0  0  0  0
  150.3974  137.6128  153.7996 H   0  0  0  0  0  0  0  0  0  0  0  0
  151.7364  137.7638  156.5975 H   0  0  0  0  0  0  0  0  0  0  0  0
  151.8130  136.3613  155.4099 H   0  0  0  0  0  0  0  0  0  0  0  0
  152.8751  137.8592  153.7012 H   0  0  0  0  0  0  0  0  0  0  0  0
  152.8139  139.2549  154.8970 H   0  0  0  0  0  0  0  0  0  0  0  0
  148.2870  138.1116  153.0653 H   0  0  0  0  0  0  0  0  0  0  0  0
  147.4570  138.6156  154.5411 H   0  0  0  0  0  0  0  0  0  0  0  0
  147.3226  139.8978  151.7965 H   0  0  0  0  0  0  0  0  0  0  0  0
  145.9692  139.4725  152.8424 H   0  0  0  0  0  0  0  0  0  0  0  0
  147.1001  142.0224  152.7268 H   0  0  0  0  0  0  0  0  0  0  0  0
  146.2941  141.4110  154.1670 H   0  0  0  0  0  0  0  0  0  0  0  0
  148.2459  141.3352  155.3105 H   0  0  0  0  0  0  0  0  0  0  0  0
  149.1217  142.0030  153.9328 H   0  0  0  0  0  0  0  0  0  0  0  0
  149.6287  139.9704  153.1698 H   0  0  0  0  0  0  0  0  0  0  0  0
  149.7465  143.9221  157.3516 H   0  0  0  0  0  0  0  0  0  0  0  0
  1  2  1  0  0  0  0
  1 21  1  0  0  0  0
  1 22  1  0  0  0  0
  1 23  1  0  0  0  0
  2  6  1  0  0  0  0
  2  3  1  0  0  0  0
  3  4  2  0  0  0  0
  3 24  1  0  0  0  0
  4  5  1  0  0  0  0
  4 25  1  0  0  0  0
  5  6  2  0  0  0  0
  5 45  1  0  0  0  0
  6  7  1  0  0  0  0
  7  8  1  0  0  0  0
  7 26  1  0  0  0  0
  7 27  1  0  0  0  0
  8  9  1  0  0  0  0
  8 28  1  0  0  0  0
  8 29  1  0  0  0  0
  9 10  1  0  0  0  0
 10 11  2  0  0  0  0
 10 12  1  0  0  0  0
 12 13  1  0  0  0  0
 12 16  1  0  0  0  0
 12 30  1  0  0  0  0
 13 15  1  0  0  0  0
 13 14  1  0  0  0  0
 13 31  1  0  0  0  0
 14 15  1  0  0  0  0
 14 32  1  0  0  0  0
 14 33  1  0  0  0  0
 15 34  1  0  0  0  0
 15 35  1  0  0  0  0
 16 20  1  0  0  0  0
 16 17  1  0  0  0  0
 16 44  1  0  0  0  0
 17 18  1  0  0  0  0
 17 36  1  0  0  0  0
 17 37  1  0  0  0  0
 18 19  1  0  0  0  0
 18 38  1  0  0  0  0
 18 39  1  0  0  0  0
 19 20  1  0  0  0  0
 19 40  1  0  0  0  0
 19 41  1  0  0  0  0
 20 42  1  0  0  0  0
 20 43  1  0  0  0  0
M  CHG  1   5   1
M  CHG  1   9  -1
M  CHG  1  16   1
M  END
> <s_m_source_file>
AV-unprocessed.smi

> <i_m_source_file_index>
2252

> <i_lp_mmshare_version>
43012

> <i_f3d_flags>
0

> <s_epik_input>
W0NIM11uMVtjSF1bY0hdbmMxW0NIMl1bQ0gyXVtOSF1DKD1PKVtDQEhdKFtDSF0yW0NIMl1bQ0gyXTIpTjNbQ0gyXVtDSDJdW0NIMl1bQ0gyXTM=

> <s_epik_cmdline>
J2VwaWtfcHl0aG9uJywgJy1waCcsICc3LjAnLCAnLXRuJywgJzgnLCAnLW1hJywgJzIwMCcsICctbWV0YWxfYmluZGluZycsICctaW1hZScsICc8aW5maWxlLm1hZT4nLCAnLW9tYWUnLCAnPG91dGZpbGUubWFlPic=

> <r_lp_tautomer_probability>
1

> <r_epik_Ionization_Penalty>
5.88052

> <r_epik_Ionization_Penalty_Charging>
5.85424

> <r_epik_Ionization_Penalty_Neutral>
0.026272

> <r_epik_State_Penalty>
5.94961

> <r_epik_Charging_Adjusted_Penalty>
11.8039

> <i_epik_Tot_Q>
1

> <i_epik_Tot_abs_Q>
3

> <r_epik_Metal_State_Penalty>
2.20001

> <b_epik_Metal_Only>
1

> <s_lp_Force_Field>
OPLS_2005

> <r_lp_Energy>
30.4817

> <b_lp_Chiralities_Consistent>
1

> <s_lp_Variant>
AV-unprocessed.smi:2252-8

> <Gold.Version>
5.8.1

> <Gold.Id.Protein>
6NUR|6NUR_protein|mol2

> <Gold.PLP.Fitness>
50.3663

> <Gold.PLP.PLP>
-43.3485

> <Gold.PLP.part.hbond>
-2.0000

> <Gold.PLP.part.metal>
0.0000

> <Gold.PLP.part.buried>
-4.8144

> <Gold.PLP.part.nonpolar>
-36.2959

> <Gold.PLP.part.repulsive>
0.1762

> <Gold.PLP.ligand.clash>
0.0000

> <Gold.PLP.ligand.torsion>
1.5725

> <Gold.PLP.Chemscore.Hbond>
2.9760

> <Gold.PLP.Chemscore.CHOScore>
0.0000

> <Gold.PLP.Chemscore.Metal>
0.0000

> <Gold.Chemscore.Hbonds>
donor molecule, donor type, donor heavy atom, donor atom, acceptor molecule, acceptor atom, score
      L1  H     5    45       P1  8028  1.78
      L1  H    16    44       P1  7957  0.91

> <Gold.PLP.Chemscore.Internal.Correction>
1.2348

> <Gold.Rescore>
     Score         DG    S(hbond)    S(metal)    S(lipo)     H(rot)  DE(clash)    DE(int)     intcor
     16.05     -18.96       1.89        0.00     104.70       1.98       0.12       2.80       ----

> <Gold.Chemscore.Fitness>
16.0476

> <Gold.Chemscore.DG>
-18.9620

> <Gold.Chemscore.ZeroCoef>
-5.4800

> <Gold.Chemscore.Hbond>
1.8873

> <Gold.Chemscore.Metal>
0.0000

> <Gold.Chemscore.Lipo>
104.6965

> <Gold.Chemscore.Internal_Hbond>
0.0000

> <Gold.Chemscore.DEClash>
0.1166

> <Gold.Chemscore.DEInternal>
2.7978

> <Gold.Chemscore.Rot>
1.9809

> <Gold.Chemscore.Internal.Correction>
   9.000000E+99

> <Gold.Chemscore.Hbonds>
donor molecule, donor type, donor heavy atom, donor atom, acceptor molecule, acceptor atom, score
      L1  H     5    45       P1  8028  0.54
      L1  H    16    44       P1  7957  0.85

> <Gold.Chemscore.Hbond.Weighted>
-6.3036

> <Gold.Chemscore.Metal.Weighted>
-0.0000

> <Gold.Chemscore.Lipo.Weighted>
-12.2495

> <Gold.Chemscore.Internal_Hbond.Weighted>
0.0000

> <Gold.Chemscore.DEClash.Weighted>
0.1166

> <Gold.Chemscore.DEInternal.Weighted>
2.7978

> <Gold.Chemscore.Rot.Weighted>
5.0711

> <Gold.Chemscore.Internal.Correction.Weighted>
   9.000000E+99

> <Gold.Protein.RotatedTorsions>
[ 6907 6896 6895 6894 ] final  179.12 input  -60.11 | X-H torsion
[ 7974 7965 7964 7962 ] final  -55.01 input  175.53 | X-H torsion
[ 8008 7997 7996 7995 ] final  -77.10 input   59.86 | X-H torsion
[ 10167 10162 10161 10158 ] final  -18.12 input  -65.29 | X-H torsion
[ 10718 10713 10712 10709 ] final  -99.03 input   66.30 | X-H torsion
[ 10763 10752 10751 10750 ] final -102.67 input  -60.55 | X-H torsion
[ 11005 11000 10999 10996 ] final  132.49 input  -57.11 | X-H torsion

> <Gold.Protein.ActiveResidues>
 VAL166  LYS551  ARG553  GLY616  TRP617  ASP618  TYR619  PRO620  LYS621  CYS622 
 ASP623  PHE694  ASN695  SER759  ASP760  ASP761  ALA762  ILE779  LEU786  VAL792 
 PHE793  MET794  SER795  GLU796  ALA797  LYS798  CYS799  TRP800  GLU811  SER814 

> <Gold.Protein.RotatedAtoms>
  151.6768  133.3312  159.3209 H   0  0  0  0  0  0  0  0  0  0  0  0  # atno 6907 bound_to 6896
  150.7841  134.6815  159.6456 H   0  0  0  0  0  0  0  0  0  0  0  0  # atno 6908 bound_to 6896
  152.3907  134.6450  160.0161 H   0  0  0  0  0  0  0  0  0  0  0  0  # atno 6909 bound_to 6896
  145.8790  140.8159  142.9849 H   0  0  0  0  0  0  0  0  0  0  0  0  # atno 7974 bound_to 7965
  154.5565  140.0716  156.8751 H   0  0  0  0  0  0  0  0  0  0  0  0  # atno 8008 bound_to 7997
  155.2892  140.3377  155.4235 H   0  0  0  0  0  0  0  0  0  0  0  0  # atno 8009 bound_to 7997
  156.2006  140.1720  156.7892 H   0  0  0  0  0  0  0  0  0  0  0  0  # atno 8010 bound_to 7997
  140.7255  143.4948  150.9945 H   0  0  0  0  0  0  0  0  0  0  0  0  # atno 10167 bound_to 10162
  156.0123  130.5264  150.6610 H   0  0  0  0  0  0  0  0  0  0  0  0  # atno 10718 bound_to 10713
  154.7751  135.4852  153.9727 H   0  0  0  0  0  0  0  0  0  0  0  0  # atno 10763 bound_to 10752
  153.1418  135.6774  153.9023 H   0  0  0  0  0  0  0  0  0  0  0  0  # atno 10764 bound_to 10752
  153.8695  135.3145  155.3420 H   0  0  0  0  0  0  0  0  0  0  0  0  # atno 10765 bound_to 10752
  139.9794  134.9553  156.9590 H   0  0  0  0  0  0  0  0  0  0  0  0  # atno 11005 bound_to 11000
  144.6727  140.1355  143.7441 LP  0  0  0  0  0  0  0  0  0  0  0  0  # atno 17320 bound_to 7965
  145.9046  139.2451  143.1473 LP  0  0  0  0  0  0  0  0  0  0  0  0  # atno 17321 bound_to 7965
  139.8654  143.7260  152.3170 LP  0  0  0  0  0  0  0  0  0  0  0  0  # atno 17342 bound_to 10162
  139.7490  144.7539  151.0535 LP  0  0  0  0  0  0  0  0  0  0  0  0  # atno 17343 bound_to 10162
  157.4352  131.0854  151.0999 LP  0  0  0  0  0  0  0  0  0  0  0  0  # atno 17370 bound_to 10713
  157.1559  130.6204  149.5596 LP  0  0  0  0  0  0  0  0  0  0  0  0  # atno 17371 bound_to 10713
  140.5128  134.0985  155.7274 LP  0  0  0  0  0  0  0  0  0  0  0  0  # atno 17394 bound_to 11000
  141.1467  133.9042  157.2197 LP  0  0  0  0  0  0  0  0  0  0  0  0  # atno 17395 bound_to 11000

$$$$
