AV-unprocessed.smi:1080|AV-procd|sdf|4706|dock3
  -GOLD-   22720 3233D 1   1.00000     0.00000
 Structure written by MMmdl.
 48 50  0  0  0  0  0  0  0  0  1 V2000
  151.0266  140.7776  156.0489 O   0  0  0  0  0  0  0  0  0  0  0  0
  150.3211  141.7846  156.0994 C   0  0  0  0  0  0  0  0  0  0  0  0
  150.4408  142.7782  156.9978 N   0  0  0  0  0  0  0  0  0  0  0  0
  151.3653  142.9145  158.0700 C   0  0  0  0  0  0  0  0  0  0  0  0
  151.4941  144.1890  158.6608 C   0  0  0  0  0  0  0  0  0  0  0  0
  152.4096  144.3601  159.7181 C   0  0  0  0  0  0  0  0  0  0  0  0
  153.1830  143.3639  160.1978 N   0  0  0  0  0  0  0  0  0  0  0  0
  153.0678  142.1473  159.6248 C   0  0  0  0  0  0  0  0  0  0  0  0
  152.1845  141.8691  158.5624 C   0  0  0  0  0  0  0  0  0  0  0  0
  149.3060  142.0225  155.2555 N   0  0  0  0  0  0  0  0  0  0  0  0
  148.8742  141.1500  154.1663 C   0  0  2  0  0  0  0  0  0  0  0  0
  147.4449  141.5225  153.7304 C   0  0  0  0  0  0  0  0  0  0  0  0
  146.9183  140.5664  152.6472 C   0  0  0  0  0  0  0  0  0  0  0  0
  146.9757  139.0964  153.1130 C   0  0  1  0  0  0  0  0  0  0  0  0
  146.4421  138.1560  152.0099 C   0  0  0  0  0  0  0  0  0  0  0  0
  146.8361  138.3310  150.8556 O   0  0  0  0  0  0  0  0  0  0  0  0
  145.5885  137.1494  152.3275 N   0  0  0  0  0  0  0  0  0  0  0  0
  145.2299  136.0960  151.3694 C   0  0  0  0  0  0  0  0  0  0  0  0
  146.0534  134.8355  151.6855 C   0  0  0  0  0  0  0  0  0  0  0  0
  145.6796  134.2041  153.3528 S   0  0  0  0  0  0  0  0  0  0  0  0
  145.8380  135.7433  154.3126 C   0  0  0  0  0  0  0  0  0  0  0  0
  145.0329  136.8778  153.6587 C   0  0  0  0  0  0  0  0  0  0  0  0
  148.4200  138.7339  153.5280 C   0  0  0  0  0  0  0  0  0  0  0  0
  148.9415  139.6807  154.6210 C   0  0  0  0  0  0  0  0  0  0  0  0
  149.7467  143.5086  156.9375 H   0  0  0  0  0  0  0  0  0  0  0  0
  150.9006  145.0235  158.3166 H   0  0  0  0  0  0  0  0  0  0  0  0
  152.5237  145.3245  160.1906 H   0  0  0  0  0  0  0  0  0  0  0  0
  153.7038  141.3698  160.0216 H   0  0  0  0  0  0  0  0  0  0  0  0
  152.1653  140.8730  158.1496 H   0  0  0  0  0  0  0  0  0  0  0  0
  148.7836  142.8774  155.3783 H   0  0  0  0  0  0  0  0  0  0  0  0
  149.5338  141.2645  153.3042 H   0  0  0  0  0  0  0  0  0  0  0  0
  146.7755  141.4936  154.5914 H   0  0  0  0  0  0  0  0  0  0  0  0
  147.4237  142.5470  153.3569 H   0  0  0  0  0  0  0  0  0  0  0  0
  145.8953  140.8426  152.3884 H   0  0  0  0  0  0  0  0  0  0  0  0
  147.5084  140.6926  151.7379 H   0  0  0  0  0  0  0  0  0  0  0  0
  146.3762  138.9832  154.0151 H   0  0  0  0  0  0  0  0  0  0  0  0
  144.1632  135.8749  151.4293 H   0  0  0  0  0  0  0  0  0  0  0  0
  145.4025  136.3987  150.3359 H   0  0  0  0  0  0  0  0  0  0  0  0
  145.8423  134.0510  150.9586 H   0  0  0  0  0  0  0  0  0  0  0  0
  147.1201  135.0536  151.6194 H   0  0  0  0  0  0  0  0  0  0  0  0
  145.4838  135.5605  155.3271 H   0  0  0  0  0  0  0  0  0  0  0  0
  146.8922  136.0131  154.3844 H   0  0  0  0  0  0  0  0  0  0  0  0
  145.0116  137.7593  154.2976 H   0  0  0  0  0  0  0  0  0  0  0  0
  143.9866  136.5813  153.5709 H   0  0  0  0  0  0  0  0  0  0  0  0
  148.4595  137.7055  153.8895 H   0  0  0  0  0  0  0  0  0  0  0  0
  149.0907  138.7859  152.6688 H   0  0  0  0  0  0  0  0  0  0  0  0
  149.9682  139.4156  154.8766 H   0  0  0  0  0  0  0  0  0  0  0  0
  148.3518  139.5446  155.5288 H   0  0  0  0  0  0  0  0  0  0  0  0
  1  2  2  0  0  0  0
  2  3  1  0  0  0  0
  2 10  1  0  0  0  0
  3  4  1  0  0  0  0
  3 25  1  0  0  0  0
  4  9  1  0  0  0  0
  4  5  2  0  0  0  0
  5  6  1  0  0  0  0
  5 26  1  0  0  0  0
  6  7  2  0  0  0  0
  6 27  1  0  0  0  0
  7  8  1  0  0  0  0
  8  9  2  0  0  0  0
  8 28  1  0  0  0  0
  9 29  1  0  0  0  0
 10 11  1  0  0  0  0
 10 30  1  0  0  0  0
 11 24  1  0  0  0  0
 11 12  1  0  0  0  0
 11 31  1  0  0  0  0
 12 13  1  0  0  0  0
 12 32  1  0  0  0  0
 12 33  1  0  0  0  0
 13 14  1  0  0  0  0
 13 34  1  0  0  0  0
 13 35  1  0  0  0  0
 14 15  1  0  0  0  0
 14 23  1  0  0  0  0
 14 36  1  0  0  0  0
 15 16  2  0  0  0  0
 15 17  1  0  0  0  0
 17 22  1  0  0  0  0
 17 18  1  0  0  0  0
 18 19  1  0  0  0  0
 18 37  1  0  0  0  0
 18 38  1  0  0  0  0
 19 20  1  0  0  0  0
 19 39  1  0  0  0  0
 19 40  1  0  0  0  0
 20 21  1  0  0  0  0
 21 22  1  0  0  0  0
 21 41  1  0  0  0  0
 21 42  1  0  0  0  0
 22 43  1  0  0  0  0
 22 44  1  0  0  0  0
 23 24  1  0  0  0  0
 23 45  1  0  0  0  0
 23 46  1  0  0  0  0
 24 47  1  0  0  0  0
 24 48  1  0  0  0  0
M  END
> <s_m_source_file>
AV-unprocessed.smi

> <i_m_source_file_index>
1080

> <i_lp_mmshare_version>
43012

> <i_f3d_flags>
0

> <s_epik_input>
W2NIXTFbY0hdbltjSF1bY0hdYzFbTkhdQyg9TylbTkhdW0NAQEhdMltDSDJdW0NIMl1bQ0BIXShbQ0gyXVtDSDJdMilDKD1PKU4zW0NIMl1bQ0gyXVNbQ0gyXVtDSDJdMw==

> <s_epik_cmdline>
J2VwaWtfcHl0aG9uJywgJy1waCcsICc3LjAnLCAnLXRuJywgJzgnLCAnLW1hJywgJzIwMCcsICctbWV0YWxfYmluZGluZycsICctaW1hZScsICc8aW5maWxlLm1hZT4nLCAnLW9tYWUnLCAnPG91dGZpbGUubWFlPic=

> <r_epik_Ionization_Penalty>
0.118325

> <r_epik_Ionization_Penalty_Charging>
0

> <r_epik_Ionization_Penalty_Neutral>
0.118325

> <r_epik_State_Penalty>
0.107868

> <r_epik_Charging_Adjusted_Penalty>
0.107868

> <i_epik_Tot_Q>
0

> <i_epik_Tot_abs_Q>
0

> <r_epik_Metal_State_Penalty>
0.0897632

> <b_epik_Metal_Only>
0

> <s_lp_Force_Field>
OPLS_2005

> <r_lp_Energy>
33.2651

> <b_lp_Chiralities_Consistent>
1

> <s_lp_Variant>
AV-unprocessed.smi:1080-1

> <Gold.Version>
5.8.1

> <Gold.Id.Protein>
6NUR|6NUR_protein|mol2

> <Gold.PLP.Fitness>
51.2465

> <Gold.PLP.PLP>
-44.0743

> <Gold.PLP.part.hbond>
-3.0000

> <Gold.PLP.part.metal>
0.0000

> <Gold.PLP.part.buried>
-2.9596

> <Gold.PLP.part.nonpolar>
-40.4940

> <Gold.PLP.part.repulsive>
0.8532

> <Gold.PLP.ligand.clash>
0.0000

> <Gold.PLP.ligand.torsion>
0.7521

> <Gold.PLP.Chemscore.Hbond>
2.8720

> <Gold.PLP.Chemscore.CHOScore>
0.0000

> <Gold.PLP.Chemscore.Metal>
0.0000

> <Gold.Chemscore.Hbonds>
donor molecule, donor type, donor heavy atom, donor atom, acceptor molecule, acceptor atom, score
      L1  H     3    25       P1  8028  0.85
      L1  H    10    30       P1  8028  0.93
      P1  H  7954  7966       L1    16  1.00

> <Gold.PLP.Chemscore.Internal.Correction>
0.0604

> <Gold.Rescore>
     Score         DG    S(hbond)    S(metal)    S(lipo)     H(rot)  DE(clash)    DE(int)     intcor
     20.74     -25.15       2.92        0.00     111.82       1.23       1.20       3.21       ----

> <Gold.Chemscore.Fitness>
20.7406

> <Gold.Chemscore.DG>
-25.1538

> <Gold.Chemscore.ZeroCoef>
-5.4800

> <Gold.Chemscore.Hbond>
2.9193

> <Gold.Chemscore.Metal>
0.0000

> <Gold.Chemscore.Lipo>
111.8237

> <Gold.Chemscore.Internal_Hbond>
0.0000

> <Gold.Chemscore.DEClash>
1.2029

> <Gold.Chemscore.DEInternal>
3.2103

> <Gold.Chemscore.Rot>
1.2344

> <Gold.Chemscore.Internal.Correction>
   9.000000E+99

> <Gold.Chemscore.Hbonds>
donor molecule, donor type, donor heavy atom, donor atom, acceptor molecule, acceptor atom, score
      L1  H     3    25       P1  8028  0.83
      L1  H    10    30       P1  8028  0.90
      P1  H  7954  7966       L1    16  0.97

> <Gold.Chemscore.Hbond.Weighted>
-9.7504

> <Gold.Chemscore.Metal.Weighted>
-0.0000

> <Gold.Chemscore.Lipo.Weighted>
-13.0834

> <Gold.Chemscore.Internal_Hbond.Weighted>
0.0000

> <Gold.Chemscore.DEClash.Weighted>
1.2029

> <Gold.Chemscore.DEInternal.Weighted>
3.2103

> <Gold.Chemscore.Rot.Weighted>
3.1600

> <Gold.Chemscore.Internal.Correction.Weighted>
   9.000000E+99

> <Gold.Protein.RotatedTorsions>
[ 6907 6896 6895 6894 ] final   81.41 input  -60.11 | X-H torsion
[ 7974 7965 7964 7962 ] final  144.40 input  175.53 | X-H torsion
[ 8008 7997 7996 7995 ] final   62.39 input   59.86 | X-H torsion
[ 10167 10162 10161 10158 ] final  -52.65 input  -65.29 | X-H torsion
[ 10718 10713 10712 10709 ] final   26.62 input   66.30 | X-H torsion
[ 10763 10752 10751 10750 ] final  -38.72 input  -60.55 | X-H torsion
[ 11005 11000 10999 10996 ] final  125.58 input  -57.11 | X-H torsion

> <Gold.Protein.ActiveResidues>
 VAL166  LYS551  ARG553  GLY616  TRP617  ASP618  TYR619  PRO620  LYS621  CYS622 
 ASP623  PHE694  ASN695  SER759  ASP760  ASP761  ALA762  ILE779  LEU786  VAL792 
 PHE793  MET794  SER795  GLU796  ALA797  LYS798  CYS799  TRP800  GLU811  SER814 

> <Gold.Protein.RotatedAtoms>
  152.5267  134.3208  159.9147 H   0  0  0  0  0  0  0  0  0  0  0  0  # atno 6907 bound_to 6896
  151.3157  133.4055  159.2658 H   0  0  0  0  0  0  0  0  0  0  0  0  # atno 6908 bound_to 6896
  151.0001  134.9332  159.8006 H   0  0  0  0  0  0  0  0  0  0  0  0  # atno 6909 bound_to 6896
  144.8839  139.5658  143.5830 H   0  0  0  0  0  0  0  0  0  0  0  0  # atno 7974 bound_to 7965
  155.6135  140.3495  155.4629 H   0  0  0  0  0  0  0  0  0  0  0  0  # atno 8008 bound_to 7997
  156.0135  140.1238  157.0453 H   0  0  0  0  0  0  0  0  0  0  0  0  # atno 8009 bound_to 7997
  154.4289  140.1076  156.5850 H   0  0  0  0  0  0  0  0  0  0  0  0  # atno 8010 bound_to 7997
  140.6526  143.2576  151.4678 H   0  0  0  0  0  0  0  0  0  0  0  0  # atno 10167 bound_to 10162
  157.2093  130.6927  149.6221 H   0  0  0  0  0  0  0  0  0  0  0  0  # atno 10718 bound_to 10713
  153.9175  135.6786  153.4749 H   0  0  0  0  0  0  0  0  0  0  0  0  # atno 10763 bound_to 10752
  153.1046  135.4812  154.8925 H   0  0  0  0  0  0  0  0  0  0  0  0  # atno 10764 bound_to 10752
  154.7495  135.3181  154.8540 H   0  0  0  0  0  0  0  0  0  0  0  0  # atno 10765 bound_to 10752
  139.9413  134.9635  156.8579 H   0  0  0  0  0  0  0  0  0  0  0  0  # atno 11005 bound_to 11000
  146.3012  139.7433  142.9090 LP  0  0  0  0  0  0  0  0  0  0  0  0  # atno 17320 bound_to 7965
  145.3904  141.0371  143.3127 LP  0  0  0  0  0  0  0  0  0  0  0  0  # atno 17321 bound_to 7965
  139.5744  144.1854  152.1882 LP  0  0  0  0  0  0  0  0  0  0  0  0  # atno 17342 bound_to 10162
  140.1160  144.5415  150.6894 LP  0  0  0  0  0  0  0  0  0  0  0  0  # atno 17343 bound_to 10162
  155.9692  130.4556  150.5895 LP  0  0  0  0  0  0  0  0  0  0  0  0  # atno 17370 bound_to 10713
  157.3688  131.0762  151.1575 LP  0  0  0  0  0  0  0  0  0  0  0  0  # atno 17371 bound_to 10713
  140.5944  134.0231  155.7512 LP  0  0  0  0  0  0  0  0  0  0  0  0  # atno 17394 bound_to 11000
  141.1049  133.9710  157.3015 LP  0  0  0  0  0  0  0  0  0  0  0  0  # atno 17395 bound_to 11000

$$$$
