AV-unprocessed.smi:380|AV-procd|sdf|2460|dock5
  -GOLD-   2262022403D 1   1.00000     0.00000
 Structure written by MMmdl.
 39 40  0  0  0  0  0  0  0  0  1 V2000
  147.4270  137.7238  158.2411 C   0  0  0  0  0  0  0  0  0  0  0  0
  148.2422  136.6157  158.9303 C   0  0  0  0  0  0  0  0  0  0  0  0
  147.3758  135.8539  159.9437 C   0  0  0  0  0  0  0  0  0  0  0  0
  149.5210  137.1576  159.6052 C   0  0  0  0  0  0  0  0  0  0  0  0
  150.4159  137.8241  158.6648 N   0  0  0  0  0  0  0  0  0  0  0  0
  151.7219  137.5563  158.5195 C   0  0  0  0  0  0  0  0  0  0  0  0
  152.3159  136.7142  159.1946 O   0  0  0  0  0  0  0  0  0  0  0  0
  152.4589  138.3759  157.4496 C   0  0  0  0  0  0  0  0  0  0  0  0
  151.8554  139.7061  157.2146 N   0  0  0  0  0  0  0  0  0  0  0  0
  151.1424  139.9197  156.0072 C   0  0  0  0  0  0  0  0  0  0  0  0
  151.0266  139.0217  155.1711 O   0  0  0  0  0  0  0  0  0  0  0  0
  150.5726  141.2546  155.8408 C   0  0  0  0  0  0  0  0  0  0  0  0
  149.8104  141.4943  154.6603 C   0  0  0  0  0  0  0  0  0  0  0  0
  149.1764  141.7036  153.7149 N   0  0  0  0  0  0  0  0  0  0  0  0
  150.7622  142.2120  156.7719 C   0  0  0  0  0  0  0  0  0  0  0  0
  151.5062  141.9999  157.9120 N   0  0  0  0  0  0  0  0  0  0  0  0
  151.5799  142.9859  158.9532 C   0  0  0  0  0  0  0  0  0  0  0  0
  152.1972  144.3333  158.6464 C   0  0  0  0  0  0  0  0  0  0  0  0
  152.9200  143.3670  159.5522 C   0  0  0  0  0  0  0  0  0  0  0  0
  152.0353  140.7199  158.1869 C   0  0  0  0  0  0  0  0  0  0  0  0
  152.6350  140.4905  159.2400 O   0  0  0  0  0  0  0  0  0  0  0  0
  147.1229  138.4914  158.9531 H   0  0  0  0  0  0  0  0  0  0  0  0
  146.5241  137.3188  157.7834 H   0  0  0  0  0  0  0  0  0  0  0  0
  147.9983  138.2096  157.4497 H   0  0  0  0  0  0  0  0  0  0  0  0
  148.5394  135.9004  158.1619 H   0  0  0  0  0  0  0  0  0  0  0  0
  147.0337  136.5095  160.7451 H   0  0  0  0  0  0  0  0  0  0  0  0
  147.9328  135.0343  160.3987 H   0  0  0  0  0  0  0  0  0  0  0  0
  146.4950  135.4252  159.4650 H   0  0  0  0  0  0  0  0  0  0  0  0
  149.2548  137.8762  160.3810 H   0  0  0  0  0  0  0  0  0  0  0  0
  150.0574  136.3508  160.1080 H   0  0  0  0  0  0  0  0  0  0  0  0
  150.0083  138.5330  158.0724 H   0  0  0  0  0  0  0  0  0  0  0  0
  153.5064  138.4769  157.7394 H   0  0  0  0  0  0  0  0  0  0  0  0
  152.4959  137.7846  156.5336 H   0  0  0  0  0  0  0  0  0  0  0  0
  150.3220  143.1866  156.6163 H   0  0  0  0  0  0  0  0  0  0  0  0
  150.7349  142.9987  159.6392 H   0  0  0  0  0  0  0  0  0  0  0  0
  152.6165  144.4927  157.6547 H   0  0  0  0  0  0  0  0  0  0  0  0
  151.7436  145.2090  159.1059 H   0  0  0  0  0  0  0  0  0  0  0  0
  152.9458  143.5957  160.6155 H   0  0  0  0  0  0  0  0  0  0  0  0
  153.8158  142.8920  159.1563 H   0  0  0  0  0  0  0  0  0  0  0  0
  1  2  1  0  0  0  0
  1 22  1  0  0  0  0
  1 23  1  0  0  0  0
  1 24  1  0  0  0  0
  2  3  1  0  0  0  0
  2  4  1  0  0  0  0
  2 25  1  0  0  0  0
  3 26  1  0  0  0  0
  3 27  1  0  0  0  0
  3 28  1  0  0  0  0
  4  5  1  0  0  0  0
  4 29  1  0  0  0  0
  4 30  1  0  0  0  0
  5  6  1  0  0  0  0
  5 31  1  0  0  0  0
  6  7  2  0  0  0  0
  6  8  1  0  0  0  0
  8  9  1  0  0  0  0
  8 32  1  0  0  0  0
  8 33  1  0  0  0  0
  9 20  1  0  0  0  0
  9 10  1  0  0  0  0
 10 11  2  0  0  0  0
 10 12  1  0  0  0  0
 12 13  1  0  0  0  0
 12 15  2  0  0  0  0
 13 14  3  0  0  0  0
 15 16  1  0  0  0  0
 15 34  1  0  0  0  0
 16 17  1  0  0  0  0
 16 20  1  0  0  0  0
 17 19  1  0  0  0  0
 17 18  1  0  0  0  0
 17 35  1  0  0  0  0
 18 19  1  0  0  0  0
 18 36  1  0  0  0  0
 18 37  1  0  0  0  0
 19 38  1  0  0  0  0
 19 39  1  0  0  0  0
 20 21  2  0  0  0  0
M  END
> <s_m_source_file>
AV-unprocessed.smi

> <i_m_source_file_index>
380

> <i_lp_mmshare_version>
43012

> <i_f3d_flags>
0

> <s_epik_input>
W0NIM11bQ0hdKFtDSDNdKVtDSDJdW05IXUMoPU8pW0NIMl1uMWMoPU8pYyhDI04pW2NIXW4oYzE9TylbQ0hdMltDSDJdW0NIMl0y

> <s_epik_cmdline>
J2VwaWtfcHl0aG9uJywgJy1waCcsICc3LjAnLCAnLXRuJywgJzgnLCAnLW1hJywgJzIwMCcsICctbWV0YWxfYmluZGluZycsICctaW1hZScsICc8aW5maWxlLm1hZT4nLCAnLW9tYWUnLCAnPG91dGZpbGUubWFlPic=

> <r_lp_tautomer_probability>
1

> <r_epik_Ionization_Penalty>
1.93825e-08

> <r_epik_Ionization_Penalty_Charging>
8.0817e-11

> <r_epik_Ionization_Penalty_Neutral>
1.93017e-08

> <r_epik_State_Penalty>
-0

> <r_epik_Charging_Adjusted_Penalty>
8.0817e-11

> <i_epik_Tot_Q>
0

> <i_epik_Tot_abs_Q>
0

> <r_epik_Metal_State_Penalty>
-0

> <b_epik_Metal_Only>
0

> <s_lp_Force_Field>
OPLS_2005

> <r_lp_Energy>
29.2237

> <b_lp_Chiralities_Consistent>
1

> <s_lp_Variant>
AV-unprocessed.smi:380-1

> <Gold.Version>
5.8.1

> <Gold.Id.Protein>
6NUR|6NUR_protein|mol2

> <Gold.PLP.Fitness>
43.3402

> <Gold.PLP.PLP>
-36.2643

> <Gold.PLP.part.hbond>
-2.7515

> <Gold.PLP.part.metal>
0.0000

> <Gold.PLP.part.buried>
-3.5961

> <Gold.PLP.part.nonpolar>
-31.2213

> <Gold.PLP.part.repulsive>
0.6245

> <Gold.PLP.ligand.clash>
0.0000

> <Gold.PLP.ligand.torsion>
0.6646

> <Gold.PLP.Chemscore.Hbond>
1.7200

> <Gold.PLP.Chemscore.CHOScore>
1.0000

> <Gold.PLP.Chemscore.Metal>
0.0000

> <Gold.Chemscore.Hbonds>
donor molecule, donor type, donor heavy atom, donor atom, acceptor molecule, acceptor atom, score
      P1  H  6896  6908       L1     7  0.98
      P1  H  8011  8017       L1    14  0.66
      L1  C    15    34       P1  8028  1.00

> <Gold.PLP.Chemscore.Internal.Correction>
0.2452

> <Gold.Rescore>
     Score         DG    S(hbond)    S(metal)    S(lipo)     H(rot)  DE(clash)    DE(int)     intcor
     12.74     -14.36       1.72        0.00      70.41       1.99       0.30       1.32       ----

> <Gold.Chemscore.Fitness>
12.7350

> <Gold.Chemscore.DG>
-14.3552

> <Gold.Chemscore.ZeroCoef>
-5.4800

> <Gold.Chemscore.Hbond>
1.7183

> <Gold.Chemscore.Metal>
0.0000

> <Gold.Chemscore.Lipo>
70.4113

> <Gold.Chemscore.Internal_Hbond>
0.0000

> <Gold.Chemscore.DEClash>
0.3045

> <Gold.Chemscore.DEInternal>
1.3157

> <Gold.Chemscore.Rot>
1.9930

> <Gold.Chemscore.Internal.Correction>
   9.000000E+99

> <Gold.Chemscore.Hbonds>
donor molecule, donor type, donor heavy atom, donor atom, acceptor molecule, acceptor atom, score
      P1  H  6896  6908       L1     7  0.93
      P1  H  8011  8017       L1    14  0.65

> <Gold.Chemscore.Hbond.Weighted>
-5.7391

> <Gold.Chemscore.Metal.Weighted>
-0.0000

> <Gold.Chemscore.Lipo.Weighted>
-8.2381

> <Gold.Chemscore.Internal_Hbond.Weighted>
0.0000

> <Gold.Chemscore.DEClash.Weighted>
0.3045

> <Gold.Chemscore.DEInternal.Weighted>
1.3157

> <Gold.Chemscore.Rot.Weighted>
5.1020

> <Gold.Chemscore.Internal.Correction.Weighted>
   9.000000E+99

> <Gold.Protein.RotatedTorsions>
[ 6907 6896 6895 6894 ] final -103.04 input  -60.11 | X-H torsion
[ 7974 7965 7964 7962 ] final  -89.20 input  175.53 | X-H torsion
[ 8008 7997 7996 7995 ] final   80.57 input   59.86 | X-H torsion
[ 10167 10162 10161 10158 ] final  -91.36 input  -65.29 | X-H torsion
[ 10718 10713 10712 10709 ] final  -59.99 input   66.30 | X-H torsion
[ 10763 10752 10751 10750 ] final   96.09 input  -60.55 | X-H torsion
[ 11005 11000 10999 10996 ] final  -90.14 input  -57.11 | X-H torsion

> <Gold.Protein.ActiveResidues>
 VAL166  LYS551  ARG553  GLY616  TRP617  ASP618  TYR619  PRO620  LYS621  CYS622 
 ASP623  PHE694  ASN695  SER759  ASP760  ASP761  ALA762  ILE779  LEU786  VAL792 
 PHE793  MET794  SER795  GLU796  ALA797  LYS798  CYS799  TRP800  GLU811  SER814 

> <Gold.Protein.RotatedAtoms>
  150.7222  134.0489  159.3791 H   0  0  0  0  0  0  0  0  0  0  0  0  # atno 6907 bound_to 6896
  151.8466  135.0570  160.0463 H   0  0  0  0  0  0  0  0  0  0  0  0  # atno 6908 bound_to 6896
  152.2822  133.5445  159.5541 H   0  0  0  0  0  0  0  0  0  0  0  0  # atno 6909 bound_to 6896
  145.4430  140.9559  143.2065 H   0  0  0  0  0  0  0  0  0  0  0  0  # atno 7974 bound_to 7965
  155.8854  140.3442  155.5917 H   0  0  0  0  0  0  0  0  0  0  0  0  # atno 8008 bound_to 7997
  155.7672  140.0840  157.2145 H   0  0  0  0  0  0  0  0  0  0  0  0  # atno 8009 bound_to 7997
  154.4028  140.1525  156.2888 H   0  0  0  0  0  0  0  0  0  0  0  0  # atno 8010 bound_to 7997
  140.3456  143.2918  151.9785 H   0  0  0  0  0  0  0  0  0  0  0  0  # atno 10167 bound_to 10162
  156.1022  130.4185  150.0792 H   0  0  0  0  0  0  0  0  0  0  0  0  # atno 10718 bound_to 10713
  153.2608  135.4231  155.0892 H   0  0  0  0  0  0  0  0  0  0  0  0  # atno 10763 bound_to 10752
  154.8419  135.3448  154.6380 H   0  0  0  0  0  0  0  0  0  0  0  0  # atno 10764 bound_to 10752
  153.6800  135.7039  153.5178 H   0  0  0  0  0  0  0  0  0  0  0  0  # atno 10765 bound_to 10752
  141.1571  133.7674  156.9696 H   0  0  0  0  0  0  0  0  0  0  0  0  # atno 11005 bound_to 11000
  144.8110  139.5963  143.7029 LP  0  0  0  0  0  0  0  0  0  0  0  0  # atno 17320 bound_to 7965
  146.2546  139.6274  142.9404 LP  0  0  0  0  0  0  0  0  0  0  0  0  # atno 17321 bound_to 7965
  139.4834  144.6120  151.7417 LP  0  0  0  0  0  0  0  0  0  0  0  0  # atno 17342 bound_to 10162
  140.5267  144.0794  150.6040 LP  0  0  0  0  0  0  0  0  0  0  0  0  # atno 17343 bound_to 10162
  156.8777  130.9546  151.3603 LP  0  0  0  0  0  0  0  0  0  0  0  0  # atno 17370 bound_to 10713
  157.6194  130.8643  149.9082 LP  0  0  0  0  0  0  0  0  0  0  0  0  # atno 17371 bound_to 10713
  140.1138  134.9460  157.2105 LP  0  0  0  0  0  0  0  0  0  0  0  0  # atno 17394 bound_to 11000
  140.3159  134.2971  155.7256 LP  0  0  0  0  0  0  0  0  0  0  0  0  # atno 17395 bound_to 11000

$$$$
