AV-unprocessed.smi:3222|AV-procd|sdf|12303|dock10
  -GOLD-   2272018143D 1   1.00000     0.00000
 Structure written by MMmdl.
 41 42  0  0  0  0  0  0  0  0  2 V2000
  145.3645  134.9475  154.1616 C   0  0  0  0  0  0  0  0  0  0  0  0
  146.2296  135.2311  152.9181 C   0  0  2  0  0  0  0  0  0  0  0  0
  146.9718  136.5017  153.0988 N   0  3  0  0  0  0  0  0  0  0  0  0
  147.3447  136.8284  154.4903 C   0  0  0  0  0  0  0  0  0  0  0  0
  148.6753  137.5956  154.5306 C   0  0  0  0  0  0  0  0  0  0  0  0
  148.4652  139.0407  154.5227 N   0  0  0  0  0  0  0  0  0  0  0  0
  147.1272  139.5971  154.4144 C   0  0  0  0  0  0  0  0  0  0  0  0
  147.3348  141.1116  154.2682 C   0  0  0  0  0  0  0  0  0  0  0  0
  148.8006  141.3713  154.6340 C   0  0  0  0  0  0  0  0  0  0  0  0
  149.4084  139.9795  154.6636 C   0  0  0  0  0  0  0  0  0  0  0  0
  150.6141  139.7787  154.8020 O   0  0  0  0  0  0  0  0  0  0  0  0
  145.3921  135.2942  151.6134 C   0  0  2  0  0  0  0  0  0  0  0  0
  143.9476  135.7840  151.8297 C   0  0  0  0  0  0  0  0  0  0  0  0
  145.3782  133.9976  150.9436 N   0  0  0  0  0  0  0  0  0  0  0  0
  144.2980  133.2018  150.6151 C   0  0  0  0  0  0  0  0  0  0  0  0
  144.7874  132.0675  150.0338 C   0  0  0  0  0  0  0  0  0  0  0  0
  146.1971  132.2561  150.0586 C   0  0  0  0  0  0  0  0  0  0  0  0
  146.5471  133.4055  150.6128 N   0  0  0  0  0  0  0  0  0  0  0  0
  144.8768  133.9751  154.0990 H   0  0  0  0  0  0  0  0  0  0  0  0
  144.5879  135.7031  154.2848 H   0  0  0  0  0  0  0  0  0  0  0  0
  145.9593  134.9340  155.0745 H   0  0  0  0  0  0  0  0  0  0  0  0
  146.9569  134.4245  152.8106 H   0  0  0  0  0  0  0  0  0  0  0  0
  147.8304  136.4238  152.5715 H   0  0  0  0  0  0  0  0  0  0  0  0
  146.5550  137.4216  154.9509 H   0  0  0  0  0  0  0  0  0  0  0  0
  147.4340  135.9060  155.0660 H   0  0  0  0  0  0  0  0  0  0  0  0
  149.2381  137.3176  155.4230 H   0  0  0  0  0  0  0  0  0  0  0  0
  149.2962  137.3198  153.6765 H   0  0  0  0  0  0  0  0  0  0  0  0
  146.5914  139.1792  153.5612 H   0  0  0  0  0  0  0  0  0  0  0  0
  146.5646  139.3648  155.3195 H   0  0  0  0  0  0  0  0  0  0  0  0
  147.1498  141.4179  153.2378 H   0  0  0  0  0  0  0  0  0  0  0  0
  146.6509  141.6748  154.9043 H   0  0  0  0  0  0  0  0  0  0  0  0
  149.3001  142.0091  153.9040 H   0  0  0  0  0  0  0  0  0  0  0  0
  148.8907  141.8291  155.6197 H   0  0  0  0  0  0  0  0  0  0  0  0
  145.8708  136.0060  150.9378 H   0  0  0  0  0  0  0  0  0  0  0  0
  143.9189  136.8237  152.1545 H   0  0  0  0  0  0  0  0  0  0  0  0
  143.4277  135.1861  152.5788 H   0  0  0  0  0  0  0  0  0  0  0  0
  143.3744  135.7277  150.9034 H   0  0  0  0  0  0  0  0  0  0  0  0
  143.2812  133.5041  150.8186 H   0  0  0  0  0  0  0  0  0  0  0  0
  144.2244  131.2295  149.6503 H   0  0  0  0  0  0  0  0  0  0  0  0
  146.9709  131.5947  149.6978 H   0  0  0  0  0  0  0  0  0  0  0  0
  146.4288  137.2586  152.7082 H   0  0  0  0  0  0  0  0  0  0  0  0
  1  2  1  0  0  0  0
  1 19  1  0  0  0  0
  1 20  1  0  0  0  0
  1 21  1  0  0  0  0
  2  3  1  0  0  0  0
  2 12  1  0  0  0  0
  2 22  1  0  0  0  0
  3  4  1  0  0  0  0
  3 23  1  0  0  0  0
  3 41  1  0  0  0  0
  4  5  1  0  0  0  0
  4 24  1  0  0  0  0
  4 25  1  0  0  0  0
  5  6  1  0  0  0  0
  5 26  1  0  0  0  0
  5 27  1  0  0  0  0
  6 10  1  0  0  0  0
  6  7  1  0  0  0  0
  7  8  1  0  0  0  0
  7 28  1  0  0  0  0
  7 29  1  0  0  0  0
  8  9  1  0  0  0  0
  8 30  1  0  0  0  0
  8 31  1  0  0  0  0
  9 10  1  0  0  0  0
  9 32  1  0  0  0  0
  9 33  1  0  0  0  0
 10 11  2  0  0  0  0
 12 13  1  0  0  0  0
 12 14  1  0  0  0  0
 12 34  1  0  0  0  0
 13 35  1  0  0  0  0
 13 36  1  0  0  0  0
 13 37  1  0  0  0  0
 14 18  1  0  0  0  0
 14 15  1  0  0  0  0
 15 16  2  0  0  0  0
 15 38  1  0  0  0  0
 16 17  1  0  0  0  0
 16 39  1  0  0  0  0
 17 18  2  0  0  0  0
 17 40  1  0  0  0  0
M  CHG  1   3   1
M  END
> <s_m_source_file>
AV-unprocessed.smi

> <i_m_source_file_index>
3222

> <i_lp_mmshare_version>
43012

> <i_f3d_flags>
0

> <s_epik_input>
bjFbY0hdW2NIXVtjSF1uMVtDQEBIXShbQ0gzXSlbQ0BIXShbQ0gzXSlbTkhdW0NIMl1bQ0gyXU4yW0NIMl1bQ0gyXVtDSDJdQzI9Tw==

> <s_epik_cmdline>
J2VwaWtfcHl0aG9uJywgJy1waCcsICc3LjAnLCAnLXRuJywgJzgnLCAnLW1hJywgJzIwMCcsICctbWV0YWxfYmluZGluZycsICctaW1hZScsICc8aW5maWxlLm1hZT4nLCAnLW9tYWUnLCAnPG91dGZpbGUubWFlPic=

> <r_lp_tautomer_probability>
1

> <r_epik_Ionization_Penalty>
0.0064019

> <r_epik_Ionization_Penalty_Charging>
0.00639164

> <r_epik_Ionization_Penalty_Neutral>
1.02567e-05

> <r_epik_State_Penalty>
0.00472531

> <r_epik_Charging_Adjusted_Penalty>
0.011117

> <i_epik_Tot_Q>
1

> <i_epik_Tot_abs_Q>
1

> <r_epik_Metal_State_Penalty>
-0

> <b_epik_Metal_Only>
0

> <s_lp_Force_Field>
OPLS_2005

> <r_lp_Energy>
24.5342

> <b_lp_Chiralities_Consistent>
1

> <s_lp_Variant>
AV-unprocessed.smi:3222-1

> <Gold.Version>
5.8.1

> <Gold.Id.Protein>
6NUR|6NUR_protein|mol2

> <Gold.PLP.Fitness>
42.4812

> <Gold.PLP.PLP>
-30.6880

> <Gold.PLP.part.hbond>
-2.0000

> <Gold.PLP.part.metal>
0.0000

> <Gold.PLP.part.buried>
-2.6681

> <Gold.PLP.part.nonpolar>
-25.9329

> <Gold.PLP.part.repulsive>
0.3065

> <Gold.PLP.ligand.clash>
0.0000

> <Gold.PLP.ligand.torsion>
1.6739

> <Gold.PLP.Chemscore.Hbond>
3.0000

> <Gold.PLP.Chemscore.CHOScore>
2.0000

> <Gold.PLP.Chemscore.Metal>
0.0000

> <Gold.Chemscore.Hbonds>
donor molecule, donor type, donor heavy atom, donor atom, acceptor molecule, acceptor atom, score
      L1  H     3    23       P1  7948  1.04
      P1  H  7989  7998       L1    11  1.00
      L1  C    15    38       P1 10186  0.43
      L1  C    17    40       P1 10747  1.00

> <Gold.PLP.Chemscore.Internal.Correction>
0.1410

> <Gold.Rescore>
     Score         DG    S(hbond)    S(metal)    S(lipo)     H(rot)  DE(clash)    DE(int)     intcor
     13.01     -14.43       1.97        0.00      63.75       1.99       0.09       1.33       ----

> <Gold.Chemscore.Fitness>
13.0072

> <Gold.Chemscore.DG>
-14.4328

> <Gold.Chemscore.ZeroCoef>
-5.4800

> <Gold.Chemscore.Hbond>
1.9742

> <Gold.Chemscore.Metal>
0.0000

> <Gold.Chemscore.Lipo>
63.7525

> <Gold.Chemscore.Internal_Hbond>
0.0000

> <Gold.Chemscore.DEClash>
0.0912

> <Gold.Chemscore.DEInternal>
1.3344

> <Gold.Chemscore.Rot>
1.9922

> <Gold.Chemscore.Internal.Correction>
   9.000000E+99

> <Gold.Chemscore.Hbonds>
donor molecule, donor type, donor heavy atom, donor atom, acceptor molecule, acceptor atom, score
      L1  H     3    23       P1  7948  0.52
      P1  H  7989  7998       L1    11  0.72

> <Gold.Chemscore.Hbond.Weighted>
-6.5939

> <Gold.Chemscore.Metal.Weighted>
-0.0000

> <Gold.Chemscore.Lipo.Weighted>
-7.4590

> <Gold.Chemscore.Internal_Hbond.Weighted>
0.0000

> <Gold.Chemscore.DEClash.Weighted>
0.0912

> <Gold.Chemscore.DEInternal.Weighted>
1.3344

> <Gold.Chemscore.Rot.Weighted>
5.1002

> <Gold.Chemscore.Internal.Correction.Weighted>
   9.000000E+99

> <Gold.Protein.RotatedTorsions>
[ 6907 6896 6895 6894 ] final  166.83 input  -60.11 | X-H torsion
[ 7974 7965 7964 7962 ] final  124.16 input  175.53 | X-H torsion
[ 8008 7997 7996 7995 ] final  103.43 input   59.86 | X-H torsion
[ 10167 10162 10161 10158 ] final  -94.10 input  -65.29 | X-H torsion
[ 10718 10713 10712 10709 ] final  166.98 input   66.30 | X-H torsion
[ 10763 10752 10751 10750 ] final  -30.14 input  -60.55 | X-H torsion
[ 11005 11000 10999 10996 ] final  176.89 input  -57.11 | X-H torsion

> <Gold.Protein.ActiveResidues>
 VAL166  LYS551  ARG553  GLY616  TRP617  ASP618  TYR619  PRO620  LYS621  CYS622 
 ASP623  PHE694  ASN695  SER759  ASP760  ASP761  ALA762  ILE779  LEU786  VAL792 
 PHE793  MET794  SER795  GLU796  ALA797  LYS798  CYS799  TRP800  GLU811  SER814 

> <Gold.Protein.RotatedAtoms>
  151.8729  133.3479  159.3740 H   0  0  0  0  0  0  0  0  0  0  0  0  # atno 6907 bound_to 6896
  150.7148  134.5095  159.5610 H   0  0  0  0  0  0  0  0  0  0  0  0  # atno 6908 bound_to 6896
  152.2631  134.8013  160.0478 H   0  0  0  0  0  0  0  0  0  0  0  0  # atno 6909 bound_to 6896
  145.0876  139.3610  143.4877 H   0  0  0  0  0  0  0  0  0  0  0  0  # atno 7974 bound_to 7965
  156.1483  140.3165  155.8607 H   0  0  0  0  0  0  0  0  0  0  0  0  # atno 8008 bound_to 7997
  155.4020  140.0500  157.3053 H   0  0  0  0  0  0  0  0  0  0  0  0  # atno 8009 bound_to 7997
  154.5036  140.2138  155.9308 H   0  0  0  0  0  0  0  0  0  0  0  0  # atno 8010 bound_to 7997
  140.3179  143.3066  152.0078 H   0  0  0  0  0  0  0  0  0  0  0  0  # atno 10167 bound_to 10162
  157.0581  131.0332  151.2657 H   0  0  0  0  0  0  0  0  0  0  0  0  # atno 10718 bound_to 10713
  153.7761  135.6908  153.4897 H   0  0  0  0  0  0  0  0  0  0  0  0  # atno 10763 bound_to 10752
  153.1842  135.4495  155.0066 H   0  0  0  0  0  0  0  0  0  0  0  0  # atno 10764 bound_to 10752
  154.8099  135.3373  154.7267 H   0  0  0  0  0  0  0  0  0  0  0  0  # atno 10765 bound_to 10752
  140.3781  134.6971  157.4434 H   0  0  0  0  0  0  0  0  0  0  0  0  # atno 11005 bound_to 11000
  146.3531  140.0695  142.8624 LP  0  0  0  0  0  0  0  0  0  0  0  0  # atno 17320 bound_to 7965
  145.1104  140.9401  143.4660 LP  0  0  0  0  0  0  0  0  0  0  0  0  # atno 17321 bound_to 7965
  139.4880  144.6334  151.7025 LP  0  0  0  0  0  0  0  0  0  0  0  0  # atno 17342 bound_to 10162
  140.5510  144.0426  150.6127 LP  0  0  0  0  0  0  0  0  0  0  0  0  # atno 17343 bound_to 10162
  157.4976  130.7860  149.7572 LP  0  0  0  0  0  0  0  0  0  0  0  0  # atno 17370 bound_to 10713
  155.9987  130.3893  150.2693 LP  0  0  0  0  0  0  0  0  0  0  0  0  # atno 17371 bound_to 10713
  140.0500  134.6145  155.8874 LP  0  0  0  0  0  0  0  0  0  0  0  0  # atno 17394 bound_to 11000
  141.1932  133.6578  156.5539 LP  0  0  0  0  0  0  0  0  0  0  0  0  # atno 17395 bound_to 11000

$$$$
