AV-unprocessed.smi:72|AV-procd|sdf|666|dock3
  -GOLD-   2262016563D 1   1.00000     0.00000
 Structure written by MMmdl.
 29 30  0  0  0  0  0  0  0  0  1 V2000
  144.4408  132.7098  152.0110 N   0  0  0  0  0  0  0  0  0  0  0  0
  144.8485  133.8502  152.4414 C   0  0  0  0  0  0  0  0  0  0  0  0
  145.8864  134.6059  151.8754 N   0  0  0  0  0  0  0  0  0  0  0  0
  146.1969  135.7415  152.4206 C   0  0  0  0  0  0  0  0  0  0  0  0
  145.5116  136.2498  153.5989 N   0  0  0  0  0  0  0  0  0  0  0  0
  145.8994  137.5789  154.2131 C   0  0  1  0  0  0  0  0  0  0  0  0
  147.2282  137.5082  154.6388 O   0  0  0  0  0  0  0  0  0  0  0  0
  147.8882  138.7290  154.3279 C   0  0  1  0  0  0  0  0  0  0  0  0
  149.4155  138.5414  154.3123 C   0  0  0  0  0  0  0  0  0  0  0  0
  150.0451  139.6928  153.7917 O   0  0  0  0  0  0  0  0  0  0  0  0
  147.2265  139.1887  153.0200 C   0  0  1  0  0  0  0  0  0  0  0  0
  147.8217  138.5636  151.8953 O   0  0  0  0  0  0  0  0  0  0  0  0
  145.7750  138.7652  153.2313 C   0  0  1  0  0  0  0  0  0  0  0  0
  145.0801  138.4995  152.0240 O   0  0  0  0  0  0  0  0  0  0  0  0
  144.4509  135.5072  154.1731 C   0  0  0  0  0  0  0  0  0  0  0  0
  143.8194  135.8998  155.1539 O   0  0  0  0  0  0  0  0  0  0  0  0
  144.1683  134.3332  153.5678 N   0  0  0  0  0  0  0  0  0  0  0  0
  145.2748  137.7072  155.0978 H   0  0  0  0  0  0  0  0  0  0  0  0
  147.6255  139.4367  155.1168 H   0  0  0  0  0  0  0  0  0  0  0  0
  147.3125  140.2675  152.8864 H   0  0  0  0  0  0  0  0  0  0  0  0
  145.2493  139.5618  153.7597 H   0  0  0  0  0  0  0  0  0  0  0  0
  143.6836  132.3649  152.5826 H   0  0  0  0  0  0  0  0  0  0  0  0
  146.9867  136.3859  152.0330 H   0  0  0  0  0  0  0  0  0  0  0  0
  149.7788  138.3814  155.3277 H   0  0  0  0  0  0  0  0  0  0  0  0
  149.7081  137.6664  153.7314 H   0  0  0  0  0  0  0  0  0  0  0  0
  149.8342  139.7607  152.8730 H   0  0  0  0  0  0  0  0  0  0  0  0
  148.2710  137.7858  152.1895 H   0  0  0  0  0  0  0  0  0  0  0  0
  144.7298  139.3129  151.6946 H   0  0  0  0  0  0  0  0  0  0  0  0
  143.4174  133.7804  153.9542 H   0  0  0  0  0  0  0  0  0  0  0  0
  1  2  2  0  0  0  0
  1 22  1  0  0  0  0
  2 17  1  0  0  0  0
  2  3  1  0  0  0  0
  3  4  2  0  0  0  0
  4  5  1  0  0  0  0
  4 23  1  0  0  0  0
  5  6  1  0  0  0  0
  5 15  1  0  0  0  0
  6 18  1  0  0  0  0
  6 13  1  0  0  0  0
  6  7  1  0  0  0  0
  7  8  1  0  0  0  0
  8 19  1  0  0  0  0
  8  9  1  0  0  0  0
  8 11  1  0  0  0  0
  9 10  1  0  0  0  0
  9 24  1  0  0  0  0
  9 25  1  0  0  0  0
 10 26  1  0  0  0  0
 11 20  1  0  0  0  0
 11 12  1  0  0  0  0
 11 13  1  0  0  0  0
 12 27  1  0  0  0  0
 13 21  1  0  0  0  0
 13 14  1  0  0  0  0
 14 28  1  0  0  0  0
 15 16  2  0  0  0  0
 15 17  1  0  0  0  0
 17 29  1  0  0  0  0
M  END
> <s_m_source_file>
AV-unprocessed.smi

> <i_m_source_file_index>
72

> <i_lp_mmshare_version>
43012

> <i_f3d_flags>
0

> <s_epik_input>
W05IMl1jMW5bY0hdbihjKD1PKW4xKVtDQEBIXTJPW0NASF0oW0NIMl1bT0hdKVtDQEBIXShbT0hdKVtDQEhdMltPSF0=

> <s_epik_cmdline>
J2VwaWtfcHl0aG9uJywgJy1waCcsICc3LjAnLCAnLXRuJywgJzgnLCAnLW1hJywgJzIwMCcsICctbWV0YWxfYmluZGluZycsICctaW1hZScsICc8aW5maWxlLm1hZT4nLCAnLW9tYWUnLCAnPG91dGZpbGUubWFlPic=

> <r_lp_tautomer_probability>
7.17554e-07

> <r_epik_Ionization_Penalty>
0.0066451

> <r_epik_Ionization_Penalty_Charging>
0.00663793

> <r_epik_Ionization_Penalty_Neutral>
7.17052e-06

> <r_epik_State_Penalty>
0.419231

> <r_epik_Charging_Adjusted_Penalty>
0.425868

> <i_epik_Tot_Q>
0

> <i_epik_Tot_abs_Q>
0

> <r_epik_Metal_State_Penalty>
1.44144

> <b_epik_Metal_Only>
0

> <s_epik_Chemistry_Notes>
This compound contains an acetal/aminal-like group ( X-CH(R)-Y where X, Y are N, S, or O) that may be acid/base labile, releasing an aldehyde.

> <s_lp_Force_Field>
OPLS_2005

> <r_lp_Energy>
49.4218

> <b_lp_Chiralities_Consistent>
1

> <s_lp_Variant>
AV-unprocessed.smi:72-4

> <Gold.Version>
5.8.1

> <Gold.Id.Protein>
6NUR|6NUR_protein|mol2

> <Gold.PLP.Fitness>
32.5012

> <Gold.PLP.PLP>
-14.8628

> <Gold.PLP.part.hbond>
-7.9328

> <Gold.PLP.part.metal>
0.0000

> <Gold.PLP.part.buried>
0.2678

> <Gold.PLP.part.nonpolar>
-7.9428

> <Gold.PLP.part.repulsive>
0.2366

> <Gold.PLP.ligand.clash>
0.0000

> <Gold.PLP.ligand.torsion>
0.0459

> <Gold.PLP.Chemscore.Hbond>
4.9096

> <Gold.PLP.Chemscore.CHOScore>
1.0000

> <Gold.PLP.Chemscore.Metal>
0.0000

> <Gold.Chemscore.Hbonds>
donor molecule, donor type, donor heavy atom, donor atom, acceptor molecule, acceptor atom, score
      L1  H    10    26       P1  7957  1.00
      L1  H    12    27       P1  7948  0.98
      L1  H    14    28       P1 10175  0.62
      L1  H    17    29       P1 10957  0.31
      P1  H  7954  7966       L1    12  0.24
      P1  H  7989  7998       L1    10  0.36
      L1  C     4    23       P1  7948  0.82

> <Gold.PLP.Chemscore.Internal.Correction>
0.0014

> <Gold.Rescore>
     Score         DG    S(hbond)    S(metal)    S(lipo)     H(rot)  DE(clash)    DE(int)     intcor
      9.40     -10.75       3.97        0.00      20.63       4.06       1.28       0.07       ----

> <Gold.Chemscore.Fitness>
9.3979

> <Gold.Chemscore.DG>
-10.7468

> <Gold.Chemscore.ZeroCoef>
-5.4800

> <Gold.Chemscore.Hbond>
3.9659

> <Gold.Chemscore.Metal>
0.0000

> <Gold.Chemscore.Lipo>
20.6342

> <Gold.Chemscore.Internal_Hbond>
0.0000

> <Gold.Chemscore.DEClash>
1.2834

> <Gold.Chemscore.DEInternal>
0.0655

> <Gold.Chemscore.Rot>
4.0600

> <Gold.Chemscore.Internal.Correction>
   9.000000E+99

> <Gold.Chemscore.Hbonds>
donor molecule, donor type, donor heavy atom, donor atom, acceptor molecule, acceptor atom, score
      L1  H    10    26       P1  7957  1.00
      L1  H    12    27       P1  7948  0.93
      L1  H    14    28       P1 10175  0.56
      L1  H    17    29       P1 10957  0.29
      P1  H  7989  7998       L1    10  0.01

> <Gold.Chemscore.Hbond.Weighted>
-13.2462

> <Gold.Chemscore.Metal.Weighted>
-0.0000

> <Gold.Chemscore.Lipo.Weighted>
-2.4142

> <Gold.Chemscore.Internal_Hbond.Weighted>
0.0000

> <Gold.Chemscore.DEClash.Weighted>
1.2834

> <Gold.Chemscore.DEInternal.Weighted>
0.0655

> <Gold.Chemscore.Rot.Weighted>
10.3936

> <Gold.Chemscore.Internal.Correction.Weighted>
   9.000000E+99

> <Gold.Protein.RotatedTorsions>
[ 6907 6896 6895 6894 ] final -145.94 input  -60.11 | X-H torsion
[ 7974 7965 7964 7962 ] final  122.69 input  175.53 | X-H torsion
[ 8008 7997 7996 7995 ] final -116.44 input   59.86 | X-H torsion
[ 10167 10162 10161 10158 ] final   -7.68 input  -65.29 | X-H torsion
[ 10718 10713 10712 10709 ] final   29.56 input   66.30 | X-H torsion
[ 10763 10752 10751 10750 ] final   25.37 input  -60.55 | X-H torsion
[ 11005 11000 10999 10996 ] final   24.53 input  -57.11 | X-H torsion

> <Gold.Protein.ActiveResidues>
 VAL166  LYS551  ARG553  GLY616  TRP617  ASP618  TYR619  PRO620  LYS621  CYS622 
 ASP623  PHE694  ASN695  SER759  ASP760  ASP761  ALA762  ILE779  LEU786  VAL792 
 PHE793  MET794  SER795  GLU796  ALA797  LYS798  CYS799  TRP800  GLU811  SER814 

> <Gold.Protein.RotatedAtoms>
  151.1348  133.5012  159.2598 H   0  0  0  0  0  0  0  0  0  0  0  0  # atno 6907 bound_to 6896
  151.1719  135.0321  159.8765 H   0  0  0  0  0  0  0  0  0  0  0  0  # atno 6908 bound_to 6896
  152.5461  134.1210  159.8452 H   0  0  0  0  0  0  0  0  0  0  0  0  # atno 6909 bound_to 6896
  145.1046  139.3495  143.4794 H   0  0  0  0  0  0  0  0  0  0  0  0  # atno 7974 bound_to 7965
  155.0679  140.0393  157.2599 H   0  0  0  0  0  0  0  0  0  0  0  0  # atno 8008 bound_to 7997
  154.7006  140.2672  155.6699 H   0  0  0  0  0  0  0  0  0  0  0  0  # atno 8009 bound_to 7997
  156.2759  140.2741  156.1615 H   0  0  0  0  0  0  0  0  0  0  0  0  # atno 8010 bound_to 7997
  140.7036  143.6053  150.8757 H   0  0  0  0  0  0  0  0  0  0  0  0  # atno 10167 bound_to 10162
  157.2481  130.7101  149.6391 H   0  0  0  0  0  0  0  0  0  0  0  0  # atno 10718 bound_to 10713
  153.0696  135.6584  154.0276 H   0  0  0  0  0  0  0  0  0  0  0  0  # atno 10763 bound_to 10752
  153.9925  135.2944  155.3412 H   0  0  0  0  0  0  0  0  0  0  0  0  # atno 10764 bound_to 10752
  154.7067  135.5222  153.8674 H   0  0  0  0  0  0  0  0  0  0  0  0  # atno 10765 bound_to 10752
  140.3576  134.2160  155.7674 H   0  0  0  0  0  0  0  0  0  0  0  0  # atno 11005 bound_to 11000
  146.3528  140.0938  142.8611 LP  0  0  0  0  0  0  0  0  0  0  0  0  # atno 17320 bound_to 7965
  145.0916  140.9288  143.4765 LP  0  0  0  0  0  0  0  0  0  0  0  0  # atno 17321 bound_to 7965
  139.9777  143.5986  152.2953 LP  0  0  0  0  0  0  0  0  0  0  0  0  # atno 17342 bound_to 10162
  139.6595  144.7662  151.1990 LP  0  0  0  0  0  0  0  0  0  0  0  0  # atno 17343 bound_to 10162
  155.9667  130.4436  150.5429 LP  0  0  0  0  0  0  0  0  0  0  0  0  # atno 17370 bound_to 10713
  157.3307  131.0699  151.1863 LP  0  0  0  0  0  0  0  0  0  0  0  0  # atno 17371 bound_to 10713
  141.1993  133.8013  157.0540 LP  0  0  0  0  0  0  0  0  0  0  0  0  # atno 17394 bound_to 11000
  140.0652  134.9733  157.1373 LP  0  0  0  0  0  0  0  0  0  0  0  0  # atno 17395 bound_to 11000

$$$$
