AV-unprocessed.smi:148|AV-procd|sdf|1210|dock9
  -GOLD-   2262018383D 1   1.00000     0.00000
 Structure written by MMmdl.
 63 67  0  0  0  0  0  0  0  0  1 V2000
  148.5207  131.3671  159.4853 O   0  0  0  0  0  0  0  0  0  0  0  0
  148.2761  132.4654  160.3408 C   0  0  0  0  0  0  0  0  0  0  0  0
  147.3717  133.5244  159.6682 C   0  0  2  0  0  0  0  0  0  0  0  0
  148.0558  134.0266  158.3693 C   0  0  0  0  0  0  0  0  0  0  0  0
  147.3401  133.6842  157.1549 N   0  0  0  0  0  0  0  0  0  0  0  0
  145.9930  133.4225  157.0403 C   0  0  0  0  0  0  0  0  0  0  0  0
  145.5756  133.1771  155.8286 N   0  0  0  0  0  0  0  0  0  0  0  0
  146.7272  133.2563  155.0566 C   0  0  0  0  0  0  0  0  0  0  0  0
  146.9909  133.1442  153.6680 C   0  0  0  0  0  0  0  0  0  0  0  0
  145.9978  132.9628  152.7698 N   0  0  0  0  0  0  0  0  0  0  0  0
  146.1878  131.7195  152.0232 C   0  0  0  0  0  0  0  0  0  0  0  0
  144.9442  131.3736  151.1948 C   0  0  0  0  0  0  0  0  0  0  0  0
  144.5778  132.5425  150.2747 C   0  0  0  0  0  0  0  0  0  0  0  0
  144.3855  133.8214  151.1010 C   0  0  0  0  0  0  0  0  0  0  0  0
  145.6335  134.1457  151.9662 C   0  0  1  0  0  0  0  0  0  0  0  0
  145.4753  135.4491  152.8253 C   0  0  2  0  0  0  0  0  0  0  0  0
  144.4428  135.3299  153.9714 C   0  0  0  0  0  0  0  0  0  0  0  0
  143.4291  136.4677  153.7885 C   0  0  0  0  0  0  0  0  0  0  0  0
  143.5799  136.9203  152.3375 C   0  0  0  0  0  0  0  0  0  0  0  0
  145.0720  136.7345  152.0689 C   0  0  2  0  0  0  0  0  0  0  0  0
  145.4008  136.7579  150.6947 O   0  0  0  0  0  0  0  0  0  0  0  0
  148.2769  133.2743  153.2470 N   0  0  0  0  0  0  0  0  0  0  0  0
  149.2445  133.5189  154.1362 C   0  0  0  0  0  0  0  0  0  0  0  0
  149.1429  133.6804  155.4579 N   0  0  0  0  0  0  0  0  0  0  0  0
  147.8522  133.5409  155.8775 C   0  0  0  0  0  0  0  0  0  0  0  0
  146.9386  134.6543  160.6517 C   0  0  2  0  0  0  0  0  0  0  0  0
  148.0408  135.6392  161.0120 C   0  0  0  0  0  0  0  0  0  0  0  0
  147.4931  136.2888  162.2738 C   0  0  0  0  0  0  0  0  0  0  0  0
  146.8837  135.2180  162.9765 O   0  0  0  0  0  0  0  0  0  0  0  0
  146.4995  134.2006  162.0564 C   0  0  0  0  0  0  0  0  0  0  0  0
  149.4518  131.2065  159.4591 H   0  0  0  0  0  0  0  0  0  0  0  0
  147.8125  132.0957  161.2558 H   0  0  0  0  0  0  0  0  0  0  0  0
  149.2313  132.8961  160.6406 H   0  0  0  0  0  0  0  0  0  0  0  0
  146.4664  132.9937  159.3706 H   0  0  0  0  0  0  0  0  0  0  0  0
  148.1844  135.1087  158.4053 H   0  0  0  0  0  0  0  0  0  0  0  0
  149.0574  133.6031  158.2857 H   0  0  0  0  0  0  0  0  0  0  0  0
  145.3207  133.4465  157.8857 H   0  0  0  0  0  0  0  0  0  0  0  0
  147.0516  131.8197  151.3645 H   0  0  0  0  0  0  0  0  0  0  0  0
  146.4052  130.9020  152.7125 H   0  0  0  0  0  0  0  0  0  0  0  0
  145.1244  130.4735  150.6065 H   0  0  0  0  0  0  0  0  0  0  0  0
  144.1090  131.1510  151.8602 H   0  0  0  0  0  0  0  0  0  0  0  0
  145.3668  132.6943  149.5373 H   0  0  0  0  0  0  0  0  0  0  0  0
  143.6685  132.3134  149.7187 H   0  0  0  0  0  0  0  0  0  0  0  0
  144.1614  134.6382  150.4175 H   0  0  0  0  0  0  0  0  0  0  0  0
  143.5045  133.7015  151.7309 H   0  0  0  0  0  0  0  0  0  0  0  0
  146.4642  134.3113  151.2785 H   0  0  0  0  0  0  0  0  0  0  0  0
  146.4452  135.6778  153.2679 H   0  0  0  0  0  0  0  0  0  0  0  0
  143.9341  134.3665  153.9575 H   0  0  0  0  0  0  0  0  0  0  0  0
  144.9278  135.4054  154.9452 H   0  0  0  0  0  0  0  0  0  0  0  0
  142.4101  136.1607  154.0244 H   0  0  0  0  0  0  0  0  0  0  0  0
  143.6864  137.2921  154.4549 H   0  0  0  0  0  0  0  0  0  0  0  0
  142.9840  136.2811  151.6858 H   0  0  0  0  0  0  0  0  0  0  0  0
  143.2514  137.9489  152.1847 H   0  0  0  0  0  0  0  0  0  0  0  0
  145.5938  137.5747  152.5301 H   0  0  0  0  0  0  0  0  0  0  0  0
  144.9278  137.4662  150.2852 H   0  0  0  0  0  0  0  0  0  0  0  0
  150.2409  133.6091  153.7295 H   0  0  0  0  0  0  0  0  0  0  0  0
  146.1201  135.2209  160.2046 H   0  0  0  0  0  0  0  0  0  0  0  0
  148.9689  135.1122  161.2385 H   0  0  0  0  0  0  0  0  0  0  0  0
  148.2414  136.3674  160.2256 H   0  0  0  0  0  0  0  0  0  0  0  0
  148.2656  136.7739  162.8706 H   0  0  0  0  0  0  0  0  0  0  0  0
  146.7333  137.0309  162.0247 H   0  0  0  0  0  0  0  0  0  0  0  0
  145.4238  134.0401  162.1173 H   0  0  0  0  0  0  0  0  0  0  0  0
  146.9977  133.2772  162.3532 H   0  0  0  0  0  0  0  0  0  0  0  0
  1  2  1  0  0  0  0
  1 31  1  0  0  0  0
  2  3  1  0  0  0  0
  2 32  1  0  0  0  0
  2 33  1  0  0  0  0
  3  4  1  0  0  0  0
  3 26  1  0  0  0  0
  3 34  1  0  0  0  0
  4  5  1  0  0  0  0
  4 35  1  0  0  0  0
  4 36  1  0  0  0  0
  5 25  1  0  0  0  0
  5  6  1  0  0  0  0
  6  7  2  0  0  0  0
  6 37  1  0  0  0  0
  7  8  1  0  0  0  0
  8 25  2  0  0  0  0
  8  9  1  0  0  0  0
  9 10  1  0  0  0  0
  9 22  2  0  0  0  0
 10 15  1  0  0  0  0
 10 11  1  0  0  0  0
 11 12  1  0  0  0  0
 11 38  1  0  0  0  0
 11 39  1  0  0  0  0
 12 13  1  0  0  0  0
 12 40  1  0  0  0  0
 12 41  1  0  0  0  0
 13 14  1  0  0  0  0
 13 42  1  0  0  0  0
 13 43  1  0  0  0  0
 14 15  1  0  0  0  0
 14 44  1  0  0  0  0
 14 45  1  0  0  0  0
 15 16  1  0  0  0  0
 15 46  1  0  0  0  0
 16 20  1  0  0  0  0
 16 17  1  0  0  0  0
 16 47  1  0  0  0  0
 17 18  1  0  0  0  0
 17 48  1  0  0  0  0
 17 49  1  0  0  0  0
 18 19  1  0  0  0  0
 18 50  1  0  0  0  0
 18 51  1  0  0  0  0
 19 20  1  0  0  0  0
 19 52  1  0  0  0  0
 19 53  1  0  0  0  0
 20 21  1  0  0  0  0
 20 54  1  0  0  0  0
 21 55  1  0  0  0  0
 22 23  1  0  0  0  0
 23 24  2  0  0  0  0
 23 56  1  0  0  0  0
 24 25  1  0  0  0  0
 26 30  1  0  0  0  0
 26 27  1  0  0  0  0
 26 57  1  0  0  0  0
 27 28  1  0  0  0  0
 27 58  1  0  0  0  0
 27 59  1  0  0  0  0
 28 29  1  0  0  0  0
 28 60  1  0  0  0  0
 28 61  1  0  0  0  0
 29 30  1  0  0  0  0
 30 62  1  0  0  0  0
 30 63  1  0  0  0  0
M  END
> <s_m_source_file>
AV-unprocessed.smi

> <i_m_source_file_index>
148

> <i_lp_mmshare_version>
43012

> <i_f3d_flags>
0

> <s_epik_input>
W0NIMl0xT1tDSDJdW0NIMl1bQ0BIXTFbQ0BIXShbQ0gyXVtPSF0pW0NIMl1uKFtjSF1uMiljKGMyMyluW2NIXW5jM040W0NIMl1bQ0gyXVtDSDJdW0NIMl1bQ0BIXTRbQ0BASF01W0NIMl1bQ0gyXVtDSDJdW0NASF01W09IXQ==

> <s_epik_cmdline>
J2VwaWtfcHl0aG9uJywgJy1waCcsICc3LjAnLCAnLXRuJywgJzgnLCAnLW1hJywgJzIwMCcsICctbWV0YWxfYmluZGluZycsICctaW1hZScsICc8aW5maWxlLm1hZT4nLCAnLW9tYWUnLCAnPG91dGZpbGUubWFlPic=

> <r_lp_tautomer_probability>
1

> <r_epik_Ionization_Penalty>
0.00556303

> <r_epik_Ionization_Penalty_Charging>
0

> <r_epik_Ionization_Penalty_Neutral>
0.00556303

> <r_epik_State_Penalty>
0.00401767

> <r_epik_Charging_Adjusted_Penalty>
0.00401767

> <i_epik_Tot_Q>
0

> <i_epik_Tot_abs_Q>
0

> <r_epik_Metal_State_Penalty>
-0

> <b_epik_Metal_Only>
0

> <s_lp_Force_Field>
OPLS_2005

> <r_lp_Energy>
71.2164

> <b_lp_Chiralities_Consistent>
1

> <s_lp_Variant>
AV-unprocessed.smi:148-9

> <Gold.Version>
5.8.1

> <Gold.Id.Protein>
6NUR|6NUR_protein|mol2

> <Gold.PLP.Fitness>
40.6844

> <Gold.PLP.PLP>
-40.1877

> <Gold.PLP.part.hbond>
-1.7038

> <Gold.PLP.part.metal>
0.0000

> <Gold.PLP.part.buried>
-9.3470

> <Gold.PLP.part.nonpolar>
-29.5111

> <Gold.PLP.part.repulsive>
0.4481

> <Gold.PLP.ligand.clash>
0.0000

> <Gold.PLP.ligand.torsion>
1.4589

> <Gold.PLP.Chemscore.Hbond>
1.0000

> <Gold.PLP.Chemscore.CHOScore>
0.0000

> <Gold.PLP.Chemscore.Metal>
0.0000

> <Gold.Chemscore.Hbonds>
donor molecule, donor type, donor heavy atom, donor atom, acceptor molecule, acceptor atom, score
      L1  H    21    55       P1 10171  1.00

> <Gold.PLP.Chemscore.Internal.Correction>
0.4146

> <Gold.Rescore>
     Score         DG    S(hbond)    S(metal)    S(lipo)     H(rot)  DE(clash)    DE(int)     intcor
     10.15     -11.43       1.00        0.00      94.94       3.32       0.06       1.21       ----

> <Gold.Chemscore.Fitness>
10.1550

> <Gold.Chemscore.DG>
-11.4255

> <Gold.Chemscore.ZeroCoef>
-5.4800

> <Gold.Chemscore.Hbond>
0.9991

> <Gold.Chemscore.Metal>
0.0000

> <Gold.Chemscore.Lipo>
94.9446

> <Gold.Chemscore.Internal_Hbond>
0.0000

> <Gold.Chemscore.DEClash>
0.0577

> <Gold.Chemscore.DEInternal>
1.2128

> <Gold.Chemscore.Rot>
3.3203

> <Gold.Chemscore.Internal.Correction>
   9.000000E+99

> <Gold.Chemscore.Hbonds>
donor molecule, donor type, donor heavy atom, donor atom, acceptor molecule, acceptor atom, score
      L1  H    21    55       P1 10171  0.99

> <Gold.Chemscore.Hbond.Weighted>
-3.3369

> <Gold.Chemscore.Metal.Weighted>
-0.0000

> <Gold.Chemscore.Lipo.Weighted>
-11.1085

> <Gold.Chemscore.Internal_Hbond.Weighted>
0.0000

> <Gold.Chemscore.DEClash.Weighted>
0.0577

> <Gold.Chemscore.DEInternal.Weighted>
1.2128

> <Gold.Chemscore.Rot.Weighted>
8.5000

> <Gold.Chemscore.Internal.Correction.Weighted>
   9.000000E+99

> <Gold.Protein.RotatedTorsions>
[ 6907 6896 6895 6894 ] final  -22.66 input  -60.11 | X-H torsion
[ 7974 7965 7964 7962 ] final    0.08 input  175.53 | X-H torsion
[ 8008 7997 7996 7995 ] final    8.85 input   59.86 | X-H torsion
[ 10167 10162 10161 10158 ] final   83.73 input  -65.29 | X-H torsion
[ 10718 10713 10712 10709 ] final  -81.12 input   66.30 | X-H torsion
[ 10763 10752 10751 10750 ] final   72.82 input  -60.55 | X-H torsion
[ 11005 11000 10999 10996 ] final -101.43 input  -57.11 | X-H torsion

> <Gold.Protein.ActiveResidues>
 VAL166  LYS551  ARG553  GLY616  TRP617  ASP618  TYR619  PRO620  LYS621  CYS622 
 ASP623  PHE694  ASN695  SER759  ASP760  ASP761  ALA762  ILE779  LEU786  VAL792 
 PHE793  MET794  SER795  GLU796  ALA797  LYS798  CYS799  TRP800  GLU811  SER814 

> <Gold.Protein.RotatedAtoms>
  151.2154  135.0497  159.8927 H   0  0  0  0  0  0  0  0  0  0  0  0  # atno 6907 bound_to 6896
  152.5420  134.0699  159.8199 H   0  0  0  0  0  0  0  0  0  0  0  0  # atno 6908 bound_to 6896
  151.0858  133.5306  159.2649 H   0  0  0  0  0  0  0  0  0  0  0  0  # atno 6909 bound_to 6896
  146.2431  140.1192  142.8341 H   0  0  0  0  0  0  0  0  0  0  0  0  # atno 7974 bound_to 7965
  154.7723  140.2804  155.6128 H   0  0  0  0  0  0  0  0  0  0  0  0  # atno 8008 bound_to 7997
  156.2936  140.2639  156.2457 H   0  0  0  0  0  0  0  0  0  0  0  0  # atno 8009 bound_to 7997
  154.9884  140.0374  157.2298 H   0  0  0  0  0  0  0  0  0  0  0  0  # atno 8010 bound_to 7997
  139.9153  144.6246  150.8495 H   0  0  0  0  0  0  0  0  0  0  0  0  # atno 10167 bound_to 10162
  156.0056  130.4594  150.3904 H   0  0  0  0  0  0  0  0  0  0  0  0  # atno 10718 bound_to 10713
  153.0483  135.5086  154.7801 H   0  0  0  0  0  0  0  0  0  0  0  0  # atno 10763 bound_to 10752
  154.6684  135.2949  154.9777 H   0  0  0  0  0  0  0  0  0  0  0  0  # atno 10764 bound_to 10752
  154.0604  135.6691  153.4863 H   0  0  0  0  0  0  0  0  0  0  0  0  # atno 10765 bound_to 10752
  141.1231  133.8478  157.1231 H   0  0  0  0  0  0  0  0  0  0  0  0  # atno 11005 bound_to 11000
  145.0421  140.8953  143.5046 LP  0  0  0  0  0  0  0  0  0  0  0  0  # atno 17320 bound_to 7965
  145.1274  139.2654  143.5557 LP  0  0  0  0  0  0  0  0  0  0  0  0  # atno 17321 bound_to 7965
  140.7675  143.3336  151.2357 LP  0  0  0  0  0  0  0  0  0  0  0  0  # atno 17342 bound_to 10162
  139.6907  143.9696  152.2858 LP  0  0  0  0  0  0  0  0  0  0  0  0  # atno 17343 bound_to 10162
  157.1979  131.0431  151.2666 LP  0  0  0  0  0  0  0  0  0  0  0  0  # atno 17370 bound_to 10713
  157.4002  130.7329  149.6761 LP  0  0  0  0  0  0  0  0  0  0  0  0  # atno 17371 bound_to 10713
  140.0205  134.9948  157.0581 LP  0  0  0  0  0  0  0  0  0  0  0  0  # atno 17394 bound_to 11000
  140.4448  134.1643  155.7176 LP  0  0  0  0  0  0  0  0  0  0  0  0  # atno 17395 bound_to 11000

$$$$
