AV-unprocessed.smi:280|AV-procd|sdf|2099|dock2
  -GOLD-   2262021383D 1   1.00000     0.00000
 Structure written by MMmdl.
 59 62  0  0  0  0  0  0  0  0  2 V2000
  149.9732  135.6720  156.7295 C   0  0  0  0  0  0  0  0  0  0  0  0
  150.0170  135.8131  155.1917 C   0  0  2  0  0  0  0  0  0  0  0  0
  150.9938  136.9217  154.7442 C   0  0  0  0  0  0  0  0  0  0  0  0
  150.4377  138.2498  155.0051 N   0  0  0  0  0  0  0  0  0  0  0  0
  150.8551  138.9223  156.1128 C   0  0  0  0  0  0  0  0  0  0  0  0
  151.8905  138.3863  156.8111 N   0  0  0  0  0  0  0  0  0  0  0  0
  152.3603  138.9874  157.9067 C   0  0  0  0  0  0  0  0  0  0  0  0
  151.9477  140.1192  158.4761 N   0  0  0  0  0  0  0  0  0  0  0  0
  150.9077  140.6683  157.7871 C   0  0  0  0  0  0  0  0  0  0  0  0
  150.3020  140.1435  156.6076 C   0  0  0  0  0  0  0  0  0  0  0  0
  149.2597  140.9786  156.2176 N   0  0  0  0  0  0  0  0  0  0  0  0
  149.2618  141.9415  157.0973 C   0  0  0  0  0  0  0  0  0  0  0  0
  150.2280  141.8408  158.0703 N   0  0  0  0  0  0  0  0  0  0  0  0
  150.4622  142.7656  159.1686 C   0  0  0  0  0  0  0  0  0  0  0  0
  151.8010  143.5322  159.0969 C   0  0  0  0  0  0  0  0  0  0  0  0
  151.7490  144.6154  158.0030 C   0  0  0  0  0  0  0  0  0  0  0  0
  151.3250  144.0962  156.7579 O   0  0  0  0  0  0  0  0  0  0  0  0
  152.4237  143.9505  160.4383 C   0  0  0  0  0  0  0  0  0  0  0  0
  153.3522  142.8465  160.4212 O   0  0  0  0  0  0  0  0  0  0  0  0
  153.0267  142.6079  159.0359 C   0  0  0  0  0  0  0  0  0  0  0  0
  149.1194  138.4833  154.4252 C   0  0  0  0  0  0  0  0  0  0  0  0
  148.1235  137.3901  154.8556 C   0  0  0  0  0  0  0  0  0  0  0  0
  148.6730  136.0347  154.5793 N   0  3  2  0  0  0  0  0  0  0  0  0
  147.7038  134.9278  154.8070 C   0  0  0  0  0  0  0  0  0  0  0  0
  147.8421  133.7741  153.7835 C   0  0  0  0  0  0  0  0  0  0  0  0
  149.2875  133.2525  153.6822 C   0  0  0  0  0  0  0  0  0  0  0  0
  146.8891  132.6257  154.1553 C   0  0  0  0  0  0  0  0  0  0  0  0
  147.4409  134.2219  152.5047 O   0  0  0  0  0  0  0  0  0  0  0  0
  150.9742  135.5037  157.1273 H   0  0  0  0  0  0  0  0  0  0  0  0
  149.3591  134.8296  157.0463 H   0  0  0  0  0  0  0  0  0  0  0  0
  149.5810  136.5649  157.2157 H   0  0  0  0  0  0  0  0  0  0  0  0
  150.4009  134.8733  154.7924 H   0  0  0  0  0  0  0  0  0  0  0  0
  151.9670  136.7719  155.2117 H   0  0  0  0  0  0  0  0  0  0  0  0
  151.1652  136.8411  153.6702 H   0  0  0  0  0  0  0  0  0  0  0  0
  153.1857  138.4912  158.3959 H   0  0  0  0  0  0  0  0  0  0  0  0
  148.5515  142.7541  157.0590 H   0  0  0  0  0  0  0  0  0  0  0  0
  149.6269  143.4670  159.1890 H   0  0  0  0  0  0  0  0  0  0  0  0
  150.3958  142.2090  160.1043 H   0  0  0  0  0  0  0  0  0  0  0  0
  151.0494  145.4065  158.2738 H   0  0  0  0  0  0  0  0  0  0  0  0
  152.7193  145.0963  157.8768 H   0  0  0  0  0  0  0  0  0  0  0  0
  150.5321  144.5420  156.5013 H   0  0  0  0  0  0  0  0  0  0  0  0
  152.9405  144.9111  160.4068 H   0  0  0  0  0  0  0  0  0  0  0  0
  151.7425  143.9064  161.2871 H   0  0  0  0  0  0  0  0  0  0  0  0
  152.7870  141.5625  158.8371 H   0  0  0  0  0  0  0  0  0  0  0  0
  153.8203  142.9535  158.3713 H   0  0  0  0  0  0  0  0  0  0  0  0
  148.7444  139.4794  154.6566 H   0  0  0  0  0  0  0  0  0  0  0  0
  149.2287  138.4596  153.3403 H   0  0  0  0  0  0  0  0  0  0  0  0
  147.8875  137.4787  155.9156 H   0  0  0  0  0  0  0  0  0  0  0  0
  147.1865  137.5388  154.3217 H   0  0  0  0  0  0  0  0  0  0  0  0
  147.8725  134.4997  155.7959 H   0  0  0  0  0  0  0  0  0  0  0  0
  146.6852  135.3195  154.8251 H   0  0  0  0  0  0  0  0  0  0  0  0
  149.6477  132.9024  154.6500 H   0  0  0  0  0  0  0  0  0  0  0  0
  149.9748  134.0236  153.3332 H   0  0  0  0  0  0  0  0  0  0  0  0
  149.3589  132.4171  152.9848 H   0  0  0  0  0  0  0  0  0  0  0  0
  147.1347  132.2100  155.1334 H   0  0  0  0  0  0  0  0  0  0  0  0
  146.9423  131.8113  153.4314 H   0  0  0  0  0  0  0  0  0  0  0  0
  145.8526  132.9637  154.1932 H   0  0  0  0  0  0  0  0  0  0  0  0
  147.9013  135.0239  152.3072 H   0  0  0  0  0  0  0  0  0  0  0  0
  148.8461  136.0200  153.5843 H   0  0  0  0  0  0  0  0  0  0  0  0
  1  2  1  0  0  0  0
  1 29  1  0  0  0  0
  1 30  1  0  0  0  0
  1 31  1  0  0  0  0
  2 23  1  0  0  0  0
  2  3  1  0  0  0  0
  2 32  1  0  0  0  0
  3  4  1  0  0  0  0
  3 33  1  0  0  0  0
  3 34  1  0  0  0  0
  4  5  1  0  0  0  0
  4 21  1  0  0  0  0
  5 10  1  0  0  0  0
  5  6  2  0  0  0  0
  6  7  1  0  0  0  0
  7  8  2  0  0  0  0
  7 35  1  0  0  0  0
  8  9  1  0  0  0  0
  9 13  1  0  0  0  0
  9 10  2  0  0  0  0
 10 11  1  0  0  0  0
 11 12  2  0  0  0  0
 12 13  1  0  0  0  0
 12 36  1  0  0  0  0
 13 14  1  0  0  0  0
 14 15  1  0  0  0  0
 14 37  1  0  0  0  0
 14 38  1  0  0  0  0
 15 20  1  0  0  0  0
 15 16  1  0  0  0  0
 15 18  1  0  0  0  0
 16 17  1  0  0  0  0
 16 39  1  0  0  0  0
 16 40  1  0  0  0  0
 17 41  1  0  0  0  0
 18 19  1  0  0  0  0
 18 42  1  0  0  0  0
 18 43  1  0  0  0  0
 19 20  1  0  0  0  0
 20 44  1  0  0  0  0
 20 45  1  0  0  0  0
 21 22  1  0  0  0  0
 21 46  1  0  0  0  0
 21 47  1  0  0  0  0
 22 23  1  0  0  0  0
 22 48  1  0  0  0  0
 22 49  1  0  0  0  0
 23 24  1  0  0  0  0
 23 59  1  0  0  0  0
 24 25  1  0  0  0  0
 24 50  1  0  0  0  0
 24 51  1  0  0  0  0
 25 26  1  0  0  0  0
 25 27  1  0  0  0  0
 25 28  1  0  0  0  0
 26 52  1  0  0  0  0
 26 53  1  0  0  0  0
 26 54  1  0  0  0  0
 27 55  1  0  0  0  0
 27 56  1  0  0  0  0
 27 57  1  0  0  0  0
 28 58  1  0  0  0  0
M  CHG  1  23   1
M  END
> <s_m_source_file>
AV-unprocessed.smi

> <i_m_source_file_index>
280

> <i_lp_mmshare_version>
43012

> <i_f3d_flags>
0

> <s_epik_input>
W0NIM11DKFtDSDNdKShbT0hdKVtDSDJdTjFbQ0gyXVtDSDJdTihbQ0gyXVtDQEhdMVtDSDNdKWMobltjSF1uMiljKGMyMyluW2NIXW4zW0NIMl1DNChbQ0gyXVtPSF0pW0NIMl1PW0NIMl00

> <s_epik_cmdline>
J2VwaWtfcHl0aG9uJywgJy1waCcsICc3LjAnLCAnLXRuJywgJzgnLCAnLW1hJywgJzIwMCcsICctbWV0YWxfYmluZGluZycsICctaW1hZScsICc8aW5maWxlLm1hZT4nLCAnLW9tYWUnLCAnPG91dGZpbGUubWFlPic=

> <r_lp_tautomer_probability>
1

> <r_epik_Ionization_Penalty>
0.00179402

> <r_epik_Ionization_Penalty_Charging>
0.00173996

> <r_epik_Ionization_Penalty_Neutral>
5.40607e-05

> <r_epik_State_Penalty>
-0

> <r_epik_Charging_Adjusted_Penalty>
0.00173996

> <i_epik_Tot_Q>
1

> <i_epik_Tot_abs_Q>
1

> <r_epik_Metal_State_Penalty>
-0

> <b_epik_Metal_Only>
0

> <s_lp_Force_Field>
OPLS_2005

> <r_lp_Energy>
53.0384

> <b_lp_Chiralities_Consistent>
1

> <s_lp_Variant>
AV-unprocessed.smi:280-3

> <Gold.Version>
5.8.1

> <Gold.Id.Protein>
6NUR|6NUR_protein|mol2

> <Gold.PLP.Fitness>
54.1097

> <Gold.PLP.PLP>
-40.1661

> <Gold.PLP.part.hbond>
-3.0000

> <Gold.PLP.part.metal>
0.0000

> <Gold.PLP.part.buried>
-4.4149

> <Gold.PLP.part.nonpolar>
-32.6871

> <Gold.PLP.part.repulsive>
0.0649

> <Gold.PLP.ligand.clash>
0.0000

> <Gold.PLP.ligand.torsion>
0.8991

> <Gold.PLP.Chemscore.Hbond>
4.0000

> <Gold.PLP.Chemscore.CHOScore>
0.9220

> <Gold.PLP.Chemscore.Metal>
0.0000

> <Gold.Chemscore.Hbonds>
donor molecule, donor type, donor heavy atom, donor atom, acceptor molecule, acceptor atom, score
      L1  H    17    41       P1  8028  1.00
      L1  H    23    59       P1  7948  2.00
      L1  H    28    58       P1  7948  1.00
      L1  C    12    36       P1  8028  0.87

> <Gold.PLP.Chemscore.Internal.Correction>
0.9758

> <Gold.Rescore>
     Score         DG    S(hbond)    S(metal)    S(lipo)     H(rot)  DE(clash)    DE(int)     intcor
     13.77     -18.27       2.99        0.00      96.16       3.30       0.12       4.37       ----

> <Gold.Chemscore.Fitness>
13.7716

> <Gold.Chemscore.DG>
-18.2670

> <Gold.Chemscore.ZeroCoef>
-5.4800

> <Gold.Chemscore.Hbond>
2.9886

> <Gold.Chemscore.Metal>
0.0000

> <Gold.Chemscore.Lipo>
96.1587

> <Gold.Chemscore.Internal_Hbond>
0.0000

> <Gold.Chemscore.DEClash>
0.1216

> <Gold.Chemscore.DEInternal>
4.3738

> <Gold.Chemscore.Rot>
3.2991

> <Gold.Chemscore.Internal.Correction>
   9.000000E+99

> <Gold.Chemscore.Hbonds>
donor molecule, donor type, donor heavy atom, donor atom, acceptor molecule, acceptor atom, score
      L1  H    17    41       P1  8028  0.97
      L1  H    23    59       P1  7948  0.99
      L1  H    28    58       P1  7948  0.85

> <Gold.Chemscore.Hbond.Weighted>
-9.9820

> <Gold.Chemscore.Metal.Weighted>
-0.0000

> <Gold.Chemscore.Lipo.Weighted>
-11.2506

> <Gold.Chemscore.Internal_Hbond.Weighted>
0.0000

> <Gold.Chemscore.DEClash.Weighted>
0.1216

> <Gold.Chemscore.DEInternal.Weighted>
4.3738

> <Gold.Chemscore.Rot.Weighted>
8.4456

> <Gold.Chemscore.Internal.Correction.Weighted>
   9.000000E+99

> <Gold.Protein.RotatedTorsions>
[ 6907 6896 6895 6894 ] final   93.21 input  -60.11 | X-H torsion
[ 7974 7965 7964 7962 ] final -106.81 input  175.53 | X-H torsion
[ 8008 7997 7996 7995 ] final  114.97 input   59.86 | X-H torsion
[ 10167 10162 10161 10158 ] final   32.93 input  -65.29 | X-H torsion
[ 10718 10713 10712 10709 ] final   73.05 input   66.30 | X-H torsion
[ 10763 10752 10751 10750 ] final -118.32 input  -60.55 | X-H torsion
[ 11005 11000 10999 10996 ] final  -52.52 input  -57.11 | X-H torsion

> <Gold.Protein.ActiveResidues>
 VAL166  LYS551  ARG553  GLY616  TRP617  ASP618  TYR619  PRO620  LYS621  CYS622 
 ASP623  PHE694  ASN695  SER759  ASP760  ASP761  ALA762  ILE779  LEU786  VAL792 
 PHE793  MET794  SER795  GLU796  ALA797  LYS798  CYS799  TRP800  GLU811  SER814 

> <Gold.Protein.RotatedAtoms>
  152.5452  134.1382  159.8467 H   0  0  0  0  0  0  0  0  0  0  0  0  # atno 6907 bound_to 6896
  151.1421  133.4957  159.2604 H   0  0  0  0  0  0  0  0  0  0  0  0  # atno 6908 bound_to 6896
  151.1562  135.0261  159.8745 H   0  0  0  0  0  0  0  0  0  0  0  0  # atno 6909 bound_to 6896
  145.2132  140.9105  143.3302 H   0  0  0  0  0  0  0  0  0  0  0  0  # atno 7974 bound_to 7965
  156.2353  140.2948  156.0297 H   0  0  0  0  0  0  0  0  0  0  0  0  # atno 8008 bound_to 7997
  155.2108  140.0412  157.2950 H   0  0  0  0  0  0  0  0  0  0  0  0  # atno 8009 bound_to 7997
  154.6068  140.2441  155.7727 H   0  0  0  0  0  0  0  0  0  0  0  0  # atno 8010 bound_to 7997
  140.4454  144.1127  150.6181 H   0  0  0  0  0  0  0  0  0  0  0  0  # atno 10167 bound_to 10162
  157.6530  130.9609  150.1015 H   0  0  0  0  0  0  0  0  0  0  0  0  # atno 10718 bound_to 10713
  154.8583  135.4278  154.2120 H   0  0  0  0  0  0  0  0  0  0  0  0  # atno 10763 bound_to 10752
  153.3143  135.6978  153.7093 H   0  0  0  0  0  0  0  0  0  0  0  0  # atno 10764 bound_to 10752
  153.6173  135.3508  155.2973 H   0  0  0  0  0  0  0  0  0  0  0  0  # atno 10765 bound_to 10752
  141.0928  133.6629  156.4036 H   0  0  0  0  0  0  0  0  0  0  0  0  # atno 11005 bound_to 11000
  144.9835  139.3759  143.6250 LP  0  0  0  0  0  0  0  0  0  0  0  0  # atno 17320 bound_to 7965
  146.3393  139.8987  142.8798 LP  0  0  0  0  0  0  0  0  0  0  0  0  # atno 17321 bound_to 7965
  140.4270  143.2585  151.9644 LP  0  0  0  0  0  0  0  0  0  0  0  0  # atno 17342 bound_to 10162
  139.4792  144.5779  151.7981 LP  0  0  0  0  0  0  0  0  0  0  0  0  # atno 17343 bound_to 10162
  156.1936  130.3656  149.8877 LP  0  0  0  0  0  0  0  0  0  0  0  0  # atno 17370 bound_to 10713
  156.6799  130.8854  151.3574 LP  0  0  0  0  0  0  0  0  0  0  0  0  # atno 17371 bound_to 10713
  140.5211  134.6303  157.5318 LP  0  0  0  0  0  0  0  0  0  0  0  0  # atno 17394 bound_to 11000
  139.9758  134.7218  155.9953 LP  0  0  0  0  0  0  0  0  0  0  0  0  # atno 17395 bound_to 11000

$$$$
