AV-unprocessed.smi:1930|AV-procd|sdf|7809|dock1
  -GOLD-   22720 9553D 1   1.00000     0.00000
 Structure written by MMmdl.
 41 42  0  0  0  0  0  0  0  0  1 V2000
  151.6337  139.0456  157.2246 C   0  0  0  0  0  0  0  0  0  0  0  0
  151.8948  139.2857  155.4199 S   0  0  0  0  0  0  0  0  0  0  0  0
  151.1640  140.4930  155.0049 O   0  0  0  0  0  0  0  0  0  0  0  0
  153.3353  139.1743  155.1437 O   0  0  0  0  0  0  0  0  0  0  0  0
  151.1063  137.9114  154.7029 N   0  0  0  0  0  0  0  0  0  0  0  0
  149.6394  137.9423  154.5005 C   0  0  0  0  0  0  0  0  0  0  0  0
  148.9057  137.0675  155.5353 C   0  0  0  0  0  0  0  0  0  0  0  0
  149.4686  135.7114  155.4912 N   0  0  0  0  0  0  0  0  0  0  0  0
  148.9005  134.6157  154.9285 C   0  0  0  0  0  0  0  0  0  0  0  0
  149.3629  133.4802  155.0462 O   0  0  0  0  0  0  0  0  0  0  0  0
  147.7678  134.8567  154.2490 N   0  0  0  0  0  0  0  0  0  0  0  0
  146.9848  133.8417  153.5589 C   0  0  0  0  0  0  0  0  0  0  0  0
  146.9336  134.1337  152.0536 C   0  0  0  0  0  0  0  0  0  0  0  0
  145.8236  133.3688  151.3602 C   0  0  0  0  0  0  0  0  0  0  0  0
  144.4796  133.5294  151.7552 C   0  0  0  0  0  0  0  0  0  0  0  0
  143.4823  132.7995  151.0803 C   0  0  0  0  0  0  0  0  0  0  0  0
  143.8728  131.9382  150.0357 C   0  0  0  0  0  0  0  0  0  0  0  0
  145.1563  131.7775  149.6478 N   0  0  0  0  0  0  0  0  0  0  0  0
  146.1066  132.4812  150.3001 C   0  0  0  0  0  0  0  0  0  0  0  0
  150.8693  135.7387  155.9170 C   0  0  0  0  0  0  0  0  0  0  0  0
  151.6840  136.5619  154.9000 C   0  0  0  0  0  0  0  0  0  0  0  0
  152.1005  139.8686  157.7653 H   0  0  0  0  0  0  0  0  0  0  0  0
  152.0887  138.1086  157.5418 H   0  0  0  0  0  0  0  0  0  0  0  0
  150.5675  139.0349  157.4454 H   0  0  0  0  0  0  0  0  0  0  0  0
  149.2702  138.9667  154.5421 H   0  0  0  0  0  0  0  0  0  0  0  0
  149.4235  137.5781  153.4955 H   0  0  0  0  0  0  0  0  0  0  0  0
  149.0339  137.4760  156.5376 H   0  0  0  0  0  0  0  0  0  0  0  0
  147.8323  137.1044  155.3505 H   0  0  0  0  0  0  0  0  0  0  0  0
  147.4336  135.8080  154.2002 H   0  0  0  0  0  0  0  0  0  0  0  0
  147.4305  132.8614  153.7357 H   0  0  0  0  0  0  0  0  0  0  0  0
  145.9751  133.8183  153.9725 H   0  0  0  0  0  0  0  0  0  0  0  0
  146.7903  135.2019  151.8836 H   0  0  0  0  0  0  0  0  0  0  0  0
  147.8853  133.8724  151.5883 H   0  0  0  0  0  0  0  0  0  0  0  0
  144.2162  134.2001  152.5598 H   0  0  0  0  0  0  0  0  0  0  0  0
  142.4429  132.8975  151.3564 H   0  0  0  0  0  0  0  0  0  0  0  0
  143.1341  131.3632  149.4972 H   0  0  0  0  0  0  0  0  0  0  0  0
  147.1224  132.3315  149.9651 H   0  0  0  0  0  0  0  0  0  0  0  0
  150.9386  136.1792  156.9117 H   0  0  0  0  0  0  0  0  0  0  0  0
  151.2970  134.7397  156.0123 H   0  0  0  0  0  0  0  0  0  0  0  0
  151.6926  136.0482  153.9379 H   0  0  0  0  0  0  0  0  0  0  0  0
  152.7233  136.6345  155.2189 H   0  0  0  0  0  0  0  0  0  0  0  0
  1  2  1  0  0  0  0
  1 22  1  0  0  0  0
  1 23  1  0  0  0  0
  1 24  1  0  0  0  0
  2  3  2  0  0  0  0
  2  4  2  0  0  0  0
  2  5  1  0  0  0  0
  5 21  1  0  0  0  0
  5  6  1  0  0  0  0
  6  7  1  0  0  0  0
  6 25  1  0  0  0  0
  6 26  1  0  0  0  0
  7  8  1  0  0  0  0
  7 27  1  0  0  0  0
  7 28  1  0  0  0  0
  8  9  1  0  0  0  0
  8 20  1  0  0  0  0
  9 10  2  0  0  0  0
  9 11  1  0  0  0  0
 11 12  1  0  0  0  0
 11 29  1  0  0  0  0
 12 13  1  0  0  0  0
 12 30  1  0  0  0  0
 12 31  1  0  0  0  0
 13 14  1  0  0  0  0
 13 32  1  0  0  0  0
 13 33  1  0  0  0  0
 14 19  1  0  0  0  0
 14 15  2  0  0  0  0
 15 16  1  0  0  0  0
 15 34  1  0  0  0  0
 16 17  2  0  0  0  0
 16 35  1  0  0  0  0
 17 18  1  0  0  0  0
 17 36  1  0  0  0  0
 18 19  2  0  0  0  0
 19 37  1  0  0  0  0
 20 21  1  0  0  0  0
 20 38  1  0  0  0  0
 20 39  1  0  0  0  0
 21 40  1  0  0  0  0
 21 41  1  0  0  0  0
M  END
> <s_m_source_file>
AV-unprocessed.smi

> <i_m_source_file_index>
1930

> <i_lp_mmshare_version>
43012

> <i_f3d_flags>
0

> <s_epik_input>
W0NIM11TKD1PKSg9TylOMVtDSDJdW0NIMl1OKFtDSDJdW0NIMl0xKUMoPU8pW05IXVtDSDJdW0NIMl1jMltjSF1bY0hdW2NIXW5bY0hdMg==

> <s_epik_cmdline>
J2VwaWtfcHl0aG9uJywgJy1waCcsICc3LjAnLCAnLXRuJywgJzgnLCAnLW1hJywgJzIwMCcsICctbWV0YWxfYmluZGluZycsICctaW1hZScsICc8aW5maWxlLm1hZT4nLCAnLW9tYWUnLCAnPG91dGZpbGUubWFlPic=

> <r_epik_Ionization_Penalty>
0.0143741

> <r_epik_Ionization_Penalty_Charging>
0

> <r_epik_Ionization_Penalty_Neutral>
0.0143741

> <r_epik_State_Penalty>
0.0112033

> <r_epik_Charging_Adjusted_Penalty>
0.0112033

> <i_epik_Tot_Q>
0

> <i_epik_Tot_abs_Q>
0

> <r_epik_Metal_State_Penalty>
0.0109376

> <b_epik_Metal_Only>
0

> <s_lp_Force_Field>
OPLS_2005

> <r_lp_Energy>
24.8651

> <b_lp_Chiralities_Consistent>
1

> <s_lp_Variant>
AV-unprocessed.smi:1930-1

> <Gold.Version>
5.8.1

> <Gold.Id.Protein>
6NUR|6NUR_protein|mol2

> <Gold.PLP.Fitness>
41.1524

> <Gold.PLP.PLP>
-29.4729

> <Gold.PLP.part.hbond>
-3.2414

> <Gold.PLP.part.metal>
0.0000

> <Gold.PLP.part.buried>
0.7620

> <Gold.PLP.part.nonpolar>
-28.6546

> <Gold.PLP.part.repulsive>
0.2745

> <Gold.PLP.ligand.clash>
0.0000

> <Gold.PLP.ligand.torsion>
1.1959

> <Gold.PLP.Chemscore.Hbond>
1.9600

> <Gold.PLP.Chemscore.CHOScore>
2.0000

> <Gold.PLP.Chemscore.Metal>
0.0000

> <Gold.Chemscore.Hbonds>
donor molecule, donor type, donor heavy atom, donor atom, acceptor molecule, acceptor atom, score
      P1  H  7989  7998       L1     3  0.99
      P1  H  7997  8008       L1     4  1.00
      L1  C    17    36       P1 10952  1.00
      L1  C    19    37       P1 10747  1.00

> <Gold.PLP.Chemscore.Internal.Correction>
2.1913

> <Gold.Rescore>
     Score         DG    S(hbond)    S(metal)    S(lipo)     H(rot)  DE(clash)    DE(int)     intcor
     13.44     -16.53       1.89        0.00      71.14       1.40       1.94       1.16       ----

> <Gold.Chemscore.Fitness>
13.4361

> <Gold.Chemscore.DG>
-16.5349

> <Gold.Chemscore.ZeroCoef>
-5.4800

> <Gold.Chemscore.Hbond>
1.8938

> <Gold.Chemscore.Metal>
0.0000

> <Gold.Chemscore.Lipo>
71.1378

> <Gold.Chemscore.Internal_Hbond>
0.0000

> <Gold.Chemscore.DEClash>
1.9396

> <Gold.Chemscore.DEInternal>
1.1593

> <Gold.Chemscore.Rot>
1.4037

> <Gold.Chemscore.Internal.Correction>
   9.000000E+99

> <Gold.Chemscore.Hbonds>
donor molecule, donor type, donor heavy atom, donor atom, acceptor molecule, acceptor atom, score
      P1  H  7989  7998       L1     3  0.61
      P1  H  7997  8008       L1     4  0.98

> <Gold.Chemscore.Hbond.Weighted>
-6.3253

> <Gold.Chemscore.Metal.Weighted>
-0.0000

> <Gold.Chemscore.Lipo.Weighted>
-8.3231

> <Gold.Chemscore.Internal_Hbond.Weighted>
0.0000

> <Gold.Chemscore.DEClash.Weighted>
1.9396

> <Gold.Chemscore.DEInternal.Weighted>
1.1593

> <Gold.Chemscore.Rot.Weighted>
3.5935

> <Gold.Chemscore.Internal.Correction.Weighted>
   9.000000E+99

> <Gold.Protein.RotatedTorsions>
[ 6907 6896 6895 6894 ] final  -50.83 input  -60.11 | X-H torsion
[ 7974 7965 7964 7962 ] final -165.05 input  175.53 | X-H torsion
[ 8008 7997 7996 7995 ] final  -17.05 input   59.86 | X-H torsion
[ 10167 10162 10161 10158 ] final   64.81 input  -65.29 | X-H torsion
[ 10718 10713 10712 10709 ] final -173.53 input   66.30 | X-H torsion
[ 10763 10752 10751 10750 ] final    1.56 input  -60.55 | X-H torsion
[ 11005 11000 10999 10996 ] final   70.88 input  -57.11 | X-H torsion

> <Gold.Protein.ActiveResidues>
 VAL166  LYS551  ARG553  GLY616  TRP617  ASP618  TYR619  PRO620  LYS621  CYS622 
 ASP623  PHE694  ASN695  SER759  ASP760  ASP761  ALA762  ILE779  LEU786  VAL792 
 PHE793  MET794  SER795  GLU796  ALA797  LYS798  CYS799  TRP800  GLU811  SER814 

> <Gold.Protein.RotatedAtoms>
  150.8669  134.8034  159.7125 H   0  0  0  0  0  0  0  0  0  0  0  0  # atno 6907 bound_to 6896
  152.4687  134.5009  159.9734 H   0  0  0  0  0  0  0  0  0  0  0  0  # atno 6908 bound_to 6896
  151.5104  133.3447  159.2919 H   0  0  0  0  0  0  0  0  0  0  0  0  # atno 6909 bound_to 6896
  144.7280  140.2871  143.6226 H   0  0  0  0  0  0  0  0  0  0  0  0  # atno 7974 bound_to 7965
  154.5007  140.2153  155.9353 H   0  0  0  0  0  0  0  0  0  0  0  0  # atno 8008 bound_to 7997
  156.1429  140.3176  155.8492 H   0  0  0  0  0  0  0  0  0  0  0  0  # atno 8009 bound_to 7997
  155.4085  140.0489  157.3024 H   0  0  0  0  0  0  0  0  0  0  0  0  # atno 8010 bound_to 7997
  140.1181  144.4756  150.6937 H   0  0  0  0  0  0  0  0  0  0  0  0  # atno 10167 bound_to 10162
  156.7717  130.9451  151.3120 H   0  0  0  0  0  0  0  0  0  0  0  0  # atno 10718 bound_to 10713
  153.3065  135.6959  153.7154 H   0  0  0  0  0  0  0  0  0  0  0  0  # atno 10763 bound_to 10752
  153.6048  135.3455  155.2959 H   0  0  0  0  0  0  0  0  0  0  0  0  # atno 10764 bound_to 10752
  154.8564  135.4349  154.2191 H   0  0  0  0  0  0  0  0  0  0  0  0  # atno 10765 bound_to 10752
  139.9573  134.7121  156.0724 H   0  0  0  0  0  0  0  0  0  0  0  0  # atno 11005 bound_to 11000
  145.7892  139.1920  143.2113 LP  0  0  0  0  0  0  0  0  0  0  0  0  # atno 17320 bound_to 7965
  146.0770  140.7806  142.9660 LP  0  0  0  0  0  0  0  0  0  0  0  0  # atno 17321 bound_to 7965
  140.6887  143.2364  151.5189 LP  0  0  0  0  0  0  0  0  0  0  0  0  # atno 17342 bound_to 10162
  139.5583  144.2220  152.1649 LP  0  0  0  0  0  0  0  0  0  0  0  0  # atno 17343 bound_to 10162
  157.6688  130.9032  149.9992 LP  0  0  0  0  0  0  0  0  0  0  0  0  # atno 17370 bound_to 10713
  156.1274  130.3644  149.9788 LP  0  0  0  0  0  0  0  0  0  0  0  0  # atno 17371 bound_to 10713
  141.1246  133.6603  156.3304 LP  0  0  0  0  0  0  0  0  0  0  0  0  # atno 17394 bound_to 11000
  140.5579  134.5963  157.5426 LP  0  0  0  0  0  0  0  0  0  0  0  0  # atno 17395 bound_to 11000

$$$$
