AV-unprocessed.smi:1813|AV-procd|sdf|7347|dock4
  -GOLD-   22720 9 13D 1   1.00000     0.00000
 Structure written by MMmdl.
 39 40  0  0  0  0  0  0  0  0  3 V2000
  149.6938  131.8987  154.2083 C   0  0  0  0  0  0  0  0  0  0  0  0
  149.0359  133.1602  154.5126 N   0  0  0  0  0  0  0  0  0  0  0  0
  149.6171  134.1757  155.1664 C   0  0  0  0  0  0  0  0  0  0  0  0
  150.7800  134.1420  155.5702 O   0  0  0  0  0  0  0  0  0  0  0  0
  148.7570  135.4257  155.3783 C   0  0  0  0  0  0  0  0  0  0  0  0
  149.3055  136.6320  154.7069 N   0  3  2  0  0  0  0  0  0  0  0  0
  150.7382  136.8741  155.0274 C   0  0  0  0  0  0  0  0  0  0  0  0
  151.2951  138.0611  154.2224 C   0  0  0  0  0  0  0  0  0  0  0  0
  150.4696  139.3426  154.4525 C   0  0  2  0  0  0  0  0  0  0  0  0
  150.6174  139.8431  155.8188 N   0  0  0  0  0  0  0  0  0  0  0  0
  151.7686  140.0246  156.4804 C   0  0  0  0  0  0  0  0  0  0  0  0
  152.8435  139.7865  155.9254 O   0  0  0  0  0  0  0  0  0  0  0  0
  151.5967  140.4612  157.7481 N   0  5  0  0  0  0  0  0  0  0  0  0
  151.6277  141.7769  158.0161 C   0  0  0  0  0  0  0  0  0  0  0  0
  150.9677  142.6846  157.2884 N   0  0  0  0  0  0  0  0  0  0  0  0
  151.1317  143.9919  157.7503 C   0  0  0  0  0  0  0  0  0  0  0  0
  151.9288  144.0803  158.8608 C   0  0  0  0  0  0  0  0  0  0  0  0
  152.5004  142.5150  159.3625 S   0  0  0  0  0  0  0  0  0  0  0  0
  148.9894  139.0506  154.1552 C   0  0  0  0  0  0  0  0  0  0  0  0
  148.4735  137.8381  154.9528 C   0  0  0  0  0  0  0  0  0  0  0  0
  148.9896  131.2182  153.7297 H   0  0  0  0  0  0  0  0  0  0  0  0
  150.0638  131.4214  155.1168 H   0  0  0  0  0  0  0  0  0  0  0  0
  150.5332  132.0544  153.5294 H   0  0  0  0  0  0  0  0  0  0  0  0
  148.0791  133.2666  154.2065 H   0  0  0  0  0  0  0  0  0  0  0  0
  147.7713  135.1959  154.9717 H   0  0  0  0  0  0  0  0  0  0  0  0
  148.6186  135.6223  156.4430 H   0  0  0  0  0  0  0  0  0  0  0  0
  150.8487  137.0587  156.0972 H   0  0  0  0  0  0  0  0  0  0  0  0
  151.3289  135.9860  154.8019 H   0  0  0  0  0  0  0  0  0  0  0  0
  152.3425  138.2255  154.4770 H   0  0  0  0  0  0  0  0  0  0  0  0
  151.2809  137.8111  153.1608 H   0  0  0  0  0  0  0  0  0  0  0  0
  150.8131  140.1191  153.7667 H   0  0  0  0  0  0  0  0  0  0  0  0
  149.7683  140.0682  156.3160 H   0  0  0  0  0  0  0  0  0  0  0  0
  150.6428  144.8000  157.2271 H   0  0  0  0  0  0  0  0  0  0  0  0
  152.2127  144.9641  159.4116 H   0  0  0  0  0  0  0  0  0  0  0  0
  148.3800  139.9286  154.3733 H   0  0  0  0  0  0  0  0  0  0  0  0
  148.8687  138.8553  153.0888 H   0  0  0  0  0  0  0  0  0  0  0  0
  147.4418  137.6362  154.6633 H   0  0  0  0  0  0  0  0  0  0  0  0
  148.4624  138.0612  156.0210 H   0  0  0  0  0  0  0  0  0  0  0  0
  149.2545  136.4496  153.7146 H   0  0  0  0  0  0  0  0  0  0  0  0
  1  2  1  0  0  0  0
  1 21  1  0  0  0  0
  1 22  1  0  0  0  0
  1 23  1  0  0  0  0
  2  3  1  0  0  0  0
  2 24  1  0  0  0  0
  3  4  2  0  0  0  0
  3  5  1  0  0  0  0
  5  6  1  0  0  0  0
  5 25  1  0  0  0  0
  5 26  1  0  0  0  0
  6 20  1  0  0  0  0
  6  7  1  0  0  0  0
  6 39  1  0  0  0  0
  7  8  1  0  0  0  0
  7 27  1  0  0  0  0
  7 28  1  0  0  0  0
  8  9  1  0  0  0  0
  8 29  1  0  0  0  0
  8 30  1  0  0  0  0
  9 10  1  0  0  0  0
  9 19  1  0  0  0  0
  9 31  1  0  0  0  0
 10 11  1  0  0  0  0
 10 32  1  0  0  0  0
 11 12  2  0  0  0  0
 11 13  1  0  0  0  0
 13 14  1  0  0  0  0
 14 18  1  0  0  0  0
 14 15  2  0  0  0  0
 15 16  1  0  0  0  0
 16 17  2  0  0  0  0
 16 33  1  0  0  0  0
 17 18  1  0  0  0  0
 17 34  1  0  0  0  0
 19 20  1  0  0  0  0
 19 35  1  0  0  0  0
 19 36  1  0  0  0  0
 20 37  1  0  0  0  0
 20 38  1  0  0  0  0
M  CHG  1   6   1
M  CHG  1  13  -1
M  END
> <s_m_source_file>
AV-unprocessed.smi

> <i_m_source_file_index>
1813

> <i_lp_mmshare_version>
43012

> <i_f3d_flags>
0

> <s_epik_input>
W0NIM11bTkhdQyg9TylbQ0gyXU4xW0NIMl1bQ0gyXVtDSF0oW0NIMl1bQ0gyXTEpW05IXUMoPU8pW05IXWMybltjSF1bY0hdczI=

> <s_epik_cmdline>
J2VwaWtfcHl0aG9uJywgJy1waCcsICc3LjAnLCAnLXRuJywgJzgnLCAnLW1hJywgJzIwMCcsICctbWV0YWxfYmluZGluZycsICctaW1hZScsICc8aW5maWxlLm1hZT4nLCAnLW9tYWUnLCAnPG91dGZpbGUubWFlPic=

> <r_lp_tautomer_probability>
0.999

> <r_epik_Ionization_Penalty>
7.12128

> <r_epik_Ionization_Penalty_Charging>
6.25357

> <r_epik_Ionization_Penalty_Neutral>
0.867707

> <r_epik_State_Penalty>
6.33838

> <r_epik_Charging_Adjusted_Penalty>
12.592

> <i_epik_Tot_Q>
0

> <i_epik_Tot_abs_Q>
2

> <r_epik_Metal_State_Penalty>
2.34161

> <b_epik_Metal_Only>
1

> <s_lp_Force_Field>
OPLS_2005

> <r_lp_Energy>
4.26142

> <b_lp_Chiralities_Consistent>
1

> <s_lp_Variant>
AV-unprocessed.smi:1813-8

> <Gold.Version>
5.8.1

> <Gold.Id.Protein>
6NUR|6NUR_protein|mol2

> <Gold.PLP.Fitness>
44.8346

> <Gold.PLP.PLP>
-35.2974

> <Gold.PLP.part.hbond>
-2.0000

> <Gold.PLP.part.metal>
0.0000

> <Gold.PLP.part.buried>
-3.8442

> <Gold.PLP.part.nonpolar>
-29.4025

> <Gold.PLP.part.repulsive>
0.2327

> <Gold.PLP.ligand.clash>
0.0000

> <Gold.PLP.ligand.torsion>
1.2612

> <Gold.PLP.Chemscore.Hbond>
3.0000

> <Gold.PLP.Chemscore.CHOScore>
0.9950

> <Gold.PLP.Chemscore.Metal>
0.0000

> <Gold.Chemscore.Hbonds>
donor molecule, donor type, donor heavy atom, donor atom, acceptor molecule, acceptor atom, score
      L1  H     6    39       P1  7948  2.00
      P1  H  7997  8010       L1    12  1.00
      L1  C    16    33       P1  8028  1.00

> <Gold.PLP.Chemscore.Internal.Correction>
0.0745

> <Gold.Rescore>
     Score         DG    S(hbond)    S(metal)    S(lipo)     H(rot)  DE(clash)    DE(int)     intcor
     12.80     -16.28       1.97        0.00      74.65       1.76       0.03       3.45       ----

> <Gold.Chemscore.Fitness>
12.8045

> <Gold.Chemscore.DG>
-16.2795

> <Gold.Chemscore.ZeroCoef>
-5.4800

> <Gold.Chemscore.Hbond>
1.9675

> <Gold.Chemscore.Metal>
0.0000

> <Gold.Chemscore.Lipo>
74.6528

> <Gold.Chemscore.Internal_Hbond>
0.0000

> <Gold.Chemscore.DEClash>
0.0272

> <Gold.Chemscore.DEInternal>
3.4478

> <Gold.Chemscore.Rot>
1.7603

> <Gold.Chemscore.Internal.Correction>
   9.000000E+99

> <Gold.Chemscore.Hbonds>
donor molecule, donor type, donor heavy atom, donor atom, acceptor molecule, acceptor atom, score
      L1  H     6    39       P1  7948  0.94
      P1  H  7997  8010       L1    12  0.97

> <Gold.Chemscore.Hbond.Weighted>
-6.5715

> <Gold.Chemscore.Metal.Weighted>
-0.0000

> <Gold.Chemscore.Lipo.Weighted>
-8.7344

> <Gold.Chemscore.Internal_Hbond.Weighted>
0.0000

> <Gold.Chemscore.DEClash.Weighted>
0.0272

> <Gold.Chemscore.DEInternal.Weighted>
3.4478

> <Gold.Chemscore.Rot.Weighted>
4.5064

> <Gold.Chemscore.Internal.Correction.Weighted>
   9.000000E+99

> <Gold.Protein.RotatedTorsions>
[ 6907 6896 6895 6894 ] final   69.61 input  -60.11 | X-H torsion
[ 7974 7965 7964 7962 ] final   43.20 input  175.53 | X-H torsion
[ 8008 7997 7996 7995 ] final   89.86 input   59.86 | X-H torsion
[ 10167 10162 10161 10158 ] final   79.47 input  -65.29 | X-H torsion
[ 10718 10713 10712 10709 ] final  154.15 input   66.30 | X-H torsion
[ 10763 10752 10751 10750 ] final  111.49 input  -60.55 | X-H torsion
[ 11005 11000 10999 10996 ] final -175.74 input  -57.11 | X-H torsion

> <Gold.Protein.ActiveResidues>
 VAL166  LYS551  ARG553  GLY616  TRP617  ASP618  TYR619  PRO620  LYS621  CYS622 
 ASP623  PHE694  ASN695  SER759  ASP760  ASP761  ALA762  ILE779  LEU786  VAL792 
 PHE793  MET794  SER795  GLU796  ALA797  LYS798  CYS799  TRP800  GLU811  SER814 

> <Gold.Protein.RotatedAtoms>
  152.4697  134.4990  159.9718 H   0  0  0  0  0  0  0  0  0  0  0  0  # atno 6907 bound_to 6896
  151.5019  133.3496  159.2878 H   0  0  0  0  0  0  0  0  0  0  0  0  # atno 6908 bound_to 6896
  150.8700  134.8100  159.7209 H   0  0  0  0  0  0  0  0  0  0  0  0  # atno 6909 bound_to 6896
  146.0675  139.5213  142.9619 H   0  0  0  0  0  0  0  0  0  0  0  0  # atno 7974 bound_to 7965
  156.0051  140.3356  155.6884 H   0  0  0  0  0  0  0  0  0  0  0  0  # atno 8008 bound_to 7997
  155.6236  140.0677  157.2688 H   0  0  0  0  0  0  0  0  0  0  0  0  # atno 8009 bound_to 7997
  154.4262  140.1772  156.1386 H   0  0  0  0  0  0  0  0  0  0  0  0  # atno 8010 bound_to 7997
  139.9600  144.5968  150.8081 H   0  0  0  0  0  0  0  0  0  0  0  0  # atno 10167 bound_to 10162
  157.2354  131.0748  151.1827 H   0  0  0  0  0  0  0  0  0  0  0  0  # atno 10718 bound_to 10713
  153.4641  135.3715  155.2354 H   0  0  0  0  0  0  0  0  0  0  0  0  # atno 10763 bound_to 10752
  154.8757  135.3915  154.3890 H   0  0  0  0  0  0  0  0  0  0  0  0  # atno 10764 bound_to 10752
  153.4468  135.7085  153.6198 H   0  0  0  0  0  0  0  0  0  0  0  0  # atno 10765 bound_to 10752
  140.4599  134.6265  157.4838 H   0  0  0  0  0  0  0  0  0  0  0  0  # atno 11005 bound_to 11000
  145.6450  141.0276  143.1791 LP  0  0  0  0  0  0  0  0  0  0  0  0  # atno 17320 bound_to 7965
  144.7211  139.8026  143.7381 LP  0  0  0  0  0  0  0  0  0  0  0  0  # atno 17321 bound_to 7965
  140.7556  143.3050  151.2985 LP  0  0  0  0  0  0  0  0  0  0  0  0  # atno 17342 bound_to 10162
  139.6562  144.0273  152.2661 LP  0  0  0  0  0  0  0  0  0  0  0  0  # atno 17343 bound_to 10162
  157.3435  130.7045  149.6396 LP  0  0  0  0  0  0  0  0  0  0  0  0  # atno 17370 bound_to 10713
  155.9673  130.4273  150.4738 LP  0  0  0  0  0  0  0  0  0  0  0  0  # atno 17371 bound_to 10713
  139.9952  134.6922  155.9621 LP  0  0  0  0  0  0  0  0  0  0  0  0  # atno 17394 bound_to 11000
  141.1626  133.6538  156.4370 LP  0  0  0  0  0  0  0  0  0  0  0  0  # atno 17395 bound_to 11000

$$$$
