AV-unprocessed.smi:2018|AV-procd|sdf|8169|dock1
  -GOLD-   2272010413D 1   1.00000     0.00000
 Structure written by MMmdl.
 35 36  0  0  0  0  0  0  0  0  1 V2000
  145.5533  130.0424  151.9147 C   0  0  0  0  0  0  0  0  0  0  0  0
  146.2466  131.3380  152.1631 C   0  0  0  0  0  0  0  0  0  0  0  0
  147.4964  131.4307  152.6246 N   0  0  0  0  0  0  0  0  0  0  0  0
  147.9183  132.7558  152.7735 C   0  0  0  0  0  0  0  0  0  0  0  0
  149.2960  133.0506  153.2833 C   0  0  0  0  0  0  0  0  0  0  0  0
  149.3255  133.2325  154.8099 C   0  0  0  0  0  0  0  0  0  0  0  0
  150.0121  134.4615  155.1900 N   0  0  0  0  0  0  0  0  0  0  0  0
  150.1913  134.8900  156.4530 C   0  0  0  0  0  0  0  0  0  0  0  0
  149.7906  134.2636  157.4346 O   0  0  0  0  0  0  0  0  0  0  0  0
  150.9043  136.1864  156.6080 C   0  0  0  0  0  0  0  0  0  0  0  0
  151.5564  136.6923  155.6082 N   0  0  0  0  0  0  0  0  0  0  0  0
  152.2172  137.9005  155.6996 N   0  0  0  0  0  0  0  0  0  0  0  0
  152.6661  138.4526  154.4228 C   0  0  0  0  0  0  0  0  0  0  0  0
  152.4782  138.5511  156.8607 C   0  0  0  0  0  0  0  0  0  0  0  0
  153.0535  139.6376  156.9219 O   0  0  0  0  0  0  0  0  0  0  0  0
  152.0442  137.8477  158.1499 C   0  0  0  0  0  0  0  0  0  0  0  0
  150.8300  136.9232  157.9311 C   0  0  0  0  0  0  0  0  0  0  0  0
  146.9604  133.6719  152.4172 C   0  0  0  0  0  0  0  0  0  0  0  0
  145.4928  132.9022  151.8797 S   0  0  0  0  0  0  0  0  0  0  0  0
  146.2652  129.2165  151.9321 H   0  0  0  0  0  0  0  0  0  0  0  0
  145.0650  130.0610  150.9404 H   0  0  0  0  0  0  0  0  0  0  0  0
  144.7990  129.8712  152.6825 H   0  0  0  0  0  0  0  0  0  0  0  0
  149.9757  132.2457  153.0003 H   0  0  0  0  0  0  0  0  0  0  0  0
  149.6815  133.9488  152.7990 H   0  0  0  0  0  0  0  0  0  0  0  0
  148.3123  133.2283  155.2155 H   0  0  0  0  0  0  0  0  0  0  0  0
  149.8491  132.3965  155.2748 H   0  0  0  0  0  0  0  0  0  0  0  0
  150.3721  135.0350  154.4406 H   0  0  0  0  0  0  0  0  0  0  0  0
  153.7501  138.5756  154.4153 H   0  0  0  0  0  0  0  0  0  0  0  0
  152.2106  139.4281  154.2464 H   0  0  0  0  0  0  0  0  0  0  0  0
  152.4012  137.8091  153.5821 H   0  0  0  0  0  0  0  0  0  0  0  0
  152.8928  137.2611  158.5040 H   0  0  0  0  0  0  0  0  0  0  0  0
  151.8260  138.5839  158.9242 H   0  0  0  0  0  0  0  0  0  0  0  0
  149.9083  137.5053  157.9662 H   0  0  0  0  0  0  0  0  0  0  0  0
  150.7803  136.2191  158.7625 H   0  0  0  0  0  0  0  0  0  0  0  0
  147.0293  134.7495  152.4394 H   0  0  0  0  0  0  0  0  0  0  0  0
  1  2  1  0  0  0  0
  1 20  1  0  0  0  0
  1 21  1  0  0  0  0
  1 22  1  0  0  0  0
  2 19  1  0  0  0  0
  2  3  2  0  0  0  0
  3  4  1  0  0  0  0
  4  5  1  0  0  0  0
  4 18  2  0  0  0  0
  5  6  1  0  0  0  0
  5 23  1  0  0  0  0
  5 24  1  0  0  0  0
  6  7  1  0  0  0  0
  6 25  1  0  0  0  0
  6 26  1  0  0  0  0
  7  8  1  0  0  0  0
  7 27  1  0  0  0  0
  8  9  2  0  0  0  0
  8 10  1  0  0  0  0
 10 17  1  0  0  0  0
 10 11  2  0  0  0  0
 11 12  1  0  0  0  0
 12 13  1  0  0  0  0
 12 14  1  0  0  0  0
 13 28  1  0  0  0  0
 13 29  1  0  0  0  0
 13 30  1  0  0  0  0
 14 15  2  0  0  0  0
 14 16  1  0  0  0  0
 16 17  1  0  0  0  0
 16 31  1  0  0  0  0
 16 32  1  0  0  0  0
 17 33  1  0  0  0  0
 17 34  1  0  0  0  0
 18 19  1  0  0  0  0
 18 35  1  0  0  0  0
M  END
> <s_m_source_file>
AV-unprocessed.smi

> <i_m_source_file_index>
2018

> <i_lp_mmshare_version>
43012

> <i_f3d_flags>
0

> <s_epik_input>
W0NIM11jMW5jKFtjSF1zMSlbQ0gyXVtDSDJdW05IXUMoPU8pQzI9Tk4oW0NIM10pQyg9TylbQ0gyXVtDSDJdMg==

> <s_epik_cmdline>
J2VwaWtfcHl0aG9uJywgJy1waCcsICc3LjAnLCAnLXRuJywgJzgnLCAnLW1hJywgJzIwMCcsICctbWV0YWxfYmluZGluZycsICctaW1hZScsICc8aW5maWxlLm1hZT4nLCAnLW9tYWUnLCAnPG91dGZpbGUubWFlPic=

> <r_epik_Ionization_Penalty>
0.000694267

> <r_epik_Ionization_Penalty_Charging>
0

> <r_epik_Ionization_Penalty_Neutral>
0.000694267

> <r_epik_State_Penalty>
0.000389372

> <r_epik_Charging_Adjusted_Penalty>
0.000389372

> <i_epik_Tot_Q>
0

> <i_epik_Tot_abs_Q>
0

> <r_epik_Metal_State_Penalty>
0.0645979

> <b_epik_Metal_Only>
0

> <s_epik_Chemistry_Notes>
This compound has an imine and may undergo hydrolysis.

> <s_lp_Force_Field>
OPLS_2005

> <r_lp_Energy>
11.1599

> <b_lp_Chiralities_Consistent>
1

> <s_lp_Variant>
AV-unprocessed.smi:2018-1

> <Gold.Version>
5.8.1

> <Gold.Id.Protein>
6NUR|6NUR_protein|mol2

> <Gold.PLP.Fitness>
38.6527

> <Gold.PLP.PLP>
-28.3326

> <Gold.PLP.part.hbond>
-2.7972

> <Gold.PLP.part.metal>
0.0000

> <Gold.PLP.part.buried>
-4.7013

> <Gold.PLP.part.nonpolar>
-21.9192

> <Gold.PLP.part.repulsive>
1.5739

> <Gold.PLP.ligand.clash>
0.0000

> <Gold.PLP.ligand.torsion>
0.8261

> <Gold.PLP.Chemscore.Hbond>
2.9833

> <Gold.PLP.Chemscore.CHOScore>
1.0000

> <Gold.PLP.Chemscore.Metal>
0.0000

> <Gold.Chemscore.Hbonds>
donor molecule, donor type, donor heavy atom, donor atom, acceptor molecule, acceptor atom, score
      P1  H  6896  6908       L1     9  0.78
      P1  H  7997  8009       L1    15  0.88
      P1  H 10752 10764       L1    11  1.00
      L1  C    18    35       P1  7948  0.97

> <Gold.PLP.Chemscore.Internal.Correction>
0.0225

> <Gold.Rescore>
     Score         DG    S(hbond)    S(metal)    S(lipo)     H(rot)  DE(clash)    DE(int)     intcor
     15.12     -16.10       2.09        0.00      62.81       1.45       0.19       0.79       ----

> <Gold.Chemscore.Fitness>
15.1186

> <Gold.Chemscore.DG>
-16.0978

> <Gold.Chemscore.ZeroCoef>
-5.4800

> <Gold.Chemscore.Hbond>
2.0885

> <Gold.Chemscore.Metal>
0.0000

> <Gold.Chemscore.Lipo>
62.8130

> <Gold.Chemscore.Internal_Hbond>
0.0000

> <Gold.Chemscore.DEClash>
0.1889

> <Gold.Chemscore.DEInternal>
0.7902

> <Gold.Chemscore.Rot>
1.4480

> <Gold.Chemscore.Internal.Correction>
   9.000000E+99

> <Gold.Chemscore.Hbonds>
donor molecule, donor type, donor heavy atom, donor atom, acceptor molecule, acceptor atom, score
      P1  H  6896  6908       L1     9  0.72
      P1  H  7997  8009       L1    15  0.83
      P1  H 10752 10764       L1    11  0.23

> <Gold.Chemscore.Hbond.Weighted>
-6.9756

> <Gold.Chemscore.Metal.Weighted>
-0.0000

> <Gold.Chemscore.Lipo.Weighted>
-7.3491

> <Gold.Chemscore.Internal_Hbond.Weighted>
0.0000

> <Gold.Chemscore.DEClash.Weighted>
0.1889

> <Gold.Chemscore.DEInternal.Weighted>
0.7902

> <Gold.Chemscore.Rot.Weighted>
3.7070

> <Gold.Chemscore.Internal.Correction.Weighted>
   9.000000E+99

> <Gold.Protein.RotatedTorsions>
[ 6907 6896 6895 6894 ] final  124.50 input  -60.11 | X-H torsion
[ 7974 7965 7964 7962 ] final  179.01 input  175.53 | X-H torsion
[ 8008 7997 7996 7995 ] final -162.11 input   59.86 | X-H torsion
[ 10167 10162 10161 10158 ] final -150.36 input  -65.29 | X-H torsion
[ 10718 10713 10712 10709 ] final    6.05 input   66.30 | X-H torsion
[ 10763 10752 10751 10750 ] final  -50.25 input  -60.55 | X-H torsion
[ 11005 11000 10999 10996 ] final   57.14 input  -57.11 | X-H torsion

> <Gold.Protein.ActiveResidues>
 VAL166  LYS551  ARG553  GLY616  TRP617  ASP618  TYR619  PRO620  LYS621  CYS622 
 ASP623  PHE694  ASN695  SER759  ASP760  ASP761  ALA762  ILE779  LEU786  VAL792 
 PHE793  MET794  SER795  GLU796  ALA797  LYS798  CYS799  TRP800  GLU811  SER814 

> <Gold.Protein.RotatedAtoms>
  152.4073  133.6908  159.6366 H   0  0  0  0  0  0  0  0  0  0  0  0  # atno 6907 bound_to 6896
  150.7956  133.8686  159.3261 H   0  0  0  0  0  0  0  0  0  0  0  0  # atno 6908 bound_to 6896
  151.6438  135.1011  160.0198 H   0  0  0  0  0  0  0  0  0  0  0  0  # atno 6909 bound_to 6896
  144.7150  140.0483  143.6436 H   0  0  0  0  0  0  0  0  0  0  0  0  # atno 7974 bound_to 7965
  155.8020  140.0893  157.1952 H   0  0  0  0  0  0  0  0  0  0  0  0  # atno 8008 bound_to 7997
  154.3982  140.1470  156.3344 H   0  0  0  0  0  0  0  0  0  0  0  0  # atno 8009 bound_to 7997
  155.8453  140.3437  155.5661 H   0  0  0  0  0  0  0  0  0  0  0  0  # atno 8010 bound_to 7997
  139.7361  143.8734  152.2549 H   0  0  0  0  0  0  0  0  0  0  0  0  # atno 10167 bound_to 10162
  156.9165  130.5775  149.5647 H   0  0  0  0  0  0  0  0  0  0  0  0  # atno 10718 bound_to 10713
  154.1073  135.6554  153.4879 H   0  0  0  0  0  0  0  0  0  0  0  0  # atno 10763 bound_to 10752
  153.0268  135.5239  154.7227 H   0  0  0  0  0  0  0  0  0  0  0  0  # atno 10764 bound_to 10752
  154.6396  135.2986  155.0088 H   0  0  0  0  0  0  0  0  0  0  0  0  # atno 10765 bound_to 10752
  140.0475  134.5785  155.9305 H   0  0  0  0  0  0  0  0  0  0  0  0  # atno 11005 bound_to 11000
  145.9966  139.3057  143.0953 LP  0  0  0  0  0  0  0  0  0  0  0  0  # atno 17320 bound_to 7965
  145.8842  140.9344  143.0585 LP  0  0  0  0  0  0  0  0  0  0  0  0  # atno 17321 bound_to 7965
  139.8671  144.7087  150.9031 LP  0  0  0  0  0  0  0  0  0  0  0  0  # atno 17342 bound_to 10162
  140.7779  143.3769  151.1547 LP  0  0  0  0  0  0  0  0  0  0  0  0  # atno 17343 bound_to 10162
  156.0511  130.5580  150.8991 LP  0  0  0  0  0  0  0  0  0  0  0  0  # atno 17370 bound_to 10713
  157.5935  131.0944  150.9080 LP  0  0  0  0  0  0  0  0  0  0  0  0  # atno 17371 bound_to 10713
  141.1914  133.6571  156.5455 LP  0  0  0  0  0  0  0  0  0  0  0  0  # atno 17394 bound_to 11000
  140.3970  134.7390  157.4757 LP  0  0  0  0  0  0  0  0  0  0  0  0  # atno 17395 bound_to 11000

$$$$
