AV-unprocessed.smi:498|AV-procd|sdf|2731|dock1
  -GOLD-   2262023183D 1   1.00000     0.00000
 Structure written by MMmdl.
 42 44  0  0  0  0  0  0  0  0  3 V2000
  154.3385  137.3802  159.7798 C   0  0  0  0  0  0  0  0  0  0  0  0
  153.4796  137.9587  158.6528 C   0  0  0  0  0  0  0  0  0  0  0  0
  153.9675  139.2468  158.3173 O   0  0  0  0  0  0  0  0  0  0  0  0
  153.4460  140.2652  159.1533 C   0  0  0  0  0  0  0  0  0  0  0  0
  151.9194  140.2897  159.0069 C   0  0  0  0  0  0  0  0  0  0  0  0
  151.4495  141.5255  158.3496 N   0  0  0  0  0  0  0  0  0  0  0  0
  150.7473  141.7352  157.1881 C   0  0  0  0  0  0  0  0  0  0  0  0
  150.2222  140.7169  156.2109 C   0  0  0  0  0  0  0  0  0  0  0  0
  148.8702  141.0311  155.7518 N   0  5  0  0  0  0  0  0  0  0  0  0
  148.5995  141.7018  154.5973 C   0  0  0  0  0  0  0  0  0  0  0  0
  149.2671  141.7934  153.5615 O   0  0  0  0  0  0  0  0  0  0  0  0
  147.2778  142.3692  154.6400 C   0  0  0  0  0  0  0  0  0  0  0  0
  146.5663  143.0591  153.6909 C   0  0  0  0  0  0  0  0  0  0  0  0
  145.3427  143.4531  154.2993 C   0  0  0  0  0  0  0  0  0  0  0  0
  145.3855  142.9676  155.5741 C   0  0  0  0  0  0  0  0  0  0  0  0
  146.5512  142.3017  155.7946 O   0  0  0  0  0  0  0  0  0  0  0  0
  150.5759  143.0840  157.0700 N   0  3  0  0  0  0  0  0  0  0  0  0
  151.1607  143.7425  158.1491 C   0  0  0  0  0  0  0  0  0  0  0  0
  151.2374  145.0973  158.4554 C   0  0  0  0  0  0  0  0  0  0  0  0
  151.9031  145.4385  159.6507 C   0  0  0  0  0  0  0  0  0  0  0  0
  152.4595  144.4497  160.4877 C   0  0  0  0  0  0  0  0  0  0  0  0
  152.3764  143.0793  160.1643 C   0  0  0  0  0  0  0  0  0  0  0  0
  151.7188  142.7495  158.9784 C   0  0  0  0  0  0  0  0  0  0  0  0
  153.9941  136.3849  160.0613 H   0  0  0  0  0  0  0  0  0  0  0  0
  154.2966  138.0118  160.6674 H   0  0  0  0  0  0  0  0  0  0  0  0
  155.3820  137.2990  159.4742 H   0  0  0  0  0  0  0  0  0  0  0  0
  153.5184  137.3029  157.7818 H   0  0  0  0  0  0  0  0  0  0  0  0
  152.4390  138.0214  158.9741 H   0  0  0  0  0  0  0  0  0  0  0  0
  153.7187  140.0751  160.1927 H   0  0  0  0  0  0  0  0  0  0  0  0
  153.8693  141.2303  158.8713 H   0  0  0  0  0  0  0  0  0  0  0  0
  151.5672  139.4289  158.4382 H   0  0  0  0  0  0  0  0  0  0  0  0
  151.4449  140.2109  159.9851 H   0  0  0  0  0  0  0  0  0  0  0  0
  150.9185  140.6588  155.3744 H   0  0  0  0  0  0  0  0  0  0  0  0
  150.2680  139.7439  156.7012 H   0  0  0  0  0  0  0  0  0  0  0  0
  146.8881  143.2565  152.6789 H   0  0  0  0  0  0  0  0  0  0  0  0
  144.5334  144.0161  153.8585 H   0  0  0  0  0  0  0  0  0  0  0  0
  144.7068  142.9997  156.4135 H   0  0  0  0  0  0  0  0  0  0  0  0
  150.8084  145.8539  157.8150 H   0  0  0  0  0  0  0  0  0  0  0  0
  151.9869  146.4783  159.9316 H   0  0  0  0  0  0  0  0  0  0  0  0
  152.9603  144.7482  161.3972 H   0  0  0  0  0  0  0  0  0  0  0  0
  152.8041  142.3315  160.8153 H   0  0  0  0  0  0  0  0  0  0  0  0
  150.0905  143.5081  156.2895 H   0  0  0  0  0  0  0  0  0  0  0  0
  1  2  1  0  0  0  0
  1 24  1  0  0  0  0
  1 25  1  0  0  0  0
  1 26  1  0  0  0  0
  2  3  1  0  0  0  0
  2 27  1  0  0  0  0
  2 28  1  0  0  0  0
  3  4  1  0  0  0  0
  4  5  1  0  0  0  0
  4 29  1  0  0  0  0
  4 30  1  0  0  0  0
  5  6  1  0  0  0  0
  5 31  1  0  0  0  0
  5 32  1  0  0  0  0
  6 23  1  0  0  0  0
  6  7  1  0  0  0  0
  7  8  1  0  0  0  0
  7 17  2  0  0  0  0
  8  9  1  0  0  0  0
  8 33  1  0  0  0  0
  8 34  1  0  0  0  0
  9 10  1  0  0  0  0
 10 11  2  0  0  0  0
 10 12  1  0  0  0  0
 12 16  1  0  0  0  0
 12 13  2  0  0  0  0
 13 14  1  0  0  0  0
 13 35  1  0  0  0  0
 14 15  2  0  0  0  0
 14 36  1  0  0  0  0
 15 16  1  0  0  0  0
 15 37  1  0  0  0  0
 17 18  1  0  0  0  0
 17 42  1  0  0  0  0
 18 23  2  0  0  0  0
 18 19  1  0  0  0  0
 19 20  2  0  0  0  0
 19 38  1  0  0  0  0
 20 21  1  0  0  0  0
 20 39  1  0  0  0  0
 21 22  2  0  0  0  0
 21 40  1  0  0  0  0
 22 23  1  0  0  0  0
 22 41  1  0  0  0  0
M  CHG  1   9  -1
M  CHG  1  17   1
M  END
> <s_m_source_file>
AV-unprocessed.smi

> <i_m_source_file_index>
498

> <i_lp_mmshare_version>
43012

> <i_f3d_flags>
0

> <s_epik_input>
W0NIM11bQ0gyXU9bQ0gyXVtDSDJdbihjKGMxMilbY0hdW2NIXVtjSF1bY0hdMiljKG4xKVtDSDJdW05IXUMoPU8pYzNbY0hdW2NIXVtjSF1vMw==

> <s_epik_cmdline>
J2VwaWtfcHl0aG9uJywgJy1waCcsICc3LjAnLCAnLXRuJywgJzgnLCAnLW1hJywgJzIwMCcsICctbWV0YWxfYmluZGluZycsICctaW1hZScsICc8aW5maWxlLm1hZT4nLCAnLW9tYWUnLCAnPG91dGZpbGUubWFlPic=

> <r_epik_Ionization_Penalty>
6.05973

> <r_epik_Ionization_Penalty_Charging>
6.05973

> <r_epik_Ionization_Penalty_Neutral>
2.61143e-12

> <r_epik_State_Penalty>
7.27867

> <r_epik_Charging_Adjusted_Penalty>
13.3384

> <i_epik_Tot_Q>
0

> <i_epik_Tot_abs_Q>
2

> <r_epik_Metal_State_Penalty>
3.28829

> <b_epik_Metal_Only>
1

> <s_lp_Force_Field>
OPLS_2005

> <r_lp_Energy>
13.3144

> <b_lp_Chiralities_Consistent>
1

> <s_lp_Variant>
AV-unprocessed.smi:498-4

> <Gold.Version>
5.8.1

> <Gold.Id.Protein>
6NUR|6NUR_protein|mol2

> <Gold.PLP.Fitness>
57.2035

> <Gold.PLP.PLP>
-47.6680

> <Gold.PLP.part.hbond>
-4.0000

> <Gold.PLP.part.metal>
0.0000

> <Gold.PLP.part.buried>
-8.3203

> <Gold.PLP.part.nonpolar>
-36.5175

> <Gold.PLP.part.repulsive>
1.6405

> <Gold.PLP.ligand.clash>
0.0000

> <Gold.PLP.ligand.torsion>
1.0540

> <Gold.PLP.Chemscore.Hbond>
3.6720

> <Gold.PLP.Chemscore.CHOScore>
0.0000

> <Gold.PLP.Chemscore.Metal>
0.0000

> <Gold.Chemscore.Hbonds>
donor molecule, donor type, donor heavy atom, donor atom, acceptor molecule, acceptor atom, score
      L1  H    17    42       P1  8028  1.98
      P1  H  7997  8008       L1     3  1.00
      P1  H  8011  8017       L1    11  0.56

> <Gold.PLP.Chemscore.Internal.Correction>
0.6275

> <Gold.Rescore>
     Score         DG    S(hbond)    S(metal)    S(lipo)     H(rot)  DE(clash)    DE(int)     intcor
     21.18     -22.26       2.55        0.00     113.51       1.96       0.10       0.98       ----

> <Gold.Chemscore.Fitness>
21.1759

> <Gold.Chemscore.DG>
-22.2574

> <Gold.Chemscore.ZeroCoef>
-5.4800

> <Gold.Chemscore.Hbond>
2.5521

> <Gold.Chemscore.Metal>
0.0000

> <Gold.Chemscore.Lipo>
113.5071

> <Gold.Chemscore.Internal_Hbond>
0.0000

> <Gold.Chemscore.DEClash>
0.1002

> <Gold.Chemscore.DEInternal>
0.9813

> <Gold.Chemscore.Rot>
1.9637

> <Gold.Chemscore.Internal.Correction>
   9.000000E+99

> <Gold.Chemscore.Hbonds>
donor molecule, donor type, donor heavy atom, donor atom, acceptor molecule, acceptor atom, score
      L1  H    17    42       P1  8028  0.93
      P1  H  7997  8008       L1     3  0.49
      P1  H  8011  8017       L1    11  0.55

> <Gold.Chemscore.Hbond.Weighted>
-8.5241

> <Gold.Chemscore.Metal.Weighted>
-0.0000

> <Gold.Chemscore.Lipo.Weighted>
-13.2803

> <Gold.Chemscore.Internal_Hbond.Weighted>
0.0000

> <Gold.Chemscore.DEClash.Weighted>
0.1002

> <Gold.Chemscore.DEInternal.Weighted>
0.9813

> <Gold.Chemscore.Rot.Weighted>
5.0270

> <Gold.Chemscore.Internal.Correction.Weighted>
   9.000000E+99

> <Gold.Protein.RotatedTorsions>
[ 6907 6896 6895 6894 ] final    4.70 input  -60.11 | X-H torsion
[ 7974 7965 7964 7962 ] final  155.91 input  175.53 | X-H torsion
[ 8008 7997 7996 7995 ] final  -84.08 input   59.86 | X-H torsion
[ 10167 10162 10161 10158 ] final  -15.90 input  -65.29 | X-H torsion
[ 10718 10713 10712 10709 ] final   42.92 input   66.30 | X-H torsion
[ 10763 10752 10751 10750 ] final  -63.78 input  -60.55 | X-H torsion
[ 11005 11000 10999 10996 ] final  145.49 input  -57.11 | X-H torsion

> <Gold.Protein.ActiveResidues>
 VAL166  LYS551  ARG553  GLY616  TRP617  ASP618  TYR619  PRO620  LYS621  CYS622 
 ASP623  PHE694  ASN695  SER759  ASP760  ASP761  ALA762  ILE779  LEU786  VAL792 
 PHE793  MET794  SER795  GLU796  ALA797  LYS798  CYS799  TRP800  GLU811  SER814 

> <Gold.Protein.RotatedAtoms>
  151.6455  135.1008  160.0149 H   0  0  0  0  0  0  0  0  0  0  0  0  # atno 6907 bound_to 6896
  152.4030  133.6842  159.6341 H   0  0  0  0  0  0  0  0  0  0  0  0  # atno 6908 bound_to 6896
  150.7928  133.8675  159.3290 H   0  0  0  0  0  0  0  0  0  0  0  0  # atno 6909 bound_to 6896
  144.7995  139.7132  143.6188 H   0  0  0  0  0  0  0  0  0  0  0  0  # atno 7974 bound_to 7965
  154.6260  140.0610  156.9674 H   0  0  0  0  0  0  0  0  0  0  0  0  # atno 8008 bound_to 7997
  155.1741  140.3293  155.4368 H   0  0  0  0  0  0  0  0  0  0  0  0  # atno 8009 bound_to 7997
  156.2457  140.1909  156.6842 H   0  0  0  0  0  0  0  0  0  0  0  0  # atno 8010 bound_to 7997
  140.7225  143.5171  150.9679 H   0  0  0  0  0  0  0  0  0  0  0  0  # atno 10167 bound_to 10162
  157.4101  130.7909  149.7423 H   0  0  0  0  0  0  0  0  0  0  0  0  # atno 10718 bound_to 10713
  154.3203  135.6197  153.5505 H   0  0  0  0  0  0  0  0  0  0  0  0  # atno 10763 bound_to 10752
  152.9820  135.5722  154.5078 H   0  0  0  0  0  0  0  0  0  0  0  0  # atno 10764 bound_to 10752
  154.4744  135.2860  155.1595 H   0  0  0  0  0  0  0  0  0  0  0  0  # atno 10765 bound_to 10752
  140.0717  134.9148  157.1355 H   0  0  0  0  0  0  0  0  0  0  0  0  # atno 11005 bound_to 11000
  146.2273  139.5747  142.9578 LP  0  0  0  0  0  0  0  0  0  0  0  0  # atno 17320 bound_to 7965
  145.5588  141.0406  143.2238 LP  0  0  0  0  0  0  0  0  0  0  0  0  # atno 17321 bound_to 7965
  139.8887  143.6981  152.3148 LP  0  0  0  0  0  0  0  0  0  0  0  0  # atno 17342 bound_to 10162
  139.7289  144.7587  151.0834 LP  0  0  0  0  0  0  0  0  0  0  0  0  # atno 17343 bound_to 10162
  155.9848  130.3988  150.3293 LP  0  0  0  0  0  0  0  0  0  0  0  0  # atno 17370 bound_to 10713
  157.1430  131.0301  151.2919 LP  0  0  0  0  0  0  0  0  0  0  0  0  # atno 17371 bound_to 10713
  140.3618  134.2486  155.7186 LP  0  0  0  0  0  0  0  0  0  0  0  0  # atno 17394 bound_to 11000
  141.2014  133.7963  157.0442 LP  0  0  0  0  0  0  0  0  0  0  0  0  # atno 17395 bound_to 11000

$$$$
