AV-unprocessed.smi:2362|AV-procd|sdf|9414|dock4
  -GOLD-   2272013 53D 1   1.00000     0.00000
 Structure written by MMmdl.
 45 46  0  0  0  0  0  0  0  0  2 V2000
  152.0471  141.7338  158.7593 C   0  0  0  0  0  0  0  0  0  0  0  0
  151.3299  141.0422  157.6189 C   0  0  0  0  0  0  0  0  0  0  0  0
  150.4034  141.7315  156.8134 C   0  0  0  0  0  0  0  0  0  0  0  0
  149.7675  141.0380  155.7655 C   0  0  0  0  0  0  0  0  0  0  0  0
  150.0706  139.6751  155.5485 C   0  0  0  0  0  0  0  0  0  0  0  0
  149.3790  139.0693  154.4654 N   0  0  0  0  0  0  0  0  0  0  0  0
  148.1014  139.2557  154.0903 C   0  0  0  0  0  0  0  0  0  0  0  0
  147.3101  140.0357  154.6208 O   0  0  0  0  0  0  0  0  0  0  0  0
  147.7755  138.4671  153.0544 N   0  0  0  0  0  0  0  0  0  0  0  0
  146.4757  138.4288  152.3816 C   0  0  1  0  0  0  0  0  0  0  0  0
  146.6918  138.5565  150.8676 C   0  0  0  0  0  0  0  0  0  0  0  0
  145.6950  137.1390  152.7275 C   0  0  0  0  0  0  0  0  0  0  0  0
  146.3276  135.9077  152.1881 N   0  3  0  0  0  0  0  0  0  0  0  0
  145.7757  135.5071  150.8684 C   0  0  0  0  0  0  0  0  0  0  0  0
  146.5667  134.3289  150.2743 C   0  0  0  0  0  0  0  0  0  0  0  0
  146.5951  133.1390  151.2425 C   0  0  0  0  0  0  0  0  0  0  0  0
  147.1304  133.5870  152.6088 C   0  0  0  0  0  0  0  0  0  0  0  0
  146.3207  134.7757  153.1522 C   0  0  0  0  0  0  0  0  0  0  0  0
  150.9663  139.0202  156.3288 N   0  0  0  0  0  0  0  0  0  0  0  0
  151.5750  139.6853  157.3331 C   0  0  0  0  0  0  0  0  0  0  0  0
  151.7117  142.7653  158.8721 H   0  0  0  0  0  0  0  0  0  0  0  0
  153.1222  141.7417  158.5790 H   0  0  0  0  0  0  0  0  0  0  0  0
  151.8597  141.2103  159.6972 H   0  0  0  0  0  0  0  0  0  0  0  0
  150.1811  142.7734  156.9912 H   0  0  0  0  0  0  0  0  0  0  0  0
  149.0543  141.5527  155.1382 H   0  0  0  0  0  0  0  0  0  0  0  0
  149.9171  138.4094  153.9234 H   0  0  0  0  0  0  0  0  0  0  0  0
  148.4914  137.8584  152.6843 H   0  0  0  0  0  0  0  0  0  0  0  0
  145.8909  139.2973  152.6876 H   0  0  0  0  0  0  0  0  0  0  0  0
  145.7394  138.5802  150.3371 H   0  0  0  0  0  0  0  0  0  0  0  0
  147.2698  137.7193  150.4746 H   0  0  0  0  0  0  0  0  0  0  0  0
  147.2257  139.4753  150.6220 H   0  0  0  0  0  0  0  0  0  0  0  0
  145.5699  137.0408  153.8070 H   0  0  0  0  0  0  0  0  0  0  0  0
  144.6890  137.2360  152.3160 H   0  0  0  0  0  0  0  0  0  0  0  0
  144.7231  135.2413  150.9773 H   0  0  0  0  0  0  0  0  0  0  0  0
  145.8219  136.3494  150.1773 H   0  0  0  0  0  0  0  0  0  0  0  0
  146.1274  134.0255  149.3236 H   0  0  0  0  0  0  0  0  0  0  0  0
  147.5871  134.6471  150.0564 H   0  0  0  0  0  0  0  0  0  0  0  0
  145.5898  132.7311  151.3556 H   0  0  0  0  0  0  0  0  0  0  0  0
  147.2147  132.3378  150.8386 H   0  0  0  0  0  0  0  0  0  0  0  0
  147.0942  132.7564  153.3143 H   0  0  0  0  0  0  0  0  0  0  0  0
  148.1799  133.8707  152.5178 H   0  0  0  0  0  0  0  0  0  0  0  0
  146.7459  135.0879  154.1056 H   0  0  0  0  0  0  0  0  0  0  0  0
  145.2923  134.4702  153.3512 H   0  0  0  0  0  0  0  0  0  0  0  0
  152.2785  139.1169  157.9240 H   0  0  0  0  0  0  0  0  0  0  0  0
  147.2969  136.1411  152.0248 H   0  0  0  0  0  0  0  0  0  0  0  0
  1  2  1  0  0  0  0
  1 21  1  0  0  0  0
  1 22  1  0  0  0  0
  1 23  1  0  0  0  0
  2 20  1  0  0  0  0
  2  3  2  0  0  0  0
  3  4  1  0  0  0  0
  3 24  1  0  0  0  0
  4  5  2  0  0  0  0
  4 25  1  0  0  0  0
  5  6  1  0  0  0  0
  5 19  1  0  0  0  0
  6  7  1  0  0  0  0
  6 26  1  0  0  0  0
  7  8  2  0  0  0  0
  7  9  1  0  0  0  0
  9 10  1  0  0  0  0
  9 27  1  0  0  0  0
 10 11  1  0  0  0  0
 10 12  1  0  0  0  0
 10 28  1  0  0  0  0
 11 29  1  0  0  0  0
 11 30  1  0  0  0  0
 11 31  1  0  0  0  0
 12 13  1  0  0  0  0
 12 32  1  0  0  0  0
 12 33  1  0  0  0  0
 13 18  1  0  0  0  0
 13 14  1  0  0  0  0
 13 45  1  0  0  0  0
 14 15  1  0  0  0  0
 14 34  1  0  0  0  0
 14 35  1  0  0  0  0
 15 16  1  0  0  0  0
 15 36  1  0  0  0  0
 15 37  1  0  0  0  0
 16 17  1  0  0  0  0
 16 38  1  0  0  0  0
 16 39  1  0  0  0  0
 17 18  1  0  0  0  0
 17 40  1  0  0  0  0
 17 41  1  0  0  0  0
 18 42  1  0  0  0  0
 18 43  1  0  0  0  0
 19 20  2  0  0  0  0
 20 44  1  0  0  0  0
M  CHG  1  13   1
M  END
> <s_m_source_file>
AV-unprocessed.smi

> <i_m_source_file_index>
2362

> <i_lp_mmshare_version>
43012

> <i_f3d_flags>
0

> <s_epik_input>
W0NIM11jMVtjSF1bY0hdYyhuW2NIXTEpW05IXUMoPU8pW05IXVtDQEhdKFtDSDNdKVtDSDJdTjJbQ0gyXVtDSDJdW0NIMl1bQ0gyXVtDSDJdMg==

> <s_epik_cmdline>
J2VwaWtfcHl0aG9uJywgJy1waCcsICc3LjAnLCAnLXRuJywgJzgnLCAnLW1hJywgJzIwMCcsICctbWV0YWxfYmluZGluZycsICctaW1hZScsICc8aW5maWxlLm1hZT4nLCAnLW9tYWUnLCAnPG91dGZpbGUubWFlPic=

> <r_epik_Ionization_Penalty>
0.00215987

> <r_epik_Ionization_Penalty_Charging>
0.00211816

> <r_epik_Ionization_Penalty_Neutral>
4.17101e-05

> <r_epik_State_Penalty>
0.00145254

> <r_epik_Charging_Adjusted_Penalty>
0.0035707

> <i_epik_Tot_Q>
1

> <i_epik_Tot_abs_Q>
1

> <r_epik_Metal_State_Penalty>
-0

> <b_epik_Metal_Only>
0

> <s_lp_Force_Field>
OPLS_2005

> <r_lp_Energy>
24.6446

> <b_lp_Chiralities_Consistent>
1

> <s_lp_Variant>
AV-unprocessed.smi:2362-2

> <Gold.Version>
5.8.1

> <Gold.Id.Protein>
6NUR|6NUR_protein|mol2

> <Gold.PLP.Fitness>
36.8243

> <Gold.PLP.PLP>
-29.6645

> <Gold.PLP.part.hbond>
-3.0000

> <Gold.PLP.part.metal>
0.0000

> <Gold.PLP.part.buried>
0.9865

> <Gold.PLP.part.nonpolar>
-27.0886

> <Gold.PLP.part.repulsive>
0.2287

> <Gold.PLP.ligand.clash>
0.0000

> <Gold.PLP.ligand.torsion>
0.9524

> <Gold.PLP.Chemscore.Hbond>
3.0000

> <Gold.PLP.Chemscore.CHOScore>
0.0000

> <Gold.PLP.Chemscore.Metal>
0.0000

> <Gold.Chemscore.Hbonds>
donor molecule, donor type, donor heavy atom, donor atom, acceptor molecule, acceptor atom, score
      L1  H     9    27       P1  7948  0.99
      L1  H    13    45       P1  7948  2.00

> <Gold.PLP.Chemscore.Internal.Correction>
0.0646

> <Gold.Rescore>
     Score         DG    S(hbond)    S(metal)    S(lipo)     H(rot)  DE(clash)    DE(int)     intcor
     14.21     -18.22       1.97        0.00      83.99       1.44       1.76       2.24       ----

> <Gold.Chemscore.Fitness>
14.2126

> <Gold.Chemscore.DG>
-18.2160

> <Gold.Chemscore.ZeroCoef>
-5.4800

> <Gold.Chemscore.Hbond>
1.9750

> <Gold.Chemscore.Metal>
0.0000

> <Gold.Chemscore.Lipo>
83.9915

> <Gold.Chemscore.Internal_Hbond>
0.0000

> <Gold.Chemscore.DEClash>
1.7624

> <Gold.Chemscore.DEInternal>
2.2410

> <Gold.Chemscore.Rot>
1.4404

> <Gold.Chemscore.Internal.Correction>
   9.000000E+99

> <Gold.Chemscore.Hbonds>
donor molecule, donor type, donor heavy atom, donor atom, acceptor molecule, acceptor atom, score
      L1  H     9    27       P1  7948  0.94
      L1  H    13    45       P1  7948  1.00

> <Gold.Chemscore.Hbond.Weighted>
-6.5965

> <Gold.Chemscore.Metal.Weighted>
-0.0000

> <Gold.Chemscore.Lipo.Weighted>
-9.8270

> <Gold.Chemscore.Internal_Hbond.Weighted>
0.0000

> <Gold.Chemscore.DEClash.Weighted>
1.7624

> <Gold.Chemscore.DEInternal.Weighted>
2.2410

> <Gold.Chemscore.Rot.Weighted>
3.6875

> <Gold.Chemscore.Internal.Correction.Weighted>
   9.000000E+99

> <Gold.Protein.RotatedTorsions>
[ 6907 6896 6895 6894 ] final -154.78 input  -60.11 | X-H torsion
[ 7974 7965 7964 7962 ] final   33.78 input  175.53 | X-H torsion
[ 8008 7997 7996 7995 ] final  163.50 input   59.86 | X-H torsion
[ 10167 10162 10161 10158 ] final   99.26 input  -65.29 | X-H torsion
[ 10718 10713 10712 10709 ] final -169.62 input   66.30 | X-H torsion
[ 10763 10752 10751 10750 ] final   13.11 input  -60.55 | X-H torsion
[ 11005 11000 10999 10996 ] final   69.62 input  -57.11 | X-H torsion

> <Gold.Protein.ActiveResidues>
 VAL166  LYS551  ARG553  GLY616  TRP617  ASP618  TYR619  PRO620  LYS621  CYS622 
 ASP623  PHE694  ASN695  SER759  ASP760  ASP761  ALA762  ILE779  LEU786  VAL792 
 PHE793  MET794  SER795  GLU796  ALA797  LYS798  CYS799  TRP800  GLU811  SER814 

> <Gold.Protein.RotatedAtoms>
  151.2626  133.4294  159.2616 H   0  0  0  0  0  0  0  0  0  0  0  0  # atno 6907 bound_to 6896
  151.0517  134.9677  159.8225 H   0  0  0  0  0  0  0  0  0  0  0  0  # atno 6908 bound_to 6896
  152.5383  134.2580  159.8977 H   0  0  0  0  0  0  0  0  0  0  0  0  # atno 6909 bound_to 6896
  146.1398  139.6353  142.9171 H   0  0  0  0  0  0  0  0  0  0  0  0  # atno 7974 bound_to 7965
  156.1952  140.1722  156.8013 H   0  0  0  0  0  0  0  0  0  0  0  0  # atno 8008 bound_to 7997
  154.5520  140.0716  156.8715 H   0  0  0  0  0  0  0  0  0  0  0  0  # atno 8009 bound_to 7997
  155.3010  140.3361  155.4250 H   0  0  0  0  0  0  0  0  0  0  0  0  # atno 8010 bound_to 7997
  139.7633  144.6947  151.0260 H   0  0  0  0  0  0  0  0  0  0  0  0  # atno 10167 bound_to 10162
  156.7142  130.9245  151.3092 H   0  0  0  0  0  0  0  0  0  0  0  0  # atno 10718 bound_to 10713
  153.1754  135.6819  153.8550 H   0  0  0  0  0  0  0  0  0  0  0  0  # atno 10763 bound_to 10752
  153.7900  135.3170  155.3378 H   0  0  0  0  0  0  0  0  0  0  0  0  # atno 10764 bound_to 10752
  154.8026  135.4769  154.0405 H   0  0  0  0  0  0  0  0  0  0  0  0  # atno 10765 bound_to 10752
  139.9643  134.7007  156.0578 H   0  0  0  0  0  0  0  0  0  0  0  0  # atno 11005 bound_to 11000
  145.5074  141.0436  143.2507 LP  0  0  0  0  0  0  0  0  0  0  0  0  # atno 17320 bound_to 7965
  144.7779  139.6589  143.7167 LP  0  0  0  0  0  0  0  0  0  0  0  0  # atno 17321 bound_to 7965
  140.7809  143.4671  151.0197 LP  0  0  0  0  0  0  0  0  0  0  0  0  # atno 17342 bound_to 10162
  139.8357  143.7631  152.3180 LP  0  0  0  0  0  0  0  0  0  0  0  0  # atno 17343 bound_to 10162
  157.6924  130.9247  150.0550 LP  0  0  0  0  0  0  0  0  0  0  0  0  # atno 17370 bound_to 10713
  156.1640  130.3644  149.9259 LP  0  0  0  0  0  0  0  0  0  0  0  0  # atno 17371 bound_to 10713
  141.1322  133.6583  156.3496 LP  0  0  0  0  0  0  0  0  0  0  0  0  # atno 17394 bound_to 11000
  140.5430  134.6101  157.5385 LP  0  0  0  0  0  0  0  0  0  0  0  0  # atno 17395 bound_to 11000

$$$$
