AV-unprocessed.smi:601|AV-procd|sdf|3032|dock5
  -GOLD-   2262023543D 1   1.00000     0.00000
 Structure written by MMmdl.
 50 51  0  0  0  0  0  0  0  0  1 V2000
  147.4589  135.5486  161.1569 C   0  0  0  0  0  0  0  0  0  0  0  0
  147.2219  135.7286  159.6533 C   0  0  0  0  0  0  0  0  0  0  0  0
  148.1560  134.8569  158.8024 C   0  0  0  0  0  0  0  0  0  0  0  0
  148.4096  135.4547  157.4069 C   0  0  0  0  0  0  0  0  0  0  0  0
  149.7334  135.0874  156.8819 N   0  0  0  0  0  0  0  0  0  0  0  0
  150.8338  135.8269  157.1808 C   0  0  0  0  0  0  0  0  0  0  0  0
  151.9300  135.5937  156.6671 O   0  0  0  0  0  0  0  0  0  0  0  0
  150.7231  136.9644  158.2292 C   0  0  1  0  0  0  0  0  0  0  0  0
  151.9814  137.8304  158.3740 C   0  0  0  0  0  0  0  0  0  0  0  0
  151.8317  138.9039  157.3031 C   0  0  0  0  0  0  0  0  0  0  0  0
  150.3607  138.8201  156.8855 C   0  0  0  0  0  0  0  0  0  0  0  0
  149.7596  137.9273  157.8171 O   0  0  0  0  0  0  0  0  0  0  0  0
  149.7890  133.9708  156.0287 C   0  0  0  0  0  0  0  0  0  0  0  0
  149.1912  133.9780  154.8001 C   0  0  0  0  0  0  0  0  0  0  0  0
  148.5288  135.1116  154.3518 N   0  0  0  0  0  0  0  0  0  0  0  0
  149.2226  132.8591  153.9623 N   0  0  0  0  0  0  0  0  0  0  0  0
  148.6115  132.8215  152.6483 C   0  0  0  0  0  0  0  0  0  0  0  0
  147.0901  133.0412  152.6954 C   0  0  0  0  0  0  0  0  0  0  0  0
  146.4671  133.1008  151.2975 C   0  0  0  0  0  0  0  0  0  0  0  0
  149.8387  131.6618  154.4000 C   0  0  0  0  0  0  0  0  0  0  0  0
  149.8695  130.6284  153.7308 O   0  0  0  0  0  0  0  0  0  0  0  0
  150.4280  131.6752  155.6592 N   0  0  0  0  0  0  0  0  0  0  0  0
  150.4537  132.7610  156.5307 C   0  0  0  0  0  0  0  0  0  0  0  0
  151.0014  132.6441  157.6263 O   0  0  0  0  0  0  0  0  0  0  0  0
  150.8700  130.8228  155.9712 H   0  0  0  0  0  0  0  0  0  0  0  0
  146.7807  136.1760  161.7355 H   0  0  0  0  0  0  0  0  0  0  0  0
  148.4786  135.8215  161.4302 H   0  0  0  0  0  0  0  0  0  0  0  0
  147.2954  134.5139  161.4596 H   0  0  0  0  0  0  0  0  0  0  0  0
  146.1837  135.4877  159.4215 H   0  0  0  0  0  0  0  0  0  0  0  0
  147.3614  136.7780  159.3917 H   0  0  0  0  0  0  0  0  0  0  0  0
  149.1022  134.7264  159.3285 H   0  0  0  0  0  0  0  0  0  0  0  0
  147.7225  133.8618  158.6990 H   0  0  0  0  0  0  0  0  0  0  0  0
  147.6330  135.1071  156.7236 H   0  0  0  0  0  0  0  0  0  0  0  0
  148.3051  136.5406  157.4364 H   0  0  0  0  0  0  0  0  0  0  0  0
  150.4500  136.5432  159.1971 H   0  0  0  0  0  0  0  0  0  0  0  0
  151.9848  138.2965  159.3600 H   0  0  0  0  0  0  0  0  0  0  0  0
  152.9130  137.2706  158.2817 H   0  0  0  0  0  0  0  0  0  0  0  0
  152.0854  139.8879  157.6985 H   0  0  0  0  0  0  0  0  0  0  0  0
  152.4825  138.7073  156.4502 H   0  0  0  0  0  0  0  0  0  0  0  0
  149.8661  139.7913  156.9044 H   0  0  0  0  0  0  0  0  0  0  0  0
  150.2669  138.4130  155.8776 H   0  0  0  0  0  0  0  0  0  0  0  0
  148.4703  135.9503  154.9115 H   0  0  0  0  0  0  0  0  0  0  0  0
  148.0328  135.1252  153.4722 H   0  0  0  0  0  0  0  0  0  0  0  0
  149.1062  133.5814  152.0442 H   0  0  0  0  0  0  0  0  0  0  0  0
  148.8754  131.8727  152.1773 H   0  0  0  0  0  0  0  0  0  0  0  0
  146.6162  132.2400  153.2634 H   0  0  0  0  0  0  0  0  0  0  0  0
  146.8685  133.9676  153.2265 H   0  0  0  0  0  0  0  0  0  0  0  0
  145.3901  133.2588  151.3585 H   0  0  0  0  0  0  0  0  0  0  0  0
  146.6371  132.1722  150.7519 H   0  0  0  0  0  0  0  0  0  0  0  0
  146.8912  133.9173  150.7122 H   0  0  0  0  0  0  0  0  0  0  0  0
  1  2  1  0  0  0  0
  1 26  1  0  0  0  0
  1 27  1  0  0  0  0
  1 28  1  0  0  0  0
  2  3  1  0  0  0  0
  2 29  1  0  0  0  0
  2 30  1  0  0  0  0
  3  4  1  0  0  0  0
  3 31  1  0  0  0  0
  3 32  1  0  0  0  0
  4  5  1  0  0  0  0
  4 33  1  0  0  0  0
  4 34  1  0  0  0  0
  5  6  1  0  0  0  0
  5 13  1  0  0  0  0
  6  7  2  0  0  0  0
  6  8  1  0  0  0  0
  8 12  1  0  0  0  0
  8  9  1  0  0  0  0
  8 35  1  0  0  0  0
  9 10  1  0  0  0  0
  9 36  1  0  0  0  0
  9 37  1  0  0  0  0
 10 11  1  0  0  0  0
 10 38  1  0  0  0  0
 10 39  1  0  0  0  0
 11 12  1  0  0  0  0
 11 40  1  0  0  0  0
 11 41  1  0  0  0  0
 13 23  1  0  0  0  0
 13 14  2  0  0  0  0
 14 15  1  0  0  0  0
 14 16  1  0  0  0  0
 15 42  1  0  0  0  0
 15 43  1  0  0  0  0
 16 17  1  0  0  0  0
 16 20  1  0  0  0  0
 17 18  1  0  0  0  0
 17 44  1  0  0  0  0
 17 45  1  0  0  0  0
 18 19  1  0  0  0  0
 18 46  1  0  0  0  0
 18 47  1  0  0  0  0
 19 48  1  0  0  0  0
 19 49  1  0  0  0  0
 19 50  1  0  0  0  0
 20 21  2  0  0  0  0
 20 22  1  0  0  0  0
 22 25  1  0  0  0  0
 22 23  1  0  0  0  0
 23 24  2  0  0  0  0
M  END
> <s_m_source_file>
AV-unprocessed.smi

> <i_m_source_file_index>
601

> <i_lp_mmshare_version>
43012

> <i_f3d_flags>
0

> <s_epik_input>
TzFbQ0gyXVtDSDJdW0NIMl1bQ0BIXTFDKD1PKU4oW0NIMl1bQ0gyXVtDSDJdW0NIM10pYzJjKFtOSDJdKW4oW0NIMl1bQ0gyXVtDSDNdKWMoPU8pW25IXWMyPU8=

> <s_epik_cmdline>
J2VwaWtfcHl0aG9uJywgJy1waCcsICc3LjAnLCAnLXRuJywgJzgnLCAnLW1hJywgJzIwMCcsICctbWV0YWxfYmluZGluZycsICctaW1hZScsICc8aW5maWxlLm1hZT4nLCAnLW9tYWUnLCAnPG91dGZpbGUubWFlPic=

> <r_lp_tautomer_probability>
1

> <r_epik_Ionization_Penalty>
6.19718e-05

> <r_epik_Ionization_Penalty_Charging>
2.78773e-05

> <r_epik_Ionization_Penalty_Neutral>
3.40944e-05

> <r_epik_State_Penalty>
-0

> <r_epik_Charging_Adjusted_Penalty>
2.78773e-05

> <i_epik_Tot_Q>
0

> <i_epik_Tot_abs_Q>
0

> <r_epik_Metal_State_Penalty>
0.0271358

> <b_epik_Metal_Only>
0

> <s_lp_Force_Field>
OPLS_2005

> <r_lp_Energy>
41.2463

> <b_lp_Chiralities_Consistent>
1

> <s_lp_Variant>
AV-unprocessed.smi:601-2

> <Gold.Version>
5.8.1

> <Gold.Id.Protein>
6NUR|6NUR_protein|mol2

> <Gold.PLP.Fitness>
37.3254

> <Gold.PLP.PLP>
-31.7028

> <Gold.PLP.part.hbond>
-2.9201

> <Gold.PLP.part.metal>
0.0000

> <Gold.PLP.part.buried>
-4.3004

> <Gold.PLP.part.nonpolar>
-24.8937

> <Gold.PLP.part.repulsive>
0.1017

> <Gold.PLP.ligand.clash>
0.0000

> <Gold.PLP.ligand.torsion>
2.0736

> <Gold.PLP.Chemscore.Hbond>
2.4480

> <Gold.PLP.Chemscore.CHOScore>
0.0000

> <Gold.PLP.Chemscore.Metal>
0.0000

> <Gold.Chemscore.Hbonds>
donor molecule, donor type, donor heavy atom, donor atom, acceptor molecule, acceptor atom, score
      L1  H    15    43       P1  7948  0.25
      P1  H  6896  6909       L1    24  1.00
      P1  H 10752 10765       L1     7  1.00

> <Gold.PLP.Chemscore.Internal.Correction>
2.4259

> <Gold.Rescore>
     Score         DG    S(hbond)    S(metal)    S(lipo)     H(rot)  DE(clash)    DE(int)     intcor
     12.41     -15.83       2.69        0.00      54.68       1.96       0.12       3.30       ----

> <Gold.Chemscore.Fitness>
12.4138

> <Gold.Chemscore.DG>
-15.8301

> <Gold.Chemscore.ZeroCoef>
-5.4800

> <Gold.Chemscore.Hbond>
2.6860

> <Gold.Chemscore.Metal>
0.0000

> <Gold.Chemscore.Lipo>
54.6794

> <Gold.Chemscore.Internal_Hbond>
0.0000

> <Gold.Chemscore.DEClash>
0.1205

> <Gold.Chemscore.DEInternal>
3.2958

> <Gold.Chemscore.Rot>
1.9603

> <Gold.Chemscore.Internal.Correction>
   9.000000E+99

> <Gold.Chemscore.Hbonds>
donor molecule, donor type, donor heavy atom, donor atom, acceptor molecule, acceptor atom, score
      L1  H    15    43       P1  7948  0.25
      P1  H  6896  6909       L1    24  1.00
      P1  H 10752 10765       L1     7  0.94

> <Gold.Chemscore.Hbond.Weighted>
-8.9711

> <Gold.Chemscore.Metal.Weighted>
-0.0000

> <Gold.Chemscore.Lipo.Weighted>
-6.3975

> <Gold.Chemscore.Internal_Hbond.Weighted>
0.0000

> <Gold.Chemscore.DEClash.Weighted>
0.1205

> <Gold.Chemscore.DEInternal.Weighted>
3.2958

> <Gold.Chemscore.Rot.Weighted>
5.0185

> <Gold.Chemscore.Internal.Correction.Weighted>
   9.000000E+99

> <Gold.Protein.RotatedTorsions>
[ 6907 6896 6895 6894 ] final  -38.73 input  -60.11 | X-H torsion
[ 7974 7965 7964 7962 ] final   75.20 input  175.53 | X-H torsion
[ 8008 7997 7996 7995 ] final   68.09 input   59.86 | X-H torsion
[ 10167 10162 10161 10158 ] final  157.60 input  -65.29 | X-H torsion
[ 10718 10713 10712 10709 ] final   18.44 input   66.30 | X-H torsion
[ 10763 10752 10751 10750 ] final -133.44 input  -60.55 | X-H torsion
[ 11005 11000 10999 10996 ] final  -91.53 input  -57.11 | X-H torsion

> <Gold.Protein.ActiveResidues>
 VAL166  LYS551  ARG553  GLY616  TRP617  ASP618  TYR619  PRO620  LYS621  CYS622 
 ASP623  PHE694  ASN695  SER759  ASP760  ASP761  ALA762  ILE779  LEU786  VAL792 
 PHE793  MET794  SER795  GLU796  ALA797  LYS798  CYS799  TRP800  GLU811  SER814 

> <Gold.Protein.RotatedAtoms>
  150.9989  134.9306  159.7942 H   0  0  0  0  0  0  0  0  0  0  0  0  # atno 6907 bound_to 6896
  152.5272  134.3181  159.9148 H   0  0  0  0  0  0  0  0  0  0  0  0  # atno 6908 bound_to 6896
  151.3186  133.4008  159.2687 H   0  0  0  0  0  0  0  0  0  0  0  0  # atno 6909 bound_to 6896
  145.7186  139.2640  143.1609 H   0  0  0  0  0  0  0  0  0  0  0  0  # atno 7974 bound_to 7965
  155.7030  140.3495  155.4941 H   0  0  0  0  0  0  0  0  0  0  0  0  # atno 8008 bound_to 7997
  155.9423  140.1104  157.1067 H   0  0  0  0  0  0  0  0  0  0  0  0  # atno 8009 bound_to 7997
  154.4105  140.1210  156.4930 H   0  0  0  0  0  0  0  0  0  0  0  0  # atno 8010 bound_to 7997
  139.4823  144.4902  151.8319 H   0  0  0  0  0  0  0  0  0  0  0  0  # atno 10167 bound_to 10162
  157.0964  130.6449  149.5861 H   0  0  0  0  0  0  0  0  0  0  0  0  # atno 10718 bound_to 10713
  154.8732  135.3766  154.4574 H   0  0  0  0  0  0  0  0  0  0  0  0  # atno 10763 bound_to 10752
  153.5245  135.7028  153.5720 H   0  0  0  0  0  0  0  0  0  0  0  0  # atno 10764 bound_to 10752
  153.3952  135.3962  155.1916 H   0  0  0  0  0  0  0  0  0  0  0  0  # atno 10765 bound_to 10752
  141.1542  133.7762  156.9892 H   0  0  0  0  0  0  0  0  0  0  0  0  # atno 11005 bound_to 11000
  146.0647  140.7934  142.9718 LP  0  0  0  0  0  0  0  0  0  0  0  0  # atno 17320 bound_to 7965
  144.6922  140.3250  143.7226 LP  0  0  0  0  0  0  0  0  0  0  0  0  # atno 17321 bound_to 7965
  140.4386  144.2018  150.5890 LP  0  0  0  0  0  0  0  0  0  0  0  0  # atno 17342 bound_to 10162
  140.4706  143.2414  151.9094 LP  0  0  0  0  0  0  0  0  0  0  0  0  # atno 17343 bound_to 10162
  155.9885  130.4928  150.7172 LP  0  0  0  0  0  0  0  0  0  0  0  0  # atno 17370 bound_to 10713
  157.4678  131.0890  151.0676 LP  0  0  0  0  0  0  0  0  0  0  0  0  # atno 17371 bound_to 10713
  140.1014  134.9533  157.1928 LP  0  0  0  0  0  0  0  0  0  0  0  0  # atno 17394 bound_to 11000
  140.3314  134.2806  155.7227 LP  0  0  0  0  0  0  0  0  0  0  0  0  # atno 17395 bound_to 11000

$$$$
