AV-unprocessed.smi:34|AV-procd|sdf|228|dock6
  -GOLD-   2262015553D 1   1.00000     0.00000
 Structure written by MMmdl.
 55 59  0  0  0  0  0  0  0  0  1 V2000
  154.0424  139.6182  159.0750 O   0  0  0  0  0  0  0  0  0  0  0  0
  153.1188  140.4135  158.8989 C   0  0  0  0  0  0  0  0  0  0  0  0
  152.2634  140.3568  157.7272 N   0  0  0  0  0  0  0  0  0  0  0  0
  152.2508  139.4264  156.7443 C   0  0  0  0  0  0  0  0  0  0  0  0
  153.0675  139.4972  155.6604 N   0  0  0  0  0  0  0  0  0  0  0  0
  153.0211  138.5479  154.7217 C   0  0  0  0  0  0  0  0  0  0  0  0
  152.2489  137.4610  154.6749 N   0  0  0  0  0  0  0  0  0  0  0  0
  151.4226  137.3825  155.7564 C   0  0  0  0  0  0  0  0  0  0  0  0
  151.3636  138.3216  156.8238 C   0  0  0  0  0  0  0  0  0  0  0  0
  150.4086  137.9230  157.7496 N   0  0  0  0  0  0  0  0  0  0  0  0
  149.9354  136.8114  157.2545 C   0  0  0  0  0  0  0  0  0  0  0  0
  150.4917  136.4091  156.0605 N   0  0  0  0  0  0  0  0  0  0  0  0
  150.1546  135.1791  155.2810 C   0  0  1  0  0  0  0  0  0  0  0  0
  150.8656  134.1008  155.8116 O   0  0  0  0  0  0  0  0  0  0  0  0
  150.0395  132.9325  155.8771 C   0  0  1  0  0  0  0  0  0  0  0  0
  149.8126  132.5405  157.3434 C   0  0  0  0  0  0  0  0  0  0  0  0
  149.0437  133.5468  157.9824 O   0  0  0  0  0  0  0  0  0  0  0  0
  148.0288  133.2081  158.8017 C   0  0  0  0  0  0  0  0  0  0  0  0
  147.3577  132.1821  158.6712 O   0  0  0  0  0  0  0  0  0  0  0  0
  147.7983  134.2087  159.8829 C   0  0  0  0  0  0  0  0  0  0  0  0
  147.2600  133.7808  161.1190 C   0  0  0  0  0  0  0  0  0  0  0  0
  147.0300  134.7027  162.1585 C   0  0  0  0  0  0  0  0  0  0  0  0
  147.3363  136.0636  161.9753 C   0  0  0  0  0  0  0  0  0  0  0  0
  147.8723  136.5020  160.7504 C   0  0  0  0  0  0  0  0  0  0  0  0
  148.1024  135.5816  159.7092 C   0  0  0  0  0  0  0  0  0  0  0  0
  148.7360  133.3280  155.1773 C   0  0  2  0  0  0  0  0  0  0  0  0
  148.8727  133.0556  153.8762 F   0  0  0  0  0  0  0  0  0  0  0  0
  148.6750  134.8286  155.4088 C   0  0  2  0  0  0  0  0  0  0  0  0
  147.8542  135.4462  154.4379 O   0  0  0  0  0  0  0  0  0  0  0  0
  152.8642  141.5503  159.8462 C   0  0  0  0  0  0  0  0  0  0  0  0
  152.1763  142.7017  159.4011 C   0  0  0  0  0  0  0  0  0  0  0  0
  151.9527  143.7820  160.2771 C   0  0  0  0  0  0  0  0  0  0  0  0
  152.4203  143.7230  161.6034 C   0  0  0  0  0  0  0  0  0  0  0  0
  153.1153  142.5844  162.0524 C   0  0  0  0  0  0  0  0  0  0  0  0
  153.3405  141.5040  161.1773 C   0  0  0  0  0  0  0  0  0  0  0  0
  151.5643  141.0817  157.6565 H   0  0  0  0  0  0  0  0  0  0  0  0
  153.6986  138.6768  153.8903 H   0  0  0  0  0  0  0  0  0  0  0  0
  149.1647  136.2441  157.7557 H   0  0  0  0  0  0  0  0  0  0  0  0
  150.4768  135.3741  154.2568 H   0  0  0  0  0  0  0  0  0  0  0  0
  150.5228  132.1062  155.3538 H   0  0  0  0  0  0  0  0  0  0  0  0
  149.3288  131.5663  157.4051 H   0  0  0  0  0  0  0  0  0  0  0  0
  150.7687  132.4533  157.8602 H   0  0  0  0  0  0  0  0  0  0  0  0
  147.0163  132.7411  161.2831 H   0  0  0  0  0  0  0  0  0  0  0  0
  146.6173  134.3646  163.0975 H   0  0  0  0  0  0  0  0  0  0  0  0
  147.1597  136.7701  162.7727 H   0  0  0  0  0  0  0  0  0  0  0  0
  148.1074  137.5464  160.6084 H   0  0  0  0  0  0  0  0  0  0  0  0
  148.5149  135.9515  158.7820 H   0  0  0  0  0  0  0  0  0  0  0  0
  147.8575  132.7914  155.5371 H   0  0  0  0  0  0  0  0  0  0  0  0
  148.3229  135.0493  156.4175 H   0  0  0  0  0  0  0  0  0  0  0  0
  148.3636  135.5714  153.6517 H   0  0  0  0  0  0  0  0  0  0  0  0
  151.8126  142.7640  158.3855 H   0  0  0  0  0  0  0  0  0  0  0  0
  151.4235  144.6574  159.9306 H   0  0  0  0  0  0  0  0  0  0  0  0
  152.2498  144.5519  162.2745 H   0  0  0  0  0  0  0  0  0  0  0  0
  153.4801  142.5405  163.0680 H   0  0  0  0  0  0  0  0  0  0  0  0
  153.8860  140.6451  161.5407 H   0  0  0  0  0  0  0  0  0  0  0  0
  1  2  2  0  0  0  0
  2  3  1  0  0  0  0
  2 30  1  0  0  0  0
  3  4  1  0  0  0  0
  3 36  1  0  0  0  0
  4  9  1  0  0  0  0
  4  5  2  0  0  0  0
  5  6  1  0  0  0  0
  6  7  2  0  0  0  0
  6 37  1  0  0  0  0
  7  8  1  0  0  0  0
  8 12  1  0  0  0  0
  8  9  2  0  0  0  0
  9 10  1  0  0  0  0
 10 11  2  0  0  0  0
 11 12  1  0  0  0  0
 11 38  1  0  0  0  0
 12 13  1  0  0  0  0
 13 28  1  0  0  0  0
 13 14  1  0  0  0  0
 13 39  1  0  0  0  0
 14 15  1  0  0  0  0
 15 16  1  0  0  0  0
 15 26  1  0  0  0  0
 15 40  1  0  0  0  0
 16 17  1  0  0  0  0
 16 41  1  0  0  0  0
 16 42  1  0  0  0  0
 17 18  1  0  0  0  0
 18 19  2  0  0  0  0
 18 20  1  0  0  0  0
 20 25  1  0  0  0  0
 20 21  2  0  0  0  0
 21 22  1  0  0  0  0
 21 43  1  0  0  0  0
 22 23  2  0  0  0  0
 22 44  1  0  0  0  0
 23 24  1  0  0  0  0
 23 45  1  0  0  0  0
 24 25  2  0  0  0  0
 24 46  1  0  0  0  0
 25 47  1  0  0  0  0
 26 27  1  0  0  0  0
 26 28  1  0  0  0  0
 26 48  1  0  0  0  0
 28 29  1  0  0  0  0
 28 49  1  0  0  0  0
 29 50  1  0  0  0  0
 30 35  1  0  0  0  0
 30 31  2  0  0  0  0
 31 32  1  0  0  0  0
 31 51  1  0  0  0  0
 32 33  2  0  0  0  0
 32 52  1  0  0  0  0
 33 34  1  0  0  0  0
 33 53  1  0  0  0  0
 34 35  2  0  0  0  0
 34 54  1  0  0  0  0
 35 55  1  0  0  0  0
M  END
> <s_m_source_file>
AV-unprocessed.smi

> <i_m_source_file_index>
34

> <i_lp_mmshare_version>
43012

> <i_f3d_flags>
0

> <s_epik_input>
W2NIXTFbY0hdW2NIXVtjSF1bY0hdYzFDKD1PKVtOSF1jKG5bY0hdbjIpYyhjMjMpbltjSF1uM1tDQEBIXTRPW0NASF0oW0NAQEhdKEYpW0NASF00W09IXSlbQ0gyXU9DKD1PKWM1W2NIXVtjSF1bY0hdW2NIXVtjSF01

> <s_epik_cmdline>
J2VwaWtfcHl0aG9uJywgJy1waCcsICc3LjAnLCAnLXRuJywgJzgnLCAnLW1hJywgJzIwMCcsICctbWV0YWxfYmluZGluZycsICctaW1hZScsICc8aW5maWxlLm1hZT4nLCAnLW9tYWUnLCAnPG91dGZpbGUubWFlPic=

> <r_lp_tautomer_probability>
1

> <r_epik_Ionization_Penalty>
0.00257489

> <r_epik_Ionization_Penalty_Charging>
0

> <r_epik_Ionization_Penalty_Neutral>
0.00257489

> <r_epik_State_Penalty>
0.00519398

> <r_epik_Charging_Adjusted_Penalty>
0.00519398

> <i_epik_Tot_Q>
0

> <i_epik_Tot_abs_Q>
0

> <r_epik_Metal_State_Penalty>
0.335891

> <b_epik_Metal_Only>
0

> <s_epik_Chemistry_Notes>
This compound has an ester and may undergo hydrolysis at high or low pH. This compound contains an acetal/aminal-like group ( X-CH(R)-Y where X, Y are N, S, or O) that may be acid/base labile, releasing an aldehyde.

> <s_lp_Force_Field>
OPLS_2005

> <r_lp_Energy>
45.4832

> <b_lp_Chiralities_Consistent>
1

> <s_lp_Variant>
AV-unprocessed.smi:34-14

> <Gold.Version>
5.8.1

> <Gold.Id.Protein>
6NUR|6NUR_protein|mol2

> <Gold.PLP.Fitness>
68.0579

> <Gold.PLP.PLP>
-62.3790

> <Gold.PLP.part.hbond>
-4.8701

> <Gold.PLP.part.metal>
0.0000

> <Gold.PLP.part.buried>
-7.1022

> <Gold.PLP.part.nonpolar>
-50.7384

> <Gold.PLP.part.repulsive>
0.2209

> <Gold.PLP.ligand.clash>
0.0000

> <Gold.PLP.ligand.torsion>
2.7057

> <Gold.PLP.Chemscore.Hbond>
3.5848

> <Gold.PLP.Chemscore.CHOScore>
0.0000

> <Gold.PLP.Chemscore.Metal>
0.0000

> <Gold.Chemscore.Hbonds>
donor molecule, donor type, donor heavy atom, donor atom, acceptor molecule, acceptor atom, score
      L1  H    29    50       P1  7948  1.00
      P1  H  7997  8009       L1     1  0.78
      P1  H  7997  8010       L1     5  0.80
      P1  H 10752 10765       L1     7  0.69

> <Gold.PLP.Chemscore.Internal.Correction>
0.3358

> <Gold.Rescore>
     Score         DG    S(hbond)    S(metal)    S(lipo)     H(rot)  DE(clash)    DE(int)     intcor
     19.11     -22.94       3.03        0.00     122.18       2.72       0.12       3.71       ----

> <Gold.Chemscore.Fitness>
19.1052

> <Gold.Chemscore.DG>
-22.9401

> <Gold.Chemscore.ZeroCoef>
-5.4800

> <Gold.Chemscore.Hbond>
3.0337

> <Gold.Chemscore.Metal>
0.0000

> <Gold.Chemscore.Lipo>
122.1773

> <Gold.Chemscore.Internal_Hbond>
0.0000

> <Gold.Chemscore.DEClash>
0.1247

> <Gold.Chemscore.DEInternal>
3.7103

> <Gold.Chemscore.Rot>
2.7215

> <Gold.Chemscore.Internal.Correction>
   9.000000E+99

> <Gold.Chemscore.Hbonds>
donor molecule, donor type, donor heavy atom, donor atom, acceptor molecule, acceptor atom, score
      L1  H    29    50       P1  7948  0.97
      P1  H  7997  8009       L1     1  0.15
      P1  H  7997  8010       L1     5  0.65
      P1  H 10752 10765       L1     7  0.56

> <Gold.Chemscore.Hbond.Weighted>
-10.1324

> <Gold.Chemscore.Metal.Weighted>
-0.0000

> <Gold.Chemscore.Lipo.Weighted>
-14.2947

> <Gold.Chemscore.Internal_Hbond.Weighted>
0.0000

> <Gold.Chemscore.DEClash.Weighted>
0.1247

> <Gold.Chemscore.DEInternal.Weighted>
3.7103

> <Gold.Chemscore.Rot.Weighted>
6.9670

> <Gold.Chemscore.Internal.Correction.Weighted>
   9.000000E+99

> <Gold.Protein.RotatedTorsions>
[ 6907 6896 6895 6894 ] final -179.69 input  -60.11 | X-H torsion
[ 7974 7965 7964 7962 ] final -122.30 input  175.53 | X-H torsion
[ 8008 7997 7996 7995 ] final  117.65 input   59.86 | X-H torsion
[ 10167 10162 10161 10158 ] final   22.20 input  -65.29 | X-H torsion
[ 10718 10713 10712 10709 ] final  167.04 input   66.30 | X-H torsion
[ 10763 10752 10751 10750 ] final  152.26 input  -60.55 | X-H torsion
[ 11005 11000 10999 10996 ] final   29.48 input  -57.11 | X-H torsion

> <Gold.Protein.ActiveResidues>
 VAL166  LYS551  ARG553  GLY616  TRP617  ASP618  TYR619  PRO620  LYS621  CYS622 
 ASP623  PHE694  ASN695  SER759  ASP760  ASP761  ALA762  ILE779  LEU786  VAL792 
 PHE793  MET794  SER795  GLU796  ALA797  LYS798  CYS799  TRP800  GLU811  SER814 

> <Gold.Protein.RotatedAtoms>
  151.6575  133.3318  159.3165 H   0  0  0  0  0  0  0  0  0  0  0  0  # atno 6907 bound_to 6896
  150.7930  134.6972  159.6539 H   0  0  0  0  0  0  0  0  0  0  0  0  # atno 6908 bound_to 6896
  152.4012  134.6286  160.0121 H   0  0  0  0  0  0  0  0  0  0  0  0  # atno 6909 bound_to 6896
  145.0309  140.8067  143.4324 H   0  0  0  0  0  0  0  0  0  0  0  0  # atno 7974 bound_to 7965
  156.2505  140.2892  156.0711 H   0  0  0  0  0  0  0  0  0  0  0  0  # atno 8008 bound_to 7997
  155.1670  140.0401  157.2872 H   0  0  0  0  0  0  0  0  0  0  0  0  # atno 8009 bound_to 7997
  154.6352  140.2509  155.7393 H   0  0  0  0  0  0  0  0  0  0  0  0  # atno 8010 bound_to 7997
  140.5367  143.9748  150.6495 H   0  0  0  0  0  0  0  0  0  0  0  0  # atno 10167 bound_to 10162
  157.0572  131.0330  151.2660 H   0  0  0  0  0  0  0  0  0  0  0  0  # atno 10718 bound_to 10713
  154.1172  135.2835  155.3217 H   0  0  0  0  0  0  0  0  0  0  0  0  # atno 10763 bound_to 10752
  154.6449  135.5389  153.7835 H   0  0  0  0  0  0  0  0  0  0  0  0  # atno 10764 bound_to 10752
  153.0325  135.6495  154.1328 H   0  0  0  0  0  0  0  0  0  0  0  0  # atno 10765 bound_to 10752
  140.3045  134.2719  155.7747 H   0  0  0  0  0  0  0  0  0  0  0  0  # atno 11005 bound_to 11000
  145.1771  139.2372  143.5311 LP  0  0  0  0  0  0  0  0  0  0  0  0  # atno 17320 bound_to 7965
  146.3498  140.1536  142.8592 LP  0  0  0  0  0  0  0  0  0  0  0  0  # atno 17321 bound_to 7965
  140.3138  143.3181  152.0853 LP  0  0  0  0  0  0  0  0  0  0  0  0  # atno 17342 bound_to 10162
  139.4973  144.6619  151.6445 LP  0  0  0  0  0  0  0  0  0  0  0  0  # atno 17343 bound_to 10162
  157.4983  130.7864  149.7579 LP  0  0  0  0  0  0  0  0  0  0  0  0  # atno 17370 bound_to 10713
  155.9989  130.3891  150.2683 LP  0  0  0  0  0  0  0  0  0  0  0  0  # atno 17371 bound_to 10713
  141.2121  133.7667  156.9816 LP  0  0  0  0  0  0  0  0  0  0  0  0  # atno 17394 bound_to 11000
  140.1080  134.9494  157.2023 LP  0  0  0  0  0  0  0  0  0  0  0  0  # atno 17395 bound_to 11000

$$$$
