AV-unprocessed.smi:3155|AV-procd|sdf|12026|dock7
  -GOLD-   2272017443D 1   1.00000     0.00000
 Structure written by MMmdl.
 38 39  0  0  0  0  0  0  0  0  2 V2000
  152.5736  139.6689  159.0596 C   0  0  0  0  0  0  0  0  0  0  0  0
  151.9356  141.0492  158.8073 C   0  0  1  0  0  0  0  0  0  0  0  0
  152.8821  142.2097  159.1786 C   0  0  0  0  0  0  0  0  0  0  0  0
  152.1957  143.4816  159.3164 N   0  0  0  0  0  0  0  0  0  0  0  0
  152.2678  144.3899  160.3519 C   0  0  0  0  0  0  0  0  0  0  0  0
  151.4524  145.4369  160.0305 C   0  0  0  0  0  0  0  0  0  0  0  0
  150.9237  145.0769  158.7596 C   0  0  0  0  0  0  0  0  0  0  0  0
  151.3732  143.9073  158.3336 N   0  0  0  0  0  0  0  0  0  0  0  0
  151.5168  141.1945  157.3955 N   0  3  0  0  0  0  0  0  0  0  0  0
  150.2733  140.4830  157.0246 C   0  0  0  0  0  0  0  0  0  0  0  0
  149.9341  140.6390  155.5354 C   0  0  0  0  0  0  0  0  0  0  0  0
  150.7578  140.3013  154.6837 O   0  0  0  0  0  0  0  0  0  0  0  0
  148.7295  141.1492  155.2066 N   0  0  0  0  0  0  0  0  0  0  0  0
  147.7349  141.5724  156.1907 C   0  0  0  0  0  0  0  0  0  0  0  0
  146.6587  142.3153  155.3991 C   0  0  0  0  0  0  0  0  0  0  0  0
  146.7575  141.7293  153.9975 C   0  0  0  0  0  0  0  0  0  0  0  0
  148.2339  141.3610  153.8467 C   0  0  0  0  0  0  0  0  0  0  0  0
  152.8564  139.5453  160.1052 H   0  0  0  0  0  0  0  0  0  0  0  0
  153.4714  139.5325  158.4560 H   0  0  0  0  0  0  0  0  0  0  0  0
  151.8875  138.8559  158.8244 H   0  0  0  0  0  0  0  0  0  0  0  0
  151.0426  141.1370  159.4280 H   0  0  0  0  0  0  0  0  0  0  0  0
  153.3964  141.9929  160.1162 H   0  0  0  0  0  0  0  0  0  0  0  0
  153.6562  142.3252  158.4185 H   0  0  0  0  0  0  0  0  0  0  0  0
  152.8836  144.2172  161.2223 H   0  0  0  0  0  0  0  0  0  0  0  0
  151.2639  146.3264  160.6131 H   0  0  0  0  0  0  0  0  0  0  0  0
  150.2330  145.6273  158.1376 H   0  0  0  0  0  0  0  0  0  0  0  0
  151.3546  142.1766  157.2227 H   0  0  0  0  0  0  0  0  0  0  0  0
  150.3733  139.4228  157.2561 H   0  0  0  0  0  0  0  0  0  0  0  0
  149.4474  140.8781  157.6172 H   0  0  0  0  0  0  0  0  0  0  0  0
  147.3143  140.6881  156.6718 H   0  0  0  0  0  0  0  0  0  0  0  0
  148.1658  142.2078  156.9661 H   0  0  0  0  0  0  0  0  0  0  0  0
  145.6643  142.2084  155.8338 H   0  0  0  0  0  0  0  0  0  0  0  0
  146.8963  143.3794  155.3675 H   0  0  0  0  0  0  0  0  0  0  0  0
  146.1477  140.8266  153.9372 H   0  0  0  0  0  0  0  0  0  0  0  0
  146.4117  142.4171  153.2252 H   0  0  0  0  0  0  0  0  0  0  0  0
  148.7856  142.1831  153.3886 H   0  0  0  0  0  0  0  0  0  0  0  0
  148.3516  140.4774  153.2183 H   0  0  0  0  0  0  0  0  0  0  0  0
  152.2674  140.8880  156.7929 H   0  0  0  0  0  0  0  0  0  0  0  0
  1  2  1  0  0  0  0
  1 18  1  0  0  0  0
  1 19  1  0  0  0  0
  1 20  1  0  0  0  0
  2  3  1  0  0  0  0
  2  9  1  0  0  0  0
  2 21  1  0  0  0  0
  3  4  1  0  0  0  0
  3 22  1  0  0  0  0
  3 23  1  0  0  0  0
  4  8  1  0  0  0  0
  4  5  1  0  0  0  0
  5  6  2  0  0  0  0
  5 24  1  0  0  0  0
  6  7  1  0  0  0  0
  6 25  1  0  0  0  0
  7  8  2  0  0  0  0
  7 26  1  0  0  0  0
  9 10  1  0  0  0  0
  9 27  1  0  0  0  0
  9 38  1  0  0  0  0
 10 11  1  0  0  0  0
 10 28  1  0  0  0  0
 10 29  1  0  0  0  0
 11 12  2  0  0  0  0
 11 13  1  0  0  0  0
 13 17  1  0  0  0  0
 13 14  1  0  0  0  0
 14 15  1  0  0  0  0
 14 30  1  0  0  0  0
 14 31  1  0  0  0  0
 15 16  1  0  0  0  0
 15 32  1  0  0  0  0
 15 33  1  0  0  0  0
 16 17  1  0  0  0  0
 16 34  1  0  0  0  0
 16 35  1  0  0  0  0
 17 36  1  0  0  0  0
 17 37  1  0  0  0  0
M  CHG  1   9   1
M  END
> <s_m_source_file>
AV-unprocessed.smi

> <i_m_source_file_index>
3155

> <i_lp_mmshare_version>
43012

> <i_f3d_flags>
0

> <s_epik_input>
bjFbY0hdW2NIXVtjSF1uMVtDSDJdW0NAQEhdKFtDSDNdKVtOSF1bQ0gyXUMoPU8pTjJbQ0gyXVtDSDJdW0NIMl1bQ0gyXTI=

> <s_epik_cmdline>
J2VwaWtfcHl0aG9uJywgJy1waCcsICc3LjAnLCAnLXRuJywgJzgnLCAnLW1hJywgJzIwMCcsICctbWV0YWxfYmluZGluZycsICctaW1hZScsICc8aW5maWxlLm1hZT4nLCAnLW9tYWUnLCAnPG91dGZpbGUubWFlPic=

> <r_lp_tautomer_probability>
1

> <r_epik_Ionization_Penalty>
0.120138

> <r_epik_Ionization_Penalty_Charging>
0.120135

> <r_epik_Ionization_Penalty_Neutral>
3.43791e-06

> <r_epik_State_Penalty>
0.109683

> <r_epik_Charging_Adjusted_Penalty>
0.229818

> <i_epik_Tot_Q>
1

> <i_epik_Tot_abs_Q>
1

> <r_epik_Metal_State_Penalty>
0.109693

> <b_epik_Metal_Only>
0

> <s_lp_Force_Field>
OPLS_2005

> <r_lp_Energy>
27.7776

> <b_lp_Chiralities_Consistent>
1

> <s_lp_Variant>
AV-unprocessed.smi:3155-2

> <Gold.Version>
5.8.1

> <Gold.Id.Protein>
6NUR|6NUR_protein|mol2

> <Gold.PLP.Fitness>
44.0009

> <Gold.PLP.PLP>
-38.7653

> <Gold.PLP.part.hbond>
-1.0000

> <Gold.PLP.part.metal>
0.0000

> <Gold.PLP.part.buried>
-4.6903

> <Gold.PLP.part.nonpolar>
-33.2700

> <Gold.PLP.part.repulsive>
0.2526

> <Gold.PLP.ligand.clash>
0.0000

> <Gold.PLP.ligand.torsion>
0.3768

> <Gold.PLP.Chemscore.Hbond>
1.0000

> <Gold.PLP.Chemscore.CHOScore>
0.9868

> <Gold.PLP.Chemscore.Metal>
0.0000

> <Gold.Chemscore.Hbonds>
donor molecule, donor type, donor heavy atom, donor atom, acceptor molecule, acceptor atom, score
      P1  H  7989  7998       L1    12  1.00
      L1  C     7    26       P1  8029  0.98

> <Gold.PLP.Chemscore.Internal.Correction>
0.0288

> <Gold.Rescore>
     Score         DG    S(hbond)    S(metal)    S(lipo)     H(rot)  DE(clash)    DE(int)     intcor
     13.46     -14.14       1.00        0.00      85.66       1.84       0.10       0.57       ----

> <Gold.Chemscore.Fitness>
13.4617

> <Gold.Chemscore.DG>
-14.1373

> <Gold.Chemscore.ZeroCoef>
-5.4800

> <Gold.Chemscore.Hbond>
0.9991

> <Gold.Chemscore.Metal>
0.0000

> <Gold.Chemscore.Lipo>
85.6580

> <Gold.Chemscore.Internal_Hbond>
0.0000

> <Gold.Chemscore.DEClash>
0.1045

> <Gold.Chemscore.DEInternal>
0.5711

> <Gold.Chemscore.Rot>
1.8366

> <Gold.Chemscore.Internal.Correction>
   9.000000E+99

> <Gold.Chemscore.Hbonds>
donor molecule, donor type, donor heavy atom, donor atom, acceptor molecule, acceptor atom, score
      P1  H  7989  7998       L1    12  0.97

> <Gold.Chemscore.Hbond.Weighted>
-3.3370

> <Gold.Chemscore.Metal.Weighted>
-0.0000

> <Gold.Chemscore.Lipo.Weighted>
-10.0220

> <Gold.Chemscore.Internal_Hbond.Weighted>
0.0000

> <Gold.Chemscore.DEClash.Weighted>
0.1045

> <Gold.Chemscore.DEInternal.Weighted>
0.5711

> <Gold.Chemscore.Rot.Weighted>
4.7017

> <Gold.Chemscore.Internal.Correction.Weighted>
   9.000000E+99

> <Gold.Protein.RotatedTorsions>
[ 6907 6896 6895 6894 ] final -164.40 input  -60.11 | X-H torsion
[ 7974 7965 7964 7962 ] final  -29.44 input  175.53 | X-H torsion
[ 8008 7997 7996 7995 ] final -108.04 input   59.86 | X-H torsion
[ 10167 10162 10161 10158 ] final  -55.61 input  -65.29 | X-H torsion
[ 10718 10713 10712 10709 ] final  176.06 input   66.30 | X-H torsion
[ 10763 10752 10751 10750 ] final  -41.15 input  -60.55 | X-H torsion
[ 11005 11000 10999 10996 ] final  -84.73 input  -57.11 | X-H torsion

> <Gold.Protein.ActiveResidues>
 VAL166  LYS551  ARG553  GLY616  TRP617  ASP618  TYR619  PRO620  LYS621  CYS622 
 ASP623  PHE694  ASN695  SER759  ASP760  ASP761  ALA762  ILE779  LEU786  VAL792 
 PHE793  MET794  SER795  GLU796  ALA797  LYS798  CYS799  TRP800  GLU811  SER814 

> <Gold.Protein.RotatedAtoms>
  151.4112  133.3727  159.2743 H   0  0  0  0  0  0  0  0  0  0  0  0  # atno 6907 bound_to 6896
  150.9362  134.8775  159.7593 H   0  0  0  0  0  0  0  0  0  0  0  0  # atno 6908 bound_to 6896
  152.5051  134.4060  159.9484 H   0  0  0  0  0  0  0  0  0  0  0  0  # atno 6909 bound_to 6896
  146.1216  140.5413  142.8733 H   0  0  0  0  0  0  0  0  0  0  0  0  # atno 7974 bound_to 7965
  154.9383  140.0403  157.2084 H   0  0  0  0  0  0  0  0  0  0  0  0  # atno 8008 bound_to 7997
  154.8093  140.2865  155.5843 H   0  0  0  0  0  0  0  0  0  0  0  0  # atno 8009 bound_to 7997
  156.2970  140.2540  156.2978 H   0  0  0  0  0  0  0  0  0  0  0  0  # atno 8010 bound_to 7997
  140.6365  143.2485  151.5104 H   0  0  0  0  0  0  0  0  0  0  0  0  # atno 10167 bound_to 10162
  156.9257  130.9955  151.2996 H   0  0  0  0  0  0  0  0  0  0  0  0  # atno 10718 bound_to 10713
  153.9577  135.6743  153.4745 H   0  0  0  0  0  0  0  0  0  0  0  0  # atno 10763 bound_to 10752
  153.0853  135.4902  154.8582 H   0  0  0  0  0  0  0  0  0  0  0  0  # atno 10764 bound_to 10752
  154.7290  135.3134  154.8882 H   0  0  0  0  0  0  0  0  0  0  0  0  # atno 10765 bound_to 10752
  141.1648  133.7361  156.8911 H   0  0  0  0  0  0  0  0  0  0  0  0  # atno 11005 bound_to 11000
  144.7602  140.5404  143.6740 LP  0  0  0  0  0  0  0  0  0  0  0  0  # atno 17320 bound_to 7965
  145.5454  139.1476  143.3423 LP  0  0  0  0  0  0  0  0  0  0  0  0  # atno 17321 bound_to 7965
  139.5575  144.2239  152.1637 LP  0  0  0  0  0  0  0  0  0  0  0  0  # atno 17342 bound_to 10162
  140.1496  144.5126  150.6695 LP  0  0  0  0  0  0  0  0  0  0  0  0  # atno 17343 bound_to 10162
  157.5879  130.8423  149.8617 LP  0  0  0  0  0  0  0  0  0  0  0  0  # atno 17370 bound_to 10713
  156.0470  130.3725  150.1292 LP  0  0  0  0  0  0  0  0  0  0  0  0  # atno 17371 bound_to 10713
  140.1648  134.9141  157.2760 LP  0  0  0  0  0  0  0  0  0  0  0  0  # atno 17394 bound_to 11000
  140.2569  134.3616  155.7421 LP  0  0  0  0  0  0  0  0  0  0  0  0  # atno 17395 bound_to 11000

$$$$
