AV-unprocessed.smi:1725|AV-procd|sdf|6956|dock1
  -GOLD-   22720 8163D 1   1.00000     0.00000
 Structure written by MMmdl.
 35 36  0  0  0  0  0  0  0  0  2 V2000
  147.9800  138.1719  155.0758 C   0  0  0  0  0  0  0  0  0  0  0  0
  148.5108  139.4579  154.4267 C   0  0  1  0  0  0  0  0  0  0  0  0
  147.5084  140.4589  154.5793 O   0  0  0  0  0  0  0  0  0  0  0  0
  147.6661  141.6118  153.7578 C   0  0  0  0  0  0  0  0  0  0  0  0
  146.9515  142.8104  154.3544 C   0  0  0  0  0  0  0  0  0  0  0  0
  145.5072  142.7063  154.7993 C   0  0  0  0  0  0  0  0  0  0  0  0
  145.8595  143.5349  153.5935 C   0  0  0  0  0  0  0  0  0  0  0  0
  149.8221  139.9136  155.0863 C   0  0  0  0  0  0  0  0  0  0  0  0
  150.8669  139.8883  154.4355 O   0  0  0  0  0  0  0  0  0  0  0  0
  149.7146  140.3177  156.3671 N   0  0  0  0  0  0  0  0  0  0  0  0
  150.7210  140.7287  157.2572 C   0  0  0  0  0  0  0  0  0  0  0  0
  150.7277  141.9179  157.9208 C   0  0  0  0  0  0  0  0  0  0  0  0
  151.8103  142.3021  158.8184 C   0  0  0  0  0  0  0  0  0  0  0  0
  151.8670  143.6137  159.5801 C   0  0  0  0  0  0  0  0  0  0  0  0
  152.1354  143.3886  160.8659 F   0  0  0  0  0  0  0  0  0  0  0  0
  152.8311  144.3913  159.0879 F   0  0  0  0  0  0  0  0  0  0  0  0
  150.7119  144.2744  159.5005 F   0  0  0  0  0  0  0  0  0  0  0  0
  152.7962  141.3389  158.8948 C   0  0  0  0  0  0  0  0  0  0  0  0
  152.8699  140.1446  158.2672 N   0  5  0  0  0  0  0  0  0  0  0  0
  151.8536  139.7954  157.4287 C   0  0  0  0  0  0  0  0  0  0  0  0
  151.8611  138.7266  156.8166 O   0  0  0  0  0  0  0  0  0  0  0  0
  148.7056  137.3615  154.9969 H   0  0  0  0  0  0  0  0  0  0  0  0
  147.0642  137.8420  154.5855 H   0  0  0  0  0  0  0  0  0  0  0  0
  147.7535  138.3181  156.1326 H   0  0  0  0  0  0  0  0  0  0  0  0
  148.6716  139.2661  153.3638 H   0  0  0  0  0  0  0  0  0  0  0  0
  148.7184  141.8700  153.6366 H   0  0  0  0  0  0  0  0  0  0  0  0
  147.2573  141.4191  152.7653 H   0  0  0  0  0  0  0  0  0  0  0  0
  147.5934  143.4348  154.9729 H   0  0  0  0  0  0  0  0  0  0  0  0
  144.9856  141.7666  154.6281 H   0  0  0  0  0  0  0  0  0  0  0  0
  145.2235  143.2352  155.7068 H   0  0  0  0  0  0  0  0  0  0  0  0
  145.8085  144.6167  153.6979 H   0  0  0  0  0  0  0  0  0  0  0  0
  145.5698  143.1495  152.6179 H   0  0  0  0  0  0  0  0  0  0  0  0
  148.7792  140.3695  156.7439 H   0  0  0  0  0  0  0  0  0  0  0  0
  149.9301  142.6290  157.7806 H   0  0  0  0  0  0  0  0  0  0  0  0
  153.6569  141.5662  159.5597 H   0  0  0  0  0  0  0  0  0  0  0  0
  1  2  1  0  0  0  0
  1 22  1  0  0  0  0
  1 23  1  0  0  0  0
  1 24  1  0  0  0  0
  2  3  1  0  0  0  0
  2  8  1  0  0  0  0
  2 25  1  0  0  0  0
  3  4  1  0  0  0  0
  4  5  1  0  0  0  0
  4 26  1  0  0  0  0
  4 27  1  0  0  0  0
  5  7  1  0  0  0  0
  5  6  1  0  0  0  0
  5 28  1  0  0  0  0
  6  7  1  0  0  0  0
  6 29  1  0  0  0  0
  6 30  1  0  0  0  0
  7 31  1  0  0  0  0
  7 32  1  0  0  0  0
  8  9  2  0  0  0  0
  8 10  1  0  0  0  0
 10 11  1  0  0  0  0
 10 33  1  0  0  0  0
 11 20  1  0  0  0  0
 11 12  2  0  0  0  0
 12 13  1  0  0  0  0
 12 34  1  0  0  0  0
 13 14  1  0  0  0  0
 13 18  2  0  0  0  0
 14 15  1  0  0  0  0
 14 16  1  0  0  0  0
 14 17  1  0  0  0  0
 18 19  1  0  0  0  0
 18 35  1  0  0  0  0
 19 20  1  0  0  0  0
 20 21  2  0  0  0  0
M  CHG  1  19  -1
M  END
> <s_m_source_file>
AV-unprocessed.smi

> <i_m_source_file_index>
1725

> <i_lp_mmshare_version>
43012

> <i_f3d_flags>
0

> <s_epik_input>
W0NIMl0xW0NIMl1bQ0hdMVtDSDJdT1tDQEBIXShbQ0gzXSlDKD1PKVtOSF1jMltjSF1jKEMoRikoRilGKVtjSF1bbkhdYzI9Tw==

> <s_epik_cmdline>
J2VwaWtfcHl0aG9uJywgJy1waCcsICc3LjAnLCAnLXRuJywgJzgnLCAnLW1hJywgJzIwMCcsICctbWV0YWxfYmluZGluZycsICctaW1hZScsICc8aW5maWxlLm1hZT4nLCAnLW9tYWUnLCAnPG91dGZpbGUubWFlPic=

> <r_lp_tautomer_probability>
0.999

> <r_epik_Ionization_Penalty>
2.64397

> <r_epik_Ionization_Penalty_Charging>
0.0618254

> <r_epik_Ionization_Penalty_Neutral>
2.58215

> <r_epik_State_Penalty>
2.58023

> <r_epik_Charging_Adjusted_Penalty>
2.64205

> <i_epik_Tot_Q>
-1

> <i_epik_Tot_abs_Q>
1

> <r_epik_Metal_State_Penalty>
0.429101

> <b_epik_Metal_Only>
1

> <s_lp_Force_Field>
OPLS_2005

> <r_lp_Energy>
29.0368

> <b_lp_Chiralities_Consistent>
1

> <s_lp_Variant>
AV-unprocessed.smi:1725-4

> <Gold.Version>
5.8.1

> <Gold.Id.Protein>
6NUR|6NUR_protein|mol2

> <Gold.PLP.Fitness>
46.7021

> <Gold.PLP.PLP>
-40.0267

> <Gold.PLP.part.hbond>
-2.0000

> <Gold.PLP.part.metal>
0.0000

> <Gold.PLP.part.buried>
-5.3505

> <Gold.PLP.part.nonpolar>
-32.3742

> <Gold.PLP.part.repulsive>
0.2690

> <Gold.PLP.ligand.clash>
0.0000

> <Gold.PLP.ligand.torsion>
1.4918

> <Gold.PLP.Chemscore.Hbond>
3.0000

> <Gold.PLP.Chemscore.CHOScore>
0.0000

> <Gold.PLP.Chemscore.Metal>
0.0000

> <Gold.Chemscore.Hbonds>
donor molecule, donor type, donor heavy atom, donor atom, acceptor molecule, acceptor atom, score
      P1  H  7989  7998       L1     9  1.00
      P1  H  7997  8008       L1    19  1.56

> <Gold.PLP.Chemscore.Internal.Correction>
0.6591

> <Gold.Rescore>
     Score         DG    S(hbond)    S(metal)    S(lipo)     H(rot)  DE(clash)    DE(int)     intcor
     11.78     -13.60       1.02        0.00      78.83       1.76       0.16       1.66       ----

> <Gold.Chemscore.Fitness>
11.7832

> <Gold.Chemscore.DG>
-13.6041

> <Gold.Chemscore.ZeroCoef>
-5.4800

> <Gold.Chemscore.Hbond>
1.0201

> <Gold.Chemscore.Metal>
0.0000

> <Gold.Chemscore.Lipo>
78.8325

> <Gold.Chemscore.Internal_Hbond>
0.0000

> <Gold.Chemscore.DEClash>
0.1564

> <Gold.Chemscore.DEInternal>
1.6646

> <Gold.Chemscore.Rot>
1.7604

> <Gold.Chemscore.Internal.Correction>
   9.000000E+99

> <Gold.Chemscore.Hbonds>
donor molecule, donor type, donor heavy atom, donor atom, acceptor molecule, acceptor atom, score
      P1  H  7989  7998       L1     9  0.96
      P1  H  7997  8008       L1    19  0.15

> <Gold.Chemscore.Hbond.Weighted>
-3.4072

> <Gold.Chemscore.Metal.Weighted>
-0.0000

> <Gold.Chemscore.Lipo.Weighted>
-9.2234

> <Gold.Chemscore.Internal_Hbond.Weighted>
0.0000

> <Gold.Chemscore.DEClash.Weighted>
0.1564

> <Gold.Chemscore.DEInternal.Weighted>
1.6646

> <Gold.Chemscore.Rot.Weighted>
4.5065

> <Gold.Chemscore.Internal.Correction.Weighted>
   9.000000E+99

> <Gold.Protein.RotatedTorsions>
[ 6907 6896 6895 6894 ] final   87.82 input  -60.11 | X-H torsion
[ 7974 7965 7964 7962 ] final    2.60 input  175.53 | X-H torsion
[ 8008 7997 7996 7995 ] final  -77.15 input   59.86 | X-H torsion
[ 10167 10162 10161 10158 ] final  -79.78 input  -65.29 | X-H torsion
[ 10718 10713 10712 10709 ] final  156.65 input   66.30 | X-H torsion
[ 10763 10752 10751 10750 ] final  167.39 input  -60.55 | X-H torsion
[ 11005 11000 10999 10996 ] final   48.19 input  -57.11 | X-H torsion

> <Gold.Protein.ActiveResidues>
 VAL166  LYS551  ARG553  GLY616  TRP617  ASP618  TYR619  PRO620  LYS621  CYS622 
 ASP623  PHE694  ASN695  SER759  ASP760  ASP761  ALA762  ILE779  LEU786  VAL792 
 PHE793  MET794  SER795  GLU796  ALA797  LYS798  CYS799  TRP800  GLU811  SER814 

> <Gold.Protein.RotatedAtoms>
  152.5417  134.2217  159.8789 H   0  0  0  0  0  0  0  0  0  0  0  0  # atno 6907 bound_to 6896
  151.2193  133.4504  159.2608 H   0  0  0  0  0  0  0  0  0  0  0  0  # atno 6908 bound_to 6896
  151.0820  134.9877  159.8417 H   0  0  0  0  0  0  0  0  0  0  0  0  # atno 6909 bound_to 6896
  146.2444  140.0812  142.8357 H   0  0  0  0  0  0  0  0  0  0  0  0  # atno 7974 bound_to 7965
  154.5570  140.0715  156.8759 H   0  0  0  0  0  0  0  0  0  0  0  0  # atno 8008 bound_to 7997
  155.2883  140.3376  155.4236 H   0  0  0  0  0  0  0  0  0  0  0  0  # atno 8009 bound_to 7997
  156.2010  140.1722  156.7884 H   0  0  0  0  0  0  0  0  0  0  0  0  # atno 8010 bound_to 7997
  140.4562  143.2467  151.8416 H   0  0  0  0  0  0  0  0  0  0  0  0  # atno 10167 bound_to 10162
  157.2021  131.0678  151.2019 H   0  0  0  0  0  0  0  0  0  0  0  0  # atno 10718 bound_to 10713
  154.3531  135.2753  155.2361 H   0  0  0  0  0  0  0  0  0  0  0  0  # atno 10763 bound_to 10752
  154.4582  135.5914  153.6241 H   0  0  0  0  0  0  0  0  0  0  0  0  # atno 10764 bound_to 10752
  152.9848  135.6058  154.3744 H   0  0  0  0  0  0  0  0  0  0  0  0  # atno 10765 bound_to 10752
  140.1213  134.4826  155.8595 H   0  0  0  0  0  0  0  0  0  0  0  0  # atno 11005 bound_to 11000
  145.0731  140.9169  143.4870 LP  0  0  0  0  0  0  0  0  0  0  0  0  # atno 17320 bound_to 7965
  145.0950  139.2863  143.5715 LP  0  0  0  0  0  0  0  0  0  0  0  0  # atno 17321 bound_to 7965
  139.4801  144.5061  151.8995 LP  0  0  0  0  0  0  0  0  0  0  0  0  # atno 17342 bound_to 10162
  140.4148  144.2322  150.5888 LP  0  0  0  0  0  0  0  0  0  0  0  0  # atno 17343 bound_to 10162
  157.3756  130.7204  149.6595 LP  0  0  0  0  0  0  0  0  0  0  0  0  # atno 17370 bound_to 10713
  155.9699  130.4186  150.4337 LP  0  0  0  0  0  0  0  0  0  0  0  0  # atno 17371 bound_to 10713
  141.2152  133.6761  156.6893 LP  0  0  0  0  0  0  0  0  0  0  0  0  # atno 17394 bound_to 11000
  140.2962  134.8201  157.4059 LP  0  0  0  0  0  0  0  0  0  0  0  0  # atno 17395 bound_to 11000

$$$$
