AV-unprocessed.smi:1184|AV-procd|sdf|4972|dock5
  -GOLD-   22720 3563D 1   1.00000     0.00000
 Structure written by MMmdl.
 43 44  0  0  0  0  0  0  0  0  2 V2000
  145.1714  132.0468  149.2653 C   0  0  0  0  0  0  0  0  0  0  0  0
  143.7447  132.5251  149.5724 C   0  0  0  0  0  0  0  0  0  0  0  0
  143.7321  133.7832  150.3550 N   0  3  2  0  0  0  0  0  0  0  0  0
  144.3729  134.9369  149.6798 C   0  0  0  0  0  0  0  0  0  0  0  0
  145.2137  135.6653  150.7394 C   0  0  0  0  0  0  0  0  0  0  0  0
  144.7152  135.1137  152.0741 C   0  0  2  0  0  0  0  0  0  0  0  0
  145.7255  135.2364  153.2321 C   0  0  0  0  0  0  0  0  0  0  0  0
  147.0108  134.6592  152.8544 N   0  0  0  0  0  0  0  0  0  0  0  0
  147.3751  133.3844  153.0638 C   0  0  0  0  0  0  0  0  0  0  0  0
  146.5980  132.5035  153.4309 O   0  0  0  0  0  0  0  0  0  0  0  0
  148.8633  133.0764  152.9181 C   0  0  0  0  0  0  0  0  0  0  0  0
  149.4581  132.9619  154.2995 C   0  0  0  0  0  0  0  0  0  0  0  0
  150.0014  131.8047  154.9282 C   0  0  0  0  0  0  0  0  0  0  0  0
  150.0989  130.4064  154.3888 C   0  0  0  0  0  0  0  0  0  0  0  0
  150.4761  132.0741  156.1327 N   0  0  0  0  0  0  0  0  0  0  0  0
  150.2526  133.4388  156.3372 O   0  0  0  0  0  0  0  0  0  0  0  0
  149.6450  133.9441  155.2340 C   0  0  0  0  0  0  0  0  0  0  0  0
  149.3409  135.4039  155.2501 C   0  0  0  0  0  0  0  0  0  0  0  0
  144.3227  133.6823  151.7036 C   0  0  0  0  0  0  0  0  0  0  0  0
  145.1524  131.0844  148.7532 H   0  0  0  0  0  0  0  0  0  0  0  0
  145.7528  131.9235  150.1797 H   0  0  0  0  0  0  0  0  0  0  0  0
  145.7028  132.7480  148.6212 H   0  0  0  0  0  0  0  0  0  0  0  0
  143.1820  132.6563  148.6471 H   0  0  0  0  0  0  0  0  0  0  0  0
  143.2310  131.7532  150.1467 H   0  0  0  0  0  0  0  0  0  0  0  0
  145.0012  134.6248  148.8440 H   0  0  0  0  0  0  0  0  0  0  0  0
  143.5929  135.5867  149.2821 H   0  0  0  0  0  0  0  0  0  0  0  0
  146.2664  135.4148  150.6007 H   0  0  0  0  0  0  0  0  0  0  0  0
  145.1213  136.7500  150.6755 H   0  0  0  0  0  0  0  0  0  0  0  0
  143.8049  135.6516  152.3451 H   0  0  0  0  0  0  0  0  0  0  0  0
  145.8374  136.2779  153.5381 H   0  0  0  0  0  0  0  0  0  0  0  0
  145.3529  134.6995  154.1048 H   0  0  0  0  0  0  0  0  0  0  0  0
  147.7189  135.3029  152.5319 H   0  0  0  0  0  0  0  0  0  0  0  0
  148.9865  132.1529  152.3512 H   0  0  0  0  0  0  0  0  0  0  0  0
  149.3434  133.8617  152.3330 H   0  0  0  0  0  0  0  0  0  0  0  0
  150.4357  130.4091  153.3522 H   0  0  0  0  0  0  0  0  0  0  0  0
  149.1297  129.9090  154.4220 H   0  0  0  0  0  0  0  0  0  0  0  0
  150.8030  129.8011  154.9607 H   0  0  0  0  0  0  0  0  0  0  0  0
  148.4800  135.6298  154.6206 H   0  0  0  0  0  0  0  0  0  0  0  0
  150.1902  135.9767  154.8779 H   0  0  0  0  0  0  0  0  0  0  0  0
  149.1174  135.7456  156.2609 H   0  0  0  0  0  0  0  0  0  0  0  0
  143.6167  133.2471  152.4112 H   0  0  0  0  0  0  0  0  0  0  0  0
  145.2098  133.0471  151.6732 H   0  0  0  0  0  0  0  0  0  0  0  0
  142.7652  134.0439  150.4875 H   0  0  0  0  0  0  0  0  0  0  0  0
  1  2  1  0  0  0  0
  1 20  1  0  0  0  0
  1 21  1  0  0  0  0
  1 22  1  0  0  0  0
  2  3  1  0  0  0  0
  2 23  1  0  0  0  0
  2 24  1  0  0  0  0
  3 19  1  0  0  0  0
  3  4  1  0  0  0  0
  3 43  1  0  0  0  0
  4  5  1  0  0  0  0
  4 25  1  0  0  0  0
  4 26  1  0  0  0  0
  5  6  1  0  0  0  0
  5 27  1  0  0  0  0
  5 28  1  0  0  0  0
  6  7  1  0  0  0  0
  6 19  1  0  0  0  0
  6 29  1  0  0  0  0
  7  8  1  0  0  0  0
  7 30  1  0  0  0  0
  7 31  1  0  0  0  0
  8  9  1  0  0  0  0
  8 32  1  0  0  0  0
  9 10  2  0  0  0  0
  9 11  1  0  0  0  0
 11 12  1  0  0  0  0
 11 33  1  0  0  0  0
 11 34  1  0  0  0  0
 12 17  2  0  0  0  0
 12 13  1  0  0  0  0
 13 14  1  0  0  0  0
 13 15  2  0  0  0  0
 14 35  1  0  0  0  0
 14 36  1  0  0  0  0
 14 37  1  0  0  0  0
 15 16  1  0  0  0  0
 16 17  1  0  0  0  0
 17 18  1  0  0  0  0
 18 38  1  0  0  0  0
 18 39  1  0  0  0  0
 18 40  1  0  0  0  0
 19 41  1  0  0  0  0
 19 42  1  0  0  0  0
M  CHG  1   3   1
M  END
> <s_m_source_file>
AV-unprocessed.smi

> <i_m_source_file_index>
1184

> <i_lp_mmshare_version>
43012

> <i_f3d_flags>
0

> <s_epik_input>
W0NIM11bQ0gyXU4xW0NIMl1bQ0gyXVtDQEhdKFtDSDJdMSlbQ0gyXVtOSF1DKD1PKVtDSDJdYzJjKFtDSDNdKW5vYzJbQ0gzXQ==

> <s_epik_cmdline>
J2VwaWtfcHl0aG9uJywgJy1waCcsICc3LjAnLCAnLXRuJywgJzgnLCAnLW1hJywgJzIwMCcsICctbWV0YWxfYmluZGluZycsICctaW1hZScsICc8aW5maWxlLm1hZT4nLCAnLW9tYWUnLCAnPG91dGZpbGUubWFlPic=

> <r_epik_Ionization_Penalty>
0.000590726

> <r_epik_Ionization_Penalty_Charging>
0.000590692

> <r_epik_Ionization_Penalty_Neutral>
3.44741e-08

> <r_epik_State_Penalty>
0.000371644

> <r_epik_Charging_Adjusted_Penalty>
0.000962336

> <i_epik_Tot_Q>
1

> <i_epik_Tot_abs_Q>
1

> <r_epik_Metal_State_Penalty>
-0

> <b_epik_Metal_Only>
0

> <s_lp_Force_Field>
OPLS_2005

> <r_lp_Energy>
20.136

> <b_lp_Chiralities_Consistent>
1

> <s_lp_Variant>
AV-unprocessed.smi:1184-4

> <Gold.Version>
5.8.1

> <Gold.Id.Protein>
6NUR|6NUR_protein|mol2

> <Gold.PLP.Fitness>
41.6433

> <Gold.PLP.PLP>
-33.7635

> <Gold.PLP.part.hbond>
-2.0000

> <Gold.PLP.part.metal>
0.0000

> <Gold.PLP.part.buried>
-1.4115

> <Gold.PLP.part.nonpolar>
-30.1428

> <Gold.PLP.part.repulsive>
0.1203

> <Gold.PLP.ligand.clash>
0.0000

> <Gold.PLP.ligand.torsion>
0.4639

> <Gold.PLP.Chemscore.Hbond>
2.9200

> <Gold.PLP.Chemscore.CHOScore>
0.0000

> <Gold.PLP.Chemscore.Metal>
0.0000

> <Gold.Chemscore.Hbonds>
donor molecule, donor type, donor heavy atom, donor atom, acceptor molecule, acceptor atom, score
      L1  H     3    43       P1 10186  1.82
      L1  H     8    32       P1  7948  1.00

> <Gold.PLP.Chemscore.Internal.Correction>
0.0476

> <Gold.Rescore>
     Score         DG    S(hbond)    S(metal)    S(lipo)     H(rot)  DE(clash)    DE(int)     intcor
     15.82     -17.80       1.94        0.00      86.47       1.67       1.49       0.48       ----

> <Gold.Chemscore.Fitness>
15.8201

> <Gold.Chemscore.DG>
-17.7957

> <Gold.Chemscore.ZeroCoef>
-5.4800

> <Gold.Chemscore.Hbond>
1.9372

> <Gold.Chemscore.Metal>
0.0000

> <Gold.Chemscore.Lipo>
86.4672

> <Gold.Chemscore.Internal_Hbond>
0.0000

> <Gold.Chemscore.DEClash>
1.4927

> <Gold.Chemscore.DEInternal>
0.4829

> <Gold.Chemscore.Rot>
1.6684

> <Gold.Chemscore.Internal.Correction>
   9.000000E+99

> <Gold.Chemscore.Hbonds>
donor molecule, donor type, donor heavy atom, donor atom, acceptor molecule, acceptor atom, score
      L1  H     3    43       P1 10186  0.73
      L1  H     8    32       P1  7948  1.00

> <Gold.Chemscore.Hbond.Weighted>
-6.4703

> <Gold.Chemscore.Metal.Weighted>
-0.0000

> <Gold.Chemscore.Lipo.Weighted>
-10.1167

> <Gold.Chemscore.Internal_Hbond.Weighted>
0.0000

> <Gold.Chemscore.DEClash.Weighted>
1.4927

> <Gold.Chemscore.DEInternal.Weighted>
0.4829

> <Gold.Chemscore.Rot.Weighted>
4.2712

> <Gold.Chemscore.Internal.Correction.Weighted>
   9.000000E+99

> <Gold.Protein.RotatedTorsions>
[ 6907 6896 6895 6894 ] final -113.09 input  -60.11 | X-H torsion
[ 7974 7965 7964 7962 ] final    4.49 input  175.53 | X-H torsion
[ 8008 7997 7996 7995 ] final  -27.44 input   59.86 | X-H torsion
[ 10167 10162 10161 10158 ] final   73.24 input  -65.29 | X-H torsion
[ 10718 10713 10712 10709 ] final  153.27 input   66.30 | X-H torsion
[ 10763 10752 10751 10750 ] final   49.65 input  -60.55 | X-H torsion
[ 11005 11000 10999 10996 ] final -113.63 input  -57.11 | X-H torsion

> <Gold.Protein.ActiveResidues>
 VAL166  LYS551  ARG553  GLY616  TRP617  ASP618  TYR619  PRO620  LYS621  CYS622 
 ASP623  PHE694  ASN695  SER759  ASP760  ASP761  ALA762  ILE779  LEU786  VAL792 
 PHE793  MET794  SER795  GLU796  ALA797  LYS798  CYS799  TRP800  GLU811  SER814 

> <Gold.Protein.RotatedAtoms>
  150.7804  133.8996  159.3337 H   0  0  0  0  0  0  0  0  0  0  0  0  # atno 6907 bound_to 6896
  151.6860  135.0952  160.0234 H   0  0  0  0  0  0  0  0  0  0  0  0  # atno 6908 bound_to 6896
  152.3853  133.6564  159.6229 H   0  0  0  0  0  0  0  0  0  0  0  0  # atno 6909 bound_to 6896
  146.2444  140.0526  142.8374 H   0  0  0  0  0  0  0  0  0  0  0  0  # atno 7974 bound_to 7965
  154.4377  140.1872  156.0932 H   0  0  0  0  0  0  0  0  0  0  0  0  # atno 8008 bound_to 7997
  156.0349  140.3326  155.7154 H   0  0  0  0  0  0  0  0  0  0  0  0  # atno 8009 bound_to 7997
  155.5785  140.0619  157.2780 H   0  0  0  0  0  0  0  0  0  0  0  0  # atno 8010 bound_to 7997
  140.0267  144.5498  150.7539 H   0  0  0  0  0  0  0  0  0  0  0  0  # atno 10167 bound_to 10162
  157.2470  131.0771  151.1755 H   0  0  0  0  0  0  0  0  0  0  0  0  # atno 10718 bound_to 10713
  152.9786  135.5904  154.4124 H   0  0  0  0  0  0  0  0  0  0  0  0  # atno 10763 bound_to 10752
  154.3758  135.2767  155.2242 H   0  0  0  0  0  0  0  0  0  0  0  0  # atno 10764 bound_to 10752
  154.4177  135.6066  153.6046 H   0  0  0  0  0  0  0  0  0  0  0  0  # atno 10765 bound_to 10752
  141.0602  133.9547  157.2680 H   0  0  0  0  0  0  0  0  0  0  0  0  # atno 11005 bound_to 11000
  145.0971  140.9322  143.4735 LP  0  0  0  0  0  0  0  0  0  0  0  0  # atno 17320 bound_to 7965
  145.0711  139.3031  143.5831 LP  0  0  0  0  0  0  0  0  0  0  0  0  # atno 17321 bound_to 7965
  140.7320  143.2700  151.3918 LP  0  0  0  0  0  0  0  0  0  0  0  0  # atno 17342 bound_to 10162
  139.6103  144.1111  152.2292 LP  0  0  0  0  0  0  0  0  0  0  0  0  # atno 17343 bound_to 10162
  157.3319  130.6989  149.6329 LP  0  0  0  0  0  0  0  0  0  0  0  0  # atno 17370 bound_to 10713
  155.9667  130.4305  150.4879 LP  0  0  0  0  0  0  0  0  0  0  0  0  # atno 17371 bound_to 10713
  139.9426  135.0189  156.8755 LP  0  0  0  0  0  0  0  0  0  0  0  0  # atno 17394 bound_to 11000
  140.5883  134.0286  155.7490 LP  0  0  0  0  0  0  0  0  0  0  0  0  # atno 17395 bound_to 11000

$$$$
