AV-unprocessed.smi:370|AV-procd|sdf|2436|dock7
  -GOLD-   2262022373D 1   1.00000     0.00000
 Structure written by MMmdl.
 42 43  0  0  0  0  0  0  0  0  1 V2000
  138.2568  136.9210  153.3035 C   0  0  0  0  0  0  0  0  0  0  0  0
  139.7153  137.0766  153.5661 C   0  0  0  0  0  0  0  0  0  0  0  0
  140.6390  137.9990  153.1629 C   0  0  0  0  0  0  0  0  0  0  0  0
  141.8387  137.5411  153.7815 C   0  0  0  0  0  0  0  0  0  0  0  0
  143.1194  138.1425  153.6780 N   0  0  0  0  0  0  0  0  0  0  0  0
  144.2704  137.7597  154.2561 C   0  0  0  0  0  0  0  0  0  0  0  0
  144.4123  136.7701  154.9741 O   0  0  0  0  0  0  0  0  0  0  0  0
  145.2690  138.5962  153.9402 N   0  0  0  0  0  0  0  0  0  0  0  0
  146.6623  138.4696  154.3681 C   0  0  0  0  0  0  0  0  0  0  0  0
  147.3402  139.8481  154.6230 C   0  0  0  0  0  0  0  0  0  0  0  0
  147.1017  140.7139  153.3621 C   0  0  0  0  0  0  0  0  0  0  0  0
  146.5614  140.5135  155.7864 C   0  0  0  0  0  0  0  0  0  0  0  0
  148.7836  139.6968  154.9620 N   0  0  0  0  0  0  0  0  0  0  0  0
  149.5757  138.9542  153.9741 C   0  0  0  0  0  0  0  0  0  0  0  0
  151.0225  138.7286  154.4442 C   0  0  0  0  0  0  0  0  0  0  0  0
  151.6326  139.9809  154.7308 O   0  0  0  0  0  0  0  0  0  0  0  0
  150.9293  140.7101  155.7290 C   0  0  0  0  0  0  0  0  0  0  0  0
  149.4800  140.9503  155.2733 C   0  0  0  0  0  0  0  0  0  0  0  0
  141.6585  136.4401  154.4877 N   0  0  0  0  0  0  0  0  0  0  0  0
  140.2982  136.1367  154.3578 O   0  0  0  0  0  0  0  0  0  0  0  0
  137.8544  137.8036  152.8057 H   0  0  0  0  0  0  0  0  0  0  0  0
  137.7082  136.7792  154.2347 H   0  0  0  0  0  0  0  0  0  0  0  0
  138.0697  136.0578  152.6647 H   0  0  0  0  0  0  0  0  0  0  0  0
  140.4670  138.8537  152.5263 H   0  0  0  0  0  0  0  0  0  0  0  0
  143.1644  138.9607  153.0888 H   0  0  0  0  0  0  0  0  0  0  0  0
  145.0579  139.3744  153.3329 H   0  0  0  0  0  0  0  0  0  0  0  0
  146.6782  137.8546  155.2675 H   0  0  0  0  0  0  0  0  0  0  0  0
  147.2385  137.8959  153.6400 H   0  0  0  0  0  0  0  0  0  0  0  0
  146.0361  140.8105  153.1508 H   0  0  0  0  0  0  0  0  0  0  0  0
  147.5591  140.2811  152.4728 H   0  0  0  0  0  0  0  0  0  0  0  0
  147.4901  141.7256  153.4759 H   0  0  0  0  0  0  0  0  0  0  0  0
  145.4836  140.4633  155.6264 H   0  0  0  0  0  0  0  0  0  0  0  0
  146.8027  141.5709  155.8941 H   0  0  0  0  0  0  0  0  0  0  0  0
  146.7706  140.0295  156.7408 H   0  0  0  0  0  0  0  0  0  0  0  0
  149.1372  137.9780  153.7767 H   0  0  0  0  0  0  0  0  0  0  0  0
  149.5948  139.4906  153.0254 H   0  0  0  0  0  0  0  0  0  0  0  0
  151.0458  138.0917  155.3300 H   0  0  0  0  0  0  0  0  0  0  0  0
  151.5980  138.2211  153.6700 H   0  0  0  0  0  0  0  0  0  0  0  0
  150.9516  140.1636  156.6732 H   0  0  0  0  0  0  0  0  0  0  0  0
  151.4354  141.6605  155.8978 H   0  0  0  0  0  0  0  0  0  0  0  0
  149.4907  141.6028  154.4001 H   0  0  0  0  0  0  0  0  0  0  0  0
  148.9696  141.4915  156.0678 H   0  0  0  0  0  0  0  0  0  0  0  0
  1  2  1  0  0  0  0
  1 21  1  0  0  0  0
  1 22  1  0  0  0  0
  1 23  1  0  0  0  0
  2 20  1  0  0  0  0
  2  3  2  0  0  0  0
  3  4  1  0  0  0  0
  3 24  1  0  0  0  0
  4  5  1  0  0  0  0
  4 19  2  0  0  0  0
  5  6  1  0  0  0  0
  5 25  1  0  0  0  0
  6  7  2  0  0  0  0
  6  8  1  0  0  0  0
  8  9  1  0  0  0  0
  8 26  1  0  0  0  0
  9 10  1  0  0  0  0
  9 27  1  0  0  0  0
  9 28  1  0  0  0  0
 10 11  1  0  0  0  0
 10 12  1  0  0  0  0
 10 13  1  0  0  0  0
 11 29  1  0  0  0  0
 11 30  1  0  0  0  0
 11 31  1  0  0  0  0
 12 32  1  0  0  0  0
 12 33  1  0  0  0  0
 12 34  1  0  0  0  0
 13 18  1  0  0  0  0
 13 14  1  0  0  0  0
 14 15  1  0  0  0  0
 14 35  1  0  0  0  0
 14 36  1  0  0  0  0
 15 16  1  0  0  0  0
 15 37  1  0  0  0  0
 15 38  1  0  0  0  0
 16 17  1  0  0  0  0
 17 18  1  0  0  0  0
 17 39  1  0  0  0  0
 17 40  1  0  0  0  0
 18 41  1  0  0  0  0
 18 42  1  0  0  0  0
 19 20  1  0  0  0  0
M  END
> <s_m_source_file>
AV-unprocessed.smi

> <i_m_source_file_index>
370

> <i_lp_mmshare_version>
43012

> <i_f3d_flags>
0

> <s_epik_input>
W0NIM11jMVtjSF1jKG5vMSlbTkhdQyg9TylbTkhdW0NIMl1DKFtDSDNdKShbQ0gzXSlOMltDSDJdW0NIMl1PW0NIMl1bQ0gyXTI=

> <s_epik_cmdline>
J2VwaWtfcHl0aG9uJywgJy1waCcsICc3LjAnLCAnLXRuJywgJzgnLCAnLW1hJywgJzIwMCcsICctbWV0YWxfYmluZGluZycsICctaW1hZScsICc8aW5maWxlLm1hZT4nLCAnLW9tYWUnLCAnPG91dGZpbGUubWFlPic=

> <r_epik_Ionization_Penalty>
0.214074

> <r_epik_Ionization_Penalty_Charging>
0

> <r_epik_Ionization_Penalty_Neutral>
0.214074

> <r_epik_State_Penalty>
0.204211

> <r_epik_Charging_Adjusted_Penalty>
0.204211

> <i_epik_Tot_Q>
0

> <i_epik_Tot_abs_Q>
0

> <r_epik_Metal_State_Penalty>
0.217151

> <b_epik_Metal_Only>
0

> <s_lp_Force_Field>
OPLS_2005

> <r_lp_Energy>
40.6457

> <b_lp_Chiralities_Consistent>
1

> <s_lp_Variant>
AV-unprocessed.smi:370-1

> <Gold.Version>
5.8.1

> <Gold.Id.Protein>
6NUR|6NUR_protein|mol2

> <Gold.PLP.Fitness>
41.5811

> <Gold.PLP.PLP>
-30.0980

> <Gold.PLP.part.hbond>
-4.0800

> <Gold.PLP.part.metal>
0.0000

> <Gold.PLP.part.buried>
-4.7355

> <Gold.PLP.part.nonpolar>
-21.8133

> <Gold.PLP.part.repulsive>
0.2013

> <Gold.PLP.ligand.clash>
0.0000

> <Gold.PLP.ligand.torsion>
0.2242

> <Gold.PLP.Chemscore.Hbond>
3.9593

> <Gold.PLP.Chemscore.CHOScore>
0.0000

> <Gold.PLP.Chemscore.Metal>
0.0000

> <Gold.Chemscore.Hbonds>
donor molecule, donor type, donor heavy atom, donor atom, acceptor molecule, acceptor atom, score
      L1  H     5    25       P1 10175  1.00
      L1  H     8    26       P1 10175  0.94
      P1  H  7989  7998       L1    16  0.96
      P1  H 11000 11005       L1    20  0.53

> <Gold.PLP.Chemscore.Internal.Correction>
0.0536

> <Gold.Rescore>
     Score         DG    S(hbond)    S(metal)    S(lipo)     H(rot)  DE(clash)    DE(int)     intcor
     17.19     -18.79       2.98        0.00      62.80       1.55       0.02       1.58       ----

> <Gold.Chemscore.Fitness>
17.1860

> <Gold.Chemscore.DG>
-18.7908

> <Gold.Chemscore.ZeroCoef>
-5.4800

> <Gold.Chemscore.Hbond>
2.9772

> <Gold.Chemscore.Metal>
0.0000

> <Gold.Chemscore.Lipo>
62.7973

> <Gold.Chemscore.Internal_Hbond>
0.0000

> <Gold.Chemscore.DEClash>
0.0235

> <Gold.Chemscore.DEInternal>
1.5814

> <Gold.Chemscore.Rot>
1.5548

> <Gold.Chemscore.Internal.Correction>
   9.000000E+99

> <Gold.Chemscore.Hbonds>
donor molecule, donor type, donor heavy atom, donor atom, acceptor molecule, acceptor atom, score
      L1  H     5    25       P1 10175  1.00
      L1  H     8    26       P1 10175  0.90
      P1  H  7989  7998       L1    16  0.38
      P1  H 11000 11005       L1    20  0.17

> <Gold.Chemscore.Hbond.Weighted>
-9.9438

> <Gold.Chemscore.Metal.Weighted>
-0.0000

> <Gold.Chemscore.Lipo.Weighted>
-7.3473

> <Gold.Chemscore.Internal_Hbond.Weighted>
0.0000

> <Gold.Chemscore.DEClash.Weighted>
0.0235

> <Gold.Chemscore.DEInternal.Weighted>
1.5814

> <Gold.Chemscore.Rot.Weighted>
3.9802

> <Gold.Chemscore.Internal.Correction.Weighted>
   9.000000E+99

> <Gold.Protein.RotatedTorsions>
[ 6907 6896 6895 6894 ] final -147.29 input  -60.11 | X-H torsion
[ 7974 7965 7964 7962 ] final   83.93 input  175.53 | X-H torsion
[ 8008 7997 7996 7995 ] final -145.19 input   59.86 | X-H torsion
[ 10167 10162 10161 10158 ] final  144.67 input  -65.29 | X-H torsion
[ 10718 10713 10712 10709 ] final  -26.97 input   66.30 | X-H torsion
[ 10763 10752 10751 10750 ] final  105.59 input  -60.55 | X-H torsion
[ 11005 11000 10999 10996 ] final   75.12 input  -57.11 | X-H torsion

> <Gold.Protein.ActiveResidues>
 VAL166  LYS551  ARG553  GLY616  TRP617  ASP618  TYR619  PRO620  LYS621  CYS622 
 ASP623  PHE694  ASN695  SER759  ASP760  ASP761  ALA762  ILE779  LEU786  VAL792 
 PHE793  MET794  SER795  GLU796  ALA797  LYS798  CYS799  TRP800  GLU811  SER814 

> <Gold.Protein.RotatedAtoms>
  151.1536  133.4891  159.2594 H   0  0  0  0  0  0  0  0  0  0  0  0  # atno 6907 bound_to 6896
  151.1528  135.0235  159.8686 H   0  0  0  0  0  0  0  0  0  0  0  0  # atno 6908 bound_to 6896
  152.5463  134.1418  159.8535 H   0  0  0  0  0  0  0  0  0  0  0  0  # atno 6909 bound_to 6896
  145.6054  139.2359  143.2222 H   0  0  0  0  0  0  0  0  0  0  0  0  # atno 7974 bound_to 7965
  155.5392  140.0606  157.2873 H   0  0  0  0  0  0  0  0  0  0  0  0  # atno 8008 bound_to 7997
  154.4458  140.1922  156.0618 H   0  0  0  0  0  0  0  0  0  0  0  0  # atno 8009 bound_to 7997
  156.0597  140.3274  155.7450 H   0  0  0  0  0  0  0  0  0  0  0  0  # atno 8010 bound_to 7997
  139.4942  144.5955  151.6591 H   0  0  0  0  0  0  0  0  0  0  0  0  # atno 10167 bound_to 10162
  156.4443  130.4471  149.7032 H   0  0  0  0  0  0  0  0  0  0  0  0  # atno 10718 bound_to 10713
  153.3814  135.3905  155.1860 H   0  0  0  0  0  0  0  0  0  0  0  0  # atno 10763 bound_to 10752
  154.8708  135.3726  154.4852 H   0  0  0  0  0  0  0  0  0  0  0  0  # atno 10764 bound_to 10752
  153.5329  135.7085  153.5735 H   0  0  0  0  0  0  0  0  0  0  0  0  # atno 10765 bound_to 10752
  139.9358  134.7491  156.1232 H   0  0  0  0  0  0  0  0  0  0  0  0  # atno 11005 bound_to 11000
  146.1545  140.6878  142.9306 LP  0  0  0  0  0  0  0  0  0  0  0  0  # atno 17320 bound_to 7965
  144.7292  140.4620  143.6950 LP  0  0  0  0  0  0  0  0  0  0  0  0  # atno 17321 bound_to 7965
  140.5592  144.0296  150.6162 LP  0  0  0  0  0  0  0  0  0  0  0  0  # atno 17342 bound_to 10162
  140.3376  143.3039  152.0622 LP  0  0  0  0  0  0  0  0  0  0  0  0  # atno 17343 bound_to 10162
  156.3884  130.7614  151.2613 LP  0  0  0  0  0  0  0  0  0  0  0  0  # atno 17370 bound_to 10713
  157.7505  131.0275  150.4008 LP  0  0  0  0  0  0  0  0  0  0  0  0  # atno 17371 bound_to 10713
  141.0971  133.6691  156.2671 LP  0  0  0  0  0  0  0  0  0  0  0  0  # atno 17394 bound_to 11000
  140.6078  134.5489  157.5528 LP  0  0  0  0  0  0  0  0  0  0  0  0  # atno 17395 bound_to 11000

$$$$
