AV-unprocessed.smi:37|AV-procd|sdf|321|dock1
  -GOLD-   2262016143D 1   1.00000     0.00000
 Structure written by MMmdl.
 43 44  0  0  0  0  0  0  0  0  2 V2000
  145.8200  134.5077  162.4821 C   0  0  0  0  0  0  0  0  0  0  0  0
  147.3072  134.6904  162.1496 C   0  0  0  0  0  0  0  0  0  0  0  0
  147.5748  135.9600  161.3435 C   0  0  0  0  0  0  0  0  0  0  0  0
  147.4243  137.0777  161.8371 O   0  0  0  0  0  0  0  0  0  0  0  0
  147.9545  135.7010  160.0836 O   0  0  0  0  0  0  0  0  0  0  0  0
  148.3391  136.7626  159.2273 C   0  0  0  0  0  0  0  0  0  0  0  0
  148.8678  136.1815  157.9093 C   0  0  2  0  0  0  0  0  0  0  0  0
  150.1266  135.5349  158.1091 O   0  0  0  0  0  0  0  0  0  0  0  0
  151.0164  135.8503  157.0741 C   0  0  2  0  0  0  0  0  0  0  0  0
  152.0944  136.7862  157.5892 N   0  0  0  0  0  0  0  0  0  0  0  0
  151.7935  138.0519  158.0671 C   0  0  0  0  0  0  0  0  0  0  0  0
  152.7587  138.8791  158.5173 C   0  0  0  0  0  0  0  0  0  0  0  0
  152.4332  140.1010  158.9729 F   0  0  0  0  0  0  0  0  0  0  0  0
  154.1518  138.4384  158.5080 C   0  0  0  0  0  0  0  0  0  0  0  0
  155.0289  139.2004  158.9118 O   0  0  0  0  0  0  0  0  0  0  0  0
  154.4196  137.1831  158.0461 N   0  5  0  0  0  0  0  0  0  0  0  0
  153.4457  136.3417  157.5908 C   0  0  0  0  0  0  0  0  0  0  0  0
  153.6794  135.2074  157.1732 O   0  0  0  0  0  0  0  0  0  0  0  0
  150.1918  136.5392  155.9820 C   0  0  1  0  0  0  0  0  0  0  0  0
  149.4184  135.1446  154.7810 Br  0  0  0  0  0  0  0  0  0  0  0  0
  149.1087  137.2143  156.8030 C   0  0  1  0  0  0  0  0  0  0  0  0
  147.9554  137.4744  156.0107 O   0  0  0  0  0  0  0  0  0  0  0  0
  148.0062  138.3510  154.9926 C   0  0  0  0  0  0  0  0  0  0  0  0
  148.8902  139.1891  154.8061 O   0  0  0  0  0  0  0  0  0  0  0  0
  146.8050  138.2075  154.0565 C   0  0  0  0  0  0  0  0  0  0  0  0
  146.8223  139.1949  152.8803 C   0  0  0  0  0  0  0  0  0  0  0  0
  145.6582  133.5660  163.0067 H   0  0  0  0  0  0  0  0  0  0  0  0
  145.2098  134.4921  161.5785 H   0  0  0  0  0  0  0  0  0  0  0  0
  145.4522  135.3082  163.1250 H   0  0  0  0  0  0  0  0  0  0  0  0
  147.8936  134.7276  163.0680 H   0  0  0  0  0  0  0  0  0  0  0  0
  147.6655  133.8320  161.5808 H   0  0  0  0  0  0  0  0  0  0  0  0
  147.4980  137.4322  159.0439 H   0  0  0  0  0  0  0  0  0  0  0  0
  149.1220  137.3423  159.7177 H   0  0  0  0  0  0  0  0  0  0  0  0
  148.1857  135.4091  157.5502 H   0  0  0  0  0  0  0  0  0  0  0  0
  151.5494  134.9579  156.7417 H   0  0  0  0  0  0  0  0  0  0  0  0
  150.7739  138.4011  158.0907 H   0  0  0  0  0  0  0  0  0  0  0  0
  150.7780  137.2277  155.3732 H   0  0  0  0  0  0  0  0  0  0  0  0
  149.5253  138.1263  157.2340 H   0  0  0  0  0  0  0  0  0  0  0  0
  146.7832  137.1852  153.6784 H   0  0  0  0  0  0  0  0  0  0  0  0
  145.8941  138.3481  154.6387 H   0  0  0  0  0  0  0  0  0  0  0  0
  145.9517  139.0461  152.2418 H   0  0  0  0  0  0  0  0  0  0  0  0
  147.7105  139.0638  152.2612 H   0  0  0  0  0  0  0  0  0  0  0  0
  146.8018  140.2278  153.2296 H   0  0  0  0  0  0  0  0  0  0  0  0
  1  2  1  0  0  0  0
  1 27  1  0  0  0  0
  1 28  1  0  0  0  0
  1 29  1  0  0  0  0
  2  3  1  0  0  0  0
  2 30  1  0  0  0  0
  2 31  1  0  0  0  0
  3  4  2  0  0  0  0
  3  5  1  0  0  0  0
  5  6  1  0  0  0  0
  6  7  1  0  0  0  0
  6 32  1  0  0  0  0
  6 33  1  0  0  0  0
  7 21  1  0  0  0  0
  7  8  1  0  0  0  0
  7 34  1  0  0  0  0
  8  9  1  0  0  0  0
  9 10  1  0  0  0  0
  9 19  1  0  0  0  0
  9 35  1  0  0  0  0
 10 17  1  0  0  0  0
 10 11  1  0  0  0  0
 11 12  2  0  0  0  0
 11 36  1  0  0  0  0
 12 13  1  0  0  0  0
 12 14  1  0  0  0  0
 14 15  2  0  0  0  0
 14 16  1  0  0  0  0
 16 17  1  0  0  0  0
 17 18  2  0  0  0  0
 19 20  1  0  0  0  0
 19 21  1  0  0  0  0
 19 37  1  0  0  0  0
 21 22  1  0  0  0  0
 21 38  1  0  0  0  0
 22 23  1  0  0  0  0
 23 24  2  0  0  0  0
 23 25  1  0  0  0  0
 25 26  1  0  0  0  0
 25 39  1  0  0  0  0
 25 40  1  0  0  0  0
 26 41  1  0  0  0  0
 26 42  1  0  0  0  0
 26 43  1  0  0  0  0
M  CHG  1  16  -1
M  END
> <s_m_source_file>
AV-unprocessed.smi

> <i_m_source_file_index>
37

> <i_lp_mmshare_version>
43012

> <i_f3d_flags>
0

> <s_epik_input>
W0NIM11bQ0gyXUMoPU8pT1tDSDJdW0NAQEhdMU9bQ0BASF0objJbY0hdYyhGKWMoPU8pW25IXWMyPU8pW0NAQEhdKEJyKVtDQEhdMU9DKD1PKVtDSDJdW0NIM10=

> <s_epik_cmdline>
J2VwaWtfcHl0aG9uJywgJy1waCcsICc3LjAnLCAnLXRuJywgJzgnLCAnLW1hJywgJzIwMCcsICctbWV0YWxfYmluZGluZycsICctaW1hZScsICc8aW5maWxlLm1hZT4nLCAnLW9tYWUnLCAnPG91dGZpbGUubWFlPic=

> <r_epik_Ionization_Penalty>
1.08158

> <r_epik_Ionization_Penalty_Charging>
9.05154e-09

> <r_epik_Ionization_Penalty_Neutral>
1.08158

> <r_epik_State_Penalty>
1.13706

> <r_epik_Charging_Adjusted_Penalty>
1.13706

> <i_epik_Tot_Q>
-1

> <i_epik_Tot_abs_Q>
1

> <r_epik_Metal_State_Penalty>
0.00343535

> <b_epik_Metal_Only>
0

> <s_epik_Chemistry_Notes>
This compound has an ester and may undergo hydrolysis at high or low pH. This compound contains an acetal/aminal-like group ( X-CH(R)-Y where X, Y are N, S, or O) that may be acid/base labile, releasing an aldehyde.

> <s_lp_Force_Field>
OPLS_2005

> <r_lp_Energy>
31.9514

> <b_lp_Chiralities_Consistent>
1

> <s_lp_Variant>
AV-unprocessed.smi:37-19

> <Gold.Version>
5.8.1

> <Gold.Id.Protein>
6NUR|6NUR_protein|mol2

> <Gold.PLP.Fitness>
43.4454

> <Gold.PLP.PLP>
-30.4976

> <Gold.PLP.part.hbond>
-5.0000

> <Gold.PLP.part.metal>
0.0000

> <Gold.PLP.part.buried>
-3.3044

> <Gold.PLP.part.nonpolar>
-22.0631

> <Gold.PLP.part.repulsive>
0.1511

> <Gold.PLP.ligand.clash>
0.0000

> <Gold.PLP.ligand.torsion>
0.4060

> <Gold.PLP.Chemscore.Hbond>
4.4970

> <Gold.PLP.Chemscore.CHOScore>
0.0000

> <Gold.PLP.Chemscore.Metal>
0.0000

> <Gold.Chemscore.Hbonds>
donor molecule, donor type, donor heavy atom, donor atom, acceptor molecule, acceptor atom, score
      P1  H  6896  6908       L1     8  0.83
      P1  H  6931  6943       L1     4  0.98
      P1  H  6934  6947       L1     4  0.55
      P1  H  7997  8009       L1    15  0.91
      P1  H 10752 10764       L1    18  1.00

> <Gold.PLP.Chemscore.Internal.Correction>
0.2688

> <Gold.Rescore>
     Score         DG    S(hbond)    S(metal)    S(lipo)     H(rot)  DE(clash)    DE(int)     intcor
     15.22     -15.72       3.76        0.00      51.63       3.27       0.09       0.41       ----

> <Gold.Chemscore.Fitness>
15.2232

> <Gold.Chemscore.DG>
-15.7214

> <Gold.Chemscore.ZeroCoef>
-5.4800

> <Gold.Chemscore.Hbond>
3.7616

> <Gold.Chemscore.Metal>
0.0000

> <Gold.Chemscore.Lipo>
51.6329

> <Gold.Chemscore.Internal_Hbond>
0.0000

> <Gold.Chemscore.DEClash>
0.0858

> <Gold.Chemscore.DEInternal>
0.4124

> <Gold.Chemscore.Rot>
3.2669

> <Gold.Chemscore.Internal.Correction>
   9.000000E+99

> <Gold.Chemscore.Hbonds>
donor molecule, donor type, donor heavy atom, donor atom, acceptor molecule, acceptor atom, score
      P1  H  6896  6908       L1     8  0.81
      P1  H  6931  6943       L1     4  0.86
      P1  H  6934  6947       L1     4  0.53
      P1  H  7997  8009       L1    15  0.31
      P1  H 10752 10764       L1    18  0.65

> <Gold.Chemscore.Hbond.Weighted>
-12.5637

> <Gold.Chemscore.Metal.Weighted>
-0.0000

> <Gold.Chemscore.Lipo.Weighted>
-6.0410

> <Gold.Chemscore.Internal_Hbond.Weighted>
0.0000

> <Gold.Chemscore.DEClash.Weighted>
0.0858

> <Gold.Chemscore.DEInternal.Weighted>
0.4124

> <Gold.Chemscore.Rot.Weighted>
8.3634

> <Gold.Chemscore.Internal.Correction.Weighted>
   9.000000E+99

> <Gold.Protein.RotatedTorsions>
[ 6907 6896 6895 6894 ] final  164.39 input  -60.11 | X-H torsion
[ 7974 7965 7964 7962 ] final   56.62 input  175.53 | X-H torsion
[ 8008 7997 7996 7995 ] final   90.24 input   59.86 | X-H torsion
[ 10167 10162 10161 10158 ] final -147.92 input  -65.29 | X-H torsion
[ 10718 10713 10712 10709 ] final   12.50 input   66.30 | X-H torsion
[ 10763 10752 10751 10750 ] final   22.32 input  -60.55 | X-H torsion
[ 11005 11000 10999 10996 ] final  119.20 input  -57.11 | X-H torsion

> <Gold.Protein.ActiveResidues>
 VAL166  LYS551  ARG553  GLY616  TRP617  ASP618  TYR619  PRO620  LYS621  CYS622 
 ASP623  PHE694  ASN695  SER759  ASP760  ASP761  ALA762  ILE779  LEU786  VAL792 
 PHE793  MET794  SER795  GLU796  ALA797  LYS798  CYS799  TRP800  GLU811  SER814 

> <Gold.Protein.RotatedAtoms>
  151.9106  133.3560  159.3862 H   0  0  0  0  0  0  0  0  0  0  0  0  # atno 6907 bound_to 6896
  150.7059  134.4735  159.5446 H   0  0  0  0  0  0  0  0  0  0  0  0  # atno 6908 bound_to 6896
  152.2341  134.8293  160.0520 H   0  0  0  0  0  0  0  0  0  0  0  0  # atno 6909 bound_to 6896
  145.9378  139.3862  143.0382 H   0  0  0  0  0  0  0  0  0  0  0  0  # atno 7974 bound_to 7965
  156.0096  140.3351  155.6928 H   0  0  0  0  0  0  0  0  0  0  0  0  # atno 8008 bound_to 7997
  155.6176  140.0671  157.2705 H   0  0  0  0  0  0  0  0  0  0  0  0  # atno 8009 bound_to 7997
  154.4277  140.1782  156.1325 H   0  0  0  0  0  0  0  0  0  0  0  0  # atno 8010 bound_to 7997
  139.7578  143.8422  152.2601 H   0  0  0  0  0  0  0  0  0  0  0  0  # atno 10167 bound_to 10162
  157.0111  130.6117  149.5708 H   0  0  0  0  0  0  0  0  0  0  0  0  # atno 10718 bound_to 10713
  153.0925  135.6650  153.9827 H   0  0  0  0  0  0  0  0  0  0  0  0  # atno 10763 bound_to 10752
  153.9420  135.2993  155.3443 H   0  0  0  0  0  0  0  0  0  0  0  0  # atno 10764 bound_to 10752
  154.7341  135.5110  153.9085 H   0  0  0  0  0  0  0  0  0  0  0  0  # atno 10765 bound_to 10752
  139.9137  134.9626  156.7619 H   0  0  0  0  0  0  0  0  0  0  0  0  # atno 11005 bound_to 11000
  145.8340  140.9616  143.0834 LP  0  0  0  0  0  0  0  0  0  0  0  0  # atno 17320 bound_to 7965
  144.6774  140.0199  143.7484 LP  0  0  0  0  0  0  0  0  0  0  0  0  # atno 17321 bound_to 7965
  139.8419  144.7206  150.9320 LP  0  0  0  0  0  0  0  0  0  0  0  0  # atno 17342 bound_to 10162
  140.7804  143.3976  151.1204 LP  0  0  0  0  0  0  0  0  0  0  0  0  # atno 17343 bound_to 10162
  156.0136  130.5229  150.8065 LP  0  0  0  0  0  0  0  0  0  0  0  0  # atno 17370 bound_to 10713
  157.5320  131.0937  150.9943 LP  0  0  0  0  0  0  0  0  0  0  0  0  # atno 17371 bound_to 10713
  140.6691  133.9576  155.7846 LP  0  0  0  0  0  0  0  0  0  0  0  0  # atno 17394 bound_to 11000
  141.0590  134.0374  157.3683 LP  0  0  0  0  0  0  0  0  0  0  0  0  # atno 17395 bound_to 11000

$$$$
