AV-unprocessed.smi:182|AV-procd|sdf|1456|dock7
  -GOLD-   2262019263D 1   1.00000     0.00000
 Structure written by MMmdl.
 56 59  0  0  0  0  0  0  0  0  1 V2000
  155.6763  137.6031  162.3016 N   0  0  0  0  0  0  0  0  0  0  0  0
  155.5739  138.9327  162.2369 C   0  0  0  0  0  0  0  0  0  0  0  0
  156.4284  139.6766  162.7148 O   0  0  0  0  0  0  0  0  0  0  0  0
  154.3297  139.4915  161.5385 C   0  0  0  0  0  0  0  0  0  0  0  0
  154.3257  141.0303  161.4252 C   0  0  0  0  0  0  0  0  0  0  0  0
  153.1177  141.5911  160.6488 C   0  0  1  0  0  0  0  0  0  0  0  0
  153.0836  143.1312  160.7078 C   0  0  0  0  0  0  0  0  0  0  0  0
  151.8789  143.6788  159.9268 C   0  0  0  0  0  0  0  0  0  0  0  0
  151.8728  143.1562  158.4817 C   0  0  0  0  0  0  0  0  0  0  0  0
  151.9553  141.6952  158.4592 N   0  0  0  0  0  0  0  0  0  0  0  0
  151.6290  141.0553  157.3067 C   0  0  0  0  0  0  0  0  0  0  0  0
  152.5256  140.2190  156.7177 N   0  0  0  0  0  0  0  0  0  0  0  0
  152.2110  139.5765  155.5893 C   0  0  0  0  0  0  0  0  0  0  0  0
  151.0741  139.6217  154.8931 N   0  0  0  0  0  0  0  0  0  0  0  0
  150.1708  140.4618  155.4741 C   0  0  0  0  0  0  0  0  0  0  0  0
  150.3675  141.2166  156.6653 C   0  0  0  0  0  0  0  0  0  0  0  0
  149.2378  141.9829  156.9290 N   0  0  0  0  0  0  0  0  0  0  0  0
  148.4192  141.6913  155.9555 C   0  0  0  0  0  0  0  0  0  0  0  0
  148.8863  140.7618  155.0543 N   0  0  0  0  0  0  0  0  0  0  0  0
  148.2125  140.2934  153.8785 C   0  0  0  0  0  0  0  0  0  0  0  0
  146.6865  140.1797  153.8316 C   0  0  0  0  0  0  0  0  0  0  0  0
  146.8137  138.9609  152.8893 C   0  0  0  0  0  0  0  0  0  0  0  0
  145.8536  137.7945  153.1774 C   0  0  0  0  0  0  0  0  0  0  0  0
  144.5879  138.0167  152.5898 O   0  0  0  0  0  0  0  0  0  0  0  0
  146.7764  139.2862  151.3824 C   0  0  0  0  0  0  0  0  0  0  0  0
  146.7618  138.1090  150.6007 O   0  0  0  0  0  0  0  0  0  0  0  0
  148.2270  138.8123  153.4941 C   0  0  0  0  0  0  0  0  0  0  0  0
  153.0984  141.1299  159.1759 C   0  0  0  0  0  0  0  0  0  0  0  0
  156.4769  137.1840  162.7524 H   0  0  0  0  0  0  0  0  0  0  0  0
  154.9548  137.0211  161.9016 H   0  0  0  0  0  0  0  0  0  0  0  0
  154.2643  139.0421  160.5476 H   0  0  0  0  0  0  0  0  0  0  0  0
  153.4509  139.1595  162.0923 H   0  0  0  0  0  0  0  0  0  0  0  0
  154.3177  141.4557  162.4300 H   0  0  0  0  0  0  0  0  0  0  0  0
  155.2509  141.3723  160.9590 H   0  0  0  0  0  0  0  0  0  0  0  0
  152.2109  141.2230  161.1316 H   0  0  0  0  0  0  0  0  0  0  0  0
  153.0333  143.4696  161.7433 H   0  0  0  0  0  0  0  0  0  0  0  0
  154.0054  143.5394  160.2913 H   0  0  0  0  0  0  0  0  0  0  0  0
  150.9560  143.3801  160.4254 H   0  0  0  0  0  0  0  0  0  0  0  0
  151.8941  144.7690  159.9293 H   0  0  0  0  0  0  0  0  0  0  0  0
  150.9632  143.4906  157.9806 H   0  0  0  0  0  0  0  0  0  0  0  0
  152.7176  143.5726  157.9311 H   0  0  0  0  0  0  0  0  0  0  0  0
  152.9791  138.9314  155.1890 H   0  0  0  0  0  0  0  0  0  0  0  0
  147.4432  142.1469  155.8721 H   0  0  0  0  0  0  0  0  0  0  0  0
  148.5792  140.9096  153.0559 H   0  0  0  0  0  0  0  0  0  0  0  0
  146.2584  139.9238  154.8027 H   0  0  0  0  0  0  0  0  0  0  0  0
  146.1854  141.0481  153.4032 H   0  0  0  0  0  0  0  0  0  0  0  0
  146.2467  136.8611  152.7737 H   0  0  0  0  0  0  0  0  0  0  0  0
  145.7250  137.6331  154.2479 H   0  0  0  0  0  0  0  0  0  0  0  0
  144.4245  138.9472  152.5710 H   0  0  0  0  0  0  0  0  0  0  0  0
  145.8901  139.8664  151.1252 H   0  0  0  0  0  0  0  0  0  0  0  0
  147.6306  139.8943  151.0838 H   0  0  0  0  0  0  0  0  0  0  0  0
  145.9131  138.0301  150.1928 H   0  0  0  0  0  0  0  0  0  0  0  0
  149.0045  138.5382  152.7804 H   0  0  0  0  0  0  0  0  0  0  0  0
  148.2506  138.1563  154.3665 H   0  0  0  0  0  0  0  0  0  0  0  0
  154.0135  141.4473  158.6741 H   0  0  0  0  0  0  0  0  0  0  0  0
  153.0844  140.0433  159.1291 H   0  0  0  0  0  0  0  0  0  0  0  0
  1  2  1  0  0  0  0
  1 29  1  0  0  0  0
  1 30  1  0  0  0  0
  2  3  2  0  0  0  0
  2  4  1  0  0  0  0
  4  5  1  0  0  0  0
  4 31  1  0  0  0  0
  4 32  1  0  0  0  0
  5  6  1  0  0  0  0
  5 33  1  0  0  0  0
  5 34  1  0  0  0  0
  6 28  1  0  0  0  0
  6  7  1  0  0  0  0
  6 35  1  0  0  0  0
  7  8  1  0  0  0  0
  7 36  1  0  0  0  0
  7 37  1  0  0  0  0
  8  9  1  0  0  0  0
  8 38  1  0  0  0  0
  8 39  1  0  0  0  0
  9 10  1  0  0  0  0
  9 40  1  0  0  0  0
  9 41  1  0  0  0  0
 10 11  1  0  0  0  0
 10 28  1  0  0  0  0
 11 16  1  0  0  0  0
 11 12  2  0  0  0  0
 12 13  1  0  0  0  0
 13 14  2  0  0  0  0
 13 42  1  0  0  0  0
 14 15  1  0  0  0  0
 15 19  1  0  0  0  0
 15 16  2  0  0  0  0
 16 17  1  0  0  0  0
 17 18  2  0  0  0  0
 18 19  1  0  0  0  0
 18 43  1  0  0  0  0
 19 20  1  0  0  0  0
 20 27  1  0  0  0  0
 20 21  1  0  0  0  0
 20 44  1  0  0  0  0
 21 22  1  0  0  0  0
 21 45  1  0  0  0  0
 21 46  1  0  0  0  0
 22 23  1  0  0  0  0
 22 25  1  0  0  0  0
 22 27  1  0  0  0  0
 23 24  1  0  0  0  0
 23 47  1  0  0  0  0
 23 48  1  0  0  0  0
 24 49  1  0  0  0  0
 25 26  1  0  0  0  0
 25 50  1  0  0  0  0
 25 51  1  0  0  0  0
 26 52  1  0  0  0  0
 27 53  1  0  0  0  0
 27 54  1  0  0  0  0
 28 55  1  0  0  0  0
 28 56  1  0  0  0  0
M  END
> <s_m_source_file>
AV-unprocessed.smi

> <i_m_source_file_index>
182

> <i_lp_mmshare_version>
43012

> <i_f3d_flags>
0

> <s_epik_input>
W05IMl1DKD1PKVtDSDJdW0NIMl1bQ0BASF0xW0NIMl1bQ0gyXVtDSDJdTihbQ0gyXTEpYyhuW2NIXW4yKWMoYzIzKW5bY0hdbjNbQ0hdKFtDSDJdNClbQ0gyXUM0KFtDSDJdW09IXSlbQ0gyXVtPSF0=

> <s_epik_cmdline>
J2VwaWtfcHl0aG9uJywgJy1waCcsICc3LjAnLCAnLXRuJywgJzgnLCAnLW1hJywgJzIwMCcsICctbWV0YWxfYmluZGluZycsICctaW1hZScsICc8aW5maWxlLm1hZT4nLCAnLW9tYWUnLCAnPG91dGZpbGUubWFlPic=

> <r_lp_tautomer_probability>
1

> <r_epik_Ionization_Penalty>
0.00186057

> <r_epik_Ionization_Penalty_Charging>
0

> <r_epik_Ionization_Penalty_Neutral>
0.00186057

> <r_epik_State_Penalty>
0.00110736

> <r_epik_Charging_Adjusted_Penalty>
0.00110736

> <i_epik_Tot_Q>
0

> <i_epik_Tot_abs_Q>
0

> <r_epik_Metal_State_Penalty>
-0

> <b_epik_Metal_Only>
0

> <s_lp_Force_Field>
OPLS_2005

> <r_lp_Energy>
37.6951

> <b_lp_Chiralities_Consistent>
1

> <s_lp_Variant>
AV-unprocessed.smi:182-2

> <Gold.Version>
5.8.1

> <Gold.Id.Protein>
6NUR|6NUR_protein|mol2

> <Gold.PLP.Fitness>
62.2888

> <Gold.PLP.PLP>
-50.1161

> <Gold.PLP.part.hbond>
-6.6575

> <Gold.PLP.part.metal>
0.0000

> <Gold.PLP.part.buried>
1.4082

> <Gold.PLP.part.nonpolar>
-44.2346

> <Gold.PLP.part.repulsive>
0.8944

> <Gold.PLP.ligand.clash>
0.0000

> <Gold.PLP.ligand.torsion>
1.2597

> <Gold.PLP.Chemscore.Hbond>
4.5638

> <Gold.PLP.Chemscore.CHOScore>
0.0087

> <Gold.PLP.Chemscore.Metal>
0.0000

> <Gold.Chemscore.Hbonds>
donor molecule, donor type, donor heavy atom, donor atom, acceptor molecule, acceptor atom, score
      L1  H    24    49       P1 10175  1.00
      L1  H    26    52       P1 10171  0.75
      P1  H  7954  7966       L1    26  1.00
      P1  H  7989  7998       L1    14  0.72
      P1  H  7997  8008       L1    12  0.90

> <Gold.PLP.Chemscore.Internal.Correction>
0.9749

> <Gold.Rescore>
     Score         DG    S(hbond)    S(metal)    S(lipo)     H(rot)  DE(clash)    DE(int)     intcor
     16.54     -17.80       3.43        0.00     112.33       4.79       0.17       1.09       ----

> <Gold.Chemscore.Fitness>
16.5389

> <Gold.Chemscore.DG>
-17.7968

> <Gold.Chemscore.ZeroCoef>
-5.4800

> <Gold.Chemscore.Hbond>
3.4257

> <Gold.Chemscore.Metal>
0.0000

> <Gold.Chemscore.Lipo>
112.3330

> <Gold.Chemscore.Internal_Hbond>
0.0000

> <Gold.Chemscore.DEClash>
0.1692

> <Gold.Chemscore.DEInternal>
1.0888

> <Gold.Chemscore.Rot>
4.7922

> <Gold.Chemscore.Internal.Correction>
   9.000000E+99

> <Gold.Chemscore.Hbonds>
donor molecule, donor type, donor heavy atom, donor atom, acceptor molecule, acceptor atom, score
      L1  H    24    49       P1 10175  1.00
      L1  H    26    52       P1 10171  0.73
      P1  H  7954  7966       L1    26  0.73
      P1  H  7989  7998       L1    14  0.02
      P1  H  7997  8008       L1    12  0.17

> <Gold.Chemscore.Hbond.Weighted>
-11.4419

> <Gold.Chemscore.Metal.Weighted>
-0.0000

> <Gold.Chemscore.Lipo.Weighted>
-13.1430

> <Gold.Chemscore.Internal_Hbond.Weighted>
0.0000

> <Gold.Chemscore.DEClash.Weighted>
0.1692

> <Gold.Chemscore.DEInternal.Weighted>
1.0888

> <Gold.Chemscore.Rot.Weighted>
12.2680

> <Gold.Chemscore.Internal.Correction.Weighted>
   9.000000E+99

> <Gold.Protein.RotatedTorsions>
[ 6907 6896 6895 6894 ] final   73.85 input  -60.11 | X-H torsion
[ 7974 7965 7964 7962 ] final  127.04 input  175.53 | X-H torsion
[ 8008 7997 7996 7995 ] final  -56.02 input   59.86 | X-H torsion
[ 10167 10162 10161 10158 ] final -150.49 input  -65.29 | X-H torsion
[ 10718 10713 10712 10709 ] final   -3.18 input   66.30 | X-H torsion
[ 10763 10752 10751 10750 ] final   26.82 input  -60.55 | X-H torsion
[ 11005 11000 10999 10996 ] final  -92.20 input  -57.11 | X-H torsion

> <Gold.Protein.ActiveResidues>
 VAL166  LYS551  ARG553  GLY616  TRP617  ASP618  TYR619  PRO620  LYS621  CYS622 
 ASP623  PHE694  ASN695  SER759  ASP760  ASP761  ALA762  ILE779  LEU786  VAL792 
 PHE793  MET794  SER795  GLU796  ALA797  LYS798  CYS799  TRP800  GLU811  SER814 

> <Gold.Protein.RotatedAtoms>
  152.4945  134.4360  159.9527 H   0  0  0  0  0  0  0  0  0  0  0  0  # atno 6907 bound_to 6896
  151.4341  133.3656  159.2780 H   0  0  0  0  0  0  0  0  0  0  0  0  # atno 6908 bound_to 6896
  150.9134  134.8574  159.7500 H   0  0  0  0  0  0  0  0  0  0  0  0  # atno 6909 bound_to 6896
  145.0550  139.3851  143.5035 H   0  0  0  0  0  0  0  0  0  0  0  0  # atno 7974 bound_to 7965
  154.4215  140.1139  156.5571 H   0  0  0  0  0  0  0  0  0  0  0  0  # atno 8008 bound_to 7997
  155.6350  140.3496  155.4676 H   0  0  0  0  0  0  0  0  0  0  0  0  # atno 8009 bound_to 7997
  155.9917  140.1181  157.0621 H   0  0  0  0  0  0  0  0  0  0  0  0  # atno 8010 bound_to 7997
  139.7349  143.8750  152.2546 H   0  0  0  0  0  0  0  0  0  0  0  0  # atno 10167 bound_to 10162
  156.7798  130.5327  149.5753 H   0  0  0  0  0  0  0  0  0  0  0  0  # atno 10718 bound_to 10713
  153.0597  135.6551  154.0493 H   0  0  0  0  0  0  0  0  0  0  0  0  # atno 10763 bound_to 10752
  154.0164  135.2924  155.3388 H   0  0  0  0  0  0  0  0  0  0  0  0  # atno 10764 bound_to 10752
  154.6929  135.5275  153.8485 H   0  0  0  0  0  0  0  0  0  0  0  0  # atno 10765 bound_to 10752
  141.1527  133.7805  156.9986 H   0  0  0  0  0  0  0  0  0  0  0  0  # atno 11005 bound_to 11000
  146.3520  140.0219  142.8658 LP  0  0  0  0  0  0  0  0  0  0  0  0  # atno 17320 bound_to 7965
  145.1480  140.9607  143.4450 LP  0  0  0  0  0  0  0  0  0  0  0  0  # atno 17321 bound_to 7965
  139.8684  144.7081  150.9016 LP  0  0  0  0  0  0  0  0  0  0  0  0  # atno 17342 bound_to 10162
  140.7777  143.3758  151.1565 LP  0  0  0  0  0  0  0  0  0  0  0  0  # atno 17343 bound_to 10162
  156.1225  130.6120  151.0214 LP  0  0  0  0  0  0  0  0  0  0  0  0  # atno 17370 bound_to 10713
  157.6651  131.0873  150.7746 LP  0  0  0  0  0  0  0  0  0  0  0  0  # atno 17371 bound_to 10713
  140.0955  134.9567  157.1842 LP  0  0  0  0  0  0  0  0  0  0  0  0  # atno 17394 bound_to 11000
  140.3388  134.2727  155.7215 LP  0  0  0  0  0  0  0  0  0  0  0  0  # atno 17395 bound_to 11000

$$$$
