AV-unprocessed.smi:781|AV-procd|sdf|3714|dock4
  -GOLD-   22720 1133D 1   1.00000     0.00000
 Structure written by MMmdl.
 38 40  0  0  0  0  0  0  0  0  1 V2000
  148.4572  129.6718  153.1645 C   0  0  0  0  0  0  0  0  0  0  0  0
  148.8812  131.0104  153.6644 C   0  0  0  0  0  0  0  0  0  0  0  0
  148.6861  132.2813  153.2015 C   0  0  0  0  0  0  0  0  0  0  0  0
  149.3596  133.0794  154.1641 C   0  0  0  0  0  0  0  0  0  0  0  0
  149.3903  134.4920  154.0441 N   0  0  0  0  0  0  0  0  0  0  0  0
  149.8103  135.3835  154.9578 C   0  0  0  0  0  0  0  0  0  0  0  0
  150.2595  135.1035  156.0694 O   0  0  0  0  0  0  0  0  0  0  0  0
  149.6750  136.6390  154.5085 N   0  0  0  0  0  0  0  0  0  0  0  0
  150.0069  137.8427  155.2668 C   0  0  1  0  0  0  0  0  0  0  0  0
  151.3573  137.6656  155.9957 C   0  0  2  0  0  0  0  0  0  0  0  0
  151.4821  138.7526  157.0781 C   0  0  0  0  0  0  0  0  0  0  0  0
  151.7290  140.0243  156.2451 C   0  0  0  0  0  0  0  0  0  0  0  0
  151.6967  139.4999  154.7931 C   0  0  1  0  0  0  0  0  0  0  0  0
  152.3709  138.1441  154.9596 C   0  0  0  0  0  0  0  0  0  0  0  0
  150.2725  139.0717  154.3587 C   0  0  2  0  0  0  0  0  0  0  0  0
  149.1829  140.1593  154.4338 C   0  0  0  0  0  0  0  0  0  0  0  0
  149.2049  140.9598  153.2709 O   0  0  0  0  0  0  0  0  0  0  0  0
  149.9164  132.3609  155.1271 N   0  0  0  0  0  0  0  0  0  0  0  0
  149.6126  131.0312  154.8116 O   0  0  0  0  0  0  0  0  0  0  0  0
  147.8711  129.7645  152.2500 H   0  0  0  0  0  0  0  0  0  0  0  0
  147.8461  129.1576  153.9068 H   0  0  0  0  0  0  0  0  0  0  0  0
  149.3245  129.0478  152.9487 H   0  0  0  0  0  0  0  0  0  0  0  0
  148.1468  132.5873  152.3176 H   0  0  0  0  0  0  0  0  0  0  0  0
  149.0441  134.8647  153.1726 H   0  0  0  0  0  0  0  0  0  0  0  0
  149.3030  136.7763  153.5801 H   0  0  0  0  0  0  0  0  0  0  0  0
  149.2129  138.0367  155.9909 H   0  0  0  0  0  0  0  0  0  0  0  0
  151.5283  136.6586  156.3787 H   0  0  0  0  0  0  0  0  0  0  0  0
  150.5901  138.8278  157.7010 H   0  0  0  0  0  0  0  0  0  0  0  0
  152.3308  138.5538  157.7337 H   0  0  0  0  0  0  0  0  0  0  0  0
  150.9978  140.8071  156.4411 H   0  0  0  0  0  0  0  0  0  0  0  0
  152.7111  140.4393  156.4756 H   0  0  0  0  0  0  0  0  0  0  0  0
  152.1871  140.1631  154.0800 H   0  0  0  0  0  0  0  0  0  0  0  0
  153.3893  138.2092  155.3472 H   0  0  0  0  0  0  0  0  0  0  0  0
  152.3760  137.5457  154.0469 H   0  0  0  0  0  0  0  0  0  0  0  0
  150.3346  138.7430  153.3189 H   0  0  0  0  0  0  0  0  0  0  0  0
  148.1995  139.6949  154.5076 H   0  0  0  0  0  0  0  0  0  0  0  0
  149.2939  140.7903  155.3147 H   0  0  0  0  0  0  0  0  0  0  0  0
  149.0208  140.4101  152.5245 H   0  0  0  0  0  0  0  0  0  0  0  0
  1  2  1  0  0  0  0
  1 20  1  0  0  0  0
  1 21  1  0  0  0  0
  1 22  1  0  0  0  0
  2 19  1  0  0  0  0
  2  3  2  0  0  0  0
  3  4  1  0  0  0  0
  3 23  1  0  0  0  0
  4  5  1  0  0  0  0
  4 18  2  0  0  0  0
  5  6  1  0  0  0  0
  5 24  1  0  0  0  0
  6  7  2  0  0  0  0
  6  8  1  0  0  0  0
  8  9  1  0  0  0  0
  8 25  1  0  0  0  0
  9 15  1  0  0  0  0
  9 10  1  0  0  0  0
  9 26  1  0  0  0  0
 10 14  1  0  0  0  0
 10 11  1  0  0  0  0
 10 27  1  0  0  0  0
 11 12  1  0  0  0  0
 11 28  1  0  0  0  0
 11 29  1  0  0  0  0
 12 13  1  0  0  0  0
 12 30  1  0  0  0  0
 12 31  1  0  0  0  0
 13 14  1  0  0  0  0
 13 15  1  0  0  0  0
 13 32  1  0  0  0  0
 14 33  1  0  0  0  0
 14 34  1  0  0  0  0
 15 16  1  0  0  0  0
 15 35  1  0  0  0  0
 16 17  1  0  0  0  0
 16 36  1  0  0  0  0
 16 37  1  0  0  0  0
 17 38  1  0  0  0  0
 18 19  1  0  0  0  0
M  END
> <s_m_source_file>
AV-unprocessed.smi

> <i_m_source_file_index>
781

> <i_lp_mmshare_version>
43012

> <i_f3d_flags>
0

> <s_epik_input>
W0NIM11jMVtjSF1jKG5vMSlbTkhdQyg9TylbTkhdW0NASF0oW0NAQEhdMjMpW0NASF0oW0NIMl1bT0hdKVtDQEBIXShbQ0gyXTMpW0NIMl1bQ0gyXTI=

> <s_epik_cmdline>
J2VwaWtfcHl0aG9uJywgJy1waCcsICc3LjAnLCAnLXRuJywgJzgnLCAnLW1hJywgJzIwMCcsICctbWV0YWxfYmluZGluZycsICctaW1hZScsICc8aW5maWxlLm1hZT4nLCAnLW9tYWUnLCAnPG91dGZpbGUubWFlPic=

> <r_lp_tautomer_probability>
1

> <r_epik_Ionization_Penalty>
2.32222e-05

> <r_epik_Ionization_Penalty_Charging>
0

> <r_epik_Ionization_Penalty_Neutral>
2.32222e-05

> <r_epik_State_Penalty>
-0

> <r_epik_Charging_Adjusted_Penalty>
0

> <i_epik_Tot_Q>
0

> <i_epik_Tot_abs_Q>
0

> <r_epik_Metal_State_Penalty>
-0

> <b_epik_Metal_Only>
0

> <s_lp_Force_Field>
OPLS_2005

> <r_lp_Energy>
47.0207

> <b_lp_Chiralities_Consistent>
1

> <s_lp_Variant>
AV-unprocessed.smi:781-8

> <Gold.Version>
5.8.1

> <Gold.Id.Protein>
6NUR|6NUR_protein|mol2

> <Gold.PLP.Fitness>
42.6957

> <Gold.PLP.PLP>
-32.7319

> <Gold.PLP.part.hbond>
-4.3062

> <Gold.PLP.part.metal>
0.0000

> <Gold.PLP.part.buried>
-2.4927

> <Gold.PLP.part.nonpolar>
-26.1243

> <Gold.PLP.part.repulsive>
0.0881

> <Gold.PLP.ligand.clash>
0.0000

> <Gold.PLP.ligand.torsion>
0.5253

> <Gold.PLP.Chemscore.Hbond>
3.6644

> <Gold.PLP.Chemscore.CHOScore>
0.0000

> <Gold.PLP.Chemscore.Metal>
0.0000

> <Gold.Chemscore.Hbonds>
donor molecule, donor type, donor heavy atom, donor atom, acceptor molecule, acceptor atom, score
      L1  H     5    24       P1  7948  0.75
      L1  H     8    25       P1  7948  1.00
      L1  H    17    38       P1  7957  0.79
      P1  H  7989  7998       L1    17  0.01
      P1  H  8011  8017       L1    17  0.80

> <Gold.PLP.Chemscore.Internal.Correction>
0.0213

> <Gold.Rescore>
     Score         DG    S(hbond)    S(metal)    S(lipo)     H(rot)  DE(clash)    DE(int)     intcor
     13.57     -16.66       2.56        0.00      63.17       1.86       0.03       3.07       ----

> <Gold.Chemscore.Fitness>
13.5686

> <Gold.Chemscore.DG>
-16.6632

> <Gold.Chemscore.ZeroCoef>
-5.4800

> <Gold.Chemscore.Hbond>
2.5602

> <Gold.Chemscore.Metal>
0.0000

> <Gold.Chemscore.Lipo>
63.1665

> <Gold.Chemscore.Internal_Hbond>
0.0000

> <Gold.Chemscore.DEClash>
0.0276

> <Gold.Chemscore.DEInternal>
3.0670

> <Gold.Chemscore.Rot>
1.8587

> <Gold.Chemscore.Internal.Correction>
   9.000000E+99

> <Gold.Chemscore.Hbonds>
donor molecule, donor type, donor heavy atom, donor atom, acceptor molecule, acceptor atom, score
      L1  H     5    24       P1  7948  0.09
      L1  H     8    25       P1  7948  0.92
      L1  H    17    38       P1  7957  0.73
      P1  H  8011  8017       L1    17  0.12

> <Gold.Chemscore.Hbond.Weighted>
-8.5510

> <Gold.Chemscore.Metal.Weighted>
-0.0000

> <Gold.Chemscore.Lipo.Weighted>
-7.3905

> <Gold.Chemscore.Internal_Hbond.Weighted>
0.0000

> <Gold.Chemscore.DEClash.Weighted>
0.0276

> <Gold.Chemscore.DEInternal.Weighted>
3.0670

> <Gold.Chemscore.Rot.Weighted>
4.7583

> <Gold.Chemscore.Internal.Correction.Weighted>
   9.000000E+99

> <Gold.Protein.RotatedTorsions>
[ 6907 6896 6895 6894 ] final   45.70 input  -60.11 | X-H torsion
[ 7974 7965 7964 7962 ] final -106.16 input  175.53 | X-H torsion
[ 8008 7997 7996 7995 ] final   65.34 input   59.86 | X-H torsion
[ 10167 10162 10161 10158 ] final  178.51 input  -65.29 | X-H torsion
[ 10718 10713 10712 10709 ] final   -7.77 input   66.30 | X-H torsion
[ 10763 10752 10751 10750 ] final    5.09 input  -60.55 | X-H torsion
[ 11005 11000 10999 10996 ] final    3.37 input  -57.11 | X-H torsion

> <Gold.Protein.ActiveResidues>
 VAL166  LYS551  ARG553  GLY616  TRP617  ASP618  TYR619  PRO620  LYS621  CYS622 
 ASP623  PHE694  ASN695  SER759  ASP760  ASP761  ALA762  ILE779  LEU786  VAL792 
 PHE793  MET794  SER795  GLU796  ALA797  LYS798  CYS799  TRP800  GLU811  SER814 

> <Gold.Protein.RotatedAtoms>
  152.2477  134.8165  160.0450 H   0  0  0  0  0  0  0  0  0  0  0  0  # atno 6907 bound_to 6896
  151.8856  133.3499  159.3789 H   0  0  0  0  0  0  0  0  0  0  0  0  # atno 6908 bound_to 6896
  150.7073  134.4901  159.5556 H   0  0  0  0  0  0  0  0  0  0  0  0  # atno 6909 bound_to 6896
  145.2214  140.9135  143.3257 H   0  0  0  0  0  0  0  0  0  0  0  0  # atno 7974 bound_to 7965
  155.6603  140.3497  155.4780 H   0  0  0  0  0  0  0  0  0  0  0  0  # atno 8008 bound_to 7997
  155.9774  140.1168  157.0780 H   0  0  0  0  0  0  0  0  0  0  0  0  # atno 8009 bound_to 7997
  154.4182  140.1145  156.5375 H   0  0  0  0  0  0  0  0  0  0  0  0  # atno 8010 bound_to 7997
  139.5297  144.2671  152.0659 H   0  0  0  0  0  0  0  0  0  0  0  0  # atno 10167 bound_to 10162
  156.7123  130.5126  149.5889 H   0  0  0  0  0  0  0  0  0  0  0  0  # atno 10718 bound_to 10713
  153.2635  135.6925  153.7553 H   0  0  0  0  0  0  0  0  0  0  0  0  # atno 10763 bound_to 10752
  153.6603  135.3361  155.3126 H   0  0  0  0  0  0  0  0  0  0  0  0  # atno 10764 bound_to 10752
  154.8439  135.4475  154.1634 H   0  0  0  0  0  0  0  0  0  0  0  0  # atno 10765 bound_to 10752
  140.5938  133.9899  155.8101 H   0  0  0  0  0  0  0  0  0  0  0  0  # atno 11005 bound_to 11000
  144.9762  139.3830  143.6284 LP  0  0  0  0  0  0  0  0  0  0  0  0  # atno 17320 bound_to 7965
  146.3375  139.8882  142.8813 LP  0  0  0  0  0  0  0  0  0  0  0  0  # atno 17321 bound_to 7965
  140.2133  144.4541  150.6376 LP  0  0  0  0  0  0  0  0  0  0  0  0  # atno 17342 bound_to 10162
  140.6466  143.2215  151.6171 LP  0  0  0  0  0  0  0  0  0  0  0  0  # atno 17343 bound_to 10162
  156.1652  130.6400  151.0769 LP  0  0  0  0  0  0  0  0  0  0  0  0  # atno 17370 bound_to 10713
  157.6931  131.0803  150.7049 LP  0  0  0  0  0  0  0  0  0  0  0  0  # atno 17371 bound_to 10713
  141.0917  133.9906  157.3226 LP  0  0  0  0  0  0  0  0  0  0  0  0  # atno 17394 bound_to 11000
  139.9262  135.0201  156.8242 LP  0  0  0  0  0  0  0  0  0  0  0  0  # atno 17395 bound_to 11000

$$$$
