AV-unprocessed.smi:967|AV-procd|sdf|4287|dock5
  -GOLD-   22720 2193D 1   1.00000     0.00000
 Structure written by MMmdl.
 42 43  0  0  0  0  0  0  0  0  1 V2000
  154.5063  140.4983  162.0685 C   0  0  0  0  0  0  0  0  0  0  0  0
  154.0854  141.8893  162.0000 N   0  0  0  0  0  0  0  0  0  0  0  0
  153.5978  142.4773  163.2379 C   0  0  0  0  0  0  0  0  0  0  0  0
  153.2528  142.1588  160.9061 C   0  0  0  0  0  0  0  0  0  0  0  0
  152.6947  143.4418  160.7051 C   0  0  0  0  0  0  0  0  0  0  0  0
  151.8665  143.6534  159.5861 C   0  0  0  0  0  0  0  0  0  0  0  0
  151.6281  142.5768  158.6991 C   0  0  0  0  0  0  0  0  0  0  0  0
  150.7950  142.6558  157.5509 N   0  0  0  0  0  0  0  0  0  0  0  0
  150.4691  141.6812  156.6849 C   0  0  0  0  0  0  0  0  0  0  0  0
  150.8300  140.5074  156.7672 O   0  0  0  0  0  0  0  0  0  0  0  0
  149.6700  142.1494  155.7153 N   0  0  0  0  0  0  0  0  0  0  0  0
  149.1010  141.3702  154.6190 C   0  0  2  0  0  0  0  0  0  0  0  0
  147.9001  142.1246  154.0162 C   0  0  0  0  0  0  0  0  0  0  0  0
  147.2048  141.2971  152.9230 C   0  0  0  0  0  0  0  0  0  0  0  0
  146.7778  139.9203  153.4594 C   0  0  1  0  0  0  0  0  0  0  0  0
  146.2001  139.1648  152.4158 O   0  0  0  0  0  0  0  0  0  0  0  0
  147.9798  139.1581  154.0427 C   0  0  0  0  0  0  0  0  0  0  0  0
  148.6792  139.9812  155.1364 C   0  0  0  0  0  0  0  0  0  0  0  0
  152.2232  141.3344  159.0000 C   0  0  0  0  0  0  0  0  0  0  0  0
  153.0198  141.1250  160.0691 N   0  0  0  0  0  0  0  0  0  0  0  0
  154.8685  140.1549  161.0987 H   0  0  0  0  0  0  0  0  0  0  0  0
  153.6829  139.8536  162.3779 H   0  0  0  0  0  0  0  0  0  0  0  0
  155.3168  140.3860  162.7889 H   0  0  0  0  0  0  0  0  0  0  0  0
  153.3066  143.5174  163.0864 H   0  0  0  0  0  0  0  0  0  0  0  0
  154.3791  142.4544  163.9979 H   0  0  0  0  0  0  0  0  0  0  0  0
  152.7351  141.9293  163.6180 H   0  0  0  0  0  0  0  0  0  0  0  0
  152.8915  144.2495  161.3948 H   0  0  0  0  0  0  0  0  0  0  0  0
  151.4224  144.6260  159.4413 H   0  0  0  0  0  0  0  0  0  0  0  0
  150.3500  143.5495  157.4010 H   0  0  0  0  0  0  0  0  0  0  0  0
  149.4261  143.1286  155.7414 H   0  0  0  0  0  0  0  0  0  0  0  0
  149.8403  141.2288  153.8285 H   0  0  0  0  0  0  0  0  0  0  0  0
  147.1792  142.3612  154.8004 H   0  0  0  0  0  0  0  0  0  0  0  0
  148.2282  143.0784  153.6009 H   0  0  0  0  0  0  0  0  0  0  0  0
  146.3366  141.8393  152.5466 H   0  0  0  0  0  0  0  0  0  0  0  0
  147.8835  141.1727  152.0778 H   0  0  0  0  0  0  0  0  0  0  0  0
  146.0226  140.0528  154.2354 H   0  0  0  0  0  0  0  0  0  0  0  0
  145.3296  139.4945  152.2523 H   0  0  0  0  0  0  0  0  0  0  0  0
  147.6542  138.2017  154.4537 H   0  0  0  0  0  0  0  0  0  0  0  0
  148.6946  138.9289  153.2510 H   0  0  0  0  0  0  0  0  0  0  0  0
  149.5515  139.4385  155.5025 H   0  0  0  0  0  0  0  0  0  0  0  0
  148.0053  140.0927  155.9871 H   0  0  0  0  0  0  0  0  0  0  0  0
  152.0599  140.4794  158.3603 H   0  0  0  0  0  0  0  0  0  0  0  0
  1  2  1  0  0  0  0
  1 21  1  0  0  0  0
  1 22  1  0  0  0  0
  1 23  1  0  0  0  0
  2  3  1  0  0  0  0
  2  4  1  0  0  0  0
  3 24  1  0  0  0  0
  3 25  1  0  0  0  0
  3 26  1  0  0  0  0
  4 20  1  0  0  0  0
  4  5  2  0  0  0  0
  5  6  1  0  0  0  0
  5 27  1  0  0  0  0
  6  7  2  0  0  0  0
  6 28  1  0  0  0  0
  7  8  1  0  0  0  0
  7 19  1  0  0  0  0
  8  9  1  0  0  0  0
  8 29  1  0  0  0  0
  9 10  2  0  0  0  0
  9 11  1  0  0  0  0
 11 12  1  0  0  0  0
 11 30  1  0  0  0  0
 12 18  1  0  0  0  0
 12 13  1  0  0  0  0
 12 31  1  0  0  0  0
 13 14  1  0  0  0  0
 13 32  1  0  0  0  0
 13 33  1  0  0  0  0
 14 15  1  0  0  0  0
 14 34  1  0  0  0  0
 14 35  1  0  0  0  0
 15 16  1  0  0  0  0
 15 17  1  0  0  0  0
 15 36  1  0  0  0  0
 16 37  1  0  0  0  0
 17 18  1  0  0  0  0
 17 38  1  0  0  0  0
 17 39  1  0  0  0  0
 18 40  1  0  0  0  0
 18 41  1  0  0  0  0
 19 20  2  0  0  0  0
 19 42  1  0  0  0  0
M  END
> <s_m_source_file>
AV-unprocessed.smi

> <i_m_source_file_index>
967

> <i_lp_mmshare_version>
43012

> <i_f3d_flags>
0

> <s_epik_input>
W0NIM11OKFtDSDNdKWMxW2NIXVtjSF1jKFtjSF1uMSlbTkhdQyg9TylbTkhdW0NAQEhdMltDSDJdW0NIMl1bQ0BASF0oW09IXSlbQ0gyXVtDSDJdMg==

> <s_epik_cmdline>
J2VwaWtfcHl0aG9uJywgJy1waCcsICc3LjAnLCAnLXRuJywgJzgnLCAnLW1hJywgJzIwMCcsICctbWV0YWxfYmluZGluZycsICctaW1hZScsICc8aW5maWxlLm1hZT4nLCAnLW9tYWUnLCAnPG91dGZpbGUubWFlPic=

> <r_lp_tautomer_probability>
1

> <r_epik_Ionization_Penalty>
0.629464

> <r_epik_Ionization_Penalty_Charging>
0

> <r_epik_Ionization_Penalty_Neutral>
0.629464

> <r_epik_State_Penalty>
0.645019

> <r_epik_Charging_Adjusted_Penalty>
0.645019

> <i_epik_Tot_Q>
0

> <i_epik_Tot_abs_Q>
0

> <r_epik_Metal_State_Penalty>
0.308581

> <b_epik_Metal_Only>
0

> <s_lp_Force_Field>
OPLS_2005

> <r_lp_Energy>
16.3049

> <b_lp_Chiralities_Consistent>
1

> <s_lp_Variant>
AV-unprocessed.smi:967-3

> <Gold.Version>
5.8.1

> <Gold.Id.Protein>
6NUR|6NUR_protein|mol2

> <Gold.PLP.Fitness>
45.3871

> <Gold.PLP.PLP>
-40.2178

> <Gold.PLP.part.hbond>
-3.0000

> <Gold.PLP.part.metal>
0.0000

> <Gold.PLP.part.buried>
-4.6545

> <Gold.PLP.part.nonpolar>
-31.1795

> <Gold.PLP.part.repulsive>
0.1624

> <Gold.PLP.ligand.clash>
0.0000

> <Gold.PLP.ligand.torsion>
0.5217

> <Gold.PLP.Chemscore.Hbond>
2.0000

> <Gold.PLP.Chemscore.CHOScore>
0.0000

> <Gold.PLP.Chemscore.Metal>
0.0000

> <Gold.Chemscore.Hbonds>
donor molecule, donor type, donor heavy atom, donor atom, acceptor molecule, acceptor atom, score
      L1  H    11    30       P1  8028  1.00
      L1  H    16    37       P1 10175  1.00

> <Gold.PLP.Chemscore.Internal.Correction>
0.2127

> <Gold.Rescore>
     Score         DG    S(hbond)    S(metal)    S(lipo)     H(rot)  DE(clash)    DE(int)     intcor
     14.86     -18.72       2.00        0.00      93.42       1.71       0.81       3.04       ----

> <Gold.Chemscore.Fitness>
14.8629

> <Gold.Chemscore.DG>
-18.7153

> <Gold.Chemscore.ZeroCoef>
-5.4800

> <Gold.Chemscore.Hbond>
1.9996

> <Gold.Chemscore.Metal>
0.0000

> <Gold.Chemscore.Lipo>
93.4221

> <Gold.Chemscore.Internal_Hbond>
0.0000

> <Gold.Chemscore.DEClash>
0.8092

> <Gold.Chemscore.DEInternal>
3.0432

> <Gold.Chemscore.Rot>
1.7084

> <Gold.Chemscore.Internal.Correction>
   9.000000E+99

> <Gold.Chemscore.Hbonds>
donor molecule, donor type, donor heavy atom, donor atom, acceptor molecule, acceptor atom, score
      L1  H    11    30       P1  8028  1.00
      L1  H    16    37       P1 10175  0.99

> <Gold.Chemscore.Hbond.Weighted>
-6.6785

> <Gold.Chemscore.Metal.Weighted>
-0.0000

> <Gold.Chemscore.Lipo.Weighted>
-10.9304

> <Gold.Chemscore.Internal_Hbond.Weighted>
0.0000

> <Gold.Chemscore.DEClash.Weighted>
0.8092

> <Gold.Chemscore.DEInternal.Weighted>
3.0432

> <Gold.Chemscore.Rot.Weighted>
4.3735

> <Gold.Chemscore.Internal.Correction.Weighted>
   9.000000E+99

> <Gold.Protein.RotatedTorsions>
[ 6907 6896 6895 6894 ] final   81.57 input  -60.11 | X-H torsion
[ 7974 7965 7964 7962 ] final  -87.19 input  175.53 | X-H torsion
[ 8008 7997 7996 7995 ] final  124.38 input   59.86 | X-H torsion
[ 10167 10162 10161 10158 ] final  -58.31 input  -65.29 | X-H torsion
[ 10718 10713 10712 10709 ] final  -10.34 input   66.30 | X-H torsion
[ 10763 10752 10751 10750 ] final  -29.55 input  -60.55 | X-H torsion
[ 11005 11000 10999 10996 ] final  -92.41 input  -57.11 | X-H torsion

> <Gold.Protein.ActiveResidues>
 VAL166  LYS551  ARG553  GLY616  TRP617  ASP618  TYR619  PRO620  LYS621  CYS622 
 ASP623  PHE694  ASN695  SER759  ASP760  ASP761  ALA762  ILE779  LEU786  VAL792 
 PHE793  MET794  SER795  GLU796  ALA797  LYS798  CYS799  TRP800  GLU811  SER814 

> <Gold.Protein.RotatedAtoms>
  152.5272  134.3184  159.9139 H   0  0  0  0  0  0  0  0  0  0  0  0  # atno 6907 bound_to 6896
  151.3133  133.4064  159.2656 H   0  0  0  0  0  0  0  0  0  0  0  0  # atno 6908 bound_to 6896
  151.0020  134.9346  159.8016 H   0  0  0  0  0  0  0  0  0  0  0  0  # atno 6909 bound_to 6896
  145.4698  140.9560  143.1923 H   0  0  0  0  0  0  0  0  0  0  0  0  # atno 7974 bound_to 7965
  156.2799  140.2741  156.1778 H   0  0  0  0  0  0  0  0  0  0  0  0  # atno 8008 bound_to 7997
  155.0587  140.0386  157.2587 H   0  0  0  0  0  0  0  0  0  0  0  0  # atno 8009 bound_to 7997
  154.7135  140.2673  155.6613 H   0  0  0  0  0  0  0  0  0  0  0  0  # atno 8010 bound_to 7997
  140.6205  143.2418  151.5493 H   0  0  0  0  0  0  0  0  0  0  0  0  # atno 10167 bound_to 10162
  156.6750  130.5020  149.5988 H   0  0  0  0  0  0  0  0  0  0  0  0  # atno 10718 bound_to 10713
  153.7665  135.6915  153.4915 H   0  0  0  0  0  0  0  0  0  0  0  0  # atno 10763 bound_to 10752
  153.1903  135.4473  155.0140 H   0  0  0  0  0  0  0  0  0  0  0  0  # atno 10764 bound_to 10752
  154.8134  135.3387  154.7177 H   0  0  0  0  0  0  0  0  0  0  0  0  # atno 10765 bound_to 10752
  141.1522  133.7819  157.0016 H   0  0  0  0  0  0  0  0  0  0  0  0  # atno 11005 bound_to 11000
  144.7952  139.6249  143.7096 LP  0  0  0  0  0  0  0  0  0  0  0  0  # atno 17320 bound_to 7965
  146.2403  139.5988  142.9496 LP  0  0  0  0  0  0  0  0  0  0  0  0  # atno 17321 bound_to 7965
  139.5434  144.2585  152.1396 LP  0  0  0  0  0  0  0  0  0  0  0  0  # atno 17342 bound_to 10162
  140.1804  144.4850  150.6531 LP  0  0  0  0  0  0  0  0  0  0  0  0  # atno 17343 bound_to 10162
  156.1910  130.6560  151.1061 LP  0  0  0  0  0  0  0  0  0  0  0  0  # atno 17370 bound_to 10713
  157.7064  131.0754  150.6652 LP  0  0  0  0  0  0  0  0  0  0  0  0  # atno 17371 bound_to 10713
  140.0936  134.9577  157.1815 LP  0  0  0  0  0  0  0  0  0  0  0  0  # atno 17394 bound_to 11000
  140.3412  134.2702  155.7212 LP  0  0  0  0  0  0  0  0  0  0  0  0  # atno 17395 bound_to 11000

$$$$
