AV-unprocessed.smi:2202|AV-procd|sdf|8932|dock3
  -GOLD-   2272012143D 1   1.00000     0.00000
 Structure written by MMmdl.
 43 45  0  0  0  0  0  0  0  0  2 V2000
  146.1956  135.1122  157.8603 O   0  0  0  0  0  0  0  0  0  0  0  0
  147.3465  134.6724  157.8847 C   0  0  0  0  0  0  0  0  0  0  0  0
  148.3169  135.0484  159.0138 C   0  0  0  0  0  0  0  0  0  0  0  0
  147.7276  134.9324  160.3559 N   0  0  0  0  0  0  0  0  0  0  0  0
  147.4064  133.7676  160.9337 C   0  0  0  0  0  0  0  0  0  0  0  0
  147.5467  132.6519  160.4313 O   0  0  0  0  0  0  0  0  0  0  0  0
  146.8432  133.9761  162.3412 C   0  0  2  0  0  0  0  0  0  0  0  0
  145.4431  133.3261  162.4979 C   0  0  0  0  0  0  0  0  0  0  0  0
  144.3271  134.2054  161.9730 C   0  0  0  0  0  0  0  0  0  0  0  0
  144.3709  135.5371  162.1106 C   0  0  0  0  0  0  0  0  0  0  0  0
  145.5383  136.2160  162.7964 C   0  0  0  0  0  0  0  0  0  0  0  0
  146.8939  135.5220  162.4995 C   0  0  2  0  0  0  0  0  0  0  0  0
  147.4770  135.9746  161.1587 C   0  0  0  0  0  0  0  0  0  0  0  0
  147.6887  137.1577  160.8907 O   0  0  0  0  0  0  0  0  0  0  0  0
  147.8321  133.8455  156.9467 N   0  0  0  0  0  0  0  0  0  0  0  0
  147.0821  133.3653  155.7922 C   0  0  0  0  0  0  0  0  0  0  0  0
  147.6607  133.9096  154.4750 C   0  0  0  0  0  0  0  0  0  0  0  0
  146.9216  133.3802  153.2619 C   0  0  0  0  0  0  0  0  0  0  0  0
  145.9618  132.3488  153.3544 C   0  0  0  0  0  0  0  0  0  0  0  0
  145.3088  131.9092  152.1838 C   0  0  0  0  0  0  0  0  0  0  0  0
  145.6277  132.5098  150.9482 C   0  0  0  0  0  0  0  0  0  0  0  0
  146.5936  133.5363  150.9139 C   0  0  0  0  0  0  0  0  0  0  0  0
  147.1974  133.9298  152.0568 N   0  3  0  0  0  0  0  0  0  0  0  0
  149.2033  134.4166  158.9353 H   0  0  0  0  0  0  0  0  0  0  0  0
  148.6689  136.0689  158.8514 H   0  0  0  0  0  0  0  0  0  0  0  0
  147.5358  133.5062  163.0408 H   0  0  0  0  0  0  0  0  0  0  0  0
  145.4004  132.3616  161.9902 H   0  0  0  0  0  0  0  0  0  0  0  0
  145.2428  133.1212  163.5499 H   0  0  0  0  0  0  0  0  0  0  0  0
  143.4674  133.7228  161.5318 H   0  0  0  0  0  0  0  0  0  0  0  0
  143.5475  136.1548  161.7832 H   0  0  0  0  0  0  0  0  0  0  0  0
  145.5616  137.2647  162.4965 H   0  0  0  0  0  0  0  0  0  0  0  0
  145.3451  136.2137  163.8695 H   0  0  0  0  0  0  0  0  0  0  0  0
  147.6122  135.7941  163.2740 H   0  0  0  0  0  0  0  0  0  0  0  0
  148.7851  133.5249  157.0419 H   0  0  0  0  0  0  0  0  0  0  0  0
  147.1168  132.2756  155.7915 H   0  0  0  0  0  0  0  0  0  0  0  0
  146.0314  133.6422  155.8946 H   0  0  0  0  0  0  0  0  0  0  0  0
  147.6133  134.9994  154.4598 H   0  0  0  0  0  0  0  0  0  0  0  0
  148.7166  133.6477  154.3953 H   0  0  0  0  0  0  0  0  0  0  0  0
  145.7262  131.9002  154.3087 H   0  0  0  0  0  0  0  0  0  0  0  0
  144.5711  131.1214  152.2336 H   0  0  0  0  0  0  0  0  0  0  0  0
  145.1388  132.1877  150.0403 H   0  0  0  0  0  0  0  0  0  0  0  0
  146.8990  134.0511  150.0146 H   0  0  0  0  0  0  0  0  0  0  0  0
  147.8931  134.6747  152.0092 H   0  0  0  0  0  0  0  0  0  0  0  0
  1  2  2  0  0  0  0
  2  3  1  0  0  0  0
  2 15  1  0  0  0  0
  3  4  1  0  0  0  0
  3 24  1  0  0  0  0
  3 25  1  0  0  0  0
  4 13  1  0  0  0  0
  4  5  1  0  0  0  0
  5  6  2  0  0  0  0
  5  7  1  0  0  0  0
  7 12  1  0  0  0  0
  7  8  1  0  0  0  0
  7 26  1  0  0  0  0
  8  9  1  0  0  0  0
  8 27  1  0  0  0  0
  8 28  1  0  0  0  0
  9 10  2  0  0  0  0
  9 29  1  0  0  0  0
 10 11  1  0  0  0  0
 10 30  1  0  0  0  0
 11 12  1  0  0  0  0
 11 31  1  0  0  0  0
 11 32  1  0  0  0  0
 12 13  1  0  0  0  0
 12 33  1  0  0  0  0
 13 14  2  0  0  0  0
 15 16  1  0  0  0  0
 15 34  1  0  0  0  0
 16 17  1  0  0  0  0
 16 35  1  0  0  0  0
 16 36  1  0  0  0  0
 17 18  1  0  0  0  0
 17 37  1  0  0  0  0
 17 38  1  0  0  0  0
 18 23  1  0  0  0  0
 18 19  2  0  0  0  0
 19 20  1  0  0  0  0
 19 39  1  0  0  0  0
 20 21  2  0  0  0  0
 20 40  1  0  0  0  0
 21 22  1  0  0  0  0
 21 41  1  0  0  0  0
 22 23  2  0  0  0  0
 22 42  1  0  0  0  0
 23 43  1  0  0  0  0
M  CHG  1  23   1
M  END
> <s_m_source_file>
AV-unprocessed.smi

> <i_m_source_file_index>
2202

> <i_lp_mmshare_version>
43012

> <i_f3d_flags>
0

> <s_epik_input>
W0NIMl0xW0NIXT1bQ0hdW0NIMl1bQ0BIXShbQ0BIXTEyKUMoPU8pTihDMj1PKVtDSDJdQyg9TylbTkhdW0NIMl1bQ0gyXWMzW2NIXVtjSF1bY0hdW2NIXW4z

> <s_epik_cmdline>
J2VwaWtfcHl0aG9uJywgJy1waCcsICc3LjAnLCAnLXRuJywgJzgnLCAnLW1hJywgJzIwMCcsICctbWV0YWxfYmluZGluZycsICctaW1hZScsICc8aW5maWxlLm1hZT4nLCAnLW9tYWUnLCAnPG91dGZpbGUubWFlPic=

> <r_lp_tautomer_probability>
1

> <r_epik_Ionization_Penalty>
1.90039

> <r_epik_Ionization_Penalty_Charging>
1.90039

> <r_epik_Ionization_Penalty_Neutral>
1.50224e-07

> <r_epik_State_Penalty>
2.02162

> <r_epik_Charging_Adjusted_Penalty>
3.922

> <i_epik_Tot_Q>
1

> <i_epik_Tot_abs_Q>
1

> <r_epik_Metal_State_Penalty>
2.04542

> <b_epik_Metal_Only>
0

> <s_lp_Force_Field>
OPLS_2005

> <r_lp_Energy>
20.8283

> <b_lp_Chiralities_Consistent>
1

> <s_lp_Variant>
AV-unprocessed.smi:2202-4

> <Gold.Version>
5.8.1

> <Gold.Id.Protein>
6NUR|6NUR_protein|mol2

> <Gold.PLP.Fitness>
46.3507

> <Gold.PLP.PLP>
-35.5846

> <Gold.PLP.part.hbond>
-3.0000

> <Gold.PLP.part.metal>
0.0000

> <Gold.PLP.part.buried>
-5.2726

> <Gold.PLP.part.nonpolar>
-26.9950

> <Gold.PLP.part.repulsive>
0.0491

> <Gold.PLP.ligand.clash>
0.0000

> <Gold.PLP.ligand.torsion>
0.3205

> <Gold.PLP.Chemscore.Hbond>
3.7760

> <Gold.PLP.Chemscore.CHOScore>
0.0000

> <Gold.PLP.Chemscore.Metal>
0.0000

> <Gold.Chemscore.Hbonds>
donor molecule, donor type, donor heavy atom, donor atom, acceptor molecule, acceptor atom, score
      L1  H    23    43       P1  7948  2.00
      P1  H  6931  6943       L1    14  0.88
      P1  H  6934  6947       L1    14  0.91

> <Gold.PLP.Chemscore.Internal.Correction>
0.0790

> <Gold.Rescore>
     Score         DG    S(hbond)    S(metal)    S(lipo)     H(rot)  DE(clash)    DE(int)     intcor
     17.90     -18.63       2.71        0.00      78.14       1.96       0.28       0.46       ----

> <Gold.Chemscore.Fitness>
17.8982

> <Gold.Chemscore.DG>
-18.6337

> <Gold.Chemscore.ZeroCoef>
-5.4800

> <Gold.Chemscore.Hbond>
2.7050

> <Gold.Chemscore.Metal>
0.0000

> <Gold.Chemscore.Lipo>
78.1434

> <Gold.Chemscore.Internal_Hbond>
0.0000

> <Gold.Chemscore.DEClash>
0.2787

> <Gold.Chemscore.DEInternal>
0.4568

> <Gold.Chemscore.Rot>
1.9625

> <Gold.Chemscore.Internal.Correction>
   9.000000E+99

> <Gold.Chemscore.Hbonds>
donor molecule, donor type, donor heavy atom, donor atom, acceptor molecule, acceptor atom, score
      L1  H    23    43       P1  7948  0.35
      P1  H  6931  6943       L1    14  0.82
      P1  H  6934  6947       L1    14  0.89

> <Gold.Chemscore.Hbond.Weighted>
-9.0349

> <Gold.Chemscore.Metal.Weighted>
-0.0000

> <Gold.Chemscore.Lipo.Weighted>
-9.1428

> <Gold.Chemscore.Internal_Hbond.Weighted>
0.0000

> <Gold.Chemscore.DEClash.Weighted>
0.2787

> <Gold.Chemscore.DEInternal.Weighted>
0.4568

> <Gold.Chemscore.Rot.Weighted>
5.0240

> <Gold.Chemscore.Internal.Correction.Weighted>
   9.000000E+99

> <Gold.Protein.RotatedTorsions>
[ 6907 6896 6895 6894 ] final   69.66 input  -60.11 | X-H torsion
[ 7974 7965 7964 7962 ] final   98.50 input  175.53 | X-H torsion
[ 8008 7997 7996 7995 ] final  -51.34 input   59.86 | X-H torsion
[ 10167 10162 10161 10158 ] final   36.37 input  -65.29 | X-H torsion
[ 10718 10713 10712 10709 ] final -100.84 input   66.30 | X-H torsion
[ 10763 10752 10751 10750 ] final   34.78 input  -60.55 | X-H torsion
[ 11005 11000 10999 10996 ] final -111.08 input  -57.11 | X-H torsion

> <Gold.Protein.ActiveResidues>
 VAL166  LYS551  ARG553  GLY616  TRP617  ASP618  TYR619  PRO620  LYS621  CYS622 
 ASP623  PHE694  ASN695  SER759  ASP760  ASP761  ALA762  ILE779  LEU786  VAL792 
 PHE793  MET794  SER795  GLU796  ALA797  LYS798  CYS799  TRP800  GLU811  SER814 

> <Gold.Protein.RotatedAtoms>
  152.4700  134.4983  159.9716 H   0  0  0  0  0  0  0  0  0  0  0  0  # atno 6907 bound_to 6896
  151.5012  133.3498  159.2877 H   0  0  0  0  0  0  0  0  0  0  0  0  # atno 6908 bound_to 6896
  150.8705  134.8105  159.7213 H   0  0  0  0  0  0  0  0  0  0  0  0  # atno 6909 bound_to 6896
  145.4113  139.2333  143.3247 H   0  0  0  0  0  0  0  0  0  0  0  0  # atno 7974 bound_to 7965
  154.4081  140.1250  156.4813 H   0  0  0  0  0  0  0  0  0  0  0  0  # atno 8008 bound_to 7997
  155.7082  140.3494  155.4943 H   0  0  0  0  0  0  0  0  0  0  0  0  # atno 8009 bound_to 7997
  155.9324  140.1072  157.1112 H   0  0  0  0  0  0  0  0  0  0  0  0  # atno 8010 bound_to 7997
  140.4134  144.1561  150.6141 H   0  0  0  0  0  0  0  0  0  0  0  0  # atno 10167 bound_to 10162
  156.0176  130.5346  150.6876 H   0  0  0  0  0  0  0  0  0  0  0  0  # atno 10718 bound_to 10713
  153.0148  135.6351  154.1723 H   0  0  0  0  0  0  0  0  0  0  0  0  # atno 10763 bound_to 10752
  154.1463  135.2831  155.3149 H   0  0  0  0  0  0  0  0  0  0  0  0  # atno 10764 bound_to 10752
  154.6087  135.5563  153.7511 H   0  0  0  0  0  0  0  0  0  0  0  0  # atno 10765 bound_to 10752
  141.0755  133.9308  157.2399 H   0  0  0  0  0  0  0  0  0  0  0  0  # atno 11005 bound_to 11000
  146.2703  140.4824  142.8817 LP  0  0  0  0  0  0  0  0  0  0  0  0  # atno 17320 bound_to 7965
  144.8307  140.6702  143.6293 LP  0  0  0  0  0  0  0  0  0  0  0  0  # atno 17321 bound_to 7965
  140.4613  143.2448  151.9216 LP  0  0  0  0  0  0  0  0  0  0  0  0  # atno 17342 bound_to 10162
  139.4782  144.5464  151.8451 LP  0  0  0  0  0  0  0  0  0  0  0  0  # atno 17343 bound_to 10162
  157.4565  131.0878  151.0791 LP  0  0  0  0  0  0  0  0  0  0  0  0  # atno 17370 bound_to 10713
  157.1291  130.6095  149.5525 LP  0  0  0  0  0  0  0  0  0  0  0  0  # atno 17371 bound_to 10713
  139.9567  135.0164  156.9148 LP  0  0  0  0  0  0  0  0  0  0  0  0  # atno 17394 bound_to 11000
  140.5583  134.0560  155.7390 LP  0  0  0  0  0  0  0  0  0  0  0  0  # atno 17395 bound_to 11000

$$$$
