AV-unprocessed.smi:2109|AV-procd|sdf|8607|dock9
  -GOLD-   2272011353D 1   1.00000     0.00000
 Structure written by MMmdl.
 46 47  0  0  0  0  0  0  0  0  2 V2000
  152.6171  142.4080  159.8215 C   0  0  0  0  0  0  0  0  0  0  0  0
  152.3476  143.8834  159.4778 C   0  0  0  0  0  0  0  0  0  0  0  0
  152.0366  144.6832  160.7515 C   0  0  0  0  0  0  0  0  0  0  0  0
  151.2211  144.0597  158.4378 C   0  0  0  0  0  0  0  0  0  0  0  0
  151.3531  143.1378  157.3128 N   0  0  0  0  0  0  0  0  0  0  0  0
  150.5367  142.1072  157.0515 C   0  0  0  0  0  0  0  0  0  0  0  0
  149.5615  141.8027  157.7380 O   0  0  0  0  0  0  0  0  0  0  0  0
  150.9061  141.4484  155.9440 N   0  0  0  0  0  0  0  0  0  0  0  0
  150.2485  140.2538  155.4190 C   0  0  0  0  0  0  0  0  0  0  0  0
  148.8834  140.4744  154.7742 C   0  0  0  0  0  0  0  0  0  0  0  0
  148.3555  139.4622  153.9458 C   0  0  0  0  0  0  0  0  0  0  0  0
  147.0971  139.6478  153.3450 C   0  0  0  0  0  0  0  0  0  0  0  0
  146.4073  140.7855  153.5700 N   0  3  0  0  0  0  0  0  0  0  0  0
  146.8516  141.7938  154.3586 C   0  0  0  0  0  0  0  0  0  0  0  0
  146.0198  142.9242  154.5216 N   0  0  0  0  0  0  0  0  0  0  0  0
  145.7276  143.7419  153.3471 C   0  0  0  0  0  0  0  0  0  0  0  0
  145.0851  145.0758  153.7629 C   0  0  0  0  0  0  0  0  0  0  0  0
  143.9392  144.8252  154.5683 O   0  0  0  0  0  0  0  0  0  0  0  0
  144.2809  144.1487  155.7729 C   0  0  0  0  0  0  0  0  0  0  0  0
  144.8940  142.7771  155.4434 C   0  0  0  0  0  0  0  0  0  0  0  0
  148.1178  141.6483  154.9811 C   0  0  0  0  0  0  0  0  0  0  0  0
  151.7205  141.9215  160.2072 H   0  0  0  0  0  0  0  0  0  0  0  0
  153.3957  142.3178  160.5794 H   0  0  0  0  0  0  0  0  0  0  0  0
  152.9524  141.8459  158.9499 H   0  0  0  0  0  0  0  0  0  0  0  0
  153.2640  144.2957  159.0531 H   0  0  0  0  0  0  0  0  0  0  0  0
  151.1297  144.3194  161.2361 H   0  0  0  0  0  0  0  0  0  0  0  0
  151.8933  145.7409  160.5284 H   0  0  0  0  0  0  0  0  0  0  0  0
  152.8518  144.6086  161.4720 H   0  0  0  0  0  0  0  0  0  0  0  0
  150.2447  143.9613  158.9156 H   0  0  0  0  0  0  0  0  0  0  0  0
  151.2549  145.0705  158.0307 H   0  0  0  0  0  0  0  0  0  0  0  0
  152.1286  143.2990  156.6868 H   0  0  0  0  0  0  0  0  0  0  0  0
  151.7199  141.7766  155.4445 H   0  0  0  0  0  0  0  0  0  0  0  0
  150.9141  139.8193  154.6726 H   0  0  0  0  0  0  0  0  0  0  0  0
  150.1472  139.5036  156.2051 H   0  0  0  0  0  0  0  0  0  0  0  0
  148.9095  138.5511  153.7704 H   0  0  0  0  0  0  0  0  0  0  0  0
  146.6224  138.9240  152.6983 H   0  0  0  0  0  0  0  0  0  0  0  0
  146.6430  143.9529  152.7937 H   0  0  0  0  0  0  0  0  0  0  0  0
  145.0580  143.1937  152.6833 H   0  0  0  0  0  0  0  0  0  0  0  0
  145.7971  145.6984  154.3075 H   0  0  0  0  0  0  0  0  0  0  0  0
  144.7828  145.6378  152.8791 H   0  0  0  0  0  0  0  0  0  0  0  0
  144.9738  144.7541  156.3599 H   0  0  0  0  0  0  0  0  0  0  0  0
  143.3815  144.0217  156.3757 H   0  0  0  0  0  0  0  0  0  0  0  0
  144.1440  142.1338  154.9815 H   0  0  0  0  0  0  0  0  0  0  0  0
  145.1973  142.2978  156.3741 H   0  0  0  0  0  0  0  0  0  0  0  0
  148.5063  142.4313  155.6118 H   0  0  0  0  0  0  0  0  0  0  0  0
  145.4948  140.8882  153.1255 H   0  0  0  0  0  0  0  0  0  0  0  0
  1  2  1  0  0  0  0
  1 22  1  0  0  0  0
  1 23  1  0  0  0  0
  1 24  1  0  0  0  0
  2  3  1  0  0  0  0
  2  4  1  0  0  0  0
  2 25  1  0  0  0  0
  3 26  1  0  0  0  0
  3 27  1  0  0  0  0
  3 28  1  0  0  0  0
  4  5  1  0  0  0  0
  4 29  1  0  0  0  0
  4 30  1  0  0  0  0
  5  6  1  0  0  0  0
  5 31  1  0  0  0  0
  6  7  2  0  0  0  0
  6  8  1  0  0  0  0
  8  9  1  0  0  0  0
  8 32  1  0  0  0  0
  9 10  1  0  0  0  0
  9 33  1  0  0  0  0
  9 34  1  0  0  0  0
 10 21  1  0  0  0  0
 10 11  2  0  0  0  0
 11 12  1  0  0  0  0
 11 35  1  0  0  0  0
 12 13  2  0  0  0  0
 12 36  1  0  0  0  0
 13 14  1  0  0  0  0
 13 46  1  0  0  0  0
 14 15  1  0  0  0  0
 14 21  2  0  0  0  0
 15 20  1  0  0  0  0
 15 16  1  0  0  0  0
 16 17  1  0  0  0  0
 16 37  1  0  0  0  0
 16 38  1  0  0  0  0
 17 18  1  0  0  0  0
 17 39  1  0  0  0  0
 17 40  1  0  0  0  0
 18 19  1  0  0  0  0
 19 20  1  0  0  0  0
 19 41  1  0  0  0  0
 19 42  1  0  0  0  0
 20 43  1  0  0  0  0
 20 44  1  0  0  0  0
 21 45  1  0  0  0  0
M  CHG  1  13   1
M  END
> <s_m_source_file>
AV-unprocessed.smi

> <i_m_source_file_index>
2109

> <i_lp_mmshare_version>
43012

> <i_f3d_flags>
0

> <s_epik_input>
W0NIM11bQ0hdKFtDSDNdKVtDSDJdW05IXUMoPU8pW05IXVtDSDJdYzFbY0hdW2NIXW5jKFtjSF0xKU4yW0NIMl1bQ0gyXU9bQ0gyXVtDSDJdMg==

> <s_epik_cmdline>
J2VwaWtfcHl0aG9uJywgJy1waCcsICc3LjAnLCAnLXRuJywgJzgnLCAnLW1hJywgJzIwMCcsICctbWV0YWxfYmluZGluZycsICctaW1hZScsICc8aW5maWxlLm1hZT4nLCAnLW9tYWUnLCAnPG91dGZpbGUubWFlPic=

> <r_lp_tautomer_probability>
0.999994

> <r_epik_Ionization_Penalty>
2.29114

> <r_epik_Ionization_Penalty_Charging>
2.2911

> <r_epik_Ionization_Penalty_Neutral>
4.11828e-05

> <r_epik_State_Penalty>
2.44112

> <r_epik_Charging_Adjusted_Penalty>
4.73222

> <i_epik_Tot_Q>
1

> <i_epik_Tot_abs_Q>
1

> <r_epik_Metal_State_Penalty>
2.45346

> <b_epik_Metal_Only>
0

> <s_lp_Force_Field>
OPLS_2005

> <r_lp_Energy>
19.1618

> <b_lp_Chiralities_Consistent>
1

> <s_lp_Variant>
AV-unprocessed.smi:2109-2

> <Gold.Version>
5.8.1

> <Gold.Id.Protein>
6NUR|6NUR_protein|mol2

> <Gold.PLP.Fitness>
47.2779

> <Gold.PLP.PLP>
-42.1431

> <Gold.PLP.part.hbond>
-2.0000

> <Gold.PLP.part.metal>
0.0000

> <Gold.PLP.part.buried>
-2.4552

> <Gold.PLP.part.nonpolar>
-38.1165

> <Gold.PLP.part.repulsive>
0.6413

> <Gold.PLP.ligand.clash>
0.0000

> <Gold.PLP.ligand.torsion>
0.6690

> <Gold.PLP.Chemscore.Hbond>
2.0000

> <Gold.PLP.Chemscore.CHOScore>
0.0000

> <Gold.PLP.Chemscore.Metal>
0.0000

> <Gold.Chemscore.Hbonds>
donor molecule, donor type, donor heavy atom, donor atom, acceptor molecule, acceptor atom, score
      L1  H    13    46       P1 10175  2.00

> <Gold.PLP.Chemscore.Internal.Correction>
0.4727

> <Gold.Rescore>
     Score         DG    S(hbond)    S(metal)    S(lipo)     H(rot)  DE(clash)    DE(int)     intcor
     14.74     -15.71       0.95        0.00     100.07       1.82       0.21       0.77       ----

> <Gold.Chemscore.Fitness>
14.7375

> <Gold.Chemscore.DG>
-15.7141

> <Gold.Chemscore.ZeroCoef>
-5.4800

> <Gold.Chemscore.Hbond>
0.9521

> <Gold.Chemscore.Metal>
0.0000

> <Gold.Chemscore.Lipo>
100.0691

> <Gold.Chemscore.Internal_Hbond>
0.0000

> <Gold.Chemscore.DEClash>
0.2084

> <Gold.Chemscore.DEInternal>
0.7681

> <Gold.Chemscore.Rot>
1.8180

> <Gold.Chemscore.Internal.Correction>
   9.000000E+99

> <Gold.Chemscore.Hbonds>
donor molecule, donor type, donor heavy atom, donor atom, acceptor molecule, acceptor atom, score
      L1  H    13    46       P1 10175  0.54

> <Gold.Chemscore.Hbond.Weighted>
-3.1801

> <Gold.Chemscore.Metal.Weighted>
-0.0000

> <Gold.Chemscore.Lipo.Weighted>
-11.7081

> <Gold.Chemscore.Internal_Hbond.Weighted>
0.0000

> <Gold.Chemscore.DEClash.Weighted>
0.2084

> <Gold.Chemscore.DEInternal.Weighted>
0.7681

> <Gold.Chemscore.Rot.Weighted>
4.6541

> <Gold.Chemscore.Internal.Correction.Weighted>
   9.000000E+99

> <Gold.Protein.RotatedTorsions>
[ 6907 6896 6895 6894 ] final -129.87 input  -60.11 | X-H torsion
[ 7974 7965 7964 7962 ] final  -62.94 input  175.53 | X-H torsion
[ 8008 7997 7996 7995 ] final -164.29 input   59.86 | X-H torsion
[ 10167 10162 10161 10158 ] final  177.84 input  -65.29 | X-H torsion
[ 10718 10713 10712 10709 ] final   34.82 input   66.30 | X-H torsion
[ 10763 10752 10751 10750 ] final  160.72 input  -60.55 | X-H torsion
[ 11005 11000 10999 10996 ] final  -91.01 input  -57.11 | X-H torsion

> <Gold.Protein.ActiveResidues>
 VAL166  LYS551  ARG553  GLY616  TRP617  ASP618  TYR619  PRO620  LYS621  CYS622 
 ASP623  PHE694  ASN695  SER759  ASP760  ASP761  ALA762  ILE779  LEU786  VAL792 
 PHE793  MET794  SER795  GLU796  ALA797  LYS798  CYS799  TRP800  GLU811  SER814 

> <Gold.Protein.RotatedAtoms>
  150.9334  133.6740  159.2805 H   0  0  0  0  0  0  0  0  0  0  0  0  # atno 6907 bound_to 6896
  151.4154  135.0989  159.9607 H   0  0  0  0  0  0  0  0  0  0  0  0  # atno 6908 bound_to 6896
  152.5037  133.8798  159.7395 H   0  0  0  0  0  0  0  0  0  0  0  0  # atno 6909 bound_to 6896
  145.7852  140.8740  143.0309 H   0  0  0  0  0  0  0  0  0  0  0  0  # atno 7974 bound_to 7965
  155.8334  140.0937  157.1778 H   0  0  0  0  0  0  0  0  0  0  0  0  # atno 8008 bound_to 7997
  154.3980  140.1414  156.3703 H   0  0  0  0  0  0  0  0  0  0  0  0  # atno 8009 bound_to 7997
  155.8141  140.3448  155.5477 H   0  0  0  0  0  0  0  0  0  0  0  0  # atno 8010 bound_to 7997
  139.5269  144.2750  152.0595 H   0  0  0  0  0  0  0  0  0  0  0  0  # atno 10167 bound_to 10162
  157.3151  130.7419  149.6749 H   0  0  0  0  0  0  0  0  0  0  0  0  # atno 10718 bound_to 10713
  154.2518  135.2771  155.2813 H   0  0  0  0  0  0  0  0  0  0  0  0  # atno 10763 bound_to 10752
  154.5458  135.5689  153.6882 H   0  0  0  0  0  0  0  0  0  0  0  0  # atno 10764 bound_to 10752
  152.9979  135.6262  154.2665 H   0  0  0  0  0  0  0  0  0  0  0  0  # atno 10765 bound_to 10752
  141.1554  133.7728  156.9819 H   0  0  0  0  0  0  0  0  0  0  0  0  # atno 11005 bound_to 11000
  144.6790  140.0045  143.7484 LP  0  0  0  0  0  0  0  0  0  0  0  0  # atno 17320 bound_to 7965
  146.0033  139.3109  143.0914 LP  0  0  0  0  0  0  0  0  0  0  0  0  # atno 17321 bound_to 7965
  140.2208  144.4468  150.6343 LP  0  0  0  0  0  0  0  0  0  0  0  0  # atno 17342 bound_to 10162
  140.6420  143.2205  151.6270 LP  0  0  0  0  0  0  0  0  0  0  0  0  # atno 17343 bound_to 10162
  155.9681  130.4240  150.4587 LP  0  0  0  0  0  0  0  0  0  0  0  0  # atno 17370 bound_to 10713
  157.2592  131.0563  151.2331 LP  0  0  0  0  0  0  0  0  0  0  0  0  # atno 17371 bound_to 10713
  140.1060  134.9506  157.1995 LP  0  0  0  0  0  0  0  0  0  0  0  0  # atno 17394 bound_to 11000
  140.3255  134.2868  155.7238 LP  0  0  0  0  0  0  0  0  0  0  0  0  # atno 17395 bound_to 11000

$$$$
