AV-unprocessed.smi:2710|AV-procd|sdf|10466|dock10
  -GOLD-   2272014503D 1   1.00000     0.00000
 Structure written by MMmdl.
 53 54  0  0  0  0  0  0  0  0  2 V2000
  143.3049  139.5336  155.8021 C   0  0  0  0  0  0  0  0  0  0  0  0
  143.8836  140.9553  155.8935 C   0  0  0  0  0  0  0  0  0  0  0  0
  144.9338  141.2348  154.8710 N   0  3  2  0  0  0  0  0  0  0  0  0
  146.0317  140.2270  154.9188 C   0  0  0  0  0  0  0  0  0  0  0  0
  147.0446  140.4213  153.7810 C   0  0  0  0  0  0  0  0  0  0  0  0
  147.6457  141.8348  153.7910 C   0  0  2  0  0  0  0  0  0  0  0  0
  148.5337  142.0502  154.9336 N   0  0  0  0  0  0  0  0  0  0  0  0
  149.3762  141.1384  155.4403 C   0  0  0  0  0  0  0  0  0  0  0  0
  149.4782  139.9955  154.9974 O   0  0  0  0  0  0  0  0  0  0  0  0
  150.0719  141.6432  156.4736 N   0  0  0  0  0  0  0  0  0  0  0  0
  151.0563  141.0152  157.2856 C   0  0  0  0  0  0  0  0  0  0  0  0
  151.2510  141.2336  158.6714 C   0  0  0  0  0  0  0  0  0  0  0  0
  152.2161  140.5894  159.3611 N   0  0  0  0  0  0  0  0  0  0  0  0
  153.0154  139.7521  158.6879 C   0  0  0  0  0  0  0  0  0  0  0  0
  154.0118  138.9181  159.5125 C   0  0  0  0  0  0  0  0  0  0  0  0
  153.2759  137.8849  160.3979 C   0  0  0  0  0  0  0  0  0  0  0  0
  154.8502  139.8541  160.4024 C   0  0  0  0  0  0  0  0  0  0  0  0
  154.9487  138.1010  158.5918 C   0  0  0  0  0  0  0  0  0  0  0  0
  152.8869  139.4444  157.3907 N   0  0  0  0  0  0  0  0  0  0  0  0
  151.9275  140.0819  156.6883 C   0  0  0  0  0  0  0  0  0  0  0  0
  146.5063  142.8631  153.7862 C   0  0  0  0  0  0  0  0  0  0  0  0
  145.4732  142.6340  154.9147 C   0  0  1  0  0  0  0  0  0  0  0  0
  144.3781  143.7152  154.8013 C   0  0  0  0  0  0  0  0  0  0  0  0
  142.4380  139.4346  156.4558 H   0  0  0  0  0  0  0  0  0  0  0  0
  144.0187  138.7713  156.1122 H   0  0  0  0  0  0  0  0  0  0  0  0
  142.9777  139.3036  154.7877 H   0  0  0  0  0  0  0  0  0  0  0  0
  143.0366  141.6246  155.7631 H   0  0  0  0  0  0  0  0  0  0  0  0
  144.2767  141.1440  156.8934 H   0  0  0  0  0  0  0  0  0  0  0  0
  146.5344  140.2812  155.8858 H   0  0  0  0  0  0  0  0  0  0  0  0
  145.6333  139.2178  154.8322 H   0  0  0  0  0  0  0  0  0  0  0  0
  147.8308  139.6683  153.8473 H   0  0  0  0  0  0  0  0  0  0  0  0
  146.5455  140.2493  152.8265 H   0  0  0  0  0  0  0  0  0  0  0  0
  148.2313  141.9755  152.8803 H   0  0  0  0  0  0  0  0  0  0  0  0
  148.5203  142.9667  155.3566 H   0  0  0  0  0  0  0  0  0  0  0  0
  149.8745  142.6044  156.7103 H   0  0  0  0  0  0  0  0  0  0  0  0
  150.6492  141.9107  159.2554 H   0  0  0  0  0  0  0  0  0  0  0  0
  153.9807  137.2585  160.9462 H   0  0  0  0  0  0  0  0  0  0  0  0
  152.6478  137.2242  159.7990 H   0  0  0  0  0  0  0  0  0  0  0  0
  152.6378  138.3639  161.1412 H   0  0  0  0  0  0  0  0  0  0  0  0
  154.2178  140.4180  161.0890 H   0  0  0  0  0  0  0  0  0  0  0  0
  155.4082  140.5745  159.8031 H   0  0  0  0  0  0  0  0  0  0  0  0
  155.5705  139.2955  161.0009 H   0  0  0  0  0  0  0  0  0  0  0  0
  155.6273  137.4736  159.1710 H   0  0  0  0  0  0  0  0  0  0  0  0
  155.5712  138.7435  157.9682 H   0  0  0  0  0  0  0  0  0  0  0  0
  154.3822  137.4455  157.9292 H   0  0  0  0  0  0  0  0  0  0  0  0
  151.8520  139.8376  155.6387 H   0  0  0  0  0  0  0  0  0  0  0  0
  146.9248  143.8684  153.8553 H   0  0  0  0  0  0  0  0  0  0  0  0
  145.9970  142.8177  152.8223 H   0  0  0  0  0  0  0  0  0  0  0  0
  145.9754  142.7684  155.8742 H   0  0  0  0  0  0  0  0  0  0  0  0
  144.8193  144.7036  154.6682 H   0  0  0  0  0  0  0  0  0  0  0  0
  143.7640  143.7813  155.6987 H   0  0  0  0  0  0  0  0  0  0  0  0
  143.7232  143.5330  153.9485 H   0  0  0  0  0  0  0  0  0  0  0  0
  144.4857  141.1342  153.9711 H   0  0  0  0  0  0  0  0  0  0  0  0
  1  2  1  0  0  0  0
  1 24  1  0  0  0  0
  1 25  1  0  0  0  0
  1 26  1  0  0  0  0
  2  3  1  0  0  0  0
  2 27  1  0  0  0  0
  2 28  1  0  0  0  0
  3 22  1  0  0  0  0
  3  4  1  0  0  0  0
  3 53  1  0  0  0  0
  4  5  1  0  0  0  0
  4 29  1  0  0  0  0
  4 30  1  0  0  0  0
  5  6  1  0  0  0  0
  5 31  1  0  0  0  0
  5 32  1  0  0  0  0
  6  7  1  0  0  0  0
  6 21  1  0  0  0  0
  6 33  1  0  0  0  0
  7  8  1  0  0  0  0
  7 34  1  0  0  0  0
  8  9  2  0  0  0  0
  8 10  1  0  0  0  0
 10 11  1  0  0  0  0
 10 35  1  0  0  0  0
 11 20  1  0  0  0  0
 11 12  2  0  0  0  0
 12 13  1  0  0  0  0
 12 36  1  0  0  0  0
 13 14  2  0  0  0  0
 14 15  1  0  0  0  0
 14 19  1  0  0  0  0
 15 16  1  0  0  0  0
 15 17  1  0  0  0  0
 15 18  1  0  0  0  0
 16 37  1  0  0  0  0
 16 38  1  0  0  0  0
 16 39  1  0  0  0  0
 17 40  1  0  0  0  0
 17 41  1  0  0  0  0
 17 42  1  0  0  0  0
 18 43  1  0  0  0  0
 18 44  1  0  0  0  0
 18 45  1  0  0  0  0
 19 20  2  0  0  0  0
 20 46  1  0  0  0  0
 21 22  1  0  0  0  0
 21 47  1  0  0  0  0
 21 48  1  0  0  0  0
 22 23  1  0  0  0  0
 22 49  1  0  0  0  0
 23 50  1  0  0  0  0
 23 51  1  0  0  0  0
 23 52  1  0  0  0  0
M  CHG  1   3   1
M  END
> <s_m_source_file>
AV-unprocessed.smi

> <i_m_source_file_index>
2710

> <i_lp_mmshare_version>
43012

> <i_f3d_flags>
0

> <s_epik_input>
W0NIM11bQ0gyXU4xW0NIMl1bQ0gyXVtDQEhdKFtDSDJdW0NASF0xW0NIM10pW05IXUMoPU8pW05IXWMyW2NIXW5jKEMoW0NIM10pKFtDSDNdKVtDSDNdKW5bY0hdMg==

> <s_epik_cmdline>
J2VwaWtfcHl0aG9uJywgJy1waCcsICc3LjAnLCAnLXRuJywgJzgnLCAnLW1hJywgJzIwMCcsICctbWV0YWxfYmluZGluZycsICctaW1hZScsICc8aW5maWxlLm1hZT4nLCAnLW9tYWUnLCAnPG91dGZpbGUubWFlPic=

> <r_lp_tautomer_probability>
1

> <r_epik_Ionization_Penalty>
0.00396003

> <r_epik_Ionization_Penalty_Charging>
0.0039379

> <r_epik_Ionization_Penalty_Neutral>
2.21316e-05

> <r_epik_State_Penalty>
0.00281651

> <r_epik_Charging_Adjusted_Penalty>
0.00675441

> <i_epik_Tot_Q>
1

> <i_epik_Tot_abs_Q>
1

> <r_epik_Metal_State_Penalty>
-0

> <b_epik_Metal_Only>
0

> <s_lp_Force_Field>
OPLS_2005

> <r_lp_Energy>
19.072

> <b_lp_Chiralities_Consistent>
1

> <s_lp_Variant>
AV-unprocessed.smi:2710-3

> <Gold.Version>
5.8.1

> <Gold.Id.Protein>
6NUR|6NUR_protein|mol2

> <Gold.PLP.Fitness>
43.6718

> <Gold.PLP.PLP>
-33.3333

> <Gold.PLP.part.hbond>
-3.0000

> <Gold.PLP.part.metal>
0.0000

> <Gold.PLP.part.buried>
-6.1749

> <Gold.PLP.part.nonpolar>
-23.8894

> <Gold.PLP.part.repulsive>
0.3096

> <Gold.PLP.ligand.clash>
0.0000

> <Gold.PLP.ligand.torsion>
0.9083

> <Gold.PLP.Chemscore.Hbond>
4.0000

> <Gold.PLP.Chemscore.CHOScore>
0.0000

> <Gold.PLP.Chemscore.Metal>
0.0000

> <Gold.Chemscore.Hbonds>
donor molecule, donor type, donor heavy atom, donor atom, acceptor molecule, acceptor atom, score
      L1  H     3    53       P1 10175  2.00
      L1  H     7    34       P1  8028  1.00
      P1  H  7997  8010       L1    19  1.00

> <Gold.PLP.Chemscore.Internal.Correction>
0.1552

> <Gold.Rescore>
     Score         DG    S(hbond)    S(metal)    S(lipo)     H(rot)  DE(clash)    DE(int)     intcor
     15.34     -19.00       2.43        0.00      74.78       1.31       0.09       3.57       ----

> <Gold.Chemscore.Fitness>
15.3391

> <Gold.Chemscore.DG>
-18.9953

> <Gold.Chemscore.ZeroCoef>
-5.4800

> <Gold.Chemscore.Hbond>
2.4298

> <Gold.Chemscore.Metal>
0.0000

> <Gold.Chemscore.Lipo>
74.7755

> <Gold.Chemscore.Internal_Hbond>
0.0000

> <Gold.Chemscore.DEClash>
0.0899

> <Gold.Chemscore.DEInternal>
3.5663

> <Gold.Chemscore.Rot>
1.3081

> <Gold.Chemscore.Internal.Correction>
   9.000000E+99

> <Gold.Chemscore.Hbonds>
donor molecule, donor type, donor heavy atom, donor atom, acceptor molecule, acceptor atom, score
      L1  H     3    53       P1 10175  0.70
      L1  H     7    34       P1  8028  1.00
      P1  H  7997  8010       L1    19  0.15

> <Gold.Chemscore.Hbond.Weighted>
-8.1154

> <Gold.Chemscore.Metal.Weighted>
-0.0000

> <Gold.Chemscore.Lipo.Weighted>
-8.7487

> <Gold.Chemscore.Internal_Hbond.Weighted>
0.0000

> <Gold.Chemscore.DEClash.Weighted>
0.0899

> <Gold.Chemscore.DEInternal.Weighted>
3.5663

> <Gold.Chemscore.Rot.Weighted>
3.3488

> <Gold.Chemscore.Internal.Correction.Weighted>
   9.000000E+99

> <Gold.Protein.RotatedTorsions>
[ 6907 6896 6895 6894 ] final   81.34 input  -60.11 | X-H torsion
[ 7974 7965 7964 7962 ] final   30.10 input  175.53 | X-H torsion
[ 8008 7997 7996 7995 ] final   52.97 input   59.86 | X-H torsion
[ 10167 10162 10161 10158 ] final  -99.41 input  -65.29 | X-H torsion
[ 10718 10713 10712 10709 ] final   46.43 input   66.30 | X-H torsion
[ 10763 10752 10751 10750 ] final -153.82 input  -60.55 | X-H torsion
[ 11005 11000 10999 10996 ] final  119.77 input  -57.11 | X-H torsion

> <Gold.Protein.ActiveResidues>
 VAL166  LYS551  ARG553  GLY616  TRP617  ASP618  TYR619  PRO620  LYS621  CYS622 
 ASP623  PHE694  ASN695  SER759  ASP760  ASP761  ALA762  ILE779  LEU786  VAL792 
 PHE793  MET794  SER795  GLU796  ALA797  LYS798  CYS799  TRP800  GLU811  SER814 

> <Gold.Protein.RotatedAtoms>
  152.5265  134.3219  159.9151 H   0  0  0  0  0  0  0  0  0  0  0  0  # atno 6907 bound_to 6896
  151.3168  133.4050  159.2659 H   0  0  0  0  0  0  0  0  0  0  0  0  # atno 6908 bound_to 6896
  150.9992  134.9325  159.8002 H   0  0  0  0  0  0  0  0  0  0  0  0  # atno 6909 bound_to 6896
  146.1632  139.6833  142.9019 H   0  0  0  0  0  0  0  0  0  0  0  0  # atno 7974 bound_to 7965
  155.4606  140.3461  155.4312 H   0  0  0  0  0  0  0  0  0  0  0  0  # atno 8008 bound_to 7997
  156.1163  140.1475  156.9297 H   0  0  0  0  0  0  0  0  0  0  0  0  # atno 8009 bound_to 7997
  154.4791  140.0875  156.7314 H   0  0  0  0  0  0  0  0  0  0  0  0  # atno 8010 bound_to 7997
  140.2628  143.3396  152.0609 H   0  0  0  0  0  0  0  0  0  0  0  0  # atno 10167 bound_to 10162
  157.4480  130.8121  149.7760 H   0  0  0  0  0  0  0  0  0  0  0  0  # atno 10718 bound_to 10713
  154.7901  135.3204  154.7796 H   0  0  0  0  0  0  0  0  0  0  0  0  # atno 10763 bound_to 10752
  153.8487  135.6864  153.4799 H   0  0  0  0  0  0  0  0  0  0  0  0  # atno 10764 bound_to 10752
  153.1568  135.4677  154.9656 H   0  0  0  0  0  0  0  0  0  0  0  0  # atno 10765 bound_to 10752
  139.9159  134.9630  156.7705 H   0  0  0  0  0  0  0  0  0  0  0  0  # atno 11005 bound_to 11000
  145.4535  141.0429  143.2791 LP  0  0  0  0  0  0  0  0  0  0  0  0  # atno 17320 bound_to 7965
  144.8055  139.6059  143.7052 LP  0  0  0  0  0  0  0  0  0  0  0  0  # atno 17321 bound_to 7965
  139.5012  144.6708  151.6248 LP  0  0  0  0  0  0  0  0  0  0  0  0  # atno 17342 bound_to 10162
  140.5952  143.9708  150.6350 LP  0  0  0  0  0  0  0  0  0  0  0  0  # atno 17343 bound_to 10162
  155.9975  130.3899  150.2737 LP  0  0  0  0  0  0  0  0  0  0  0  0  # atno 17370 bound_to 10713
  157.0906  131.0168  151.3123 LP  0  0  0  0  0  0  0  0  0  0  0  0  # atno 17371 bound_to 10713
  140.6624  133.9633  155.7812 LP  0  0  0  0  0  0  0  0  0  0  0  0  # atno 17394 bound_to 11000
  141.0634  134.0313  157.3627 LP  0  0  0  0  0  0  0  0  0  0  0  0  # atno 17395 bound_to 11000

$$$$
