AV-unprocessed.smi:2462|AV-procd|sdf|9717|dock4
  -GOLD-   2272013353D 1   1.00000     0.00000
 Structure written by MMmdl.
 40 41  0  0  0  0  0  0  0  0  1 V2000
  151.9530  143.9971  162.0436 C   0  0  0  0  0  0  0  0  0  0  0  0
  151.7777  143.4743  160.6291 C   0  0  0  0  0  0  0  0  0  0  0  0
  151.0305  144.2869  159.7733 N   0  0  0  0  0  0  0  0  0  0  0  0
  150.8082  143.9088  158.5574 C   0  0  0  0  0  0  0  0  0  0  0  0
  151.2859  142.6838  158.0594 N   0  0  0  0  0  0  0  0  0  0  0  0
  150.9377  142.3783  156.6545 C   0  0  0  0  0  0  0  0  0  0  0  0
  149.6973  141.4489  156.4566 C   0  0  1  0  0  0  0  0  0  0  0  0
  148.5570  142.2001  156.8299 O   0  0  0  0  0  0  0  0  0  0  0  0
  149.4733  141.1245  154.9594 C   0  0  0  0  0  0  0  0  0  0  0  0
  150.4487  140.0630  154.4201 C   0  0  0  0  0  0  0  0  0  0  0  0
  150.3911  138.7689  155.2512 C   0  0  1  0  0  0  0  0  0  0  0  0
  151.3648  137.7114  154.7125 C   0  0  0  0  0  0  0  0  0  0  0  0
  150.6588  139.0763  156.7351 C   0  0  0  0  0  0  0  0  0  0  0  0
  149.6883  140.1375  157.2826 C   0  0  0  0  0  0  0  0  0  0  0  0
  152.0855  141.8677  158.8094 C   0  0  0  0  0  0  0  0  0  0  0  0
  152.5843  140.8393  158.3499 O   0  0  0  0  0  0  0  0  0  0  0  0
  152.3090  142.2978  160.1995 C   0  0  0  0  0  0  0  0  0  0  0  0
  153.1349  141.3731  161.0854 C   0  0  0  0  0  0  0  0  0  0  0  0
  153.0099  144.1416  162.2692 H   0  0  0  0  0  0  0  0  0  0  0  0
  151.5341  143.2950  162.7649 H   0  0  0  0  0  0  0  0  0  0  0  0
  151.4485  144.9547  162.1788 H   0  0  0  0  0  0  0  0  0  0  0  0
  150.2423  144.5143  157.8477 H   0  0  0  0  0  0  0  0  0  0  0  0
  150.7928  143.3108  156.1047 H   0  0  0  0  0  0  0  0  0  0  0  0
  151.7968  141.9294  156.1576 H   0  0  0  0  0  0  0  0  0  0  0  0
  148.4570  142.9162  156.2214 H   0  0  0  0  0  0  0  0  0  0  0  0
  148.4584  140.7507  154.8124 H   0  0  0  0  0  0  0  0  0  0  0  0
  149.5468  142.0331  154.3595 H   0  0  0  0  0  0  0  0  0  0  0  0
  150.2032  139.8444  153.3802 H   0  0  0  0  0  0  0  0  0  0  0  0
  151.4659  140.4544  154.4125 H   0  0  0  0  0  0  0  0  0  0  0  0
  149.3832  138.3597  155.1687 H   0  0  0  0  0  0  0  0  0  0  0  0
  152.3972  138.0589  154.7657 H   0  0  0  0  0  0  0  0  0  0  0  0
  151.1473  137.4717  153.6713 H   0  0  0  0  0  0  0  0  0  0  0  0
  151.2956  136.7860  155.2851 H   0  0  0  0  0  0  0  0  0  0  0  0
  150.5652  138.1641  157.3251 H   0  0  0  0  0  0  0  0  0  0  0  0
  151.6871  139.4092  156.8560 H   0  0  0  0  0  0  0  0  0  0  0  0
  149.8962  140.3299  158.3352 H   0  0  0  0  0  0  0  0  0  0  0  0
  148.6846  139.7100  157.2608 H   0  0  0  0  0  0  0  0  0  0  0  0
  152.6614  140.3929  161.1498 H   0  0  0  0  0  0  0  0  0  0  0  0
  153.2558  141.7456  162.1012 H   0  0  0  0  0  0  0  0  0  0  0  0
  154.1320  141.2403  160.6645 H   0  0  0  0  0  0  0  0  0  0  0  0
  1  2  1  0  0  0  0
  1 19  1  0  0  0  0
  1 20  1  0  0  0  0
  1 21  1  0  0  0  0
  2 17  2  0  0  0  0
  2  3  1  0  0  0  0
  3  4  2  0  0  0  0
  4  5  1  0  0  0  0
  4 22  1  0  0  0  0
  5  6  1  0  0  0  0
  5 15  1  0  0  0  0
  6  7  1  0  0  0  0
  6 23  1  0  0  0  0
  6 24  1  0  0  0  0
  7 14  1  0  0  0  0
  7  8  1  0  0  0  0
  7  9  1  0  0  0  0
  8 25  1  0  0  0  0
  9 10  1  0  0  0  0
  9 26  1  0  0  0  0
  9 27  1  0  0  0  0
 10 11  1  0  0  0  0
 10 28  1  0  0  0  0
 10 29  1  0  0  0  0
 11 12  1  0  0  0  0
 11 13  1  0  0  0  0
 11 30  1  0  0  0  0
 12 31  1  0  0  0  0
 12 32  1  0  0  0  0
 12 33  1  0  0  0  0
 13 14  1  0  0  0  0
 13 34  1  0  0  0  0
 13 35  1  0  0  0  0
 14 36  1  0  0  0  0
 14 37  1  0  0  0  0
 15 16  2  0  0  0  0
 15 17  1  0  0  0  0
 17 18  1  0  0  0  0
 18 38  1  0  0  0  0
 18 39  1  0  0  0  0
 18 40  1  0  0  0  0
M  END
> <s_m_source_file>
AV-unprocessed.smi

> <i_m_source_file_index>
2462

> <i_lp_mmshare_version>
43012

> <i_f3d_flags>
0

> <s_epik_input>
W0NIM11jMW5bY0hdbihjKD1PKWMxW0NIM10pW0NIMl1bQ0BAXTIoW09IXSlbQ0gyXVtDSDJdW0NAQEhdKFtDSDNdKVtDSDJdW0NIMl0y

> <s_epik_cmdline>
J2VwaWtfcHl0aG9uJywgJy1waCcsICc3LjAnLCAnLXRuJywgJzgnLCAnLW1hJywgJzIwMCcsICctbWV0YWxfYmluZGluZycsICctaW1hZScsICc8aW5maWxlLm1hZT4nLCAnLW9tYWUnLCAnPG91dGZpbGUubWFlPic=

> <r_lp_tautomer_probability>
1

> <r_epik_Ionization_Penalty>
0.000179745

> <r_epik_Ionization_Penalty_Charging>
2.35483e-07

> <r_epik_Ionization_Penalty_Neutral>
0.00017951

> <r_epik_State_Penalty>
-0

> <r_epik_Charging_Adjusted_Penalty>
2.35483e-07

> <i_epik_Tot_Q>
0

> <i_epik_Tot_abs_Q>
0

> <r_epik_Metal_State_Penalty>
-0

> <b_epik_Metal_Only>
0

> <s_lp_Force_Field>
OPLS_2005

> <r_lp_Energy>
24.5365

> <b_lp_Chiralities_Consistent>
1

> <s_lp_Variant>
AV-unprocessed.smi:2462-1

> <Gold.Version>
5.8.1

> <Gold.Id.Protein>
6NUR|6NUR_protein|mol2

> <Gold.PLP.Fitness>
43.2166

> <Gold.PLP.PLP>
-36.7099

> <Gold.PLP.part.hbond>
-2.0000

> <Gold.PLP.part.metal>
0.0000

> <Gold.PLP.part.buried>
-0.5732

> <Gold.PLP.part.nonpolar>
-31.9063

> <Gold.PLP.part.repulsive>
0.0710

> <Gold.PLP.ligand.clash>
0.0000

> <Gold.PLP.ligand.torsion>
0.3930

> <Gold.PLP.Chemscore.Hbond>
1.4137

> <Gold.PLP.Chemscore.CHOScore>
0.9913

> <Gold.PLP.Chemscore.Metal>
0.0000

> <Gold.Chemscore.Hbonds>
donor molecule, donor type, donor heavy atom, donor atom, acceptor molecule, acceptor atom, score
      L1  H     8    25       P1  8028  1.00
      L1  C     4    22       P1  8028  0.90
      L1  C     4    22       P1  8029  0.13

> <Gold.PLP.Chemscore.Internal.Correction>
0.0780

> <Gold.Rescore>
     Score         DG    S(hbond)    S(metal)    S(lipo)     H(rot)  DE(clash)    DE(int)     intcor
     13.84     -15.46       0.94        0.00      95.08       1.68       1.29       0.32       ----

> <Gold.Chemscore.Fitness>
13.8438

> <Gold.Chemscore.DG>
-15.4563

> <Gold.Chemscore.ZeroCoef>
-5.4800

> <Gold.Chemscore.Hbond>
0.9407

> <Gold.Chemscore.Metal>
0.0000

> <Gold.Chemscore.Lipo>
95.0805

> <Gold.Chemscore.Internal_Hbond>
0.0000

> <Gold.Chemscore.DEClash>
1.2903

> <Gold.Chemscore.DEInternal>
0.3221

> <Gold.Chemscore.Rot>
1.6758

> <Gold.Chemscore.Internal.Correction>
   9.000000E+99

> <Gold.Chemscore.Hbonds>
donor molecule, donor type, donor heavy atom, donor atom, acceptor molecule, acceptor atom, score
      L1  H     8    25       P1  8028  0.88
      P1  H  7997  8008       L1    16  0.01

> <Gold.Chemscore.Hbond.Weighted>
-3.1418

> <Gold.Chemscore.Metal.Weighted>
-0.0000

> <Gold.Chemscore.Lipo.Weighted>
-11.1244

> <Gold.Chemscore.Internal_Hbond.Weighted>
0.0000

> <Gold.Chemscore.DEClash.Weighted>
1.2903

> <Gold.Chemscore.DEInternal.Weighted>
0.3221

> <Gold.Chemscore.Rot.Weighted>
4.2899

> <Gold.Chemscore.Internal.Correction.Weighted>
   9.000000E+99

> <Gold.Protein.RotatedTorsions>
[ 6907 6896 6895 6894 ] final   71.97 input  -60.11 | X-H torsion
[ 7974 7965 7964 7962 ] final  178.11 input  175.53 | X-H torsion
[ 8008 7997 7996 7995 ] final  -78.75 input   59.86 | X-H torsion
[ 10167 10162 10161 10158 ] final  -69.49 input  -65.29 | X-H torsion
[ 10718 10713 10712 10709 ] final   79.75 input   66.30 | X-H torsion
[ 10763 10752 10751 10750 ] final  -10.32 input  -60.55 | X-H torsion
[ 11005 11000 10999 10996 ] final -107.53 input  -57.11 | X-H torsion

> <Gold.Protein.ActiveResidues>
 VAL166  LYS551  ARG553  GLY616  TRP617  ASP618  TYR619  PRO620  LYS621  CYS622 
 ASP623  PHE694  ASN695  SER759  ASP760  ASP761  ALA762  ILE779  LEU786  VAL792 
 PHE793  MET794  SER795  GLU796  ALA797  LYS798  CYS799  TRP800  GLU811  SER814 

> <Gold.Protein.RotatedAtoms>
  152.4841  134.4641  159.9614 H   0  0  0  0  0  0  0  0  0  0  0  0  # atno 6907 bound_to 6896
  151.4640  133.3579  159.2821 H   0  0  0  0  0  0  0  0  0  0  0  0  # atno 6908 bound_to 6896
  150.8937  134.8368  159.7372 H   0  0  0  0  0  0  0  0  0  0  0  0  # atno 6909 bound_to 6896
  144.7160  140.0347  143.6438 H   0  0  0  0  0  0  0  0  0  0  0  0  # atno 7974 bound_to 7965
  154.5719  140.0689  156.8977 H   0  0  0  0  0  0  0  0  0  0  0  0  # atno 8008 bound_to 7997
  155.2619  140.3359  155.4254 H   0  0  0  0  0  0  0  0  0  0  0  0  # atno 8009 bound_to 7997
  156.2125  140.1765  156.7649 H   0  0  0  0  0  0  0  0  0  0  0  0  # atno 8010 bound_to 7997
  140.5426  143.2314  151.7060 H   0  0  0  0  0  0  0  0  0  0  0  0  # atno 10167 bound_to 10162
  157.6786  130.9928  150.1978 H   0  0  0  0  0  0  0  0  0  0  0  0  # atno 10718 bound_to 10713
  153.4674  135.7016  153.6014 H   0  0  0  0  0  0  0  0  0  0  0  0  # atno 10763 bound_to 10752
  153.4282  135.3809  155.2154 H   0  0  0  0  0  0  0  0  0  0  0  0  # atno 10764 bound_to 10752
  154.8726  135.3944  154.4108 H   0  0  0  0  0  0  0  0  0  0  0  0  # atno 10765 bound_to 10752
  141.0949  133.8989  157.1987 H   0  0  0  0  0  0  0  0  0  0  0  0  # atno 11005 bound_to 11000
  146.0073  139.3140  143.0891 LP  0  0  0  0  0  0  0  0  0  0  0  0  # atno 17320 bound_to 7965
  145.8723  140.9412  143.0644 LP  0  0  0  0  0  0  0  0  0  0  0  0  # atno 17321 bound_to 7965
  139.4995  144.3944  152.0246 LP  0  0  0  0  0  0  0  0  0  0  0  0  # atno 17342 bound_to 10162
  140.3055  144.3598  150.6048 LP  0  0  0  0  0  0  0  0  0  0  0  0  # atno 17343 bound_to 10162
  156.2676  130.3718  149.8065 LP  0  0  0  0  0  0  0  0  0  0  0  0  # atno 17370 bound_to 10713
  156.5792  130.8458  151.3378 LP  0  0  0  0  0  0  0  0  0  0  0  0  # atno 17371 bound_to 10713
  139.9783  135.0106  156.9687 LP  0  0  0  0  0  0  0  0  0  0  0  0  # atno 17394 bound_to 11000
  140.5164  134.0951  155.7282 LP  0  0  0  0  0  0  0  0  0  0  0  0  # atno 17395 bound_to 11000

$$$$
