AV-unprocessed.smi:423|AV-procd|sdf|2538|dock9
  -GOLD-   2262022503D 1   1.00000     0.00000
 Structure written by MMmdl.
 47 48  0  0  0  0  0  0  0  0  1 V2000
  147.9380  140.4700  157.3019 C   0  0  0  0  0  0  0  0  0  0  0  0
  148.8334  139.3977  157.8528 C   0  0  0  0  0  0  0  0  0  0  0  0
  148.3084  138.4271  158.5805 N   0  0  0  0  0  0  0  0  0  0  0  0
  149.3542  137.6490  158.9290 N   0  0  0  0  0  0  0  0  0  0  0  0
  149.1170  136.4774  159.7596 C   0  0  0  0  0  0  0  0  0  0  0  0
  147.7223  136.4694  160.4225 C   0  0  0  0  0  0  0  0  0  0  0  0
  147.6413  135.3795  161.5014 C   0  0  0  0  0  0  0  0  0  0  0  0
  146.5737  136.3228  159.4091 C   0  0  0  0  0  0  0  0  0  0  0  0
  150.5427  138.1248  158.4049 C   0  0  0  0  0  0  0  0  0  0  0  0
  151.8573  137.4512  158.6392 C   0  0  0  0  0  0  0  0  0  0  0  0
  150.2440  139.2610  157.7011 C   0  0  0  0  0  0  0  0  0  0  0  0
  151.1781  140.1715  156.9406 C   0  0  0  0  0  0  0  0  0  0  0  0
  152.1740  140.8793  157.8774 C   0  0  0  0  0  0  0  0  0  0  0  0
  153.0956  140.2536  158.4005 O   0  0  0  0  0  0  0  0  0  0  0  0
  152.0183  142.1920  158.1180 N   0  0  0  0  0  0  0  0  0  0  0  0
  152.8491  143.0414  158.9698 C   0  0  0  0  0  0  0  0  0  0  0  0
  152.8417  142.5605  160.4369 C   0  0  0  0  0  0  0  0  0  0  0  0
  152.4850  143.7817  161.2872 C   0  0  0  0  0  0  0  0  0  0  0  0
  151.6431  144.6547  160.3629 C   0  0  0  0  0  0  0  0  0  0  0  0
  152.2949  144.4774  158.9920 C   0  0  0  0  0  0  0  0  0  0  0  0
  148.4372  141.4392  157.3094 H   0  0  0  0  0  0  0  0  0  0  0  0
  147.0225  140.5688  157.8867 H   0  0  0  0  0  0  0  0  0  0  0  0
  147.6540  140.2494  156.2732 H   0  0  0  0  0  0  0  0  0  0  0  0
  149.2408  135.5835  159.1454 H   0  0  0  0  0  0  0  0  0  0  0  0
  149.8977  136.4315  160.5193 H   0  0  0  0  0  0  0  0  0  0  0  0
  147.5859  137.4272  160.9250 H   0  0  0  0  0  0  0  0  0  0  0  0
  147.7663  134.3859  161.0701 H   0  0  0  0  0  0  0  0  0  0  0  0
  146.6784  135.4015  162.0125 H   0  0  0  0  0  0  0  0  0  0  0  0
  148.4164  135.5150  162.2563 H   0  0  0  0  0  0  0  0  0  0  0  0
  146.6695  135.4013  158.8341 H   0  0  0  0  0  0  0  0  0  0  0  0
  146.5499  137.1550  158.7051 H   0  0  0  0  0  0  0  0  0  0  0  0
  145.6071  136.3018  159.9130 H   0  0  0  0  0  0  0  0  0  0  0  0
  152.6239  137.8397  157.9691 H   0  0  0  0  0  0  0  0  0  0  0  0
  151.7866  136.3770  158.4706 H   0  0  0  0  0  0  0  0  0  0  0  0
  152.1979  137.6152  159.6612 H   0  0  0  0  0  0  0  0  0  0  0  0
  151.7281  139.6055  156.1898 H   0  0  0  0  0  0  0  0  0  0  0  0
  150.6190  140.9328  156.3961 H   0  0  0  0  0  0  0  0  0  0  0  0
  151.2426  142.6490  157.6608 H   0  0  0  0  0  0  0  0  0  0  0  0
  153.8686  143.0724  158.5826 H   0  0  0  0  0  0  0  0  0  0  0  0
  152.0851  141.7886  160.5864 H   0  0  0  0  0  0  0  0  0  0  0  0
  153.7996  142.1318  160.7326 H   0  0  0  0  0  0  0  0  0  0  0  0
  151.9620  143.5151  162.2061 H   0  0  0  0  0  0  0  0  0  0  0  0
  153.3953  144.3148  161.5648 H   0  0  0  0  0  0  0  0  0  0  0  0
  150.6184  144.2810  160.3360 H   0  0  0  0  0  0  0  0  0  0  0  0
  151.6114  145.6970  160.6816 H   0  0  0  0  0  0  0  0  0  0  0  0
  153.1225  145.1821  158.8979 H   0  0  0  0  0  0  0  0  0  0  0  0
  151.6024  144.6891  158.1759 H   0  0  0  0  0  0  0  0  0  0  0  0
  1  2  1  0  0  0  0
  1 21  1  0  0  0  0
  1 22  1  0  0  0  0
  1 23  1  0  0  0  0
  2 11  1  0  0  0  0
  2  3  2  0  0  0  0
  3  4  1  0  0  0  0
  4  5  1  0  0  0  0
  4  9  1  0  0  0  0
  5  6  1  0  0  0  0
  5 24  1  0  0  0  0
  5 25  1  0  0  0  0
  6  7  1  0  0  0  0
  6  8  1  0  0  0  0
  6 26  1  0  0  0  0
  7 27  1  0  0  0  0
  7 28  1  0  0  0  0
  7 29  1  0  0  0  0
  8 30  1  0  0  0  0
  8 31  1  0  0  0  0
  8 32  1  0  0  0  0
  9 10  1  0  0  0  0
  9 11  2  0  0  0  0
 10 33  1  0  0  0  0
 10 34  1  0  0  0  0
 10 35  1  0  0  0  0
 11 12  1  0  0  0  0
 12 13  1  0  0  0  0
 12 36  1  0  0  0  0
 12 37  1  0  0  0  0
 13 14  2  0  0  0  0
 13 15  1  0  0  0  0
 15 16  1  0  0  0  0
 15 38  1  0  0  0  0
 16 20  1  0  0  0  0
 16 17  1  0  0  0  0
 16 39  1  0  0  0  0
 17 18  1  0  0  0  0
 17 40  1  0  0  0  0
 17 41  1  0  0  0  0
 18 19  1  0  0  0  0
 18 42  1  0  0  0  0
 18 43  1  0  0  0  0
 19 20  1  0  0  0  0
 19 44  1  0  0  0  0
 19 45  1  0  0  0  0
 20 46  1  0  0  0  0
 20 47  1  0  0  0  0
M  END
> <s_m_source_file>
AV-unprocessed.smi

> <i_m_source_file_index>
423

> <i_lp_mmshare_version>
43012

> <i_f3d_flags>
0

> <s_epik_input>
W0NIM11jMW5uKFtDSDJdW0NIXShbQ0gzXSlbQ0gzXSljKFtDSDNdKWMxW0NIMl1DKD1PKVtOSF1bQ0hdMltDSDJdW0NIMl1bQ0gyXVtDSDJdMg==

> <s_epik_cmdline>
J2VwaWtfcHl0aG9uJywgJy1waCcsICc3LjAnLCAnLXRuJywgJzgnLCAnLW1hJywgJzIwMCcsICctbWV0YWxfYmluZGluZycsICctaW1hZScsICc8aW5maWxlLm1hZT4nLCAnLW9tYWUnLCAnPG91dGZpbGUubWFlPic=

> <r_lp_tautomer_probability>
1

> <r_epik_Ionization_Penalty>
0.00323157

> <r_epik_Ionization_Penalty_Charging>
0

> <r_epik_Ionization_Penalty_Neutral>
0.00323157

> <r_epik_State_Penalty>
0.00228044

> <r_epik_Charging_Adjusted_Penalty>
0.00228044

> <i_epik_Tot_Q>
0

> <i_epik_Tot_abs_Q>
0

> <r_epik_Metal_State_Penalty>
-0

> <b_epik_Metal_Only>
0

> <s_lp_Force_Field>
OPLS_2005

> <r_lp_Energy>
20.2574

> <b_lp_Chiralities_Consistent>
1

> <s_lp_Variant>
AV-unprocessed.smi:423-1

> <Gold.Version>
5.8.1

> <Gold.Id.Protein>
6NUR|6NUR_protein|mol2

> <Gold.PLP.Fitness>
40.8567

> <Gold.PLP.PLP>
-38.8320

> <Gold.PLP.part.hbond>
-2.0000

> <Gold.PLP.part.metal>
0.0000

> <Gold.PLP.part.buried>
-4.2070

> <Gold.PLP.part.nonpolar>
-31.3325

> <Gold.PLP.part.repulsive>
0.0627

> <Gold.PLP.ligand.clash>
0.0000

> <Gold.PLP.ligand.torsion>
0.3793

> <Gold.PLP.Chemscore.Hbond>
0.9199

> <Gold.PLP.Chemscore.CHOScore>
0.0000

> <Gold.PLP.Chemscore.Metal>
0.0000

> <Gold.Chemscore.Hbonds>
donor molecule, donor type, donor heavy atom, donor atom, acceptor molecule, acceptor atom, score
      P1  H  7997  8009       L1    14  0.92

> <Gold.PLP.Chemscore.Internal.Correction>
0.0237

> <Gold.Rescore>
     Score         DG    S(hbond)    S(metal)    S(lipo)     H(rot)  DE(clash)    DE(int)     intcor
     14.54     -16.70       0.90        0.00     101.63       1.43       0.05       2.11       ----

> <Gold.Chemscore.Fitness>
14.5375

> <Gold.Chemscore.DG>
-16.6964

> <Gold.Chemscore.ZeroCoef>
-5.4800

> <Gold.Chemscore.Hbond>
0.8954

> <Gold.Chemscore.Metal>
0.0000

> <Gold.Chemscore.Lipo>
101.6297

> <Gold.Chemscore.Internal_Hbond>
0.0000

> <Gold.Chemscore.DEClash>
0.0456

> <Gold.Chemscore.DEInternal>
2.1133

> <Gold.Chemscore.Rot>
1.4316

> <Gold.Chemscore.Internal.Correction>
   9.000000E+99

> <Gold.Chemscore.Hbonds>
donor molecule, donor type, donor heavy atom, donor atom, acceptor molecule, acceptor atom, score
      P1  H  7997  8009       L1    14  0.51

> <Gold.Chemscore.Hbond.Weighted>
-2.9907

> <Gold.Chemscore.Metal.Weighted>
-0.0000

> <Gold.Chemscore.Lipo.Weighted>
-11.8907

> <Gold.Chemscore.Internal_Hbond.Weighted>
0.0000

> <Gold.Chemscore.DEClash.Weighted>
0.0456

> <Gold.Chemscore.DEInternal.Weighted>
2.1133

> <Gold.Chemscore.Rot.Weighted>
3.6649

> <Gold.Chemscore.Internal.Correction.Weighted>
   9.000000E+99

> <Gold.Protein.RotatedTorsions>
[ 6907 6896 6895 6894 ] final  -41.70 input  -60.11 | X-H torsion
[ 7974 7965 7964 7962 ] final   83.47 input  175.53 | X-H torsion
[ 8008 7997 7996 7995 ] final  157.77 input   59.86 | X-H torsion
[ 10167 10162 10161 10158 ] final   18.33 input  -65.29 | X-H torsion
[ 10718 10713 10712 10709 ] final -124.57 input   66.30 | X-H torsion
[ 10763 10752 10751 10750 ] final   75.12 input  -60.55 | X-H torsion
[ 11005 11000 10999 10996 ] final  104.61 input  -57.11 | X-H torsion

> <Gold.Protein.ActiveResidues>
 VAL166  LYS551  ARG553  GLY616  TRP617  ASP618  TYR619  PRO620  LYS621  CYS622 
 ASP623  PHE694  ASN695  SER759  ASP760  ASP761  ALA762  ILE779  LEU786  VAL792 
 PHE793  MET794  SER795  GLU796  ALA797  LYS798  CYS799  TRP800  GLU811  SER814 

> <Gold.Protein.RotatedAtoms>
  150.9637  134.9021  159.7745 H   0  0  0  0  0  0  0  0  0  0  0  0  # atno 6907 bound_to 6896
  152.5165  134.3637  159.9303 H   0  0  0  0  0  0  0  0  0  0  0  0  # atno 6908 bound_to 6896
  151.3648  133.3835  159.2728 H   0  0  0  0  0  0  0  0  0  0  0  0  # atno 6909 bound_to 6896
  145.6115  139.2369  143.2190 H   0  0  0  0  0  0  0  0  0  0  0  0  # atno 7974 bound_to 7965
  156.2344  140.1876  156.7158 H   0  0  0  0  0  0  0  0  0  0  0  0  # atno 8008 bound_to 7997
  154.6080  140.0626  156.9483 H   0  0  0  0  0  0  0  0  0  0  0  0  # atno 8009 bound_to 7997
  155.2064  140.3296  155.4338 H   0  0  0  0  0  0  0  0  0  0  0  0  # atno 8010 bound_to 7997
  140.5661  143.9249  150.6677 H   0  0  0  0  0  0  0  0  0  0  0  0  # atno 10167 bound_to 10162
  156.1600  130.6595  151.0035 H   0  0  0  0  0  0  0  0  0  0  0  0  # atno 10718 bound_to 10713
  153.0633  135.5000  154.8142 H   0  0  0  0  0  0  0  0  0  0  0  0  # atno 10763 bound_to 10752
  154.6915  135.2985  154.9475 H   0  0  0  0  0  0  0  0  0  0  0  0  # atno 10764 bound_to 10752
  154.0228  135.6740  153.4826 H   0  0  0  0  0  0  0  0  0  0  0  0  # atno 10765 bound_to 10752
  139.8793  134.9306  156.5388 H   0  0  0  0  0  0  0  0  0  0  0  0  # atno 11005 bound_to 11000
  146.1501  140.6937  142.9326 LP  0  0  0  0  0  0  0  0  0  0  0  0  # atno 17320 bound_to 7965
  144.7268  140.4549  143.6967 LP  0  0  0  0  0  0  0  0  0  0  0  0  # atno 17321 bound_to 7965
  140.2712  143.3455  152.1236 LP  0  0  0  0  0  0  0  0  0  0  0  0  # atno 17342 bound_to 10162
  139.5093  144.6865  151.5872 LP  0  0  0  0  0  0  0  0  0  0  0  0  # atno 17343 bound_to 10162
  157.6725  131.0858  150.7578 LP  0  0  0  0  0  0  0  0  0  0  0  0  # atno 17370 bound_to 10713
  156.7641  130.4808  149.5431 LP  0  0  0  0  0  0  0  0  0  0  0  0  # atno 17371 bound_to 10713
  140.8326  133.8267  155.8998 LP  0  0  0  0  0  0  0  0  0  0  0  0  # atno 17394 bound_to 11000
  140.9314  134.2017  157.4861 LP  0  0  0  0  0  0  0  0  0  0  0  0  # atno 17395 bound_to 11000

$$$$
