AV-unprocessed.smi:372|AV-procd|sdf|2443|dock2
  -GOLD-   2262022383D 1   1.00000     0.00000
 Structure written by MMmdl.
 23 24  0  0  0  0  0  0  0  0  1 V2000
  151.9739  139.6133  156.3011 C   0  0  0  0  0  0  0  0  0  0  0  0
  151.9337  139.7147  157.8381 C   0  0  1  0  0  0  0  0  0  0  0  0
  151.8637  141.1767  158.3133 C   0  0  0  0  0  0  0  0  0  0  0  0
  152.8262  141.7217  159.1991 C   0  0  0  0  0  0  0  0  0  0  0  0
  152.6984  143.0651  159.6013 C   0  0  0  0  0  0  0  0  0  0  0  0
  151.6177  143.8218  159.1129 C   0  0  0  0  0  0  0  0  0  0  0  0
  150.7058  143.1961  158.2422 C   0  0  0  0  0  0  0  0  0  0  0  0
  150.8194  141.9089  157.8529 N   0  0  0  0  0  0  0  0  0  0  0  0
  150.8490  138.8902  158.3570 N   0  0  0  0  0  0  0  0  0  0  0  0
  151.2666  137.9315  159.1934 C   0  0  0  0  0  0  0  0  0  0  0  0
  150.5511  137.1297  159.7890 O   0  0  0  0  0  0  0  0  0  0  0  0
  152.5989  137.9936  159.2533 N   0  0  0  0  0  0  0  0  0  0  0  0
  153.0973  138.9640  158.4892 C   0  0  0  0  0  0  0  0  0  0  0  0
  154.2895  139.2122  158.3138 O   0  0  0  0  0  0  0  0  0  0  0  0
  152.8212  140.1601  155.8854 H   0  0  0  0  0  0  0  0  0  0  0  0
  151.0673  140.0277  155.8591 H   0  0  0  0  0  0  0  0  0  0  0  0
  152.0584  138.5780  155.9675 H   0  0  0  0  0  0  0  0  0  0  0  0
  153.6522  141.1365  159.5742 H   0  0  0  0  0  0  0  0  0  0  0  0
  153.4176  143.5072  160.2749 H   0  0  0  0  0  0  0  0  0  0  0  0
  151.4895  144.8548  159.4005 H   0  0  0  0  0  0  0  0  0  0  0  0
  149.8619  143.7429  157.8486 H   0  0  0  0  0  0  0  0  0  0  0  0
  149.8800  139.0632  158.1321 H   0  0  0  0  0  0  0  0  0  0  0  0
  153.1663  137.3623  159.7998 H   0  0  0  0  0  0  0  0  0  0  0  0
  1  2  1  0  0  0  0
  1 15  1  0  0  0  0
  1 16  1  0  0  0  0
  1 17  1  0  0  0  0
  2 13  1  0  0  0  0
  2  3  1  0  0  0  0
  2  9  1  0  0  0  0
  3  8  1  0  0  0  0
  3  4  2  0  0  0  0
  4  5  1  0  0  0  0
  4 18  1  0  0  0  0
  5  6  2  0  0  0  0
  5 19  1  0  0  0  0
  6  7  1  0  0  0  0
  6 20  1  0  0  0  0
  7  8  2  0  0  0  0
  7 21  1  0  0  0  0
  9 10  1  0  0  0  0
  9 22  1  0  0  0  0
 10 11  2  0  0  0  0
 10 12  1  0  0  0  0
 12 13  1  0  0  0  0
 12 23  1  0  0  0  0
 13 14  2  0  0  0  0
M  END
> <s_m_source_file>
AV-unprocessed.smi

> <i_m_source_file_index>
372

> <i_lp_mmshare_version>
43012

> <i_f3d_flags>
0

> <s_epik_input>
Tz1DMVtOSF1DKD1PKVtOSF1bQ0BAXTEoW0NIM10pYzJbY0hdW2NIXVtjSF1bY0hdbjI=

> <s_epik_cmdline>
J2VwaWtfcHl0aG9uJywgJy1waCcsICc3LjAnLCAnLXRuJywgJzgnLCAnLW1hJywgJzIwMCcsICctbWV0YWxfYmluZGluZycsICctaW1hZScsICc8aW5maWxlLm1hZT4nLCAnLW9tYWUnLCAnPG91dGZpbGUubWFlPic=

> <r_lp_tautomer_probability>
1

> <r_epik_Ionization_Penalty>
0.0293563

> <r_epik_Ionization_Penalty_Charging>
0

> <r_epik_Ionization_Penalty_Neutral>
0.0293563

> <r_epik_State_Penalty>
0.034944

> <r_epik_Charging_Adjusted_Penalty>
0.034944

> <i_epik_Tot_Q>
0

> <i_epik_Tot_abs_Q>
0

> <r_epik_Metal_State_Penalty>
0.534399

> <b_epik_Metal_Only>
0

> <s_lp_Force_Field>
OPLS_2005

> <r_lp_Energy>
17.2904

> <b_lp_Chiralities_Consistent>
1

> <s_lp_Variant>
AV-unprocessed.smi:372-1

> <Gold.Version>
5.8.1

> <Gold.Id.Protein>
6NUR|6NUR_protein|mol2

> <Gold.PLP.Fitness>
32.6321

> <Gold.PLP.PLP>
-24.0351

> <Gold.PLP.part.hbond>
-2.0937

> <Gold.PLP.part.metal>
0.0000

> <Gold.PLP.part.buried>
-3.0351

> <Gold.PLP.part.nonpolar>
-19.1426

> <Gold.PLP.part.repulsive>
0.2414

> <Gold.PLP.ligand.clash>
0.0000

> <Gold.PLP.ligand.torsion>
0.0763

> <Gold.PLP.Chemscore.Hbond>
1.8775

> <Gold.PLP.Chemscore.CHOScore>
1.0000

> <Gold.PLP.Chemscore.Metal>
0.0000

> <Gold.Chemscore.Hbonds>
donor molecule, donor type, donor heavy atom, donor atom, acceptor molecule, acceptor atom, score
      P1  H  6896  6909       L1    11  0.78
      P1  H  7997  8010       L1    14  0.83
      L1  C     7    21       P1  8028  0.91

> <Gold.PLP.Chemscore.Internal.Correction>
0.1172

> <Gold.Rescore>
     Score         DG    S(hbond)    S(metal)    S(lipo)     H(rot)  DE(clash)    DE(int)     intcor
     15.48     -16.54       1.98        0.00      59.88       1.00       0.01       1.05       ----

> <Gold.Chemscore.Fitness>
15.4806

> <Gold.Chemscore.DG>
-16.5405

> <Gold.Chemscore.ZeroCoef>
-5.4800

> <Gold.Chemscore.Hbond>
1.9803

> <Gold.Chemscore.Metal>
0.0000

> <Gold.Chemscore.Lipo>
59.8828

> <Gold.Chemscore.Internal_Hbond>
0.0000

> <Gold.Chemscore.DEClash>
0.0077

> <Gold.Chemscore.DEInternal>
1.0521

> <Gold.Chemscore.Rot>
1.0000

> <Gold.Chemscore.Internal.Correction>
   9.000000E+99

> <Gold.Chemscore.Hbonds>
donor molecule, donor type, donor heavy atom, donor atom, acceptor molecule, acceptor atom, score
      P1  H  6896  6909       L1    11  0.75
      P1  H  7997  8010       L1    14  0.80

> <Gold.Chemscore.Hbond.Weighted>
-6.6142

> <Gold.Chemscore.Metal.Weighted>
-0.0000

> <Gold.Chemscore.Lipo.Weighted>
-7.0063

> <Gold.Chemscore.Internal_Hbond.Weighted>
0.0000

> <Gold.Chemscore.DEClash.Weighted>
0.0077

> <Gold.Chemscore.DEInternal.Weighted>
1.0521

> <Gold.Chemscore.Rot.Weighted>
2.5600

> <Gold.Chemscore.Internal.Correction.Weighted>
   9.000000E+99

> <Gold.Protein.RotatedTorsions>
[ 6907 6896 6895 6894 ] final   98.70 input  -60.11 | X-H torsion
[ 7974 7965 7964 7962 ] final    8.31 input  175.53 | X-H torsion
[ 8008 7997 7996 7995 ] final   18.53 input   59.86 | X-H torsion
[ 10167 10162 10161 10158 ] final   53.26 input  -65.29 | X-H torsion
[ 10718 10713 10712 10709 ] final  137.97 input   66.30 | X-H torsion
[ 10763 10752 10751 10750 ] final  170.69 input  -60.55 | X-H torsion
[ 11005 11000 10999 10996 ] final -115.12 input  -57.11 | X-H torsion

> <Gold.Protein.ActiveResidues>
 VAL166  LYS551  ARG553  GLY616  TRP617  ASP618  TYR619  PRO620  LYS621  CYS622 
 ASP623  PHE694  ASN695  SER759  ASP760  ASP761  ALA762  ILE779  LEU786  VAL792 
 PHE793  MET794  SER795  GLU796  ALA797  LYS798  CYS799  TRP800  GLU811  SER814 

> <Gold.Protein.RotatedAtoms>
  152.5405  134.0540  159.8122 H   0  0  0  0  0  0  0  0  0  0  0  0  # atno 6907 bound_to 6896
  151.0678  133.5484  159.2636 H   0  0  0  0  0  0  0  0  0  0  0  0  # atno 6908 bound_to 6896
  151.2358  135.0579  159.9059 H   0  0  0  0  0  0  0  0  0  0  0  0  # atno 6909 bound_to 6896
  146.2417  139.9953  142.8421 H   0  0  0  0  0  0  0  0  0  0  0  0  # atno 7974 bound_to 7965
  154.9073  140.3009  155.5285 H   0  0  0  0  0  0  0  0  0  0  0  0  # atno 8008 bound_to 7997
  156.3016  140.2395  156.4044 H   0  0  0  0  0  0  0  0  0  0  0  0  # atno 8009 bound_to 7997
  154.8460  140.0411  157.1562 H   0  0  0  0  0  0  0  0  0  0  0  0  # atno 8010 bound_to 7997
  140.2426  144.3567  150.6375 H   0  0  0  0  0  0  0  0  0  0  0  0  # atno 10167 bound_to 10162
  157.4304  131.1048  151.0256 H   0  0  0  0  0  0  0  0  0  0  0  0  # atno 10718 bound_to 10713
  154.4013  135.2755  155.2095 H   0  0  0  0  0  0  0  0  0  0  0  0  # atno 10763 bound_to 10752
  154.4119  135.6020  153.5961 H   0  0  0  0  0  0  0  0  0  0  0  0  # atno 10764 bound_to 10752
  152.9831  135.5951  154.4281 H   0  0  0  0  0  0  0  0  0  0  0  0  # atno 10765 bound_to 10752
  141.0508  133.9690  157.2840 H   0  0  0  0  0  0  0  0  0  0  0  0  # atno 11005 bound_to 11000
  145.1466  140.9600  143.4457 LP  0  0  0  0  0  0  0  0  0  0  0  0  # atno 17320 bound_to 7965
  145.0245  139.3394  143.6055 LP  0  0  0  0  0  0  0  0  0  0  0  0  # atno 17321 bound_to 7965
  140.6102  143.2169  151.6902 LP  0  0  0  0  0  0  0  0  0  0  0  0  # atno 17342 bound_to 10162
  139.5072  144.3654  152.0522 LP  0  0  0  0  0  0  0  0  0  0  0  0  # atno 17343 bound_to 10162
  157.1155  130.6039  149.5492 LP  0  0  0  0  0  0  0  0  0  0  0  0  # atno 17370 bound_to 10713
  155.9911  130.4965  150.7286 LP  0  0  0  0  0  0  0  0  0  0  0  0  # atno 17371 bound_to 10713
  139.9349  135.0197  156.8522 LP  0  0  0  0  0  0  0  0  0  0  0  0  # atno 17394 bound_to 11000
  140.6059  134.0128  155.7556 LP  0  0  0  0  0  0  0  0  0  0  0  0  # atno 17395 bound_to 11000

$$$$
