AV-unprocessed.smi:3113|AV-procd|sdf|11855|dock4
  -GOLD-   2272017233D 1   1.00000     0.00000
 Structure written by MMmdl.
 34 35  0  0  0  0  0  0  0  0  1 V2000
  152.9549  142.2202  161.1817 C   0  0  0  0  0  0  0  0  0  0  0  0
  152.5532  143.2750  162.0484 C   0  0  0  0  0  0  0  0  0  0  0  0
  152.1468  144.3493  161.3913 N   0  0  0  0  0  0  0  0  0  0  0  0
  152.2762  144.0176  160.0885 N   0  0  0  0  0  0  0  0  0  0  0  0
  151.9239  144.9805  159.0604 C   0  0  0  0  0  0  0  0  0  0  0  0
  151.8595  144.3424  157.6636 C   0  0  0  0  0  0  0  0  0  0  0  0
  150.6760  143.5002  157.5151 N   0  0  0  0  0  0  0  0  0  0  0  0
  150.9630  142.0699  157.5666 C   0  0  0  0  0  0  0  0  0  0  0  0
  150.7594  141.3962  156.1990 C   0  0  1  0  0  0  0  0  0  0  0  0
  151.0811  139.8865  156.1934 C   0  0  0  0  0  0  0  0  0  0  0  0
  150.8165  139.2895  154.8071 C   0  0  0  0  0  0  0  0  0  0  0  0
  149.3947  139.6422  154.3567 C   0  0  0  0  0  0  0  0  0  0  0  0
  149.1657  141.1602  154.4428 C   0  0  0  0  0  0  0  0  0  0  0  0
  149.4188  141.6220  155.7666 O   0  0  0  0  0  0  0  0  0  0  0  0
  152.7622  142.7364  159.9323 C   0  0  0  0  0  0  0  0  0  0  0  0
  153.3277  141.2397  161.4376 H   0  0  0  0  0  0  0  0  0  0  0  0
  152.5453  143.2919  163.1284 H   0  0  0  0  0  0  0  0  0  0  0  0
  150.9687  145.4394  159.3190 H   0  0  0  0  0  0  0  0  0  0  0  0
  152.6660  145.7802  159.0687 H   0  0  0  0  0  0  0  0  0  0  0  0
  151.8420  145.1331  156.9131 H   0  0  0  0  0  0  0  0  0  0  0  0
  152.7634  143.7602  157.4803 H   0  0  0  0  0  0  0  0  0  0  0  0
  150.2030  143.7199  156.6442 H   0  0  0  0  0  0  0  0  0  0  0  0
  151.9891  141.9074  157.8987 H   0  0  0  0  0  0  0  0  0  0  0  0
  150.3185  141.5906  158.3045 H   0  0  0  0  0  0  0  0  0  0  0  0
  151.4260  141.8945  155.4927 H   0  0  0  0  0  0  0  0  0  0  0  0
  152.1190  139.7188  156.4819 H   0  0  0  0  0  0  0  0  0  0  0  0
  150.4650  139.3662  156.9276 H   0  0  0  0  0  0  0  0  0  0  0  0
  151.5380  139.6861  154.0915 H   0  0  0  0  0  0  0  0  0  0  0  0
  150.9536  138.2080  154.8258 H   0  0  0  0  0  0  0  0  0  0  0  0
  149.2246  139.2919  153.3383 H   0  0  0  0  0  0  0  0  0  0  0  0
  148.6708  139.1282  154.9901 H   0  0  0  0  0  0  0  0  0  0  0  0
  149.8047  141.6895  153.7345 H   0  0  0  0  0  0  0  0  0  0  0  0
  148.1354  141.3991  154.1791 H   0  0  0  0  0  0  0  0  0  0  0  0
  152.9324  142.3061  158.9564 H   0  0  0  0  0  0  0  0  0  0  0  0
  1 15  2  0  0  0  0
  1  2  1  0  0  0  0
  1 16  1  0  0  0  0
  2  3  2  0  0  0  0
  2 17  1  0  0  0  0
  3  4  1  0  0  0  0
  4  5  1  0  0  0  0
  4 15  1  0  0  0  0
  5  6  1  0  0  0  0
  5 18  1  0  0  0  0
  5 19  1  0  0  0  0
  6  7  1  0  0  0  0
  6 20  1  0  0  0  0
  6 21  1  0  0  0  0
  7  8  1  0  0  0  0
  7 22  1  0  0  0  0
  8  9  1  0  0  0  0
  8 23  1  0  0  0  0
  8 24  1  0  0  0  0
  9 14  1  0  0  0  0
  9 10  1  0  0  0  0
  9 25  1  0  0  0  0
 10 11  1  0  0  0  0
 10 26  1  0  0  0  0
 10 27  1  0  0  0  0
 11 12  1  0  0  0  0
 11 28  1  0  0  0  0
 11 29  1  0  0  0  0
 12 13  1  0  0  0  0
 12 30  1  0  0  0  0
 12 31  1  0  0  0  0
 13 14  1  0  0  0  0
 13 32  1  0  0  0  0
 13 33  1  0  0  0  0
 15 34  1  0  0  0  0
M  END
> <s_m_source_file>
AV-unprocessed.smi

> <i_m_source_file_index>
3113

> <i_lp_mmshare_version>
43012

> <i_f3d_flags>
0

> <s_epik_input>
W2NIXTFbY0hdW2NIXW5uMVtDSDJdW0NIMl1bTkhdW0NIMl1bQ0BASF0yW0NIMl1bQ0gyXVtDSDJdW0NIMl1PMg==

> <s_epik_cmdline>
J2VwaWtfcHl0aG9uJywgJy1waCcsICc3LjAnLCAnLXRuJywgJzgnLCAnLW1hJywgJzIwMCcsICctbWV0YWxfYmluZGluZycsICctaW1hZScsICc8aW5maWxlLm1hZT4nLCAnLW9tYWUnLCAnPG91dGZpbGUubWFlPic=

> <r_lp_tautomer_probability>
1

> <r_epik_Ionization_Penalty>
2.521

> <r_epik_Ionization_Penalty_Charging>
0

> <r_epik_Ionization_Penalty_Neutral>
2.521

> <r_epik_State_Penalty>
2.68614

> <r_epik_Charging_Adjusted_Penalty>
2.68614

> <i_epik_Tot_Q>
0

> <i_epik_Tot_abs_Q>
0

> <r_epik_Metal_State_Penalty>
2.68493

> <b_epik_Metal_Only>
0

> <s_lp_Force_Field>
OPLS_2005

> <r_lp_Energy>
15.0278

> <b_lp_Chiralities_Consistent>
1

> <s_lp_Variant>
AV-unprocessed.smi:3113-4

> <Gold.Version>
5.8.1

> <Gold.Id.Protein>
6NUR|6NUR_protein|mol2

> <Gold.PLP.Fitness>
45.9317

> <Gold.PLP.PLP>
-44.5980

> <Gold.PLP.part.hbond>
-1.0000

> <Gold.PLP.part.metal>
0.0000

> <Gold.PLP.part.buried>
-3.7499

> <Gold.PLP.part.nonpolar>
-39.9712

> <Gold.PLP.part.repulsive>
0.2666

> <Gold.PLP.ligand.clash>
0.0000

> <Gold.PLP.ligand.torsion>
0.8454

> <Gold.PLP.Chemscore.Hbond>
1.0000

> <Gold.PLP.Chemscore.CHOScore>
0.0000

> <Gold.PLP.Chemscore.Metal>
0.0000

> <Gold.Chemscore.Hbonds>
donor molecule, donor type, donor heavy atom, donor atom, acceptor molecule, acceptor atom, score
      L1  H     7    22       P1  8028  0.99

> <Gold.PLP.Chemscore.Internal.Correction>
0.0245

> <Gold.Rescore>
     Score         DG    S(hbond)    S(metal)    S(lipo)     H(rot)  DE(clash)    DE(int)     intcor
     15.76     -16.81       0.99        0.00     104.11       1.62       0.22       0.83       ----

> <Gold.Chemscore.Fitness>
15.7606

> <Gold.Chemscore.DG>
-16.8094

> <Gold.Chemscore.ZeroCoef>
-5.4800

> <Gold.Chemscore.Hbond>
0.9878

> <Gold.Chemscore.Metal>
0.0000

> <Gold.Chemscore.Lipo>
104.1082

> <Gold.Chemscore.Internal_Hbond>
0.0000

> <Gold.Chemscore.DEClash>
0.2164

> <Gold.Chemscore.DEInternal>
0.8324

> <Gold.Chemscore.Rot>
1.6213

> <Gold.Chemscore.Internal.Correction>
   9.000000E+99

> <Gold.Chemscore.Hbonds>
donor molecule, donor type, donor heavy atom, donor atom, acceptor molecule, acceptor atom, score
      L1  H     7    22       P1  8028  0.94

> <Gold.Chemscore.Hbond.Weighted>
-3.2993

> <Gold.Chemscore.Metal.Weighted>
-0.0000

> <Gold.Chemscore.Lipo.Weighted>
-12.1807

> <Gold.Chemscore.Internal_Hbond.Weighted>
0.0000

> <Gold.Chemscore.DEClash.Weighted>
0.2164

> <Gold.Chemscore.DEInternal.Weighted>
0.8324

> <Gold.Chemscore.Rot.Weighted>
4.1505

> <Gold.Chemscore.Internal.Correction.Weighted>
   9.000000E+99

> <Gold.Protein.RotatedTorsions>
[ 6907 6896 6895 6894 ] final -134.92 input  -60.11 | X-H torsion
[ 7974 7965 7964 7962 ] final  135.77 input  175.53 | X-H torsion
[ 8008 7997 7996 7995 ] final  171.03 input   59.86 | X-H torsion
[ 10167 10162 10161 10158 ] final  130.82 input  -65.29 | X-H torsion
[ 10718 10713 10712 10709 ] final  -71.12 input   66.30 | X-H torsion
[ 10763 10752 10751 10750 ] final  -30.75 input  -60.55 | X-H torsion
[ 11005 11000 10999 10996 ] final   93.81 input  -57.11 | X-H torsion

> <Gold.Protein.ActiveResidues>
 VAL166  LYS551  ARG553  GLY616  TRP617  ASP618  TYR619  PRO620  LYS621  CYS622 
 ASP623  PHE694  ASN695  SER759  ASP760  ASP761  ALA762  ILE779  LEU786  VAL792 
 PHE793  MET794  SER795  GLU796  ALA797  LYS798  CYS799  TRP800  GLU811  SER814 

> <Gold.Protein.RotatedAtoms>
  150.9916  133.6143  159.2707 H   0  0  0  0  0  0  0  0  0  0  0  0  # atno 6907 bound_to 6896
  151.3362  135.0852  159.9365 H   0  0  0  0  0  0  0  0  0  0  0  0  # atno 6908 bound_to 6896
  152.5247  133.9536  159.7738 H   0  0  0  0  0  0  0  0  0  0  0  0  # atno 6909 bound_to 6896
  144.9631  139.4688  143.5470 H   0  0  0  0  0  0  0  0  0  0  0  0  # atno 7974 bound_to 7965
  156.1310  140.1522  156.9066 H   0  0  0  0  0  0  0  0  0  0  0  0  # atno 8008 bound_to 7997
  154.4909  140.0851  156.7631 H   0  0  0  0  0  0  0  0  0  0  0  0  # atno 8009 bound_to 7997
  155.4256  140.3425  155.4277 H   0  0  0  0  0  0  0  0  0  0  0  0  # atno 8010 bound_to 7997
  139.5412  144.6732  151.4619 H   0  0  0  0  0  0  0  0  0  0  0  0  # atno 10167 bound_to 10162
  156.0377  130.4345  150.2397 H   0  0  0  0  0  0  0  0  0  0  0  0  # atno 10718 bound_to 10713
  153.7861  135.6901  153.4879 H   0  0  0  0  0  0  0  0  0  0  0  0  # atno 10763 bound_to 10752
  153.1780  135.4517  154.9989 H   0  0  0  0  0  0  0  0  0  0  0  0  # atno 10764 bound_to 10752
  154.8063  135.3358  154.7361 H   0  0  0  0  0  0  0  0  0  0  0  0  # atno 10765 bound_to 10752
  139.8805  134.8811  156.3772 H   0  0  0  0  0  0  0  0  0  0  0  0  # atno 11005 bound_to 11000
  146.3359  139.8794  142.8827 LP  0  0  0  0  0  0  0  0  0  0  0  0  # atno 17320 bound_to 7965
  145.2670  141.0096  143.3793 LP  0  0  0  0  0  0  0  0  0  0  0  0  # atno 17321 bound_to 7965
  140.6642  143.8433  150.6923 LP  0  0  0  0  0  0  0  0  0  0  0  0  # atno 17342 bound_to 10162
  140.1837  143.4094  152.1914 LP  0  0  0  0  0  0  0  0  0  0  0  0  # atno 17343 bound_to 10162
  157.0495  131.0058  151.3258 LP  0  0  0  0  0  0  0  0  0  0  0  0  # atno 17370 bound_to 10713
  157.5151  130.7963  149.7747 LP  0  0  0  0  0  0  0  0  0  0  0  0  # atno 17371 bound_to 10713
  140.9423  133.7506  156.0163 LP  0  0  0  0  0  0  0  0  0  0  0  0  # atno 17394 bound_to 11000
  140.8204  134.3296  157.5383 LP  0  0  0  0  0  0  0  0  0  0  0  0  # atno 17395 bound_to 11000

$$$$
