AV-unprocessed.smi:1168|AV-procd|sdf|4939|dock2
  -GOLD-   22720 3523D 1   1.00000     0.00000
 Structure written by MMmdl.
 32 33  0  0  0  0  0  0  0  0  1 V2000
  150.7387  140.8507  157.3772 O   0  0  0  0  0  0  0  0  0  0  0  0
  150.4416  142.0167  157.1174 C   0  0  0  0  0  0  0  0  0  0  0  0
  151.3305  143.1622  157.6061 C   0  0  0  0  0  0  0  0  0  0  0  0
  151.9627  142.8337  158.8718 N   0  0  0  0  0  0  0  0  0  0  0  0
  151.8605  143.4916  160.0793 C   0  0  0  0  0  0  0  0  0  0  0  0
  152.6297  142.8114  160.9788 C   0  0  0  0  0  0  0  0  0  0  0  0
  153.1715  141.7305  160.2243 C   0  0  0  0  0  0  0  0  0  0  0  0
  154.0982  140.6381  160.6890 C   0  0  0  0  0  0  0  0  0  0  0  0
  155.2663  140.7207  160.0519 F   0  0  0  0  0  0  0  0  0  0  0  0
  154.3154  140.7538  161.9992 F   0  0  0  0  0  0  0  0  0  0  0  0
  153.5581  139.4449  160.4411 F   0  0  0  0  0  0  0  0  0  0  0  0
  152.7625  141.7498  158.9627 N   0  0  0  0  0  0  0  0  0  0  0  0
  149.3560  142.3623  156.4080 N   0  0  0  0  0  0  0  0  0  0  0  0
  148.3906  141.4264  155.8380 C   0  0  0  0  0  0  0  0  0  0  0  0
  148.8246  140.9866  154.4260 C   0  0  0  0  0  0  0  0  0  0  0  0
  147.5999  141.1693  153.5270 C   0  0  0  0  0  0  0  0  0  0  0  0
  146.8191  142.3071  154.1766 C   0  0  0  0  0  0  0  0  0  0  0  0
  147.0006  142.0737  155.6762 C   0  0  0  0  0  0  0  0  0  0  0  0
  152.1099  143.3872  156.8766 H   0  0  0  0  0  0  0  0  0  0  0  0
  150.7276  144.0646  157.7193 H   0  0  0  0  0  0  0  0  0  0  0  0
  151.2582  144.3805  160.1951 H   0  0  0  0  0  0  0  0  0  0  0  0
  152.7826  143.0493  162.0210 H   0  0  0  0  0  0  0  0  0  0  0  0
  149.1880  143.3446  156.2456 H   0  0  0  0  0  0  0  0  0  0  0  0
  148.3111  140.5493  156.4833 H   0  0  0  0  0  0  0  0  0  0  0  0
  149.6337  141.6188  154.0563 H   0  0  0  0  0  0  0  0  0  0  0  0
  149.1888  139.9590  154.4099 H   0  0  0  0  0  0  0  0  0  0  0  0
  147.8671  141.3803  152.4912 H   0  0  0  0  0  0  0  0  0  0  0  0
  146.9974  140.2602  153.5374 H   0  0  0  0  0  0  0  0  0  0  0  0
  147.2626  143.2636  153.8970 H   0  0  0  0  0  0  0  0  0  0  0  0
  145.7708  142.3239  153.8774 H   0  0  0  0  0  0  0  0  0  0  0  0
  146.2389  141.3748  156.0245 H   0  0  0  0  0  0  0  0  0  0  0  0
  146.8756  142.9923  156.2509 H   0  0  0  0  0  0  0  0  0  0  0  0
  1  2  2  0  0  0  0
  2  3  1  0  0  0  0
  2 13  1  0  0  0  0
  3  4  1  0  0  0  0
  3 19  1  0  0  0  0
  3 20  1  0  0  0  0
  4 12  1  0  0  0  0
  4  5  1  0  0  0  0
  5  6  2  0  0  0  0
  5 21  1  0  0  0  0
  6  7  1  0  0  0  0
  6 22  1  0  0  0  0
  7  8  1  0  0  0  0
  7 12  2  0  0  0  0
  8  9  1  0  0  0  0
  8 10  1  0  0  0  0
  8 11  1  0  0  0  0
 13 14  1  0  0  0  0
 13 23  1  0  0  0  0
 14 18  1  0  0  0  0
 14 15  1  0  0  0  0
 14 24  1  0  0  0  0
 15 16  1  0  0  0  0
 15 25  1  0  0  0  0
 15 26  1  0  0  0  0
 16 17  1  0  0  0  0
 16 27  1  0  0  0  0
 16 28  1  0  0  0  0
 17 18  1  0  0  0  0
 17 29  1  0  0  0  0
 17 30  1  0  0  0  0
 18 31  1  0  0  0  0
 18 32  1  0  0  0  0
M  END
> <s_m_source_file>
AV-unprocessed.smi

> <i_m_source_file_index>
1168

> <i_lp_mmshare_version>
43012

> <i_f3d_flags>
0

> <s_epik_input>
W0NIMl0xW0NIMl1bQ0gyXVtDSDJdW0NIXTFbTkhdQyg9TylbQ0gyXW4yW2NIXVtjSF1jKG4yKUMoRikoRilG

> <s_epik_cmdline>
J2VwaWtfcHl0aG9uJywgJy1waCcsICc3LjAnLCAnLXRuJywgJzgnLCAnLW1hJywgJzIwMCcsICctbWV0YWxfYmluZGluZycsICctaW1hZScsICc8aW5maWxlLm1hZT4nLCAnLW9tYWUnLCAnPG91dGZpbGUubWFlPic=

> <r_lp_tautomer_probability>
1

> <r_epik_Ionization_Penalty>
8.05939e-08

> <r_epik_Ionization_Penalty_Charging>
0

> <r_epik_Ionization_Penalty_Neutral>
8.05939e-08

> <r_epik_State_Penalty>
-0

> <r_epik_Charging_Adjusted_Penalty>
0

> <i_epik_Tot_Q>
0

> <i_epik_Tot_abs_Q>
0

> <r_epik_Metal_State_Penalty>
-0

> <b_epik_Metal_Only>
0

> <s_lp_Force_Field>
OPLS_2005

> <r_lp_Energy>
20.3297

> <b_lp_Chiralities_Consistent>
1

> <s_lp_Variant>
AV-unprocessed.smi:1168-1

> <Gold.Version>
5.8.1

> <Gold.Id.Protein>
6NUR|6NUR_protein|mol2

> <Gold.PLP.Fitness>
43.8052

> <Gold.PLP.PLP>
-42.3628

> <Gold.PLP.part.hbond>
-1.0000

> <Gold.PLP.part.metal>
0.0000

> <Gold.PLP.part.buried>
-3.9751

> <Gold.PLP.part.nonpolar>
-37.7982

> <Gold.PLP.part.repulsive>
0.0784

> <Gold.PLP.ligand.clash>
0.0000

> <Gold.PLP.ligand.torsion>
0.7851

> <Gold.PLP.Chemscore.Hbond>
1.0000

> <Gold.PLP.Chemscore.CHOScore>
0.0000

> <Gold.PLP.Chemscore.Metal>
0.0000

> <Gold.Chemscore.Hbonds>
donor molecule, donor type, donor heavy atom, donor atom, acceptor molecule, acceptor atom, score
      L1  H    13    23       P1  8028  0.99

> <Gold.PLP.Chemscore.Internal.Correction>
0.0125

> <Gold.Rescore>
     Score         DG    S(hbond)    S(metal)    S(lipo)     H(rot)  DE(clash)    DE(int)     intcor
     12.35     -14.50       1.00        0.00      82.97       1.57       0.06       2.08       ----

> <Gold.Chemscore.Fitness>
12.3542

> <Gold.Chemscore.DG>
-14.4957

> <Gold.Chemscore.ZeroCoef>
-5.4800

> <Gold.Chemscore.Hbond>
1.0000

> <Gold.Chemscore.Metal>
0.0000

> <Gold.Chemscore.Lipo>
82.9676

> <Gold.Chemscore.Internal_Hbond>
0.0000

> <Gold.Chemscore.DEClash>
0.0640

> <Gold.Chemscore.DEInternal>
2.0776

> <Gold.Chemscore.Rot>
1.5748

> <Gold.Chemscore.Internal.Correction>
   9.000000E+99

> <Gold.Chemscore.Hbonds>
donor molecule, donor type, donor heavy atom, donor atom, acceptor molecule, acceptor atom, score
      L1  H    13    23       P1  8028  0.92

> <Gold.Chemscore.Hbond.Weighted>
-3.3400

> <Gold.Chemscore.Metal.Weighted>
-0.0000

> <Gold.Chemscore.Lipo.Weighted>
-9.7072

> <Gold.Chemscore.Internal_Hbond.Weighted>
0.0000

> <Gold.Chemscore.DEClash.Weighted>
0.0640

> <Gold.Chemscore.DEInternal.Weighted>
2.0776

> <Gold.Chemscore.Rot.Weighted>
4.0315

> <Gold.Chemscore.Internal.Correction.Weighted>
   9.000000E+99

> <Gold.Protein.RotatedTorsions>
[ 6907 6896 6895 6894 ] final  141.92 input  -60.11 | X-H torsion
[ 7974 7965 7964 7962 ] final  -21.58 input  175.53 | X-H torsion
[ 8008 7997 7996 7995 ] final -111.45 input   59.86 | X-H torsion
[ 10167 10162 10161 10158 ] final  -69.19 input  -65.29 | X-H torsion
[ 10718 10713 10712 10709 ] final  154.29 input   66.30 | X-H torsion
[ 10763 10752 10751 10750 ] final  -63.22 input  -60.55 | X-H torsion
[ 11005 11000 10999 10996 ] final -105.65 input  -57.11 | X-H torsion

> <Gold.Protein.ActiveResidues>
 VAL166  LYS551  ARG553  GLY616  TRP617  ASP618  TYR619  PRO620  LYS621  CYS622 
 ASP623  PHE694  ASN695  SER759  ASP760  ASP761  ALA762  ILE779  LEU786  VAL792 
 PHE793  MET794  SER795  GLU796  ALA797  LYS798  CYS799  TRP800  GLU811  SER814 

> <Gold.Protein.RotatedAtoms>
  152.2251  133.5014  159.5184 H   0  0  0  0  0  0  0  0  0  0  0  0  # atno 6907 bound_to 6896
  150.7023  134.1290  159.4072 H   0  0  0  0  0  0  0  0  0  0  0  0  # atno 6908 bound_to 6896
  151.9211  135.0297  160.0573 H   0  0  0  0  0  0  0  0  0  0  0  0  # atno 6909 bound_to 6896
  146.1725  140.4361  142.8527 H   0  0  0  0  0  0  0  0  0  0  0  0  # atno 7974 bound_to 7965
  154.9901  140.0395  157.2315 H   0  0  0  0  0  0  0  0  0  0  0  0  # atno 8008 bound_to 7997
  154.7636  140.2789  155.6171 H   0  0  0  0  0  0  0  0  0  0  0  0  # atno 8009 bound_to 7997
  156.2908  140.2623  156.2421 H   0  0  0  0  0  0  0  0  0  0  0  0  # atno 8010 bound_to 7997
  140.5450  143.2313  151.7019 H   0  0  0  0  0  0  0  0  0  0  0  0  # atno 10167 bound_to 10162
  157.2335  131.0744  151.1838 H   0  0  0  0  0  0  0  0  0  0  0  0  # atno 10718 bound_to 10713
  154.3117  135.6214  153.5469 H   0  0  0  0  0  0  0  0  0  0  0  0  # atno 10763 bound_to 10752
  152.9829  135.5703  154.5169 H   0  0  0  0  0  0  0  0  0  0  0  0  # atno 10764 bound_to 10752
  154.4820  135.2863  155.1539 H   0  0  0  0  0  0  0  0  0  0  0  0  # atno 10765 bound_to 10752
  141.1043  133.8826  157.1760 H   0  0  0  0  0  0  0  0  0  0  0  0  # atno 11005 bound_to 11000
  144.8184  140.6508  143.6369 LP  0  0  0  0  0  0  0  0  0  0  0  0  # atno 17320 bound_to 7965
  145.4302  139.1550  143.4026 LP  0  0  0  0  0  0  0  0  0  0  0  0  # atno 17321 bound_to 7965
  139.5003  144.3909  152.0280 LP  0  0  0  0  0  0  0  0  0  0  0  0  # atno 17342 bound_to 10162
  140.3021  144.3634  150.6057 LP  0  0  0  0  0  0  0  0  0  0  0  0  # atno 17343 bound_to 10162
  157.3453  130.7054  149.6407 LP  0  0  0  0  0  0  0  0  0  0  0  0  # atno 17370 bound_to 10713
  155.9674  130.4268  150.4715 LP  0  0  0  0  0  0  0  0  0  0  0  0  # atno 17371 bound_to 10713
  139.9907  135.0065  156.9968 LP  0  0  0  0  0  0  0  0  0  0  0  0  # atno 17394 bound_to 11000
  140.4942  134.1162  155.7238 LP  0  0  0  0  0  0  0  0  0  0  0  0  # atno 17395 bound_to 11000

$$$$
