AV-unprocessed.smi:409|AV-procd|sdf|2505|dock4
  -GOLD-   2262022453D 1   1.00000     0.00000
 Structure written by MMmdl.
 35 36  0  0  0  0  0  0  0  0  1 V2000
  152.1070  140.1265  155.0871 O   0  0  0  0  0  0  0  0  0  0  0  0
  151.0905  139.9100  155.7488 C   0  0  0  0  0  0  0  0  0  0  0  0
  149.9831  138.9927  155.2107 C   0  0  0  0  0  0  0  0  0  0  0  0
  149.7617  137.8048  156.0484 N   0  0  0  0  0  0  0  0  0  0  0  0
  148.6125  137.6953  156.8186 C   0  0  0  0  0  0  0  0  0  0  0  0
  148.3509  136.6363  157.6209 C   0  0  0  0  0  0  0  0  0  0  0  0
  149.2960  135.5289  157.7141 C   0  0  0  0  0  0  0  0  0  0  0  0
  149.1481  134.5270  158.4103 O   0  0  0  0  0  0  0  0  0  0  0  0
  150.4404  135.6771  156.9263 N   0  0  0  0  0  0  0  0  0  0  0  0
  150.7171  136.7664  156.0986 C   0  0  0  0  0  0  0  0  0  0  0  0
  151.7609  136.7990  155.4479 O   0  0  0  0  0  0  0  0  0  0  0  0
  150.8856  140.4265  156.9703 N   0  0  0  0  0  0  0  0  0  0  0  0
  151.8028  141.3158  157.6761 C   0  0  0  0  0  0  0  0  0  0  0  0
  152.1254  140.7635  159.0804 C   0  0  0  0  0  0  0  0  0  0  0  0
  153.0289  141.7254  159.8688 C   0  0  0  0  0  0  0  0  0  0  0  0
  152.4081  143.1283  159.9580 C   0  0  0  0  0  0  0  0  0  0  0  0
  152.0907  143.6836  158.5607 C   0  0  0  0  0  0  0  0  0  0  0  0
  151.1852  142.7239  157.7718 C   0  0  0  0  0  0  0  0  0  0  0  0
  151.1253  134.9360  156.9606 H   0  0  0  0  0  0  0  0  0  0  0  0
  149.0659  139.5785  155.1357 H   0  0  0  0  0  0  0  0  0  0  0  0
  150.2166  138.6919  154.1872 H   0  0  0  0  0  0  0  0  0  0  0  0
  147.8858  138.4947  156.7849 H   0  0  0  0  0  0  0  0  0  0  0  0
  147.4377  136.6095  158.1978 H   0  0  0  0  0  0  0  0  0  0  0  0
  150.0259  140.1911  157.4446 H   0  0  0  0  0  0  0  0  0  0  0  0
  152.7305  141.3926  157.1056 H   0  0  0  0  0  0  0  0  0  0  0  0
  151.1999  140.6015  159.6351 H   0  0  0  0  0  0  0  0  0  0  0  0
  152.6117  139.7905  159.0016 H   0  0  0  0  0  0  0  0  0  0  0  0
  153.2050  141.3326  160.8705 H   0  0  0  0  0  0  0  0  0  0  0  0
  154.0045  141.7873  159.3852 H   0  0  0  0  0  0  0  0  0  0  0  0
  151.4939  143.0867  160.5514 H   0  0  0  0  0  0  0  0  0  0  0  0
  153.0860  143.8030  160.4816 H   0  0  0  0  0  0  0  0  0  0  0  0
  151.6111  144.6590  158.6488 H   0  0  0  0  0  0  0  0  0  0  0  0
  153.0194  143.8437  158.0115 H   0  0  0  0  0  0  0  0  0  0  0  0
  151.0100  143.1242  156.7724 H   0  0  0  0  0  0  0  0  0  0  0  0
  150.2099  142.6685  158.2578 H   0  0  0  0  0  0  0  0  0  0  0  0
  1  2  2  0  0  0  0
  2  3  1  0  0  0  0
  2 12  1  0  0  0  0
  3  4  1  0  0  0  0
  3 20  1  0  0  0  0
  3 21  1  0  0  0  0
  4 10  1  0  0  0  0
  4  5  1  0  0  0  0
  5  6  2  0  0  0  0
  5 22  1  0  0  0  0
  6  7  1  0  0  0  0
  6 23  1  0  0  0  0
  7  8  2  0  0  0  0
  7  9  1  0  0  0  0
  9 19  1  0  0  0  0
  9 10  1  0  0  0  0
 10 11  2  0  0  0  0
 12 13  1  0  0  0  0
 12 24  1  0  0  0  0
 13 18  1  0  0  0  0
 13 14  1  0  0  0  0
 13 25  1  0  0  0  0
 14 15  1  0  0  0  0
 14 26  1  0  0  0  0
 14 27  1  0  0  0  0
 15 16  1  0  0  0  0
 15 28  1  0  0  0  0
 15 29  1  0  0  0  0
 16 17  1  0  0  0  0
 16 30  1  0  0  0  0
 16 31  1  0  0  0  0
 17 18  1  0  0  0  0
 17 32  1  0  0  0  0
 17 33  1  0  0  0  0
 18 34  1  0  0  0  0
 18 35  1  0  0  0  0
M  END
> <s_m_source_file>
AV-unprocessed.smi

> <i_m_source_file_index>
409

> <i_lp_mmshare_version>
43012

> <i_f3d_flags>
0

> <s_epik_input>
W0NIMl0xW0NIMl1bQ0gyXVtDSDJdW0NIMl1bQ0hdMVtOSF1DKD1PKVtDSDJdbjJbY0hdW2NIXWMoPU8pW25IXWMyPU8=

> <s_epik_cmdline>
J2VwaWtfcHl0aG9uJywgJy1waCcsICc3LjAnLCAnLXRuJywgJzgnLCAnLW1hJywgJzIwMCcsICctbWV0YWxfYmluZGluZycsICctaW1hZScsICc8aW5maWxlLm1hZT4nLCAnLW9tYWUnLCAnPG91dGZpbGUubWFlPic=

> <r_lp_tautomer_probability>
0.999537

> <r_epik_Ionization_Penalty>
0.00309578

> <r_epik_Ionization_Penalty_Charging>
0.00309576

> <r_epik_Ionization_Penalty_Neutral>
1.90469e-08

> <r_epik_State_Penalty>
0.00217825

> <r_epik_Charging_Adjusted_Penalty>
0.00527401

> <i_epik_Tot_Q>
0

> <i_epik_Tot_abs_Q>
0

> <r_epik_Metal_State_Penalty>
0.362603

> <b_epik_Metal_Only>
0

> <s_lp_Force_Field>
OPLS_2005

> <r_lp_Energy>
8.21917

> <b_lp_Chiralities_Consistent>
1

> <s_lp_Variant>
AV-unprocessed.smi:409-1

> <Gold.Version>
5.8.1

> <Gold.Id.Protein>
6NUR|6NUR_protein|mol2

> <Gold.PLP.Fitness>
38.1611

> <Gold.PLP.PLP>
-28.5339

> <Gold.PLP.part.hbond>
-3.9914

> <Gold.PLP.part.metal>
0.0000

> <Gold.PLP.part.buried>
-3.4371

> <Gold.PLP.part.nonpolar>
-21.6888

> <Gold.PLP.part.repulsive>
0.2474

> <Gold.PLP.ligand.clash>
0.0000

> <Gold.PLP.ligand.torsion>
0.1764

> <Gold.PLP.Chemscore.Hbond>
3.3247

> <Gold.PLP.Chemscore.CHOScore>
0.0000

> <Gold.PLP.Chemscore.Metal>
0.0000

> <Gold.Chemscore.Hbonds>
donor molecule, donor type, donor heavy atom, donor atom, acceptor molecule, acceptor atom, score
      P1  H  6896  6908       L1     8  1.00
      P1  H  7989  7998       L1     1  0.74
      P1  H 10752 10763       L1    11  1.00

> <Gold.PLP.Chemscore.Internal.Correction>
0.0058

> <Gold.Rescore>
     Score         DG    S(hbond)    S(metal)    S(lipo)     H(rot)  DE(clash)    DE(int)     intcor
     18.08     -18.53       2.83        0.00      68.02       1.70       0.33       0.12       ----

> <Gold.Chemscore.Fitness>
18.0825

> <Gold.Chemscore.DG>
-18.5271

> <Gold.Chemscore.ZeroCoef>
-5.4800

> <Gold.Chemscore.Hbond>
2.8278

> <Gold.Chemscore.Metal>
0.0000

> <Gold.Chemscore.Lipo>
68.0192

> <Gold.Chemscore.Internal_Hbond>
0.0000

> <Gold.Chemscore.DEClash>
0.3294

> <Gold.Chemscore.DEInternal>
0.1153

> <Gold.Chemscore.Rot>
1.7015

> <Gold.Chemscore.Internal.Correction>
   9.000000E+99

> <Gold.Chemscore.Hbonds>
donor molecule, donor type, donor heavy atom, donor atom, acceptor molecule, acceptor atom, score
      P1  H  6896  6908       L1     8  0.85
      P1  H  7989  7998       L1     1  0.55
      P1  H  7997  8008       L1     1  0.03
      P1  H 10752 10763       L1    11  0.96

> <Gold.Chemscore.Hbond.Weighted>
-9.4448

> <Gold.Chemscore.Metal.Weighted>
-0.0000

> <Gold.Chemscore.Lipo.Weighted>
-7.9582

> <Gold.Chemscore.Internal_Hbond.Weighted>
0.0000

> <Gold.Chemscore.DEClash.Weighted>
0.3294

> <Gold.Chemscore.DEInternal.Weighted>
0.1153

> <Gold.Chemscore.Rot.Weighted>
4.3559

> <Gold.Chemscore.Internal.Correction.Weighted>
   9.000000E+99

> <Gold.Protein.RotatedTorsions>
[ 6907 6896 6895 6894 ] final  139.24 input  -60.11 | X-H torsion
[ 7974 7965 7964 7962 ] final -152.05 input  175.53 | X-H torsion
[ 8008 7997 7996 7995 ] final  -28.37 input   59.86 | X-H torsion
[ 10167 10162 10161 10158 ] final  128.66 input  -65.29 | X-H torsion
[ 10718 10713 10712 10709 ] final -166.08 input   66.30 | X-H torsion
[ 10763 10752 10751 10750 ] final   82.98 input  -60.55 | X-H torsion
[ 11005 11000 10999 10996 ] final   -3.52 input  -57.11 | X-H torsion

> <Gold.Protein.ActiveResidues>
 VAL166  LYS551  ARG553  GLY616  TRP617  ASP618  TYR619  PRO620  LYS621  CYS622 
 ASP623  PHE694  ASN695  SER759  ASP760  ASP761  ALA762  ILE779  LEU786  VAL792 
 PHE793  MET794  SER795  GLU796  ALA797  LYS798  CYS799  TRP800  GLU811  SER814 

> <Gold.Protein.RotatedAtoms>
  152.2572  133.5266  159.5359 H   0  0  0  0  0  0  0  0  0  0  0  0  # atno 6907 bound_to 6896
  150.7113  134.0879  159.3930 H   0  0  0  0  0  0  0  0  0  0  0  0  # atno 6908 bound_to 6896
  151.8798  135.0458  160.0538 H   0  0  0  0  0  0  0  0  0  0  0  0  # atno 6909 bound_to 6896
  144.7815  140.4714  143.5836 H   0  0  0  0  0  0  0  0  0  0  0  0  # atno 7974 bound_to 7965
  154.4335  140.1847  156.1079 H   0  0  0  0  0  0  0  0  0  0  0  0  # atno 8008 bound_to 7997
  156.0241  140.3337  155.7044 H   0  0  0  0  0  0  0  0  0  0  0  0  # atno 8009 bound_to 7997
  155.5934  140.0633  157.2743 H   0  0  0  0  0  0  0  0  0  0  0  0  # atno 8010 bound_to 7997
  139.5516  144.6817  151.4307 H   0  0  0  0  0  0  0  0  0  0  0  0  # atno 10167 bound_to 10162
  156.6627  130.9052  151.3032 H   0  0  0  0  0  0  0  0  0  0  0  0  # atno 10718 bound_to 10713
  153.1250  135.4708  154.9258 H   0  0  0  0  0  0  0  0  0  0  0  0  # atno 10763 bound_to 10752
  154.7612  135.3132  154.8377 H   0  0  0  0  0  0  0  0  0  0  0  0  # atno 10764 bound_to 10752
  153.8932  135.6882  153.4813 H   0  0  0  0  0  0  0  0  0  0  0  0  # atno 10765 bound_to 10752
  140.6702  133.9243  155.8490 H   0  0  0  0  0  0  0  0  0  0  0  0  # atno 11005 bound_to 11000
  145.6037  139.1506  143.3115 LP  0  0  0  0  0  0  0  0  0  0  0  0  # atno 17320 bound_to 7965
  146.2026  140.6156  142.9095 LP  0  0  0  0  0  0  0  0  0  0  0  0  # atno 17321 bound_to 7965
  140.6779  143.8147  150.7083 LP  0  0  0  0  0  0  0  0  0  0  0  0  # atno 17342 bound_to 10162
  140.1592  143.4290  152.2079 LP  0  0  0  0  0  0  0  0  0  0  0  0  # atno 17343 bound_to 10162
  157.7104  130.9433  150.1070 LP  0  0  0  0  0  0  0  0  0  0  0  0  # atno 17370 bound_to 10713
  156.1998  130.3659  149.8802 LP  0  0  0  0  0  0  0  0  0  0  0  0  # atno 17371 bound_to 10713
  141.0398  134.0638  157.3916 LP  0  0  0  0  0  0  0  0  0  0  0  0  # atno 17394 bound_to 11000
  139.8984  135.0154  156.7146 LP  0  0  0  0  0  0  0  0  0  0  0  0  # atno 17395 bound_to 11000

$$$$
