AV-unprocessed.smi:703|AV-procd|sdf|3432|dock1
  -GOLD-   22720 0423D 1   1.00000     0.00000
 Structure written by MMmdl.
 38 39  0  0  0  0  0  0  0  0  2 V2000
  145.1935  135.7215  151.8857 C   0  0  0  0  0  0  0  0  0  0  0  0
  145.1848  137.1031  152.5534 C   0  0  0  0  0  0  0  0  0  0  0  0
  146.5544  137.5871  152.8455 N   0  3  1  0  0  0  0  0  0  0  0  0
  146.7671  139.0410  152.6370 C   0  0  0  0  0  0  0  0  0  0  0  0
  147.3859  139.5904  153.9288 C   0  0  2  0  0  0  0  0  0  0  0  0
  148.3046  140.8094  153.7426 C   0  0  0  0  0  0  0  0  0  0  0  0
  148.0015  138.3602  154.6051 C   0  0  2  0  0  0  0  0  0  0  0  0
  149.3540  138.0728  154.1092 N   0  0  0  0  0  0  0  0  0  0  0  0
  150.5979  137.7191  155.2516 S   0  0  0  0  0  0  0  0  0  0  0  0
  150.0062  137.7793  156.5970 O   0  0  0  0  0  0  0  0  0  0  0  0
  151.2734  136.4939  154.7979 O   0  0  0  0  0  0  0  0  0  0  0  0
  151.7415  139.1492  155.0527 C   0  0  0  0  0  0  0  0  0  0  0  0
  151.8751  139.8669  156.3651 C   0  0  0  0  0  0  0  0  0  0  0  0
  151.0683  140.9170  156.8845 C   0  0  0  0  0  0  0  0  0  0  0  0
  151.6392  141.1880  158.0946 C   0  0  0  0  0  0  0  0  0  0  0  0
  152.7039  140.3747  158.3104 O   0  0  0  0  0  0  0  0  0  0  0  0
  152.8454  139.5333  157.2011 N   0  0  0  0  0  0  0  0  0  0  0  0
  147.0404  137.2412  154.2011 C   0  0  0  0  0  0  0  0  0  0  0  0
  144.1758  135.3681  151.7187 H   0  0  0  0  0  0  0  0  0  0  0  0
  145.7002  134.9853  152.5104 H   0  0  0  0  0  0  0  0  0  0  0  0
  145.6950  135.7428  150.9180 H   0  0  0  0  0  0  0  0  0  0  0  0
  144.6578  137.8279  151.9314 H   0  0  0  0  0  0  0  0  0  0  0  0
  144.6304  137.0313  153.4904 H   0  0  0  0  0  0  0  0  0  0  0  0
  147.4514  139.1621  151.7965 H   0  0  0  0  0  0  0  0  0  0  0  0
  145.8471  139.5726  152.3898 H   0  0  0  0  0  0  0  0  0  0  0  0
  146.5571  139.9089  154.5634 H   0  0  0  0  0  0  0  0  0  0  0  0
  149.1568  140.5840  153.1009 H   0  0  0  0  0  0  0  0  0  0  0  0
  148.6901  141.1577  154.7008 H   0  0  0  0  0  0  0  0  0  0  0  0
  147.7612  141.6371  153.2865 H   0  0  0  0  0  0  0  0  0  0  0  0
  148.0292  138.4711  155.6901 H   0  0  0  0  0  0  0  0  0  0  0  0
  149.3364  137.3766  153.3644 H   0  0  0  0  0  0  0  0  0  0  0  0
  152.7065  138.7779  154.7085 H   0  0  0  0  0  0  0  0  0  0  0  0
  151.3400  139.8047  154.2791 H   0  0  0  0  0  0  0  0  0  0  0  0
  150.2109  141.3985  156.4379 H   0  0  0  0  0  0  0  0  0  0  0  0
  151.4150  141.8952  158.8794 H   0  0  0  0  0  0  0  0  0  0  0  0
  146.1988  137.2316  154.8961 H   0  0  0  0  0  0  0  0  0  0  0  0
  147.4963  136.2505  154.2258 H   0  0  0  0  0  0  0  0  0  0  0  0
  147.1752  137.1190  152.2008 H   0  0  0  0  0  0  0  0  0  0  0  0
  1  2  1  0  0  0  0
  1 19  1  0  0  0  0
  1 20  1  0  0  0  0
  1 21  1  0  0  0  0
  2  3  1  0  0  0  0
  2 22  1  0  0  0  0
  2 23  1  0  0  0  0
  3 18  1  0  0  0  0
  3  4  1  0  0  0  0
  3 38  1  0  0  0  0
  4  5  1  0  0  0  0
  4 24  1  0  0  0  0
  4 25  1  0  0  0  0
  5  6  1  0  0  0  0
  5  7  1  0  0  0  0
  5 26  1  0  0  0  0
  6 27  1  0  0  0  0
  6 28  1  0  0  0  0
  6 29  1  0  0  0  0
  7  8  1  0  0  0  0
  7 18  1  0  0  0  0
  7 30  1  0  0  0  0
  8  9  1  0  0  0  0
  8 31  1  0  0  0  0
  9 10  2  0  0  0  0
  9 11  2  0  0  0  0
  9 12  1  0  0  0  0
 12 13  1  0  0  0  0
 12 32  1  0  0  0  0
 12 33  1  0  0  0  0
 13 17  2  0  0  0  0
 13 14  1  0  0  0  0
 14 15  2  0  0  0  0
 14 34  1  0  0  0  0
 15 16  1  0  0  0  0
 15 35  1  0  0  0  0
 16 17  1  0  0  0  0
 18 36  1  0  0  0  0
 18 37  1  0  0  0  0
M  CHG  1   3   1
M  END
> <s_m_source_file>
AV-unprocessed.smi

> <i_m_source_file_index>
703

> <i_lp_mmshare_version>
43012

> <i_f3d_flags>
0

> <s_epik_input>
W0NIM11bQ0gyXU4xW0NIMl1bQ0BASF0oW0NIM10pW0NASF0oW0NIMl0xKVtOSF1TKD1PKSg9TylbQ0gyXWMyW2NIXVtjSF1vbjI=

> <s_epik_cmdline>
J2VwaWtfcHl0aG9uJywgJy1waCcsICc3LjAnLCAnLXRuJywgJzgnLCAnLW1hJywgJzIwMCcsICctbWV0YWxfYmluZGluZycsICctaW1hZScsICc8aW5maWxlLm1hZT4nLCAnLW9tYWUnLCAnPG91dGZpbGUubWFlPic=

> <r_epik_Ionization_Penalty>
0.00324529

> <r_epik_Ionization_Penalty_Charging>
0.0019384

> <r_epik_Ionization_Penalty_Neutral>
0.00130689

> <r_epik_State_Penalty>
0.00218682

> <r_epik_Charging_Adjusted_Penalty>
0.00412522

> <i_epik_Tot_Q>
1

> <i_epik_Tot_abs_Q>
1

> <r_epik_Metal_State_Penalty>
0.310831

> <b_epik_Metal_Only>
0

> <s_lp_Force_Field>
OPLS_2005

> <r_lp_Energy>
21.5385

> <b_lp_Chiralities_Consistent>
1

> <s_lp_Variant>
AV-unprocessed.smi:703-7

> <Gold.Version>
5.8.1

> <Gold.Id.Protein>
6NUR|6NUR_protein|mol2

> <Gold.PLP.Fitness>
38.9105

> <Gold.PLP.PLP>
-27.0010

> <Gold.PLP.part.hbond>
-4.6923

> <Gold.PLP.part.metal>
0.0000

> <Gold.PLP.part.buried>
-0.8602

> <Gold.PLP.part.nonpolar>
-22.4924

> <Gold.PLP.part.repulsive>
0.1921

> <Gold.PLP.ligand.clash>
0.0000

> <Gold.PLP.ligand.torsion>
1.6407

> <Gold.PLP.Chemscore.Hbond>
4.9840

> <Gold.PLP.Chemscore.CHOScore>
0.0000

> <Gold.PLP.Chemscore.Metal>
0.0000

> <Gold.Chemscore.Hbonds>
donor molecule, donor type, donor heavy atom, donor atom, acceptor molecule, acceptor atom, score
      L1  H     3    38       P1  7948  1.98
      L1  H     8    31       P1  7948  1.00
      P1  H  7997  8010       L1    17  1.00
      P1  H 10752 10764       L1    11  1.00

> <Gold.PLP.Chemscore.Internal.Correction>
0.2389

> <Gold.Rescore>
     Score         DG    S(hbond)    S(metal)    S(lipo)     H(rot)  DE(clash)    DE(int)     intcor
     18.43     -19.85       3.82        0.00      56.20       1.94       0.04       1.38       ----

> <Gold.Chemscore.Fitness>
18.4345

> <Gold.Chemscore.DG>
-19.8512

> <Gold.Chemscore.ZeroCoef>
-5.4800

> <Gold.Chemscore.Hbond>
3.8211

> <Gold.Chemscore.Metal>
0.0000

> <Gold.Chemscore.Lipo>
56.1979

> <Gold.Chemscore.Internal_Hbond>
0.0000

> <Gold.Chemscore.DEClash>
0.0371

> <Gold.Chemscore.DEInternal>
1.3797

> <Gold.Chemscore.Rot>
1.9400

> <Gold.Chemscore.Internal.Correction>
   9.000000E+99

> <Gold.Chemscore.Hbonds>
donor molecule, donor type, donor heavy atom, donor atom, acceptor molecule, acceptor atom, score
      L1  H     3    38       P1  7948  0.91
      L1  H     8    31       P1  7948  0.97
      P1  H  7997  8010       L1    17  0.19
      P1  H 10752 10764       L1    11  0.99

> <Gold.Chemscore.Hbond.Weighted>
-12.7626

> <Gold.Chemscore.Metal.Weighted>
-0.0000

> <Gold.Chemscore.Lipo.Weighted>
-6.5752

> <Gold.Chemscore.Internal_Hbond.Weighted>
0.0000

> <Gold.Chemscore.DEClash.Weighted>
0.0371

> <Gold.Chemscore.DEInternal.Weighted>
1.3797

> <Gold.Chemscore.Rot.Weighted>
4.9665

> <Gold.Chemscore.Internal.Correction.Weighted>
   9.000000E+99

> <Gold.Protein.RotatedTorsions>
[ 6907 6896 6895 6894 ] final  159.22 input  -60.11 | X-H torsion
[ 7974 7965 7964 7962 ] final  114.87 input  175.53 | X-H torsion
[ 8008 7997 7996 7995 ] final   62.33 input   59.86 | X-H torsion
[ 10167 10162 10161 10158 ] final -173.13 input  -65.29 | X-H torsion
[ 10718 10713 10712 10709 ] final   27.88 input   66.30 | X-H torsion
[ 10763 10752 10751 10750 ] final  -52.97 input  -60.55 | X-H torsion
[ 11005 11000 10999 10996 ] final  -24.75 input  -57.11 | X-H torsion

> <Gold.Protein.ActiveResidues>
 VAL166  LYS551  ARG553  GLY616  TRP617  ASP618  TYR619  PRO620  LYS621  CYS622 
 ASP623  PHE694  ASN695  SER759  ASP760  ASP761  ALA762  ILE779  LEU786  VAL792 
 PHE793  MET794  SER795  GLU796  ALA797  LYS798  CYS799  TRP800  GLU811  SER814 

> <Gold.Protein.RotatedAtoms>
  151.9888  133.3783  159.4136 H   0  0  0  0  0  0  0  0  0  0  0  0  # atno 6907 bound_to 6896
  150.6924  134.3959  159.5106 H   0  0  0  0  0  0  0  0  0  0  0  0  # atno 6908 bound_to 6896
  152.1689  134.8850  160.0586 H   0  0  0  0  0  0  0  0  0  0  0  0  # atno 6909 bound_to 6896
  145.1991  139.2961  143.4328 H   0  0  0  0  0  0  0  0  0  0  0  0  # atno 7974 bound_to 7965
  155.6126  140.3495  155.4627 H   0  0  0  0  0  0  0  0  0  0  0  0  # atno 8008 bound_to 7997
  156.0142  140.1240  157.0447 H   0  0  0  0  0  0  0  0  0  0  0  0  # atno 8009 bound_to 7997
  154.4292  140.1075  156.5859 H   0  0  0  0  0  0  0  0  0  0  0  0  # atno 8010 bound_to 7997
  139.5706  144.1651  152.1377 H   0  0  0  0  0  0  0  0  0  0  0  0  # atno 10167 bound_to 10162
  157.2260  130.7001  149.6292 H   0  0  0  0  0  0  0  0  0  0  0  0  # atno 10718 bound_to 10713
  154.1513  135.6489  153.4964 H   0  0  0  0  0  0  0  0  0  0  0  0  # atno 10763 bound_to 10752
  153.0137  135.5339  154.6805 H   0  0  0  0  0  0  0  0  0  0  0  0  # atno 10764 bound_to 10752
  154.6093  135.2952  155.0421 H   0  0  0  0  0  0  0  0  0  0  0  0  # atno 10765 bound_to 10752
  140.8874  133.7611  156.0378 H   0  0  0  0  0  0  0  0  0  0  0  0  # atno 11005 bound_to 11000
  146.3421  140.2229  142.8592 LP  0  0  0  0  0  0  0  0  0  0  0  0  # atno 17320 bound_to 7965
  144.9965  140.8594  143.5307 LP  0  0  0  0  0  0  0  0  0  0  0  0  # atno 17321 bound_to 7965
  140.1183  144.5395  150.6879 LP  0  0  0  0  0  0  0  0  0  0  0  0  # atno 17342 bound_to 10162
  140.6990  143.2422  151.4919 LP  0  0  0  0  0  0  0  0  0  0  0  0  # atno 17343 bound_to 10162
  155.9678  130.4504  150.5696 LP  0  0  0  0  0  0  0  0  0  0  0  0  # atno 17370 bound_to 10713
  157.3527  131.0736  151.1700 LP  0  0  0  0  0  0  0  0  0  0  0  0  # atno 17371 bound_to 10713
  140.8388  134.3091  157.5321 LP  0  0  0  0  0  0  0  0  0  0  0  0  # atno 17394 bound_to 11000
  139.8726  134.9404  156.3769 LP  0  0  0  0  0  0  0  0  0  0  0  0  # atno 17395 bound_to 11000

$$$$
