AV-unprocessed.smi:290|AV-procd|sdf|2229|dock6
  -GOLD-   2262022 83D 1   1.00000     0.00000
 Structure written by MMmdl.
 59 62  0  0  0  0  0  0  0  0  2 V2000
  152.4970  140.3845  159.4146 C   0  0  0  0  0  0  0  0  0  0  0  0
  152.7880  141.6565  158.5990 C   0  0  2  0  0  0  0  0  0  0  0  0
  153.5584  142.5737  159.3743 O   0  0  0  0  0  0  0  0  0  0  0  0
  152.8582  143.8001  159.5155 C   0  0  0  0  0  0  0  0  0  0  0  0
  152.0024  143.8838  158.2589 C   0  0  0  0  0  0  0  0  0  0  0  0
  151.5633  142.4405  158.0616 C   0  0  2  0  0  0  0  0  0  0  0  0
  150.4189  142.2157  158.8702 O   0  0  0  0  0  0  0  0  0  0  0  0
  151.1924  142.1296  156.5916 C   0  0  0  0  0  0  0  0  0  0  0  0
  150.6938  140.7772  156.3951 N   0  0  0  0  0  0  0  0  0  0  0  0
  149.4344  140.3104  156.6961 C   0  0  0  0  0  0  0  0  0  0  0  0
  149.2324  139.0478  156.4361 N   0  0  0  0  0  0  0  0  0  0  0  0
  150.4429  138.6090  155.9117 C   0  0  0  0  0  0  0  0  0  0  0  0
  150.9193  137.3569  155.4266 C   0  0  0  0  0  0  0  0  0  0  0  0
  150.1596  136.2294  155.4193 N   0  0  0  0  0  0  0  0  0  0  0  0
  150.8678  134.9566  155.3009 C   0  0  0  0  0  0  0  0  0  0  0  0
  149.9815  134.0405  154.4507 C   0  0  0  0  0  0  0  0  0  0  0  0
  148.5902  134.6609  154.6160 C   0  0  2  0  0  0  0  0  0  0  0  0
  147.5821  134.2831  153.5845 N   0  3  2  0  0  0  0  0  0  0  0  0
  146.2396  134.8289  153.8954 C   0  0  0  0  0  0  0  0  0  0  0  0
  147.5435  132.8407  153.2184 C   0  0  0  0  0  0  0  0  0  0  0  0
  146.8014  132.6086  151.8928 C   0  0  0  0  0  0  0  0  0  0  0  0
  146.8264  131.2365  151.5591 O   0  0  0  0  0  0  0  0  0  0  0  0
  148.8895  136.1644  154.6967 C   0  0  1  0  0  0  0  0  0  0  0  0
  147.7708  136.9613  155.3917 C   0  0  0  0  0  0  0  0  0  0  0  0
  152.1968  137.3157  154.9627 N   0  0  0  0  0  0  0  0  0  0  0  0
  152.9584  138.4133  154.9744 C   0  0  0  0  0  0  0  0  0  0  0  0
  152.6486  139.6380  155.4014 N   0  0  0  0  0  0  0  0  0  0  0  0
  151.3681  139.6904  155.8663 C   0  0  0  0  0  0  0  0  0  0  0  0
  148.2073  134.3565  155.5924 H   0  0  0  0  0  0  0  0  0  0  0  0
  149.0463  136.5706  153.6984 H   0  0  0  0  0  0  0  0  0  0  0  0
  151.9066  139.6704  158.8411 H   0  0  0  0  0  0  0  0  0  0  0  0
  151.9539  140.6117  160.3322 H   0  0  0  0  0  0  0  0  0  0  0  0
  153.4254  139.8898  159.6998 H   0  0  0  0  0  0  0  0  0  0  0  0
  153.4295  141.3852  157.7604 H   0  0  0  0  0  0  0  0  0  0  0  0
  152.2325  143.7550  160.4080 H   0  0  0  0  0  0  0  0  0  0  0  0
  153.5419  144.6429  159.6186 H   0  0  0  0  0  0  0  0  0  0  0  0
  151.1744  144.5883  158.3497 H   0  0  0  0  0  0  0  0  0  0  0  0
  152.6259  144.2083  157.4245 H   0  0  0  0  0  0  0  0  0  0  0  0
  149.7984  141.7026  158.3758 H   0  0  0  0  0  0  0  0  0  0  0  0
  150.4362  142.8298  156.2339 H   0  0  0  0  0  0  0  0  0  0  0  0
  152.0616  142.2679  155.9474 H   0  0  0  0  0  0  0  0  0  0  0  0
  148.6668  140.9383  157.1247 H   0  0  0  0  0  0  0  0  0  0  0  0
  151.8565  135.0688  154.8530 H   0  0  0  0  0  0  0  0  0  0  0  0
  150.9965  134.5385  156.2997 H   0  0  0  0  0  0  0  0  0  0  0  0
  150.3234  134.0836  153.4168 H   0  0  0  0  0  0  0  0  0  0  0  0
  150.0248  132.9998  154.7731 H   0  0  0  0  0  0  0  0  0  0  0  0
  145.8417  134.3901  154.8111 H   0  0  0  0  0  0  0  0  0  0  0  0
  145.5333  134.6299  153.0903 H   0  0  0  0  0  0  0  0  0  0  0  0
  146.2822  135.9104  154.0271 H   0  0  0  0  0  0  0  0  0  0  0  0
  148.5446  132.4221  153.1237 H   0  0  0  0  0  0  0  0  0  0  0  0
  147.0624  132.2775  154.0195 H   0  0  0  0  0  0  0  0  0  0  0  0
  145.7606  132.9187  151.9881 H   0  0  0  0  0  0  0  0  0  0  0  0
  147.2322  133.1909  151.0787 H   0  0  0  0  0  0  0  0  0  0  0  0
  147.5076  131.0911  150.9198 H   0  0  0  0  0  0  0  0  0  0  0  0
  146.8305  136.8650  154.8487 H   0  0  0  0  0  0  0  0  0  0  0  0
  148.0049  138.0243  155.4475 H   0  0  0  0  0  0  0  0  0  0  0  0
  147.6048  136.6069  156.4096 H   0  0  0  0  0  0  0  0  0  0  0  0
  153.9598  138.2922  154.5879 H   0  0  0  0  0  0  0  0  0  0  0  0
  147.8825  134.7615  152.7469 H   0  0  0  0  0  0  0  0  0  0  0  0
  1  2  1  0  0  0  0
  1 31  1  0  0  0  0
  1 32  1  0  0  0  0
  1 33  1  0  0  0  0
  2  6  1  0  0  0  0
  2  3  1  0  0  0  0
  2 34  1  0  0  0  0
  3  4  1  0  0  0  0
  4  5  1  0  0  0  0
  4 35  1  0  0  0  0
  4 36  1  0  0  0  0
  5  6  1  0  0  0  0
  5 37  1  0  0  0  0
  5 38  1  0  0  0  0
  6  7  1  0  0  0  0
  6  8  1  0  0  0  0
  7 39  1  0  0  0  0
  8  9  1  0  0  0  0
  8 40  1  0  0  0  0
  8 41  1  0  0  0  0
  9 28  1  0  0  0  0
  9 10  1  0  0  0  0
 10 11  2  0  0  0  0
 10 42  1  0  0  0  0
 11 12  1  0  0  0  0
 12 28  2  0  0  0  0
 12 13  1  0  0  0  0
 13 14  1  0  0  0  0
 13 25  2  0  0  0  0
 14 23  1  0  0  0  0
 14 15  1  0  0  0  0
 15 16  1  0  0  0  0
 15 43  1  0  0  0  0
 15 44  1  0  0  0  0
 16 17  1  0  0  0  0
 16 45  1  0  0  0  0
 16 46  1  0  0  0  0
 17 29  1  0  0  0  0
 17 18  1  0  0  0  0
 17 23  1  0  0  0  0
 18 19  1  0  0  0  0
 18 20  1  0  0  0  0
 18 59  1  0  0  0  0
 19 47  1  0  0  0  0
 19 48  1  0  0  0  0
 19 49  1  0  0  0  0
 20 21  1  0  0  0  0
 20 50  1  0  0  0  0
 20 51  1  0  0  0  0
 21 22  1  0  0  0  0
 21 52  1  0  0  0  0
 21 53  1  0  0  0  0
 22 54  1  0  0  0  0
 23 30  1  0  0  0  0
 23 24  1  0  0  0  0
 24 55  1  0  0  0  0
 24 56  1  0  0  0  0
 24 57  1  0  0  0  0
 25 26  1  0  0  0  0
 26 27  2  0  0  0  0
 26 58  1  0  0  0  0
 27 28  1  0  0  0  0
M  CHG  1  18   1
M  END
> <s_m_source_file>
AV-unprocessed.smi

> <i_m_source_file_index>
290

> <i_lp_mmshare_version>
43012

> <i_f3d_flags>
0

> <s_epik_input>
W0NIMl0xW0NIMl1PW0NAQEhdKFtDSDNdKVtDQEBdMShbT0hdKVtDSDJdbihbY0hdbjIpYyhjMjMpbltjSF1uYzNONFtDSDJdW0NIMl1bQ0BIXShbQ0BIXTRbQ0gzXSlOKFtDSDNdKVtDSDJdW0NIMl1bT0hd

> <s_epik_cmdline>
J2VwaWtfcHl0aG9uJywgJy1waCcsICc3LjAnLCAnLXRuJywgJzgnLCAnLW1hJywgJzIwMCcsICctbWV0YWxfYmluZGluZycsICctaW1hZScsICc8aW5maWxlLm1hZT4nLCAnLW9tYWUnLCAnPG91dGZpbGUubWFlPic=

> <r_lp_tautomer_probability>
1

> <r_epik_Ionization_Penalty>
0.0036983

> <r_epik_Ionization_Penalty_Charging>
0.0032725

> <r_epik_Ionization_Penalty_Neutral>
0.000425798

> <r_epik_State_Penalty>
-0

> <r_epik_Charging_Adjusted_Penalty>
0.0032725

> <i_epik_Tot_Q>
1

> <i_epik_Tot_abs_Q>
1

> <r_epik_Metal_State_Penalty>
-0

> <b_epik_Metal_Only>
0

> <s_lp_Force_Field>
OPLS_2005

> <r_lp_Energy>
60.087

> <b_lp_Chiralities_Consistent>
1

> <s_lp_Variant>
AV-unprocessed.smi:290-15

> <Gold.Version>
5.8.1

> <Gold.Id.Protein>
6NUR|6NUR_protein|mol2

> <Gold.PLP.Fitness>
54.5871

> <Gold.PLP.PLP>
-41.3361

> <Gold.PLP.part.hbond>
-4.7882

> <Gold.PLP.part.metal>
0.0000

> <Gold.PLP.part.buried>
-4.9234

> <Gold.PLP.part.nonpolar>
-32.7348

> <Gold.PLP.part.repulsive>
0.1833

> <Gold.PLP.ligand.clash>
0.0000

> <Gold.PLP.ligand.torsion>
0.7315

> <Gold.PLP.Chemscore.Hbond>
4.7320

> <Gold.PLP.Chemscore.CHOScore>
0.0000

> <Gold.PLP.Chemscore.Metal>
0.0000

> <Gold.Chemscore.Hbonds>
donor molecule, donor type, donor heavy atom, donor atom, acceptor molecule, acceptor atom, score
      L1  H    18    59       P1  7948  2.00
      L1  H    22    54       P1 10747  1.00
      P1  H  7997  8009       L1    27  1.00
      P1  H 10752 10763       L1    25  0.75

> <Gold.PLP.Chemscore.Internal.Correction>
0.5180

> <Gold.Rescore>
     Score         DG    S(hbond)    S(metal)    S(lipo)     H(rot)  DE(clash)    DE(int)     intcor
     13.68     -17.37       3.12        0.00      92.79       3.67       0.42       3.28       ----

> <Gold.Chemscore.Fitness>
13.6813

> <Gold.Chemscore.DG>
-17.3731

> <Gold.Chemscore.ZeroCoef>
-5.4800

> <Gold.Chemscore.Hbond>
3.1201

> <Gold.Chemscore.Metal>
0.0000

> <Gold.Chemscore.Lipo>
92.7888

> <Gold.Chemscore.Internal_Hbond>
0.0000

> <Gold.Chemscore.DEClash>
0.4164

> <Gold.Chemscore.DEInternal>
3.2754

> <Gold.Chemscore.Rot>
3.6658

> <Gold.Chemscore.Internal.Correction>
   9.000000E+99

> <Gold.Chemscore.Hbonds>
donor molecule, donor type, donor heavy atom, donor atom, acceptor molecule, acceptor atom, score
      L1  H    18    59       P1  7948  0.79
      L1  H    22    54       P1 10747  0.99
      P1  H  7997  8009       L1    27  0.24
      P1  H 10752 10763       L1    25  0.71

> <Gold.Chemscore.Hbond.Weighted>
-10.4212

> <Gold.Chemscore.Metal.Weighted>
-0.0000

> <Gold.Chemscore.Lipo.Weighted>
-10.8563

> <Gold.Chemscore.Internal_Hbond.Weighted>
0.0000

> <Gold.Chemscore.DEClash.Weighted>
0.4164

> <Gold.Chemscore.DEInternal.Weighted>
3.2754

> <Gold.Chemscore.Rot.Weighted>
9.3844

> <Gold.Chemscore.Internal.Correction.Weighted>
   9.000000E+99

> <Gold.Protein.RotatedTorsions>
[ 6907 6896 6895 6894 ] final   24.73 input  -60.11 | X-H torsion
[ 7974 7965 7964 7962 ] final  135.61 input  175.53 | X-H torsion
[ 8008 7997 7996 7995 ] final -164.76 input   59.86 | X-H torsion
[ 10167 10162 10161 10158 ] final -135.88 input  -65.29 | X-H torsion
[ 10718 10713 10712 10709 ] final -164.70 input   66.30 | X-H torsion
[ 10763 10752 10751 10750 ] final   64.16 input  -60.55 | X-H torsion
[ 11005 11000 10999 10996 ] final  -15.67 input  -57.11 | X-H torsion

> <Gold.Protein.ActiveResidues>
 VAL166  LYS551  ARG553  GLY616  TRP617  ASP618  TYR619  PRO620  LYS621  CYS622 
 ASP623  PHE694  ASN695  SER759  ASP760  ASP761  ALA762  ILE779  LEU786  VAL792 
 PHE793  MET794  SER795  GLU796  ALA797  LYS798  CYS799  TRP800  GLU811  SER814 

> <Gold.Protein.RotatedAtoms>
  151.9618  135.0119  160.0547 H   0  0  0  0  0  0  0  0  0  0  0  0  # atno 6907 bound_to 6896
  152.1861  133.4736  159.4992 H   0  0  0  0  0  0  0  0  0  0  0  0  # atno 6908 bound_to 6896
  150.6926  134.1689  159.4247 H   0  0  0  0  0  0  0  0  0  0  0  0  # atno 6909 bound_to 6896
  144.9647  139.4671  143.5462 H   0  0  0  0  0  0  0  0  0  0  0  0  # atno 7974 bound_to 7965
  155.8402  140.0947  157.1739 H   0  0  0  0  0  0  0  0  0  0  0  0  # atno 8008 bound_to 7997
  154.3981  140.1402  156.3780 H   0  0  0  0  0  0  0  0  0  0  0  0  # atno 8009 bound_to 7997
  155.8073  140.3451  155.5439 H   0  0  0  0  0  0  0  0  0  0  0  0  # atno 8010 bound_to 7997
  139.8735  143.6928  152.2637 H   0  0  0  0  0  0  0  0  0  0  0  0  # atno 10167 bound_to 10162
  156.6428  130.8976  151.2999 H   0  0  0  0  0  0  0  0  0  0  0  0  # atno 10718 bound_to 10713
  153.0045  135.5403  154.6466 H   0  0  0  0  0  0  0  0  0  0  0  0  # atno 10763 bound_to 10752
  154.5708  135.2841  155.0831 H   0  0  0  0  0  0  0  0  0  0  0  0  # atno 10764 bound_to 10752
  154.1997  135.6486  153.5136 H   0  0  0  0  0  0  0  0  0  0  0  0  # atno 10765 bound_to 10752
  140.7990  133.8229  155.9451 H   0  0  0  0  0  0  0  0  0  0  0  0  # atno 11005 bound_to 11000
  146.3364  139.8819  142.8823 LP  0  0  0  0  0  0  0  0  0  0  0  0  # atno 17320 bound_to 7965
  145.2648  141.0089  143.3806 LP  0  0  0  0  0  0  0  0  0  0  0  0  # atno 17321 bound_to 7965
  139.7262  144.7592  151.0875 LP  0  0  0  0  0  0  0  0  0  0  0  0  # atno 17342 bound_to 10162
  140.7757  143.5145  150.9612 LP  0  0  0  0  0  0  0  0  0  0  0  0  # atno 17343 bound_to 10162
  157.7165  130.9504  150.1277 LP  0  0  0  0  0  0  0  0  0  0  0  0  # atno 17370 bound_to 10713
  156.2145  130.3669  149.8630 LP  0  0  0  0  0  0  0  0  0  0  0  0  # atno 17371 bound_to 10713
  140.9314  134.2017  157.4861 LP  0  0  0  0  0  0  0  0  0  0  0  0  # atno 17394 bound_to 11000
  139.8723  134.9834  156.5197 LP  0  0  0  0  0  0  0  0  0  0  0  0  # atno 17395 bound_to 11000

$$$$
