AV-unprocessed.smi:308|AV-procd|sdf|2287|dock5
  -GOLD-   2262022183D 1   1.00000     0.00000
 Structure written by MMmdl.
 50 51  0  0  0  0  0  0  0  0  2 V2000
  144.8849  133.5642  150.5896 C   0  0  0  0  0  0  0  0  0  0  0  0
  145.0274  134.7724  151.5254 C   0  0  2  0  0  0  0  0  0  0  0  0
  145.6124  135.9938  150.7969 C   0  0  0  0  0  0  0  0  0  0  0  0
  145.7763  137.1878  151.7525 C   0  0  0  0  0  0  0  0  0  0  0  0
  146.6182  136.8304  152.9231 N   0  3  1  0  0  0  0  0  0  0  0  0
  146.8948  138.0018  153.7941 C   0  0  0  0  0  0  0  0  0  0  0  0
  147.7615  139.0825  153.1119 C   0  0  0  0  0  0  0  0  0  0  0  0
  149.0171  139.3384  153.8135 N   0  0  0  0  0  0  0  0  0  0  0  0
  149.1564  140.1563  154.8665 C   0  0  0  0  0  0  0  0  0  0  0  0
  148.2252  140.8034  155.3430 O   0  0  0  0  0  0  0  0  0  0  0  0
  150.4253  140.1618  155.3097 N   0  0  0  0  0  0  0  0  0  0  0  0
  150.9994  140.8767  156.3972 C   0  0  0  0  0  0  0  0  0  0  0  0
  151.9517  140.3538  157.3034 C   0  0  0  0  0  0  0  0  0  0  0  0
  152.4339  141.1764  158.3397 C   0  0  0  0  0  0  0  0  0  0  0  0
  151.9530  142.5041  158.4564 C   0  0  0  0  0  0  0  0  0  0  0  0
  152.4082  143.3674  159.4792 N   0  0  0  0  0  0  0  0  0  0  0  0
  153.0187  142.8104  160.6820 C   0  0  0  0  0  0  0  0  0  0  0  0
  152.1711  144.8025  159.3850 C   0  0  0  0  0  0  0  0  0  0  0  0
  151.0331  142.9954  157.5909 N   0  0  0  0  0  0  0  0  0  0  0  0
  150.5758  142.2051  156.5984 C   0  0  0  0  0  0  0  0  0  0  0  0
  146.0609  135.6690  153.6649 C   0  0  0  0  0  0  0  0  0  0  0  0
  145.9036  134.4460  152.7459 C   0  0  0  0  0  0  0  0  0  0  0  0
  145.8519  133.2493  150.1962 H   0  0  0  0  0  0  0  0  0  0  0  0
  144.2407  133.7980  149.7417 H   0  0  0  0  0  0  0  0  0  0  0  0
  144.4452  132.7140  151.1118 H   0  0  0  0  0  0  0  0  0  0  0  0
  144.0298  135.0342  151.8821 H   0  0  0  0  0  0  0  0  0  0  0  0
  146.5806  135.7391  150.3630 H   0  0  0  0  0  0  0  0  0  0  0  0
  144.9671  136.2773  149.9647 H   0  0  0  0  0  0  0  0  0  0  0  0
  146.2333  138.0169  151.2105 H   0  0  0  0  0  0  0  0  0  0  0  0
  144.7998  137.5324  152.0968 H   0  0  0  0  0  0  0  0  0  0  0  0
  145.9461  138.4606  154.0755 H   0  0  0  0  0  0  0  0  0  0  0  0
  147.3569  137.6740  154.7262 H   0  0  0  0  0  0  0  0  0  0  0  0
  147.9683  138.7972  152.0792 H   0  0  0  0  0  0  0  0  0  0  0  0
  147.2143  140.0231  153.0556 H   0  0  0  0  0  0  0  0  0  0  0  0
  149.8315  138.8349  153.4921 H   0  0  0  0  0  0  0  0  0  0  0  0
  151.0613  139.5450  154.8256 H   0  0  0  0  0  0  0  0  0  0  0  0
  152.3224  139.3438  157.2386 H   0  0  0  0  0  0  0  0  0  0  0  0
  153.1599  140.7696  159.0272 H   0  0  0  0  0  0  0  0  0  0  0  0
  152.3000  142.1980  161.2272 H   0  0  0  0  0  0  0  0  0  0  0  0
  153.3661  143.5968  161.3521 H   0  0  0  0  0  0  0  0  0  0  0  0
  153.8786  142.1909  160.4253 H   0  0  0  0  0  0  0  0  0  0  0  0
  152.7123  145.2253  158.5381 H   0  0  0  0  0  0  0  0  0  0  0  0
  152.5043  145.3195  160.2852 H   0  0  0  0  0  0  0  0  0  0  0  0
  151.1077  145.0089  159.2591 H   0  0  0  0  0  0  0  0  0  0  0  0
  149.8454  142.6531  155.9403 H   0  0  0  0  0  0  0  0  0  0  0  0
  146.7156  135.4031  154.4942 H   0  0  0  0  0  0  0  0  0  0  0  0
  145.0963  135.9398  154.0977 H   0  0  0  0  0  0  0  0  0  0  0  0
  145.4679  133.6189  153.3078 H   0  0  0  0  0  0  0  0  0  0  0  0
  146.8881  134.1100  152.4162 H   0  0  0  0  0  0  0  0  0  0  0  0
  147.5105  136.5404  152.5487 H   0  0  0  0  0  0  0  0  0  0  0  0
  1  2  1  0  0  0  0
  1 23  1  0  0  0  0
  1 24  1  0  0  0  0
  1 25  1  0  0  0  0
  2 22  1  0  0  0  0
  2  3  1  0  0  0  0
  2 26  1  0  0  0  0
  3  4  1  0  0  0  0
  3 27  1  0  0  0  0
  3 28  1  0  0  0  0
  4  5  1  0  0  0  0
  4 29  1  0  0  0  0
  4 30  1  0  0  0  0
  5  6  1  0  0  0  0
  5 21  1  0  0  0  0
  5 50  1  0  0  0  0
  6  7  1  0  0  0  0
  6 31  1  0  0  0  0
  6 32  1  0  0  0  0
  7  8  1  0  0  0  0
  7 33  1  0  0  0  0
  7 34  1  0  0  0  0
  8  9  1  0  0  0  0
  8 35  1  0  0  0  0
  9 10  2  0  0  0  0
  9 11  1  0  0  0  0
 11 12  1  0  0  0  0
 11 36  1  0  0  0  0
 12 20  1  0  0  0  0
 12 13  2  0  0  0  0
 13 14  1  0  0  0  0
 13 37  1  0  0  0  0
 14 15  2  0  0  0  0
 14 38  1  0  0  0  0
 15 16  1  0  0  0  0
 15 19  1  0  0  0  0
 16 17  1  0  0  0  0
 16 18  1  0  0  0  0
 17 39  1  0  0  0  0
 17 40  1  0  0  0  0
 17 41  1  0  0  0  0
 18 42  1  0  0  0  0
 18 43  1  0  0  0  0
 18 44  1  0  0  0  0
 19 20  2  0  0  0  0
 20 45  1  0  0  0  0
 21 22  1  0  0  0  0
 21 46  1  0  0  0  0
 21 47  1  0  0  0  0
 22 48  1  0  0  0  0
 22 49  1  0  0  0  0
M  CHG  1   5   1
M  END
> <s_m_source_file>
AV-unprocessed.smi

> <i_m_source_file_index>
308

> <i_lp_mmshare_version>
43012

> <i_f3d_flags>
0

> <s_epik_input>
W0NIM11bQ0hdMVtDSDJdW0NIMl1OKFtDSDJdW0NIMl0xKVtDSDJdW0NIMl1bTkhdQyg9TylbTkhdYzJbY0hdW2NIXWMoTihbQ0gzXSlbQ0gzXSluW2NIXTI=

> <s_epik_cmdline>
J2VwaWtfcHl0aG9uJywgJy1waCcsICc3LjAnLCAnLXRuJywgJzgnLCAnLW1hJywgJzIwMCcsICctbWV0YWxfYmluZGluZycsICctaW1hZScsICc8aW5maWxlLm1hZT4nLCAnLW9tYWUnLCAnPG91dGZpbGUubWFlPic=

> <r_lp_tautomer_probability>
1

> <r_epik_Ionization_Penalty>
0.536661

> <r_epik_Ionization_Penalty_Charging>
0.00139388

> <r_epik_Ionization_Penalty_Neutral>
0.535267

> <r_epik_State_Penalty>
0.543381

> <r_epik_Charging_Adjusted_Penalty>
0.544775

> <i_epik_Tot_Q>
1

> <i_epik_Tot_abs_Q>
1

> <r_epik_Metal_State_Penalty>
0.284523

> <b_epik_Metal_Only>
0

> <s_lp_Force_Field>
OPLS_2005

> <r_lp_Energy>
27.2838

> <b_lp_Chiralities_Consistent>
1

> <s_lp_Variant>
AV-unprocessed.smi:308-3

> <Gold.Version>
5.8.1

> <Gold.Id.Protein>
6NUR|6NUR_protein|mol2

> <Gold.PLP.Fitness>
46.4142

> <Gold.PLP.PLP>
-39.4869

> <Gold.PLP.part.hbond>
-2.0000

> <Gold.PLP.part.metal>
0.0000

> <Gold.PLP.part.buried>
-2.0087

> <Gold.PLP.part.nonpolar>
-35.9835

> <Gold.PLP.part.repulsive>
0.4276

> <Gold.PLP.ligand.clash>
0.0000

> <Gold.PLP.ligand.torsion>
1.0558

> <Gold.PLP.Chemscore.Hbond>
2.0000

> <Gold.PLP.Chemscore.CHOScore>
1.0000

> <Gold.PLP.Chemscore.Metal>
0.0000

> <Gold.Chemscore.Hbonds>
donor molecule, donor type, donor heavy atom, donor atom, acceptor molecule, acceptor atom, score
      L1  H     5    50       P1  7948  2.00
      L1  C    20    45       P1  8028  1.00

> <Gold.PLP.Chemscore.Internal.Correction>
0.0388

> <Gold.Rescore>
     Score         DG    S(hbond)    S(metal)    S(lipo)     H(rot)  DE(clash)    DE(int)     intcor
     13.61     -15.78       1.00        0.00      90.70       1.42       0.13       2.04       ----

> <Gold.Chemscore.Fitness>
13.6107

> <Gold.Chemscore.DG>
-15.7836

> <Gold.Chemscore.ZeroCoef>
-5.4800

> <Gold.Chemscore.Hbond>
0.9992

> <Gold.Chemscore.Metal>
0.0000

> <Gold.Chemscore.Lipo>
90.6990

> <Gold.Chemscore.Internal_Hbond>
0.0000

> <Gold.Chemscore.DEClash>
0.1314

> <Gold.Chemscore.DEInternal>
2.0414

> <Gold.Chemscore.Rot>
1.4241

> <Gold.Chemscore.Internal.Correction>
   9.000000E+99

> <Gold.Chemscore.Hbonds>
donor molecule, donor type, donor heavy atom, donor atom, acceptor molecule, acceptor atom, score
      L1  H     5    50       P1  7948  0.99

> <Gold.Chemscore.Hbond.Weighted>
-3.3374

> <Gold.Chemscore.Metal.Weighted>
-0.0000

> <Gold.Chemscore.Lipo.Weighted>
-10.6118

> <Gold.Chemscore.Internal_Hbond.Weighted>
0.0000

> <Gold.Chemscore.DEClash.Weighted>
0.1314

> <Gold.Chemscore.DEInternal.Weighted>
2.0414

> <Gold.Chemscore.Rot.Weighted>
3.6456

> <Gold.Chemscore.Internal.Correction.Weighted>
   9.000000E+99

> <Gold.Protein.RotatedTorsions>
[ 6907 6896 6895 6894 ] final   50.04 input  -60.11 | X-H torsion
[ 7974 7965 7964 7962 ] final  145.05 input  175.53 | X-H torsion
[ 8008 7997 7996 7995 ] final   49.18 input   59.86 | X-H torsion
[ 10167 10162 10161 10158 ] final  -39.42 input  -65.29 | X-H torsion
[ 10718 10713 10712 10709 ] final  -66.54 input   66.30 | X-H torsion
[ 10763 10752 10751 10750 ] final   81.09 input  -60.55 | X-H torsion
[ 11005 11000 10999 10996 ] final   28.88 input  -57.11 | X-H torsion

> <Gold.Protein.ActiveResidues>
 VAL166  LYS551  ARG553  GLY616  TRP617  ASP618  TYR619  PRO620  LYS621  CYS622 
 ASP623  PHE694  ASN695  SER759  ASP760  ASP761  ALA762  ILE779  LEU786  VAL792 
 PHE793  MET794  SER795  GLU796  ALA797  LYS798  CYS799  TRP800  GLU811  SER814 

> <Gold.Protein.RotatedAtoms>
  152.2974  134.7651  160.0364 H   0  0  0  0  0  0  0  0  0  0  0  0  # atno 6907 bound_to 6896
  151.8176  133.3385  159.3582 H   0  0  0  0  0  0  0  0  0  0  0  0  # atno 6908 bound_to 6896
  150.7258  134.5534  159.5850 H   0  0  0  0  0  0  0  0  0  0  0  0  # atno 6909 bound_to 6896
  144.8784  139.5736  143.5854 H   0  0  0  0  0  0  0  0  0  0  0  0  # atno 7974 bound_to 7965
  155.3980  140.3436  155.4255 H   0  0  0  0  0  0  0  0  0  0  0  0  # atno 8008 bound_to 7997
  156.1520  140.1574  156.8787 H   0  0  0  0  0  0  0  0  0  0  0  0  # atno 8009 bound_to 7997
  154.5061  140.0802  156.7878 H   0  0  0  0  0  0  0  0  0  0  0  0  # atno 8010 bound_to 7997
  140.7064  143.3215  151.2780 H   0  0  0  0  0  0  0  0  0  0  0  0  # atno 10167 bound_to 10162
  156.0607  130.4264  150.1724 H   0  0  0  0  0  0  0  0  0  0  0  0  # atno 10718 bound_to 10713
  153.1087  135.4778  154.8997 H   0  0  0  0  0  0  0  0  0  0  0  0  # atno 10763 bound_to 10752
  154.7458  135.3093  154.8650 H   0  0  0  0  0  0  0  0  0  0  0  0  # atno 10764 bound_to 10752
  153.9245  135.6851  153.4800 H   0  0  0  0  0  0  0  0  0  0  0  0  # atno 10765 bound_to 10752
  140.3108  134.2651  155.7734 H   0  0  0  0  0  0  0  0  0  0  0  0  # atno 11005 bound_to 11000
  146.2978  139.7332  142.9113 LP  0  0  0  0  0  0  0  0  0  0  0  0  # atno 17320 bound_to 7965
  145.3999  141.0384  143.3076 LP  0  0  0  0  0  0  0  0  0  0  0  0  # atno 17321 bound_to 7965
  139.6670  144.0087  152.2729 LP  0  0  0  0  0  0  0  0  0  0  0  0  # atno 17342 bound_to 10162
  139.9673  144.6518  150.8023 LP  0  0  0  0  0  0  0  0  0  0  0  0  # atno 17343 bound_to 10162
  156.9793  130.9859  151.3441 LP  0  0  0  0  0  0  0  0  0  0  0  0  # atno 17370 bound_to 10713
  157.5612  130.8247  149.8269 LP  0  0  0  0  0  0  0  0  0  0  0  0  # atno 17371 bound_to 10713
  141.2108  133.7707  156.9905 LP  0  0  0  0  0  0  0  0  0  0  0  0  # atno 17394 bound_to 11000
  140.1026  134.9526  157.1946 LP  0  0  0  0  0  0  0  0  0  0  0  0  # atno 17395 bound_to 11000

$$$$
