AV-unprocessed.smi:1285|AV-procd|sdf|5367|dock4
  -GOLD-   22720 4503D 1   1.00000     0.00000
 Structure written by MMmdl.
 46 47  0  0  0  0  0  0  0  0  1 V2000
  150.9560  139.5138  154.9600 C   0  0  0  0  0  0  0  0  0  0  0  0
  151.6686  139.8472  156.2836 C   0  0  0  0  0  0  0  0  0  0  0  0
  151.0039  140.9676  157.1458 C   0  0  1  0  0  0  0  0  0  0  0  0
  150.6686  142.1286  156.1710 C   0  0  0  0  0  0  0  0  0  0  0  0
  149.6675  140.4070  157.7333 C   0  0  0  0  0  0  0  0  0  0  0  0
  149.7339  138.9972  158.1191 N   0  0  0  0  0  0  0  0  0  0  0  0
  148.6933  138.1524  158.2020 C   0  0  0  0  0  0  0  0  0  0  0  0
  147.5331  138.4840  157.9561 O   0  0  0  0  0  0  0  0  0  0  0  0
  149.0232  136.7118  158.6208 C   0  0  2  0  0  0  0  0  0  0  0  0
  148.9247  135.7171  157.4459 C   0  0  0  0  0  0  0  0  0  0  0  0
  148.1991  136.3173  159.7568 N   0  0  0  0  0  0  0  0  0  0  0  0
  147.5219  135.1870  159.9715 C   0  0  0  0  0  0  0  0  0  0  0  0
  146.9114  135.1388  161.1472 N   0  0  0  0  0  0  0  0  0  0  0  0
  147.2900  136.3513  161.6500 C   0  0  0  0  0  0  0  0  0  0  0  0
  148.0711  137.0912  160.8636 N   0  0  0  0  0  0  0  0  0  0  0  0
  151.9289  141.4411  158.2144 N   0  0  0  0  0  0  0  0  0  0  0  0
  151.4781  142.6278  158.9517 C   0  0  0  0  0  0  0  0  0  0  0  0
  152.5481  143.1389  159.9318 C   0  0  0  0  0  0  0  0  0  0  0  0
  152.9137  142.0979  160.8298 O   0  0  0  0  0  0  0  0  0  0  0  0
  153.4104  140.9482  160.1555 C   0  0  0  0  0  0  0  0  0  0  0  0
  152.3431  140.4188  159.1829 C   0  0  0  0  0  0  0  0  0  0  0  0
  151.4961  138.7338  154.4236 H   0  0  0  0  0  0  0  0  0  0  0  0
  150.8967  140.3791  154.2998 H   0  0  0  0  0  0  0  0  0  0  0  0
  149.9429  139.1488  155.1261 H   0  0  0  0  0  0  0  0  0  0  0  0
  151.7303  138.9225  156.8583 H   0  0  0  0  0  0  0  0  0  0  0  0
  152.7066  140.1011  156.0687 H   0  0  0  0  0  0  0  0  0  0  0  0
  150.2039  141.7713  155.2517 H   0  0  0  0  0  0  0  0  0  0  0  0
  151.5613  142.6845  155.8828 H   0  0  0  0  0  0  0  0  0  0  0  0
  149.9704  142.8411  156.6109 H   0  0  0  0  0  0  0  0  0  0  0  0
  149.3930  140.9504  158.6371 H   0  0  0  0  0  0  0  0  0  0  0  0
  148.8399  140.5563  157.0398 H   0  0  0  0  0  0  0  0  0  0  0  0
  150.6505  138.6349  158.3375 H   0  0  0  0  0  0  0  0  0  0  0  0
  150.0601  136.7001  158.9616 H   0  0  0  0  0  0  0  0  0  0  0  0
  149.5824  136.0108  156.6270 H   0  0  0  0  0  0  0  0  0  0  0  0
  147.9120  135.6500  157.0461 H   0  0  0  0  0  0  0  0  0  0  0  0
  149.2219  134.7160  157.7595 H   0  0  0  0  0  0  0  0  0  0  0  0
  147.4782  134.3805  159.2542 H   0  0  0  0  0  0  0  0  0  0  0  0
  146.9863  136.6961  162.6275 H   0  0  0  0  0  0  0  0  0  0  0  0
  151.2371  143.4423  158.2709 H   0  0  0  0  0  0  0  0  0  0  0  0
  150.5708  142.4039  159.5123 H   0  0  0  0  0  0  0  0  0  0  0  0
  153.4293  143.4908  159.3931 H   0  0  0  0  0  0  0  0  0  0  0  0
  152.1641  143.9835  160.5039 H   0  0  0  0  0  0  0  0  0  0  0  0
  154.3290  141.1976  159.6222 H   0  0  0  0  0  0  0  0  0  0  0  0
  153.6644  140.1854  160.8915 H   0  0  0  0  0  0  0  0  0  0  0  0
  151.4852  140.0755  159.7612 H   0  0  0  0  0  0  0  0  0  0  0  0
  152.7551  139.5462  158.6796 H   0  0  0  0  0  0  0  0  0  0  0  0
  1  2  1  0  0  0  0
  1 22  1  0  0  0  0
  1 23  1  0  0  0  0
  1 24  1  0  0  0  0
  2  3  1  0  0  0  0
  2 25  1  0  0  0  0
  2 26  1  0  0  0  0
  3  4  1  0  0  0  0
  3  5  1  0  0  0  0
  3 16  1  0  0  0  0
  4 27  1  0  0  0  0
  4 28  1  0  0  0  0
  4 29  1  0  0  0  0
  5  6  1  0  0  0  0
  5 30  1  0  0  0  0
  5 31  1  0  0  0  0
  6  7  1  0  0  0  0
  6 32  1  0  0  0  0
  7  8  2  0  0  0  0
  7  9  1  0  0  0  0
  9 10  1  0  0  0  0
  9 11  1  0  0  0  0
  9 33  1  0  0  0  0
 10 34  1  0  0  0  0
 10 35  1  0  0  0  0
 10 36  1  0  0  0  0
 11 15  1  0  0  0  0
 11 12  1  0  0  0  0
 12 13  2  0  0  0  0
 12 37  1  0  0  0  0
 13 14  1  0  0  0  0
 14 15  2  0  0  0  0
 14 38  1  0  0  0  0
 16 21  1  0  0  0  0
 16 17  1  0  0  0  0
 17 18  1  0  0  0  0
 17 39  1  0  0  0  0
 17 40  1  0  0  0  0
 18 19  1  0  0  0  0
 18 41  1  0  0  0  0
 18 42  1  0  0  0  0
 19 20  1  0  0  0  0
 20 21  1  0  0  0  0
 20 43  1  0  0  0  0
 20 44  1  0  0  0  0
 21 45  1  0  0  0  0
 21 46  1  0  0  0  0
M  END
> <s_m_source_file>
AV-unprocessed.smi

> <i_m_source_file_index>
1285

> <i_lp_mmshare_version>
43012

> <i_f3d_flags>
0

> <s_epik_input>
W0NIMl0xW0NIMl1PW0NIMl1bQ0gyXU4xW0NAQF0oW0NIM10pKFtDSDJdW0NIM10pW0NIMl1bTkhdQyg9TylbQ0BIXShbQ0gzXSluMltjSF1uW2NIXW4y

> <s_epik_cmdline>
J2VwaWtfcHl0aG9uJywgJy1waCcsICc3LjAnLCAnLXRuJywgJzgnLCAnLW1hJywgJzIwMCcsICctbWV0YWxfYmluZGluZycsICctaW1hZScsICc8aW5maWxlLm1hZT4nLCAnLW9tYWUnLCAnPG91dGZpbGUubWFlPic=

> <r_lp_tautomer_probability>
1

> <r_epik_Ionization_Penalty>
0.285697

> <r_epik_Ionization_Penalty_Charging>
0

> <r_epik_Ionization_Penalty_Neutral>
0.285697

> <r_epik_State_Penalty>
0.278478

> <r_epik_Charging_Adjusted_Penalty>
0.278478

> <i_epik_Tot_Q>
0

> <i_epik_Tot_abs_Q>
0

> <r_epik_Metal_State_Penalty>
0.278477

> <b_epik_Metal_Only>
0

> <s_lp_Force_Field>
OPLS_2005

> <r_lp_Energy>
49.2775

> <b_lp_Chiralities_Consistent>
1

> <s_lp_Variant>
AV-unprocessed.smi:1285-1

> <Gold.Version>
5.8.1

> <Gold.Id.Protein>
6NUR|6NUR_protein|mol2

> <Gold.PLP.Fitness>
39.0175

> <Gold.PLP.PLP>
-36.3786

> <Gold.PLP.part.hbond>
-2.0828

> <Gold.PLP.part.metal>
0.0000

> <Gold.PLP.part.buried>
-5.5844

> <Gold.PLP.part.nonpolar>
-28.8398

> <Gold.PLP.part.repulsive>
0.1941

> <Gold.PLP.ligand.clash>
0.0000

> <Gold.PLP.ligand.torsion>
1.1514

> <Gold.PLP.Chemscore.Hbond>
1.5824

> <Gold.PLP.Chemscore.CHOScore>
0.0000

> <Gold.PLP.Chemscore.Metal>
0.0000

> <Gold.Chemscore.Hbonds>
donor molecule, donor type, donor heavy atom, donor atom, acceptor molecule, acceptor atom, score
      P1  H  6931  6943       L1    15  0.94
      P1  H  6934  6947       L1    15  0.57

> <Gold.PLP.Chemscore.Internal.Correction>
0.1945

> <Gold.Rescore>
     Score         DG    S(hbond)    S(metal)    S(lipo)     H(rot)  DE(clash)    DE(int)     intcor
     11.10     -12.51       1.68        0.00      70.71       2.68       0.00       1.41       ----

> <Gold.Chemscore.Fitness>
11.0987

> <Gold.Chemscore.DG>
-12.5107

> <Gold.Chemscore.ZeroCoef>
-5.4800

> <Gold.Chemscore.Hbond>
1.6836

> <Gold.Chemscore.Metal>
0.0000

> <Gold.Chemscore.Lipo>
70.7147

> <Gold.Chemscore.Internal_Hbond>
0.0000

> <Gold.Chemscore.DEClash>
0.0009

> <Gold.Chemscore.DEInternal>
1.4112

> <Gold.Chemscore.Rot>
2.6821

> <Gold.Chemscore.Internal.Correction>
   9.000000E+99

> <Gold.Chemscore.Hbonds>
donor molecule, donor type, donor heavy atom, donor atom, acceptor molecule, acceptor atom, score
      P1  H  6931  6943       L1    15  0.64
      P1  H  6934  6947       L1    15  0.25

> <Gold.Chemscore.Hbond.Weighted>
-5.6233

> <Gold.Chemscore.Metal.Weighted>
-0.0000

> <Gold.Chemscore.Lipo.Weighted>
-8.2736

> <Gold.Chemscore.Internal_Hbond.Weighted>
0.0000

> <Gold.Chemscore.DEClash.Weighted>
0.0009

> <Gold.Chemscore.DEInternal.Weighted>
1.4112

> <Gold.Chemscore.Rot.Weighted>
6.8661

> <Gold.Chemscore.Internal.Correction.Weighted>
   9.000000E+99

> <Gold.Protein.RotatedTorsions>
[ 6907 6896 6895 6894 ] final  114.48 input  -60.11 | X-H torsion
[ 7974 7965 7964 7962 ] final  -33.78 input  175.53 | X-H torsion
[ 8008 7997 7996 7995 ] final   10.38 input   59.86 | X-H torsion
[ 10167 10162 10161 10158 ] final  -57.35 input  -65.29 | X-H torsion
[ 10718 10713 10712 10709 ] final -155.23 input   66.30 | X-H torsion
[ 10763 10752 10751 10750 ] final   10.56 input  -60.55 | X-H torsion
[ 11005 11000 10999 10996 ] final   28.57 input  -57.11 | X-H torsion

> <Gold.Protein.ActiveResidues>
 VAL166  LYS551  ARG553  GLY616  TRP617  ASP618  TYR619  PRO620  LYS621  CYS622 
 ASP623  PHE694  ASN695  SER759  ASP760  ASP761  ALA762  ILE779  LEU786  VAL792 
 PHE793  MET794  SER795  GLU796  ALA797  LYS798  CYS799  TRP800  GLU811  SER814 

> <Gold.Protein.RotatedAtoms>
  152.4800  133.8230  159.7063 H   0  0  0  0  0  0  0  0  0  0  0  0  # atno 6907 bound_to 6896
  150.8842  133.7320  159.2929 H   0  0  0  0  0  0  0  0  0  0  0  0  # atno 6908 bound_to 6896
  151.4814  135.1056  159.9831 H   0  0  0  0  0  0  0  0  0  0  0  0  # atno 6909 bound_to 6896
  146.0883  140.5958  142.8876 H   0  0  0  0  0  0  0  0  0  0  0  0  # atno 7974 bound_to 7965
  154.7926  140.2838  155.5980 H   0  0  0  0  0  0  0  0  0  0  0  0  # atno 8008 bound_to 7997
  156.2966  140.2602  156.2705 H   0  0  0  0  0  0  0  0  0  0  0  0  # atno 8009 bound_to 7997
  154.9653  140.0377  157.2198 H   0  0  0  0  0  0  0  0  0  0  0  0  # atno 8010 bound_to 7997
  140.6263  143.2440  151.5355 H   0  0  0  0  0  0  0  0  0  0  0  0  # atno 10167 bound_to 10162
  156.5100  130.8430  151.2643 H   0  0  0  0  0  0  0  0  0  0  0  0  # atno 10718 bound_to 10713
  153.2019  135.6857  153.8220 H   0  0  0  0  0  0  0  0  0  0  0  0  # atno 10763 bound_to 10752
  153.7483  135.3227  155.3317 H   0  0  0  0  0  0  0  0  0  0  0  0  # atno 10764 bound_to 10752
  154.8176  135.4675  154.0789 H   0  0  0  0  0  0  0  0  0  0  0  0  # atno 10765 bound_to 10752
  140.3142  134.2616  155.7728 H   0  0  0  0  0  0  0  0  0  0  0  0  # atno 11005 bound_to 11000
  144.7342  140.4759  143.6916 LP  0  0  0  0  0  0  0  0  0  0  0  0  # atno 17320 bound_to 7965
  145.6088  139.1511  143.3088 LP  0  0  0  0  0  0  0  0  0  0  0  0  # atno 17321 bound_to 7965
  139.5483  144.2463  152.1483 LP  0  0  0  0  0  0  0  0  0  0  0  0  # atno 17342 bound_to 10162
  140.1695  144.4949  150.6587 LP  0  0  0  0  0  0  0  0  0  0  0  0  # atno 17343 bound_to 10162
  157.7452  130.9953  150.2737 LP  0  0  0  0  0  0  0  0  0  0  0  0  # atno 17370 bound_to 10713
  156.3249  130.3791  149.7542 LP  0  0  0  0  0  0  0  0  0  0  0  0  # atno 17371 bound_to 10713
  141.2101  133.7728  156.9952 LP  0  0  0  0  0  0  0  0  0  0  0  0  # atno 17394 bound_to 11000
  140.0998  134.9542  157.1906 LP  0  0  0  0  0  0  0  0  0  0  0  0  # atno 17395 bound_to 11000

$$$$
