AV-unprocessed.smi:171|AV-procd|sdf|1418|dock6
  -GOLD-   2262019183D 1   1.00000     0.00000
 Structure written by MMmdl.
 56 59  0  0  0  0  0  0  0  0  1 V2000
  145.6540  134.4855  151.0583 C   0  0  0  0  0  0  0  0  0  0  0  0
  146.5754  134.2943  152.2746 C   0  0  0  0  0  0  0  0  0  0  0  0
  147.0437  132.8328  152.3586 C   0  0  0  0  0  0  0  0  0  0  0  0
  145.9126  134.7375  153.6066 C   0  0  0  0  0  0  0  0  0  0  0  0
  145.7618  136.2707  153.8325 C   0  0  2  0  0  0  0  0  0  0  0  0
  145.0792  136.9899  152.6465 C   0  0  0  0  0  0  0  0  0  0  0  0
  144.0605  136.5151  152.1479 O   0  0  0  0  0  0  0  0  0  0  0  0
  145.5969  138.1459  152.1965 N   0  0  0  0  0  0  0  0  0  0  0  0
  146.8009  138.7921  152.7112 C   0  0  0  0  0  0  0  0  0  0  0  0
  147.1457  138.3329  154.1345 C   0  0  0  0  0  0  0  0  0  0  0  0
  147.0429  136.8826  154.2238 N   0  0  0  0  0  0  0  0  0  0  0  0
  147.6429  136.3843  155.3277 C   0  0  0  0  0  0  0  0  0  0  0  0
  148.4139  135.2694  155.2416 N   0  0  0  0  0  0  0  0  0  0  0  0
  149.0227  134.7972  156.3341 C   0  0  0  0  0  0  0  0  0  0  0  0
  148.9965  135.2786  157.5794 N   0  0  0  0  0  0  0  0  0  0  0  0
  148.2188  136.3964  157.6635 C   0  0  0  0  0  0  0  0  0  0  0  0
  147.5028  137.0036  156.5959 C   0  0  0  0  0  0  0  0  0  0  0  0
  146.8141  138.1196  157.0520 N   0  0  0  0  0  0  0  0  0  0  0  0
  147.1159  138.1772  158.3201 C   0  0  0  0  0  0  0  0  0  0  0  0
  147.9632  137.1887  158.7689 N   0  0  0  0  0  0  0  0  0  0  0  0
  148.4718  137.0286  160.1211 C   0  0  0  0  0  0  0  0  0  0  0  0
  147.4192  136.4662  161.1060 C   0  0  1  0  0  0  0  0  0  0  0  0
  146.3017  137.3399  161.1204 O   0  0  0  0  0  0  0  0  0  0  0  0
  146.9307  135.0661  160.7652 C   0  0  0  0  0  0  0  0  0  0  0  0
  146.4302  134.5530  162.1100 C   0  0  0  0  0  0  0  0  0  0  0  0
  147.3133  135.1171  163.0716 O   0  0  0  0  0  0  0  0  0  0  0  0
  147.9730  136.2617  162.5320 C   0  0  2  0  0  0  0  0  0  0  0  0
  147.8712  137.4608  163.4878 C   0  0  0  0  0  0  0  0  0  0  0  0
  144.7192  133.9368  151.1770 H   0  0  0  0  0  0  0  0  0  0  0  0
  146.1324  134.1291  150.1458 H   0  0  0  0  0  0  0  0  0  0  0  0
  145.4084  135.5342  150.8977 H   0  0  0  0  0  0  0  0  0  0  0  0
  147.4695  134.8918  152.0999 H   0  0  0  0  0  0  0  0  0  0  0  0
  146.2061  132.1573  152.5350 H   0  0  0  0  0  0  0  0  0  0  0  0
  147.7615  132.6954  153.1684 H   0  0  0  0  0  0  0  0  0  0  0  0
  147.5343  132.5230  151.4355 H   0  0  0  0  0  0  0  0  0  0  0  0
  144.9458  134.2440  153.7146 H   0  0  0  0  0  0  0  0  0  0  0  0
  146.4978  134.3416  154.4376 H   0  0  0  0  0  0  0  0  0  0  0  0
  145.0670  136.4093  154.6624 H   0  0  0  0  0  0  0  0  0  0  0  0
  145.1274  138.6035  151.4286 H   0  0  0  0  0  0  0  0  0  0  0  0
  147.6226  138.5474  152.0371 H   0  0  0  0  0  0  0  0  0  0  0  0
  146.6765  139.8746  152.6792 H   0  0  0  0  0  0  0  0  0  0  0  0
  148.1489  138.6721  154.3990 H   0  0  0  0  0  0  0  0  0  0  0  0
  146.4561  138.7837  154.8503 H   0  0  0  0  0  0  0  0  0  0  0  0
  149.6211  133.9099  156.1888 H   0  0  0  0  0  0  0  0  0  0  0  0
  146.7343  138.9549  158.9658 H   0  0  0  0  0  0  0  0  0  0  0  0
  149.3374  136.3666  160.0748 H   0  0  0  0  0  0  0  0  0  0  0  0
  148.8437  137.9926  160.4707 H   0  0  0  0  0  0  0  0  0  0  0  0
  145.9328  137.3388  161.9905 H   0  0  0  0  0  0  0  0  0  0  0  0
  146.1671  135.0424  159.9861 H   0  0  0  0  0  0  0  0  0  0  0  0
  147.7662  134.4476  160.4346 H   0  0  0  0  0  0  0  0  0  0  0  0
  145.4195  134.9136  162.3052 H   0  0  0  0  0  0  0  0  0  0  0  0
  146.4187  133.4643  162.1671 H   0  0  0  0  0  0  0  0  0  0  0  0
  149.0234  135.9774  162.4568 H   0  0  0  0  0  0  0  0  0  0  0  0
  148.3699  138.3364  163.0718 H   0  0  0  0  0  0  0  0  0  0  0  0
  148.3446  137.2326  164.4429 H   0  0  0  0  0  0  0  0  0  0  0  0
  146.8343  137.7277  163.6927 H   0  0  0  0  0  0  0  0  0  0  0  0
  1  2  1  0  0  0  0
  1 29  1  0  0  0  0
  1 30  1  0  0  0  0
  1 31  1  0  0  0  0
  2  3  1  0  0  0  0
  2  4  1  0  0  0  0
  2 32  1  0  0  0  0
  3 33  1  0  0  0  0
  3 34  1  0  0  0  0
  3 35  1  0  0  0  0
  4  5  1  0  0  0  0
  4 36  1  0  0  0  0
  4 37  1  0  0  0  0
  5 11  1  0  0  0  0
  5  6  1  0  0  0  0
  5 38  1  0  0  0  0
  6  7  2  0  0  0  0
  6  8  1  0  0  0  0
  8  9  1  0  0  0  0
  8 39  1  0  0  0  0
  9 10  1  0  0  0  0
  9 40  1  0  0  0  0
  9 41  1  0  0  0  0
 10 11  1  0  0  0  0
 10 42  1  0  0  0  0
 10 43  1  0  0  0  0
 11 12  1  0  0  0  0
 12 17  1  0  0  0  0
 12 13  2  0  0  0  0
 13 14  1  0  0  0  0
 14 15  2  0  0  0  0
 14 44  1  0  0  0  0
 15 16  1  0  0  0  0
 16 20  1  0  0  0  0
 16 17  2  0  0  0  0
 17 18  1  0  0  0  0
 18 19  2  0  0  0  0
 19 20  1  0  0  0  0
 19 45  1  0  0  0  0
 20 21  1  0  0  0  0
 21 22  1  0  0  0  0
 21 46  1  0  0  0  0
 21 47  1  0  0  0  0
 22 27  1  0  0  0  0
 22 23  1  0  0  0  0
 22 24  1  0  0  0  0
 23 48  1  0  0  0  0
 24 25  1  0  0  0  0
 24 49  1  0  0  0  0
 24 50  1  0  0  0  0
 25 26  1  0  0  0  0
 25 51  1  0  0  0  0
 25 52  1  0  0  0  0
 26 27  1  0  0  0  0
 27 28  1  0  0  0  0
 27 53  1  0  0  0  0
 28 54  1  0  0  0  0
 28 55  1  0  0  0  0
 28 56  1  0  0  0  0
M  END
> <s_m_source_file>
AV-unprocessed.smi

> <i_m_source_file_index>
171

> <i_lp_mmshare_version>
43012

> <i_f3d_flags>
0

> <s_epik_input>
W0NIM11bQ0hdKFtDSDNdKVtDSDJdW0NAQEhdMUMoPU8pW05IXVtDSDJdW0NIMl1OMWMobltjSF1uMiljKGMyMyluW2NIXW4zW0NIMl1bQ0BAXTQoW09IXSlbQ0gyXVtDSDJdT1tDQEhdNFtDSDNd

> <s_epik_cmdline>
J2VwaWtfcHl0aG9uJywgJy1waCcsICc3LjAnLCAnLXRuJywgJzgnLCAnLW1hJywgJzIwMCcsICctbWV0YWxfYmluZGluZycsICctaW1hZScsICc8aW5maWxlLm1hZT4nLCAnLW9tYWUnLCAnPG91dGZpbGUubWFlPic=

> <r_lp_tautomer_probability>
1

> <r_epik_Ionization_Penalty>
0.000670584

> <r_epik_Ionization_Penalty_Charging>
0

> <r_epik_Ionization_Penalty_Neutral>
0.000670584

> <r_epik_State_Penalty>
0.000304767

> <r_epik_Charging_Adjusted_Penalty>
0.000304767

> <i_epik_Tot_Q>
0

> <i_epik_Tot_abs_Q>
0

> <r_epik_Metal_State_Penalty>
-0

> <b_epik_Metal_Only>
0

> <s_lp_Force_Field>
OPLS_2005

> <r_lp_Energy>
41.3949

> <b_lp_Chiralities_Consistent>
1

> <s_lp_Variant>
AV-unprocessed.smi:171-5

> <Gold.Version>
5.8.1

> <Gold.Id.Protein>
6NUR|6NUR_protein|mol2

> <Gold.PLP.Fitness>
37.6790

> <Gold.PLP.PLP>
-33.1377

> <Gold.PLP.part.hbond>
-3.0000

> <Gold.PLP.part.metal>
0.0000

> <Gold.PLP.part.buried>
-4.4924

> <Gold.PLP.part.nonpolar>
-26.8025

> <Gold.PLP.part.repulsive>
1.2780

> <Gold.PLP.ligand.clash>
0.0000

> <Gold.PLP.ligand.torsion>
0.9469

> <Gold.PLP.Chemscore.Hbond>
2.0000

> <Gold.PLP.Chemscore.CHOScore>
0.0000

> <Gold.PLP.Chemscore.Metal>
0.0000

> <Gold.Chemscore.Hbonds>
donor molecule, donor type, donor heavy atom, donor atom, acceptor molecule, acceptor atom, score
      L1  H     8    39       P1 10171  0.98
      P1  H  6934  6947       L1    23  1.00

> <Gold.PLP.Chemscore.Internal.Correction>
0.4351

> <Gold.Rescore>
     Score         DG    S(hbond)    S(metal)    S(lipo)     H(rot)  DE(clash)    DE(int)     intcor
      6.62     -11.19       1.06        0.00      75.55       2.61       0.34       4.23       ----

> <Gold.Chemscore.Fitness>
6.6181

> <Gold.Chemscore.DG>
-11.1903

> <Gold.Chemscore.ZeroCoef>
-5.4800

> <Gold.Chemscore.Hbond>
1.0615

> <Gold.Chemscore.Metal>
0.0000

> <Gold.Chemscore.Lipo>
75.5546

> <Gold.Chemscore.Internal_Hbond>
0.0000

> <Gold.Chemscore.DEClash>
0.3425

> <Gold.Chemscore.DEInternal>
4.2298

> <Gold.Chemscore.Rot>
2.6074

> <Gold.Chemscore.Internal.Correction>
   9.000000E+99

> <Gold.Chemscore.Hbonds>
donor molecule, donor type, donor heavy atom, donor atom, acceptor molecule, acceptor atom, score
      L1  H     8    39       P1 10171  0.90
      P1  H  6934  6947       L1    23  0.15

> <Gold.Chemscore.Hbond.Weighted>
-3.5453

> <Gold.Chemscore.Metal.Weighted>
-0.0000

> <Gold.Chemscore.Lipo.Weighted>
-8.8399

> <Gold.Chemscore.Internal_Hbond.Weighted>
0.0000

> <Gold.Chemscore.DEClash.Weighted>
0.3425

> <Gold.Chemscore.DEInternal.Weighted>
4.2298

> <Gold.Chemscore.Rot.Weighted>
6.6748

> <Gold.Chemscore.Internal.Correction.Weighted>
   9.000000E+99

> <Gold.Protein.RotatedTorsions>
[ 6907 6896 6895 6894 ] final  107.26 input  -60.11 | X-H torsion
[ 7974 7965 7964 7962 ] final  -39.69 input  175.53 | X-H torsion
[ 8008 7997 7996 7995 ] final   46.01 input   59.86 | X-H torsion
[ 10167 10162 10161 10158 ] final  151.36 input  -65.29 | X-H torsion
[ 10718 10713 10712 10709 ] final  135.03 input   66.30 | X-H torsion
[ 10763 10752 10751 10750 ] final  -41.32 input  -60.55 | X-H torsion
[ 11005 11000 10999 10996 ] final  142.33 input  -57.11 | X-H torsion

> <Gold.Protein.ActiveResidues>
 VAL166  LYS551  ARG553  GLY616  TRP617  ASP618  TYR619  PRO620  LYS621  CYS622 
 ASP623  PHE694  ASN695  SER759  ASP760  ASP761  ALA762  ILE779  LEU786  VAL792 
 PHE793  MET794  SER795  GLU796  ALA797  LYS798  CYS799  TRP800  GLU811  SER814 

> <Gold.Protein.RotatedAtoms>
  152.5161  133.9260  159.7557 H   0  0  0  0  0  0  0  0  0  0  0  0  # atno 6907 bound_to 6896
  150.9621  133.6425  159.2759 H   0  0  0  0  0  0  0  0  0  0  0  0  # atno 6908 bound_to 6896
  151.3666  135.0920  159.9505 H   0  0  0  0  0  0  0  0  0  0  0  0  # atno 6909 bound_to 6896
  146.0374  140.6654  142.9104 H   0  0  0  0  0  0  0  0  0  0  0  0  # atno 7974 bound_to 7965
  155.3453  140.3410  155.4239 H   0  0  0  0  0  0  0  0  0  0  0  0  # atno 8008 bound_to 7997
  156.1792  140.1658  156.8342 H   0  0  0  0  0  0  0  0  0  0  0  0  # atno 8009 bound_to 7997
  154.5315  140.0744  156.8336 H   0  0  0  0  0  0  0  0  0  0  0  0  # atno 8010 bound_to 7997
  139.4841  144.5447  151.7504 H   0  0  0  0  0  0  0  0  0  0  0  0  # atno 10167 bound_to 10162
  157.4612  131.1073  150.9917 H   0  0  0  0  0  0  0  0  0  0  0  0  # atno 10718 bound_to 10713
  153.9605  135.6740  153.4745 H   0  0  0  0  0  0  0  0  0  0  0  0  # atno 10763 bound_to 10752
  153.0840  135.4908  154.8557 H   0  0  0  0  0  0  0  0  0  0  0  0  # atno 10764 bound_to 10752
  154.7275  135.3131  154.8906 H   0  0  0  0  0  0  0  0  0  0  0  0  # atno 10765 bound_to 10752
  140.0469  134.9276  157.0945 H   0  0  0  0  0  0  0  0  0  0  0  0  # atno 11005 bound_to 11000
  144.7058  140.3845  143.7119 LP  0  0  0  0  0  0  0  0  0  0  0  0  # atno 17320 bound_to 7965
  145.6942  139.1646  143.2630 LP  0  0  0  0  0  0  0  0  0  0  0  0  # atno 17321 bound_to 7965
  140.4992  144.1195  150.5967 LP  0  0  0  0  0  0  0  0  0  0  0  0  # atno 17342 bound_to 10162
  140.4082  143.2670  151.9865 LP  0  0  0  0  0  0  0  0  0  0  0  0  # atno 17343 bound_to 10162
  157.0714  130.5865  149.5403 LP  0  0  0  0  0  0  0  0  0  0  0  0  # atno 17370 bound_to 10713
  156.0029  130.5112  150.7729 LP  0  0  0  0  0  0  0  0  0  0  0  0  # atno 17371 bound_to 10713
  140.3980  134.2113  155.7164 LP  0  0  0  0  0  0  0  0  0  0  0  0  # atno 17394 bound_to 11000
  141.1911  133.8202  157.0892 LP  0  0  0  0  0  0  0  0  0  0  0  0  # atno 17395 bound_to 11000

$$$$
