AV-unprocessed.smi:1550|AV-procd|sdf|6224|dock3
  -GOLD-   22720 6393D 1   1.00000     0.00000
 Structure written by MMmdl.
 43 44  0  0  0  0  0  0  0  0  1 V2000
  149.9989  132.5132  155.7868 C   0  0  0  0  0  0  0  0  0  0  0  0
  149.6752  133.2881  154.5008 C   0  0  2  0  0  0  0  0  0  0  0  0
  149.9208  134.6677  154.7596 O   0  0  0  0  0  0  0  0  0  0  0  0
  151.1817  134.9649  155.3493 C   0  0  0  0  0  0  0  0  0  0  0  0
  151.4717  136.4608  155.1759 C   0  0  2  0  0  0  0  0  0  0  0  0
  151.1635  136.9547  153.7483 C   0  0  0  0  0  0  0  0  0  0  0  0
  151.5527  138.4288  153.5923 C   0  0  0  0  0  0  0  0  0  0  0  0
  153.0079  138.6276  154.0293 C   0  0  0  0  0  0  0  0  0  0  0  0
  153.2266  138.0521  155.4375 C   0  0  0  0  0  0  0  0  0  0  0  0
  152.8509  136.6784  155.4657 O   0  0  0  0  0  0  0  0  0  0  0  0
  148.2135  133.0794  154.0708 C   0  0  0  0  0  0  0  0  0  0  0  0
  147.4446  132.4785  154.8203 O   0  0  0  0  0  0  0  0  0  0  0  0
  147.8819  133.6185  152.8806 N   0  0  0  0  0  0  0  0  0  0  0  0
  146.6489  133.6336  152.2054 C   0  0  0  0  0  0  0  0  0  0  0  0
  146.2541  132.7315  151.2684 C   0  0  0  0  0  0  0  0  0  0  0  0
  144.9588  132.8149  150.6139 C   0  0  0  0  0  0  0  0  0  0  0  0
  144.5518  131.8328  149.5259 C   0  0  0  0  0  0  0  0  0  0  0  0
  144.2393  132.4649  148.3937 F   0  0  0  0  0  0  0  0  0  0  0  0
  145.5360  130.9717  149.2661 F   0  0  0  0  0  0  0  0  0  0  0  0
  143.4862  131.1372  149.9204 F   0  0  0  0  0  0  0  0  0  0  0  0
  144.1748  133.8514  150.9635 C   0  0  0  0  0  0  0  0  0  0  0  0
  144.5709  134.7805  151.9275 N   0  0  0  0  0  0  0  0  0  0  0  0
  145.7567  134.7454  152.5752 C   0  0  0  0  0  0  0  0  0  0  0  0
  146.0326  135.6054  153.4110 O   0  0  0  0  0  0  0  0  0  0  0  0
  143.9219  135.5233  152.1432 H   0  0  0  0  0  0  0  0  0  0  0  0
  149.8241  131.4441  155.6607 H   0  0  0  0  0  0  0  0  0  0  0  0
  149.3932  132.8559  156.6267 H   0  0  0  0  0  0  0  0  0  0  0  0
  151.0455  132.6444  156.0628 H   0  0  0  0  0  0  0  0  0  0  0  0
  150.3495  132.9423  153.7146 H   0  0  0  0  0  0  0  0  0  0  0  0
  151.1462  134.7185  156.4115 H   0  0  0  0  0  0  0  0  0  0  0  0
  151.9870  134.3775  154.9066 H   0  0  0  0  0  0  0  0  0  0  0  0
  150.8727  137.0178  155.8987 H   0  0  0  0  0  0  0  0  0  0  0  0
  151.7146  136.3538  153.0236 H   0  0  0  0  0  0  0  0  0  0  0  0
  150.1050  136.8238  153.5209 H   0  0  0  0  0  0  0  0  0  0  0  0
  151.4174  138.7511  152.5596 H   0  0  0  0  0  0  0  0  0  0  0  0
  150.8965  139.0486  154.2047 H   0  0  0  0  0  0  0  0  0  0  0  0
  153.6738  138.1274  153.3248 H   0  0  0  0  0  0  0  0  0  0  0  0
  153.2676  139.6862  154.0084 H   0  0  0  0  0  0  0  0  0  0  0  0
  154.2770  138.1355  155.7165 H   0  0  0  0  0  0  0  0  0  0  0  0
  152.6557  138.6119  156.1799 H   0  0  0  0  0  0  0  0  0  0  0  0
  148.6201  134.1167  152.4041 H   0  0  0  0  0  0  0  0  0  0  0  0
  146.8928  131.9173  150.9702 H   0  0  0  0  0  0  0  0  0  0  0  0
  143.2021  134.0497  150.5380 H   0  0  0  0  0  0  0  0  0  0  0  0
  1  2  1  0  0  0  0
  1 26  1  0  0  0  0
  1 27  1  0  0  0  0
  1 28  1  0  0  0  0
  2  3  1  0  0  0  0
  2 11  1  0  0  0  0
  2 29  1  0  0  0  0
  3  4  1  0  0  0  0
  4  5  1  0  0  0  0
  4 30  1  0  0  0  0
  4 31  1  0  0  0  0
  5 10  1  0  0  0  0
  5  6  1  0  0  0  0
  5 32  1  0  0  0  0
  6  7  1  0  0  0  0
  6 33  1  0  0  0  0
  6 34  1  0  0  0  0
  7  8  1  0  0  0  0
  7 35  1  0  0  0  0
  7 36  1  0  0  0  0
  8  9  1  0  0  0  0
  8 37  1  0  0  0  0
  8 38  1  0  0  0  0
  9 10  1  0  0  0  0
  9 39  1  0  0  0  0
  9 40  1  0  0  0  0
 11 12  2  0  0  0  0
 11 13  1  0  0  0  0
 13 14  1  0  0  0  0
 13 41  1  0  0  0  0
 14 23  1  0  0  0  0
 14 15  2  0  0  0  0
 15 16  1  0  0  0  0
 15 42  1  0  0  0  0
 16 17  1  0  0  0  0
 16 21  2  0  0  0  0
 17 18  1  0  0  0  0
 17 19  1  0  0  0  0
 17 20  1  0  0  0  0
 21 22  1  0  0  0  0
 21 43  1  0  0  0  0
 22 25  1  0  0  0  0
 22 23  1  0  0  0  0
 23 24  2  0  0  0  0
M  END
> <s_m_source_file>
AV-unprocessed.smi

> <i_m_source_file_index>
1550

> <i_lp_mmshare_version>
43012

> <i_f3d_flags>
0

> <s_epik_input>
TzFbQ0gyXVtDSDJdW0NIMl1bQ0gyXVtDQEhdMVtDSDJdT1tDQEBIXShbQ0gzXSlDKD1PKVtOSF1jMltjSF1jKEMoRikoRilGKVtjSF1bbkhdYzI9Tw==

> <s_epik_cmdline>
J2VwaWtfcHl0aG9uJywgJy1waCcsICc3LjAnLCAnLXRuJywgJzgnLCAnLW1hJywgJzIwMCcsICctbWV0YWxfYmluZGluZycsICctaW1hZScsICc8aW5maWxlLm1hZT4nLCAnLW9tYWUnLCAnPG91dGZpbGUubWFlPic=

> <r_lp_tautomer_probability>
0.999

> <r_epik_Ionization_Penalty>
0.00891333

> <r_epik_Ionization_Penalty_Charging>
0.00891323

> <r_epik_Ionization_Penalty_Neutral>
1.00146e-07

> <r_epik_State_Penalty>
0.00674197

> <r_epik_Charging_Adjusted_Penalty>
0.0156552

> <i_epik_Tot_Q>
0

> <i_epik_Tot_abs_Q>
0

> <r_epik_Metal_State_Penalty>
0.321024

> <b_epik_Metal_Only>
0

> <s_lp_Force_Field>
OPLS_2005

> <r_lp_Energy>
25.3727

> <b_lp_Chiralities_Consistent>
1

> <s_lp_Variant>
AV-unprocessed.smi:1550-1

> <Gold.Version>
5.8.1

> <Gold.Id.Protein>
6NUR|6NUR_protein|mol2

> <Gold.PLP.Fitness>
42.7781

> <Gold.PLP.PLP>
-37.0851

> <Gold.PLP.part.hbond>
-2.0000

> <Gold.PLP.part.metal>
0.0000

> <Gold.PLP.part.buried>
3.5465

> <Gold.PLP.part.nonpolar>
-38.6253

> <Gold.PLP.part.repulsive>
0.1869

> <Gold.PLP.ligand.clash>
0.0000

> <Gold.PLP.ligand.torsion>
1.1365

> <Gold.PLP.Chemscore.Hbond>
1.6720

> <Gold.PLP.Chemscore.CHOScore>
0.9332

> <Gold.PLP.Chemscore.Metal>
0.0000

> <Gold.Chemscore.Hbonds>
donor molecule, donor type, donor heavy atom, donor atom, acceptor molecule, acceptor atom, score
      L1  H    13    41       P1  7948  0.15
      P1  H 10752 10765       L1    10  0.19
      L1  C    21    43       P1 10186  1.00

> <Gold.PLP.Chemscore.Internal.Correction>
0.1502

> <Gold.Rescore>
     Score         DG    S(hbond)    S(metal)    S(lipo)     H(rot)  DE(clash)    DE(int)     intcor
      9.83     -13.09       0.77        0.00      83.63       1.86       1.61       1.65       ----

> <Gold.Chemscore.Fitness>
9.8310

> <Gold.Chemscore.DG>
-13.0868

> <Gold.Chemscore.ZeroCoef>
-5.4800

> <Gold.Chemscore.Hbond>
0.7714

> <Gold.Chemscore.Metal>
0.0000

> <Gold.Chemscore.Lipo>
83.6276

> <Gold.Chemscore.Internal_Hbond>
0.0000

> <Gold.Chemscore.DEClash>
1.6074

> <Gold.Chemscore.DEInternal>
1.6484

> <Gold.Chemscore.Rot>
1.8571

> <Gold.Chemscore.Internal.Correction>
   9.000000E+99

> <Gold.Chemscore.Hbonds>
donor molecule, donor type, donor heavy atom, donor atom, acceptor molecule, acceptor atom, score
      P1  H 10752 10765       L1    10  0.03

> <Gold.Chemscore.Hbond.Weighted>
-2.5764

> <Gold.Chemscore.Metal.Weighted>
-0.0000

> <Gold.Chemscore.Lipo.Weighted>
-9.7844

> <Gold.Chemscore.Internal_Hbond.Weighted>
0.0000

> <Gold.Chemscore.DEClash.Weighted>
1.6074

> <Gold.Chemscore.DEInternal.Weighted>
1.6484

> <Gold.Chemscore.Rot.Weighted>
4.7541

> <Gold.Chemscore.Internal.Correction.Weighted>
   9.000000E+99

> <Gold.Protein.RotatedTorsions>
[ 6907 6896 6895 6894 ] final   70.37 input  -60.11 | X-H torsion
[ 7974 7965 7964 7962 ] final -161.09 input  175.53 | X-H torsion
[ 8008 7997 7996 7995 ] final    1.46 input   59.86 | X-H torsion
[ 10167 10162 10161 10158 ] final  -16.92 input  -65.29 | X-H torsion
[ 10718 10713 10712 10709 ] final   38.01 input   66.30 | X-H torsion
[ 10763 10752 10751 10750 ] final -142.45 input  -60.55 | X-H torsion
[ 11005 11000 10999 10996 ] final  -35.36 input  -57.11 | X-H torsion

> <Gold.Protein.ActiveResidues>
 VAL166  LYS551  ARG553  GLY616  TRP617  ASP618  TYR619  PRO620  LYS621  CYS622 
 ASP623  PHE694  ASN695  SER759  ASP760  ASP761  ALA762  ILE779  LEU786  VAL792 
 PHE793  MET794  SER795  GLU796  ALA797  LYS798  CYS799  TRP800  GLU811  SER814 

> <Gold.Protein.RotatedAtoms>
  152.4745  134.4879  159.9685 H   0  0  0  0  0  0  0  0  0  0  0  0  # atno 6907 bound_to 6896
  151.4898  133.3521  159.2859 H   0  0  0  0  0  0  0  0  0  0  0  0  # atno 6908 bound_to 6896
  150.8774  134.8187  159.7261 H   0  0  0  0  0  0  0  0  0  0  0  0  # atno 6909 bound_to 6896
  144.7403  140.3447  143.6127 H   0  0  0  0  0  0  0  0  0  0  0  0  # atno 7974 bound_to 7965
  154.6800  140.2630  155.6918 H   0  0  0  0  0  0  0  0  0  0  0  0  # atno 8008 bound_to 7997
  156.2693  140.2812  156.1263 H   0  0  0  0  0  0  0  0  0  0  0  0  # atno 8009 bound_to 7997
  155.1045  140.0375  157.2696 H   0  0  0  0  0  0  0  0  0  0  0  0  # atno 8010 bound_to 7997
  140.7240  143.5067  150.9801 H   0  0  0  0  0  0  0  0  0  0  0  0  # atno 10167 bound_to 10162
  157.3538  130.7612  149.6998 H   0  0  0  0  0  0  0  0  0  0  0  0  # atno 10718 bound_to 10713
  154.8508  135.3495  154.6030 H   0  0  0  0  0  0  0  0  0  0  0  0  # atno 10763 bound_to 10752
  153.6638  135.6988  153.5173 H   0  0  0  0  0  0  0  0  0  0  0  0  # atno 10764 bound_to 10752
  153.2796  135.4267  155.1023 H   0  0  0  0  0  0  0  0  0  0  0  0  # atno 10765 bound_to 10752
  140.9789  133.7067  156.1651 H   0  0  0  0  0  0  0  0  0  0  0  0  # atno 11005 bound_to 11000
  145.7338  139.1744  143.2415 LP  0  0  0  0  0  0  0  0  0  0  0  0  # atno 17320 bound_to 7965
  146.1186  140.7338  142.9468 LP  0  0  0  0  0  0  0  0  0  0  0  0  # atno 17321 bound_to 7965
  139.8779  143.7109  152.3160 LP  0  0  0  0  0  0  0  0  0  0  0  0  # atno 17342 bound_to 10162
  139.7381  144.7566  151.0695 LP  0  0  0  0  0  0  0  0  0  0  0  0  # atno 17343 bound_to 10162
  155.9726  130.4133  150.4075 LP  0  0  0  0  0  0  0  0  0  0  0  0  # atno 17370 bound_to 10713
  157.2142  131.0467  151.2582 LP  0  0  0  0  0  0  0  0  0  0  0  0  # atno 17371 bound_to 10713
  140.7216  134.4352  157.5574 LP  0  0  0  0  0  0  0  0  0  0  0  0  # atno 17394 bound_to 11000
  139.8942  134.8712  156.2188 LP  0  0  0  0  0  0  0  0  0  0  0  0  # atno 17395 bound_to 11000

$$$$
