AV-unprocessed.smi:155|AV-procd|sdf|1271|dock7
  -GOLD-   2262018533D 1   1.00000     0.00000
 Structure written by MMmdl.
 63 66  0  0  0  0  0  0  0  0  2 V2000
  143.9286  134.8547  151.2032 C   0  0  0  0  0  0  0  0  0  0  0  0
  144.3481  133.5423  151.6829 N   0  0  0  0  0  0  0  0  0  0  0  0
  144.2176  132.5917  150.5867 C   0  0  0  0  0  0  0  0  0  0  0  0
  145.7368  133.5617  152.1385 C   0  0  0  0  0  0  0  0  0  0  0  0
  145.8932  134.2237  153.5295 C   0  0  0  0  0  0  0  0  0  0  0  0
  147.2564  134.7532  153.7963 N   0  3  2  0  0  0  0  0  0  0  0  0
  148.2929  133.6929  153.8661 C   0  0  0  0  0  0  0  0  0  0  0  0
  149.7266  134.2458  153.8049 C   0  0  0  0  0  0  0  0  0  0  0  0
  150.1873  134.9042  155.1158 C   0  0  0  0  0  0  0  0  0  0  0  0
  149.7218  136.2831  155.2818 N   0  0  0  0  0  0  0  0  0  0  0  0
  150.6489  137.2247  155.6030 C   0  0  0  0  0  0  0  0  0  0  0  0
  151.9308  136.8358  155.8398 N   0  0  0  0  0  0  0  0  0  0  0  0
  152.8633  137.7347  156.1680 C   0  0  0  0  0  0  0  0  0  0  0  0
  152.7357  139.0548  156.3094 N   0  0  0  0  0  0  0  0  0  0  0  0
  151.4557  139.4550  156.0642 C   0  0  0  0  0  0  0  0  0  0  0  0
  150.3609  138.6173  155.7077 C   0  0  0  0  0  0  0  0  0  0  0  0
  149.2192  139.3911  155.5248 N   0  0  0  0  0  0  0  0  0  0  0  0
  149.6134  140.6104  155.7738 C   0  0  0  0  0  0  0  0  0  0  0  0
  150.9420  140.7377  156.1073 N   0  0  0  0  0  0  0  0  0  0  0  0
  151.6486  141.9628  156.4328 C   0  0  0  0  0  0  0  0  0  0  0  0
  151.0695  142.6521  157.6862 C   0  0  2  0  0  0  0  0  0  0  0  0
  151.1912  144.0567  157.5798 O   0  0  0  0  0  0  0  0  0  0  0  0
  151.7081  142.1950  159.0132 C   0  0  1  0  0  0  0  0  0  0  0  0
  153.2326  142.3278  159.0495 C   0  0  0  0  0  0  0  0  0  0  0  0
  153.4963  142.4478  160.5325 C   0  0  0  0  0  0  0  0  0  0  0  0
  152.3217  143.3101  160.9811 C   0  0  0  0  0  0  0  0  0  0  0  0
  151.2405  142.9701  160.1174 O   0  0  0  0  0  0  0  0  0  0  0  0
  148.4341  136.7356  154.7510 C   0  0  0  0  0  0  0  0  0  0  0  0
  147.2995  135.7156  154.9259 C   0  0  0  0  0  0  0  0  0  0  0  0
  143.9595  135.5975  151.9989 H   0  0  0  0  0  0  0  0  0  0  0  0
  142.9012  134.8156  150.8394 H   0  0  0  0  0  0  0  0  0  0  0  0
  144.5637  135.2019  150.3870 H   0  0  0  0  0  0  0  0  0  0  0  0
  144.4917  131.5877  150.9138 H   0  0  0  0  0  0  0  0  0  0  0  0
  144.8568  132.8634  149.7453 H   0  0  0  0  0  0  0  0  0  0  0  0
  143.1865  132.5511  150.2337 H   0  0  0  0  0  0  0  0  0  0  0  0
  146.1081  132.5385  152.2123 H   0  0  0  0  0  0  0  0  0  0  0  0
  146.3540  134.0489  151.3827 H   0  0  0  0  0  0  0  0  0  0  0  0
  145.1756  135.0323  153.6732 H   0  0  0  0  0  0  0  0  0  0  0  0
  145.6442  133.4942  154.3010 H   0  0  0  0  0  0  0  0  0  0  0  0
  148.1597  133.0818  154.7595 H   0  0  0  0  0  0  0  0  0  0  0  0
  148.1578  133.0265  153.0137 H   0  0  0  0  0  0  0  0  0  0  0  0
  150.3906  133.4022  153.6134 H   0  0  0  0  0  0  0  0  0  0  0  0
  149.8568  134.9203  152.9574 H   0  0  0  0  0  0  0  0  0  0  0  0
  149.8764  134.3104  155.9760 H   0  0  0  0  0  0  0  0  0  0  0  0
  151.2777  134.8865  155.1126 H   0  0  0  0  0  0  0  0  0  0  0  0
  153.8529  137.3396  156.3451 H   0  0  0  0  0  0  0  0  0  0  0  0
  148.9417  141.4550  155.7225 H   0  0  0  0  0  0  0  0  0  0  0  0
  152.6995  141.7142  156.5815 H   0  0  0  0  0  0  0  0  0  0  0  0
  151.6062  142.6288  155.5700 H   0  0  0  0  0  0  0  0  0  0  0  0
  149.9990  142.4482  157.7400 H   0  0  0  0  0  0  0  0  0  0  0  0
  150.5756  144.3603  156.9301 H   0  0  0  0  0  0  0  0  0  0  0  0
  151.4615  141.1500  159.2107 H   0  0  0  0  0  0  0  0  0  0  0  0
  153.7427  141.4795  158.5926 H   0  0  0  0  0  0  0  0  0  0  0  0
  153.5626  143.2343  158.5415 H   0  0  0  0  0  0  0  0  0  0  0  0
  153.4459  141.4652  161.0038 H   0  0  0  0  0  0  0  0  0  0  0  0
  154.4652  142.8910  160.7635 H   0  0  0  0  0  0  0  0  0  0  0  0
  152.0627  143.1524  162.0283 H   0  0  0  0  0  0  0  0  0  0  0  0
  152.5528  144.3673  160.8446 H   0  0  0  0  0  0  0  0  0  0  0  0
  148.1473  137.6384  155.2926 H   0  0  0  0  0  0  0  0  0  0  0  0
  148.5384  137.0248  153.7043 H   0  0  0  0  0  0  0  0  0  0  0  0
  146.3639  136.2767  154.9289 H   0  0  0  0  0  0  0  0  0  0  0  0
  147.3523  135.2084  155.8905 H   0  0  0  0  0  0  0  0  0  0  0  0
  147.4805  135.2952  152.9740 H   0  0  0  0  0  0  0  0  0  0  0  0
  1  2  1  0  0  0  0
  1 30  1  0  0  0  0
  1 31  1  0  0  0  0
  1 32  1  0  0  0  0
  2  3  1  0  0  0  0
  2  4  1  0  0  0  0
  3 33  1  0  0  0  0
  3 34  1  0  0  0  0
  3 35  1  0  0  0  0
  4  5  1  0  0  0  0
  4 36  1  0  0  0  0
  4 37  1  0  0  0  0
  5  6  1  0  0  0  0
  5 38  1  0  0  0  0
  5 39  1  0  0  0  0
  6 29  1  0  0  0  0
  6  7  1  0  0  0  0
  6 63  1  0  0  0  0
  7  8  1  0  0  0  0
  7 40  1  0  0  0  0
  7 41  1  0  0  0  0
  8  9  1  0  0  0  0
  8 42  1  0  0  0  0
  8 43  1  0  0  0  0
  9 10  1  0  0  0  0
  9 44  1  0  0  0  0
  9 45  1  0  0  0  0
 10 11  1  0  0  0  0
 10 28  1  0  0  0  0
 11 16  1  0  0  0  0
 11 12  2  0  0  0  0
 12 13  1  0  0  0  0
 13 14  2  0  0  0  0
 13 46  1  0  0  0  0
 14 15  1  0  0  0  0
 15 19  1  0  0  0  0
 15 16  2  0  0  0  0
 16 17  1  0  0  0  0
 17 18  2  0  0  0  0
 18 19  1  0  0  0  0
 18 47  1  0  0  0  0
 19 20  1  0  0  0  0
 20 21  1  0  0  0  0
 20 48  1  0  0  0  0
 20 49  1  0  0  0  0
 21 22  1  0  0  0  0
 21 23  1  0  0  0  0
 21 50  1  0  0  0  0
 22 51  1  0  0  0  0
 23 27  1  0  0  0  0
 23 24  1  0  0  0  0
 23 52  1  0  0  0  0
 24 25  1  0  0  0  0
 24 53  1  0  0  0  0
 24 54  1  0  0  0  0
 25 26  1  0  0  0  0
 25 55  1  0  0  0  0
 25 56  1  0  0  0  0
 26 27  1  0  0  0  0
 26 57  1  0  0  0  0
 26 58  1  0  0  0  0
 28 29  1  0  0  0  0
 28 59  1  0  0  0  0
 28 60  1  0  0  0  0
 29 61  1  0  0  0  0
 29 62  1  0  0  0  0
M  CHG  1   6   1
M  END
> <s_m_source_file>
AV-unprocessed.smi

> <i_m_source_file_index>
155

> <i_lp_mmshare_version>
43012

> <i_f3d_flags>
0

> <s_epik_input>
W0NIM11OKFtDSDNdKVtDSDJdW0NIMl1OMVtDSDJdW0NIMl1bQ0gyXU4oW0NIMl1bQ0gyXTEpYyhuW2NIXW4yKWMoYzIzKW5bY0hdbjNbQ0gyXVtDQEhdKFtPSF0pW0NAQEhdNFtDSDJdW0NIMl1bQ0gyXU80

> <s_epik_cmdline>
J2VwaWtfcHl0aG9uJywgJy1waCcsICc3LjAnLCAnLXRuJywgJzgnLCAnLW1hJywgJzIwMCcsICctbWV0YWxfYmluZGluZycsICctaW1hZScsICc8aW5maWxlLm1hZT4nLCAnLW9tYWUnLCAnPG91dGZpbGUubWFlPic=

> <r_epik_Ionization_Penalty>
0.0619615

> <r_epik_Ionization_Penalty_Charging>
0.0161638

> <r_epik_Ionization_Penalty_Neutral>
0.0457976

> <r_epik_State_Penalty>
0.403408

> <r_epik_Charging_Adjusted_Penalty>
0.419572

> <i_epik_Tot_Q>
1

> <i_epik_Tot_abs_Q>
1

> <r_epik_Metal_State_Penalty>
0.404222

> <b_epik_Metal_Only>
0

> <s_lp_Force_Field>
OPLS_2005

> <r_lp_Energy>
57.0558

> <b_lp_Chiralities_Consistent>
1

> <s_lp_Variant>
AV-unprocessed.smi:155-5

> <Gold.Version>
5.8.1

> <Gold.Id.Protein>
6NUR|6NUR_protein|mol2

> <Gold.PLP.Fitness>
56.3111

> <Gold.PLP.PLP>
-42.6665

> <Gold.PLP.part.hbond>
-5.0000

> <Gold.PLP.part.metal>
0.0000

> <Gold.PLP.part.buried>
-6.8176

> <Gold.PLP.part.nonpolar>
-31.8217

> <Gold.PLP.part.repulsive>
0.1891

> <Gold.PLP.ligand.clash>
0.0000

> <Gold.PLP.ligand.torsion>
0.8343

> <Gold.PLP.Chemscore.Hbond>
5.0000

> <Gold.PLP.Chemscore.CHOScore>
0.0000

> <Gold.PLP.Chemscore.Metal>
0.0000

> <Gold.Chemscore.Hbonds>
donor molecule, donor type, donor heavy atom, donor atom, acceptor molecule, acceptor atom, score
      L1  H     6    63       P1  7948  1.78
      L1  H    22    51       P1  8028  0.80
      P1  H  7997  8009       L1    14  1.00
      P1  H 10752 10764       L1    12  0.95

> <Gold.PLP.Chemscore.Internal.Correction>
0.3131

> <Gold.Rescore>
     Score         DG    S(hbond)    S(metal)    S(lipo)     H(rot)  DE(clash)    DE(int)     intcor
     16.68     -22.15       3.25        0.00     107.39       2.63       2.32       3.15       ----

> <Gold.Chemscore.Fitness>
16.6774

> <Gold.Chemscore.DG>
-22.1490

> <Gold.Chemscore.ZeroCoef>
-5.4800

> <Gold.Chemscore.Hbond>
3.2464

> <Gold.Chemscore.Metal>
0.0000

> <Gold.Chemscore.Lipo>
107.3933

> <Gold.Chemscore.Internal_Hbond>
0.0000

> <Gold.Chemscore.DEClash>
2.3198

> <Gold.Chemscore.DEInternal>
3.1518

> <Gold.Chemscore.Rot>
2.6324

> <Gold.Chemscore.Internal.Correction>
   9.000000E+99

> <Gold.Chemscore.Hbonds>
donor molecule, donor type, donor heavy atom, donor atom, acceptor molecule, acceptor atom, score
      L1  H     6    63       P1  7948  0.82
      L1  H    22    51       P1  8028  0.74
      P1  H  7997  8009       L1    14  0.88
      P1  H 10752 10764       L1    12  0.21

> <Gold.Chemscore.Hbond.Weighted>
-10.8429

> <Gold.Chemscore.Metal.Weighted>
-0.0000

> <Gold.Chemscore.Lipo.Weighted>
-12.5650

> <Gold.Chemscore.Internal_Hbond.Weighted>
0.0000

> <Gold.Chemscore.DEClash.Weighted>
2.3198

> <Gold.Chemscore.DEInternal.Weighted>
3.1518

> <Gold.Chemscore.Rot.Weighted>
6.7389

> <Gold.Chemscore.Internal.Correction.Weighted>
   9.000000E+99

> <Gold.Protein.RotatedTorsions>
[ 6907 6896 6895 6894 ] final  129.78 input  -60.11 | X-H torsion
[ 7974 7965 7964 7962 ] final   86.20 input  175.53 | X-H torsion
[ 8008 7997 7996 7995 ] final  176.11 input   59.86 | X-H torsion
[ 10167 10162 10161 10158 ] final -128.12 input  -65.29 | X-H torsion
[ 10718 10713 10712 10709 ] final  102.50 input   66.30 | X-H torsion
[ 10763 10752 10751 10750 ] final  -37.31 input  -60.55 | X-H torsion
[ 11005 11000 10999 10996 ] final -162.34 input  -57.11 | X-H torsion

> <Gold.Protein.ActiveResidues>
 VAL166  LYS551  ARG553  GLY616  TRP617  ASP618  TYR619  PRO620  LYS621  CYS622 
 ASP623  PHE694  ASN695  SER759  ASP760  ASP761  ALA762  ILE779  LEU786  VAL792 
 PHE793  MET794  SER795  GLU796  ALA797  LYS798  CYS799  TRP800  GLU811  SER814 

> <Gold.Protein.RotatedAtoms>
  152.3591  133.6274  159.6001 H   0  0  0  0  0  0  0  0  0  0  0  0  # atno 6907 bound_to 6896
  150.7588  133.9453  159.3477 H   0  0  0  0  0  0  0  0  0  0  0  0  # atno 6908 bound_to 6896
  151.7294  135.0879  160.0348 H   0  0  0  0  0  0  0  0  0  0  0  0  # atno 6909 bound_to 6896
  145.5753  139.2318  143.2383 H   0  0  0  0  0  0  0  0  0  0  0  0  # atno 7974 bound_to 7965
  156.0799  140.1392  156.9725 H   0  0  0  0  0  0  0  0  0  0  0  0  # atno 8008 bound_to 7997
  154.4579  140.0954  156.6859 H   0  0  0  0  0  0  0  0  0  0  0  0  # atno 8009 bound_to 7997
  155.5092  140.3453  155.4387 H   0  0  0  0  0  0  0  0  0  0  0  0  # atno 8010 bound_to 7997
  139.9536  143.6028  152.2467 H   0  0  0  0  0  0  0  0  0  0  0  0  # atno 10167 bound_to 10162
  157.6800  131.0754  150.5413 H   0  0  0  0  0  0  0  0  0  0  0  0  # atno 10718 bound_to 10713
  153.8942  135.6809  153.4759 H   0  0  0  0  0  0  0  0  0  0  0  0  # atno 10763 bound_to 10752
  153.1164  135.4759  154.9120 H   0  0  0  0  0  0  0  0  0  0  0  0  # atno 10764 bound_to 10752
  154.7607  135.3210  154.8337 H   0  0  0  0  0  0  0  0  0  0  0  0  # atno 10765 bound_to 10752
  140.6103  134.4856  157.5215 H   0  0  0  0  0  0  0  0  0  0  0  0  # atno 11005 bound_to 11000
  146.1755  140.6580  142.9213 LP  0  0  0  0  0  0  0  0  0  0  0  0  # atno 17320 bound_to 7965
  144.7418  140.4964  143.6863 LP  0  0  0  0  0  0  0  0  0  0  0  0  # atno 17321 bound_to 7965
  139.6609  144.7662  151.1965 LP  0  0  0  0  0  0  0  0  0  0  0  0  # atno 17342 bound_to 10162
  140.7575  143.6012  150.8698 LP  0  0  0  0  0  0  0  0  0  0  0  0  # atno 17343 bound_to 10162
  156.5720  130.4282  149.6015 LP  0  0  0  0  0  0  0  0  0  0  0  0  # atno 17370 bound_to 10713
  156.2732  130.7029  151.1832 LP  0  0  0  0  0  0  0  0  0  0  0  0  # atno 17371 bound_to 10713
  139.9195  134.8178  156.1258 LP  0  0  0  0  0  0  0  0  0  0  0  0  # atno 17394 bound_to 11000
  141.0812  133.6753  156.2341 LP  0  0  0  0  0  0  0  0  0  0  0  0  # atno 17395 bound_to 11000

$$$$
