AV-unprocessed.smi:54|AV-procd|sdf|534|dock7
  -GOLD-   2262016413D 1   1.00000     0.00000
 Structure written by MMmdl.
 44 46  0  0  0  0  0  0  0  0  1 V2000
  150.6808  144.5663  159.7611 C   0  0  0  0  0  0  0  0  0  0  0  0
  152.0708  144.2121  159.2079 C   0  0  0  0  0  0  0  0  0  0  0  0
  152.4986  145.1929  158.1041 C   0  0  0  0  0  0  0  0  0  0  0  0
  152.0935  142.7692  158.6902 C   0  0  0  0  0  0  0  0  0  0  0  0
  152.7997  141.9020  159.2063 O   0  0  0  0  0  0  0  0  0  0  0  0
  151.2333  142.5033  157.5503 N   0  0  0  0  0  0  0  0  0  0  0  0
  151.0733  141.3301  156.8942 C   0  0  0  0  0  0  0  0  0  0  0  0
  149.9730  141.0157  156.2247 N   0  0  0  0  0  0  0  0  0  0  0  0
  150.0003  139.7839  155.6326 C   0  0  0  0  0  0  0  0  0  0  0  0
  151.0373  138.8761  155.6678 C   0  0  0  0  0  0  0  0  0  0  0  0
  150.6968  137.7333  154.9528 N   0  0  0  0  0  0  0  0  0  0  0  0
  149.4909  137.9776  154.5196 C   0  0  0  0  0  0  0  0  0  0  0  0
  148.9906  139.2028  154.8967 N   0  0  0  0  0  0  0  0  0  0  0  0
  147.6641  139.8327  154.5914 C   0  0  1  0  0  0  0  0  0  0  0  0
  147.1480  140.3723  155.7708 O   0  0  0  0  0  0  0  0  0  0  0  0
  147.3595  141.7793  155.7866 C   0  0  2  0  0  0  0  0  0  0  0  0
  146.4311  142.4736  156.7975 C   0  0  0  0  0  0  0  0  0  0  0  0
  147.1972  143.1474  157.7728 O   0  0  0  0  0  0  0  0  0  0  0  0
  147.1390  142.1572  154.3169 C   0  0  2  0  0  0  0  0  0  0  0  0
  145.7574  142.2482  154.0197 O   0  0  0  0  0  0  0  0  0  0  0  0
  147.7732  140.9909  153.5676 C   0  0  1  0  0  0  0  0  0  0  0  0
  149.1029  141.3231  153.2059 O   0  0  0  0  0  0  0  0  0  0  0  0
  152.2375  139.2041  156.3816 C   0  0  0  0  0  0  0  0  0  0  0  0
  153.2538  138.5260  156.5158 O   0  0  0  0  0  0  0  0  0  0  0  0
  152.1696  140.4712  156.9760 N   0  0  0  0  0  0  0  0  0  0  0  0
  147.0398  139.0049  154.2527 H   0  0  0  0  0  0  0  0  0  0  0  0
  148.4026  141.9832  156.0362 H   0  0  0  0  0  0  0  0  0  0  0  0
  147.5993  143.1157  154.0719 H   0  0  0  0  0  0  0  0  0  0  0  0
  147.2238  140.7327  152.6611 H   0  0  0  0  0  0  0  0  0  0  0  0
  150.3711  143.8634  160.5354 H   0  0  0  0  0  0  0  0  0  0  0  0
  149.9219  144.5548  158.9776 H   0  0  0  0  0  0  0  0  0  0  0  0
  150.6808  145.5619  160.2055 H   0  0  0  0  0  0  0  0  0  0  0  0
  152.7879  144.2914  160.0263 H   0  0  0  0  0  0  0  0  0  0  0  0
  153.4857  144.9442  157.7126 H   0  0  0  0  0  0  0  0  0  0  0  0
  152.5470  146.2128  158.4868 H   0  0  0  0  0  0  0  0  0  0  0  0
  151.7973  145.1882  157.2684 H   0  0  0  0  0  0  0  0  0  0  0  0
  150.7054  143.2906  157.2035 H   0  0  0  0  0  0  0  0  0  0  0  0
  148.9427  137.2700  153.9149 H   0  0  0  0  0  0  0  0  0  0  0  0
  145.8161  143.2187  156.2918 H   0  0  0  0  0  0  0  0  0  0  0  0
  145.7560  141.7617  157.2736 H   0  0  0  0  0  0  0  0  0  0  0  0
  147.0929  144.0781  157.6460 H   0  0  0  0  0  0  0  0  0  0  0  0
  145.4491  141.3929  153.7620 H   0  0  0  0  0  0  0  0  0  0  0  0
  149.5064  140.5585  152.8240 H   0  0  0  0  0  0  0  0  0  0  0  0
  152.9803  140.7663  157.5001 H   0  0  0  0  0  0  0  0  0  0  0  0
  1  2  1  0  0  0  0
  1 30  1  0  0  0  0
  1 31  1  0  0  0  0
  1 32  1  0  0  0  0
  2  3  1  0  0  0  0
  2  4  1  0  0  0  0
  2 33  1  0  0  0  0
  3 34  1  0  0  0  0
  3 35  1  0  0  0  0
  3 36  1  0  0  0  0
  4  5  2  0  0  0  0
  4  6  1  0  0  0  0
  6 37  1  0  0  0  0
  6  7  1  0  0  0  0
  7 25  1  0  0  0  0
  7  8  2  0  0  0  0
  8  9  1  0  0  0  0
  9 13  1  0  0  0  0
  9 10  2  0  0  0  0
 10 11  1  0  0  0  0
 10 23  1  0  0  0  0
 11 12  2  0  0  0  0
 12 13  1  0  0  0  0
 12 38  1  0  0  0  0
 13 14  1  0  0  0  0
 14 26  1  0  0  0  0
 14 21  1  0  0  0  0
 14 15  1  0  0  0  0
 15 16  1  0  0  0  0
 16 27  1  0  0  0  0
 16 17  1  0  0  0  0
 16 19  1  0  0  0  0
 17 18  1  0  0  0  0
 17 39  1  0  0  0  0
 17 40  1  0  0  0  0
 18 41  1  0  0  0  0
 19 28  1  0  0  0  0
 19 20  1  0  0  0  0
 19 21  1  0  0  0  0
 20 42  1  0  0  0  0
 21 29  1  0  0  0  0
 21 22  1  0  0  0  0
 22 43  1  0  0  0  0
 23 24  2  0  0  0  0
 23 25  1  0  0  0  0
 25 44  1  0  0  0  0
M  END
> <s_m_source_file>
AV-unprocessed.smi

> <i_m_source_file_index>
54

> <i_lp_mmshare_version>
43012

> <i_f3d_flags>
0

> <s_epik_input>
W0NIM11bQ0hdKFtDSDNdKUMoPU8pW05IXWMobjEpW25IXWMoPU8pYyhjMTIpbltjSF1uMltDQEBIXTNPW0NASF0oW0NIMl1bT0hdKVtDQEBIXShbT0hdKVtDQEhdM1tPSF0=

> <s_epik_cmdline>
J2VwaWtfcHl0aG9uJywgJy1waCcsICc3LjAnLCAnLXRuJywgJzgnLCAnLW1hJywgJzIwMCcsICctbWV0YWxfYmluZGluZycsICctaW1hZScsICc8aW5maWxlLm1hZT4nLCAnLW9tYWUnLCAnPG91dGZpbGUubWFlPic=

> <r_lp_tautomer_probability>
0.85571

> <r_epik_Ionization_Penalty>
0.0316551

> <r_epik_Ionization_Penalty_Charging>
0.0316043

> <r_epik_Ionization_Penalty_Neutral>
5.07097e-05

> <r_epik_State_Penalty>
3.15494e-07

> <r_epik_Charging_Adjusted_Penalty>
0.0316047

> <i_epik_Tot_Q>
0

> <i_epik_Tot_abs_Q>
0

> <r_epik_Metal_State_Penalty>
0.421206

> <b_epik_Metal_Only>
0

> <s_epik_Chemistry_Notes>
This compound contains an acetal/aminal-like group ( X-CH(R)-Y where X, Y are N, S, or O) that may be acid/base labile, releasing an aldehyde.

> <s_lp_Force_Field>
OPLS_2005

> <r_lp_Energy>
41.1485

> <b_lp_Chiralities_Consistent>
1

> <s_lp_Variant>
AV-unprocessed.smi:54-6

> <Gold.Version>
5.8.1

> <Gold.Id.Protein>
6NUR|6NUR_protein|mol2

> <Gold.PLP.Fitness>
46.6895

> <Gold.PLP.PLP>
-37.2345

> <Gold.PLP.part.hbond>
-6.1987

> <Gold.PLP.part.metal>
0.0000

> <Gold.PLP.part.buried>
-3.9741

> <Gold.PLP.part.nonpolar>
-27.9134

> <Gold.PLP.part.repulsive>
0.3900

> <Gold.PLP.ligand.clash>
0.0000

> <Gold.PLP.ligand.torsion>
1.1966

> <Gold.PLP.Chemscore.Hbond>
2.9355

> <Gold.PLP.Chemscore.CHOScore>
1.0000

> <Gold.PLP.Chemscore.Metal>
0.0000

> <Gold.Chemscore.Hbonds>
donor molecule, donor type, donor heavy atom, donor atom, acceptor molecule, acceptor atom, score
      L1  H    18    41       P1  8029  0.55
      L1  H    20    42       P1 10175  0.14
      L1  H    22    43       P1  7957  0.61
      P1  H  7997  8010       L1    24  0.68
      P1  H  8011  8017       L1    22  0.95
      L1  C    12    38       P1  7948  1.00

> <Gold.PLP.Chemscore.Internal.Correction>
0.0417

> <Gold.Rescore>
     Score         DG    S(hbond)    S(metal)    S(lipo)     H(rot)  DE(clash)    DE(int)     intcor
      0.96      -6.01       1.03        0.00      63.63       4.05       0.21       4.84       ----

> <Gold.Chemscore.Fitness>
0.9604

> <Gold.Chemscore.DG>
-6.0116

> <Gold.Chemscore.ZeroCoef>
-5.4800

> <Gold.Chemscore.Hbond>
1.0339

> <Gold.Chemscore.Metal>
0.0000

> <Gold.Chemscore.Lipo>
63.6291

> <Gold.Chemscore.Internal_Hbond>
0.0000

> <Gold.Chemscore.DEClash>
0.2103

> <Gold.Chemscore.DEInternal>
4.8410

> <Gold.Chemscore.Rot>
4.0493

> <Gold.Chemscore.Internal.Correction>
   9.000000E+99

> <Gold.Chemscore.Hbonds>
donor molecule, donor type, donor heavy atom, donor atom, acceptor molecule, acceptor atom, score
      L1  H    18    41       P1  8029  0.03
      L1  H    20    42       P1 10175  0.05
      L1  H    22    43       P1  7957  0.60
      P1  H  7997  8010       L1    24  0.08
      P1  H  8011  8017       L1    22  0.20

> <Gold.Chemscore.Hbond.Weighted>
-3.4533

> <Gold.Chemscore.Metal.Weighted>
-0.0000

> <Gold.Chemscore.Lipo.Weighted>
-7.4446

> <Gold.Chemscore.Internal_Hbond.Weighted>
0.0000

> <Gold.Chemscore.DEClash.Weighted>
0.2103

> <Gold.Chemscore.DEInternal.Weighted>
4.8410

> <Gold.Chemscore.Rot.Weighted>
10.3662

> <Gold.Chemscore.Internal.Correction.Weighted>
   9.000000E+99

> <Gold.Protein.RotatedTorsions>
[ 6907 6896 6895 6894 ] final  150.32 input  -60.11 | X-H torsion
[ 7974 7965 7964 7962 ] final  113.09 input  175.53 | X-H torsion
[ 8008 7997 7996 7995 ] final   52.99 input   59.86 | X-H torsion
[ 10167 10162 10161 10158 ] final -139.15 input  -65.29 | X-H torsion
[ 10718 10713 10712 10709 ] final   62.90 input   66.30 | X-H torsion
[ 10763 10752 10751 10750 ] final   64.88 input  -60.55 | X-H torsion
[ 11005 11000 10999 10996 ] final   83.28 input  -57.11 | X-H torsion

> <Gold.Protein.ActiveResidues>
 VAL166  LYS551  ARG553  GLY616  TRP617  ASP618  TYR619  PRO620  LYS621  CYS622 
 ASP623  PHE694  ASN695  SER759  ASP760  ASP761  ALA762  ILE779  LEU786  VAL792 
 PHE793  MET794  SER795  GLU796  ALA797  LYS798  CYS799  TRP800  GLU811  SER814 

> <Gold.Protein.RotatedAtoms>
  152.1160  133.4327  159.4653 H   0  0  0  0  0  0  0  0  0  0  0  0  # atno 6907 bound_to 6896
  150.6869  134.2591  159.4551 H   0  0  0  0  0  0  0  0  0  0  0  0  # atno 6908 bound_to 6896
  152.0464  134.9680  160.0625 H   0  0  0  0  0  0  0  0  0  0  0  0  # atno 6909 bound_to 6896
  145.2213  139.2861  143.4217 H   0  0  0  0  0  0  0  0  0  0  0  0  # atno 7974 bound_to 7965
  155.4610  140.3462  155.4313 H   0  0  0  0  0  0  0  0  0  0  0  0  # atno 8008 bound_to 7997
  156.1161  140.1474  156.9300 H   0  0  0  0  0  0  0  0  0  0  0  0  # atno 8009 bound_to 7997
  154.4790  140.0876  156.7310 H   0  0  0  0  0  0  0  0  0  0  0  0  # atno 8010 bound_to 7997
  139.8408  143.7325  152.2663 H   0  0  0  0  0  0  0  0  0  0  0  0  # atno 10167 bound_to 10162
  157.5933  130.9075  149.9647 H   0  0  0  0  0  0  0  0  0  0  0  0  # atno 10718 bound_to 10713
  153.0073  135.5377  154.6580 H   0  0  0  0  0  0  0  0  0  0  0  0  # atno 10763 bound_to 10752
  154.5796  135.2849  155.0749 H   0  0  0  0  0  0  0  0  0  0  0  0  # atno 10764 bound_to 10752
  154.1883  135.6504  153.5105 H   0  0  0  0  0  0  0  0  0  0  0  0  # atno 10765 bound_to 10752
  139.9036  134.8133  156.2288 H   0  0  0  0  0  0  0  0  0  0  0  0  # atno 11005 bound_to 11000
  146.3375  140.2520  142.8599 LP  0  0  0  0  0  0  0  0  0  0  0  0  # atno 17320 bound_to 7965
  144.9763  140.8417  143.5425 LP  0  0  0  0  0  0  0  0  0  0  0  0  # atno 17321 bound_to 7965
  139.7561  144.7520  151.0433 LP  0  0  0  0  0  0  0  0  0  0  0  0  # atno 17342 bound_to 10162
  140.7798  143.4804  151.0026 LP  0  0  0  0  0  0  0  0  0  0  0  0  # atno 17343 bound_to 10162
  156.0991  130.3657  150.0250 LP  0  0  0  0  0  0  0  0  0  0  0  0  # atno 17370 bound_to 10713
  156.8369  130.9412  151.3634 LP  0  0  0  0  0  0  0  0  0  0  0  0  # atno 17371 bound_to 10713
  141.0358  133.6964  156.1511 LP  0  0  0  0  0  0  0  0  0  0  0  0  # atno 17394 bound_to 11000
  140.7028  134.4545  157.5585 LP  0  0  0  0  0  0  0  0  0  0  0  0  # atno 17395 bound_to 11000

$$$$
