AV-unprocessed.smi:284|AV-procd|sdf|2158|dock3
  -GOLD-   2262021503D 1   1.00000     0.00000
 Structure written by MMmdl.
 60 62  0  0  0  0  0  0  0  0  1 V2000
  151.6258  133.7756  156.0121 C   0  0  0  0  0  0  0  0  0  0  0  0
  150.5173  134.8160  156.0450 C   0  0  0  0  0  0  0  0  0  0  0  0
  149.4207  134.6739  156.8246 C   0  0  0  0  0  0  0  0  0  0  0  0
  148.3966  135.6007  156.8771 N   0  0  0  0  0  0  0  0  0  0  0  0
  147.1934  135.3950  157.7662 C   0  0  1  0  0  0  0  0  0  0  0  0
  147.1376  133.9610  158.2814 C   0  0  0  0  0  0  0  0  0  0  0  0
  146.4207  134.1688  159.5967 C   0  0  1  0  0  0  0  0  0  0  0  0
  146.6274  133.0834  160.4783 O   0  0  0  0  0  0  0  0  0  0  0  0
  146.9847  135.5179  160.0798 C   0  0  1  0  0  0  0  0  0  0  0  0
  148.2798  135.4458  160.9156 C   0  0  0  0  0  0  0  0  0  0  0  0
  148.4587  136.6275  161.6685 O   0  0  0  0  0  0  0  0  0  0  0  0
  147.2856  136.2351  158.8799 O   0  0  0  0  0  0  0  0  0  0  0  0
  148.4486  136.7461  156.0584 C   0  0  0  0  0  0  0  0  0  0  0  0
  147.5307  137.5699  156.0651 O   0  0  0  0  0  0  0  0  0  0  0  0
  149.5791  136.9236  155.2298 N   0  0  0  0  0  0  0  0  0  0  0  0
  149.6504  138.1392  154.3883 C   0  0  0  0  0  0  0  0  0  0  0  0
  150.2976  139.3397  155.0962 C   0  0  0  0  0  0  0  0  0  0  0  0
  151.3087  139.8686  154.6322 O   0  0  0  0  0  0  0  0  0  0  0  0
  149.6588  139.7593  156.2034 N   0  0  0  0  0  0  0  0  0  0  0  0
  150.0174  140.8092  157.0912 C   0  0  0  0  0  0  0  0  0  0  0  0
  151.3905  141.0595  157.2780 C   0  0  0  0  0  0  0  0  0  0  0  0
  151.8233  142.1004  158.1218 C   0  0  0  0  0  0  0  0  0  0  0  0
  150.8888  142.9266  158.7934 C   0  0  0  0  0  0  0  0  0  0  0  0
  151.3215  144.0802  159.7184 C   0  0  0  0  0  0  0  0  0  0  0  0
  152.2012  143.5243  160.8575 C   0  0  0  0  0  0  0  0  0  0  0  0
  150.1263  144.8166  160.3650 C   0  0  0  0  0  0  0  0  0  0  0  0
  152.1281  145.1199  158.9124 C   0  0  0  0  0  0  0  0  0  0  0  0
  149.5113  142.6773  158.5874 C   0  0  0  0  0  0  0  0  0  0  0  0
  149.0760  141.6366  157.7452 C   0  0  0  0  0  0  0  0  0  0  0  0
  150.6528  136.0000  155.1927 C   0  0  0  0  0  0  0  0  0  0  0  0
  151.6343  136.2058  154.4763 O   0  0  0  0  0  0  0  0  0  0  0  0
  151.4290  132.9508  156.6977 H   0  0  0  0  0  0  0  0  0  0  0  0
  152.5789  134.2236  156.2957 H   0  0  0  0  0  0  0  0  0  0  0  0
  151.7273  133.3589  155.0095 H   0  0  0  0  0  0  0  0  0  0  0  0
  149.3463  133.7843  157.4313 H   0  0  0  0  0  0  0  0  0  0  0  0
  146.3096  135.6881  157.1967 H   0  0  0  0  0  0  0  0  0  0  0  0
  146.6137  133.3065  157.5841 H   0  0  0  0  0  0  0  0  0  0  0  0
  148.1504  133.5861  158.4393 H   0  0  0  0  0  0  0  0  0  0  0  0
  145.3509  134.2729  159.4092 H   0  0  0  0  0  0  0  0  0  0  0  0
  145.7913  132.8211  160.8330 H   0  0  0  0  0  0  0  0  0  0  0  0
  146.2269  136.0745  160.6331 H   0  0  0  0  0  0  0  0  0  0  0  0
  148.2856  134.5772  161.5745 H   0  0  0  0  0  0  0  0  0  0  0  0
  149.1416  135.3505  160.2543 H   0  0  0  0  0  0  0  0  0  0  0  0
  148.1264  136.4807  162.5411 H   0  0  0  0  0  0  0  0  0  0  0  0
  150.1972  137.9552  153.4624 H   0  0  0  0  0  0  0  0  0  0  0  0
  148.6528  138.4257  154.0504 H   0  0  0  0  0  0  0  0  0  0  0  0
  148.7827  139.3006  156.4072 H   0  0  0  0  0  0  0  0  0  0  0  0
  152.1247  140.4475  156.7744 H   0  0  0  0  0  0  0  0  0  0  0  0
  152.8868  142.2429  158.2317 H   0  0  0  0  0  0  0  0  0  0  0  0
  152.5115  144.3152  161.5413 H   0  0  0  0  0  0  0  0  0  0  0  0
  153.1096  143.0531  160.4819 H   0  0  0  0  0  0  0  0  0  0  0  0
  151.6628  142.7783  161.4431 H   0  0  0  0  0  0  0  0  0  0  0  0
  149.5268  144.1487  160.9850 H   0  0  0  0  0  0  0  0  0  0  0  0
  149.4725  145.2606  159.6133 H   0  0  0  0  0  0  0  0  0  0  0  0
  150.4653  145.6276  161.0105 H   0  0  0  0  0  0  0  0  0  0  0  0
  152.4284  145.9610  159.5384 H   0  0  0  0  0  0  0  0  0  0  0  0
  151.5393  145.5213  158.0867 H   0  0  0  0  0  0  0  0  0  0  0  0
  153.0398  144.6975  158.4902 H   0  0  0  0  0  0  0  0  0  0  0  0
  148.7673  143.2921  159.0715 H   0  0  0  0  0  0  0  0  0  0  0  0
  148.0146  141.5029  157.6036 H   0  0  0  0  0  0  0  0  0  0  0  0
  1  2  1  0  0  0  0
  1 32  1  0  0  0  0
  1 33  1  0  0  0  0
  1 34  1  0  0  0  0
  2 30  1  0  0  0  0
  2  3  2  0  0  0  0
  3  4  1  0  0  0  0
  3 35  1  0  0  0  0
  4  5  1  0  0  0  0
  4 13  1  0  0  0  0
  5 12  1  0  0  0  0
  5  6  1  0  0  0  0
  5 36  1  0  0  0  0
  6  7  1  0  0  0  0
  6 37  1  0  0  0  0
  6 38  1  0  0  0  0
  7  8  1  0  0  0  0
  7  9  1  0  0  0  0
  7 39  1  0  0  0  0
  8 40  1  0  0  0  0
  9 10  1  0  0  0  0
  9 12  1  0  0  0  0
  9 41  1  0  0  0  0
 10 11  1  0  0  0  0
 10 42  1  0  0  0  0
 10 43  1  0  0  0  0
 11 44  1  0  0  0  0
 13 14  2  0  0  0  0
 13 15  1  0  0  0  0
 15 16  1  0  0  0  0
 15 30  1  0  0  0  0
 16 17  1  0  0  0  0
 16 45  1  0  0  0  0
 16 46  1  0  0  0  0
 17 18  2  0  0  0  0
 17 19  1  0  0  0  0
 19 20  1  0  0  0  0
 19 47  1  0  0  0  0
 20 29  1  0  0  0  0
 20 21  2  0  0  0  0
 21 22  1  0  0  0  0
 21 48  1  0  0  0  0
 22 23  2  0  0  0  0
 22 49  1  0  0  0  0
 23 24  1  0  0  0  0
 23 28  1  0  0  0  0
 24 25  1  0  0  0  0
 24 26  1  0  0  0  0
 24 27  1  0  0  0  0
 25 50  1  0  0  0  0
 25 51  1  0  0  0  0
 25 52  1  0  0  0  0
 26 53  1  0  0  0  0
 26 54  1  0  0  0  0
 26 55  1  0  0  0  0
 27 56  1  0  0  0  0
 27 57  1  0  0  0  0
 27 58  1  0  0  0  0
 28 29  2  0  0  0  0
 28 59  1  0  0  0  0
 29 60  1  0  0  0  0
 30 31  2  0  0  0  0
M  END
> <s_m_source_file>
AV-unprocessed.smi

> <i_m_source_file_index>
284

> <i_lp_mmshare_version>
43012

> <i_f3d_flags>
0

> <s_epik_input>
W09IXVtDSDJdW0NAQEhdKE8xKVtDQEhdKFtPSF0pW0NIMl1bQ0BIXTFuKFtjSF1jMltDSDNdKWMoPU8pbihjMj1PKVtDSDJdQyg9TylbTkhdYzNbY0hdW2NIXWMoQyhbQ0gzXSkoW0NIM10pW0NIM10pW2NIXVtjSF0z

> <s_epik_cmdline>
J2VwaWtfcHl0aG9uJywgJy1waCcsICc3LjAnLCAnLXRuJywgJzgnLCAnLW1hJywgJzIwMCcsICctbWV0YWxfYmluZGluZycsICctaW1hZScsICc8aW5maWxlLm1hZT4nLCAnLW9tYWUnLCAnPG91dGZpbGUubWFlPic=

> <r_lp_tautomer_probability>
1

> <r_epik_Ionization_Penalty>
4.92358e-06

> <r_epik_Ionization_Penalty_Charging>
1.29777e-07

> <r_epik_Ionization_Penalty_Neutral>
4.79381e-06

> <r_epik_State_Penalty>
-0

> <r_epik_Charging_Adjusted_Penalty>
1.29777e-07

> <i_epik_Tot_Q>
0

> <i_epik_Tot_abs_Q>
0

> <r_epik_Metal_State_Penalty>
-0

> <b_epik_Metal_Only>
0

> <s_epik_Chemistry_Notes>
This compound contains an acetal/aminal-like group ( X-CH(R)-Y where X, Y are N, S, or O) that may be acid/base labile, releasing an aldehyde.

> <s_lp_Force_Field>
OPLS_2005

> <r_lp_Energy>
41.7726

> <b_lp_Chiralities_Consistent>
1

> <s_lp_Variant>
AV-unprocessed.smi:284-2

> <Gold.Version>
5.8.1

> <Gold.Id.Protein>
6NUR|6NUR_protein|mol2

> <Gold.PLP.Fitness>
48.8640

> <Gold.PLP.PLP>
-39.7595

> <Gold.PLP.part.hbond>
-4.0000

> <Gold.PLP.part.metal>
0.0000

> <Gold.PLP.part.buried>
-7.1110

> <Gold.PLP.part.nonpolar>
-29.1569

> <Gold.PLP.part.repulsive>
0.2802

> <Gold.PLP.ligand.clash>
0.0000

> <Gold.PLP.ligand.torsion>
1.2025

> <Gold.PLP.Chemscore.Hbond>
3.7920

> <Gold.PLP.Chemscore.CHOScore>
0.0000

> <Gold.PLP.Chemscore.Metal>
0.0000

> <Gold.Chemscore.Hbonds>
donor molecule, donor type, donor heavy atom, donor atom, acceptor molecule, acceptor atom, score
      P1  H  6931  6943       L1    11  0.90
      P1  H  7989  7998       L1    18  1.00
      P1  H 10752 10763       L1    31  0.70

> <Gold.PLP.Chemscore.Internal.Correction>
0.1334

> <Gold.Rescore>
     Score         DG    S(hbond)    S(metal)    S(lipo)     H(rot)  DE(clash)    DE(int)     intcor
     18.68     -21.50       3.39        0.00     111.71       3.27       0.04       2.77       ----

> <Gold.Chemscore.Fitness>
18.6813

> <Gold.Chemscore.DG>
-21.4952

> <Gold.Chemscore.ZeroCoef>
-5.4800

> <Gold.Chemscore.Hbond>
3.3909

> <Gold.Chemscore.Metal>
0.0000

> <Gold.Chemscore.Lipo>
111.7052

> <Gold.Chemscore.Internal_Hbond>
0.0000

> <Gold.Chemscore.DEClash>
0.0442

> <Gold.Chemscore.DEInternal>
2.7697

> <Gold.Chemscore.Rot>
3.2735

> <Gold.Chemscore.Internal.Correction>
   9.000000E+99

> <Gold.Chemscore.Hbonds>
donor molecule, donor type, donor heavy atom, donor atom, acceptor molecule, acceptor atom, score
      P1  H  6931  6943       L1    11  0.18
      P1  H  7989  7998       L1    18  0.94
      P1  H 10752 10763       L1    31  0.71

> <Gold.Chemscore.Hbond.Weighted>
-11.3257

> <Gold.Chemscore.Metal.Weighted>
-0.0000

> <Gold.Chemscore.Lipo.Weighted>
-13.0695

> <Gold.Chemscore.Internal_Hbond.Weighted>
0.0000

> <Gold.Chemscore.DEClash.Weighted>
0.0442

> <Gold.Chemscore.DEInternal.Weighted>
2.7697

> <Gold.Chemscore.Rot.Weighted>
8.3801

> <Gold.Chemscore.Internal.Correction.Weighted>
   9.000000E+99

> <Gold.Protein.RotatedTorsions>
[ 6907 6896 6895 6894 ] final   77.47 input  -60.11 | X-H torsion
[ 7974 7965 7964 7962 ] final  -45.03 input  175.53 | X-H torsion
[ 8008 7997 7996 7995 ] final  144.07 input   59.86 | X-H torsion
[ 10167 10162 10161 10158 ] final   53.28 input  -65.29 | X-H torsion
[ 10718 10713 10712 10709 ] final  -26.23 input   66.30 | X-H torsion
[ 10763 10752 10751 10750 ] final   50.98 input  -60.55 | X-H torsion
[ 11005 11000 10999 10996 ] final -107.21 input  -57.11 | X-H torsion

> <Gold.Protein.ActiveResidues>
 VAL166  LYS551  ARG553  GLY616  TRP617  ASP618  TYR619  PRO620  LYS621  CYS622 
 ASP623  PHE694  ASN695  SER759  ASP760  ASP761  ALA762  ILE779  LEU786  VAL792 
 PHE793  MET794  SER795  GLU796  ALA797  LYS798  CYS799  TRP800  GLU811  SER814 

> <Gold.Protein.RotatedAtoms>
  152.5119  134.3811  159.9351 H   0  0  0  0  0  0  0  0  0  0  0  0  # atno 6907 bound_to 6896
  151.3768  133.3829  159.2713 H   0  0  0  0  0  0  0  0  0  0  0  0  # atno 6908 bound_to 6896
  150.9535  134.8952  159.7745 H   0  0  0  0  0  0  0  0  0  0  0  0  # atno 6909 bound_to 6896
  145.9861  140.7231  142.9340 H   0  0  0  0  0  0  0  0  0  0  0  0  # atno 7974 bound_to 7965
  156.2916  140.2245  156.4993 H   0  0  0  0  0  0  0  0  0  0  0  0  # atno 8008 bound_to 7997
  154.7703  140.0467  157.1067 H   0  0  0  0  0  0  0  0  0  0  0  0  # atno 8009 bound_to 7997
  154.9882  140.3087  155.4921 H   0  0  0  0  0  0  0  0  0  0  0  0  # atno 8010 bound_to 7997
  140.2424  144.3569  150.6376 H   0  0  0  0  0  0  0  0  0  0  0  0  # atno 10167 bound_to 10162
  156.4540  130.4490  149.6971 H   0  0  0  0  0  0  0  0  0  0  0  0  # atno 10718 bound_to 10713
  152.9785  135.5861  154.4341 H   0  0  0  0  0  0  0  0  0  0  0  0  # atno 10763 bound_to 10752
  154.3950  135.2768  155.2133 H   0  0  0  0  0  0  0  0  0  0  0  0  # atno 10764 bound_to 10752
  154.3989  135.6108  153.5940 H   0  0  0  0  0  0  0  0  0  0  0  0  # atno 10765 bound_to 10752
  141.0966  133.8960  157.1948 H   0  0  0  0  0  0  0  0  0  0  0  0  # atno 11005 bound_to 11000
  144.6875  140.2991  143.7266 LP  0  0  0  0  0  0  0  0  0  0  0  0  # atno 17320 bound_to 7965
  145.7698  139.1853  143.2219 LP  0  0  0  0  0  0  0  0  0  0  0  0  # atno 17321 bound_to 7965
  140.6103  143.2169  151.6898 LP  0  0  0  0  0  0  0  0  0  0  0  0  # atno 17342 bound_to 10162
  139.5073  144.3651  152.0524 LP  0  0  0  0  0  0  0  0  0  0  0  0  # atno 17343 bound_to 10162
  156.3786  130.7567  151.2558 LP  0  0  0  0  0  0  0  0  0  0  0  0  # atno 17370 bound_to 10713
  157.7501  131.0302  150.4127 LP  0  0  0  0  0  0  0  0  0  0  0  0  # atno 17371 bound_to 10713
  139.9804  135.0100  156.9735 LP  0  0  0  0  0  0  0  0  0  0  0  0  # atno 17394 bound_to 11000
  140.5126  134.0987  155.7273 LP  0  0  0  0  0  0  0  0  0  0  0  0  # atno 17395 bound_to 11000

$$$$
