AV-unprocessed.smi:3350|AV-procd|sdf|12941|dock9
  -GOLD-   2272019373D 1   1.00000     0.00000
 Structure written by MMmdl.
 41 42  0  0  0  0  0  0  0  0  1 V2000
  153.0315  137.1582  156.7134 C   0  0  0  0  0  0  0  0  0  0  0  0
  151.9381  138.2074  156.4709 C   0  0  2  0  0  0  0  0  0  0  0  0
  151.6256  138.3580  154.9666 C   0  0  0  0  0  0  0  0  0  0  0  0
  150.5205  139.2667  154.7117 N   0  0  0  0  0  0  0  0  0  0  0  0
  149.3031  138.9928  154.1250 C   0  0  0  0  0  0  0  0  0  0  0  0
  148.5842  140.1538  154.1194 C   0  0  0  0  0  0  0  0  0  0  0  0
  149.4601  141.0961  154.7268 C   0  0  0  0  0  0  0  0  0  0  0  0
  150.6188  140.5633  155.0785 N   0  0  0  0  0  0  0  0  0  0  0  0
  152.3651  139.4850  157.0404 N   0  0  0  0  0  0  0  0  0  0  0  0
  152.3731  139.7887  158.3466 C   0  0  0  0  0  0  0  0  0  0  0  0
  152.0939  138.9926  159.2435 O   0  0  0  0  0  0  0  0  0  0  0  0
  152.6875  141.0749  158.5534 N   0  0  0  0  0  0  0  0  0  0  0  0
  152.6913  141.7462  159.8508 C   0  0  1  0  0  0  0  0  0  0  0  0
  153.8572  141.1900  160.6826 C   0  0  0  0  0  0  0  0  0  0  0  0
  152.7907  143.2751  159.6545 C   0  0  2  0  0  0  0  0  0  0  0  0
  152.1841  144.1078  160.7876 C   0  0  0  0  0  0  0  0  0  0  0  0
  151.7451  145.3987  160.1100 C   0  0  0  0  0  0  0  0  0  0  0  0
  151.9128  145.1128  158.6177 C   0  0  0  0  0  0  0  0  0  0  0  0
  152.0254  143.7013  158.5369 O   0  0  0  0  0  0  0  0  0  0  0  0
  152.7329  136.1848  156.3234 H   0  0  0  0  0  0  0  0  0  0  0  0
  153.2315  137.0374  157.7787 H   0  0  0  0  0  0  0  0  0  0  0  0
  153.9669  137.4389  156.2275 H   0  0  0  0  0  0  0  0  0  0  0  0
  151.0378  137.8563  156.9781 H   0  0  0  0  0  0  0  0  0  0  0  0
  152.5078  138.7056  154.4259 H   0  0  0  0  0  0  0  0  0  0  0  0
  151.3631  137.3887  154.5409 H   0  0  0  0  0  0  0  0  0  0  0  0
  149.0499  138.0038  153.7729 H   0  0  0  0  0  0  0  0  0  0  0  0
  147.5843  140.3063  153.7420 H   0  0  0  0  0  0  0  0  0  0  0  0
  149.2886  142.1441  154.9235 H   0  0  0  0  0  0  0  0  0  0  0  0
  152.6116  140.2121  156.3853 H   0  0  0  0  0  0  0  0  0  0  0  0
  152.8944  141.6465  157.7476 H   0  0  0  0  0  0  0  0  0  0  0  0
  151.7654  141.5153  160.3812 H   0  0  0  0  0  0  0  0  0  0  0  0
  153.8694  141.6162  161.6859 H   0  0  0  0  0  0  0  0  0  0  0  0
  154.8182  141.4093  160.2163 H   0  0  0  0  0  0  0  0  0  0  0  0
  153.7791  140.1080  160.7919 H   0  0  0  0  0  0  0  0  0  0  0  0
  153.8303  143.5699  159.4967 H   0  0  0  0  0  0  0  0  0  0  0  0
  151.3114  143.6033  161.2047 H   0  0  0  0  0  0  0  0  0  0  0  0
  152.8909  144.2795  161.5999 H   0  0  0  0  0  0  0  0  0  0  0  0
  150.7061  145.6221  160.3543 H   0  0  0  0  0  0  0  0  0  0  0  0
  152.3531  146.2505  160.4161 H   0  0  0  0  0  0  0  0  0  0  0  0
  151.0786  145.4805  158.0200 H   0  0  0  0  0  0  0  0  0  0  0  0
  152.8300  145.5666  158.2397 H   0  0  0  0  0  0  0  0  0  0  0  0
  1  2  1  0  0  0  0
  1 20  1  0  0  0  0
  1 21  1  0  0  0  0
  1 22  1  0  0  0  0
  2  3  1  0  0  0  0
  2  9  1  0  0  0  0
  2 23  1  0  0  0  0
  3  4  1  0  0  0  0
  3 24  1  0  0  0  0
  3 25  1  0  0  0  0
  4  8  1  0  0  0  0
  4  5  1  0  0  0  0
  5  6  2  0  0  0  0
  5 26  1  0  0  0  0
  6  7  1  0  0  0  0
  6 27  1  0  0  0  0
  7  8  2  0  0  0  0
  7 28  1  0  0  0  0
  9 10  1  0  0  0  0
  9 29  1  0  0  0  0
 10 11  2  0  0  0  0
 10 12  1  0  0  0  0
 12 13  1  0  0  0  0
 12 30  1  0  0  0  0
 13 14  1  0  0  0  0
 13 15  1  0  0  0  0
 13 31  1  0  0  0  0
 14 32  1  0  0  0  0
 14 33  1  0  0  0  0
 14 34  1  0  0  0  0
 15 19  1  0  0  0  0
 15 16  1  0  0  0  0
 15 35  1  0  0  0  0
 16 17  1  0  0  0  0
 16 36  1  0  0  0  0
 16 37  1  0  0  0  0
 17 18  1  0  0  0  0
 17 38  1  0  0  0  0
 17 39  1  0  0  0  0
 18 19  1  0  0  0  0
 18 40  1  0  0  0  0
 18 41  1  0  0  0  0
M  END
> <s_m_source_file>
AV-unprocessed.smi

> <i_m_source_file_index>
3350

> <i_lp_mmshare_version>
43012

> <i_f3d_flags>
0

> <s_epik_input>
bjFbY0hdW2NIXVtjSF1uMVtDSDJdW0NAQEhdKFtDSDNdKVtOSF1DKD1PKVtOSF1bQ0BIXShbQ0gzXSlbQ0BASF0yW0NIMl1bQ0gyXVtDSDJdTzI=

> <s_epik_cmdline>
J2VwaWtfcHl0aG9uJywgJy1waCcsICc3LjAnLCAnLXRuJywgJzgnLCAnLW1hJywgJzIwMCcsICctbWV0YWxfYmluZGluZycsICctaW1hZScsICc8aW5maWxlLm1hZT4nLCAnLW9tYWUnLCAnPG91dGZpbGUubWFlPic=

> <r_lp_tautomer_probability>
1

> <r_epik_Ionization_Penalty>
6.42349e-05

> <r_epik_Ionization_Penalty_Charging>
0

> <r_epik_Ionization_Penalty_Neutral>
6.42349e-05

> <r_epik_State_Penalty>
-0

> <r_epik_Charging_Adjusted_Penalty>
0

> <i_epik_Tot_Q>
0

> <i_epik_Tot_abs_Q>
0

> <r_epik_Metal_State_Penalty>
-0

> <b_epik_Metal_Only>
0

> <s_lp_Force_Field>
OPLS_2005

> <r_lp_Energy>
14.9436

> <b_lp_Chiralities_Consistent>
1

> <s_lp_Variant>
AV-unprocessed.smi:3350-3

> <Gold.Version>
5.8.1

> <Gold.Id.Protein>
6NUR|6NUR_protein|mol2

> <Gold.PLP.Fitness>
45.8617

> <Gold.PLP.PLP>
-41.8033

> <Gold.PLP.part.hbond>
-1.0000

> <Gold.PLP.part.metal>
0.0000

> <Gold.PLP.part.buried>
-2.0500

> <Gold.PLP.part.nonpolar>
-37.2723

> <Gold.PLP.part.repulsive>
0.3389

> <Gold.PLP.ligand.clash>
0.0000

> <Gold.PLP.ligand.torsion>
0.8631

> <Gold.PLP.Chemscore.Hbond>
0.4392

> <Gold.PLP.Chemscore.CHOScore>
1.4701

> <Gold.PLP.Chemscore.Metal>
0.0000

> <Gold.Chemscore.Hbonds>
donor molecule, donor type, donor heavy atom, donor atom, acceptor molecule, acceptor atom, score
      P1  H  7989  7998       L1     8  0.44
      L1  C     5    26       P1  7948  0.86
      L1  C     7    28       P1  8028  0.58

> <Gold.PLP.Chemscore.Internal.Correction>
0.0566

> <Gold.Rescore>
     Score         DG    S(hbond)    S(metal)    S(lipo)     H(rot)  DE(clash)    DE(int)     intcor
     12.87     -13.70       0.00        0.00     109.99       1.82       0.16       0.67       ----

> <Gold.Chemscore.Fitness>
12.8684

> <Gold.Chemscore.DG>
-13.6959

> <Gold.Chemscore.ZeroCoef>
-5.4800

> <Gold.Chemscore.Hbond>
0.0018

> <Gold.Chemscore.Metal>
0.0000

> <Gold.Chemscore.Lipo>
109.9855

> <Gold.Chemscore.Internal_Hbond>
0.0000

> <Gold.Chemscore.DEClash>
0.1596

> <Gold.Chemscore.DEInternal>
0.6679

> <Gold.Chemscore.Rot>
1.8197

> <Gold.Chemscore.Internal.Correction>
   9.000000E+99

> <Gold.Chemscore.Hbond.Weighted>
-0.0060

> <Gold.Chemscore.Metal.Weighted>
-0.0000

> <Gold.Chemscore.Lipo.Weighted>
-12.8683

> <Gold.Chemscore.Internal_Hbond.Weighted>
0.0000

> <Gold.Chemscore.DEClash.Weighted>
0.1596

> <Gold.Chemscore.DEInternal.Weighted>
0.6679

> <Gold.Chemscore.Rot.Weighted>
4.6583

> <Gold.Chemscore.Internal.Correction.Weighted>
   9.000000E+99

> <Gold.Protein.RotatedTorsions>
[ 6907 6896 6895 6894 ] final  172.48 input  -60.11 | X-H torsion
[ 7974 7965 7964 7962 ] final  -67.14 input  175.53 | X-H torsion
[ 8008 7997 7996 7995 ] final   49.94 input   59.86 | X-H torsion
[ 10167 10162 10161 10158 ] final -126.24 input  -65.29 | X-H torsion
[ 10718 10713 10712 10709 ] final  122.58 input   66.30 | X-H torsion
[ 10763 10752 10751 10750 ] final -167.31 input  -60.55 | X-H torsion
[ 11005 11000 10999 10996 ] final   -6.95 input  -57.11 | X-H torsion

> <Gold.Protein.ActiveResidues>
 VAL166  LYS551  ARG553  GLY616  TRP617  ASP618  TYR619  PRO620  LYS621  CYS622 
 ASP623  PHE694  ASN695  SER759  ASP760  ASP761  ALA762  ILE779  LEU786  VAL792 
 PHE793  MET794  SER795  GLU796  ALA797  LYS798  CYS799  TRP800  GLU811  SER814 

> <Gold.Protein.RotatedAtoms>
  151.7835  133.3352  159.3478 H   0  0  0  0  0  0  0  0  0  0  0  0  # atno 6907 bound_to 6896
  150.7417  134.5908  159.5996 H   0  0  0  0  0  0  0  0  0  0  0  0  # atno 6908 bound_to 6896
  152.3259  134.7322  160.0353 H   0  0  0  0  0  0  0  0  0  0  0  0  # atno 6909 bound_to 6896
  145.7330  140.8988  143.0570 H   0  0  0  0  0  0  0  0  0  0  0  0  # atno 7974 bound_to 7965
  155.4106  140.3442  155.4263 H   0  0  0  0  0  0  0  0  0  0  0  0  # atno 8008 bound_to 7997
  156.1451  140.1554  156.8891 H   0  0  0  0  0  0  0  0  0  0  0  0  # atno 8009 bound_to 7997
  154.5003  140.0816  156.7765 H   0  0  0  0  0  0  0  0  0  0  0  0  # atno 8010 bound_to 7997
  139.9736  143.5819  152.2404 H   0  0  0  0  0  0  0  0  0  0  0  0  # atno 10167 bound_to 10162
  157.5731  131.1081  150.8329 H   0  0  0  0  0  0  0  0  0  0  0  0  # atno 10718 bound_to 10713
  154.6745  135.2944  154.9698 H   0  0  0  0  0  0  0  0  0  0  0  0  # atno 10763 bound_to 10752
  154.0714  135.6617  153.4829 H   0  0  0  0  0  0  0  0  0  0  0  0  # atno 10764 bound_to 10752
  153.0507  135.5175  154.7757 H   0  0  0  0  0  0  0  0  0  0  0  0  # atno 10765 bound_to 10752
  140.7075  133.8937  155.8727 H   0  0  0  0  0  0  0  0  0  0  0  0  # atno 11005 bound_to 11000
  144.6888  139.9356  143.7473 LP  0  0  0  0  0  0  0  0  0  0  0  0  # atno 17320 bound_to 7965
  146.0520  139.3520  143.0633 LP  0  0  0  0  0  0  0  0  0  0  0  0  # atno 17321 bound_to 7965
  139.6462  144.7658  151.2238 LP  0  0  0  0  0  0  0  0  0  0  0  0  # atno 17342 bound_to 10162
  140.7513  143.6235  150.8491 LP  0  0  0  0  0  0  0  0  0  0  0  0  # atno 17343 bound_to 10162
  156.8795  130.5174  149.5292 LP  0  0  0  0  0  0  0  0  0  0  0  0  # atno 17370 bound_to 10713
  156.0776  130.5794  150.9503 LP  0  0  0  0  0  0  0  0  0  0  0  0  # atno 17371 bound_to 10713
  141.0112  134.1018  157.4219 LP  0  0  0  0  0  0  0  0  0  0  0  0  # atno 17394 bound_to 11000
  139.8880  135.0094  156.6595 LP  0  0  0  0  0  0  0  0  0  0  0  0  # atno 17395 bound_to 11000

$$$$
