AV-unprocessed.smi:123|AV-procd|sdf|1145|dock4
  -GOLD-   2262018273D 1   1.00000     0.00000
 Structure written by MMmdl.
 43 45  0  0  0  0  0  0  0  0  1 V2000
  158.1104  135.9100  156.5462 C   0  0  0  0  0  0  0  0  0  0  0  0
  157.3948  137.2730  156.5144 C   0  0  2  0  0  0  0  0  0  0  0  0
  156.2661  137.3031  157.4462 N   0  0  0  0  0  0  0  0  0  0  0  0
  155.9274  138.3124  158.2662 C   0  0  0  0  0  0  0  0  0  0  0  0
  156.5442  139.3778  158.3209 O   0  0  0  0  0  0  0  0  0  0  0  0
  154.7004  138.0622  159.1565 C   0  0  0  0  0  0  0  0  0  0  0  0
  153.6644  139.1114  159.0386 N   0  0  0  0  0  0  0  0  0  0  0  0
  152.4844  138.8244  158.3084 C   0  0  0  0  0  0  0  0  0  0  0  0
  152.3043  137.7198  157.7934 O   0  0  0  0  0  0  0  0  0  0  0  0
  151.5254  139.9185  158.2060 C   0  0  0  0  0  0  0  0  0  0  0  0
  150.3795  139.7379  157.5275 F   0  0  0  0  0  0  0  0  0  0  0  0
  151.7722  141.1147  158.7785 C   0  0  0  0  0  0  0  0  0  0  0  0
  152.9282  141.3803  159.4898 N   0  0  0  0  0  0  0  0  0  0  0  0
  153.1843  142.7395  160.1035 C   0  0  1  0  0  0  0  0  0  0  0  0
  153.1685  143.8216  159.0184 C   0  0  0  0  0  0  0  0  0  0  0  0
  151.7238  144.2700  159.0504 C   0  0  0  0  0  0  0  0  0  0  0  0
  151.3978  144.1494  160.5350 C   0  0  0  0  0  0  0  0  0  0  0  0
  152.1573  143.0377  161.0056 O   0  0  0  0  0  0  0  0  0  0  0  0
  153.9113  140.3761  159.6243 C   0  0  0  0  0  0  0  0  0  0  0  0
  154.9630  140.6020  160.2273 O   0  0  0  0  0  0  0  0  0  0  0  0
  157.0096  137.7236  155.1352 C   0  0  0  0  0  0  0  0  0  0  0  0
  157.7150  138.0298  154.0027 C   0  0  0  0  0  0  0  0  0  0  0  0
  156.7575  138.3951  153.0165 C   0  0  0  0  0  0  0  0  0  0  0  0
  155.5374  138.2916  153.6205 C   0  0  0  0  0  0  0  0  0  0  0  0
  155.6733  137.8870  154.9123 O   0  0  0  0  0  0  0  0  0  0  0  0
  159.0275  135.9385  155.9573 H   0  0  0  0  0  0  0  0  0  0  0  0
  157.4853  135.1133  156.1415 H   0  0  0  0  0  0  0  0  0  0  0  0
  158.3844  135.6332  157.5648 H   0  0  0  0  0  0  0  0  0  0  0  0
  158.1025  138.0058  156.9035 H   0  0  0  0  0  0  0  0  0  0  0  0
  155.6960  136.4704  157.4788 H   0  0  0  0  0  0  0  0  0  0  0  0
  154.2949  137.0783  158.9160 H   0  0  0  0  0  0  0  0  0  0  0  0
  155.0353  137.9642  160.1907 H   0  0  0  0  0  0  0  0  0  0  0  0
  151.0290  141.8889  158.6619 H   0  0  0  0  0  0  0  0  0  0  0  0
  154.1323  142.6570  160.6373 H   0  0  0  0  0  0  0  0  0  0  0  0
  153.8279  144.6338  159.3267 H   0  0  0  0  0  0  0  0  0  0  0  0
  153.4982  143.4469  158.0486 H   0  0  0  0  0  0  0  0  0  0  0  0
  151.5794  145.2784  158.6620 H   0  0  0  0  0  0  0  0  0  0  0  0
  151.1035  143.5873  158.4684 H   0  0  0  0  0  0  0  0  0  0  0  0
  151.7239  145.0437  161.0673 H   0  0  0  0  0  0  0  0  0  0  0  0
  150.3323  144.0132  160.7216 H   0  0  0  0  0  0  0  0  0  0  0  0
  158.7889  137.9902  153.8945 H   0  0  0  0  0  0  0  0  0  0  0  0
  156.9386  138.6963  151.9952 H   0  0  0  0  0  0  0  0  0  0  0  0
  154.5215  138.4600  153.2943 H   0  0  0  0  0  0  0  0  0  0  0  0
  1  2  1  0  0  0  0
  1 26  1  0  0  0  0
  1 27  1  0  0  0  0
  1 28  1  0  0  0  0
  2  3  1  0  0  0  0
  2 21  1  0  0  0  0
  2 29  1  0  0  0  0
  3  4  1  0  0  0  0
  3 30  1  0  0  0  0
  4  5  2  0  0  0  0
  4  6  1  0  0  0  0
  6  7  1  0  0  0  0
  6 31  1  0  0  0  0
  6 32  1  0  0  0  0
  7 19  1  0  0  0  0
  7  8  1  0  0  0  0
  8  9  2  0  0  0  0
  8 10  1  0  0  0  0
 10 11  1  0  0  0  0
 10 12  2  0  0  0  0
 12 13  1  0  0  0  0
 12 33  1  0  0  0  0
 13 14  1  0  0  0  0
 13 19  1  0  0  0  0
 14 18  1  0  0  0  0
 14 15  1  0  0  0  0
 14 34  1  0  0  0  0
 15 16  1  0  0  0  0
 15 35  1  0  0  0  0
 15 36  1  0  0  0  0
 16 17  1  0  0  0  0
 16 37  1  0  0  0  0
 16 38  1  0  0  0  0
 17 18  1  0  0  0  0
 17 39  1  0  0  0  0
 17 40  1  0  0  0  0
 19 20  2  0  0  0  0
 21 25  1  0  0  0  0
 21 22  2  0  0  0  0
 22 23  1  0  0  0  0
 22 41  1  0  0  0  0
 23 24  2  0  0  0  0
 23 42  1  0  0  0  0
 24 25  1  0  0  0  0
 24 43  1  0  0  0  0
M  END
> <s_m_source_file>
AV-unprocessed.smi

> <i_m_source_file_index>
123

> <i_lp_mmshare_version>
43012

> <i_f3d_flags>
0

> <s_epik_input>
bzFbY0hdW2NIXVtjSF1jMVtDQEhdKFtDSDNdKVtOSF1DKD1PKVtDSDJdbjJjKD1PKWMoRilbY0hdbihjMj1PKVtDQEBIXTNbQ0gyXVtDSDJdW0NIMl1PMw==

> <s_epik_cmdline>
J2VwaWtfcHl0aG9uJywgJy1waCcsICc3LjAnLCAnLXRuJywgJzgnLCAnLW1hJywgJzIwMCcsICctbWV0YWxfYmluZGluZycsICctaW1hZScsICc8aW5maWxlLm1hZT4nLCAnLW9tYWUnLCAnPG91dGZpbGUubWFlPic=

> <r_lp_tautomer_probability>
1

> <r_epik_Ionization_Penalty>
2.31906e-08

> <r_epik_Ionization_Penalty_Charging>
3.85846e-09

> <r_epik_Ionization_Penalty_Neutral>
1.93321e-08

> <r_epik_State_Penalty>
-0

> <r_epik_Charging_Adjusted_Penalty>
3.85846e-09

> <i_epik_Tot_Q>
0

> <i_epik_Tot_abs_Q>
0

> <r_epik_Metal_State_Penalty>
-0

> <b_epik_Metal_Only>
0

> <s_epik_Chemistry_Notes>
This compound contains an acetal/aminal-like group ( X-CH(R)-Y where X, Y are N, S, or O) that may be acid/base labile, releasing an aldehyde.

> <s_lp_Force_Field>
OPLS_2005

> <r_lp_Energy>
21.1126

> <b_lp_Chiralities_Consistent>
1

> <s_lp_Variant>
AV-unprocessed.smi:123-3

> <Gold.Version>
5.8.1

> <Gold.Id.Protein>
6NUR|6NUR_protein|mol2

> <Gold.PLP.Fitness>
47.0918

> <Gold.PLP.PLP>
-45.1834

> <Gold.PLP.part.hbond>
-2.5513

> <Gold.PLP.part.metal>
0.0000

> <Gold.PLP.part.buried>
-5.8626

> <Gold.PLP.part.nonpolar>
-36.3695

> <Gold.PLP.part.repulsive>
0.2541

> <Gold.PLP.ligand.clash>
0.0000

> <Gold.PLP.ligand.torsion>
0.6063

> <Gold.PLP.Chemscore.Hbond>
1.0000

> <Gold.PLP.Chemscore.CHOScore>
0.0000

> <Gold.PLP.Chemscore.Metal>
0.0000

> <Gold.Chemscore.Hbonds>
donor molecule, donor type, donor heavy atom, donor atom, acceptor molecule, acceptor atom, score
      P1  H  7997  8010       L1     5  0.89

> <Gold.PLP.Chemscore.Internal.Correction>
0.1211

> <Gold.Rescore>
     Score         DG    S(hbond)    S(metal)    S(lipo)     H(rot)  DE(clash)    DE(int)     intcor
     13.26     -14.07       0.94        0.00      95.36       2.23       0.04       0.77       ----

> <Gold.Chemscore.Fitness>
13.2621

> <Gold.Chemscore.DG>
-14.0715

> <Gold.Chemscore.ZeroCoef>
-5.4800

> <Gold.Chemscore.Hbond>
0.9445

> <Gold.Chemscore.Metal>
0.0000

> <Gold.Chemscore.Lipo>
95.3638

> <Gold.Chemscore.Internal_Hbond>
0.0000

> <Gold.Chemscore.DEClash>
0.0444

> <Gold.Chemscore.DEInternal>
0.7650

> <Gold.Chemscore.Rot>
2.2347

> <Gold.Chemscore.Internal.Correction>
   9.000000E+99

> <Gold.Chemscore.Hbonds>
donor molecule, donor type, donor heavy atom, donor atom, acceptor molecule, acceptor atom, score
      P1  H  7997  8010       L1     5  0.26

> <Gold.Chemscore.Hbond.Weighted>
-3.1547

> <Gold.Chemscore.Metal.Weighted>
-0.0000

> <Gold.Chemscore.Lipo.Weighted>
-11.1576

> <Gold.Chemscore.Internal_Hbond.Weighted>
0.0000

> <Gold.Chemscore.DEClash.Weighted>
0.0444

> <Gold.Chemscore.DEInternal.Weighted>
0.7650

> <Gold.Chemscore.Rot.Weighted>
5.7208

> <Gold.Chemscore.Internal.Correction.Weighted>
   9.000000E+99

> <Gold.Protein.RotatedTorsions>
[ 6907 6896 6895 6894 ] final  120.28 input  -60.11 | X-H torsion
[ 7974 7965 7964 7962 ] final  163.54 input  175.53 | X-H torsion
[ 8008 7997 7996 7995 ] final  -55.73 input   59.86 | X-H torsion
[ 10167 10162 10161 10158 ] final -176.13 input  -65.29 | X-H torsion
[ 10718 10713 10712 10709 ] final   54.32 input   66.30 | X-H torsion
[ 10763 10752 10751 10750 ] final -110.82 input  -60.55 | X-H torsion
[ 11005 11000 10999 10996 ] final -169.49 input  -57.11 | X-H torsion

> <Gold.Protein.ActiveResidues>
 VAL166  LYS551  ARG553  GLY616  TRP617  ASP618  TYR619  PRO620  LYS621  CYS622 
 ASP623  PHE694  ASN695  SER759  ASP760  ASP761  ALA762  ILE779  LEU786  VAL792 
 PHE793  MET794  SER795  GLU796  ALA797  LYS798  CYS799  TRP800  GLU811  SER814 

> <Gold.Protein.RotatedAtoms>
  152.4409  133.7447  159.6660 H   0  0  0  0  0  0  0  0  0  0  0  0  # atno 6907 bound_to 6896
  150.8300  133.8096  159.3108 H   0  0  0  0  0  0  0  0  0  0  0  0  # atno 6908 bound_to 6896
  151.5753  135.1063  160.0056 H   0  0  0  0  0  0  0  0  0  0  0  0  # atno 6909 bound_to 6896
  144.7585  139.8198  143.6341 H   0  0  0  0  0  0  0  0  0  0  0  0  # atno 7974 bound_to 7965
  154.4205  140.1146  156.5523 H   0  0  0  0  0  0  0  0  0  0  0  0  # atno 8008 bound_to 7997
  155.6397  140.3496  155.4691 H   0  0  0  0  0  0  0  0  0  0  0  0  # atno 8009 bound_to 7997
  155.9881  140.1174  157.0654 H   0  0  0  0  0  0  0  0  0  0  0  0  # atno 8010 bound_to 7997
  139.5545  144.2024  152.1135 H   0  0  0  0  0  0  0  0  0  0  0  0  # atno 10167 bound_to 10162
  157.5246  130.8588  149.8604 H   0  0  0  0  0  0  0  0  0  0  0  0  # atno 10718 bound_to 10713
  154.8268  135.4550  154.0943 H   0  0  0  0  0  0  0  0  0  0  0  0  # atno 10763 bound_to 10752
  153.2251  135.6899  153.7961 H   0  0  0  0  0  0  0  0  0  0  0  0  # atno 10764 bound_to 10752
  153.7364  135.3319  155.3272 H   0  0  0  0  0  0  0  0  0  0  0  0  # atno 10765 bound_to 10752
  140.5301  134.5624  157.5072 H   0  0  0  0  0  0  0  0  0  0  0  0  # atno 11005 bound_to 11000
  146.1622  139.4741  142.9981 LP  0  0  0  0  0  0  0  0  0  0  0  0  # atno 17320 bound_to 7965
  145.6698  141.0219  143.1663 LP  0  0  0  0  0  0  0  0  0  0  0  0  # atno 17321 bound_to 7965
  140.1525  144.5101  150.6679 LP  0  0  0  0  0  0  0  0  0  0  0  0  # atno 17342 bound_to 10162
  140.6815  143.2329  151.5371 LP  0  0  0  0  0  0  0  0  0  0  0  0  # atno 17343 bound_to 10162
  156.0378  130.3747  150.1515 LP  0  0  0  0  0  0  0  0  0  0  0  0  # atno 17370 bound_to 10713
  156.9702  130.9832  151.3460 LP  0  0  0  0  0  0  0  0  0  0  0  0  # atno 17371 bound_to 10713
  139.9558  134.7537  156.0344 LP  0  0  0  0  0  0  0  0  0  0  0  0  # atno 17394 bound_to 11000
  141.1286  133.6592  156.3403 LP  0  0  0  0  0  0  0  0  0  0  0  0  # atno 17395 bound_to 11000

$$$$
