AV-unprocessed.smi:2604|AV-procd|sdf|10189|dock3
  -GOLD-   2272014203D 1   1.00000     0.00000
 Structure written by MMmdl.
 26 27  0  0  0  0  0  0  0  0  2 V2000
  141.9565  137.2500  153.4685 C   0  0  0  0  0  0  0  0  0  0  0  0
  140.8660  136.5556  154.0281 C   0  0  0  0  0  0  0  0  0  0  0  0
  140.7206  135.2156  153.9457 N   0  0  0  0  0  0  0  0  0  0  0  0
  141.6697  134.5152  153.2889 C   0  0  0  0  0  0  0  0  0  0  0  0
  142.7995  135.1101  152.6860 C   0  0  0  0  0  0  0  0  0  0  0  0
  143.8326  134.2524  151.9736 C   0  0  2  0  0  0  0  0  0  0  0  0
  144.2071  134.8556  150.6005 C   0  0  0  0  0  0  0  0  0  0  0  0
  145.2421  134.0350  149.9393 N   0  3  0  0  0  0  0  0  0  0  0  0
  144.8093  132.6289  149.8190 C   0  0  0  0  0  0  0  0  0  0  0  0
  144.4372  132.0730  151.2054 C   0  0  0  0  0  0  0  0  0  0  0  0
  143.3682  132.8772  151.7892 N   0  0  0  0  0  0  0  0  0  0  0  0
  142.9423  136.5118  152.7861 C   0  0  0  0  0  0  0  0  0  0  0  0
  142.0341  138.3232  153.5617 H   0  0  0  0  0  0  0  0  0  0  0  0
  140.0912  137.0902  154.5573 H   0  0  0  0  0  0  0  0  0  0  0  0
  141.5220  133.4461  153.2451 H   0  0  0  0  0  0  0  0  0  0  0  0
  144.7228  134.2220  152.6043 H   0  0  0  0  0  0  0  0  0  0  0  0
  143.3319  134.9220  149.9523 H   0  0  0  0  0  0  0  0  0  0  0  0
  144.5919  135.8685  150.7225 H   0  0  0  0  0  0  0  0  0  0  0  0
  145.4332  134.4093  149.0209 H   0  0  0  0  0  0  0  0  0  0  0  0
  143.9591  132.5649  149.1381 H   0  0  0  0  0  0  0  0  0  0  0  0
  145.6171  132.0437  149.3789 H   0  0  0  0  0  0  0  0  0  0  0  0
  144.0941  131.0421  151.1154 H   0  0  0  0  0  0  0  0  0  0  0  0
  145.3035  132.0654  151.8685 H   0  0  0  0  0  0  0  0  0  0  0  0
  143.0985  132.4882  152.6823 H   0  0  0  0  0  0  0  0  0  0  0  0
  143.7923  137.0159  152.3497 H   0  0  0  0  0  0  0  0  0  0  0  0
  146.0854  134.0680  150.4938 H   0  0  0  0  0  0  0  0  0  0  0  0
  1 12  1  0  0  0  0
  1  2  2  0  0  0  0
  1 13  1  0  0  0  0
  2  3  1  0  0  0  0
  2 14  1  0  0  0  0
  3  4  2  0  0  0  0
  4  5  1  0  0  0  0
  4 15  1  0  0  0  0
  5  6  1  0  0  0  0
  5 12  2  0  0  0  0
  6 11  1  0  0  0  0
  6  7  1  0  0  0  0
  6 16  1  0  0  0  0
  7  8  1  0  0  0  0
  7 17  1  0  0  0  0
  7 18  1  0  0  0  0
  8  9  1  0  0  0  0
  8 19  1  0  0  0  0
  8 26  1  0  0  0  0
  9 10  1  0  0  0  0
  9 20  1  0  0  0  0
  9 21  1  0  0  0  0
 10 11  1  0  0  0  0
 10 22  1  0  0  0  0
 10 23  1  0  0  0  0
 11 24  1  0  0  0  0
 12 25  1  0  0  0  0
M  CHG  1   8   1
M  END
> <s_m_source_file>
AV-unprocessed.smi

> <i_m_source_file_index>
2604

> <i_lp_mmshare_version>
43012

> <i_f3d_flags>
0

> <s_epik_input>
W2NIXTFbY0hdW2NIXW5bY0hdYzFbQ0BASF0yW0NIMl1bTkhdW0NIMl1bQ0gyXVtOSF0y

> <s_epik_cmdline>
J2VwaWtfcHl0aG9uJywgJy1waCcsICc3LjAnLCAnLXRuJywgJzgnLCAnLW1hJywgJzIwMCcsICctbWV0YWxfYmluZGluZycsICctaW1hZScsICc8aW5maWxlLm1hZT4nLCAnLW9tYWUnLCAnPG91dGZpbGUubWFlPic=

> <r_epik_Ionization_Penalty>
0.0181456

> <r_epik_Ionization_Penalty_Charging>
0.010317

> <r_epik_Ionization_Penalty_Neutral>
0.00782861

> <r_epik_State_Penalty>
0.306622

> <r_epik_Charging_Adjusted_Penalty>
0.316939

> <i_epik_Tot_Q>
1

> <i_epik_Tot_abs_Q>
1

> <r_epik_Metal_State_Penalty>
0.302658

> <b_epik_Metal_Only>
0

> <s_lp_Force_Field>
OPLS_2005

> <r_lp_Energy>
10.6943

> <b_lp_Chiralities_Consistent>
1

> <s_lp_Variant>
AV-unprocessed.smi:2604-1

> <Gold.Version>
5.8.1

> <Gold.Id.Protein>
6NUR|6NUR_protein|mol2

> <Gold.PLP.Fitness>
34.7656

> <Gold.PLP.PLP>
-25.7235

> <Gold.PLP.part.hbond>
-2.5923

> <Gold.PLP.part.metal>
0.0000

> <Gold.PLP.part.buried>
-5.9004

> <Gold.PLP.part.nonpolar>
-18.5150

> <Gold.PLP.part.repulsive>
0.2693

> <Gold.PLP.ligand.clash>
0.0000

> <Gold.PLP.ligand.torsion>
0.2551

> <Gold.PLP.Chemscore.Hbond>
2.2681

> <Gold.PLP.Chemscore.CHOScore>
0.9133

> <Gold.PLP.Chemscore.Metal>
0.0000

> <Gold.Chemscore.Hbonds>
donor molecule, donor type, donor heavy atom, donor atom, acceptor molecule, acceptor atom, score
      L1  H     8    19       P1  7921  1.00
      L1  H    11    24       P1 10957  0.27
      P1  H 11000 11005       L1     3  1.00
      L1  C     4    15       P1 10957  0.91

> <Gold.PLP.Chemscore.Internal.Correction>
0.0081

> <Gold.Rescore>
     Score         DG    S(hbond)    S(metal)    S(lipo)     H(rot)  DE(clash)    DE(int)     intcor
     15.09     -15.34       1.73        0.00      56.88       1.00       0.02       0.23       ----

> <Gold.Chemscore.Fitness>
15.0870

> <Gold.Chemscore.DG>
-15.3398

> <Gold.Chemscore.ZeroCoef>
-5.4800

> <Gold.Chemscore.Hbond>
1.7258

> <Gold.Chemscore.Metal>
0.0000

> <Gold.Chemscore.Lipo>
56.8849

> <Gold.Chemscore.Internal_Hbond>
0.0000

> <Gold.Chemscore.DEClash>
0.0195

> <Gold.Chemscore.DEInternal>
0.2333

> <Gold.Chemscore.Rot>
1.0000

> <Gold.Chemscore.Internal.Correction>
   9.000000E+99

> <Gold.Chemscore.Hbonds>
donor molecule, donor type, donor heavy atom, donor atom, acceptor molecule, acceptor atom, score
      L1  H     8    19       P1  7921  0.96
      L1  H    11    24       P1 10957  0.01
      P1  H 11000 11005       L1     3  0.57

> <Gold.Chemscore.Hbond.Weighted>
-5.7643

> <Gold.Chemscore.Metal.Weighted>
-0.0000

> <Gold.Chemscore.Lipo.Weighted>
-6.6555

> <Gold.Chemscore.Internal_Hbond.Weighted>
0.0000

> <Gold.Chemscore.DEClash.Weighted>
0.0195

> <Gold.Chemscore.DEInternal.Weighted>
0.2333

> <Gold.Chemscore.Rot.Weighted>
2.5600

> <Gold.Chemscore.Internal.Correction.Weighted>
   9.000000E+99

> <Gold.Protein.RotatedTorsions>
[ 6907 6896 6895 6894 ] final -108.71 input  -60.11 | X-H torsion
[ 7974 7965 7964 7962 ] final -115.37 input  175.53 | X-H torsion
[ 8008 7997 7996 7995 ] final -144.82 input   59.86 | X-H torsion
[ 10167 10162 10161 10158 ] final   19.88 input  -65.29 | X-H torsion
[ 10718 10713 10712 10709 ] final -162.47 input   66.30 | X-H torsion
[ 10763 10752 10751 10750 ] final   82.96 input  -60.55 | X-H torsion
[ 11005 11000 10999 10996 ] final   29.49 input  -57.11 | X-H torsion

> <Gold.Protein.ActiveResidues>
 VAL166  LYS551  ARG553  GLY616  TRP617  ASP618  TYR619  PRO620  LYS621  CYS622 
 ASP623  PHE694  ASN695  SER759  ASP760  ASP761  ALA762  ILE779  LEU786  VAL792 
 PHE793  MET794  SER795  GLU796  ALA797  LYS798  CYS799  TRP800  GLU811  SER814 

> <Gold.Protein.RotatedAtoms>
  150.7518  133.9637  159.3523 H   0  0  0  0  0  0  0  0  0  0  0  0  # atno 6907 bound_to 6896
  151.7565  135.0818  160.0348 H   0  0  0  0  0  0  0  0  0  0  0  0  # atno 6908 bound_to 6896
  152.3432  133.6054  159.5927 H   0  0  0  0  0  0  0  0  0  0  0  0  # atno 6909 bound_to 6896
  145.1091  140.8600  143.3880 H   0  0  0  0  0  0  0  0  0  0  0  0  # atno 7974 bound_to 7965
  155.5332  140.0601  157.2885 H   0  0  0  0  0  0  0  0  0  0  0  0  # atno 8008 bound_to 7997
  154.4477  140.1932  156.0560 H   0  0  0  0  0  0  0  0  0  0  0  0  # atno 8009 bound_to 7997
  156.0637  140.3269  155.7496 H   0  0  0  0  0  0  0  0  0  0  0  0  # atno 8010 bound_to 7997
  140.5546  143.9448  150.6600 H   0  0  0  0  0  0  0  0  0  0  0  0  # atno 10167 bound_to 10162
  156.6109  130.8850  151.2936 H   0  0  0  0  0  0  0  0  0  0  0  0  # atno 10718 bound_to 10713
  153.1249  135.4709  154.9255 H   0  0  0  0  0  0  0  0  0  0  0  0  # atno 10763 bound_to 10752
  154.7610  135.3131  154.8380 H   0  0  0  0  0  0  0  0  0  0  0  0  # atno 10764 bound_to 10752
  153.8936  135.6882  153.4813 H   0  0  0  0  0  0  0  0  0  0  0  0  # atno 10765 bound_to 10752
  140.3043  134.2721  155.7747 H   0  0  0  0  0  0  0  0  0  0  0  0  # atno 11005 bound_to 11000
  145.0867  139.2920  143.5756 LP  0  0  0  0  0  0  0  0  0  0  0  0  # atno 17320 bound_to 7965
  146.3527  140.0391  142.8644 LP  0  0  0  0  0  0  0  0  0  0  0  0  # atno 17321 bound_to 7965
  140.2883  143.3342  152.1086 LP  0  0  0  0  0  0  0  0  0  0  0  0  # atno 17342 bound_to 10162
  139.5042  144.6771  151.6102 LP  0  0  0  0  0  0  0  0  0  0  0  0  # atno 17343 bound_to 10162
  157.7254  130.9616  150.1615 LP  0  0  0  0  0  0  0  0  0  0  0  0  # atno 17370 bound_to 10713
  156.2391  130.3689  149.8358 LP  0  0  0  0  0  0  0  0  0  0  0  0  # atno 17371 bound_to 10713
  141.2121  133.7667  156.9814 LP  0  0  0  0  0  0  0  0  0  0  0  0  # atno 17394 bound_to 11000
  140.1081  134.9494  157.2024 LP  0  0  0  0  0  0  0  0  0  0  0  0  # atno 17395 bound_to 11000

$$$$
