AV-unprocessed.smi:1554|AV-procd|sdf|6243|dock10
  -GOLD-   22720 6423D 1   1.00000     0.00000
 Structure written by MMmdl.
 47 49  0  0  0  0  0  0  0  0  1 V2000
  152.6700  143.7387  162.0442 C   0  0  0  0  0  0  0  0  0  0  0  0
  152.2581  143.2538  160.6653 C   0  0  0  0  0  0  0  0  0  0  0  0
  152.2506  141.8661  160.3987 C   0  0  0  0  0  0  0  0  0  0  0  0
  151.8724  141.3742  159.1301 C   0  0  0  0  0  0  0  0  0  0  0  0
  151.7898  140.0753  158.6579 N   0  0  0  0  0  0  0  0  0  0  0  0
  151.3827  140.2707  157.4071 C   0  0  0  0  0  0  0  0  0  0  0  0
  151.1934  141.5440  157.0114 N   0  0  0  0  0  0  0  0  0  0  0  0
  150.7606  141.9955  155.7006 C   0  0  0  0  0  0  0  0  0  0  0  0
  149.4007  141.4011  155.2867 C   0  0  1  0  0  0  0  0  0  0  0  0
  148.6947  142.3465  154.5071 O   0  0  0  0  0  0  0  0  0  0  0  0
  149.5784  140.1176  154.4512 C   0  0  0  0  0  0  0  0  0  0  0  0
  150.3548  139.0505  155.0859 N   0  0  0  0  0  0  0  0  0  0  0  0
  151.7612  139.0586  154.6883 C   0  0  0  0  0  0  0  0  0  0  0  0
  152.5481  137.9093  155.3408 C   0  0  0  0  0  0  0  0  0  0  0  0
  151.9334  136.6656  155.0218 O   0  0  0  0  0  0  0  0  0  0  0  0
  150.5732  136.5950  155.4391 C   0  0  2  0  0  0  0  0  0  0  0  0
  150.0217  135.2178  155.0555 C   0  0  0  0  0  0  0  0  0  0  0  0
  149.7860  137.7427  154.7773 C   0  0  0  0  0  0  0  0  0  0  0  0
  151.5037  142.3162  158.1257 C   0  0  0  0  0  0  0  0  0  0  0  0
  151.5065  143.6992  158.3793 C   0  0  0  0  0  0  0  0  0  0  0  0
  151.8815  144.1735  159.6537 C   0  0  0  0  0  0  0  0  0  0  0  0
  151.8734  145.6687  159.9186 C   0  0  0  0  0  0  0  0  0  0  0  0
  153.0176  142.9148  162.6681 H   0  0  0  0  0  0  0  0  0  0  0  0
  151.8265  144.2100  162.5490 H   0  0  0  0  0  0  0  0  0  0  0  0
  153.4800  144.4644  161.9708 H   0  0  0  0  0  0  0  0  0  0  0  0
  152.5348  141.1652  161.1697 H   0  0  0  0  0  0  0  0  0  0  0  0
  151.2134  139.4398  156.7379 H   0  0  0  0  0  0  0  0  0  0  0  0
  150.7195  143.0855  155.7023 H   0  0  0  0  0  0  0  0  0  0  0  0
  151.5269  141.7159  154.9765 H   0  0  0  0  0  0  0  0  0  0  0  0
  148.8262  141.1993  156.1900 H   0  0  0  0  0  0  0  0  0  0  0  0
  148.7436  143.1849  154.9413 H   0  0  0  0  0  0  0  0  0  0  0  0
  148.5852  139.7396  154.2032 H   0  0  0  0  0  0  0  0  0  0  0  0
  150.0417  140.3734  153.4971 H   0  0  0  0  0  0  0  0  0  0  0  0
  151.8398  138.9786  153.6031 H   0  0  0  0  0  0  0  0  0  0  0  0
  152.2330  139.9992  154.9683 H   0  0  0  0  0  0  0  0  0  0  0  0
  153.5768  137.9013  154.9800 H   0  0  0  0  0  0  0  0  0  0  0  0
  152.5893  138.0357  156.4238 H   0  0  0  0  0  0  0  0  0  0  0  0
  150.5303  136.7001  156.5247 H   0  0  0  0  0  0  0  0  0  0  0  0
  148.9817  135.1112  155.3648 H   0  0  0  0  0  0  0  0  0  0  0  0
  150.5936  134.4221  155.5331 H   0  0  0  0  0  0  0  0  0  0  0  0
  150.0684  135.0607  153.9776 H   0  0  0  0  0  0  0  0  0  0  0  0
  148.7483  137.7055  155.1117 H   0  0  0  0  0  0  0  0  0  0  0  0
  149.7694  137.5944  153.6962 H   0  0  0  0  0  0  0  0  0  0  0  0
  151.2164  144.3879  157.5996 H   0  0  0  0  0  0  0  0  0  0  0  0
  151.5036  146.2232  159.0557 H   0  0  0  0  0  0  0  0  0  0  0  0
  152.8808  146.0226  160.1383 H   0  0  0  0  0  0  0  0  0  0  0  0
  151.2301  145.9037  160.7668 H   0  0  0  0  0  0  0  0  0  0  0  0
  1  2  1  0  0  0  0
  1 23  1  0  0  0  0
  1 24  1  0  0  0  0
  1 25  1  0  0  0  0
  2 21  1  0  0  0  0
  2  3  2  0  0  0  0
  3  4  1  0  0  0  0
  3 26  1  0  0  0  0
  4 19  2  0  0  0  0
  4  5  1  0  0  0  0
  5  6  2  0  0  0  0
  6  7  1  0  0  0  0
  6 27  1  0  0  0  0
  7  8  1  0  0  0  0
  7 19  1  0  0  0  0
  8  9  1  0  0  0  0
  8 28  1  0  0  0  0
  8 29  1  0  0  0  0
  9 10  1  0  0  0  0
  9 11  1  0  0  0  0
  9 30  1  0  0  0  0
 10 31  1  0  0  0  0
 11 12  1  0  0  0  0
 11 32  1  0  0  0  0
 11 33  1  0  0  0  0
 12 18  1  0  0  0  0
 12 13  1  0  0  0  0
 13 14  1  0  0  0  0
 13 34  1  0  0  0  0
 13 35  1  0  0  0  0
 14 15  1  0  0  0  0
 14 36  1  0  0  0  0
 14 37  1  0  0  0  0
 15 16  1  0  0  0  0
 16 17  1  0  0  0  0
 16 18  1  0  0  0  0
 16 38  1  0  0  0  0
 17 39  1  0  0  0  0
 17 40  1  0  0  0  0
 17 41  1  0  0  0  0
 18 42  1  0  0  0  0
 18 43  1  0  0  0  0
 19 20  1  0  0  0  0
 20 21  2  0  0  0  0
 20 44  1  0  0  0  0
 21 22  1  0  0  0  0
 22 45  1  0  0  0  0
 22 46  1  0  0  0  0
 22 47  1  0  0  0  0
M  END
> <s_m_source_file>
AV-unprocessed.smi

> <i_m_source_file_index>
1554

> <i_lp_mmshare_version>
43012

> <i_f3d_flags>
0

> <s_epik_input>
W0NIM11jKFtjSF0xKWMoW0NIM10pW2NIXWMoYzEyKW4oW2NIXW4yKVtDSDJdW0NASF0oW09IXSlbQ0gyXU4zW0NIMl1bQ0gyXU9bQ0BASF0oW0NIM10pW0NIMl0z

> <s_epik_cmdline>
J2VwaWtfcHl0aG9uJywgJy1waCcsICc3LjAnLCAnLXRuJywgJzgnLCAnLW1hJywgJzIwMCcsICctbWV0YWxfYmluZGluZycsICctaW1hZScsICc8aW5maWxlLm1hZT4nLCAnLW9tYWUnLCAnPG91dGZpbGUubWFlPic=

> <r_epik_Ionization_Penalty>
0.345108

> <r_epik_Ionization_Penalty_Charging>
0

> <r_epik_Ionization_Penalty_Neutral>
0.345108

> <r_epik_State_Penalty>
0.314544

> <r_epik_Charging_Adjusted_Penalty>
0.314544

> <i_epik_Tot_Q>
0

> <i_epik_Tot_abs_Q>
0

> <r_epik_Metal_State_Penalty>
0.239719

> <b_epik_Metal_Only>
0

> <s_lp_Force_Field>
OPLS_2005

> <r_lp_Energy>
29.2504

> <b_lp_Chiralities_Consistent>
1

> <s_lp_Variant>
AV-unprocessed.smi:1554-4

> <Gold.Version>
5.8.1

> <Gold.Id.Protein>
6NUR|6NUR_protein|mol2

> <Gold.PLP.Fitness>
51.8409

> <Gold.PLP.PLP>
-47.7334

> <Gold.PLP.part.hbond>
-2.9270

> <Gold.PLP.part.metal>
0.0000

> <Gold.PLP.part.buried>
-4.4117

> <Gold.PLP.part.nonpolar>
-40.6225

> <Gold.PLP.part.repulsive>
0.1838

> <Gold.PLP.ligand.clash>
0.0000

> <Gold.PLP.ligand.torsion>
0.9638

> <Gold.PLP.Chemscore.Hbond>
2.0101

> <Gold.PLP.Chemscore.CHOScore>
0.0000

> <Gold.PLP.Chemscore.Metal>
0.0000

> <Gold.Chemscore.Hbonds>
donor molecule, donor type, donor heavy atom, donor atom, acceptor molecule, acceptor atom, score
      L1  H    10    31       P1  8028  1.00
      P1  H 10752 10763       L1    15  1.00

> <Gold.PLP.Chemscore.Internal.Correction>
0.0046

> <Gold.Rescore>
     Score         DG    S(hbond)    S(metal)    S(lipo)     H(rot)  DE(clash)    DE(int)     intcor
     20.04     -22.81       1.90        0.00     137.33       1.98       0.41       2.36       ----

> <Gold.Chemscore.Fitness>
20.0381

> <Gold.Chemscore.DG>
-22.8073

> <Gold.Chemscore.ZeroCoef>
-5.4800

> <Gold.Chemscore.Hbond>
1.8984

> <Gold.Chemscore.Metal>
0.0000

> <Gold.Chemscore.Lipo>
137.3313

> <Gold.Chemscore.Internal_Hbond>
0.0000

> <Gold.Chemscore.DEClash>
0.4063

> <Gold.Chemscore.DEInternal>
2.3629

> <Gold.Chemscore.Rot>
1.9848

> <Gold.Chemscore.Internal.Correction>
   9.000000E+99

> <Gold.Chemscore.Hbonds>
donor molecule, donor type, donor heavy atom, donor atom, acceptor molecule, acceptor atom, score
      L1  H    10    31       P1  8028  1.00
      P1  H  8011  8017       L1    10  0.01
      P1  H 10752 10763       L1    15  0.72

> <Gold.Chemscore.Hbond.Weighted>
-6.3405

> <Gold.Chemscore.Metal.Weighted>
-0.0000

> <Gold.Chemscore.Lipo.Weighted>
-16.0678

> <Gold.Chemscore.Internal_Hbond.Weighted>
0.0000

> <Gold.Chemscore.DEClash.Weighted>
0.4063

> <Gold.Chemscore.DEInternal.Weighted>
2.3629

> <Gold.Chemscore.Rot.Weighted>
5.0810

> <Gold.Chemscore.Internal.Correction.Weighted>
   9.000000E+99

> <Gold.Protein.RotatedTorsions>
[ 6907 6896 6895 6894 ] final -109.45 input  -60.11 | X-H torsion
[ 7974 7965 7964 7962 ] final   10.02 input  175.53 | X-H torsion
[ 8008 7997 7996 7995 ] final  -18.98 input   59.86 | X-H torsion
[ 10167 10162 10161 10158 ] final   58.96 input  -65.29 | X-H torsion
[ 10718 10713 10712 10709 ] final   96.71 input   66.30 | X-H torsion
[ 10763 10752 10751 10750 ] final   73.57 input  -60.55 | X-H torsion
[ 11005 11000 10999 10996 ] final   22.63 input  -57.11 | X-H torsion

> <Gold.Protein.ActiveResidues>
 VAL166  LYS551  ARG553  GLY616  TRP617  ASP618  TYR619  PRO620  LYS621  CYS622 
 ASP623  PHE694  ASN695  SER759  ASP760  ASP761  ALA762  ILE779  LEU786  VAL792 
 PHE793  MET794  SER795  GLU796  ALA797  LYS798  CYS799  TRP800  GLU811  SER814 

> <Gold.Protein.RotatedAtoms>
  150.7563  133.9527  159.3490 H   0  0  0  0  0  0  0  0  0  0  0  0  # atno 6907 bound_to 6896
  151.7446  135.0844  160.0330 H   0  0  0  0  0  0  0  0  0  0  0  0  # atno 6908 bound_to 6896
  152.3506  133.6138  159.5978 H   0  0  0  0  0  0  0  0  0  0  0  0  # atno 6909 bound_to 6896
  146.2395  139.9697  142.8448 H   0  0  0  0  0  0  0  0  0  0  0  0  # atno 7974 bound_to 7965
  154.4868  140.2101  155.9638 H   0  0  0  0  0  0  0  0  0  0  0  0  # atno 8008 bound_to 7997
  156.1247  140.3207  155.8229 H   0  0  0  0  0  0  0  0  0  0  0  0  # atno 8009 bound_to 7997
  155.4404  140.0510  157.3001 H   0  0  0  0  0  0  0  0  0  0  0  0  # atno 8010 bound_to 7997
  140.1816  144.4176  150.6613 H   0  0  0  0  0  0  0  0  0  0  0  0  # atno 10167 bound_to 10162
  157.6923  131.0586  150.4532 H   0  0  0  0  0  0  0  0  0  0  0  0  # atno 10718 bound_to 10713
  153.0530  135.5058  154.7913 H   0  0  0  0  0  0  0  0  0  0  0  0  # atno 10763 bound_to 10752
  154.6761  135.2960  154.9679 H   0  0  0  0  0  0  0  0  0  0  0  0  # atno 10764 bound_to 10752
  154.0481  135.6707  153.4850 H   0  0  0  0  0  0  0  0  0  0  0  0  # atno 10765 bound_to 10752
  140.3785  134.1946  155.7664 H   0  0  0  0  0  0  0  0  0  0  0  0  # atno 11005 bound_to 11000
  145.1693  140.9712  143.4331 LP  0  0  0  0  0  0  0  0  0  0  0  0  # atno 17320 bound_to 7965
  145.0044  139.3568  143.6151 LP  0  0  0  0  0  0  0  0  0  0  0  0  # atno 17321 bound_to 7965
  140.6516  143.2226  151.6064 LP  0  0  0  0  0  0  0  0  0  0  0  0  # atno 17342 bound_to 10162
  139.5294  144.2962  152.1111 LP  0  0  0  0  0  0  0  0  0  0  0  0  # atno 17343 bound_to 10162
  156.4882  130.4089  149.6422 LP  0  0  0  0  0  0  0  0  0  0  0  0  # atno 17370 bound_to 10713
  156.3442  130.7398  151.2348 LP  0  0  0  0  0  0  0  0  0  0  0  0  # atno 17371 bound_to 10713
  141.1931  133.8157  157.0811 LP  0  0  0  0  0  0  0  0  0  0  0  0  # atno 17394 bound_to 11000
  140.0497  134.9812  157.1114 LP  0  0  0  0  0  0  0  0  0  0  0  0  # atno 17395 bound_to 11000

$$$$
