AV-unprocessed.smi:1508|AV-procd|sdf|6088|dock6
  -GOLD-   22720 6213D 1   1.00000     0.00000
 Structure written by MMmdl.
 37 38  0  0  0  0  0  0  0  0  3 V2000
  154.4781  140.5260  161.0119 C   0  0  0  0  0  0  0  0  0  0  0  0
  153.7890  141.8599  160.6841 C   0  0  0  0  0  0  0  0  0  0  0  0
  152.5030  141.7354  159.8222 C   0  0  2  0  0  0  0  0  0  0  0  0
  152.7611  140.9972  158.4801 C   0  0  0  0  0  0  0  0  0  0  0  0
  151.5431  140.4425  157.8983 N   0  0  0  0  0  0  0  0  0  0  0  0
  151.4707  139.7593  156.7473 C   0  0  0  0  0  0  0  0  0  0  0  0
  152.4962  139.5380  156.0991 O   0  0  0  0  0  0  0  0  0  0  0  0
  150.2155  139.3844  156.4151 N   0  5  0  0  0  0  0  0  0  0  0  0
  149.5104  140.1124  155.5336 C   0  0  0  0  0  0  0  0  0  0  0  0
  150.0976  140.8803  154.6018 N   0  0  0  0  0  0  0  0  0  0  0  0
  149.1883  141.5475  153.7923 N   0  0  0  0  0  0  0  0  0  0  0  0
  147.9322  141.2570  154.1304 C   0  0  0  0  0  0  0  0  0  0  0  0
  147.7462  140.1410  155.4668 S   0  0  0  0  0  0  0  0  0  0  0  0
  151.8489  143.0569  159.5939 N   0  3  0  0  0  0  0  0  0  0  0  0
  151.7445  143.9267  160.7937 C   0  0  0  0  0  0  0  0  0  0  0  0
  151.9604  145.3739  160.3304 C   0  0  0  0  0  0  0  0  0  0  0  0
  151.9481  145.3045  158.8079 C   0  0  0  0  0  0  0  0  0  0  0  0
  152.4390  143.8901  158.5236 C   0  0  0  0  0  0  0  0  0  0  0  0
  155.3902  140.6977  161.5836 H   0  0  0  0  0  0  0  0  0  0  0  0
  154.7544  139.9823  160.1086 H   0  0  0  0  0  0  0  0  0  0  0  0
  153.8379  139.8801  161.6122 H   0  0  0  0  0  0  0  0  0  0  0  0
  153.5521  142.3654  161.6206 H   0  0  0  0  0  0  0  0  0  0  0  0
  154.5062  142.5200  160.1967 H   0  0  0  0  0  0  0  0  0  0  0  0
  151.7946  141.1397  160.4003 H   0  0  0  0  0  0  0  0  0  0  0  0
  153.2182  141.6561  157.7413 H   0  0  0  0  0  0  0  0  0  0  0  0
  153.4686  140.1810  158.6254 H   0  0  0  0  0  0  0  0  0  0  0  0
  150.6812  140.5972  158.4012 H   0  0  0  0  0  0  0  0  0  0  0  0
  147.1104  141.7000  153.5882 H   0  0  0  0  0  0  0  0  0  0  0  0
  150.7624  143.7960  161.2488 H   0  0  0  0  0  0  0  0  0  0  0  0
  152.4954  143.6710  161.5430 H   0  0  0  0  0  0  0  0  0  0  0  0
  151.2050  146.0562  160.7208 H   0  0  0  0  0  0  0  0  0  0  0  0
  152.9338  145.7269  160.6738 H   0  0  0  0  0  0  0  0  0  0  0  0
  150.9286  145.4242  158.4388 H   0  0  0  0  0  0  0  0  0  0  0  0
  152.5684  146.0712  158.3426 H   0  0  0  0  0  0  0  0  0  0  0  0
  153.5282  143.8584  158.5891 H   0  0  0  0  0  0  0  0  0  0  0  0
  152.1455  143.5513  157.5297 H   0  0  0  0  0  0  0  0  0  0  0  0
  150.9002  142.8682  159.3030 H   0  0  0  0  0  0  0  0  0  0  0  0
  1  2  1  0  0  0  0
  1 19  1  0  0  0  0
  1 20  1  0  0  0  0
  1 21  1  0  0  0  0
  2  3  1  0  0  0  0
  2 22  1  0  0  0  0
  2 23  1  0  0  0  0
  3  4  1  0  0  0  0
  3 14  1  0  0  0  0
  3 24  1  0  0  0  0
  4  5  1  0  0  0  0
  4 25  1  0  0  0  0
  4 26  1  0  0  0  0
  5  6  1  0  0  0  0
  5 27  1  0  0  0  0
  6  7  2  0  0  0  0
  6  8  1  0  0  0  0
  8  9  1  0  0  0  0
  9 13  1  0  0  0  0
  9 10  2  0  0  0  0
 10 11  1  0  0  0  0
 11 12  2  0  0  0  0
 12 13  1  0  0  0  0
 12 28  1  0  0  0  0
 14 18  1  0  0  0  0
 14 15  1  0  0  0  0
 14 37  1  0  0  0  0
 15 16  1  0  0  0  0
 15 29  1  0  0  0  0
 15 30  1  0  0  0  0
 16 17  1  0  0  0  0
 16 31  1  0  0  0  0
 16 32  1  0  0  0  0
 17 18  1  0  0  0  0
 17 33  1  0  0  0  0
 17 34  1  0  0  0  0
 18 35  1  0  0  0  0
 18 36  1  0  0  0  0
M  CHG  1   8  -1
M  CHG  1  14   1
M  END
> <s_m_source_file>
AV-unprocessed.smi

> <i_m_source_file_index>
1508

> <i_lp_mmshare_version>
43012

> <i_f3d_flags>
0

> <s_epik_input>
W0NIMl0xW0NIMl1bQ0gyXVtDSDJdTjFbQ0BIXShbQ0gyXVtDSDNdKVtDSDJdW05IXUMoPU8pW05IXWMybm5bY0hdczI=

> <s_epik_cmdline>
J2VwaWtfcHl0aG9uJywgJy1waCcsICc3LjAnLCAnLXRuJywgJzgnLCAnLW1hJywgJzIwMCcsICctbWV0YWxfYmluZGluZycsICctaW1hZScsICc8aW5maWxlLm1hZT4nLCAnLW9tYWUnLCAnPG91dGZpbGUubWFlPic=

> <r_lp_tautomer_probability>
1

> <r_epik_Ionization_Penalty>
3.98086

> <r_epik_Ionization_Penalty_Charging>
3.94833

> <r_epik_Ionization_Penalty_Neutral>
0.032525

> <r_epik_State_Penalty>
3.94643

> <r_epik_Charging_Adjusted_Penalty>
7.89477

> <i_epik_Tot_Q>
0

> <i_epik_Tot_abs_Q>
2

> <r_epik_Metal_State_Penalty>
0.605555

> <b_epik_Metal_Only>
1

> <s_lp_Force_Field>
OPLS_2005

> <r_lp_Energy>
24.3568

> <b_lp_Chiralities_Consistent>
1

> <s_lp_Variant>
AV-unprocessed.smi:1508-3

> <Gold.Version>
5.8.1

> <Gold.Id.Protein>
6NUR|6NUR_protein|mol2

> <Gold.PLP.Fitness>
43.3110

> <Gold.PLP.PLP>
-38.4293

> <Gold.PLP.part.hbond>
-4.0000

> <Gold.PLP.part.metal>
0.0000

> <Gold.PLP.part.buried>
-5.2585

> <Gold.PLP.part.nonpolar>
-29.2888

> <Gold.PLP.part.repulsive>
0.8841

> <Gold.PLP.ligand.clash>
0.0000

> <Gold.PLP.ligand.torsion>
1.2477

> <Gold.PLP.Chemscore.Hbond>
2.4240

> <Gold.PLP.Chemscore.CHOScore>
0.0000

> <Gold.PLP.Chemscore.Metal>
0.0000

> <Gold.Chemscore.Hbonds>
donor molecule, donor type, donor heavy atom, donor atom, acceptor molecule, acceptor atom, score
      P1  H  7989  7998       L1    10  0.70
      P1  H  7997  8009       L1     7  1.00
      P1  H  8011  8017       L1    11  0.72

> <Gold.PLP.Chemscore.Internal.Correction>
0.1051

> <Gold.Rescore>
     Score         DG    S(hbond)    S(metal)    S(lipo)     H(rot)  DE(clash)    DE(int)     intcor
     17.22     -18.54       2.01        0.00      94.77       1.86       0.15       1.16       ----

> <Gold.Chemscore.Fitness>
17.2240

> <Gold.Chemscore.DG>
-18.5383

> <Gold.Chemscore.ZeroCoef>
-5.4800

> <Gold.Chemscore.Hbond>
2.0136

> <Gold.Chemscore.Metal>
0.0000

> <Gold.Chemscore.Lipo>
94.7699

> <Gold.Chemscore.Internal_Hbond>
0.0000

> <Gold.Chemscore.DEClash>
0.1510

> <Gold.Chemscore.DEInternal>
1.1633

> <Gold.Chemscore.Rot>
1.8575

> <Gold.Chemscore.Internal.Correction>
   9.000000E+99

> <Gold.Chemscore.Hbonds>
donor molecule, donor type, donor heavy atom, donor atom, acceptor molecule, acceptor atom, score
      P1  H  7989  7998       L1    10  0.18
      P1  H  7997  8009       L1     7  0.99
      P1  H  8011  8017       L1    11  0.70

> <Gold.Chemscore.Hbond.Weighted>
-6.7254

> <Gold.Chemscore.Metal.Weighted>
-0.0000

> <Gold.Chemscore.Lipo.Weighted>
-11.0881

> <Gold.Chemscore.Internal_Hbond.Weighted>
0.0000

> <Gold.Chemscore.DEClash.Weighted>
0.1510

> <Gold.Chemscore.DEInternal.Weighted>
1.1633

> <Gold.Chemscore.Rot.Weighted>
4.7551

> <Gold.Chemscore.Internal.Correction.Weighted>
   9.000000E+99

> <Gold.Protein.RotatedTorsions>
[ 6907 6896 6895 6894 ] final  -56.84 input  -60.11 | X-H torsion
[ 7974 7965 7964 7962 ] final   59.86 input  175.53 | X-H torsion
[ 8008 7997 7996 7995 ] final -165.81 input   59.86 | X-H torsion
[ 10167 10162 10161 10158 ] final  -40.06 input  -65.29 | X-H torsion
[ 10718 10713 10712 10709 ] final  -88.12 input   66.30 | X-H torsion
[ 10763 10752 10751 10750 ] final   85.63 input  -60.55 | X-H torsion
[ 11005 11000 10999 10996 ] final  112.21 input  -57.11 | X-H torsion

> <Gold.Protein.ActiveResidues>
 VAL166  LYS551  ARG553  GLY616  TRP617  ASP618  TYR619  PRO620  LYS621  CYS622 
 ASP623  PHE694  ASN695  SER759  ASP760  ASP761  ALA762  ILE779  LEU786  VAL792 
 PHE793  MET794  SER795  GLU796  ALA797  LYS798  CYS799  TRP800  GLU811  SER814 

> <Gold.Protein.RotatedAtoms>
  150.8134  134.7303  159.6708 H   0  0  0  0  0  0  0  0  0  0  0  0  # atno 6907 bound_to 6896
  152.4254  134.5875  159.9975 H   0  0  0  0  0  0  0  0  0  0  0  0  # atno 6908 bound_to 6896
  151.6078  133.3313  159.3097 H   0  0  0  0  0  0  0  0  0  0  0  0  # atno 6909 bound_to 6896
  145.9024  139.3591  143.0584 H   0  0  0  0  0  0  0  0  0  0  0  0  # atno 7974 bound_to 7965
  155.8550  140.0969  157.1650 H   0  0  0  0  0  0  0  0  0  0  0  0  # atno 8008 bound_to 7997
  154.3987  140.1376  156.3952 H   0  0  0  0  0  0  0  0  0  0  0  0  # atno 8009 bound_to 7997
  155.7920  140.3455  155.5357 H   0  0  0  0  0  0  0  0  0  0  0  0  # atno 8010 bound_to 7997
  140.7045  143.3176  151.2871 H   0  0  0  0  0  0  0  0  0  0  0  0  # atno 10167 bound_to 10162
  155.9984  130.4824  150.4971 H   0  0  0  0  0  0  0  0  0  0  0  0  # atno 10718 bound_to 10713
  153.1493  135.4610  154.9613 H   0  0  0  0  0  0  0  0  0  0  0  0  # atno 10763 bound_to 10752
  154.7812  135.3189  154.7988 H   0  0  0  0  0  0  0  0  0  0  0  0  # atno 10764 bound_to 10752
  153.8496  135.6922  153.4848 H   0  0  0  0  0  0  0  0  0  0  0  0  # atno 10765 bound_to 10752
  139.8922  134.9525  156.6551 H   0  0  0  0  0  0  0  0  0  0  0  0  # atno 11005 bound_to 11000
  145.8774  140.9383  143.0619 LP  0  0  0  0  0  0  0  0  0  0  0  0  # atno 17320 bound_to 7965
  144.6737  140.0734  143.7472 LP  0  0  0  0  0  0  0  0  0  0  0  0  # atno 17321 bound_to 7965
  139.6620  144.0173  152.2698 LP  0  0  0  0  0  0  0  0  0  0  0  0  # atno 17342 bound_to 10162
  139.9743  144.6472  150.7959 LP  0  0  0  0  0  0  0  0  0  0  0  0  # atno 17343 bound_to 10162
  157.2960  131.0635  151.2101 LP  0  0  0  0  0  0  0  0  0  0  0  0  # atno 17370 bound_to 10713
  157.3097  130.6884  149.6209 LP  0  0  0  0  0  0  0  0  0  0  0  0  # atno 17371 bound_to 10713
  140.7490  133.8913  155.8333 LP  0  0  0  0  0  0  0  0  0  0  0  0  # atno 17394 bound_to 11000
  141.0016  134.1142  157.4311 LP  0  0  0  0  0  0  0  0  0  0  0  0  # atno 17395 bound_to 11000

$$$$
