AV-unprocessed.smi:2476|AV-procd|sdf|9758|dock3
  -GOLD-   2272013403D 1   1.00000     0.00000
 Structure written by MMmdl.
 34 35  0  0  0  0  0  0  0  0  1 V2000
  149.9672  134.6661  154.7447 C   0  0  0  0  0  0  0  0  0  0  0  0
  150.8464  135.8686  155.0719 C   0  0  0  0  0  0  0  0  0  0  0  0
  151.6237  135.8187  156.0244 O   0  0  0  0  0  0  0  0  0  0  0  0
  150.7146  136.9418  154.2777 N   0  0  0  0  0  0  0  0  0  0  0  0
  151.4663  138.1849  154.4161 C   0  0  0  0  0  0  0  0  0  0  0  0
  150.7000  139.2510  155.2208 C   0  0  1  0  0  0  0  0  0  0  0  0
  151.6042  140.0402  156.1922 C   0  0  0  0  0  0  0  0  0  0  0  0
  150.8398  141.0955  156.8450 N   0  0  0  0  0  0  0  0  0  0  0  0
  151.5590  141.7791  157.8366 C   0  0  0  0  0  0  0  0  0  0  0  0
  151.8497  143.0872  157.6307 N   0  0  0  0  0  0  0  0  0  0  0  0
  152.5393  143.7482  158.5853 C   0  0  0  0  0  0  0  0  0  0  0  0
  152.9720  143.1467  159.7832 C   0  0  0  0  0  0  0  0  0  0  0  0
  152.6706  141.7879  159.9953 C   0  0  0  0  0  0  0  0  0  0  0  0
  151.9514  141.0899  159.0056 C   0  0  0  0  0  0  0  0  0  0  0  0
  151.6448  139.7816  159.1791 F   0  0  0  0  0  0  0  0  0  0  0  0
  150.1794  141.9771  155.8915 C   0  0  0  0  0  0  0  0  0  0  0  0
  149.3116  141.1498  154.9289 C   0  0  0  0  0  0  0  0  0  0  0  0
  150.1173  140.1626  154.2913 O   0  0  0  0  0  0  0  0  0  0  0  0
  149.6099  134.7028  153.7148 H   0  0  0  0  0  0  0  0  0  0  0  0
  149.1031  134.6401  155.4086 H   0  0  0  0  0  0  0  0  0  0  0  0
  150.5281  133.7404  154.8758 H   0  0  0  0  0  0  0  0  0  0  0  0
  150.0473  136.8938  153.5215 H   0  0  0  0  0  0  0  0  0  0  0  0
  152.4110  137.9562  154.9103 H   0  0  0  0  0  0  0  0  0  0  0  0
  151.7230  138.5714  153.4283 H   0  0  0  0  0  0  0  0  0  0  0  0
  149.8987  138.7651  155.7806 H   0  0  0  0  0  0  0  0  0  0  0  0
  152.0196  139.3747  156.9498 H   0  0  0  0  0  0  0  0  0  0  0  0
  152.4436  140.4758  155.6483 H   0  0  0  0  0  0  0  0  0  0  0  0
  152.7520  144.7887  158.3888 H   0  0  0  0  0  0  0  0  0  0  0  0
  153.5210  143.7136  160.5204 H   0  0  0  0  0  0  0  0  0  0  0  0
  152.9847  141.2902  160.9008 H   0  0  0  0  0  0  0  0  0  0  0  0
  149.5630  142.7029  156.4233 H   0  0  0  0  0  0  0  0  0  0  0  0
  150.9264  142.5374  155.3273 H   0  0  0  0  0  0  0  0  0  0  0  0
  148.4851  140.6746  155.4597 H   0  0  0  0  0  0  0  0  0  0  0  0
  148.8732  141.7960  154.1686 H   0  0  0  0  0  0  0  0  0  0  0  0
  1  2  1  0  0  0  0
  1 19  1  0  0  0  0
  1 20  1  0  0  0  0
  1 21  1  0  0  0  0
  2  3  2  0  0  0  0
  2  4  1  0  0  0  0
  4  5  1  0  0  0  0
  4 22  1  0  0  0  0
  5  6  1  0  0  0  0
  5 23  1  0  0  0  0
  5 24  1  0  0  0  0
  6 18  1  0  0  0  0
  6  7  1  0  0  0  0
  6 25  1  0  0  0  0
  7  8  1  0  0  0  0
  7 26  1  0  0  0  0
  7 27  1  0  0  0  0
  8  9  1  0  0  0  0
  8 16  1  0  0  0  0
  9 14  1  0  0  0  0
  9 10  2  0  0  0  0
 10 11  1  0  0  0  0
 11 12  2  0  0  0  0
 11 28  1  0  0  0  0
 12 13  1  0  0  0  0
 12 29  1  0  0  0  0
 13 14  2  0  0  0  0
 13 30  1  0  0  0  0
 14 15  1  0  0  0  0
 16 17  1  0  0  0  0
 16 31  1  0  0  0  0
 16 32  1  0  0  0  0
 17 18  1  0  0  0  0
 17 33  1  0  0  0  0
 17 34  1  0  0  0  0
M  END
> <s_m_source_file>
AV-unprocessed.smi

> <i_m_source_file_index>
2476

> <i_lp_mmshare_version>
43012

> <i_f3d_flags>
0

> <s_epik_input>
W0NIM11DKD1PKVtOSF1bQ0gyXVtDQEBIXTFbQ0gyXU4oW0NIMl1bQ0gyXU8xKWMybltjSF1bY0hdW2NIXWMyRg==

> <s_epik_cmdline>
J2VwaWtfcHl0aG9uJywgJy1waCcsICc3LjAnLCAnLXRuJywgJzgnLCAnLW1hJywgJzIwMCcsICctbWV0YWxfYmluZGluZycsICctaW1hZScsICc8aW5maWxlLm1hZT4nLCAnLW9tYWUnLCAnPG91dGZpbGUubWFlPic=

> <r_lp_tautomer_probability>
1

> <r_epik_Ionization_Penalty>
1.69306e-05

> <r_epik_Ionization_Penalty_Charging>
0

> <r_epik_Ionization_Penalty_Neutral>
1.69306e-05

> <r_epik_State_Penalty>
-0

> <r_epik_Charging_Adjusted_Penalty>
0

> <i_epik_Tot_Q>
0

> <i_epik_Tot_abs_Q>
0

> <r_epik_Metal_State_Penalty>
-0

> <b_epik_Metal_Only>
0

> <s_lp_Force_Field>
OPLS_2005

> <r_lp_Energy>
19.3351

> <b_lp_Chiralities_Consistent>
1

> <s_lp_Variant>
AV-unprocessed.smi:2476-2

> <Gold.Version>
5.8.1

> <Gold.Id.Protein>
6NUR|6NUR_protein|mol2

> <Gold.PLP.Fitness>
43.5454

> <Gold.PLP.PLP>
-36.5401

> <Gold.PLP.part.hbond>
-4.0000

> <Gold.PLP.part.metal>
0.0000

> <Gold.PLP.part.buried>
-2.2620

> <Gold.PLP.part.nonpolar>
-31.7342

> <Gold.PLP.part.repulsive>
0.3188

> <Gold.PLP.ligand.clash>
0.0525

> <Gold.PLP.ligand.torsion>
0.9885

> <Gold.PLP.Chemscore.Hbond>
2.9760

> <Gold.PLP.Chemscore.CHOScore>
0.0000

> <Gold.PLP.Chemscore.Metal>
0.0000

> <Gold.Chemscore.Hbonds>
donor molecule, donor type, donor heavy atom, donor atom, acceptor molecule, acceptor atom, score
      L1  H     4    22       P1  7948  0.90
      P1  H  7989  7998       L1    18  0.99
      P1  H 10752 10764       L1     3  1.00

> <Gold.PLP.Chemscore.Internal.Correction>
0.1068

> <Gold.Rescore>
     Score         DG    S(hbond)    S(metal)    S(lipo)     H(rot)  DE(clash)    DE(int)     intcor
     13.96     -16.31       1.68        0.00      79.69       1.61       0.27       2.08       ----

> <Gold.Chemscore.Fitness>
13.9624

> <Gold.Chemscore.DG>
-16.3088

> <Gold.Chemscore.ZeroCoef>
-5.4800

> <Gold.Chemscore.Hbond>
1.6830

> <Gold.Chemscore.Metal>
0.0000

> <Gold.Chemscore.Lipo>
79.6889

> <Gold.Chemscore.Internal_Hbond>
0.0000

> <Gold.Chemscore.DEClash>
0.2681

> <Gold.Chemscore.DEInternal>
2.0783

> <Gold.Chemscore.Rot>
1.6078

> <Gold.Chemscore.Internal.Correction>
   9.000000E+99

> <Gold.Chemscore.Hbonds>
donor molecule, donor type, donor heavy atom, donor atom, acceptor molecule, acceptor atom, score
      L1  H     4    22       P1  7948  0.19
      P1  H  7989  7998       L1    18  0.28
      P1  H 10752 10764       L1     3  0.26

> <Gold.Chemscore.Hbond.Weighted>
-5.6211

> <Gold.Chemscore.Metal.Weighted>
-0.0000

> <Gold.Chemscore.Lipo.Weighted>
-9.3236

> <Gold.Chemscore.Internal_Hbond.Weighted>
0.0000

> <Gold.Chemscore.DEClash.Weighted>
0.2681

> <Gold.Chemscore.DEInternal.Weighted>
2.0783

> <Gold.Chemscore.Rot.Weighted>
4.1159

> <Gold.Chemscore.Internal.Correction.Weighted>
   9.000000E+99

> <Gold.Protein.RotatedTorsions>
[ 6907 6896 6895 6894 ] final  115.84 input  -60.11 | X-H torsion
[ 7974 7965 7964 7962 ] final  -34.47 input  175.53 | X-H torsion
[ 8008 7997 7996 7995 ] final  147.93 input   59.86 | X-H torsion
[ 10167 10162 10161 10158 ] final   26.09 input  -65.29 | X-H torsion
[ 10718 10713 10712 10709 ] final   52.65 input   66.30 | X-H torsion
[ 10763 10752 10751 10750 ] final  -23.44 input  -60.55 | X-H torsion
[ 11005 11000 10999 10996 ] final -102.04 input  -57.11 | X-H torsion

> <Gold.Protein.ActiveResidues>
 VAL166  LYS551  ARG553  GLY616  TRP617  ASP618  TYR619  PRO620  LYS621  CYS622 
 ASP623  PHE694  ASN695  SER759  ASP760  ASP761  ALA762  ILE779  LEU786  VAL792 
 PHE793  MET794  SER795  GLU796  ALA797  LYS798  CYS799  TRP800  GLU811  SER814 

> <Gold.Protein.RotatedAtoms>
  152.4716  133.8043  159.6969 H   0  0  0  0  0  0  0  0  0  0  0  0  # atno 6907 bound_to 6896
  150.8709  133.7498  159.2968 H   0  0  0  0  0  0  0  0  0  0  0  0  # atno 6908 bound_to 6896
  151.5033  135.1066  159.9887 H   0  0  0  0  0  0  0  0  0  0  0  0  # atno 6909 bound_to 6896
  146.0827  140.6042  142.8901 H   0  0  0  0  0  0  0  0  0  0  0  0  # atno 7974 bound_to 7965
  156.2808  140.2142  156.5617 H   0  0  0  0  0  0  0  0  0  0  0  0  # atno 8008 bound_to 7997
  154.7207  140.0504  157.0660 H   0  0  0  0  0  0  0  0  0  0  0  0  # atno 8009 bound_to 7997
  155.0482  140.3153  155.4704 H   0  0  0  0  0  0  0  0  0  0  0  0  # atno 8010 bound_to 7997
  140.5052  144.0250  150.6349 H   0  0  0  0  0  0  0  0  0  0  0  0  # atno 10167 bound_to 10162
  157.5094  130.8490  149.8416 H   0  0  0  0  0  0  0  0  0  0  0  0  # atno 10718 bound_to 10713
  153.6678  135.6973  153.5157 H   0  0  0  0  0  0  0  0  0  0  0  0  # atno 10763 bound_to 10752
  153.2581  135.4253  155.0866 H   0  0  0  0  0  0  0  0  0  0  0  0  # atno 10764 bound_to 10752
  154.8435  135.3548  154.6222 H   0  0  0  0  0  0  0  0  0  0  0  0  # atno 10765 bound_to 10752
  141.1206  133.8526  157.1309 H   0  0  0  0  0  0  0  0  0  0  0  0  # atno 11005 bound_to 11000
  144.7304  140.4654  143.6942 LP  0  0  0  0  0  0  0  0  0  0  0  0  # atno 17320 bound_to 7965
  145.6188  139.1521  143.3034 LP  0  0  0  0  0  0  0  0  0  0  0  0  # atno 17321 bound_to 7965
  140.3557  143.2937  152.0438 LP  0  0  0  0  0  0  0  0  0  0  0  0  # atno 17342 bound_to 10162
  139.4882  144.6340  151.7012 LP  0  0  0  0  0  0  0  0  0  0  0  0  # atno 17343 bound_to 10162
  156.0279  130.3773  150.1770 LP  0  0  0  0  0  0  0  0  0  0  0  0  # atno 17370 bound_to 10713
  156.9960  130.9908  151.3403 LP  0  0  0  0  0  0  0  0  0  0  0  0  # atno 17371 bound_to 10713
  140.0160  134.9967  157.0494 LP  0  0  0  0  0  0  0  0  0  0  0  0  # atno 17394 bound_to 11000
  140.4519  134.1573  155.7182 LP  0  0  0  0  0  0  0  0  0  0  0  0  # atno 17395 bound_to 11000

$$$$
