AV-unprocessed.smi:548|AV-procd|sdf|2891|dock3
  -GOLD-   2262023383D 1   1.00000     0.00000
 Structure written by MMmdl.
 24 24  0  0  0  0  0  0  0  0  2 V2000
  147.5971  133.7918  161.6819 C   0  0  0  0  0  0  0  0  0  0  0  0
  146.9462  135.0668  161.0911 C   0  0  0  0  0  0  0  0  0  0  0  0
  146.3053  135.8791  162.2432 C   0  0  0  0  0  0  0  0  0  0  0  0
  148.0534  135.9308  160.4236 C   0  0  0  0  0  0  0  0  0  0  0  0
  148.1138  137.1438  160.7269 O   0  0  0  0  0  0  0  0  0  0  0  0
  148.8062  135.3783  159.5898 O   0  5  0  0  0  0  0  0  0  0  0  0
  145.8630  134.6744  160.0594 C   0  0  0  0  0  0  0  0  0  0  0  0
  144.5201  135.1367  160.0897 C   0  0  0  0  0  0  0  0  0  0  0  0
  143.6166  134.7129  159.0960 C   0  0  0  0  0  0  0  0  0  0  0  0
  144.0784  133.8368  158.0964 C   0  0  0  0  0  0  0  0  0  0  0  0
  143.2141  133.3964  157.0972 N   0  0  0  0  0  0  0  0  0  0  0  0
  145.3461  133.3840  158.0460 N   0  0  0  0  0  0  0  0  0  0  0  0
  146.2047  133.7959  159.0031 C   0  0  0  0  0  0  0  0  0  0  0  0
  147.9933  133.1406  160.9015 H   0  0  0  0  0  0  0  0  0  0  0  0
  146.8829  133.2022  162.2567 H   0  0  0  0  0  0  0  0  0  0  0  0
  148.4186  134.0385  162.3561 H   0  0  0  0  0  0  0  0  0  0  0  0
  145.7619  136.7492  161.8716 H   0  0  0  0  0  0  0  0  0  0  0  0
  147.0582  136.2349  162.9481 H   0  0  0  0  0  0  0  0  0  0  0  0
  145.5958  135.2803  162.8141 H   0  0  0  0  0  0  0  0  0  0  0  0
  144.1528  135.8084  160.8503 H   0  0  0  0  0  0  0  0  0  0  0  0
  142.5928  135.0566  159.1066 H   0  0  0  0  0  0  0  0  0  0  0  0
  142.2490  133.6910  157.0665 H   0  0  0  0  0  0  0  0  0  0  0  0
  143.5288  132.7693  156.3711 H   0  0  0  0  0  0  0  0  0  0  0  0
  147.2065  133.4031  158.9156 H   0  0  0  0  0  0  0  0  0  0  0  0
  1  2  1  0  0  0  0
  1 14  1  0  0  0  0
  1 15  1  0  0  0  0
  1 16  1  0  0  0  0
  2  3  1  0  0  0  0
  2  4  1  0  0  0  0
  2  7  1  0  0  0  0
  3 17  1  0  0  0  0
  3 18  1  0  0  0  0
  3 19  1  0  0  0  0
  4  5  2  0  0  0  0
  4  6  1  0  0  0  0
  7 13  1  0  0  0  0
  7  8  2  0  0  0  0
  8  9  1  0  0  0  0
  8 20  1  0  0  0  0
  9 10  2  0  0  0  0
  9 21  1  0  0  0  0
 10 11  1  0  0  0  0
 10 12  1  0  0  0  0
 11 22  1  0  0  0  0
 11 23  1  0  0  0  0
 12 13  2  0  0  0  0
 13 24  1  0  0  0  0
M  CHG  1   6  -1
M  END
> <s_m_source_file>
AV-unprocessed.smi

> <i_m_source_file_index>
548

> <i_lp_mmshare_version>
43012

> <i_f3d_flags>
0

> <s_epik_input>
Tz1DKFtPSF0pQyhbQ0gzXSkoW0NIM10pYzFbY0hdW2NIXWMoW05IMl0pbltjSF0x

> <s_epik_cmdline>
J2VwaWtfcHl0aG9uJywgJy1waCcsICc3LjAnLCAnLXRuJywgJzgnLCAnLW1hJywgJzIwMCcsICctbWV0YWxfYmluZGluZycsICctaW1hZScsICc8aW5maWxlLm1hZT4nLCAnLW9tYWUnLCAnPG91dGZpbGUubWFlPic=

> <r_lp_tautomer_probability>
1

> <r_epik_Ionization_Penalty>
1.52711

> <r_epik_Ionization_Penalty_Charging>
0.000624596

> <r_epik_Ionization_Penalty_Neutral>
1.52649

> <r_epik_State_Penalty>
1.61852

> <r_epik_Charging_Adjusted_Penalty>
1.61914

> <i_epik_Tot_Q>
-1

> <i_epik_Tot_abs_Q>
1

> <r_epik_Metal_State_Penalty>
0.00844734

> <b_epik_Metal_Only>
0

> <s_lp_Force_Field>
OPLS_2005

> <r_lp_Energy>
9.30736

> <b_lp_Chiralities_Consistent>
1

> <s_lp_Variant>
AV-unprocessed.smi:548-2

> <Gold.Version>
5.8.1

> <Gold.Id.Protein>
6NUR|6NUR_protein|mol2

> <Gold.PLP.Fitness>
34.9423

> <Gold.PLP.PLP>
-15.5719

> <Gold.PLP.part.hbond>
-5.0000

> <Gold.PLP.part.metal>
0.0000

> <Gold.PLP.part.buried>
-1.7261

> <Gold.PLP.part.nonpolar>
-8.6219

> <Gold.PLP.part.repulsive>
0.0228

> <Gold.PLP.ligand.clash>
0.0000

> <Gold.PLP.ligand.torsion>
0.4066

> <Gold.PLP.Chemscore.Hbond>
6.7250

> <Gold.PLP.Chemscore.CHOScore>
0.0000

> <Gold.PLP.Chemscore.Metal>
0.0000

> <Gold.Chemscore.Hbonds>
donor molecule, donor type, donor heavy atom, donor atom, acceptor molecule, acceptor atom, score
      L1  H    11    22       P1 11000  1.00
      L1  H    11    23       P1 10957  0.72
      P1  H  6896  6908       L1     6  2.00
      P1  H  6931  6943       L1     5  1.73
      P1  H  6934  6947       L1     5  1.19

> <Gold.PLP.Chemscore.Internal.Correction>
0.0087

> <Gold.Rescore>
     Score         DG    S(hbond)    S(metal)    S(lipo)     H(rot)  DE(clash)    DE(int)     intcor
     17.75     -18.39       3.97        0.00      29.45       1.48       0.04       0.61       ----

> <Gold.Chemscore.Fitness>
17.7477

> <Gold.Chemscore.DG>
-18.3934

> <Gold.Chemscore.ZeroCoef>
-5.4800

> <Gold.Chemscore.Hbond>
3.9662

> <Gold.Chemscore.Metal>
0.0000

> <Gold.Chemscore.Lipo>
29.4478

> <Gold.Chemscore.Internal_Hbond>
0.0000

> <Gold.Chemscore.DEClash>
0.0402

> <Gold.Chemscore.DEInternal>
0.6055

> <Gold.Chemscore.Rot>
1.4762

> <Gold.Chemscore.Internal.Correction>
   9.000000E+99

> <Gold.Chemscore.Hbonds>
donor molecule, donor type, donor heavy atom, donor atom, acceptor molecule, acceptor atom, score
      L1  H    11    22       P1 11000  0.87
      L1  H    11    23       P1 10957  0.67
      P1  H  6896  6908       L1     6  0.93
      P1  H  6931  6943       L1     5  0.85
      P1  H  6934  6947       L1     5  0.58

> <Gold.Chemscore.Hbond.Weighted>
-13.2471

> <Gold.Chemscore.Metal.Weighted>
-0.0000

> <Gold.Chemscore.Lipo.Weighted>
-3.4454

> <Gold.Chemscore.Internal_Hbond.Weighted>
0.0000

> <Gold.Chemscore.DEClash.Weighted>
0.0402

> <Gold.Chemscore.DEInternal.Weighted>
0.6055

> <Gold.Chemscore.Rot.Weighted>
3.7790

> <Gold.Chemscore.Internal.Correction.Weighted>
   9.000000E+99

> <Gold.Protein.RotatedTorsions>
[ 6907 6896 6895 6894 ] final  171.95 input  -60.11 | X-H torsion
[ 7974 7965 7964 7962 ] final   -2.83 input  175.53 | X-H torsion
[ 8008 7997 7996 7995 ] final  -23.46 input   59.86 | X-H torsion
[ 10167 10162 10161 10158 ] final -154.65 input  -65.29 | X-H torsion
[ 10718 10713 10712 10709 ] final  110.85 input   66.30 | X-H torsion
[ 10763 10752 10751 10750 ] final   98.78 input  -60.55 | X-H torsion
[ 11005 11000 10999 10996 ] final   46.40 input  -57.11 | X-H torsion

> <Gold.Protein.ActiveResidues>
 VAL166  LYS551  ARG553  GLY616  TRP617  ASP618  TYR619  PRO620  LYS621  CYS622 
 ASP623  PHE694  ASN695  SER759  ASP760  ASP761  ALA762  ILE779  LEU786  VAL792 
 PHE793  MET794  SER795  GLU796  ALA797  LYS798  CYS799  TRP800  GLU811  SER814 

> <Gold.Protein.RotatedAtoms>
  151.7921  133.3360  159.3501 H   0  0  0  0  0  0  0  0  0  0  0  0  # atno 6907 bound_to 6896
  150.7388  134.5832  159.5959 H   0  0  0  0  0  0  0  0  0  0  0  0  # atno 6908 bound_to 6896
  152.3202  134.7390  160.0367 H   0  0  0  0  0  0  0  0  0  0  0  0  # atno 6909 bound_to 6896
  146.2399  140.1630  142.8332 H   0  0  0  0  0  0  0  0  0  0  0  0  # atno 7974 bound_to 7965
  154.4584  140.1980  156.0315 H   0  0  0  0  0  0  0  0  0  0  0  0  # atno 8008 bound_to 7997
  156.0791  140.3274  155.7643 H   0  0  0  0  0  0  0  0  0  0  0  0  # atno 8009 bound_to 7997
  155.5140  140.0564  157.2909 H   0  0  0  0  0  0  0  0  0  0  0  0  # atno 8010 bound_to 7997
  139.6995  143.9286  152.2422 H   0  0  0  0  0  0  0  0  0  0  0  0  # atno 10167 bound_to 10162
  157.6474  131.0940  150.6662 H   0  0  0  0  0  0  0  0  0  0  0  0  # atno 10718 bound_to 10713
  153.2933  135.4136  155.1186 H   0  0  0  0  0  0  0  0  0  0  0  0  # atno 10763 bound_to 10752
  154.8527  135.3523  154.5952 H   0  0  0  0  0  0  0  0  0  0  0  0  # atno 10764 bound_to 10752
  153.6375  135.7058  153.5311 H   0  0  0  0  0  0  0  0  0  0  0  0  # atno 10765 bound_to 10752
  140.1372  134.4629  155.8476 H   0  0  0  0  0  0  0  0  0  0  0  0  # atno 11005 bound_to 11000
  145.0073  140.8684  143.5245 LP  0  0  0  0  0  0  0  0  0  0  0  0  # atno 17320 bound_to 7965
  145.1659  139.2432  143.5367 LP  0  0  0  0  0  0  0  0  0  0  0  0  # atno 17321 bound_to 7965
  139.9124  144.6848  150.8547 LP  0  0  0  0  0  0  0  0  0  0  0  0  # atno 17342 bound_to 10162
  140.7706  143.3433  151.2162 LP  0  0  0  0  0  0  0  0  0  0  0  0  # atno 17343 bound_to 10162
  156.6977  130.4614  149.5581 LP  0  0  0  0  0  0  0  0  0  0  0  0  # atno 17370 bound_to 10713
  156.1817  130.6503  151.0959 LP  0  0  0  0  0  0  0  0  0  0  0  0  # atno 17371 bound_to 10713
  141.2180  133.6819  156.7180 LP  0  0  0  0  0  0  0  0  0  0  0  0  # atno 17394 bound_to 11000
  140.2767  134.8349  157.3896 LP  0  0  0  0  0  0  0  0  0  0  0  0  # atno 17395 bound_to 11000

$$$$
