AV-unprocessed.smi:209|AV-procd|sdf|1609|dock2
  -GOLD-   2262019533D 1   1.00000     0.00000
 Structure written by MMmdl.
 48 52  0  0  0  0  0  0  0  0  1 V2000
  154.5577  141.2681  160.9934 O   0  0  0  0  0  0  0  0  0  0  0  0
  153.5180  141.1980  160.3417 C   0  0  0  0  0  0  0  0  0  0  0  0
  153.0164  140.1080  159.7484 N   0  0  0  0  0  0  0  0  0  0  0  0
  151.8106  140.3956  158.9778 C   0  0  0  0  0  0  0  0  0  0  0  0
  151.9036  141.9199  158.8092 C   0  0  2  0  0  0  0  0  0  0  0  0
  152.5688  142.3583  160.1050 C   0  0  2  0  0  0  0  0  0  0  0  0
  153.0908  143.7877  159.9474 C   0  0  0  0  0  0  0  0  0  0  0  0
  151.8604  144.6730  159.6344 C   0  0  0  0  0  0  0  0  0  0  0  0
  151.0021  144.1245  158.4612 C   0  0  0  0  0  0  0  0  0  0  0  0
  150.6850  142.6964  158.6108 N   0  0  0  0  0  0  0  0  0  0  0  0
  149.8845  142.2213  157.6319 C   0  0  0  0  0  0  0  0  0  0  0  0
  150.4217  141.7441  156.4782 N   0  0  0  0  0  0  0  0  0  0  0  0
  149.6219  141.2656  155.5205 C   0  0  0  0  0  0  0  0  0  0  0  0
  148.2903  141.1680  155.5162 N   0  0  0  0  0  0  0  0  0  0  0  0
  147.7522  141.6390  156.6783 C   0  0  0  0  0  0  0  0  0  0  0  0
  148.4739  142.1853  157.7753 C   0  0  0  0  0  0  0  0  0  0  0  0
  147.5980  142.5750  158.7792 N   0  0  0  0  0  0  0  0  0  0  0  0
  146.4205  142.2818  158.2990 C   0  0  0  0  0  0  0  0  0  0  0  0
  146.4198  141.6953  157.0519 N   0  0  0  0  0  0  0  0  0  0  0  0
  145.2567  141.2687  156.2868 C   0  0  0  0  0  0  0  0  0  0  0  0
  144.3716  142.4224  155.7694 C   0  0  0  0  0  0  0  0  0  0  0  0
  145.1170  143.1375  154.6246 C   0  0  0  0  0  0  0  0  0  0  0  0
  144.3232  144.1154  153.9823 O   0  0  0  0  0  0  0  0  0  0  0  0
  142.9135  142.0175  155.5039 C   0  0  0  0  0  0  0  0  0  0  0  0
  142.4217  142.7979  156.6154 O   0  0  0  0  0  0  0  0  0  0  0  0
  143.7462  143.3284  156.8408 C   0  0  0  0  0  0  0  0  0  0  0  0
  152.5786  142.1264  157.9750 H   0  0  0  0  0  0  0  0  0  0  0  0
  151.8473  142.3312  160.9245 H   0  0  0  0  0  0  0  0  0  0  0  0
  153.4564  139.1991  159.7600 H   0  0  0  0  0  0  0  0  0  0  0  0
  151.7997  139.8706  158.0221 H   0  0  0  0  0  0  0  0  0  0  0  0
  150.9316  140.1028  159.5540 H   0  0  0  0  0  0  0  0  0  0  0  0
  153.5841  144.1256  160.8590 H   0  0  0  0  0  0  0  0  0  0  0  0
  153.8227  143.8470  159.1407 H   0  0  0  0  0  0  0  0  0  0  0  0
  151.2344  144.7344  160.5256 H   0  0  0  0  0  0  0  0  0  0  0  0
  152.1789  145.6927  159.4170 H   0  0  0  0  0  0  0  0  0  0  0  0
  150.0762  144.6963  158.3849 H   0  0  0  0  0  0  0  0  0  0  0  0
  151.5425  144.2782  157.5258 H   0  0  0  0  0  0  0  0  0  0  0  0
  150.1197  140.9081  154.6312 H   0  0  0  0  0  0  0  0  0  0  0  0
  145.5129  142.4796  158.8505 H   0  0  0  0  0  0  0  0  0  0  0  0
  145.6063  140.6527  155.4574 H   0  0  0  0  0  0  0  0  0  0  0  0
  144.6732  140.5985  156.9195 H   0  0  0  0  0  0  0  0  0  0  0  0
  146.0055  143.6470  154.9952 H   0  0  0  0  0  0  0  0  0  0  0  0
  145.4490  142.4242  153.8697 H   0  0  0  0  0  0  0  0  0  0  0  0
  143.7351  143.6809  153.3834 H   0  0  0  0  0  0  0  0  0  0  0  0
  142.5067  142.3623  154.5531 H   0  0  0  0  0  0  0  0  0  0  0  0
  142.7193  140.9521  155.6339 H   0  0  0  0  0  0  0  0  0  0  0  0
  144.0935  143.1377  157.8547 H   0  0  0  0  0  0  0  0  0  0  0  0
  143.7999  144.3941  156.6150 H   0  0  0  0  0  0  0  0  0  0  0  0
  1  2  2  0  0  0  0
  2  6  1  0  0  0  0
  2  3  1  0  0  0  0
  3  4  1  0  0  0  0
  3 29  1  0  0  0  0
  4  5  1  0  0  0  0
  4 30  1  0  0  0  0
  4 31  1  0  0  0  0
  5 27  1  0  0  0  0
  5 10  1  0  0  0  0
  5  6  1  0  0  0  0
  6 28  1  0  0  0  0
  6  7  1  0  0  0  0
  7  8  1  0  0  0  0
  7 32  1  0  0  0  0
  7 33  1  0  0  0  0
  8  9  1  0  0  0  0
  8 34  1  0  0  0  0
  8 35  1  0  0  0  0
  9 10  1  0  0  0  0
  9 36  1  0  0  0  0
  9 37  1  0  0  0  0
 10 11  1  0  0  0  0
 11 16  1  0  0  0  0
 11 12  2  0  0  0  0
 12 13  1  0  0  0  0
 13 14  2  0  0  0  0
 13 38  1  0  0  0  0
 14 15  1  0  0  0  0
 15 19  1  0  0  0  0
 15 16  2  0  0  0  0
 16 17  1  0  0  0  0
 17 18  2  0  0  0  0
 18 19  1  0  0  0  0
 18 39  1  0  0  0  0
 19 20  1  0  0  0  0
 20 21  1  0  0  0  0
 20 40  1  0  0  0  0
 20 41  1  0  0  0  0
 21 26  1  0  0  0  0
 21 22  1  0  0  0  0
 21 24  1  0  0  0  0
 22 23  1  0  0  0  0
 22 42  1  0  0  0  0
 22 43  1  0  0  0  0
 23 44  1  0  0  0  0
 24 25  1  0  0  0  0
 24 45  1  0  0  0  0
 24 46  1  0  0  0  0
 25 26  1  0  0  0  0
 26 47  1  0  0  0  0
 26 48  1  0  0  0  0
M  END
> <s_m_source_file>
AV-unprocessed.smi

> <i_m_source_file_index>
209

> <i_lp_mmshare_version>
43012

> <i_f3d_flags>
0

> <s_epik_input>
W0NIMl0xW05IXUMoPU8pW0NAQEhdKFtDQEBIXTEyKVtDSDJdW0NIMl1bQ0gyXU4yYyhuW2NIXW4zKWMoYzM0KW5bY0hdbjRbQ0gyXUM1KFtDSDJdW09IXSlbQ0gyXU9bQ0gyXTU=

> <s_epik_cmdline>
J2VwaWtfcHl0aG9uJywgJy1waCcsICc3LjAnLCAnLXRuJywgJzgnLCAnLW1hJywgJzIwMCcsICctbWV0YWxfYmluZGluZycsICctaW1hZScsICc8aW5maWxlLm1hZT4nLCAnLW9tYWUnLCAnPG91dGZpbGUubWFlPic=

> <r_lp_tautomer_probability>
1

> <r_epik_Ionization_Penalty>
0.00113306

> <r_epik_Ionization_Penalty_Charging>
0

> <r_epik_Ionization_Penalty_Neutral>
0.00113306

> <r_epik_State_Penalty>
0.000624042

> <r_epik_Charging_Adjusted_Penalty>
0.000624042

> <i_epik_Tot_Q>
0

> <i_epik_Tot_abs_Q>
0

> <r_epik_Metal_State_Penalty>
-0

> <b_epik_Metal_Only>
0

> <s_lp_Force_Field>
OPLS_2005

> <r_lp_Energy>
56.7924

> <b_lp_Chiralities_Consistent>
1

> <s_lp_Variant>
AV-unprocessed.smi:209-3

> <Gold.Version>
5.8.1

> <Gold.Id.Protein>
6NUR|6NUR_protein|mol2

> <Gold.PLP.Fitness>
39.0076

> <Gold.PLP.PLP>
-37.6414

> <Gold.PLP.part.hbond>
-2.0418

> <Gold.PLP.part.metal>
0.0000

> <Gold.PLP.part.buried>
-8.8360

> <Gold.PLP.part.nonpolar>
-27.8800

> <Gold.PLP.part.repulsive>
0.4926

> <Gold.PLP.ligand.clash>
0.0000

> <Gold.PLP.ligand.torsion>
0.9984

> <Gold.PLP.Chemscore.Hbond>
1.0000

> <Gold.PLP.Chemscore.CHOScore>
0.0000

> <Gold.PLP.Chemscore.Metal>
0.0000

> <Gold.Chemscore.Hbonds>
donor molecule, donor type, donor heavy atom, donor atom, acceptor molecule, acceptor atom, score
      L1  H    23    44       P1 10174  1.00

> <Gold.PLP.Chemscore.Internal.Correction>
0.3630

> <Gold.Rescore>
     Score         DG    S(hbond)    S(metal)    S(lipo)     H(rot)  DE(clash)    DE(int)     intcor
     10.04     -10.68       0.96        0.00      75.31       2.66       0.05       0.58       ----

> <Gold.Chemscore.Fitness>
10.0449

> <Gold.Chemscore.DG>
-10.6755

> <Gold.Chemscore.ZeroCoef>
-5.4800

> <Gold.Chemscore.Hbond>
0.9576

> <Gold.Chemscore.Metal>
0.0000

> <Gold.Chemscore.Lipo>
75.3140

> <Gold.Chemscore.Internal_Hbond>
0.0000

> <Gold.Chemscore.DEClash>
0.0528

> <Gold.Chemscore.DEInternal>
0.5778

> <Gold.Chemscore.Rot>
2.6620

> <Gold.Chemscore.Internal.Correction>
   9.000000E+99

> <Gold.Chemscore.Hbonds>
donor molecule, donor type, donor heavy atom, donor atom, acceptor molecule, acceptor atom, score
      L1  H    23    44       P1 10174  0.74

> <Gold.Chemscore.Hbond.Weighted>
-3.1985

> <Gold.Chemscore.Metal.Weighted>
-0.0000

> <Gold.Chemscore.Lipo.Weighted>
-8.8117

> <Gold.Chemscore.Internal_Hbond.Weighted>
0.0000

> <Gold.Chemscore.DEClash.Weighted>
0.0528

> <Gold.Chemscore.DEInternal.Weighted>
0.5778

> <Gold.Chemscore.Rot.Weighted>
6.8148

> <Gold.Chemscore.Internal.Correction.Weighted>
   9.000000E+99

> <Gold.Protein.RotatedTorsions>
[ 6907 6896 6895 6894 ] final  -96.78 input  -60.11 | X-H torsion
[ 7974 7965 7964 7962 ] final -173.95 input  175.53 | X-H torsion
[ 8008 7997 7996 7995 ] final   98.30 input   59.86 | X-H torsion
[ 10167 10162 10161 10158 ] final   92.93 input  -65.29 | X-H torsion
[ 10718 10713 10712 10709 ] final  121.65 input   66.30 | X-H torsion
[ 10763 10752 10751 10750 ] final -100.64 input  -60.55 | X-H torsion
[ 11005 11000 10999 10996 ] final  -15.47 input  -57.11 | X-H torsion

> <Gold.Protein.ActiveResidues>
 VAL166  LYS551  ARG553  GLY616  TRP617  ASP618  TYR619  PRO620  LYS621  CYS622 
 ASP623  PHE694  ASN695  SER759  ASP760  ASP761  ALA762  ILE779  LEU786  VAL792 
 PHE793  MET794  SER795  GLU796  ALA797  LYS798  CYS799  TRP800  GLU811  SER814 

> <Gold.Protein.RotatedAtoms>
  150.6998  134.1449  159.4118 H   0  0  0  0  0  0  0  0  0  0  0  0  # atno 6907 bound_to 6896
  151.9433  135.0201  160.0546 H   0  0  0  0  0  0  0  0  0  0  0  0  # atno 6908 bound_to 6896
  152.2074  133.4851  159.5128 H   0  0  0  0  0  0  0  0  0  0  0  0  # atno 6909 bound_to 6896
  144.7134  140.1544  143.6381 H   0  0  0  0  0  0  0  0  0  0  0  0  # atno 7974 bound_to 7965
  156.0990  140.3246  155.7917 H   0  0  0  0  0  0  0  0  0  0  0  0  # atno 8008 bound_to 7997
  155.4869  140.0558  157.2976 H   0  0  0  0  0  0  0  0  0  0  0  0  # atno 8009 bound_to 7997
  154.4685  140.2000  156.0071 H   0  0  0  0  0  0  0  0  0  0  0  0  # atno 8010 bound_to 7997
  139.8229  144.6723  150.9496 H   0  0  0  0  0  0  0  0  0  0  0  0  # atno 10167 bound_to 10162
  157.5802  131.1075  150.8202 H   0  0  0  0  0  0  0  0  0  0  0  0  # atno 10718 bound_to 10713
  154.7595  135.4927  153.9437 H   0  0  0  0  0  0  0  0  0  0  0  0  # atno 10763 bound_to 10752
  153.1234  135.6737  153.9305 H   0  0  0  0  0  0  0  0  0  0  0  0  # atno 10764 bound_to 10752
  153.9030  135.3107  155.3427 H   0  0  0  0  0  0  0  0  0  0  0  0  # atno 10765 bound_to 10752
  140.7970  133.8243  155.9433 H   0  0  0  0  0  0  0  0  0  0  0  0  # atno 11005 bound_to 11000
  145.9087  139.2474  143.1450 LP  0  0  0  0  0  0  0  0  0  0  0  0  # atno 17320 bound_to 7965
  145.9738  140.8738  143.0149 LP  0  0  0  0  0  0  0  0  0  0  0  0  # atno 17321 bound_to 7965
  140.7812  143.4074  151.1048 LP  0  0  0  0  0  0  0  0  0  0  0  0  # atno 17342 bound_to 10162
  139.7734  143.8461  152.3125 LP  0  0  0  0  0  0  0  0  0  0  0  0  # atno 17343 bound_to 10162
  156.8650  130.5126  149.5301 LP  0  0  0  0  0  0  0  0  0  0  0  0  # atno 17370 bound_to 10713
  156.0847  130.5849  150.9627 LP  0  0  0  0  0  0  0  0  0  0  0  0  # atno 17371 bound_to 10713
  140.9333  134.1994  157.4849 LP  0  0  0  0  0  0  0  0  0  0  0  0  # atno 17394 bound_to 11000
  139.8725  134.9842  156.5228 LP  0  0  0  0  0  0  0  0  0  0  0  0  # atno 17395 bound_to 11000

$$$$
