AV-unprocessed.smi:1433|AV-procd|sdf|5839|dock8
  -GOLD-   22720 5503D 1   1.00000     0.00000
 Structure written by MMmdl.
 44 45  0  0  0  0  0  0  0  0  1 V2000
  152.1427  145.2910  158.8749 C   0  0  0  0  0  0  0  0  0  0  0  0
  152.0805  143.8450  159.3779 C   0  0  1  0  0  0  0  0  0  0  0  0
  151.2228  142.9501  158.4637 C   0  0  0  0  0  0  0  0  0  0  0  0
  151.2307  141.5502  158.8903 N   0  0  0  0  0  0  0  0  0  0  0  0
  150.3675  140.6806  158.0623 C   0  0  2  0  0  0  0  0  0  0  0  0
  150.8472  139.2125  157.9929 C   0  0  0  0  0  0  0  0  0  0  0  0
  150.1809  141.1914  156.6092 C   0  0  0  0  0  0  0  0  0  0  0  0
  148.7967  141.0534  156.1598 N   0  0  0  0  0  0  0  0  0  0  0  0
  148.3263  141.3842  154.9468 C   0  0  0  0  0  0  0  0  0  0  0  0
  149.0094  141.9063  154.0665 O   0  0  0  0  0  0  0  0  0  0  0  0
  146.8556  141.0640  154.6774 C   0  0  0  0  0  0  0  0  0  0  0  0
  146.0699  142.2758  154.5273 N   0  0  0  0  0  0  0  0  0  0  0  0
  146.0661  143.1699  153.4767 C   0  0  0  0  0  0  0  0  0  0  0  0
  145.1673  144.1517  153.7815 C   0  0  0  0  0  0  0  0  0  0  0  0
  144.6636  143.7651  155.0551 C   0  0  0  0  0  0  0  0  0  0  0  0
  145.2059  142.6426  155.4993 N   0  0  0  0  0  0  0  0  0  0  0  0
  152.6244  141.0979  158.9167 C   0  0  0  0  0  0  0  0  0  0  0  0
  153.5225  141.9699  159.8137 C   0  0  2  0  0  0  0  0  0  0  0  0
  153.2594  141.7626  161.3157 C   0  0  0  0  0  0  0  0  0  0  0  0
  153.4120  143.3408  159.4346 O   0  0  0  0  0  0  0  0  0  0  0  0
  151.1463  145.7299  158.8176 H   0  0  0  0  0  0  0  0  0  0  0  0
  152.5900  145.3446  157.8820 H   0  0  0  0  0  0  0  0  0  0  0  0
  152.7408  145.9104  159.5435 H   0  0  0  0  0  0  0  0  0  0  0  0
  151.6540  143.8509  160.3814 H   0  0  0  0  0  0  0  0  0  0  0  0
  150.2099  143.3492  158.4796 H   0  0  0  0  0  0  0  0  0  0  0  0
  151.5760  143.0246  157.4339 H   0  0  0  0  0  0  0  0  0  0  0  0
  149.3759  140.6608  158.5172 H   0  0  0  0  0  0  0  0  0  0  0  0
  150.2527  138.6350  157.2843 H   0  0  0  0  0  0  0  0  0  0  0  0
  150.7487  138.7041  158.9516 H   0  0  0  0  0  0  0  0  0  0  0  0
  151.8898  139.1447  157.6800 H   0  0  0  0  0  0  0  0  0  0  0  0
  150.4373  142.2498  156.5569 H   0  0  0  0  0  0  0  0  0  0  0  0
  150.8792  140.7105  155.9244 H   0  0  0  0  0  0  0  0  0  0  0  0
  148.1508  140.6336  156.8129 H   0  0  0  0  0  0  0  0  0  0  0  0
  146.7633  140.4733  153.7651 H   0  0  0  0  0  0  0  0  0  0  0  0
  146.4518  140.4603  155.4921 H   0  0  0  0  0  0  0  0  0  0  0  0
  146.6980  143.0344  152.6110 H   0  0  0  0  0  0  0  0  0  0  0  0
  144.9085  145.0141  153.1855 H   0  0  0  0  0  0  0  0  0  0  0  0
  143.9251  144.2630  155.6659 H   0  0  0  0  0  0  0  0  0  0  0  0
  152.6997  140.0722  159.2691 H   0  0  0  0  0  0  0  0  0  0  0  0
  153.0248  141.1015  157.9017 H   0  0  0  0  0  0  0  0  0  0  0  0
  154.5585  141.6845  159.6298 H   0  0  0  0  0  0  0  0  0  0  0  0
  153.4568  140.7299  161.6039 H   0  0  0  0  0  0  0  0  0  0  0  0
  152.2261  141.9807  161.5854 H   0  0  0  0  0  0  0  0  0  0  0  0
  153.9054  142.4028  161.9164 H   0  0  0  0  0  0  0  0  0  0  0  0
  1  2  1  0  0  0  0
  1 21  1  0  0  0  0
  1 22  1  0  0  0  0
  1 23  1  0  0  0  0
  2 20  1  0  0  0  0
  2  3  1  0  0  0  0
  2 24  1  0  0  0  0
  3  4  1  0  0  0  0
  3 25  1  0  0  0  0
  3 26  1  0  0  0  0
  4  5  1  0  0  0  0
  4 17  1  0  0  0  0
  5  6  1  0  0  0  0
  5  7  1  0  0  0  0
  5 27  1  0  0  0  0
  6 28  1  0  0  0  0
  6 29  1  0  0  0  0
  6 30  1  0  0  0  0
  7  8  1  0  0  0  0
  7 31  1  0  0  0  0
  7 32  1  0  0  0  0
  8  9  1  0  0  0  0
  8 33  1  0  0  0  0
  9 10  2  0  0  0  0
  9 11  1  0  0  0  0
 11 12  1  0  0  0  0
 11 34  1  0  0  0  0
 11 35  1  0  0  0  0
 12 16  1  0  0  0  0
 12 13  1  0  0  0  0
 13 14  2  0  0  0  0
 13 36  1  0  0  0  0
 14 15  1  0  0  0  0
 14 37  1  0  0  0  0
 15 16  2  0  0  0  0
 15 38  1  0  0  0  0
 17 18  1  0  0  0  0
 17 39  1  0  0  0  0
 17 40  1  0  0  0  0
 18 19  1  0  0  0  0
 18 20  1  0  0  0  0
 18 41  1  0  0  0  0
 19 42  1  0  0  0  0
 19 43  1  0  0  0  0
 19 44  1  0  0  0  0
M  END
> <s_m_source_file>
AV-unprocessed.smi

> <i_m_source_file_index>
1433

> <i_lp_mmshare_version>
43012

> <i_f3d_flags>
0

> <s_epik_input>
W0NIM11bQ0BASF0xW0NIMl1OKFtDSDJdW0NASF0oTzEpW0NIM10pW0NASF0oW0NIM10pW0NIMl1bTkhdQyg9TylbQ0gyXW4yW2NIXVtjSF1bY0hdbjI=

> <s_epik_cmdline>
J2VwaWtfcHl0aG9uJywgJy1waCcsICc3LjAnLCAnLXRuJywgJzgnLCAnLW1hJywgJzIwMCcsICctbWV0YWxfYmluZGluZycsICctaW1hZScsICc8aW5maWxlLm1hZT4nLCAnLW9tYWUnLCAnPG91dGZpbGUubWFlPic=

> <r_lp_tautomer_probability>
1

> <r_epik_Ionization_Penalty>
0.196927

> <r_epik_Ionization_Penalty_Charging>
0

> <r_epik_Ionization_Penalty_Neutral>
0.196927

> <r_epik_State_Penalty>
0.186684

> <r_epik_Charging_Adjusted_Penalty>
0.186684

> <i_epik_Tot_Q>
0

> <i_epik_Tot_abs_Q>
0

> <r_epik_Metal_State_Penalty>
0.186682

> <b_epik_Metal_Only>
0

> <s_lp_Force_Field>
OPLS_2005

> <r_lp_Energy>
34.0923

> <b_lp_Chiralities_Consistent>
1

> <s_lp_Variant>
AV-unprocessed.smi:1433-5

> <Gold.Version>
5.8.1

> <Gold.Id.Protein>
6NUR|6NUR_protein|mol2

> <Gold.PLP.Fitness>
40.3158

> <Gold.PLP.PLP>
-42.0225

> <Gold.PLP.part.hbond>
-1.0343

> <Gold.PLP.part.metal>
0.0000

> <Gold.PLP.part.buried>
-8.6664

> <Gold.PLP.part.nonpolar>
-33.6202

> <Gold.PLP.part.repulsive>
0.3734

> <Gold.PLP.ligand.clash>
0.0000

> <Gold.PLP.ligand.torsion>
1.5405

> <Gold.PLP.Chemscore.Hbond>
0.4480

> <Gold.PLP.Chemscore.CHOScore>
0.0000

> <Gold.PLP.Chemscore.Metal>
0.0000

> <Gold.Chemscore.Hbonds>
donor molecule, donor type, donor heavy atom, donor atom, acceptor molecule, acceptor atom, score
      P1  H  8011  8017       L1    10  0.46

> <Gold.PLP.Chemscore.Internal.Correction>
0.0303

> <Gold.Rescore>
     Score         DG    S(hbond)    S(metal)    S(lipo)     H(rot)  DE(clash)    DE(int)     intcor
     12.77     -14.38       0.50        0.00     101.12       1.80       0.04       1.57       ----

> <Gold.Chemscore.Fitness>
12.7663

> <Gold.Chemscore.DG>
-14.3786

> <Gold.Chemscore.ZeroCoef>
-5.4800

> <Gold.Chemscore.Hbond>
0.5047

> <Gold.Chemscore.Metal>
0.0000

> <Gold.Chemscore.Lipo>
101.1164

> <Gold.Chemscore.Internal_Hbond>
0.0000

> <Gold.Chemscore.DEClash>
0.0423

> <Gold.Chemscore.DEInternal>
1.5700

> <Gold.Chemscore.Rot>
1.8038

> <Gold.Chemscore.Internal.Correction>
   9.000000E+99

> <Gold.Chemscore.Hbonds>
donor molecule, donor type, donor heavy atom, donor atom, acceptor molecule, acceptor atom, score
      P1  H  8011  8017       L1    10  0.45

> <Gold.Chemscore.Hbond.Weighted>
-1.6858

> <Gold.Chemscore.Metal.Weighted>
-0.0000

> <Gold.Chemscore.Lipo.Weighted>
-11.8306

> <Gold.Chemscore.Internal_Hbond.Weighted>
0.0000

> <Gold.Chemscore.DEClash.Weighted>
0.0423

> <Gold.Chemscore.DEInternal.Weighted>
1.5700

> <Gold.Chemscore.Rot.Weighted>
4.6178

> <Gold.Chemscore.Internal.Correction.Weighted>
   9.000000E+99

> <Gold.Protein.RotatedTorsions>
[ 6907 6896 6895 6894 ] final -100.45 input  -60.11 | X-H torsion
[ 7974 7965 7964 7962 ] final  159.94 input  175.53 | X-H torsion
[ 8008 7997 7996 7995 ] final  -49.04 input   59.86 | X-H torsion
[ 10167 10162 10161 10158 ] final -141.28 input  -65.29 | X-H torsion
[ 10718 10713 10712 10709 ] final -137.09 input   66.30 | X-H torsion
[ 10763 10752 10751 10750 ] final   37.05 input  -60.55 | X-H torsion
[ 11005 11000 10999 10996 ] final -138.29 input  -57.11 | X-H torsion

> <Gold.Protein.ActiveResidues>
 VAL166  LYS551  ARG553  GLY616  TRP617  ASP618  TYR619  PRO620  LYS621  CYS622 
 ASP623  PHE694  ASN695  SER759  ASP760  ASP761  ALA762  ILE779  LEU786  VAL792 
 PHE793  MET794  SER795  GLU796  ALA797  LYS798  CYS799  TRP800  GLU811  SER814 

> <Gold.Protein.RotatedAtoms>
  150.7116  134.0886  159.3923 H   0  0  0  0  0  0  0  0  0  0  0  0  # atno 6907 bound_to 6896
  151.8871  135.0429  160.0503 H   0  0  0  0  0  0  0  0  0  0  0  0  # atno 6908 bound_to 6896
  152.2521  133.5189  159.5368 H   0  0  0  0  0  0  0  0  0  0  0  0  # atno 6909 bound_to 6896
  144.7763  139.7688  143.6277 H   0  0  0  0  0  0  0  0  0  0  0  0  # atno 7974 bound_to 7965
  154.4038  140.1306  156.4438 H   0  0  0  0  0  0  0  0  0  0  0  0  # atno 8008 bound_to 7997
  155.7433  140.3489  155.5094 H   0  0  0  0  0  0  0  0  0  0  0  0  # atno 8009 bound_to 7997
  155.9019  140.1021  157.1334 H   0  0  0  0  0  0  0  0  0  0  0  0  # atno 8010 bound_to 7997
  139.8200  143.7587  152.2666 H   0  0  0  0  0  0  0  0  0  0  0  0  # atno 10167 bound_to 10162
  156.2842  130.7338  151.1344 H   0  0  0  0  0  0  0  0  0  0  0  0  # atno 10718 bound_to 10713
  153.0052  135.6288  154.2083 H   0  0  0  0  0  0  0  0  0  0  0  0  # atno 10763 bound_to 10752
  154.1827  135.2812  155.3049 H   0  0  0  0  0  0  0  0  0  0  0  0  # atno 10764 bound_to 10752
  154.5822  135.5644  153.7256 H   0  0  0  0  0  0  0  0  0  0  0  0  # atno 10765 bound_to 10752
  140.8630  134.2145  157.4696 H   0  0  0  0  0  0  0  0  0  0  0  0  # atno 11005 bound_to 11000
  146.1944  139.5203  142.9784 LP  0  0  0  0  0  0  0  0  0  0  0  0  # atno 17320 bound_to 7965
  145.6177  141.0328  143.1932 LP  0  0  0  0  0  0  0  0  0  0  0  0  # atno 17321 bound_to 7965
  139.7762  144.7460  151.0153 LP  0  0  0  0  0  0  0  0  0  0  0  0  # atno 17342 bound_to 10162
  140.7814  143.4591  151.0303 LP  0  0  0  0  0  0  0  0  0  0  0  0  # atno 17343 bound_to 10162
  157.7323  131.0600  150.5632 LP  0  0  0  0  0  0  0  0  0  0  0  0  # atno 17370 bound_to 10713
  156.5741  130.4287  149.6006 LP  0  0  0  0  0  0  0  0  0  0  0  0  # atno 17371 bound_to 10713
  139.8708  134.9738  156.4824 LP  0  0  0  0  0  0  0  0  0  0  0  0  # atno 17394 bound_to 11000
  140.8661  133.8023  155.9315 LP  0  0  0  0  0  0  0  0  0  0  0  0  # atno 17395 bound_to 11000

$$$$
