AV-unprocessed.smi:2083|AV-procd|sdf|8494|dock3
  -GOLD-   2272011203D 1   1.00000     0.00000
 Structure written by MMmdl.
 45 46  0  0  0  0  0  0  0  0  2 V2000
  150.5187  141.7083  156.2458 C   0  0  0  0  0  0  0  0  0  0  0  0
  150.3901  140.3984  155.5468 C   0  0  0  0  0  0  0  0  0  0  0  0
  149.3272  139.5744  155.3028 C   0  0  0  0  0  0  0  0  0  0  0  0
  149.9151  138.4978  154.5871 C   0  0  0  0  0  0  0  0  0  0  0  0
  149.1282  137.4087  154.1321 N   0  0  0  0  0  0  0  0  0  0  0  0
  148.2829  136.6541  154.8548 C   0  0  0  0  0  0  0  0  0  0  0  0
  148.0377  136.8093  156.0516 O   0  0  0  0  0  0  0  0  0  0  0  0
  147.7268  135.6871  154.1105 N   0  0  0  0  0  0  0  0  0  0  0  0
  146.7761  134.7010  154.6159 C   0  0  0  0  0  0  0  0  0  0  0  0
  146.9001  133.3245  153.9123 C   0  0  2  0  0  0  0  0  0  0  0  0
  148.3860  132.8990  153.8303 C   0  0  0  0  0  0  0  0  0  0  0  0
  146.1968  133.3708  152.5890 N   0  3  1  0  0  0  0  0  0  0  0  0
  146.2078  132.1108  151.7905 C   0  0  0  0  0  0  0  0  0  0  0  0
  145.5937  132.3221  150.3964 C   0  0  0  0  0  0  0  0  0  0  0  0
  144.1755  132.8979  150.4878 C   0  0  0  0  0  0  0  0  0  0  0  0
  144.1508  134.1687  151.3529 C   0  0  2  0  0  0  0  0  0  0  0  0
  144.7623  135.3898  150.6441 C   0  0  0  0  0  0  0  0  0  0  0  0
  144.8071  133.8978  152.7211 C   0  0  0  0  0  0  0  0  0  0  0  0
  151.2192  138.6492  154.4124 N   0  0  0  0  0  0  0  0  0  0  0  0
  151.5303  139.8678  155.0270 O   0  0  0  0  0  0  0  0  0  0  0  0
  149.5410  142.1646  156.4008 H   0  0  0  0  0  0  0  0  0  0  0  0
  151.1253  142.4015  155.6625 H   0  0  0  0  0  0  0  0  0  0  0  0
  150.9912  141.5808  157.2199 H   0  0  0  0  0  0  0  0  0  0  0  0
  148.2967  139.7228  155.5898 H   0  0  0  0  0  0  0  0  0  0  0  0
  149.2293  137.1738  153.1557 H   0  0  0  0  0  0  0  0  0  0  0  0
  147.9778  135.6264  153.1343 H   0  0  0  0  0  0  0  0  0  0  0  0
  146.9065  134.6195  155.6949 H   0  0  0  0  0  0  0  0  0  0  0  0
  145.7716  135.0987  154.4681 H   0  0  0  0  0  0  0  0  0  0  0  0
  146.3997  132.5681  154.5194 H   0  0  0  0  0  0  0  0  0  0  0  0
  148.8531  132.8868  154.8150 H   0  0  0  0  0  0  0  0  0  0  0  0
  148.9648  133.5805  153.2062 H   0  0  0  0  0  0  0  0  0  0  0  0
  148.5006  131.8890  153.4363 H   0  0  0  0  0  0  0  0  0  0  0  0
  147.2257  131.7551  151.6355 H   0  0  0  0  0  0  0  0  0  0  0  0
  145.6683  131.3300  152.3290 H   0  0  0  0  0  0  0  0  0  0  0  0
  146.2286  132.9903  149.8137 H   0  0  0  0  0  0  0  0  0  0  0  0
  145.5727  131.3760  149.8547 H   0  0  0  0  0  0  0  0  0  0  0  0
  143.7838  133.1038  149.4910 H   0  0  0  0  0  0  0  0  0  0  0  0
  143.5143  132.1499  150.9274 H   0  0  0  0  0  0  0  0  0  0  0  0
  143.1038  134.4138  151.5364 H   0  0  0  0  0  0  0  0  0  0  0  0
  145.8232  135.2526  150.4350 H   0  0  0  0  0  0  0  0  0  0  0  0
  144.6617  136.2867  151.2558 H   0  0  0  0  0  0  0  0  0  0  0  0
  144.2596  135.5833  149.6961 H   0  0  0  0  0  0  0  0  0  0  0  0
  144.2078  133.1724  153.2742 H   0  0  0  0  0  0  0  0  0  0  0  0
  144.7882  134.8136  153.3104 H   0  0  0  0  0  0  0  0  0  0  0  0
  146.7083  134.0418  152.0338 H   0  0  0  0  0  0  0  0  0  0  0  0
  1  2  1  0  0  0  0
  1 21  1  0  0  0  0
  1 22  1  0  0  0  0
  1 23  1  0  0  0  0
  2 20  1  0  0  0  0
  2  3  2  0  0  0  0
  3  4  1  0  0  0  0
  3 24  1  0  0  0  0
  4  5  1  0  0  0  0
  4 19  2  0  0  0  0
  5  6  1  0  0  0  0
  5 25  1  0  0  0  0
  6  7  2  0  0  0  0
  6  8  1  0  0  0  0
  8  9  1  0  0  0  0
  8 26  1  0  0  0  0
  9 10  1  0  0  0  0
  9 27  1  0  0  0  0
  9 28  1  0  0  0  0
 10 11  1  0  0  0  0
 10 12  1  0  0  0  0
 10 29  1  0  0  0  0
 11 30  1  0  0  0  0
 11 31  1  0  0  0  0
 11 32  1  0  0  0  0
 12 18  1  0  0  0  0
 12 13  1  0  0  0  0
 12 45  1  0  0  0  0
 13 14  1  0  0  0  0
 13 33  1  0  0  0  0
 13 34  1  0  0  0  0
 14 15  1  0  0  0  0
 14 35  1  0  0  0  0
 14 36  1  0  0  0  0
 15 16  1  0  0  0  0
 15 37  1  0  0  0  0
 15 38  1  0  0  0  0
 16 17  1  0  0  0  0
 16 18  1  0  0  0  0
 16 39  1  0  0  0  0
 17 40  1  0  0  0  0
 17 41  1  0  0  0  0
 17 42  1  0  0  0  0
 18 43  1  0  0  0  0
 18 44  1  0  0  0  0
 19 20  1  0  0  0  0
M  CHG  1  12   1
M  END
> <s_m_source_file>
AV-unprocessed.smi

> <i_m_source_file_index>
2083

> <i_lp_mmshare_version>
43012

> <i_f3d_flags>
0

> <s_epik_input>
W0NIM11jMVtjSF1jKG5vMSlbTkhdQyg9TylbTkhdW0NIMl1bQ0BIXShbQ0gzXSlOMltDSDJdW0NIMl1bQ0gyXVtDQEBIXShbQ0gzXSlbQ0gyXTI=

> <s_epik_cmdline>
J2VwaWtfcHl0aG9uJywgJy1waCcsICc3LjAnLCAnLXRuJywgJzgnLCAnLW1hJywgJzIwMCcsICctbWV0YWxfYmluZGluZycsICctaW1hZScsICc8aW5maWxlLm1hZT4nLCAnLW9tYWUnLCAnPG91dGZpbGUubWFlPic=

> <r_epik_Ionization_Penalty>
0.00216453

> <r_epik_Ionization_Penalty_Charging>
0.00212879

> <r_epik_Ionization_Penalty_Neutral>
3.57418e-05

> <r_epik_State_Penalty>
0.00146033

> <r_epik_Charging_Adjusted_Penalty>
0.00358912

> <i_epik_Tot_Q>
1

> <i_epik_Tot_abs_Q>
1

> <r_epik_Metal_State_Penalty>
0.0215827

> <b_epik_Metal_Only>
0

> <s_lp_Force_Field>
OPLS_2005

> <r_lp_Energy>
21.862

> <b_lp_Chiralities_Consistent>
1

> <s_lp_Variant>
AV-unprocessed.smi:2083-5

> <Gold.Version>
5.8.1

> <Gold.Id.Protein>
6NUR|6NUR_protein|mol2

> <Gold.PLP.Fitness>
37.9033

> <Gold.PLP.PLP>
-30.9415

> <Gold.PLP.part.hbond>
-3.0000

> <Gold.PLP.part.metal>
0.0000

> <Gold.PLP.part.buried>
-5.4120

> <Gold.PLP.part.nonpolar>
-23.8473

> <Gold.PLP.part.repulsive>
0.2377

> <Gold.PLP.ligand.clash>
0.0000

> <Gold.PLP.ligand.torsion>
0.8143

> <Gold.PLP.Chemscore.Hbond>
2.8440

> <Gold.PLP.Chemscore.CHOScore>
0.0000

> <Gold.PLP.Chemscore.Metal>
0.0000

> <Gold.Chemscore.Hbonds>
donor molecule, donor type, donor heavy atom, donor atom, acceptor molecule, acceptor atom, score
      L1  H     5    25       P1  7948  1.00
      L1  H     8    26       P1  7948  0.96
      P1  H  7989  7998       L1    20  0.81

> <Gold.PLP.Chemscore.Internal.Correction>
0.0584

> <Gold.Rescore>
     Score         DG    S(hbond)    S(metal)    S(lipo)     H(rot)  DE(clash)    DE(int)     intcor
     15.21     -16.04       1.95        0.00      68.28       1.55       0.01       0.82       ----

> <Gold.Chemscore.Fitness>
15.2054

> <Gold.Chemscore.DG>
-16.0359

> <Gold.Chemscore.ZeroCoef>
-5.4800

> <Gold.Chemscore.Hbond>
1.9547

> <Gold.Chemscore.Metal>
0.0000

> <Gold.Chemscore.Lipo>
68.2785

> <Gold.Chemscore.Internal_Hbond>
0.0000

> <Gold.Chemscore.DEClash>
0.0073

> <Gold.Chemscore.DEInternal>
0.8232

> <Gold.Chemscore.Rot>
1.5474

> <Gold.Chemscore.Internal.Correction>
   9.000000E+99

> <Gold.Chemscore.Hbonds>
donor molecule, donor type, donor heavy atom, donor atom, acceptor molecule, acceptor atom, score
      L1  H     5    25       P1  7948  0.95
      L1  H     8    26       P1  7948  0.92
      P1  H  7989  7998       L1    20  0.03

> <Gold.Chemscore.Hbond.Weighted>
-6.5286

> <Gold.Chemscore.Metal.Weighted>
-0.0000

> <Gold.Chemscore.Lipo.Weighted>
-7.9886

> <Gold.Chemscore.Internal_Hbond.Weighted>
0.0000

> <Gold.Chemscore.DEClash.Weighted>
0.0073

> <Gold.Chemscore.DEInternal.Weighted>
0.8232

> <Gold.Chemscore.Rot.Weighted>
3.9612

> <Gold.Chemscore.Internal.Correction.Weighted>
   9.000000E+99

> <Gold.Protein.RotatedTorsions>
[ 6907 6896 6895 6894 ] final  -90.22 input  -60.11 | X-H torsion
[ 7974 7965 7964 7962 ] final    3.43 input  175.53 | X-H torsion
[ 8008 7997 7996 7995 ] final  163.80 input   59.86 | X-H torsion
[ 10167 10162 10161 10158 ] final  -92.48 input  -65.29 | X-H torsion
[ 10718 10713 10712 10709 ] final -176.19 input   66.30 | X-H torsion
[ 10763 10752 10751 10750 ] final   30.45 input  -60.55 | X-H torsion
[ 11005 11000 10999 10996 ] final  130.51 input  -57.11 | X-H torsion

> <Gold.Protein.ActiveResidues>
 VAL166  LYS551  ARG553  GLY616  TRP617  ASP618  TYR619  PRO620  LYS621  CYS622 
 ASP623  PHE694  ASN695  SER759  ASP760  ASP761  ALA762  ILE779  LEU786  VAL792 
 PHE793  MET794  SER795  GLU796  ALA797  LYS798  CYS799  TRP800  GLU811  SER814 

> <Gold.Protein.RotatedAtoms>
  150.6880  134.2465  159.4493 H   0  0  0  0  0  0  0  0  0  0  0  0  # atno 6907 bound_to 6896
  152.0406  134.9711  160.0583 H   0  0  0  0  0  0  0  0  0  0  0  0  # atno 6908 bound_to 6896
  152.1215  133.4321  159.4714 H   0  0  0  0  0  0  0  0  0  0  0  0  # atno 6909 bound_to 6896
  146.2445  140.0687  142.8364 H   0  0  0  0  0  0  0  0  0  0  0  0  # atno 7974 bound_to 7965
  156.1929  140.1714  156.8055 H   0  0  0  0  0  0  0  0  0  0  0  0  # atno 8008 bound_to 7997
  154.5494  140.0720  156.8674 H   0  0  0  0  0  0  0  0  0  0  0  0  # atno 8009 bound_to 7997
  155.3058  140.3364  155.4248 H   0  0  0  0  0  0  0  0  0  0  0  0  # atno 8010 bound_to 7997
  140.3344  143.2977  151.9906 H   0  0  0  0  0  0  0  0  0  0  0  0  # atno 10167 bound_to 10162
  156.8111  130.9586  151.3116 H   0  0  0  0  0  0  0  0  0  0  0  0  # atno 10718 bound_to 10713
  153.0371  135.6464  154.1046 H   0  0  0  0  0  0  0  0  0  0  0  0  # atno 10763 bound_to 10752
  154.0759  135.2877  155.3301 H   0  0  0  0  0  0  0  0  0  0  0  0  # atno 10764 bound_to 10752
  154.6563  135.5408  153.8027 H   0  0  0  0  0  0  0  0  0  0  0  0  # atno 10765 bound_to 10752
  139.9676  134.9586  156.9304 H   0  0  0  0  0  0  0  0  0  0  0  0  # atno 11005 bound_to 11000
  145.0835  140.9237  143.4811 LP  0  0  0  0  0  0  0  0  0  0  0  0  # atno 17320 bound_to 7965
  145.0845  139.2935  143.5766 LP  0  0  0  0  0  0  0  0  0  0  0  0  # atno 17321 bound_to 7965
  139.4851  144.6209  151.7258 LP  0  0  0  0  0  0  0  0  0  0  0  0  # atno 17342 bound_to 10162
  140.5367  144.0644  150.6073 LP  0  0  0  0  0  0  0  0  0  0  0  0  # atno 17343 bound_to 10162
  157.6505  130.8881  149.9624 LP  0  0  0  0  0  0  0  0  0  0  0  0  # atno 17370 bound_to 10713
  156.1044  130.3653  150.0160 LP  0  0  0  0  0  0  0  0  0  0  0  0  # atno 17371 bound_to 10713
  140.5363  134.0764  155.7329 LP  0  0  0  0  0  0  0  0  0  0  0  0  # atno 17394 bound_to 11000
  141.1356  133.9228  157.2441 LP  0  0  0  0  0  0  0  0  0  0  0  0  # atno 17395 bound_to 11000

$$$$
