AV-unprocessed.smi:1108|AV-procd|sdf|4788|dock7
  -GOLD-   22720 3333D 1   1.00000     0.00000
 Structure written by MMmdl.
 31 32  0  0  0  0  0  0  0  0  1 V2000
  145.0491  137.4569  152.5710 C   0  0  0  0  0  0  0  0  0  0  0  0
  145.1584  135.9474  152.3158 C   0  0  1  0  0  0  0  0  0  0  0  0
  144.9359  135.6137  150.8246 C   0  0  0  0  0  0  0  0  0  0  0  0
  145.0511  134.1939  150.5420 N   0  0  0  0  0  0  0  0  0  0  0  0
  144.0968  133.3431  150.0250 C   0  0  0  0  0  0  0  0  0  0  0  0
  144.6685  132.1077  149.9196 C   0  0  0  0  0  0  0  0  0  0  0  0
  145.9901  132.3045  150.4089 C   0  0  0  0  0  0  0  0  0  0  0  0
  146.2146  133.5529  150.7857 N   0  0  0  0  0  0  0  0  0  0  0  0
  146.4719  135.4840  152.7628 N   0  0  0  0  0  0  0  0  0  0  0  0
  146.6939  134.5259  153.6750 C   0  0  0  0  0  0  0  0  0  0  0  0
  145.8043  133.9218  154.2743 O   0  0  0  0  0  0  0  0  0  0  0  0
  148.0026  134.2950  153.8421 N   0  0  0  0  0  0  0  0  0  0  0  0
  148.5625  133.3206  154.7217 C   0  0  0  0  0  0  0  0  0  0  0  0
  150.0582  133.3565  154.9498 C   0  0  0  0  0  0  0  0  0  0  0  0
  149.4552  132.2584  154.1178 C   0  0  0  0  0  0  0  0  0  0  0  0
  144.0677  137.8331  152.2803 H   0  0  0  0  0  0  0  0  0  0  0  0
  145.7986  138.0123  152.0061 H   0  0  0  0  0  0  0  0  0  0  0  0
  145.1884  137.6878  153.6277 H   0  0  0  0  0  0  0  0  0  0  0  0
  144.3754  135.4653  152.9043 H   0  0  0  0  0  0  0  0  0  0  0  0
  143.9427  135.9385  150.5110 H   0  0  0  0  0  0  0  0  0  0  0  0
  145.6500  136.1534  150.2009 H   0  0  0  0  0  0  0  0  0  0  0  0
  143.1046  133.6859  149.7710 H   0  0  0  0  0  0  0  0  0  0  0  0
  144.2126  131.2021  149.5483 H   0  0  0  0  0  0  0  0  0  0  0  0
  146.7876  131.5822  150.5018 H   0  0  0  0  0  0  0  0  0  0  0  0
  147.2741  135.9184  152.3308 H   0  0  0  0  0  0  0  0  0  0  0  0
  148.6538  134.8454  153.3018 H   0  0  0  0  0  0  0  0  0  0  0  0
  147.9583  133.0101  155.5729 H   0  0  0  0  0  0  0  0  0  0  0  0
  150.6350  134.1200  154.4311 H   0  0  0  0  0  0  0  0  0  0  0  0
  150.4196  133.0946  155.9422 H   0  0  0  0  0  0  0  0  0  0  0  0
  149.4130  131.2624  154.5541 H   0  0  0  0  0  0  0  0  0  0  0  0
  149.6276  132.2887  153.0436 H   0  0  0  0  0  0  0  0  0  0  0  0
  1  2  1  0  0  0  0
  1 16  1  0  0  0  0
  1 17  1  0  0  0  0
  1 18  1  0  0  0  0
  2  3  1  0  0  0  0
  2  9  1  0  0  0  0
  2 19  1  0  0  0  0
  3  4  1  0  0  0  0
  3 20  1  0  0  0  0
  3 21  1  0  0  0  0
  4  8  1  0  0  0  0
  4  5  1  0  0  0  0
  5  6  2  0  0  0  0
  5 22  1  0  0  0  0
  6  7  1  0  0  0  0
  6 23  1  0  0  0  0
  7  8  2  0  0  0  0
  7 24  1  0  0  0  0
  9 10  1  0  0  0  0
  9 25  1  0  0  0  0
 10 11  2  0  0  0  0
 10 12  1  0  0  0  0
 12 13  1  0  0  0  0
 12 26  1  0  0  0  0
 13 15  1  0  0  0  0
 13 14  1  0  0  0  0
 13 27  1  0  0  0  0
 14 15  1  0  0  0  0
 14 28  1  0  0  0  0
 14 29  1  0  0  0  0
 15 30  1  0  0  0  0
 15 31  1  0  0  0  0
M  END
> <s_m_source_file>
AV-unprocessed.smi

> <i_m_source_file_index>
1108

> <i_lp_mmshare_version>
43012

> <i_f3d_flags>
0

> <s_epik_input>
W0NIMl0xW0NIMl1bQ0hdMVtOSF1DKD1PKVtOSF1bQ0BIXShbQ0gzXSlbQ0gyXW4yW2NIXVtjSF1bY0hdbjI=

> <s_epik_cmdline>
J2VwaWtfcHl0aG9uJywgJy1waCcsICc3LjAnLCAnLXRuJywgJzgnLCAnLW1hJywgJzIwMCcsICctbWV0YWxfYmluZGluZycsICctaW1hZScsICc8aW5maWxlLm1hZT4nLCAnLW9tYWUnLCAnPG91dGZpbGUubWFlPic=

> <r_lp_tautomer_probability>
1

> <r_epik_Ionization_Penalty>
7.55353e-05

> <r_epik_Ionization_Penalty_Charging>
0

> <r_epik_Ionization_Penalty_Neutral>
7.55353e-05

> <r_epik_State_Penalty>
-0

> <r_epik_Charging_Adjusted_Penalty>
0

> <i_epik_Tot_Q>
0

> <i_epik_Tot_abs_Q>
0

> <r_epik_Metal_State_Penalty>
-0

> <b_epik_Metal_Only>
0

> <s_lp_Force_Field>
OPLS_2005

> <r_lp_Energy>
13.7301

> <b_lp_Chiralities_Consistent>
1

> <s_lp_Variant>
AV-unprocessed.smi:1108-2

> <Gold.Version>
5.8.1

> <Gold.Id.Protein>
6NUR|6NUR_protein|mol2

> <Gold.PLP.Fitness>
39.2360

> <Gold.PLP.PLP>
-27.3950

> <Gold.PLP.part.hbond>
-2.0000

> <Gold.PLP.part.metal>
0.0000

> <Gold.PLP.part.buried>
-3.4088

> <Gold.PLP.part.nonpolar>
-22.4075

> <Gold.PLP.part.repulsive>
0.2814

> <Gold.PLP.ligand.clash>
0.0000

> <Gold.PLP.ligand.torsion>
0.0660

> <Gold.PLP.Chemscore.Hbond>
1.9760

> <Gold.PLP.Chemscore.CHOScore>
2.0000

> <Gold.PLP.Chemscore.Metal>
0.0000

> <Gold.Chemscore.Hbonds>
donor molecule, donor type, donor heavy atom, donor atom, acceptor molecule, acceptor atom, score
      L1  H     9    25       P1  7948  1.00
      L1  H    12    26       P1  7948  0.99
      L1  C     5    22       P1 10186  1.00
      L1  C     7    24       P1 10747  1.00

> <Gold.PLP.Chemscore.Internal.Correction>
0.0449

> <Gold.Rescore>
     Score         DG    S(hbond)    S(metal)    S(lipo)     H(rot)  DE(clash)    DE(int)     intcor
     14.11     -14.19       1.74        0.00      62.21       1.71       0.00       0.07       ----

> <Gold.Chemscore.Fitness>
14.1139

> <Gold.Chemscore.DG>
-14.1880

> <Gold.Chemscore.ZeroCoef>
-5.4800

> <Gold.Chemscore.Hbond>
1.7368

> <Gold.Chemscore.Metal>
0.0000

> <Gold.Chemscore.Lipo>
62.2085

> <Gold.Chemscore.Internal_Hbond>
0.0000

> <Gold.Chemscore.DEClash>
0.0000

> <Gold.Chemscore.DEInternal>
0.0741

> <Gold.Chemscore.Rot>
1.7075

> <Gold.Chemscore.Internal.Correction>
   9.000000E+99

> <Gold.Chemscore.Hbonds>
donor molecule, donor type, donor heavy atom, donor atom, acceptor molecule, acceptor atom, score
      L1  H     9    25       P1  7948  1.00
      L1  H    12    26       P1  7948  0.45

> <Gold.Chemscore.Hbond.Weighted>
-5.8009

> <Gold.Chemscore.Metal.Weighted>
-0.0000

> <Gold.Chemscore.Lipo.Weighted>
-7.2784

> <Gold.Chemscore.Internal_Hbond.Weighted>
0.0000

> <Gold.Chemscore.DEClash.Weighted>
0.0000

> <Gold.Chemscore.DEInternal.Weighted>
0.0741

> <Gold.Chemscore.Rot.Weighted>
4.3713

> <Gold.Chemscore.Internal.Correction.Weighted>
   9.000000E+99

> <Gold.Protein.RotatedTorsions>
[ 6907 6896 6895 6894 ] final   45.82 input  -60.11 | X-H torsion
[ 7974 7965 7964 7962 ] final  -69.21 input  175.53 | X-H torsion
[ 8008 7997 7996 7995 ] final  145.11 input   59.86 | X-H torsion
[ 10167 10162 10161 10158 ] final -147.66 input  -65.29 | X-H torsion
[ 10718 10713 10712 10709 ] final  135.54 input   66.30 | X-H torsion
[ 10763 10752 10751 10750 ] final   16.40 input  -60.55 | X-H torsion
[ 11005 11000 10999 10996 ] final  118.17 input  -57.11 | X-H torsion

> <Gold.Protein.ActiveResidues>
 VAL166  LYS551  ARG553  GLY616  TRP617  ASP618  TYR619  PRO620  LYS621  CYS622 
 ASP623  PHE694  ASN695  SER759  ASP760  ASP761  ALA762  ILE779  LEU786  VAL792 
 PHE793  MET794  SER795  GLU796  ALA797  LYS798  CYS799  TRP800  GLU811  SER814 

> <Gold.Protein.RotatedAtoms>
  152.2490  134.8151  160.0448 H   0  0  0  0  0  0  0  0  0  0  0  0  # atno 6907 bound_to 6896
  151.8838  133.3496  159.3783 H   0  0  0  0  0  0  0  0  0  0  0  0  # atno 6908 bound_to 6896
  150.7078  134.4918  159.5563 H   0  0  0  0  0  0  0  0  0  0  0  0  # atno 6909 bound_to 6896
  145.7067  140.9095  143.0702 H   0  0  0  0  0  0  0  0  0  0  0  0  # atno 7974 bound_to 7965
  156.2891  140.2218  156.5162 H   0  0  0  0  0  0  0  0  0  0  0  0  # atno 8008 bound_to 7997
  154.7567  140.0476  157.0960 H   0  0  0  0  0  0  0  0  0  0  0  0  # atno 8009 bound_to 7997
  155.0042  140.3105  155.4858 H   0  0  0  0  0  0  0  0  0  0  0  0  # atno 8010 bound_to 7997
  139.7601  143.8389  152.2605 H   0  0  0  0  0  0  0  0  0  0  0  0  # atno 10167 bound_to 10162
  157.4560  131.1070  150.9977 H   0  0  0  0  0  0  0  0  0  0  0  0  # atno 10718 bound_to 10713
  153.1434  135.6764  153.8991 H   0  0  0  0  0  0  0  0  0  0  0  0  # atno 10763 bound_to 10752
  153.8441  135.3101  155.3429 H   0  0  0  0  0  0  0  0  0  0  0  0  # atno 10764 bound_to 10752
  154.7806  135.4890  153.9921 H   0  0  0  0  0  0  0  0  0  0  0  0  # atno 10765 bound_to 10752
  139.9100  134.9617  156.7462 H   0  0  0  0  0  0  0  0  0  0  0  0  # atno 11005 bound_to 11000
  144.6953  139.9019  143.7459 LP  0  0  0  0  0  0  0  0  0  0  0  0  # atno 17320 bound_to 7965
  146.0749  139.3738  143.0500 LP  0  0  0  0  0  0  0  0  0  0  0  0  # atno 17321 bound_to 7965
  139.8393  144.7217  150.9352 LP  0  0  0  0  0  0  0  0  0  0  0  0  # atno 17342 bound_to 10162
  140.7806  143.3998  151.1168 LP  0  0  0  0  0  0  0  0  0  0  0  0  # atno 17343 bound_to 10162
  157.0791  130.5895  149.5417 LP  0  0  0  0  0  0  0  0  0  0  0  0  # atno 17370 bound_to 10713
  156.0007  130.5086  150.7653 LP  0  0  0  0  0  0  0  0  0  0  0  0  # atno 17371 bound_to 10713
  140.6810  133.9475  155.7910 LP  0  0  0  0  0  0  0  0  0  0  0  0  # atno 17394 bound_to 11000
  141.0510  134.0484  157.3783 LP  0  0  0  0  0  0  0  0  0  0  0  0  # atno 17395 bound_to 11000

$$$$
