AV-unprocessed.smi:3136|AV-procd|sdf|11949|dock8
  -GOLD-   2272017343D 1   1.00000     0.00000
 Structure written by MMmdl.
 40 40  0  0  0  0  0  0  0  0  2 V2000
  143.8581  132.0651  149.9855 C   0  0  0  0  0  0  0  0  0  0  0  0
  145.3334  132.4330  150.1952 C   0  0  0  0  0  0  0  0  0  0  0  0
  145.5315  133.8782  150.2010 N   0  0  0  0  0  0  0  0  0  0  0  0
  145.3393  134.6802  151.2594 C   0  0  0  0  0  0  0  0  0  0  0  0
  144.9701  134.2682  152.3597 O   0  0  0  0  0  0  0  0  0  0  0  0
  145.6066  136.1710  151.0259 C   0  0  0  0  0  0  0  0  0  0  0  0
  145.4380  137.0306  152.2907 C   0  0  0  0  0  0  0  0  0  0  0  0
  145.5667  138.4677  151.9735 N   0  3  0  0  0  0  0  0  0  0  0  0
  146.8593  139.0844  152.3534 C   0  0  1  0  0  0  0  0  0  0  0  0
  146.7583  140.6097  152.1853 C   0  0  0  0  0  0  0  0  0  0  0  0
  147.3026  138.6770  153.7859 C   0  0  2  0  0  0  0  0  0  0  0  0
  146.1587  138.6843  154.8171 C   0  0  0  0  0  0  0  0  0  0  0  0
  148.4600  139.4273  154.2636 N   0  0  0  0  0  0  0  0  0  0  0  0
  148.5246  140.7624  154.6077 C   0  0  0  0  0  0  0  0  0  0  0  0
  149.8037  141.0214  155.0085 C   0  0  0  0  0  0  0  0  0  0  0  0
  150.4596  139.7663  154.8777 C   0  0  0  0  0  0  0  0  0  0  0  0
  149.6536  138.8142  154.4366 N   0  0  0  0  0  0  0  0  0  0  0  0
  143.7333  130.9834  149.9295 H   0  0  0  0  0  0  0  0  0  0  0  0
  143.4724  132.4925  149.0592 H   0  0  0  0  0  0  0  0  0  0  0  0
  143.2373  132.4261  150.8061 H   0  0  0  0  0  0  0  0  0  0  0  0
  145.7072  131.9944  151.1221 H   0  0  0  0  0  0  0  0  0  0  0  0
  145.9346  132.0120  149.3890 H   0  0  0  0  0  0  0  0  0  0  0  0
  145.8361  134.2982  149.3345 H   0  0  0  0  0  0  0  0  0  0  0  0
  146.6197  136.2832  150.6366 H   0  0  0  0  0  0  0  0  0  0  0  0
  144.9286  136.5236  150.2474 H   0  0  0  0  0  0  0  0  0  0  0  0
  144.4643  136.8436  152.7442 H   0  0  0  0  0  0  0  0  0  0  0  0
  146.1955  136.7657  153.0301 H   0  0  0  0  0  0  0  0  0  0  0  0
  145.4536  138.5716  150.9753 H   0  0  0  0  0  0  0  0  0  0  0  0
  147.6260  138.7439  151.6554 H   0  0  0  0  0  0  0  0  0  0  0  0
  147.6971  141.0964  152.4507 H   0  0  0  0  0  0  0  0  0  0  0  0
  145.9736  141.0369  152.8107 H   0  0  0  0  0  0  0  0  0  0  0  0
  146.5340  140.8740  151.1514 H   0  0  0  0  0  0  0  0  0  0  0  0
  147.6282  137.6377  153.7175 H   0  0  0  0  0  0  0  0  0  0  0  0
  145.3235  138.0697  154.4806 H   0  0  0  0  0  0  0  0  0  0  0  0
  145.7798  139.6896  155.0015 H   0  0  0  0  0  0  0  0  0  0  0  0
  146.4955  138.2827  155.7732 H   0  0  0  0  0  0  0  0  0  0  0  0
  147.6639  141.4116  154.5400 H   0  0  0  0  0  0  0  0  0  0  0  0
  150.2095  141.9644  155.3441 H   0  0  0  0  0  0  0  0  0  0  0  0
  151.4896  139.5208  155.0904 H   0  0  0  0  0  0  0  0  0  0  0  0
  144.8257  138.9798  152.4323 H   0  0  0  0  0  0  0  0  0  0  0  0
  1  2  1  0  0  0  0
  1 18  1  0  0  0  0
  1 19  1  0  0  0  0
  1 20  1  0  0  0  0
  2  3  1  0  0  0  0
  2 21  1  0  0  0  0
  2 22  1  0  0  0  0
  3  4  1  0  0  0  0
  3 23  1  0  0  0  0
  4  5  2  0  0  0  0
  4  6  1  0  0  0  0
  6  7  1  0  0  0  0
  6 24  1  0  0  0  0
  6 25  1  0  0  0  0
  7  8  1  0  0  0  0
  7 26  1  0  0  0  0
  7 27  1  0  0  0  0
  8  9  1  0  0  0  0
  8 28  1  0  0  0  0
  8 40  1  0  0  0  0
  9 10  1  0  0  0  0
  9 11  1  0  0  0  0
  9 29  1  0  0  0  0
 10 30  1  0  0  0  0
 10 31  1  0  0  0  0
 10 32  1  0  0  0  0
 11 12  1  0  0  0  0
 11 13  1  0  0  0  0
 11 33  1  0  0  0  0
 12 34  1  0  0  0  0
 12 35  1  0  0  0  0
 12 36  1  0  0  0  0
 13 17  1  0  0  0  0
 13 14  1  0  0  0  0
 14 15  2  0  0  0  0
 14 37  1  0  0  0  0
 15 16  1  0  0  0  0
 15 38  1  0  0  0  0
 16 17  2  0  0  0  0
 16 39  1  0  0  0  0
M  CHG  1   8   1
M  END
> <s_m_source_file>
AV-unprocessed.smi

> <i_m_source_file_index>
3136

> <i_lp_mmshare_version>
43012

> <i_f3d_flags>
0

> <s_epik_input>
W0NIM11bQ0gyXVtOSF1DKD1PKVtDSDJdW0NIMl1bTkhdW0NASF0oW0NIM10pW0NASF0oW0NIM10pbjFbY0hdW2NIXVtjSF1uMQ==

> <s_epik_cmdline>
J2VwaWtfcHl0aG9uJywgJy1waCcsICc3LjAnLCAnLXRuJywgJzgnLCAnLW1hJywgJzIwMCcsICctbWV0YWxfYmluZGluZycsICctaW1hZScsICc8aW5maWxlLm1hZT4nLCAnLW9tYWUnLCAnPG91dGZpbGUubWFlPic=

> <r_lp_tautomer_probability>
1

> <r_epik_Ionization_Penalty>
0.00463447

> <r_epik_Ionization_Penalty_Charging>
0.00462393

> <r_epik_Ionization_Penalty_Neutral>
1.05394e-05

> <r_epik_State_Penalty>
-0

> <r_epik_Charging_Adjusted_Penalty>
0.00462393

> <i_epik_Tot_Q>
1

> <i_epik_Tot_abs_Q>
1

> <r_epik_Metal_State_Penalty>
-0

> <b_epik_Metal_Only>
0

> <s_lp_Force_Field>
OPLS_2005

> <r_lp_Energy>
10.5289

> <b_lp_Chiralities_Consistent>
1

> <s_lp_Variant>
AV-unprocessed.smi:3136-2

> <Gold.Version>
5.8.1

> <Gold.Id.Protein>
6NUR|6NUR_protein|mol2

> <Gold.PLP.Fitness>
39.9957

> <Gold.PLP.PLP>
-30.4523

> <Gold.PLP.part.hbond>
-3.0000

> <Gold.PLP.part.metal>
0.0000

> <Gold.PLP.part.buried>
1.2792

> <Gold.PLP.part.nonpolar>
-28.5721

> <Gold.PLP.part.repulsive>
0.3919

> <Gold.PLP.ligand.clash>
0.0000

> <Gold.PLP.ligand.torsion>
0.8705

> <Gold.PLP.Chemscore.Hbond>
3.6560

> <Gold.PLP.Chemscore.CHOScore>
0.0000

> <Gold.PLP.Chemscore.Metal>
0.0000

> <Gold.Chemscore.Hbonds>
donor molecule, donor type, donor heavy atom, donor atom, acceptor molecule, acceptor atom, score
      L1  H     3    23       P1  7921  1.00
      L1  H     8    28       P1 10171  0.67
      L1  H     8    40       P1 10175  1.95

> <Gold.PLP.Chemscore.Internal.Correction>
0.3164

> <Gold.Rescore>
     Score         DG    S(hbond)    S(metal)    S(lipo)     H(rot)  DE(clash)    DE(int)     intcor
     14.99     -17.29       2.54        0.00      79.21       2.32       0.56       1.74       ----

> <Gold.Chemscore.Fitness>
14.9932

> <Gold.Chemscore.DG>
-17.2938

> <Gold.Chemscore.ZeroCoef>
-5.4800

> <Gold.Chemscore.Hbond>
2.5372

> <Gold.Chemscore.Metal>
0.0000

> <Gold.Chemscore.Lipo>
79.2140

> <Gold.Chemscore.Internal_Hbond>
0.0000

> <Gold.Chemscore.DEClash>
0.5638

> <Gold.Chemscore.DEInternal>
1.7368

> <Gold.Chemscore.Rot>
2.3159

> <Gold.Chemscore.Internal.Correction>
   9.000000E+99

> <Gold.Chemscore.Hbonds>
donor molecule, donor type, donor heavy atom, donor atom, acceptor molecule, acceptor atom, score
      L1  H     3    23       P1  7921  0.55
      L1  H     8    28       P1 10171  0.65
      L1  H     8    40       P1 10175  0.93

> <Gold.Chemscore.Hbond.Weighted>
-8.4743

> <Gold.Chemscore.Metal.Weighted>
-0.0000

> <Gold.Chemscore.Lipo.Weighted>
-9.2680

> <Gold.Chemscore.Internal_Hbond.Weighted>
0.0000

> <Gold.Chemscore.DEClash.Weighted>
0.5638

> <Gold.Chemscore.DEInternal.Weighted>
1.7368

> <Gold.Chemscore.Rot.Weighted>
5.9286

> <Gold.Chemscore.Internal.Correction.Weighted>
   9.000000E+99

> <Gold.Protein.RotatedTorsions>
[ 6907 6896 6895 6894 ] final  134.14 input  -60.11 | X-H torsion
[ 7974 7965 7964 7962 ] final  -90.94 input  175.53 | X-H torsion
[ 8008 7997 7996 7995 ] final  -18.46 input   59.86 | X-H torsion
[ 10167 10162 10161 10158 ] final  -83.70 input  -65.29 | X-H torsion
[ 10718 10713 10712 10709 ] final -104.06 input   66.30 | X-H torsion
[ 10763 10752 10751 10750 ] final  160.14 input  -60.55 | X-H torsion
[ 11005 11000 10999 10996 ] final  108.47 input  -57.11 | X-H torsion

> <Gold.Protein.ActiveResidues>
 VAL166  LYS551  ARG553  GLY616  TRP617  ASP618  TYR619  PRO620  LYS621  CYS622 
 ASP623  PHE694  ASN695  SER759  ASP760  ASP761  ALA762  ILE779  LEU786  VAL792 
 PHE793  MET794  SER795  GLU796  ALA797  LYS798  CYS799  TRP800  GLU811  SER814 

> <Gold.Protein.RotatedAtoms>
  152.3145  133.5787  159.5702 H   0  0  0  0  0  0  0  0  0  0  0  0  # atno 6907 bound_to 6896
  150.7339  134.0104  159.3676 H   0  0  0  0  0  0  0  0  0  0  0  0  # atno 6908 bound_to 6896
  151.7993  135.0714  160.0449 H   0  0  0  0  0  0  0  0  0  0  0  0  # atno 6909 bound_to 6896
  145.4198  140.9550  143.2187 H   0  0  0  0  0  0  0  0  0  0  0  0  # atno 7974 bound_to 7965
  154.4904  140.2115  155.9561 H   0  0  0  0  0  0  0  0  0  0  0  0  # atno 8008 bound_to 7997
  156.1297  140.3199  155.8299 H   0  0  0  0  0  0  0  0  0  0  0  0  # atno 8009 bound_to 7997
  155.4318  140.0504  157.3008 H   0  0  0  0  0  0  0  0  0  0  0  0  # atno 8010 bound_to 7997
  140.4202  143.2587  151.8900 H   0  0  0  0  0  0  0  0  0  0  0  0  # atno 10167 bound_to 10162
  156.0289  130.5497  150.7342 H   0  0  0  0  0  0  0  0  0  0  0  0  # atno 10718 bound_to 10713
  154.2427  135.2774  155.2847 H   0  0  0  0  0  0  0  0  0  0  0  0  # atno 10763 bound_to 10752
  154.5531  135.5669  153.6943 H   0  0  0  0  0  0  0  0  0  0  0  0  # atno 10764 bound_to 10752
  152.9996  135.6279  154.2572 H   0  0  0  0  0  0  0  0  0  0  0  0  # atno 10765 bound_to 10752
  139.8845  134.9431  156.5978 H   0  0  0  0  0  0  0  0  0  0  0  0  # atno 11005 bound_to 11000
  144.8253  139.5721  143.6968 LP  0  0  0  0  0  0  0  0  0  0  0  0  # atno 17320 bound_to 7965
  146.2662  139.6526  142.9327 LP  0  0  0  0  0  0  0  0  0  0  0  0  # atno 17321 bound_to 7965
  139.4782  144.5445  151.8478 LP  0  0  0  0  0  0  0  0  0  0  0  0  # atno 17342 bound_to 10162
  140.4542  144.1813  150.5900 LP  0  0  0  0  0  0  0  0  0  0  0  0  # atno 17343 bound_to 10162
  157.4927  131.0912  151.0408 LP  0  0  0  0  0  0  0  0  0  0  0  0  # atno 17370 bound_to 10713
  157.0810  130.5903  149.5420 LP  0  0  0  0  0  0  0  0  0  0  0  0  # atno 17371 bound_to 10713
  140.7907  133.8585  155.8643 LP  0  0  0  0  0  0  0  0  0  0  0  0  # atno 17394 bound_to 11000
  140.9680  134.1569  157.4600 LP  0  0  0  0  0  0  0  0  0  0  0  0  # atno 17395 bound_to 11000

$$$$
