AV-unprocessed.smi:113|AV-procd|sdf|1094|dock4
  -GOLD-   2262018203D 1   1.00000     0.00000
 Structure written by MMmdl.
 52 55  0  0  0  0  0  0  0  0  1 V2000
  152.2590  136.6374  157.3021 C   0  0  0  0  0  0  0  0  0  0  0  0
  152.1876  138.0745  157.7753 C   0  0  0  0  0  0  0  0  0  0  0  0
  151.4823  139.0413  157.0369 C   0  0  0  0  0  0  0  0  0  0  0  0
  151.4451  140.3733  157.5095 C   0  0  0  0  0  0  0  0  0  0  0  0
  150.6911  141.4661  156.7428 C   0  0  0  0  0  0  0  0  0  0  0  0
  149.3008  141.1923  156.4087 N   0  0  0  0  0  0  0  0  0  0  0  0
  148.9602  141.0756  155.0384 C   0  0  0  0  0  0  0  0  0  0  0  0
  149.8112  141.1721  154.1515 O   0  0  0  0  0  0  0  0  0  0  0  0
  147.5366  140.8599  154.7664 C   0  0  0  0  0  0  0  0  0  0  0  0
  147.0945  140.7343  153.3170 C   0  0  0  0  0  0  0  0  0  0  0  0
  146.6584  140.7900  155.7954 C   0  0  0  0  0  0  0  0  0  0  0  0
  147.0222  140.9032  157.1263 N   0  0  0  0  0  0  0  0  0  0  0  0
  145.9856  140.8516  158.2210 C   0  0  1  0  0  0  0  0  0  0  0  0
  144.5796  140.8788  157.6371 C   0  0  0  0  0  0  0  0  0  0  0  0
  143.7928  140.1616  158.7167 C   0  0  2  0  0  0  0  0  0  0  0  0
  143.2969  141.0912  159.6607 O   0  0  0  0  0  0  0  0  0  0  0  0
  144.8271  139.2274  159.3777 C   0  0  1  0  0  0  0  0  0  0  0  0
  144.6578  137.7501  158.9888 C   0  0  0  0  0  0  0  0  0  0  0  0
  145.7119  136.9766  159.5212 O   0  0  0  0  0  0  0  0  0  0  0  0
  146.1077  139.6481  158.9084 O   0  0  0  0  0  0  0  0  0  0  0  0
  148.3694  141.1316  157.4694 C   0  0  0  0  0  0  0  0  0  0  0  0
  148.7077  141.2935  158.6445 O   0  0  0  0  0  0  0  0  0  0  0  0
  152.1318  140.6695  158.7177 C   0  0  0  0  0  0  0  0  0  0  0  0
  152.1474  141.9784  159.2577 C   0  0  0  0  0  0  0  0  0  0  0  0
  152.8337  142.2512  160.4542 C   0  0  0  0  0  0  0  0  0  0  0  0
  153.5105  141.2191  161.1243 C   0  0  0  0  0  0  0  0  0  0  0  0
  153.5002  139.9162  160.5948 C   0  0  0  0  0  0  0  0  0  0  0  0
  152.8193  139.6192  159.3948 C   0  0  0  0  0  0  0  0  0  0  0  0
  152.8383  138.3537  158.9213 N   0  0  0  0  0  0  0  0  0  0  0  0
  151.4991  136.4335  156.5471 H   0  0  0  0  0  0  0  0  0  0  0  0
  152.1020  135.9487  158.1329 H   0  0  0  0  0  0  0  0  0  0  0  0
  153.2374  136.4329  156.8666 H   0  0  0  0  0  0  0  0  0  0  0  0
  150.9848  138.7502  156.1242 H   0  0  0  0  0  0  0  0  0  0  0  0
  150.7121  142.4024  157.3026 H   0  0  0  0  0  0  0  0  0  0  0  0
  151.2097  141.6974  155.8109 H   0  0  0  0  0  0  0  0  0  0  0  0
  146.0187  140.5776  153.2328 H   0  0  0  0  0  0  0  0  0  0  0  0
  147.5925  139.8900  152.8388 H   0  0  0  0  0  0  0  0  0  0  0  0
  147.3441  141.6392  152.7618 H   0  0  0  0  0  0  0  0  0  0  0  0
  145.6134  140.6482  155.5594 H   0  0  0  0  0  0  0  0  0  0  0  0
  146.1870  141.6681  158.9166 H   0  0  0  0  0  0  0  0  0  0  0  0
  144.2499  141.8971  157.4266 H   0  0  0  0  0  0  0  0  0  0  0  0
  144.5602  140.2987  156.7131 H   0  0  0  0  0  0  0  0  0  0  0  0
  142.9446  139.6204  158.2960 H   0  0  0  0  0  0  0  0  0  0  0  0
  143.7979  141.0101  160.4578 H   0  0  0  0  0  0  0  0  0  0  0  0
  144.8099  139.3236  160.4649 H   0  0  0  0  0  0  0  0  0  0  0  0
  143.7009  137.3606  159.3381 H   0  0  0  0  0  0  0  0  0  0  0  0
  144.6729  137.6439  157.9037 H   0  0  0  0  0  0  0  0  0  0  0  0
  145.3911  136.1035  159.6880 H   0  0  0  0  0  0  0  0  0  0  0  0
  151.6377  142.7942  158.7684 H   0  0  0  0  0  0  0  0  0  0  0  0
  152.8402  143.2533  160.8573 H   0  0  0  0  0  0  0  0  0  0  0  0
  154.0383  141.4253  162.0439 H   0  0  0  0  0  0  0  0  0  0  0  0
  154.0251  139.1308  161.1188 H   0  0  0  0  0  0  0  0  0  0  0  0
  1  2  1  0  0  0  0
  1 30  1  0  0  0  0
  1 31  1  0  0  0  0
  1 32  1  0  0  0  0
  2 29  1  0  0  0  0
  2  3  2  0  0  0  0
  3  4  1  0  0  0  0
  3 33  1  0  0  0  0
  4  5  1  0  0  0  0
  4 23  2  0  0  0  0
  5  6  1  0  0  0  0
  5 34  1  0  0  0  0
  5 35  1  0  0  0  0
  6 21  1  0  0  0  0
  6  7  1  0  0  0  0
  7  8  2  0  0  0  0
  7  9  1  0  0  0  0
  9 10  1  0  0  0  0
  9 11  2  0  0  0  0
 10 36  1  0  0  0  0
 10 37  1  0  0  0  0
 10 38  1  0  0  0  0
 11 12  1  0  0  0  0
 11 39  1  0  0  0  0
 12 13  1  0  0  0  0
 12 21  1  0  0  0  0
 13 20  1  0  0  0  0
 13 14  1  0  0  0  0
 13 40  1  0  0  0  0
 14 15  1  0  0  0  0
 14 41  1  0  0  0  0
 14 42  1  0  0  0  0
 15 16  1  0  0  0  0
 15 17  1  0  0  0  0
 15 43  1  0  0  0  0
 16 44  1  0  0  0  0
 17 18  1  0  0  0  0
 17 20  1  0  0  0  0
 17 45  1  0  0  0  0
 18 19  1  0  0  0  0
 18 46  1  0  0  0  0
 18 47  1  0  0  0  0
 19 48  1  0  0  0  0
 21 22  2  0  0  0  0
 23 28  1  0  0  0  0
 23 24  1  0  0  0  0
 24 25  2  0  0  0  0
 24 49  1  0  0  0  0
 25 26  1  0  0  0  0
 25 50  1  0  0  0  0
 26 27  2  0  0  0  0
 26 51  1  0  0  0  0
 27 28  1  0  0  0  0
 27 52  1  0  0  0  0
 28 29  2  0  0  0  0
M  END
> <s_m_source_file>
AV-unprocessed.smi

> <i_m_source_file_index>
113

> <i_lp_mmshare_version>
43012

> <i_f3d_flags>
0

> <s_epik_input>
W2NIXTFbY0hdW2NIXVtjSF1jKGMxMiluYyhbQ0gzXSlbY0hdYzJbQ0gyXW4zYyg9TyljKFtDSDNdKVtjSF1uKGMzPU8pW0NAQEhdNFtDSDJdW0NAQEhdKFtPSF0pW0NASF0oTzQpW0NIMl1bT0hd

> <s_epik_cmdline>
J2VwaWtfcHl0aG9uJywgJy1waCcsICc3LjAnLCAnLXRuJywgJzgnLCAnLW1hJywgJzIwMCcsICctbWV0YWxfYmluZGluZycsICctaW1hZScsICc8aW5maWxlLm1hZT4nLCAnLW9tYWUnLCAnPG91dGZpbGUubWFlPic=

> <r_lp_tautomer_probability>
1

> <r_epik_Ionization_Penalty>
0.214728

> <r_epik_Ionization_Penalty_Charging>
3.04883e-08

> <r_epik_Ionization_Penalty_Neutral>
0.214728

> <r_epik_State_Penalty>
0.204913

> <r_epik_Charging_Adjusted_Penalty>
0.204913

> <i_epik_Tot_Q>
0

> <i_epik_Tot_abs_Q>
0

> <r_epik_Metal_State_Penalty>
0.000244761

> <b_epik_Metal_Only>
0

> <s_epik_Chemistry_Notes>
This compound contains an acetal/aminal-like group ( X-CH(R)-Y where X, Y are N, S, or O) that may be acid/base labile, releasing an aldehyde.

> <s_lp_Force_Field>
OPLS_2005

> <r_lp_Energy>
39.8803

> <b_lp_Chiralities_Consistent>
1

> <s_lp_Variant>
AV-unprocessed.smi:113-4

> <Gold.Version>
5.8.1

> <Gold.Id.Protein>
6NUR|6NUR_protein|mol2

> <Gold.PLP.Fitness>
47.7561

> <Gold.PLP.PLP>
-42.6284

> <Gold.PLP.part.hbond>
-4.0000

> <Gold.PLP.part.metal>
0.0000

> <Gold.PLP.part.buried>
-4.1817

> <Gold.PLP.part.nonpolar>
-35.0919

> <Gold.PLP.part.repulsive>
0.3322

> <Gold.PLP.ligand.clash>
0.0000

> <Gold.PLP.ligand.torsion>
0.3506

> <Gold.PLP.Chemscore.Hbond>
1.9307

> <Gold.PLP.Chemscore.CHOScore>
0.0000

> <Gold.PLP.Chemscore.Metal>
0.0000

> <Gold.Chemscore.Hbonds>
donor molecule, donor type, donor heavy atom, donor atom, acceptor molecule, acceptor atom, score
      P1  H  7989  7998       L1     8  0.42
      P1  H  8011  8017       L1     8  0.43

> <Gold.PLP.Chemscore.Internal.Correction>
0.0368

> <Gold.Rescore>
     Score         DG    S(hbond)    S(metal)    S(lipo)     H(rot)  DE(clash)    DE(int)     intcor
     14.94     -15.82       1.69        0.00     104.62       2.95       0.17       0.71       ----

> <Gold.Chemscore.Fitness>
14.9425

> <Gold.Chemscore.DG>
-15.8213

> <Gold.Chemscore.ZeroCoef>
-5.4800

> <Gold.Chemscore.Hbond>
1.6901

> <Gold.Chemscore.Metal>
0.0000

> <Gold.Chemscore.Lipo>
104.6182

> <Gold.Chemscore.Internal_Hbond>
0.0000

> <Gold.Chemscore.DEClash>
0.1660

> <Gold.Chemscore.DEInternal>
0.7127

> <Gold.Chemscore.Rot>
2.9469

> <Gold.Chemscore.Internal.Correction>
   9.000000E+99

> <Gold.Chemscore.Hbonds>
donor molecule, donor type, donor heavy atom, donor atom, acceptor molecule, acceptor atom, score
      P1  H  7989  7998       L1     8  0.42
      P1  H  8011  8017       L1     8  0.43

> <Gold.Chemscore.Hbond.Weighted>
-5.6449

> <Gold.Chemscore.Metal.Weighted>
-0.0000

> <Gold.Chemscore.Lipo.Weighted>
-12.2403

> <Gold.Chemscore.Internal_Hbond.Weighted>
0.0000

> <Gold.Chemscore.DEClash.Weighted>
0.1660

> <Gold.Chemscore.DEInternal.Weighted>
0.7127

> <Gold.Chemscore.Rot.Weighted>
7.5439

> <Gold.Chemscore.Internal.Correction.Weighted>
   9.000000E+99

> <Gold.Protein.RotatedTorsions>
[ 6907 6896 6895 6894 ] final -142.18 input  -60.11 | X-H torsion
[ 7974 7965 7964 7962 ] final  123.77 input  175.53 | X-H torsion
[ 8008 7997 7996 7995 ] final -151.68 input   59.86 | X-H torsion
[ 10167 10162 10161 10158 ] final  -87.39 input  -65.29 | X-H torsion
[ 10718 10713 10712 10709 ] final  -60.56 input   66.30 | X-H torsion
[ 10763 10752 10751 10750 ] final -173.20 input  -60.55 | X-H torsion
[ 11005 11000 10999 10996 ] final   49.64 input  -57.11 | X-H torsion

> <Gold.Protein.ActiveResidues>
 VAL166  LYS551  ARG553  GLY616  TRP617  ASP618  TYR619  PRO620  LYS621  CYS622 
 ASP623  PHE694  ASN695  SER759  ASP760  ASP761  ALA762  ILE779  LEU786  VAL792 
 PHE793  MET794  SER795  GLU796  ALA797  LYS798  CYS799  TRP800  GLU811  SER814 

> <Gold.Protein.RotatedAtoms>
  151.0836  133.5371  159.2618 H   0  0  0  0  0  0  0  0  0  0  0  0  # atno 6907 bound_to 6896
  151.2265  135.0537  159.8980 H   0  0  0  0  0  0  0  0  0  0  0  0  # atno 6908 bound_to 6896
  152.5426  134.0631  159.8214 H   0  0  0  0  0  0  0  0  0  0  0  0  # atno 6909 bound_to 6896
  145.0921  139.3579  143.4855 H   0  0  0  0  0  0  0  0  0  0  0  0  # atno 7974 bound_to 7965
  155.6432  140.0704  157.2611 H   0  0  0  0  0  0  0  0  0  0  0  0  # atno 8008 bound_to 7997
  154.4179  140.1746  156.1645 H   0  0  0  0  0  0  0  0  0  0  0  0  # atno 8009 bound_to 7997
  155.9838  140.3351  155.6691 H   0  0  0  0  0  0  0  0  0  0  0  0  # atno 8010 bound_to 7997
  140.3849  143.2731  151.9337 H   0  0  0  0  0  0  0  0  0  0  0  0  # atno 10167 bound_to 10162
  156.0982  130.4190  150.0871 H   0  0  0  0  0  0  0  0  0  0  0  0  # atno 10718 bound_to 10713
  154.6105  135.2864  155.0437 H   0  0  0  0  0  0  0  0  0  0  0  0  # atno 10763 bound_to 10752
  154.1668  135.6479  153.5003 H   0  0  0  0  0  0  0  0  0  0  0  0  # atno 10764 bound_to 10752
  153.0193  135.5391  154.6857 H   0  0  0  0  0  0  0  0  0  0  0  0  # atno 10765 bound_to 10752
  140.1086  134.4985  155.8698 H   0  0  0  0  0  0  0  0  0  0  0  0  # atno 11005 bound_to 11000
  146.3531  140.0759  142.8620 LP  0  0  0  0  0  0  0  0  0  0  0  0  # atno 17320 bound_to 7965
  145.1054  140.9372  143.4688 LP  0  0  0  0  0  0  0  0  0  0  0  0  # atno 17321 bound_to 7965
  139.4792  144.5783  151.7975 LP  0  0  0  0  0  0  0  0  0  0  0  0  # atno 17342 bound_to 10162
  140.4899  144.1326  150.5948 LP  0  0  0  0  0  0  0  0  0  0  0  0  # atno 17343 bound_to 10162
  156.8864  130.9574  151.3593 LP  0  0  0  0  0  0  0  0  0  0  0  0  # atno 17370 bound_to 10713
  157.6147  130.8610  149.9009 LP  0  0  0  0  0  0  0  0  0  0  0  0  # atno 17371 bound_to 10713
  141.2124  133.6719  156.6660 LP  0  0  0  0  0  0  0  0  0  0  0  0  # atno 17394 bound_to 11000
  140.3122  134.8077  157.4185 LP  0  0  0  0  0  0  0  0  0  0  0  0  # atno 17395 bound_to 11000

$$$$
