AV-unprocessed.smi:1219|AV-procd|sdf|5113|dock1
  -GOLD-   22720 4173D 1   1.00000     0.00000
 Structure written by MMmdl.
 43 44  0  0  0  0  0  0  0  0  2 V2000
  144.6970  136.6121  151.7160 O   0  0  0  0  0  0  0  0  0  0  0  0
  145.9146  136.4708  151.6019 C   0  0  0  0  0  0  0  0  0  0  0  0
  146.7930  137.4697  151.7732 N   0  0  0  0  0  0  0  0  0  0  0  0
  146.4503  138.8480  152.1136 C   0  0  0  0  0  0  0  0  0  0  0  0
  147.1757  139.3584  153.3777 C   0  0  1  0  0  0  0  0  0  0  0  0
  148.4594  138.7686  153.4093 O   0  0  0  0  0  0  0  0  0  0  0  0
  147.3400  140.8934  153.4207 C   0  0  0  0  0  0  0  0  0  0  0  0
  146.1006  141.5736  153.8752 N   0  3  0  0  0  0  0  0  0  0  0  0
  145.6849  141.1492  155.2371 C   0  0  0  0  0  0  0  0  0  0  0  0
  144.3248  141.7595  155.6176 C   0  0  0  0  0  0  0  0  0  0  0  0
  144.3556  143.2896  155.5067 C   0  0  0  0  0  0  0  0  0  0  0  0
  144.8240  143.7044  154.1058 C   0  0  0  0  0  0  0  0  0  0  0  0
  146.1754  143.0558  153.7639 C   0  0  0  0  0  0  0  0  0  0  0  0
  146.5388  135.3216  151.2907 N   0  0  0  0  0  0  0  0  0  0  0  0
  145.9563  134.0664  150.9709 C   0  0  0  0  0  0  0  0  0  0  0  0
  144.6058  134.1206  150.5582 C   0  0  0  0  0  0  0  0  0  0  0  0
  143.9345  132.9280  150.2254 C   0  0  0  0  0  0  0  0  0  0  0  0
  144.6318  131.7101  150.3158 C   0  0  0  0  0  0  0  0  0  0  0  0
  145.9742  131.7440  150.7361 C   0  0  0  0  0  0  0  0  0  0  0  0
  146.6192  132.8858  151.0560 N   0  0  0  0  0  0  0  0  0  0  0  0
  147.7750  137.2593  151.6696 H   0  0  0  0  0  0  0  0  0  0  0  0
  146.6755  139.4916  151.2615 H   0  0  0  0  0  0  0  0  0  0  0  0
  145.3702  138.8945  152.2583 H   0  0  0  0  0  0  0  0  0  0  0  0
  146.6389  139.0063  154.2573 H   0  0  0  0  0  0  0  0  0  0  0  0
  148.8700  138.8882  152.5661 H   0  0  0  0  0  0  0  0  0  0  0  0
  148.1726  141.1364  154.0832 H   0  0  0  0  0  0  0  0  0  0  0  0
  147.6124  141.2910  152.4422 H   0  0  0  0  0  0  0  0  0  0  0  0
  145.6100  140.0616  155.2773 H   0  0  0  0  0  0  0  0  0  0  0  0
  146.4476  141.4427  155.9604 H   0  0  0  0  0  0  0  0  0  0  0  0
  143.5491  141.3607  154.9625 H   0  0  0  0  0  0  0  0  0  0  0  0
  144.0541  141.4652  156.6320 H   0  0  0  0  0  0  0  0  0  0  0  0
  143.3680  143.7035  155.7124 H   0  0  0  0  0  0  0  0  0  0  0  0
  145.0306  143.7013  156.2581 H   0  0  0  0  0  0  0  0  0  0  0  0
  144.0785  143.4094  153.3660 H   0  0  0  0  0  0  0  0  0  0  0  0
  144.9058  144.7902  154.0466 H   0  0  0  0  0  0  0  0  0  0  0  0
  146.9497  143.4332  154.4339 H   0  0  0  0  0  0  0  0  0  0  0  0
  146.4654  143.3504  152.7559 H   0  0  0  0  0  0  0  0  0  0  0  0
  147.5474  135.3506  151.2621 H   0  0  0  0  0  0  0  0  0  0  0  0
  144.0845  135.0648  150.4947 H   0  0  0  0  0  0  0  0  0  0  0  0
  142.9026  132.9482  149.9076 H   0  0  0  0  0  0  0  0  0  0  0  0
  144.1510  130.7749  150.0697 H   0  0  0  0  0  0  0  0  0  0  0  0
  146.5453  130.8313  150.8194 H   0  0  0  0  0  0  0  0  0  0  0  0
  145.3681  141.2664  153.2507 H   0  0  0  0  0  0  0  0  0  0  0  0
  1  2  2  0  0  0  0
  2  3  1  0  0  0  0
  2 14  1  0  0  0  0
  3  4  1  0  0  0  0
  3 21  1  0  0  0  0
  4  5  1  0  0  0  0
  4 22  1  0  0  0  0
  4 23  1  0  0  0  0
  5  6  1  0  0  0  0
  5  7  1  0  0  0  0
  5 24  1  0  0  0  0
  6 25  1  0  0  0  0
  7  8  1  0  0  0  0
  7 26  1  0  0  0  0
  7 27  1  0  0  0  0
  8 13  1  0  0  0  0
  8  9  1  0  0  0  0
  8 43  1  0  0  0  0
  9 10  1  0  0  0  0
  9 28  1  0  0  0  0
  9 29  1  0  0  0  0
 10 11  1  0  0  0  0
 10 30  1  0  0  0  0
 10 31  1  0  0  0  0
 11 12  1  0  0  0  0
 11 32  1  0  0  0  0
 11 33  1  0  0  0  0
 12 13  1  0  0  0  0
 12 34  1  0  0  0  0
 12 35  1  0  0  0  0
 13 36  1  0  0  0  0
 13 37  1  0  0  0  0
 14 15  1  0  0  0  0
 14 38  1  0  0  0  0
 15 20  1  0  0  0  0
 15 16  2  0  0  0  0
 16 17  1  0  0  0  0
 16 39  1  0  0  0  0
 17 18  2  0  0  0  0
 17 40  1  0  0  0  0
 18 19  1  0  0  0  0
 18 41  1  0  0  0  0
 19 20  2  0  0  0  0
 19 42  1  0  0  0  0
M  CHG  1   8   1
M  END
> <s_m_source_file>
AV-unprocessed.smi

> <i_m_source_file_index>
1219

> <i_lp_mmshare_version>
43012

> <i_f3d_flags>
0

> <s_epik_input>
bjFbY0hdW2NIXVtjSF1bY0hdYzFbTkhdQyg9TylbTkhdW0NIMl1bQ0BIXShbT0hdKVtDSDJdTjJbQ0gyXVtDSDJdW0NIMl1bQ0gyXVtDSDJdMg==

> <s_epik_cmdline>
J2VwaWtfcHl0aG9uJywgJy1waCcsICc3LjAnLCAnLXRuJywgJzgnLCAnLW1hJywgJzIwMCcsICctbWV0YWxfYmluZGluZycsICctaW1hZScsICc8aW5maWxlLm1hZT4nLCAnLW9tYWUnLCAnPG91dGZpbGUubWFlPic=

> <r_epik_Ionization_Penalty>
0.00510026

> <r_epik_Ionization_Penalty_Charging>
0.00506051

> <r_epik_Ionization_Penalty_Neutral>
3.97538e-05

> <r_epik_State_Penalty>
0.00368188

> <r_epik_Charging_Adjusted_Penalty>
0.0087424

> <i_epik_Tot_Q>
1

> <i_epik_Tot_abs_Q>
1

> <r_epik_Metal_State_Penalty>
-0

> <b_epik_Metal_Only>
0

> <s_lp_Force_Field>
OPLS_2005

> <r_lp_Energy>
19.3775

> <b_lp_Chiralities_Consistent>
1

> <s_lp_Variant>
AV-unprocessed.smi:1219-2

> <Gold.Version>
5.8.1

> <Gold.Id.Protein>
6NUR|6NUR_protein|mol2

> <Gold.PLP.Fitness>
53.3453

> <Gold.PLP.PLP>
-37.6026

> <Gold.PLP.part.hbond>
-4.8859

> <Gold.PLP.part.metal>
0.0000

> <Gold.PLP.part.buried>
-4.7063

> <Gold.PLP.part.nonpolar>
-30.1121

> <Gold.PLP.part.repulsive>
1.1204

> <Gold.PLP.ligand.clash>
0.0385

> <Gold.PLP.ligand.torsion>
0.5949

> <Gold.PLP.Chemscore.Hbond>
4.8545

> <Gold.PLP.Chemscore.CHOScore>
0.7657

> <Gold.PLP.Chemscore.Metal>
0.0000

> <Gold.Chemscore.Hbonds>
donor molecule, donor type, donor heavy atom, donor atom, acceptor molecule, acceptor atom, score
      L1  H     3    21       P1  7948  0.99
      L1  H     6    25       P1  7957  1.00
      L1  H     8    43       P1 10175  1.80
      L1  H    14    38       P1  7948  0.91
      L1  C    19    42       P1 10747  0.80

> <Gold.PLP.Chemscore.Internal.Correction>
0.1106

> <Gold.Rescore>
     Score         DG    S(hbond)    S(metal)    S(lipo)     H(rot)  DE(clash)    DE(int)     intcor
     16.97     -19.07       3.45        0.00      70.33       2.41       0.12       1.98       ----

> <Gold.Chemscore.Fitness>
16.9701

> <Gold.Chemscore.DG>
-19.0749

> <Gold.Chemscore.ZeroCoef>
-5.4800

> <Gold.Chemscore.Hbond>
3.4514

> <Gold.Chemscore.Metal>
0.0000

> <Gold.Chemscore.Lipo>
70.3275

> <Gold.Chemscore.Internal_Hbond>
0.0000

> <Gold.Chemscore.DEClash>
0.1249

> <Gold.Chemscore.DEInternal>
1.9798

> <Gold.Chemscore.Rot>
2.4067

> <Gold.Chemscore.Internal.Correction>
   9.000000E+99

> <Gold.Chemscore.Hbonds>
donor molecule, donor type, donor heavy atom, donor atom, acceptor molecule, acceptor atom, score
      L1  H     3    21       P1  7948  0.89
      L1  H     6    25       P1  7957  0.94
      L1  H     8    43       P1 10175  0.17
      L1  H    14    38       P1  7948  0.53

> <Gold.Chemscore.Hbond.Weighted>
-11.5278

> <Gold.Chemscore.Metal.Weighted>
-0.0000

> <Gold.Chemscore.Lipo.Weighted>
-8.2283

> <Gold.Chemscore.Internal_Hbond.Weighted>
0.0000

> <Gold.Chemscore.DEClash.Weighted>
0.1249

> <Gold.Chemscore.DEInternal.Weighted>
1.9798

> <Gold.Chemscore.Rot.Weighted>
6.1612

> <Gold.Chemscore.Internal.Correction.Weighted>
   9.000000E+99

> <Gold.Protein.RotatedTorsions>
[ 6907 6896 6895 6894 ] final  -96.24 input  -60.11 | X-H torsion
[ 7974 7965 7964 7962 ] final   86.23 input  175.53 | X-H torsion
[ 8008 7997 7996 7995 ] final   83.65 input   59.86 | X-H torsion
[ 10167 10162 10161 10158 ] final -134.46 input  -65.29 | X-H torsion
[ 10718 10713 10712 10709 ] final -157.83 input   66.30 | X-H torsion
[ 10763 10752 10751 10750 ] final   58.74 input  -60.55 | X-H torsion
[ 11005 11000 10999 10996 ] final -134.91 input  -57.11 | X-H torsion

> <Gold.Protein.ActiveResidues>
 VAL166  LYS551  ARG553  GLY616  TRP617  ASP618  TYR619  PRO620  LYS621  CYS622 
 ASP623  PHE694  ASN695  SER759  ASP760  ASP761  ALA762  ILE779  LEU786  VAL792 
 PHE793  MET794  SER795  GLU796  ALA797  LYS798  CYS799  TRP800  GLU811  SER814 

> <Gold.Protein.RotatedAtoms>
  150.6984  134.1533  159.4148 H   0  0  0  0  0  0  0  0  0  0  0  0  # atno 6907 bound_to 6896
  151.9515  135.0164  160.0551 H   0  0  0  0  0  0  0  0  0  0  0  0  # atno 6908 bound_to 6896
  152.2006  133.4803  159.5093 H   0  0  0  0  0  0  0  0  0  0  0  0  # atno 6909 bound_to 6896
  145.5750  139.2318  143.2385 H   0  0  0  0  0  0  0  0  0  0  0  0  # atno 7974 bound_to 7965
  155.9267  140.3417  155.6216 H   0  0  0  0  0  0  0  0  0  0  0  0  # atno 8008 bound_to 7997
  155.7207  140.0783  157.2350 H   0  0  0  0  0  0  0  0  0  0  0  0  # atno 8009 bound_to 7997
  154.4078  140.1606  156.2386 H   0  0  0  0  0  0  0  0  0  0  0  0  # atno 8010 bound_to 7997
  139.8878  143.6760  152.2617 H   0  0  0  0  0  0  0  0  0  0  0  0  # atno 10167 bound_to 10162
  156.5457  130.8583  151.2763 H   0  0  0  0  0  0  0  0  0  0  0  0  # atno 10718 bound_to 10713
  152.9878  135.5596  154.5601 H   0  0  0  0  0  0  0  0  0  0  0  0  # atno 10763 bound_to 10752
  154.5021  135.2798  155.1414 H   0  0  0  0  0  0  0  0  0  0  0  0  # atno 10764 bound_to 10752
  154.2840  135.6339  153.5411 H   0  0  0  0  0  0  0  0  0  0  0  0  # atno 10765 bound_to 10752
  140.8946  134.1768  157.4503 H   0  0  0  0  0  0  0  0  0  0  0  0  # atno 11005 bound_to 11000
  146.1757  140.6576  142.9212 LP  0  0  0  0  0  0  0  0  0  0  0  0  # atno 17320 bound_to 7965
  144.7420  140.4968  143.6862 LP  0  0  0  0  0  0  0  0  0  0  0  0  # atno 17321 bound_to 7965
  139.7137  144.7615  151.1069 LP  0  0  0  0  0  0  0  0  0  0  0  0  # atno 17342 bound_to 10162
  140.7732  143.5297  150.9438 LP  0  0  0  0  0  0  0  0  0  0  0  0  # atno 17343 bound_to 10162
  157.7397  130.9836  150.2330 LP  0  0  0  0  0  0  0  0  0  0  0  0  # atno 17370 bound_to 10713
  156.2930  130.3748  149.7823 LP  0  0  0  0  0  0  0  0  0  0  0  0  # atno 17371 bound_to 10713
  139.8734  134.9873  156.5362 LP  0  0  0  0  0  0  0  0  0  0  0  0  # atno 17394 bound_to 11000
  140.8305  133.8283  155.8979 LP  0  0  0  0  0  0  0  0  0  0  0  0  # atno 17395 bound_to 11000

$$$$
