AV-unprocessed.smi:99|AV-procd|sdf|891|dock10
  -GOLD-   2262017383D 1   1.00000     0.00000
 Structure written by MMmdl.
 52 55  0  0  0  0  0  0  0  0  2 V2000
  153.0435  139.8479  158.5870 O   0  0  0  0  0  0  0  0  0  0  0  0
  152.3491  140.8036  158.9395 C   0  0  0  0  0  0  0  0  0  0  0  0
  151.1936  141.1476  158.3387 O   0  0  0  0  0  0  0  0  0  0  0  0
  150.4854  140.1923  157.5666 C   0  0  0  0  0  0  0  0  0  0  0  0
  150.0140  140.8450  156.2598 C   0  0  2  0  0  0  0  0  0  0  0  0
  148.8075  141.5640  156.4569 O   0  0  0  0  0  0  0  0  0  0  0  0
  148.2233  141.7834  155.2126 C   0  0  2  0  0  0  0  0  0  0  0  0
  146.7247  141.8842  155.4018 N   0  0  0  0  0  0  0  0  0  0  0  0
  146.0741  143.0236  154.9632 C   0  0  0  0  0  0  0  0  0  0  0  0
  144.7457  143.1869  155.1303 C   0  0  0  0  0  0  0  0  0  0  0  0
  143.9745  142.1427  155.7977 C   0  0  0  0  0  0  0  0  0  0  0  0
  142.7614  142.2914  155.9315 O   0  0  0  0  0  0  0  0  0  0  0  0
  144.6414  141.0419  156.2487 N   0  5  0  0  0  0  0  0  0  0  0  0
  145.9876  140.8795  156.0911 C   0  0  0  0  0  0  0  0  0  0  0  0
  146.5943  139.9028  156.5252 O   0  0  0  0  0  0  0  0  0  0  0  0
  148.6567  140.6324  154.2815 C   0  0  1  0  0  0  0  0  0  0  0  0
  149.2974  141.1087  153.1154 O   0  0  0  0  0  0  0  0  0  0  0  0
  149.6768  139.8650  155.1272 C   0  0  2  0  0  0  0  0  0  0  0  0
  149.1118  138.6682  155.6497 O   0  0  0  0  0  0  0  0  0  0  0  0
  149.8871  137.6240  156.0054 C   0  0  0  0  0  0  0  0  0  0  0  0
  151.0488  137.7374  156.4015 O   0  0  0  0  0  0  0  0  0  0  0  0
  149.1865  136.3152  155.8660 C   0  0  0  0  0  0  0  0  0  0  0  0
  149.8906  135.1181  156.1331 C   0  0  0  0  0  0  0  0  0  0  0  0
  149.2541  133.8681  156.0049 C   0  0  0  0  0  0  0  0  0  0  0  0
  147.9065  133.8001  155.6061 C   0  0  0  0  0  0  0  0  0  0  0  0
  147.1955  134.9837  155.3363 C   0  0  0  0  0  0  0  0  0  0  0  0
  147.8296  136.2345  155.4657 C   0  0  0  0  0  0  0  0  0  0  0  0
  152.6996  141.6983  160.0805 C   0  0  0  0  0  0  0  0  0  0  0  0
  152.2848  143.0503  160.0534 C   0  0  0  0  0  0  0  0  0  0  0  0
  152.6095  143.9219  161.1111 C   0  0  0  0  0  0  0  0  0  0  0  0
  153.3525  143.4517  162.2095 C   0  0  0  0  0  0  0  0  0  0  0  0
  153.7694  142.1084  162.2497 C   0  0  0  0  0  0  0  0  0  0  0  0
  153.4461  141.2355  161.1925 C   0  0  0  0  0  0  0  0  0  0  0  0
  151.1449  139.3523  157.3440 H   0  0  0  0  0  0  0  0  0  0  0  0
  149.6351  139.8062  158.1309 H   0  0  0  0  0  0  0  0  0  0  0  0
  150.7717  141.5438  155.9007 H   0  0  0  0  0  0  0  0  0  0  0  0
  148.5469  142.7581  154.8439 H   0  0  0  0  0  0  0  0  0  0  0  0
  146.6339  143.8053  154.4717 H   0  0  0  0  0  0  0  0  0  0  0  0
  144.2566  144.0830  154.7778 H   0  0  0  0  0  0  0  0  0  0  0  0
  147.8086  140.0147  153.9846 H   0  0  0  0  0  0  0  0  0  0  0  0
  149.1001  140.5195  152.4038 H   0  0  0  0  0  0  0  0  0  0  0  0
  150.5808  139.6211  154.5663 H   0  0  0  0  0  0  0  0  0  0  0  0
  150.9265  135.1457  156.4386 H   0  0  0  0  0  0  0  0  0  0  0  0
  149.8019  132.9605  156.2110 H   0  0  0  0  0  0  0  0  0  0  0  0
  147.4190  132.8415  155.5058 H   0  0  0  0  0  0  0  0  0  0  0  0
  146.1621  134.9342  155.0265 H   0  0  0  0  0  0  0  0  0  0  0  0
  147.2552  137.1229  155.2465 H   0  0  0  0  0  0  0  0  0  0  0  0
  151.7151  143.4350  159.2196 H   0  0  0  0  0  0  0  0  0  0  0  0
  152.2892  144.9529  161.0777 H   0  0  0  0  0  0  0  0  0  0  0  0
  153.6029  144.1206  163.0197 H   0  0  0  0  0  0  0  0  0  0  0  0
  154.3404  141.7463  163.0919 H   0  0  0  0  0  0  0  0  0  0  0  0
  153.7847  140.2116  161.2531 H   0  0  0  0  0  0  0  0  0  0  0  0
  1  2  2  0  0  0  0
  2  3  1  0  0  0  0
  2 28  1  0  0  0  0
  3  4  1  0  0  0  0
  4  5  1  0  0  0  0
  4 34  1  0  0  0  0
  4 35  1  0  0  0  0
  5 18  1  0  0  0  0
  5  6  1  0  0  0  0
  5 36  1  0  0  0  0
  6  7  1  0  0  0  0
  7  8  1  0  0  0  0
  7 16  1  0  0  0  0
  7 37  1  0  0  0  0
  8 14  1  0  0  0  0
  8  9  1  0  0  0  0
  9 10  2  0  0  0  0
  9 38  1  0  0  0  0
 10 11  1  0  0  0  0
 10 39  1  0  0  0  0
 11 12  2  0  0  0  0
 11 13  1  0  0  0  0
 13 14  1  0  0  0  0
 14 15  2  0  0  0  0
 16 17  1  0  0  0  0
 16 18  1  0  0  0  0
 16 40  1  0  0  0  0
 17 41  1  0  0  0  0
 18 19  1  0  0  0  0
 18 42  1  0  0  0  0
 19 20  1  0  0  0  0
 20 21  2  0  0  0  0
 20 22  1  0  0  0  0
 22 27  1  0  0  0  0
 22 23  2  0  0  0  0
 23 24  1  0  0  0  0
 23 43  1  0  0  0  0
 24 25  2  0  0  0  0
 24 44  1  0  0  0  0
 25 26  1  0  0  0  0
 25 45  1  0  0  0  0
 26 27  2  0  0  0  0
 26 46  1  0  0  0  0
 27 47  1  0  0  0  0
 28 33  1  0  0  0  0
 28 29  2  0  0  0  0
 29 30  1  0  0  0  0
 29 48  1  0  0  0  0
 30 31  2  0  0  0  0
 30 49  1  0  0  0  0
 31 32  1  0  0  0  0
 31 50  1  0  0  0  0
 32 33  2  0  0  0  0
 32 51  1  0  0  0  0
 33 52  1  0  0  0  0
M  CHG  1  13  -1
M  END
> <s_m_source_file>
AV-unprocessed.smi

> <i_m_source_file_index>
99

> <i_lp_mmshare_version>
43012

> <i_f3d_flags>
0

> <s_epik_input>
W2NIXTFbY0hdW2NIXVtjSF1bY0hdYzFDKD1PKU9bQ0gyXVtDQEBIXTJPW0NAQEhdKG4zW2NIXVtjSF1jKD1PKVtuSF1jMz1PKVtDQEBIXShbT0hdKVtDQEhdMk9DKD1PKWM0W2NIXVtjSF1bY0hdW2NIXVtjSF00

> <s_epik_cmdline>
J2VwaWtfcHl0aG9uJywgJy1waCcsICc3LjAnLCAnLXRuJywgJzgnLCAnLW1hJywgJzIwMCcsICctbWV0YWxfYmluZGluZycsICctaW1hZScsICc8aW5maWxlLm1hZT4nLCAnLW9tYWUnLCAnPG91dGZpbGUubWFlPic=

> <r_lp_tautomer_probability>
1

> <r_epik_Ionization_Penalty>
2.89159

> <r_epik_Ionization_Penalty_Charging>
2.1077e-08

> <r_epik_Ionization_Penalty_Neutral>
2.89159

> <r_epik_State_Penalty>
2.88671

> <r_epik_Charging_Adjusted_Penalty>
2.88671

> <i_epik_Tot_Q>
-1

> <i_epik_Tot_abs_Q>
1

> <r_epik_Metal_State_Penalty>
0.0727308

> <b_epik_Metal_Only>
1

> <s_epik_Chemistry_Notes>
This compound has an ester and may undergo hydrolysis at high or low pH. This compound contains an acetal/aminal-like group ( X-CH(R)-Y where X, Y are N, S, or O) that may be acid/base labile, releasing an aldehyde.

> <s_lp_Force_Field>
OPLS_2005

> <r_lp_Energy>
34.2079

> <b_lp_Chiralities_Consistent>
1

> <s_lp_Variant>
AV-unprocessed.smi:99-27

> <Gold.Version>
5.8.1

> <Gold.Id.Protein>
6NUR|6NUR_protein|mol2

> <Gold.PLP.Fitness>
53.1873

> <Gold.PLP.PLP>
-49.3444

> <Gold.PLP.part.hbond>
-3.3210

> <Gold.PLP.part.metal>
0.0000

> <Gold.PLP.part.buried>
-5.4438

> <Gold.PLP.part.nonpolar>
-41.1064

> <Gold.PLP.part.repulsive>
0.3090

> <Gold.PLP.ligand.clash>
0.0000

> <Gold.PLP.ligand.torsion>
1.9534

> <Gold.PLP.Chemscore.Hbond>
2.5094

> <Gold.PLP.Chemscore.CHOScore>
0.0000

> <Gold.PLP.Chemscore.Metal>
0.0000

> <Gold.Chemscore.Hbonds>
donor molecule, donor type, donor heavy atom, donor atom, acceptor molecule, acceptor atom, score
      L1  H    17    41       P1  7957  0.62
      P1  H  7989  7998       L1    17  0.02
      P1  H  7997  8008       L1     1  0.55
      P1  H  8011  8017       L1    17  1.00
      L1  C     9    38       P1  8028  0.05

> <Gold.PLP.Chemscore.Internal.Correction>
0.2213

> <Gold.Rescore>
     Score         DG    S(hbond)    S(metal)    S(lipo)     H(rot)  DE(clash)    DE(int)     intcor
     10.99     -17.98       1.93        0.00     120.37       3.13       0.45       6.54       ----

> <Gold.Chemscore.Fitness>
10.9853

> <Gold.Chemscore.DG>
-17.9772

> <Gold.Chemscore.ZeroCoef>
-5.4800

> <Gold.Chemscore.Hbond>
1.9277

> <Gold.Chemscore.Metal>
0.0000

> <Gold.Chemscore.Lipo>
120.3685

> <Gold.Chemscore.Internal_Hbond>
0.0000

> <Gold.Chemscore.DEClash>
0.4517

> <Gold.Chemscore.DEInternal>
6.5402

> <Gold.Chemscore.Rot>
3.1346

> <Gold.Chemscore.Internal.Correction>
   9.000000E+99

> <Gold.Chemscore.Hbonds>
donor molecule, donor type, donor heavy atom, donor atom, acceptor molecule, acceptor atom, score
      L1  H    17    41       P1  7957  0.61
      P1  H  7989  7998       L1    17  0.01
      P1  H  7997  8008       L1     1  0.52
      P1  H  8011  8017       L1    17  0.30

> <Gold.Chemscore.Hbond.Weighted>
-6.4387

> <Gold.Chemscore.Metal.Weighted>
-0.0000

> <Gold.Chemscore.Lipo.Weighted>
-14.0831

> <Gold.Chemscore.Internal_Hbond.Weighted>
0.0000

> <Gold.Chemscore.DEClash.Weighted>
0.4517

> <Gold.Chemscore.DEInternal.Weighted>
6.5402

> <Gold.Chemscore.Rot.Weighted>
8.0246

> <Gold.Chemscore.Internal.Correction.Weighted>
   9.000000E+99

> <Gold.Protein.RotatedTorsions>
[ 6907 6896 6895 6894 ] final  113.44 input  -60.11 | X-H torsion
[ 7974 7965 7964 7962 ] final  -73.80 input  175.53 | X-H torsion
[ 8008 7997 7996 7995 ] final  -81.41 input   59.86 | X-H torsion
[ 10167 10162 10161 10158 ] final  -95.97 input  -65.29 | X-H torsion
[ 10718 10713 10712 10709 ] final    5.10 input   66.30 | X-H torsion
[ 10763 10752 10751 10750 ] final -120.42 input  -60.55 | X-H torsion
[ 11005 11000 10999 10996 ] final   48.66 input  -57.11 | X-H torsion

> <Gold.Protein.ActiveResidues>
 VAL166  LYS551  ARG553  GLY616  TRP617  ASP618  TYR619  PRO620  LYS621  CYS622 
 ASP623  PHE694  ASN695  SER759  ASP760  ASP761  ALA762  ILE779  LEU786  VAL792 
 PHE793  MET794  SER795  GLU796  ALA797  LYS798  CYS799  TRP800  GLU811  SER814 

> <Gold.Protein.RotatedAtoms>
  152.4860  133.8375  159.7135 H   0  0  0  0  0  0  0  0  0  0  0  0  # atno 6907 bound_to 6896
  150.8948  133.7186  159.2901 H   0  0  0  0  0  0  0  0  0  0  0  0  # atno 6908 bound_to 6896
  151.4647  135.1045  159.9787 H   0  0  0  0  0  0  0  0  0  0  0  0  # atno 6909 bound_to 6896
  145.6474  140.9293  143.1003 H   0  0  0  0  0  0  0  0  0  0  0  0  # atno 7974 bound_to 7965
  154.5980  140.0648  156.9330 H   0  0  0  0  0  0  0  0  0  0  0  0  # atno 8008 bound_to 7997
  155.2180  140.3328  155.4301 H   0  0  0  0  0  0  0  0  0  0  0  0  # atno 8009 bound_to 7997
  156.2300  140.1836  156.7251 H   0  0  0  0  0  0  0  0  0  0  0  0  # atno 8010 bound_to 7997
  140.2987  143.3176  152.0271 H   0  0  0  0  0  0  0  0  0  0  0  0  # atno 10167 bound_to 10162
  156.9023  130.5726  149.5648 H   0  0  0  0  0  0  0  0  0  0  0  0  # atno 10718 bound_to 10713
  154.8643  135.4203  154.2457 H   0  0  0  0  0  0  0  0  0  0  0  0  # atno 10763 bound_to 10752
  153.3413  135.6994  153.6870 H   0  0  0  0  0  0  0  0  0  0  0  0  # atno 10764 bound_to 10752
  153.5847  135.3566  155.2861 H   0  0  0  0  0  0  0  0  0  0  0  0  # atno 10765 bound_to 10752
  140.1171  134.4878  155.8628 H   0  0  0  0  0  0  0  0  0  0  0  0  # atno 11005 bound_to 11000
  144.7135  139.8283  143.7406 LP  0  0  0  0  0  0  0  0  0  0  0  0  # atno 17320 bound_to 7965
  146.1231  139.4253  143.0216 LP  0  0  0  0  0  0  0  0  0  0  0  0  # atno 17321 bound_to 7965
  139.4920  144.6472  151.6753 LP  0  0  0  0  0  0  0  0  0  0  0  0  # atno 17342 bound_to 10162
  140.5670  144.0173  150.6197 LP  0  0  0  0  0  0  0  0  0  0  0  0  # atno 17343 bound_to 10162
  156.0576  130.5634  150.9124 LP  0  0  0  0  0  0  0  0  0  0  0  0  # atno 17370 bound_to 10713
  157.6018  131.0941  150.8947 LP  0  0  0  0  0  0  0  0  0  0  0  0  # atno 17371 bound_to 10713
  141.2143  133.6747  156.6817 LP  0  0  0  0  0  0  0  0  0  0  0  0  # atno 17394 bound_to 11000
  140.3014  134.8161  157.4101 LP  0  0  0  0  0  0  0  0  0  0  0  0  # atno 17395 bound_to 11000

$$$$
