AV-unprocessed.smi:1406|AV-procd|sdf|5722|dock6
  -GOLD-   22720 5353D 1   1.00000     0.00000
 Structure written by MMmdl.
 41 43  0  0  0  0  0  0  0  0  2 V2000
  144.7038  136.8163  153.0267 C   0  0  0  0  0  0  0  0  0  0  0  0
  143.7158  135.9335  152.2376 C   0  0  1  0  0  0  0  0  0  0  0  0
  144.2546  134.5190  151.9699 C   0  0  0  0  0  0  0  0  0  0  0  0
  143.5355  133.6490  151.4773 O   0  0  0  0  0  0  0  0  0  0  0  0
  145.5454  134.3106  152.2745 N   0  0  0  0  0  0  0  0  0  0  0  0
  146.2815  133.0856  151.9795 C   0  0  2  0  0  0  0  0  0  0  0  0
  145.5735  131.8240  152.4563 C   0  0  0  0  0  0  0  0  0  0  0  0
  146.7017  130.7877  152.4877 C   0  0  0  0  0  0  0  0  0  0  0  0
  147.9650  131.5342  152.7077 N   0  3  2  0  0  0  0  0  0  0  0  0
  148.7381  131.0777  153.8939 C   0  0  0  0  0  0  0  0  0  0  0  0
  149.7990  132.1147  154.2914 C   0  0  0  0  0  0  0  0  0  0  0  0
  149.1557  133.4567  154.6890 C   0  0  0  0  0  0  0  0  0  0  0  0
  147.7605  133.6491  154.0656 C   0  0  0  0  0  0  0  0  0  0  0  0
  147.6589  132.9925  152.6655 C   0  0  2  0  0  0  0  0  0  0  0  0
  142.4139  135.8534  152.8900 N   0  0  0  0  0  0  0  0  0  0  0  0
  141.7654  134.7969  153.3844 C   0  0  0  0  0  0  0  0  0  0  0  0
  140.6157  135.0967  153.9719 N   0  0  0  0  0  0  0  0  0  0  0  0
  140.6151  136.4512  153.7948 C   0  0  0  0  0  0  0  0  0  0  0  0
  141.6744  136.9573  153.1638 N   0  0  0  0  0  0  0  0  0  0  0  0
  145.6526  136.9143  152.4979 H   0  0  0  0  0  0  0  0  0  0  0  0
  144.9170  136.4097  154.0162 H   0  0  0  0  0  0  0  0  0  0  0  0
  144.3023  137.8208  153.1634 H   0  0  0  0  0  0  0  0  0  0  0  0
  143.5611  136.4073  151.2668 H   0  0  0  0  0  0  0  0  0  0  0  0
  146.0663  135.0724  152.6842 H   0  0  0  0  0  0  0  0  0  0  0  0
  146.4178  133.0023  150.8991 H   0  0  0  0  0  0  0  0  0  0  0  0
  145.1770  131.9690  153.4625 H   0  0  0  0  0  0  0  0  0  0  0  0
  144.7478  131.5285  151.8082 H   0  0  0  0  0  0  0  0  0  0  0  0
  146.5192  130.0183  153.2391 H   0  0  0  0  0  0  0  0  0  0  0  0
  146.7743  130.2861  151.5221 H   0  0  0  0  0  0  0  0  0  0  0  0
  148.0678  130.9099  154.7389 H   0  0  0  0  0  0  0  0  0  0  0  0
  149.2045  130.1187  153.6657 H   0  0  0  0  0  0  0  0  0  0  0  0
  150.4137  131.7397  155.1104 H   0  0  0  0  0  0  0  0  0  0  0  0
  150.4758  132.2697  153.4499 H   0  0  0  0  0  0  0  0  0  0  0  0
  149.0701  133.5255  155.7741 H   0  0  0  0  0  0  0  0  0  0  0  0
  149.8157  134.2702  154.3855 H   0  0  0  0  0  0  0  0  0  0  0  0
  147.0072  133.2142  154.7239 H   0  0  0  0  0  0  0  0  0  0  0  0
  147.5418  134.7159  154.0204 H   0  0  0  0  0  0  0  0  0  0  0  0
  148.4012  133.4723  152.0259 H   0  0  0  0  0  0  0  0  0  0  0  0
  142.1472  133.7884  153.3226 H   0  0  0  0  0  0  0  0  0  0  0  0
  139.8151  137.0841  154.1497 H   0  0  0  0  0  0  0  0  0  0  0  0
  148.5441  131.3534  151.8999 H   0  0  0  0  0  0  0  0  0  0  0  0
  1  2  1  0  0  0  0
  1 20  1  0  0  0  0
  1 21  1  0  0  0  0
  1 22  1  0  0  0  0
  2  3  1  0  0  0  0
  2 15  1  0  0  0  0
  2 23  1  0  0  0  0
  3  4  2  0  0  0  0
  3  5  1  0  0  0  0
  5  6  1  0  0  0  0
  5 24  1  0  0  0  0
  6 14  1  0  0  0  0
  6  7  1  0  0  0  0
  6 25  1  0  0  0  0
  7  8  1  0  0  0  0
  7 26  1  0  0  0  0
  7 27  1  0  0  0  0
  8  9  1  0  0  0  0
  8 28  1  0  0  0  0
  8 29  1  0  0  0  0
  9 14  1  0  0  0  0
  9 10  1  0  0  0  0
  9 41  1  0  0  0  0
 10 11  1  0  0  0  0
 10 30  1  0  0  0  0
 10 31  1  0  0  0  0
 11 12  1  0  0  0  0
 11 32  1  0  0  0  0
 11 33  1  0  0  0  0
 12 13  1  0  0  0  0
 12 34  1  0  0  0  0
 12 35  1  0  0  0  0
 13 14  1  0  0  0  0
 13 36  1  0  0  0  0
 13 37  1  0  0  0  0
 14 38  1  0  0  0  0
 15 19  1  0  0  0  0
 15 16  1  0  0  0  0
 16 17  2  0  0  0  0
 16 39  1  0  0  0  0
 17 18  1  0  0  0  0
 18 19  2  0  0  0  0
 18 40  1  0  0  0  0
M  CHG  1   9   1
M  END
> <s_m_source_file>
AV-unprocessed.smi

> <i_m_source_file_index>
1406

> <i_lp_mmshare_version>
43012

> <i_f3d_flags>
0

> <s_epik_input>
bjFbY0hdbltjSF1uMVtDQEhdKFtDSDNdKUMoPU8pW05IXVtDQEhdKFtDSDJdW0NIMl0yKVtDQEBIXShOMjMpW0NIMl1bQ0gyXVtDSDJdW0NIMl0z

> <s_epik_cmdline>
J2VwaWtfcHl0aG9uJywgJy1waCcsICc3LjAnLCAnLXRuJywgJzgnLCAnLW1hJywgJzIwMCcsICctbWV0YWxfYmluZGluZycsICctaW1hZScsICc8aW5maWxlLm1hZT4nLCAnLW9tYWUnLCAnPG91dGZpbGUubWFlPic=

> <r_lp_tautomer_probability>
1

> <r_epik_Ionization_Penalty>
0.00197066

> <r_epik_Ionization_Penalty_Charging>
0.00196223

> <r_epik_Ionization_Penalty_Neutral>
8.43107e-06

> <r_epik_State_Penalty>
0.00133866

> <r_epik_Charging_Adjusted_Penalty>
0.00330089

> <i_epik_Tot_Q>
1

> <i_epik_Tot_abs_Q>
1

> <r_epik_Metal_State_Penalty>
-0

> <b_epik_Metal_Only>
0

> <s_lp_Force_Field>
OPLS_2005

> <r_lp_Energy>
45.0436

> <b_lp_Chiralities_Consistent>
1

> <s_lp_Variant>
AV-unprocessed.smi:1406-14

> <Gold.Version>
5.8.1

> <Gold.Id.Protein>
6NUR|6NUR_protein|mol2

> <Gold.PLP.Fitness>
40.5777

> <Gold.PLP.PLP>
-32.5301

> <Gold.PLP.part.hbond>
-2.8633

> <Gold.PLP.part.metal>
0.0000

> <Gold.PLP.part.buried>
-5.9568

> <Gold.PLP.part.nonpolar>
-23.7526

> <Gold.PLP.part.repulsive>
0.5730

> <Gold.PLP.ligand.clash>
0.0646

> <Gold.PLP.ligand.torsion>
0.3871

> <Gold.PLP.Chemscore.Hbond>
1.9280

> <Gold.PLP.Chemscore.CHOScore>
1.0000

> <Gold.PLP.Chemscore.Metal>
0.0000

> <Gold.Chemscore.Hbonds>
donor molecule, donor type, donor heavy atom, donor atom, acceptor molecule, acceptor atom, score
      L1  H     9    41       P1 10747  1.00
      P1  H 11000 11005       L1    17  0.93
      L1  C    16    39       P1 10957  0.99

> <Gold.PLP.Chemscore.Internal.Correction>
0.1025

> <Gold.Rescore>
     Score         DG    S(hbond)    S(metal)    S(lipo)     H(rot)  DE(clash)    DE(int)     intcor
     10.25     -13.07       1.85        0.00      53.20       1.89       0.03       2.79       ----

> <Gold.Chemscore.Fitness>
10.2458

> <Gold.Chemscore.DG>
-13.0700

> <Gold.Chemscore.ZeroCoef>
-5.4800

> <Gold.Chemscore.Hbond>
1.8549

> <Gold.Chemscore.Metal>
0.0000

> <Gold.Chemscore.Lipo>
53.1979

> <Gold.Chemscore.Internal_Hbond>
0.0000

> <Gold.Chemscore.DEClash>
0.0321

> <Gold.Chemscore.DEInternal>
2.7922

> <Gold.Chemscore.Rot>
1.8865

> <Gold.Chemscore.Internal.Correction>
   9.000000E+99

> <Gold.Chemscore.Hbonds>
donor molecule, donor type, donor heavy atom, donor atom, acceptor molecule, acceptor atom, score
      L1  H     9    41       P1 10747  0.99
      P1  H 11000 11005       L1    17  0.55

> <Gold.Chemscore.Hbond.Weighted>
-6.1954

> <Gold.Chemscore.Metal.Weighted>
-0.0000

> <Gold.Chemscore.Lipo.Weighted>
-6.2242

> <Gold.Chemscore.Internal_Hbond.Weighted>
0.0000

> <Gold.Chemscore.DEClash.Weighted>
0.0321

> <Gold.Chemscore.DEInternal.Weighted>
2.7922

> <Gold.Chemscore.Rot.Weighted>
4.8295

> <Gold.Chemscore.Internal.Correction.Weighted>
   9.000000E+99

> <Gold.Protein.RotatedTorsions>
[ 6907 6896 6895 6894 ] final  137.31 input  -60.11 | X-H torsion
[ 7974 7965 7964 7962 ] final    6.82 input  175.53 | X-H torsion
[ 8008 7997 7996 7995 ] final -177.57 input   59.86 | X-H torsion
[ 10167 10162 10161 10158 ] final  133.01 input  -65.29 | X-H torsion
[ 10718 10713 10712 10709 ] final  133.79 input   66.30 | X-H torsion
[ 10763 10752 10751 10750 ] final   99.17 input  -60.55 | X-H torsion
[ 11005 11000 10999 10996 ] final   10.17 input  -57.11 | X-H torsion

> <Gold.Protein.ActiveResidues>
 VAL166  LYS551  ARG553  GLY616  TRP617  ASP618  TYR619  PRO620  LYS621  CYS622 
 ASP623  PHE694  ASN695  SER759  ASP760  ASP761  ALA762  ILE779  LEU786  VAL792 
 PHE793  MET794  SER795  GLU796  ALA797  LYS798  CYS799  TRP800  GLU811  SER814 

> <Gold.Protein.RotatedAtoms>
  152.2795  133.5457  159.5488 H   0  0  0  0  0  0  0  0  0  0  0  0  # atno 6907 bound_to 6896
  150.7190  134.0584  159.3831 H   0  0  0  0  0  0  0  0  0  0  0  0  # atno 6908 bound_to 6896
  151.8495  135.0562  160.0508 H   0  0  0  0  0  0  0  0  0  0  0  0  # atno 6909 bound_to 6896
  146.2432  140.0176  142.8401 H   0  0  0  0  0  0  0  0  0  0  0  0  # atno 7974 bound_to 7965
  156.0085  140.1235  157.0477 H   0  0  0  0  0  0  0  0  0  0  0  0  # atno 8008 bound_to 7997
  154.4267  140.1092  156.5865 H   0  0  0  0  0  0  0  0  0  0  0  0  # atno 8009 bound_to 7997
  155.6113  140.3471  155.4625 H   0  0  0  0  0  0  0  0  0  0  0  0  # atno 8010 bound_to 7997
  139.5315  144.6636  151.4933 H   0  0  0  0  0  0  0  0  0  0  0  0  # atno 10167 bound_to 10162
  157.4738  131.1082  150.9769 H   0  0  0  0  0  0  0  0  0  0  0  0  # atno 10718 bound_to 10713
  153.2981  135.4123  155.1227 H   0  0  0  0  0  0  0  0  0  0  0  0  # atno 10763 bound_to 10752
  154.8541  135.3534  154.5890 H   0  0  0  0  0  0  0  0  0  0  0  0  # atno 10764 bound_to 10752
  153.6314  135.7060  153.5332 H   0  0  0  0  0  0  0  0  0  0  0  0  # atno 10765 bound_to 10752
  140.5175  134.0591  155.7835 H   0  0  0  0  0  0  0  0  0  0  0  0  # atno 11005 bound_to 11000
  145.1270  140.9496  143.4567 LP  0  0  0  0  0  0  0  0  0  0  0  0  # atno 17320 bound_to 7965
  145.0425  139.3248  143.5969 LP  0  0  0  0  0  0  0  0  0  0  0  0  # atno 17321 bound_to 7965
  140.6496  143.8723  150.6772 LP  0  0  0  0  0  0  0  0  0  0  0  0  # atno 17342 bound_to 10162
  140.2084  143.3903  152.1737 LP  0  0  0  0  0  0  0  0  0  0  0  0  # atno 17343 bound_to 10162
  157.0526  130.5793  149.5373 LP  0  0  0  0  0  0  0  0  0  0  0  0  # atno 17370 bound_to 10713
  156.0086  130.5176  150.7914 LP  0  0  0  0  0  0  0  0  0  0  0  0  # atno 17371 bound_to 10713
  141.1352  133.9234  157.2449 LP  0  0  0  0  0  0  0  0  0  0  0  0  # atno 17394 bound_to 11000
  139.9624  135.0151  156.9296 LP  0  0  0  0  0  0  0  0  0  0  0  0  # atno 17395 bound_to 11000

$$$$
