AV-unprocessed.smi:178|AV-procd|sdf|1445|dock10
  -GOLD-   2262019233D 1   1.00000     0.00000
 Structure written by MMmdl.
 50 52  0  0  0  0  0  0  0  0  1 V2000
  143.8952  136.8866  153.2930 C   0  0  0  0  0  0  0  0  0  0  0  0
  145.3057  136.9898  153.1741 O   0  0  0  0  0  0  0  0  0  0  0  0
  145.8537  138.1309  153.8177 C   0  0  0  0  0  0  0  0  0  0  0  0
  147.1984  138.5421  153.1858 C   0  0  0  0  0  0  0  0  0  0  0  0
  147.7664  139.7458  153.8004 N   0  0  0  0  0  0  0  0  0  0  0  0
  147.0413  141.0047  153.6297 C   0  0  0  0  0  0  0  0  0  0  0  0
  146.4193  141.5252  154.9361 C   0  0  0  0  0  0  0  0  0  0  0  0
  145.4761  142.6412  154.7622 C   0  0  0  0  0  0  0  0  0  0  0  0
  144.7330  143.5181  154.6283 N   0  0  0  0  0  0  0  0  0  0  0  0
  148.9706  139.6784  154.4470 C   0  0  0  0  0  0  0  0  0  0  0  0
  149.8207  138.6743  154.0974 N   0  0  0  0  0  0  0  0  0  0  0  0
  151.0185  138.5487  154.6712 C   0  0  0  0  0  0  0  0  0  0  0  0
  151.5712  139.3085  155.6143 N   0  0  0  0  0  0  0  0  0  0  0  0
  150.7343  140.3176  155.9869 C   0  0  0  0  0  0  0  0  0  0  0  0
  149.4322  140.5767  155.4624 C   0  0  0  0  0  0  0  0  0  0  0  0
  148.9135  141.7062  156.0878 N   0  0  0  0  0  0  0  0  0  0  0  0
  149.8411  142.0850  156.9208 C   0  0  0  0  0  0  0  0  0  0  0  0
  150.9678  141.2976  156.9386 N   0  0  0  0  0  0  0  0  0  0  0  0
  152.1620  141.4750  157.7568 C   0  0  0  0  0  0  0  0  0  0  0  0
  151.9014  142.1390  159.1364 C   0  0  1  0  0  0  0  0  0  0  0  0
  150.8063  141.4769  159.7474 O   0  0  0  0  0  0  0  0  0  0  0  0
  153.0930  142.0616  160.0756 C   0  0  0  0  0  0  0  0  0  0  0  0
  152.8068  143.1614  161.0960 C   0  0  0  0  0  0  0  0  0  0  0  0
  151.9137  144.0763  160.4639 O   0  0  0  0  0  0  0  0  0  0  0  0
  151.5884  143.6500  159.1416 C   0  0  1  0  0  0  0  0  0  0  0  0
  152.4565  144.5189  158.2119 C   0  0  0  0  0  0  0  0  0  0  0  0
  143.5572  135.9686  152.8128 H   0  0  0  0  0  0  0  0  0  0  0  0
  143.3839  137.7195  152.8109 H   0  0  0  0  0  0  0  0  0  0  0  0
  143.5893  136.8473  154.3391 H   0  0  0  0  0  0  0  0  0  0  0  0
  145.1362  138.9526  153.8144 H   0  0  0  0  0  0  0  0  0  0  0  0
  146.0095  137.8688  154.8636 H   0  0  0  0  0  0  0  0  0  0  0  0
  147.9049  137.7197  153.3011 H   0  0  0  0  0  0  0  0  0  0  0  0
  147.1019  138.6886  152.1105 H   0  0  0  0  0  0  0  0  0  0  0  0
  147.7551  141.7479  153.2732 H   0  0  0  0  0  0  0  0  0  0  0  0
  146.3003  140.9495  152.8368 H   0  0  0  0  0  0  0  0  0  0  0  0
  145.8915  140.7236  155.4522 H   0  0  0  0  0  0  0  0  0  0  0  0
  147.2067  141.8633  155.6097 H   0  0  0  0  0  0  0  0  0  0  0  0
  151.6203  137.7221  154.3234 H   0  0  0  0  0  0  0  0  0  0  0  0
  149.7195  142.9626  157.5353 H   0  0  0  0  0  0  0  0  0  0  0  0
  152.6027  140.4890  157.9103 H   0  0  0  0  0  0  0  0  0  0  0  0
  152.8994  142.0358  157.1822 H   0  0  0  0  0  0  0  0  0  0  0  0
  150.0269  141.6645  159.2469 H   0  0  0  0  0  0  0  0  0  0  0  0
  153.2244  141.0801  160.5330 H   0  0  0  0  0  0  0  0  0  0  0  0
  154.0108  142.2962  159.5350 H   0  0  0  0  0  0  0  0  0  0  0  0
  152.3157  142.7512  161.9788 H   0  0  0  0  0  0  0  0  0  0  0  0
  153.7189  143.6630  161.4205 H   0  0  0  0  0  0  0  0  0  0  0  0
  150.5361  143.8442  158.9294 H   0  0  0  0  0  0  0  0  0  0  0  0
  152.2786  144.3047  157.1617 H   0  0  0  0  0  0  0  0  0  0  0  0
  153.5203  144.3780  158.4022 H   0  0  0  0  0  0  0  0  0  0  0  0
  152.2365  145.5758  158.3629 H   0  0  0  0  0  0  0  0  0  0  0  0
  1  2  1  0  0  0  0
  1 27  1  0  0  0  0
  1 28  1  0  0  0  0
  1 29  1  0  0  0  0
  2  3  1  0  0  0  0
  3  4  1  0  0  0  0
  3 30  1  0  0  0  0
  3 31  1  0  0  0  0
  4  5  1  0  0  0  0
  4 32  1  0  0  0  0
  4 33  1  0  0  0  0
  5  6  1  0  0  0  0
  5 10  1  0  0  0  0
  6  7  1  0  0  0  0
  6 34  1  0  0  0  0
  6 35  1  0  0  0  0
  7  8  1  0  0  0  0
  7 36  1  0  0  0  0
  7 37  1  0  0  0  0
  8  9  3  0  0  0  0
 10 15  1  0  0  0  0
 10 11  2  0  0  0  0
 11 12  1  0  0  0  0
 12 13  2  0  0  0  0
 12 38  1  0  0  0  0
 13 14  1  0  0  0  0
 14 18  1  0  0  0  0
 14 15  2  0  0  0  0
 15 16  1  0  0  0  0
 16 17  2  0  0  0  0
 17 18  1  0  0  0  0
 17 39  1  0  0  0  0
 18 19  1  0  0  0  0
 19 20  1  0  0  0  0
 19 40  1  0  0  0  0
 19 41  1  0  0  0  0
 20 25  1  0  0  0  0
 20 21  1  0  0  0  0
 20 22  1  0  0  0  0
 21 42  1  0  0  0  0
 22 23  1  0  0  0  0
 22 43  1  0  0  0  0
 22 44  1  0  0  0  0
 23 24  1  0  0  0  0
 23 45  1  0  0  0  0
 23 46  1  0  0  0  0
 24 25  1  0  0  0  0
 25 26  1  0  0  0  0
 25 47  1  0  0  0  0
 26 48  1  0  0  0  0
 26 49  1  0  0  0  0
 26 50  1  0  0  0  0
M  END
> <s_m_source_file>
AV-unprocessed.smi

> <i_m_source_file_index>
178

> <i_lp_mmshare_version>
43012

> <i_f3d_flags>
0

> <s_epik_input>
W0NIM11PW0NIMl1bQ0gyXU4oW0NIMl1bQ0gyXUMjTiljKG5bY0hdbjEpYyhjMTIpbltjSF1uMltDSDJdW0NAQF0zKFtPSF0pW0NIMl1bQ0gyXU9bQ0BIXTNbQ0gzXQ==

> <s_epik_cmdline>
J2VwaWtfcHl0aG9uJywgJy1waCcsICc3LjAnLCAnLXRuJywgJzgnLCAnLW1hJywgJzIwMCcsICctbWV0YWxfYmluZGluZycsICctaW1hZScsICc8aW5maWxlLm1hZT4nLCAnLW9tYWUnLCAnPG91dGZpbGUubWFlPic=

> <r_lp_tautomer_probability>
1

> <r_epik_Ionization_Penalty>
0.000885317

> <r_epik_Ionization_Penalty_Charging>
0

> <r_epik_Ionization_Penalty_Neutral>
0.000885317

> <r_epik_State_Penalty>
0.00047273

> <r_epik_Charging_Adjusted_Penalty>
0.00047273

> <i_epik_Tot_Q>
0

> <i_epik_Tot_abs_Q>
0

> <r_epik_Metal_State_Penalty>
-0

> <b_epik_Metal_Only>
0

> <s_lp_Force_Field>
OPLS_2005

> <r_lp_Energy>
33.9655

> <b_lp_Chiralities_Consistent>
1

> <s_lp_Variant>
AV-unprocessed.smi:178-1

> <Gold.Version>
5.8.1

> <Gold.Id.Protein>
6NUR|6NUR_protein|mol2

> <Gold.PLP.Fitness>
42.8632

> <Gold.PLP.PLP>
-43.3281

> <Gold.PLP.part.hbond>
-1.0000

> <Gold.PLP.part.metal>
0.0000

> <Gold.PLP.part.buried>
-2.5157

> <Gold.PLP.part.nonpolar>
-42.1485

> <Gold.PLP.part.repulsive>
2.2368

> <Gold.PLP.ligand.clash>
0.0000

> <Gold.PLP.ligand.torsion>
1.0526

> <Gold.PLP.Chemscore.Hbond>
0.0000

> <Gold.PLP.Chemscore.CHOScore>
0.4331

> <Gold.PLP.Chemscore.Metal>
0.0000

> <Gold.Chemscore.Hbonds>
donor molecule, donor type, donor heavy atom, donor atom, acceptor molecule, acceptor atom, score
      L1  C    17    39       P1  8028  0.24

> <Gold.PLP.Chemscore.Internal.Correction>
0.3409

> <Gold.Rescore>
     Score         DG    S(hbond)    S(metal)    S(lipo)     H(rot)  DE(clash)    DE(int)     intcor
      5.01      -8.21       0.00        0.00      97.16       3.37       1.77       1.42       ----

> <Gold.Chemscore.Fitness>
5.0144

> <Gold.Chemscore.DG>
-8.2120

> <Gold.Chemscore.ZeroCoef>
-5.4800

> <Gold.Chemscore.Hbond>
0.0000

> <Gold.Chemscore.Metal>
0.0000

> <Gold.Chemscore.Lipo>
97.1567

> <Gold.Chemscore.Internal_Hbond>
0.0000

> <Gold.Chemscore.DEClash>
1.7746

> <Gold.Chemscore.DEInternal>
1.4230

> <Gold.Chemscore.Rot>
3.3732

> <Gold.Chemscore.Internal.Correction>
   9.000000E+99

> <Gold.Chemscore.Hbond.Weighted>
-0.0000

> <Gold.Chemscore.Metal.Weighted>
-0.0000

> <Gold.Chemscore.Lipo.Weighted>
-11.3673

> <Gold.Chemscore.Internal_Hbond.Weighted>
0.0000

> <Gold.Chemscore.DEClash.Weighted>
1.7746

> <Gold.Chemscore.DEInternal.Weighted>
1.4230

> <Gold.Chemscore.Rot.Weighted>
8.6354

> <Gold.Chemscore.Internal.Correction.Weighted>
   9.000000E+99

> <Gold.Protein.RotatedTorsions>
[ 6907 6896 6895 6894 ] final  -58.26 input  -60.11 | X-H torsion
[ 7974 7965 7964 7962 ] final  -45.41 input  175.53 | X-H torsion
[ 8008 7997 7996 7995 ] final   43.64 input   59.86 | X-H torsion
[ 10167 10162 10161 10158 ] final   80.92 input  -65.29 | X-H torsion
[ 10718 10713 10712 10709 ] final   30.26 input   66.30 | X-H torsion
[ 10763 10752 10751 10750 ] final  -28.49 input  -60.55 | X-H torsion
[ 11005 11000 10999 10996 ] final   20.07 input  -57.11 | X-H torsion

> <Gold.Protein.ActiveResidues>
 VAL166  LYS551  ARG553  GLY616  TRP617  ASP618  TYR619  PRO620  LYS621  CYS622 
 ASP623  PHE694  ASN695  SER759  ASP760  ASP761  ALA762  ILE779  LEU786  VAL792 
 PHE793  MET794  SER795  GLU796  ALA797  LYS798  CYS799  TRP800  GLU811  SER814 

> <Gold.Protein.RotatedAtoms>
  150.8021  134.7122  159.6609 H   0  0  0  0  0  0  0  0  0  0  0  0  # atno 6907 bound_to 6896
  152.4139  134.6073  160.0026 H   0  0  0  0  0  0  0  0  0  0  0  0  # atno 6908 bound_to 6896
  151.6308  133.3295  159.3144 H   0  0  0  0  0  0  0  0  0  0  0  0  # atno 6909 bound_to 6896
  145.9823  140.7270  142.9357 H   0  0  0  0  0  0  0  0  0  0  0  0  # atno 7974 bound_to 7965
  155.3061  140.3388  155.4245 H   0  0  0  0  0  0  0  0  0  0  0  0  # atno 8008 bound_to 7997
  156.1978  140.1721  156.8000 H   0  0  0  0  0  0  0  0  0  0  0  0  # atno 8009 bound_to 7997
  154.5521  140.0703  156.8668 H   0  0  0  0  0  0  0  0  0  0  0  0  # atno 8010 bound_to 7997
  139.9447  144.6066  150.8218 H   0  0  0  0  0  0  0  0  0  0  0  0  # atno 10167 bound_to 10162
  157.2573  130.7144  149.6436 H   0  0  0  0  0  0  0  0  0  0  0  0  # atno 10718 bound_to 10713
  153.7493  135.6927  153.4949 H   0  0  0  0  0  0  0  0  0  0  0  0  # atno 10763 bound_to 10752
  153.2015  135.4435  155.0270 H   0  0  0  0  0  0  0  0  0  0  0  0  # atno 10764 bound_to 10752
  154.8193  135.3414  154.7014 H   0  0  0  0  0  0  0  0  0  0  0  0  # atno 10765 bound_to 10752
  140.4066  134.1662  155.7665 H   0  0  0  0  0  0  0  0  0  0  0  0  # atno 11005 bound_to 11000
  144.6865  140.2929  143.7275 LP  0  0  0  0  0  0  0  0  0  0  0  0  # atno 17320 bound_to 7965
  145.7751  139.1871  143.2190 LP  0  0  0  0  0  0  0  0  0  0  0  0  # atno 17321 bound_to 7965
  140.7601  143.3143  151.2771 LP  0  0  0  0  0  0  0  0  0  0  0  0  # atno 17342 bound_to 10162
  139.6676  144.0077  152.2733 LP  0  0  0  0  0  0  0  0  0  0  0  0  # atno 17343 bound_to 10162
  155.9664  130.4408  150.5316 LP  0  0  0  0  0  0  0  0  0  0  0  0  # atno 17370 bound_to 10713
  157.3213  131.0682  151.1929 LP  0  0  0  0  0  0  0  0  0  0  0  0  # atno 17371 bound_to 10713
  141.1837  133.8360  157.1167 LP  0  0  0  0  0  0  0  0  0  0  0  0  # atno 17394 bound_to 11000
  140.0297  134.9907  157.0757 LP  0  0  0  0  0  0  0  0  0  0  0  0  # atno 17395 bound_to 11000

$$$$
