AV-unprocessed.smi:1111|AV-procd|sdf|4795|dock1
  -GOLD-   22720 3343D 1   1.00000     0.00000
 Structure written by MMmdl.
 33 34  0  0  0  0  0  0  0  0  2 V2000
  146.9155  135.3736  156.0551 C   0  0  0  0  0  0  0  0  0  0  0  0
  148.3537  135.5531  155.5239 C   0  0  2  0  0  0  0  0  0  0  0  0
  148.4268  136.6986  154.6061 N   0  0  0  0  0  0  0  0  0  0  0  0
  148.2635  138.0035  154.8870 C   0  0  0  0  0  0  0  0  0  0  0  0
  147.9917  138.4398  156.0046 O   0  0  0  0  0  0  0  0  0  0  0  0
  148.4331  138.9735  153.7177 C   0  0  0  0  0  0  0  0  0  0  0  0
  147.9441  140.3121  154.0603 N   0  0  0  0  0  0  0  0  0  0  0  0
  146.6643  140.7886  153.9319 C   0  0  0  0  0  0  0  0  0  0  0  0
  146.6839  142.0860  154.3757 C   0  0  0  0  0  0  0  0  0  0  0  0
  147.9730  142.3459  154.7576 N   0  3  0  0  0  0  0  0  0  0  0  0
  148.7381  141.2667  154.5640 C   0  0  0  0  0  0  0  0  0  0  0  0
  148.7808  134.2983  154.7251 C   0  0  0  0  0  0  0  0  0  0  0  0
  150.3029  134.2980  154.5327 C   0  0  0  0  0  0  0  0  0  0  0  0
  150.9907  135.1237  156.0139 S   0  0  0  0  0  0  0  0  0  0  0  0
  151.5540  134.1170  156.9258 O   0  0  0  0  0  0  0  0  0  0  0  0
  151.7827  136.2859  155.5835 O   0  0  0  0  0  0  0  0  0  0  0  0
  149.3784  135.6967  156.6729 C   0  0  0  0  0  0  0  0  0  0  0  0
  146.8262  134.4674  156.6548 H   0  0  0  0  0  0  0  0  0  0  0  0
  146.1985  135.2954  155.2372 H   0  0  0  0  0  0  0  0  0  0  0  0
  146.6062  136.2039  156.6897 H   0  0  0  0  0  0  0  0  0  0  0  0
  148.6479  136.4682  153.6482 H   0  0  0  0  0  0  0  0  0  0  0  0
  149.4850  139.0501  153.4377 H   0  0  0  0  0  0  0  0  0  0  0  0
  147.8877  138.6181  152.8419 H   0  0  0  0  0  0  0  0  0  0  0  0
  145.8559  140.1862  153.5437 H   0  0  0  0  0  0  0  0  0  0  0  0
  145.8979  142.8237  154.4466 H   0  0  0  0  0  0  0  0  0  0  0  0
  149.7895  141.1815  154.7754 H   0  0  0  0  0  0  0  0  0  0  0  0
  148.5156  133.4071  155.2957 H   0  0  0  0  0  0  0  0  0  0  0  0
  148.2586  134.2182  153.7706 H   0  0  0  0  0  0  0  0  0  0  0  0
  150.7180  133.2950  154.4332 H   0  0  0  0  0  0  0  0  0  0  0  0
  150.5880  134.8816  153.6570 H   0  0  0  0  0  0  0  0  0  0  0  0
  149.4760  136.7042  157.0762 H   0  0  0  0  0  0  0  0  0  0  0  0
  149.1187  135.0358  157.5005 H   0  0  0  0  0  0  0  0  0  0  0  0
  148.3027  143.2268  155.1327 H   0  0  0  0  0  0  0  0  0  0  0  0
  1  2  1  0  0  0  0
  1 18  1  0  0  0  0
  1 19  1  0  0  0  0
  1 20  1  0  0  0  0
  2 17  1  0  0  0  0
  2  3  1  0  0  0  0
  2 12  1  0  0  0  0
  3  4  1  0  0  0  0
  3 21  1  0  0  0  0
  4  5  2  0  0  0  0
  4  6  1  0  0  0  0
  6  7  1  0  0  0  0
  6 22  1  0  0  0  0
  6 23  1  0  0  0  0
  7 11  1  0  0  0  0
  7  8  1  0  0  0  0
  8  9  2  0  0  0  0
  8 24  1  0  0  0  0
  9 10  1  0  0  0  0
  9 25  1  0  0  0  0
 10 11  2  0  0  0  0
 10 33  1  0  0  0  0
 11 26  1  0  0  0  0
 12 13  1  0  0  0  0
 12 27  1  0  0  0  0
 12 28  1  0  0  0  0
 13 14  1  0  0  0  0
 13 29  1  0  0  0  0
 13 30  1  0  0  0  0
 14 15  2  0  0  0  0
 14 16  2  0  0  0  0
 14 17  1  0  0  0  0
 17 31  1  0  0  0  0
 17 32  1  0  0  0  0
M  CHG  1  10   1
M  END
> <s_m_source_file>
AV-unprocessed.smi

> <i_m_source_file_index>
1111

> <i_lp_mmshare_version>
43012

> <i_f3d_flags>
0

> <s_epik_input>
Tz1TKD1PKShbQ0gyXTEpW0NIMl1bQ0gyXVtDQEBdMShbQ0gzXSlbTkhdQyg9TylbQ0gyXW4yW2NIXVtjSF1uW2NIXTI=

> <s_epik_cmdline>
J2VwaWtfcHl0aG9uJywgJy1waCcsICc3LjAnLCAnLXRuJywgJzgnLCAnLW1hJywgJzIwMCcsICctbWV0YWxfYmluZGluZycsICctaW1hZScsICc8aW5maWxlLm1hZT4nLCAnLW9tYWUnLCAnPG91dGZpbGUubWFlPic=

> <r_lp_tautomer_probability>
1

> <r_epik_Ionization_Penalty>
0.638881

> <r_epik_Ionization_Penalty_Charging>
0

> <r_epik_Ionization_Penalty_Neutral>
0.638881

> <r_epik_State_Penalty>
0.656385

> <r_epik_Charging_Adjusted_Penalty>
0.656385

> <i_epik_Tot_Q>
1

> <i_epik_Tot_abs_Q>
1

> <r_epik_Metal_State_Penalty>
0.832701

> <b_epik_Metal_Only>
0

> <s_lp_Force_Field>
OPLS_2005

> <r_lp_Energy>
7.98032

> <b_lp_Chiralities_Consistent>
1

> <s_lp_Variant>
AV-unprocessed.smi:1111-4

> <Gold.Version>
5.8.1

> <Gold.Id.Protein>
6NUR|6NUR_protein|mol2

> <Gold.PLP.Fitness>
37.9583

> <Gold.PLP.PLP>
-22.1153

> <Gold.PLP.part.hbond>
-4.0000

> <Gold.PLP.part.metal>
0.0000

> <Gold.PLP.part.buried>
-1.7601

> <Gold.PLP.part.nonpolar>
-18.0887

> <Gold.PLP.part.repulsive>
0.2686

> <Gold.PLP.ligand.clash>
0.0000

> <Gold.PLP.ligand.torsion>
0.5606

> <Gold.PLP.Chemscore.Hbond>
4.6503

> <Gold.PLP.Chemscore.CHOScore>
0.9964

> <Gold.PLP.Chemscore.Metal>
0.0000

> <Gold.Chemscore.Hbonds>
donor molecule, donor type, donor heavy atom, donor atom, acceptor molecule, acceptor atom, score
      L1  H     3    21       P1  7948  1.00
      L1  H    10    33       P1  8028  2.00
      P1  H  6896  6907       L1    15  0.02
      P1  H 10752 10764       L1    16  1.00
      L1  C     8    24       P1 10175  1.00

> <Gold.PLP.Chemscore.Internal.Correction>
0.0242

> <Gold.Rescore>
     Score         DG    S(hbond)    S(metal)    S(lipo)     H(rot)  DE(clash)    DE(int)     intcor
     16.59     -17.47       3.75        0.00      34.34       1.78       0.26       0.62       ----

> <Gold.Chemscore.Fitness>
16.5906

> <Gold.Chemscore.DG>
-17.4730

> <Gold.Chemscore.ZeroCoef>
-5.4800

> <Gold.Chemscore.Hbond>
3.7511

> <Gold.Chemscore.Metal>
0.0000

> <Gold.Chemscore.Lipo>
34.3406

> <Gold.Chemscore.Internal_Hbond>
0.0000

> <Gold.Chemscore.DEClash>
0.2603

> <Gold.Chemscore.DEInternal>
0.6220

> <Gold.Chemscore.Rot>
1.7787

> <Gold.Chemscore.Internal.Correction>
   9.000000E+99

> <Gold.Chemscore.Hbonds>
donor molecule, donor type, donor heavy atom, donor atom, acceptor molecule, acceptor atom, score
      L1  H     3    21       P1  7948  1.00
      L1  H    10    33       P1  8028  0.98
      P1  H  6896  6907       L1    15  0.03
      P1  H 10752 10764       L1    16  0.25

> <Gold.Chemscore.Hbond.Weighted>
-12.5287

> <Gold.Chemscore.Metal.Weighted>
-0.0000

> <Gold.Chemscore.Lipo.Weighted>
-4.0178

> <Gold.Chemscore.Internal_Hbond.Weighted>
0.0000

> <Gold.Chemscore.DEClash.Weighted>
0.2603

> <Gold.Chemscore.DEInternal.Weighted>
0.6220

> <Gold.Chemscore.Rot.Weighted>
4.5536

> <Gold.Chemscore.Internal.Correction.Weighted>
   9.000000E+99

> <Gold.Protein.RotatedTorsions>
[ 6907 6896 6895 6894 ] final -131.37 input  -60.11 | X-H torsion
[ 7974 7965 7964 7962 ] final  -40.98 input  175.53 | X-H torsion
[ 8008 7997 7996 7995 ] final  -35.93 input   59.86 | X-H torsion
[ 10167 10162 10161 10158 ] final -137.00 input  -65.29 | X-H torsion
[ 10718 10713 10712 10709 ] final  -40.72 input   66.30 | X-H torsion
[ 10763 10752 10751 10750 ] final  -44.15 input  -60.55 | X-H torsion
[ 11005 11000 10999 10996 ] final  -58.95 input  -57.11 | X-H torsion

> <Gold.Protein.ActiveResidues>
 VAL166  LYS551  ARG553  GLY616  TRP617  ASP618  TYR619  PRO620  LYS621  CYS622 
 ASP623  PHE694  ASN695  SER759  ASP760  ASP761  ALA762  ILE779  LEU786  VAL792 
 PHE793  MET794  SER795  GLU796  ALA797  LYS798  CYS799  TRP800  GLU811  SER814 

> <Gold.Protein.RotatedAtoms>
  150.9502  133.6557  159.2773 H   0  0  0  0  0  0  0  0  0  0  0  0  # atno 6907 bound_to 6896
  151.3916  135.0955  159.9537 H   0  0  0  0  0  0  0  0  0  0  0  0  # atno 6908 bound_to 6896
  152.5107  133.9015  159.7498 H   0  0  0  0  0  0  0  0  0  0  0  0  # atno 6909 bound_to 6896
  146.0254  140.6798  142.9158 H   0  0  0  0  0  0  0  0  0  0  0  0  # atno 7974 bound_to 7965
  154.4084  140.1644  156.2291 H   0  0  0  0  0  0  0  0  0  0  0  0  # atno 8008 bound_to 7997
  155.9298  140.3415  155.6217 H   0  0  0  0  0  0  0  0  0  0  0  0  # atno 8009 bound_to 7997
  155.7120  140.0758  157.2357 H   0  0  0  0  0  0  0  0  0  0  0  0  # atno 8010 bound_to 7997
  139.8621  143.7063  152.2649 H   0  0  0  0  0  0  0  0  0  0  0  0  # atno 10167 bound_to 10162
  156.2783  130.4214  149.8364 H   0  0  0  0  0  0  0  0  0  0  0  0  # atno 10718 bound_to 10713
  154.0073  135.6686  153.4763 H   0  0  0  0  0  0  0  0  0  0  0  0  # atno 10763 bound_to 10752
  153.0636  135.5014  154.8145 H   0  0  0  0  0  0  0  0  0  0  0  0  # atno 10764 bound_to 10752
  154.7017  135.3080  154.9295 H   0  0  0  0  0  0  0  0  0  0  0  0  # atno 10765 bound_to 10752
  141.1228  133.6614  156.4998 H   0  0  0  0  0  0  0  0  0  0  0  0  # atno 11005 bound_to 11000
  144.7007  140.3640  143.7158 LP  0  0  0  0  0  0  0  0  0  0  0  0  # atno 17320 bound_to 7965
  145.7126  139.1689  143.2530 LP  0  0  0  0  0  0  0  0  0  0  0  0  # atno 17321 bound_to 7965
  139.7363  144.7570  151.0722 LP  0  0  0  0  0  0  0  0  0  0  0  0  # atno 17342 bound_to 10162
  140.7773  143.5026  150.9752 LP  0  0  0  0  0  0  0  0  0  0  0  0  # atno 17343 bound_to 10162
  156.5821  130.8470  151.3386 LP  0  0  0  0  0  0  0  0  0  0  0  0  # atno 17370 bound_to 10713
  157.7306  130.9688  150.1841 LP  0  0  0  0  0  0  0  0  0  0  0  0  # atno 17371 bound_to 10713
  140.4455  134.6977  157.5013 LP  0  0  0  0  0  0  0  0  0  0  0  0  # atno 17394 bound_to 11000
  140.0200  134.6561  155.9253 LP  0  0  0  0  0  0  0  0  0  0  0  0  # atno 17395 bound_to 11000

$$$$
