AV-unprocessed.smi:160|AV-procd|sdf|1357|dock4
  -GOLD-   2262019 63D 1   1.00000     0.00000
 Structure written by MMmdl.
 29 30  0  0  0  0  0  0  0  0  1 V2000
  147.4417  144.4268  159.4648 N   0  0  0  0  0  0  0  0  0  0  0  0
  146.8338  143.2561  159.6830 C   0  0  0  0  0  0  0  0  0  0  0  0
  146.5691  142.8520  160.8142 O   0  0  0  0  0  0  0  0  0  0  0  0
  146.4878  142.4497  158.4621 C   0  0  0  0  0  0  0  0  0  0  0  0
  145.8963  141.2231  158.5699 N   0  0  0  0  0  0  0  0  0  0  0  0
  145.7994  140.9244  157.2807 C   0  0  0  0  0  0  0  0  0  0  0  0
  146.2750  141.8683  156.4621 N   0  0  0  0  0  0  0  0  0  0  0  0
  146.3398  141.8937  154.9635 C   0  0  2  0  0  0  0  0  0  0  0  0
  145.9368  140.6445  154.4847 O   0  0  0  0  0  0  0  0  0  0  0  0
  147.0774  139.8947  154.0784 C   0  0  1  0  0  0  0  0  0  0  0  0
  146.6570  138.7944  153.0921 C   0  0  0  0  0  0  0  0  0  0  0  0
  146.0076  139.3665  151.9768 O   0  0  0  0  0  0  0  0  0  0  0  0
  147.9447  140.9871  153.4512 C   0  0  2  0  0  0  0  0  0  0  0  0
  149.2947  140.5947  153.2869 O   0  0  0  0  0  0  0  0  0  0  0  0
  147.7606  142.1625  154.4103 C   0  0  2  0  0  0  0  0  0  0  0  0
  148.7737  142.2228  155.4038 O   0  0  0  0  0  0  0  0  0  0  0  0
  146.7386  142.8884  157.2277 N   0  0  0  0  0  0  0  0  0  0  0  0
  145.6127  142.6534  154.6742 H   0  0  0  0  0  0  0  0  0  0  0  0
  147.5850  139.4723  154.9477 H   0  0  0  0  0  0  0  0  0  0  0  0
  147.5357  141.2575  152.4763 H   0  0  0  0  0  0  0  0  0  0  0  0
  147.7615  143.1084  153.8677 H   0  0  0  0  0  0  0  0  0  0  0  0
  147.6997  145.0137  160.2443 H   0  0  0  0  0  0  0  0  0  0  0  0
  147.6391  144.7158  158.5174 H   0  0  0  0  0  0  0  0  0  0  0  0
  145.3700  139.9992  156.9255 H   0  0  0  0  0  0  0  0  0  0  0  0
  147.5120  138.1986  152.7714 H   0  0  0  0  0  0  0  0  0  0  0  0
  145.9488  138.1154  153.5678 H   0  0  0  0  0  0  0  0  0  0  0  0
  145.3347  139.9523  152.2882 H   0  0  0  0  0  0  0  0  0  0  0  0
  149.3632  140.0811  152.4967 H   0  0  0  0  0  0  0  0  0  0  0  0
  148.9204  143.1279  155.6323 H   0  0  0  0  0  0  0  0  0  0  0  0
  1  2  1  0  0  0  0
  1 22  1  0  0  0  0
  1 23  1  0  0  0  0
  2  3  2  0  0  0  0
  2  4  1  0  0  0  0
  4 17  2  0  0  0  0
  4  5  1  0  0  0  0
  5  6  2  0  0  0  0
  6  7  1  0  0  0  0
  6 24  1  0  0  0  0
  7  8  1  0  0  0  0
  7 17  1  0  0  0  0
  8 18  1  0  0  0  0
  8 15  1  0  0  0  0
  8  9  1  0  0  0  0
  9 10  1  0  0  0  0
 10 19  1  0  0  0  0
 10 11  1  0  0  0  0
 10 13  1  0  0  0  0
 11 12  1  0  0  0  0
 11 25  1  0  0  0  0
 11 26  1  0  0  0  0
 12 27  1  0  0  0  0
 13 20  1  0  0  0  0
 13 14  1  0  0  0  0
 13 15  1  0  0  0  0
 14 28  1  0  0  0  0
 15 21  1  0  0  0  0
 15 16  1  0  0  0  0
 16 29  1  0  0  0  0
M  END
> <s_m_source_file>
AV-unprocessed.smi

> <i_m_source_file_index>
160

> <i_lp_mmshare_version>
43012

> <i_f3d_flags>
0

> <s_epik_input>
W05IMl1DKD1PKWMxbltjSF1uKG4xKVtDQEBIXTJPW0NASF0oW0NIMl1bT0hdKVtDQEBIXShbT0hdKVtDQEhdMltPSF0=

> <s_epik_cmdline>
J2VwaWtfcHl0aG9uJywgJy1waCcsICc3LjAnLCAnLXRuJywgJzgnLCAnLW1hJywgJzIwMCcsICctbWV0YWxfYmluZGluZycsICctaW1hZScsICc8aW5maWxlLm1hZT4nLCAnLW9tYWUnLCAnPG91dGZpbGUubWFlPic=

> <r_lp_tautomer_probability>
1

> <r_epik_Ionization_Penalty>
1.06932e-05

> <r_epik_Ionization_Penalty_Charging>
0

> <r_epik_Ionization_Penalty_Neutral>
1.06932e-05

> <r_epik_State_Penalty>
-0

> <r_epik_Charging_Adjusted_Penalty>
0

> <i_epik_Tot_Q>
0

> <i_epik_Tot_abs_Q>
0

> <r_epik_Metal_State_Penalty>
0.0142097

> <b_epik_Metal_Only>
0

> <s_epik_Chemistry_Notes>
This compound contains an acetal/aminal-like group ( X-CH(R)-Y where X, Y are N, S, or O) that may be acid/base labile, releasing an aldehyde.

> <s_lp_Force_Field>
OPLS_2005

> <r_lp_Energy>
46.1783

> <b_lp_Chiralities_Consistent>
1

> <s_lp_Variant>
AV-unprocessed.smi:160-15

> <Gold.Version>
5.8.1

> <Gold.Id.Protein>
6NUR|6NUR_protein|mol2

> <Gold.PLP.Fitness>
40.5760

> <Gold.PLP.PLP>
-22.7237

> <Gold.PLP.part.hbond>
-8.0661

> <Gold.PLP.part.metal>
0.0000

> <Gold.PLP.part.buried>
-3.9595

> <Gold.PLP.part.nonpolar>
-12.5551

> <Gold.PLP.part.repulsive>
0.5214

> <Gold.PLP.ligand.clash>
0.0000

> <Gold.PLP.ligand.torsion>
0.0887

> <Gold.PLP.Chemscore.Hbond>
6.0045

> <Gold.PLP.Chemscore.CHOScore>
0.0000

> <Gold.PLP.Chemscore.Metal>
0.0000

> <Gold.Chemscore.Hbonds>
donor molecule, donor type, donor heavy atom, donor atom, acceptor molecule, acceptor atom, score
      L1  H     1    23       P1  8029  1.00
      L1  H    12    27       P1 10175  1.00
      L1  H    14    28       P1  7957  0.55
      L1  H    16    29       P1  8028  1.00
      P1  H  6933  6944       L1     3  0.79
      P1  H  6934  6946       L1     3  0.93
      P1  H  7989  7998       L1    14  0.06
      P1  H  8011  8017       L1    14  0.36

> <Gold.PLP.Chemscore.Internal.Correction>
0.0161

> <Gold.Rescore>
     Score         DG    S(hbond)    S(metal)    S(lipo)     H(rot)  DE(clash)    DE(int)     intcor
      9.28     -10.87       3.92        0.00      22.90       4.06       0.09       1.50       ----

> <Gold.Chemscore.Fitness>
9.2786

> <Gold.Chemscore.DG>
-10.8731

> <Gold.Chemscore.ZeroCoef>
-5.4800

> <Gold.Chemscore.Hbond>
3.9245

> <Gold.Chemscore.Metal>
0.0000

> <Gold.Chemscore.Lipo>
22.8972

> <Gold.Chemscore.Internal_Hbond>
0.0000

> <Gold.Chemscore.DEClash>
0.0934

> <Gold.Chemscore.DEInternal>
1.5012

> <Gold.Chemscore.Rot>
4.0600

> <Gold.Chemscore.Internal.Correction>
   9.000000E+99

> <Gold.Chemscore.Hbonds>
donor molecule, donor type, donor heavy atom, donor atom, acceptor molecule, acceptor atom, score
      L1  H     1    23       P1  8029  0.95
      L1  H    12    27       P1 10175  0.88
      L1  H    14    28       P1  7957  0.52
      L1  H    16    29       P1  8028  0.98
      P1  H  6933  6944       L1     3  0.19
      P1  H  6934  6946       L1     3  0.43
      P1  H  7989  7998       L1    14  0.01

> <Gold.Chemscore.Hbond.Weighted>
-13.1078

> <Gold.Chemscore.Metal.Weighted>
-0.0000

> <Gold.Chemscore.Lipo.Weighted>
-2.6790

> <Gold.Chemscore.Internal_Hbond.Weighted>
0.0000

> <Gold.Chemscore.DEClash.Weighted>
0.0934

> <Gold.Chemscore.DEInternal.Weighted>
1.5012

> <Gold.Chemscore.Rot.Weighted>
10.3936

> <Gold.Chemscore.Internal.Correction.Weighted>
   9.000000E+99

> <Gold.Protein.RotatedTorsions>
[ 6907 6896 6895 6894 ] final  152.74 input  -60.11 | X-H torsion
[ 7974 7965 7964 7962 ] final -128.23 input  175.53 | X-H torsion
[ 8008 7997 7996 7995 ] final  172.64 input   59.86 | X-H torsion
[ 10167 10162 10161 10158 ] final   21.68 input  -65.29 | X-H torsion
[ 10718 10713 10712 10709 ] final   65.08 input   66.30 | X-H torsion
[ 10763 10752 10751 10750 ] final   12.99 input  -60.55 | X-H torsion
[ 11005 11000 10999 10996 ] final  117.74 input  -57.11 | X-H torsion

> <Gold.Protein.ActiveResidues>
 VAL166  LYS551  ARG553  GLY616  TRP617  ASP618  TYR619  PRO620  LYS621  CYS622 
 ASP623  PHE694  ASN695  SER759  ASP760  ASP761  ALA762  ILE779  LEU786  VAL792 
 PHE793  MET794  SER795  GLU796  ALA797  LYS798  CYS799  TRP800  GLU811  SER814 

> <Gold.Protein.RotatedAtoms>
  152.0825  133.4160  159.4507 H   0  0  0  0  0  0  0  0  0  0  0  0  # atno 6907 bound_to 6896
  150.6862  134.2965  159.4698 H   0  0  0  0  0  0  0  0  0  0  0  0  # atno 6908 bound_to 6896
  152.0808  134.9471  160.0624 H   0  0  0  0  0  0  0  0  0  0  0  0  # atno 6909 bound_to 6896
  144.9692  140.7527  143.4681 H   0  0  0  0  0  0  0  0  0  0  0  0  # atno 7974 bound_to 7965
  156.1154  140.1480  156.9280 H   0  0  0  0  0  0  0  0  0  0  0  0  # atno 8008 bound_to 7997
  154.4797  140.0883  156.7389 H   0  0  0  0  0  0  0  0  0  0  0  0  # atno 8009 bound_to 7997
  155.4523  140.3435  155.4304 H   0  0  0  0  0  0  0  0  0  0  0  0  # atno 8010 bound_to 7997
  140.5407  143.9681  150.6518 H   0  0  0  0  0  0  0  0  0  0  0  0  # atno 10167 bound_to 10162
  157.6082  130.9195  149.9930 H   0  0  0  0  0  0  0  0  0  0  0  0  # atno 10718 bound_to 10713
  153.1766  135.6821  153.8535 H   0  0  0  0  0  0  0  0  0  0  0  0  # atno 10763 bound_to 10752
  153.7881  135.3173  155.3376 H   0  0  0  0  0  0  0  0  0  0  0  0  # atno 10764 bound_to 10752
  154.8033  135.4764  154.0422 H   0  0  0  0  0  0  0  0  0  0  0  0  # atno 10765 bound_to 10752
  139.9085  134.9613  156.7397 H   0  0  0  0  0  0  0  0  0  0  0  0  # atno 11005 bound_to 11000
  145.2585  139.2002  143.4905 LP  0  0  0  0  0  0  0  0  0  0  0  0  # atno 17320 bound_to 7965
  146.3377  140.2510  142.8598 LP  0  0  0  0  0  0  0  0  0  0  0  0  # atno 17321 bound_to 7965
  140.3081  143.3216  152.0906 LP  0  0  0  0  0  0  0  0  0  0  0  0  # atno 17342 bound_to 10162
  139.4988  144.6654  151.6369 LP  0  0  0  0  0  0  0  0  0  0  0  0  # atno 17343 bound_to 10162
  156.1175  130.3647  149.9943 LP  0  0  0  0  0  0  0  0  0  0  0  0  # atno 17370 bound_to 10713
  156.8029  130.9297  151.3645 LP  0  0  0  0  0  0  0  0  0  0  0  0  # atno 17371 bound_to 10713
  140.6859  133.9433  155.7937 LP  0  0  0  0  0  0  0  0  0  0  0  0  # atno 17394 bound_to 11000
  141.0477  134.0531  157.3824 LP  0  0  0  0  0  0  0  0  0  0  0  0  # atno 17395 bound_to 11000

$$$$
