AV-unprocessed.smi:216|AV-procd|sdf|1658|dock3
  -GOLD-   2262020 53D 1   1.00000     0.00000
 Structure written by MMmdl.
 65 69  0  0  0  0  0  0  0  0  1 V2000
  153.9583  141.4039  160.7322 C   0  0  0  0  0  0  0  0  0  0  0  0
  152.6579  141.2797  159.9090 C   0  0  2  0  0  0  0  0  0  0  0  0
  152.9142  140.3883  158.6768 C   0  0  0  0  0  0  0  0  0  0  0  0
  151.6275  140.1394  157.8857 C   0  0  0  0  0  0  0  0  0  0  0  0
  150.9869  141.4038  157.5349 N   0  0  0  0  0  0  0  0  0  0  0  0
  150.0054  141.3583  156.5970 C   0  0  0  0  0  0  0  0  0  0  0  0
  150.3174  141.0959  155.2989 N   0  0  0  0  0  0  0  0  0  0  0  0
  149.3596  141.0458  154.3691 C   0  0  0  0  0  0  0  0  0  0  0  0
  148.0459  141.2225  154.5154 N   0  0  0  0  0  0  0  0  0  0  0  0
  147.7231  141.4848  155.8140 C   0  0  0  0  0  0  0  0  0  0  0  0
  148.6326  141.5749  156.9061 C   0  0  0  0  0  0  0  0  0  0  0  0
  147.9397  141.8817  158.0703 N   0  0  0  0  0  0  0  0  0  0  0  0
  146.6935  141.9558  157.6923 C   0  0  0  0  0  0  0  0  0  0  0  0
  146.4698  141.7155  156.3554 N   0  0  0  0  0  0  0  0  0  0  0  0
  145.1845  141.7378  155.6713 C   0  0  0  0  0  0  0  0  0  0  0  0
  144.2434  142.9099  156.0809 C   0  0  0  0  0  0  0  0  0  0  0  0
  143.0463  143.0330  155.0944 C   0  0  0  0  0  0  0  0  0  0  0  0
  142.4566  141.7804  154.8086 O   0  0  0  0  0  0  0  0  0  0  0  0
  143.7568  142.6590  157.5304 C   0  0  0  0  0  0  0  0  0  0  0  0
  143.0623  143.8835  158.1530 C   0  0  0  0  0  0  0  0  0  0  0  0
  143.9365  145.0037  158.1193 O   0  0  0  0  0  0  0  0  0  0  0  0
  144.2890  145.3865  156.7967 C   0  0  0  0  0  0  0  0  0  0  0  0
  145.0393  144.2394  156.0953 C   0  0  0  0  0  0  0  0  0  0  0  0
  150.6954  142.2744  158.6744 C   0  0  0  0  0  0  0  0  0  0  0  0
  151.9622  142.6288  159.5105 C   0  0  0  0  0  0  0  0  0  0  0  0
  151.5074  143.3874  160.7911 C   0  0  0  0  0  0  0  0  0  0  0  0
  150.9160  144.7812  160.5126 C   0  0  0  0  0  0  0  0  0  0  0  0
  151.9063  145.6531  159.7305 C   0  0  0  0  0  0  0  0  0  0  0  0
  152.3401  144.9619  158.4320 C   0  0  0  0  0  0  0  0  0  0  0  0
  152.9154  143.5588  158.7006 C   0  0  0  0  0  0  0  0  0  0  0  0
  154.7580  141.8827  160.1686 H   0  0  0  0  0  0  0  0  0  0  0  0
  154.3223  140.4160  161.0155 H   0  0  0  0  0  0  0  0  0  0  0  0
  153.8196  141.9559  161.6599 H   0  0  0  0  0  0  0  0  0  0  0  0
  151.9533  140.7368  160.5412 H   0  0  0  0  0  0  0  0  0  0  0  0
  153.6625  140.8445  158.0284 H   0  0  0  0  0  0  0  0  0  0  0  0
  153.3296  139.4293  158.9881 H   0  0  0  0  0  0  0  0  0  0  0  0
  151.8609  139.5722  156.9835 H   0  0  0  0  0  0  0  0  0  0  0  0
  150.9382  139.5368  158.4792 H   0  0  0  0  0  0  0  0  0  0  0  0
  149.6943  140.8326  153.3647 H   0  0  0  0  0  0  0  0  0  0  0  0
  145.8966  142.1863  158.3843 H   0  0  0  0  0  0  0  0  0  0  0  0
  145.3783  141.7677  154.5982 H   0  0  0  0  0  0  0  0  0  0  0  0
  144.6945  140.7799  155.8514 H   0  0  0  0  0  0  0  0  0  0  0  0
  142.2645  143.6793  155.4895 H   0  0  0  0  0  0  0  0  0  0  0  0
  143.3606  143.4883  154.1552 H   0  0  0  0  0  0  0  0  0  0  0  0
  142.9003  141.4023  154.0644 H   0  0  0  0  0  0  0  0  0  0  0  0
  143.0920  141.7956  157.5720 H   0  0  0  0  0  0  0  0  0  0  0  0
  144.6114  142.4043  158.1589 H   0  0  0  0  0  0  0  0  0  0  0  0
  142.1259  144.1173  157.6458 H   0  0  0  0  0  0  0  0  0  0  0  0
  142.8081  143.6746  159.1921 H   0  0  0  0  0  0  0  0  0  0  0  0
  143.4002  145.6854  156.2406 H   0  0  0  0  0  0  0  0  0  0  0  0
  144.9304  146.2664  156.8510 H   0  0  0  0  0  0  0  0  0  0  0  0
  145.9846  144.0892  156.6185 H   0  0  0  0  0  0  0  0  0  0  0  0
  145.2986  144.5444  155.0811 H   0  0  0  0  0  0  0  0  0  0  0  0
  150.1881  143.1774  158.3413 H   0  0  0  0  0  0  0  0  0  0  0  0
  149.9771  141.7526  159.3084 H   0  0  0  0  0  0  0  0  0  0  0  0
  150.7826  142.7897  161.3450 H   0  0  0  0  0  0  0  0  0  0  0  0
  152.3499  143.5317  161.4650 H   0  0  0  0  0  0  0  0  0  0  0  0
  149.9785  144.6969  159.9632 H   0  0  0  0  0  0  0  0  0  0  0  0
  150.6677  145.2686  161.4560 H   0  0  0  0  0  0  0  0  0  0  0  0
  151.4555  146.6199  159.5055 H   0  0  0  0  0  0  0  0  0  0  0  0
  152.7828  145.8546  160.3473 H   0  0  0  0  0  0  0  0  0  0  0  0
  151.4932  144.9015  157.7517 H   0  0  0  0  0  0  0  0  0  0  0  0
  153.0876  145.5722  157.9244 H   0  0  0  0  0  0  0  0  0  0  0  0
  153.8495  143.6951  159.2436 H   0  0  0  0  0  0  0  0  0  0  0  0
  153.1867  143.1008  157.7496 H   0  0  0  0  0  0  0  0  0  0  0  0
  1  2  1  0  0  0  0
  1 31  1  0  0  0  0
  1 32  1  0  0  0  0
  1 33  1  0  0  0  0
  2 25  1  0  0  0  0
  2  3  1  0  0  0  0
  2 34  1  0  0  0  0
  3  4  1  0  0  0  0
  3 35  1  0  0  0  0
  3 36  1  0  0  0  0
  4  5  1  0  0  0  0
  4 37  1  0  0  0  0
  4 38  1  0  0  0  0
  5  6  1  0  0  0  0
  5 24  1  0  0  0  0
  6 11  1  0  0  0  0
  6  7  2  0  0  0  0
  7  8  1  0  0  0  0
  8  9  2  0  0  0  0
  8 39  1  0  0  0  0
  9 10  1  0  0  0  0
 10 14  1  0  0  0  0
 10 11  2  0  0  0  0
 11 12  1  0  0  0  0
 12 13  2  0  0  0  0
 13 14  1  0  0  0  0
 13 40  1  0  0  0  0
 14 15  1  0  0  0  0
 15 16  1  0  0  0  0
 15 41  1  0  0  0  0
 15 42  1  0  0  0  0
 16 23  1  0  0  0  0
 16 17  1  0  0  0  0
 16 19  1  0  0  0  0
 17 18  1  0  0  0  0
 17 43  1  0  0  0  0
 17 44  1  0  0  0  0
 18 45  1  0  0  0  0
 19 20  1  0  0  0  0
 19 46  1  0  0  0  0
 19 47  1  0  0  0  0
 20 21  1  0  0  0  0
 20 48  1  0  0  0  0
 20 49  1  0  0  0  0
 21 22  1  0  0  0  0
 22 23  1  0  0  0  0
 22 50  1  0  0  0  0
 22 51  1  0  0  0  0
 23 52  1  0  0  0  0
 23 53  1  0  0  0  0
 24 25  1  0  0  0  0
 24 54  1  0  0  0  0
 24 55  1  0  0  0  0
 25 30  1  0  0  0  0
 25 26  1  0  0  0  0
 26 27  1  0  0  0  0
 26 56  1  0  0  0  0
 26 57  1  0  0  0  0
 27 28  1  0  0  0  0
 27 58  1  0  0  0  0
 27 59  1  0  0  0  0
 28 29  1  0  0  0  0
 28 60  1  0  0  0  0
 28 61  1  0  0  0  0
 29 30  1  0  0  0  0
 29 62  1  0  0  0  0
 29 63  1  0  0  0  0
 30 64  1  0  0  0  0
 30 65  1  0  0  0  0
M  END
> <s_m_source_file>
AV-unprocessed.smi

> <i_m_source_file_index>
216

> <i_lp_mmshare_version>
43012

> <i_f3d_flags>
0

> <s_epik_input>
W0NIMl0xW0NIMl1bQ0gyXVtDSDJdW0NIMl1DMTJbQ0BIXShbQ0gzXSlbQ0gyXVtDSDJdTihbQ0gyXTIpYyhuW2NIXW4zKWMoYzM0KW5bY0hdbjRbQ0gyXUM1KFtDSDJdW09IXSlbQ0gyXVtDSDJdT1tDSDJdW0NIMl01

> <s_epik_cmdline>
J2VwaWtfcHl0aG9uJywgJy1waCcsICc3LjAnLCAnLXRuJywgJzgnLCAnLW1hJywgJzIwMCcsICctbWV0YWxfYmluZGluZycsICctaW1hZScsICc8aW5maWxlLm1hZT4nLCAnLW9tYWUnLCAnPG91dGZpbGUubWFlPic=

> <r_lp_tautomer_probability>
1

> <r_epik_Ionization_Penalty>
0.00291566

> <r_epik_Ionization_Penalty_Charging>
0

> <r_epik_Ionization_Penalty_Neutral>
0.00291566

> <r_epik_State_Penalty>
0.00199166

> <r_epik_Charging_Adjusted_Penalty>
0.00199166

> <i_epik_Tot_Q>
0

> <i_epik_Tot_abs_Q>
0

> <r_epik_Metal_State_Penalty>
-0

> <b_epik_Metal_Only>
0

> <s_lp_Force_Field>
OPLS_2005

> <r_lp_Energy>
50.3698

> <b_lp_Chiralities_Consistent>
1

> <s_lp_Variant>
AV-unprocessed.smi:216-1

> <Gold.Version>
5.8.1

> <Gold.Id.Protein>
6NUR|6NUR_protein|mol2

> <Gold.PLP.Fitness>
51.6322

> <Gold.PLP.PLP>
-47.0651

> <Gold.PLP.part.hbond>
-2.7433

> <Gold.PLP.part.metal>
0.0000

> <Gold.PLP.part.buried>
-5.1058

> <Gold.PLP.part.nonpolar>
-40.4595

> <Gold.PLP.part.repulsive>
0.3707

> <Gold.PLP.ligand.clash>
0.0000

> <Gold.PLP.ligand.torsion>
0.9456

> <Gold.PLP.Chemscore.Hbond>
1.0403

> <Gold.PLP.Chemscore.CHOScore>
1.0000

> <Gold.PLP.Chemscore.Metal>
0.0000

> <Gold.Chemscore.Hbonds>
donor molecule, donor type, donor heavy atom, donor atom, acceptor molecule, acceptor atom, score
      L1  H    18    45       P1 10175  0.60
      P1  H  7989  7998       L1     7  0.03
      L1  C     8    39       P1  7957  1.00

> <Gold.PLP.Chemscore.Internal.Correction>
0.3372

> <Gold.Rescore>
     Score         DG    S(hbond)    S(metal)    S(lipo)     H(rot)  DE(clash)    DE(int)     intcor
     13.67     -17.81       0.80        0.00     130.64       2.20       1.04       3.10       ----

> <Gold.Chemscore.Fitness>
13.6697

> <Gold.Chemscore.DG>
-17.8097

> <Gold.Chemscore.ZeroCoef>
-5.4800

> <Gold.Chemscore.Hbond>
0.8029

> <Gold.Chemscore.Metal>
0.0000

> <Gold.Chemscore.Lipo>
130.6408

> <Gold.Chemscore.Internal_Hbond>
0.0000

> <Gold.Chemscore.DEClash>
1.0395

> <Gold.Chemscore.DEInternal>
3.1005

> <Gold.Chemscore.Rot>
2.2019

> <Gold.Chemscore.Internal.Correction>
   9.000000E+99

> <Gold.Chemscore.Hbonds>
donor molecule, donor type, donor heavy atom, donor atom, acceptor molecule, acceptor atom, score
      L1  H    18    45       P1 10175  0.04

> <Gold.Chemscore.Hbond.Weighted>
-2.6817

> <Gold.Chemscore.Metal.Weighted>
-0.0000

> <Gold.Chemscore.Lipo.Weighted>
-15.2850

> <Gold.Chemscore.Internal_Hbond.Weighted>
0.0000

> <Gold.Chemscore.DEClash.Weighted>
1.0395

> <Gold.Chemscore.DEInternal.Weighted>
3.1005

> <Gold.Chemscore.Rot.Weighted>
5.6370

> <Gold.Chemscore.Internal.Correction.Weighted>
   9.000000E+99

> <Gold.Protein.RotatedTorsions>
[ 6907 6896 6895 6894 ] final   19.87 input  -60.11 | X-H torsion
[ 7974 7965 7964 7962 ] final  -79.68 input  175.53 | X-H torsion
[ 8008 7997 7996 7995 ] final   26.85 input   59.86 | X-H torsion
[ 10167 10162 10161 10158 ] final  113.05 input  -65.29 | X-H torsion
[ 10718 10713 10712 10709 ] final -149.72 input   66.30 | X-H torsion
[ 10763 10752 10751 10750 ] final  157.90 input  -60.55 | X-H torsion
[ 11005 11000 10999 10996 ] final  -64.19 input  -57.11 | X-H torsion

> <Gold.Protein.ActiveResidues>
 VAL166  LYS551  ARG553  GLY616  TRP617  ASP618  TYR619  PRO620  LYS621  CYS622 
 ASP623  PHE694  ASN695  SER759  ASP760  ASP761  ALA762  ILE779  LEU786  VAL792 
 PHE793  MET794  SER795  GLU796  ALA797  LYS798  CYS799  TRP800  GLU811  SER814 

> <Gold.Protein.RotatedAtoms>
  151.8875  135.0429  160.0494 H   0  0  0  0  0  0  0  0  0  0  0  0  # atno 6907 bound_to 6896
  152.2463  133.5172  159.5307 H   0  0  0  0  0  0  0  0  0  0  0  0  # atno 6908 bound_to 6896
  150.7069  134.0937  159.3983 H   0  0  0  0  0  0  0  0  0  0  0  0  # atno 6909 bound_to 6896
  145.5699  140.9468  143.1401 H   0  0  0  0  0  0  0  0  0  0  0  0  # atno 7974 bound_to 7965
  155.0338  140.3161  155.4749 H   0  0  0  0  0  0  0  0  0  0  0  0  # atno 8008 bound_to 7997
  156.2869  140.2175  156.5402 H   0  0  0  0  0  0  0  0  0  0  0  0  # atno 8009 bound_to 7997
  154.7348  140.0478  157.0746 H   0  0  0  0  0  0  0  0  0  0  0  0  # atno 8010 bound_to 7997
  139.6490  144.7127  151.2086 H   0  0  0  0  0  0  0  0  0  0  0  0  # atno 10167 bound_to 10162
  156.4367  130.8102  151.2331 H   0  0  0  0  0  0  0  0  0  0  0  0  # atno 10718 bound_to 10713
  154.2076  135.2787  155.2969 H   0  0  0  0  0  0  0  0  0  0  0  0  # atno 10763 bound_to 10752
  154.5804  135.5591  153.7183 H   0  0  0  0  0  0  0  0  0  0  0  0  # atno 10764 bound_to 10752
  153.0072  135.6343  154.2215 H   0  0  0  0  0  0  0  0  0  0  0  0  # atno 10765 bound_to 10752
  141.1417  133.6662  156.5795 H   0  0  0  0  0  0  0  0  0  0  0  0  # atno 11005 bound_to 11000
  144.7442  139.7364  143.7298 LP  0  0  0  0  0  0  0  0  0  0  0  0  # atno 17320 bound_to 7965
  146.1791  139.4975  142.9878 LP  0  0  0  0  0  0  0  0  0  0  0  0  # atno 17321 bound_to 7965
  140.7528  143.6183  150.8538 LP  0  0  0  0  0  0  0  0  0  0  0  0  # atno 17342 bound_to 10162
  139.9829  143.5932  152.2937 LP  0  0  0  0  0  0  0  0  0  0  0  0  # atno 17343 bound_to 10162
  157.7507  131.0181  150.3612 LP  0  0  0  0  0  0  0  0  0  0  0  0  # atno 17370 bound_to 10713
  156.3961  130.3907  149.6994 LP  0  0  0  0  0  0  0  0  0  0  0  0  # atno 17371 bound_to 10713
  140.3849  134.7491  157.4684 LP  0  0  0  0  0  0  0  0  0  0  0  0  # atno 17394 bound_to 11000
  140.0610  134.5996  155.8749 LP  0  0  0  0  0  0  0  0  0  0  0  0  # atno 17395 bound_to 11000

$$$$
