AV-unprocessed.smi:3163|AV-procd|sdf|12075|dock1
  -GOLD-   2272017503D 1   1.00000     0.00000
 Structure written by MMmdl.
 37 38  0  0  0  0  0  0  0  0  3 V2000
  146.0705  131.9344  149.5896 C   0  0  0  0  0  0  0  0  0  0  0  0
  145.5153  133.2675  149.9028 N   0  3  1  0  0  0  0  0  0  0  0  0
  144.0523  133.2857  150.1362 C   0  0  0  0  0  0  0  0  0  0  0  0
  143.8226  134.0840  151.4251 C   0  0  0  0  0  0  0  0  0  0  0  0
  145.1062  134.8970  151.6024 C   0  0  1  0  0  0  0  0  0  0  0  0
  145.3930  135.3692  153.0409 C   0  0  0  0  0  0  0  0  0  0  0  0
  146.4925  136.3289  153.0952 N   0  0  0  0  0  0  0  0  0  0  0  0
  146.3941  137.6007  153.5096 C   0  0  0  0  0  0  0  0  0  0  0  0
  145.3377  138.1147  153.8760 O   0  0  0  0  0  0  0  0  0  0  0  0
  147.5818  138.2279  153.4470 N   0  0  0  0  0  0  0  0  0  0  0  0
  147.8981  139.5660  153.8101 C   0  0  0  0  0  0  0  0  0  0  0  0
  149.1610  139.8027  154.3976 C   0  0  0  0  0  0  0  0  0  0  0  0
  149.5129  141.1107  154.7889 C   0  0  0  0  0  0  0  0  0  0  0  0
  148.6394  142.1244  154.6089 N   0  3  0  0  0  0  0  0  0  0  0  0
  147.4163  141.9456  154.0652 C   0  0  0  0  0  0  0  0  0  0  0  0
  147.0085  140.6599  153.6548 C   0  0  0  0  0  0  0  0  0  0  0  0
  146.1628  133.9408  151.0477 C   0  0  0  0  0  0  0  0  0  0  0  0
  145.9230  131.2421  150.4195 H   0  0  0  0  0  0  0  0  0  0  0  0
  147.1395  132.0055  149.3865 H   0  0  0  0  0  0  0  0  0  0  0  0
  145.5862  131.5185  148.7056 H   0  0  0  0  0  0  0  0  0  0  0  0
  143.5746  133.7756  149.2871 H   0  0  0  0  0  0  0  0  0  0  0  0
  143.6297  132.2830  150.2190 H   0  0  0  0  0  0  0  0  0  0  0  0
  142.9293  134.7077  151.3778 H   0  0  0  0  0  0  0  0  0  0  0  0
  143.7020  133.3931  152.2609 H   0  0  0  0  0  0  0  0  0  0  0  0
  145.0563  135.7671  150.9452 H   0  0  0  0  0  0  0  0  0  0  0  0
  144.4923  135.7840  153.4973 H   0  0  0  0  0  0  0  0  0  0  0  0
  145.6740  134.5125  153.6541 H   0  0  0  0  0  0  0  0  0  0  0  0
  147.3999  135.9923  152.8073 H   0  0  0  0  0  0  0  0  0  0  0  0
  148.3411  137.6979  153.0446 H   0  0  0  0  0  0  0  0  0  0  0  0
  149.8602  138.9920  154.5441 H   0  0  0  0  0  0  0  0  0  0  0  0
  150.4589  141.3741  155.2393 H   0  0  0  0  0  0  0  0  0  0  0  0
  146.8009  142.8294  153.9806 H   0  0  0  0  0  0  0  0  0  0  0  0
  146.0188  140.5387  153.2421 H   0  0  0  0  0  0  0  0  0  0  0  0
  146.4291  133.2019  151.8060 H   0  0  0  0  0  0  0  0  0  0  0  0
  147.0758  134.4541  150.7442 H   0  0  0  0  0  0  0  0  0  0  0  0
  145.6762  133.8555  149.0974 H   0  0  0  0  0  0  0  0  0  0  0  0
  148.9129  143.0634  154.9002 H   0  0  0  0  0  0  0  0  0  0  0  0
  1  2  1  0  0  0  0
  1 18  1  0  0  0  0
  1 19  1  0  0  0  0
  1 20  1  0  0  0  0
  2 17  1  0  0  0  0
  2  3  1  0  0  0  0
  2 36  1  0  0  0  0
  3  4  1  0  0  0  0
  3 21  1  0  0  0  0
  3 22  1  0  0  0  0
  4  5  1  0  0  0  0
  4 23  1  0  0  0  0
  4 24  1  0  0  0  0
  5  6  1  0  0  0  0
  5 17  1  0  0  0  0
  5 25  1  0  0  0  0
  6  7  1  0  0  0  0
  6 26  1  0  0  0  0
  6 27  1  0  0  0  0
  7  8  1  0  0  0  0
  7 28  1  0  0  0  0
  8  9  2  0  0  0  0
  8 10  1  0  0  0  0
 10 11  1  0  0  0  0
 10 29  1  0  0  0  0
 11 16  1  0  0  0  0
 11 12  2  0  0  0  0
 12 13  1  0  0  0  0
 12 30  1  0  0  0  0
 13 14  2  0  0  0  0
 13 31  1  0  0  0  0
 14 15  1  0  0  0  0
 14 37  1  0  0  0  0
 15 16  2  0  0  0  0
 15 32  1  0  0  0  0
 16 33  1  0  0  0  0
 17 34  1  0  0  0  0
 17 35  1  0  0  0  0
M  CHG  1   2   1
M  CHG  1  14   1
M  END
> <s_m_source_file>
AV-unprocessed.smi

> <i_m_source_file_index>
3163

> <i_lp_mmshare_version>
43012

> <i_f3d_flags>
0

> <s_epik_input>
W0NIM11OMVtDSDJdW0NIMl1bQ0BIXShbQ0gyXTEpW0NIMl1bTkhdQyg9TylbTkhdYzJbY0hdW2NIXW5bY0hdW2NIXTI=

> <s_epik_cmdline>
J2VwaWtfcHl0aG9uJywgJy1waCcsICc3LjAnLCAnLXRuJywgJzgnLCAnLW1hJywgJzIwMCcsICctbWV0YWxfYmluZGluZycsICctaW1hZScsICc8aW5maWxlLm1hZT4nLCAnLW9tYWUnLCAnPG91dGZpbGUubWFlPic=

> <r_epik_Ionization_Penalty>
1.09034

> <r_epik_Ionization_Penalty_Charging>
1.09032

> <r_epik_Ionization_Penalty_Neutral>
1.86664e-05

> <r_epik_State_Penalty>
1.14521

> <r_epik_Charging_Adjusted_Penalty>
2.23553

> <i_epik_Tot_Q>
2

> <i_epik_Tot_abs_Q>
2

> <r_epik_Metal_State_Penalty>
1.23399

> <b_epik_Metal_Only>
0

> <s_lp_Force_Field>
OPLS_2005

> <r_lp_Energy>
38.8173

> <b_lp_Chiralities_Consistent>
1

> <s_lp_Variant>
AV-unprocessed.smi:3163-5

> <Gold.Version>
5.8.1

> <Gold.Id.Protein>
6NUR|6NUR_protein|mol2

> <Gold.PLP.Fitness>
45.7616

> <Gold.PLP.PLP>
-31.4209

> <Gold.PLP.part.hbond>
-4.0000

> <Gold.PLP.part.metal>
0.0000

> <Gold.PLP.part.buried>
-3.5376

> <Gold.PLP.part.nonpolar>
-24.4644

> <Gold.PLP.part.repulsive>
0.5278

> <Gold.PLP.ligand.clash>
0.0000

> <Gold.PLP.ligand.torsion>
0.3212

> <Gold.PLP.Chemscore.Hbond>
4.9920

> <Gold.PLP.Chemscore.CHOScore>
0.0000

> <Gold.PLP.Chemscore.Metal>
0.0000

> <Gold.Chemscore.Hbonds>
donor molecule, donor type, donor heavy atom, donor atom, acceptor molecule, acceptor atom, score
      L1  H     2    36       P1  7921  1.00
      L1  H     7    28       P1  7948  1.00
      L1  H    10    29       P1  7948  0.99
      L1  H    14    37       P1  8028  2.00

> <Gold.PLP.Chemscore.Internal.Correction>
0.0071

> <Gold.Rescore>
     Score         DG    S(hbond)    S(metal)    S(lipo)     H(rot)  DE(clash)    DE(int)     intcor
     23.06     -23.50       3.76        0.00      74.47       1.27       0.06       0.38       ----

> <Gold.Chemscore.Fitness>
23.0601

> <Gold.Chemscore.DG>
-23.4963

> <Gold.Chemscore.ZeroCoef>
-5.4800

> <Gold.Chemscore.Hbond>
3.7606

> <Gold.Chemscore.Metal>
0.0000

> <Gold.Chemscore.Lipo>
74.4650

> <Gold.Chemscore.Internal_Hbond>
0.0000

> <Gold.Chemscore.DEClash>
0.0573

> <Gold.Chemscore.DEInternal>
0.3789

> <Gold.Chemscore.Rot>
1.2721

> <Gold.Chemscore.Internal.Correction>
   9.000000E+99

> <Gold.Chemscore.Hbonds>
donor molecule, donor type, donor heavy atom, donor atom, acceptor molecule, acceptor atom, score
      L1  H     2    36       P1  7921  0.40
      L1  H     7    28       P1  7948  0.94
      L1  H    10    29       P1  7948  0.93
      L1  H    14    37       P1  8028  1.00

> <Gold.Chemscore.Hbond.Weighted>
-12.5604

> <Gold.Chemscore.Metal.Weighted>
-0.0000

> <Gold.Chemscore.Lipo.Weighted>
-8.7124

> <Gold.Chemscore.Internal_Hbond.Weighted>
0.0000

> <Gold.Chemscore.DEClash.Weighted>
0.0573

> <Gold.Chemscore.DEInternal.Weighted>
0.3789

> <Gold.Chemscore.Rot.Weighted>
3.2565

> <Gold.Chemscore.Internal.Correction.Weighted>
   9.000000E+99

> <Gold.Protein.RotatedTorsions>
[ 6907 6896 6895 6894 ] final   67.73 input  -60.11 | X-H torsion
[ 7974 7965 7964 7962 ] final   27.51 input  175.53 | X-H torsion
[ 8008 7997 7996 7995 ] final  165.87 input   59.86 | X-H torsion
[ 10167 10162 10161 10158 ] final  -45.49 input  -65.29 | X-H torsion
[ 10718 10713 10712 10709 ] final -110.59 input   66.30 | X-H torsion
[ 10763 10752 10751 10750 ] final  169.96 input  -60.55 | X-H torsion
[ 11005 11000 10999 10996 ] final   75.20 input  -57.11 | X-H torsion

> <Gold.Protein.ActiveResidues>
 VAL166  LYS551  ARG553  GLY616  TRP617  ASP618  TYR619  PRO620  LYS621  CYS622 
 ASP623  PHE694  ASN695  SER759  ASP760  ASP761  ALA762  ILE779  LEU786  VAL792 
 PHE793  MET794  SER795  GLU796  ALA797  LYS798  CYS799  TRP800  GLU811  SER814 

> <Gold.Protein.RotatedAtoms>
  152.4572  134.5265  159.9798 H   0  0  0  0  0  0  0  0  0  0  0  0  # atno 6907 bound_to 6896
  151.5323  133.3441  159.2928 H   0  0  0  0  0  0  0  0  0  0  0  0  # atno 6908 bound_to 6896
  150.8520  134.7879  159.7079 H   0  0  0  0  0  0  0  0  0  0  0  0  # atno 6909 bound_to 6896
  146.1780  139.7181  142.8921 H   0  0  0  0  0  0  0  0  0  0  0  0  # atno 7974 bound_to 7965
  156.1765  140.1658  156.8353 H   0  0  0  0  0  0  0  0  0  0  0  0  # atno 8008 bound_to 7997
  154.5313  140.0756  156.8383 H   0  0  0  0  0  0  0  0  0  0  0  0  # atno 8009 bound_to 7997
  155.3402  140.3384  155.4241 H   0  0  0  0  0  0  0  0  0  0  0  0  # atno 8010 bound_to 7997
  140.6856  143.2877  151.3647 H   0  0  0  0  0  0  0  0  0  0  0  0  # atno 10167 bound_to 10162
  156.0599  130.5823  150.8258 H   0  0  0  0  0  0  0  0  0  0  0  0  # atno 10718 bound_to 10713
  154.3906  135.2754  155.2157 H   0  0  0  0  0  0  0  0  0  0  0  0  # atno 10763 bound_to 10752
  154.4224  135.5997  153.6022 H   0  0  0  0  0  0  0  0  0  0  0  0  # atno 10764 bound_to 10752
  152.9832  135.5976  154.4161 H   0  0  0  0  0  0  0  0  0  0  0  0  # atno 10765 bound_to 10752
  139.9355  134.7497  156.1241 H   0  0  0  0  0  0  0  0  0  0  0  0  # atno 11005 bound_to 11000
  145.4157  141.0401  143.2992 LP  0  0  0  0  0  0  0  0  0  0  0  0  # atno 17320 bound_to 7965
  144.8268  139.5697  143.6962 LP  0  0  0  0  0  0  0  0  0  0  0  0  # atno 17321 bound_to 7965
  139.6211  144.0905  152.2392 LP  0  0  0  0  0  0  0  0  0  0  0  0  # atno 17342 bound_to 10162
  140.0349  144.6052  150.7457 LP  0  0  0  0  0  0  0  0  0  0  0  0  # atno 17343 bound_to 10162
  157.5600  131.0945  150.9573 LP  0  0  0  0  0  0  0  0  0  0  0  0  # atno 17370 bound_to 10713
  156.9813  130.5528  149.5296 LP  0  0  0  0  0  0  0  0  0  0  0  0  # atno 17371 bound_to 10713
  141.0966  133.6693  156.2659 LP  0  0  0  0  0  0  0  0  0  0  0  0  # atno 17394 bound_to 11000
  140.6088  134.5480  157.5530 LP  0  0  0  0  0  0  0  0  0  0  0  0  # atno 17395 bound_to 11000

$$$$
