AV-unprocessed.smi:160|AV-procd|sdf|1368|dock3
  -GOLD-   2262019 83D 1   1.00000     0.00000
 Structure written by MMmdl.
 28 29  0  0  0  0  0  0  0  0  2 V2000
  141.1175  139.1858  153.2302 N   0  5  0  0  0  0  0  0  0  0  0  0
  140.7767  137.9827  153.7420 C   0  0  0  0  0  0  0  0  0  0  0  0
  139.7470  137.7217  154.3632 O   0  0  0  0  0  0  0  0  0  0  0  0
  141.7907  136.8895  153.5004 C   0  0  0  0  0  0  0  0  0  0  0  0
  141.7045  135.6988  154.1675 N   0  0  0  0  0  0  0  0  0  0  0  0
  142.7649  135.0899  153.6539 C   0  0  0  0  0  0  0  0  0  0  0  0
  143.4297  135.8165  152.7482 N   0  0  0  0  0  0  0  0  0  0  0  0
  144.6830  135.5344  151.9765 C   0  0  1  0  0  0  0  0  0  0  0  0
  145.1976  134.3083  152.3929 O   0  0  0  0  0  0  0  0  0  0  0  0
  144.6220  133.2710  151.6102 C   0  0  2  0  0  0  0  0  0  0  0  0
  145.4958  132.0096  151.6907 C   0  0  0  0  0  0  0  0  0  0  0  0
  146.8423  132.3298  151.4124 O   0  0  0  0  0  0  0  0  0  0  0  0
  144.5842  133.8991  150.2117 C   0  0  1  0  0  0  0  0  0  0  0  0
  143.5043  133.3684  149.4702 O   0  0  0  0  0  0  0  0  0  0  0  0
  144.3744  135.3917  150.4742 C   0  0  2  0  0  0  0  0  0  0  0  0
  145.2614  136.1634  149.6901 O   0  0  0  0  0  0  0  0  0  0  0  0
  142.8125  137.0189  152.6482 N   0  0  0  0  0  0  0  0  0  0  0  0
  145.3464  136.3615  152.2334 H   0  0  0  0  0  0  0  0  0  0  0  0
  143.6067  133.0674  151.9569 H   0  0  0  0  0  0  0  0  0  0  0  0
  145.5260  133.7219  149.6890 H   0  0  0  0  0  0  0  0  0  0  0  0
  143.3504  135.7050  150.2637 H   0  0  0  0  0  0  0  0  0  0  0  0
  142.1139  139.3952  153.0974 H   0  0  0  0  0  0  0  0  0  0  0  0
  143.0626  134.0941  153.9476 H   0  0  0  0  0  0  0  0  0  0  0  0
  145.4612  131.5948  152.6987 H   0  0  0  0  0  0  0  0  0  0  0  0
  145.1396  131.2364  151.0095 H   0  0  0  0  0  0  0  0  0  0  0  0
  147.2593  131.5706  151.0345 H   0  0  0  0  0  0  0  0  0  0  0  0
  142.7820  133.9759  149.5198 H   0  0  0  0  0  0  0  0  0  0  0  0
  145.6382  135.6024  149.0291 H   0  0  0  0  0  0  0  0  0  0  0  0
  1  2  1  0  0  0  0
  1 22  1  0  0  0  0
  2  3  2  0  0  0  0
  2  4  1  0  0  0  0
  4 17  2  0  0  0  0
  4  5  1  0  0  0  0
  5  6  2  0  0  0  0
  6  7  1  0  0  0  0
  6 23  1  0  0  0  0
  7  8  1  0  0  0  0
  7 17  1  0  0  0  0
  8 18  1  0  0  0  0
  8 15  1  0  0  0  0
  8  9  1  0  0  0  0
  9 10  1  0  0  0  0
 10 19  1  0  0  0  0
 10 11  1  0  0  0  0
 10 13  1  0  0  0  0
 11 12  1  0  0  0  0
 11 24  1  0  0  0  0
 11 25  1  0  0  0  0
 12 26  1  0  0  0  0
 13 20  1  0  0  0  0
 13 14  1  0  0  0  0
 13 15  1  0  0  0  0
 14 27  1  0  0  0  0
 15 21  1  0  0  0  0
 15 16  1  0  0  0  0
 16 28  1  0  0  0  0
M  CHG  1   1  -1
M  END
> <s_m_source_file>
AV-unprocessed.smi

> <i_m_source_file_index>
160

> <i_lp_mmshare_version>
43012

> <i_f3d_flags>
0

> <s_epik_input>
W05IMl1DKD1PKWMxbltjSF1uKG4xKVtDQEBIXTJPW0NASF0oW0NIMl1bT0hdKVtDQEBIXShbT0hdKVtDQEhdMltPSF0=

> <s_epik_cmdline>
J2VwaWtfcHl0aG9uJywgJy1waCcsICc3LjAnLCAnLXRuJywgJzgnLCAnLW1hJywgJzIwMCcsICctbWV0YWxfYmluZGluZycsICctaW1hZScsICc8aW5maWxlLm1hZT4nLCAnLW9tYWUnLCAnPG91dGZpbGUubWFlPic=

> <r_lp_tautomer_probability>
1

> <r_epik_Ionization_Penalty>
6.6993

> <r_epik_Ionization_Penalty_Charging>
6.6993

> <r_epik_Ionization_Penalty_Neutral>
6.01698e-06

> <r_epik_State_Penalty>
6.69929

> <r_epik_Charging_Adjusted_Penalty>
13.3986

> <i_epik_Tot_Q>
-1

> <i_epik_Tot_abs_Q>
1

> <r_epik_Metal_State_Penalty>
2.62798

> <b_epik_Metal_Only>
1

> <s_epik_Chemistry_Notes>
This compound contains an acetal/aminal-like group ( X-CH(R)-Y where X, Y are N, S, or O) that may be acid/base labile, releasing an aldehyde.

> <s_lp_Force_Field>
OPLS_2005

> <r_lp_Energy>
37.5232

> <b_lp_Chiralities_Consistent>
1

> <s_lp_Variant>
AV-unprocessed.smi:160-26

> <Gold.Version>
5.8.1

> <Gold.Id.Protein>
6NUR|6NUR_protein|mol2

> <Gold.PLP.Fitness>
42.9085

> <Gold.PLP.PLP>
-28.5826

> <Gold.PLP.part.hbond>
-6.2492

> <Gold.PLP.part.metal>
0.0000

> <Gold.PLP.part.buried>
-6.6149

> <Gold.PLP.part.nonpolar>
-15.5956

> <Gold.PLP.part.repulsive>
0.4822

> <Gold.PLP.ligand.clash>
0.0000

> <Gold.PLP.ligand.torsion>
0.2018

> <Gold.PLP.Chemscore.Hbond>
3.8960

> <Gold.PLP.Chemscore.CHOScore>
1.0000

> <Gold.PLP.Chemscore.Metal>
0.0000

> <Gold.Chemscore.Hbonds>
donor molecule, donor type, donor heavy atom, donor atom, acceptor molecule, acceptor atom, score
      L1  H     1    22       P1 10175  1.00
      L1  H    12    26       P1 10747  0.90
      L1  H    14    27       P1 10186  1.00
      L1  H    16    28       P1  7921  1.00
      L1  C     6    23       P1 10957  1.00

> <Gold.PLP.Chemscore.Internal.Correction>
0.0415

> <Gold.Rescore>
     Score         DG    S(hbond)    S(metal)    S(lipo)     H(rot)  DE(clash)    DE(int)     intcor
     10.74     -11.06       3.83        0.00      26.79       4.04       0.06       0.26       ----

> <Gold.Chemscore.Fitness>
10.7417

> <Gold.Chemscore.DG>
-11.0636

> <Gold.Chemscore.ZeroCoef>
-5.4800

> <Gold.Chemscore.Hbond>
3.8302

> <Gold.Chemscore.Metal>
0.0000

> <Gold.Chemscore.Lipo>
26.7852

> <Gold.Chemscore.Internal_Hbond>
0.0000

> <Gold.Chemscore.DEClash>
0.0588

> <Gold.Chemscore.DEInternal>
0.2631

> <Gold.Chemscore.Rot>
4.0403

> <Gold.Chemscore.Internal.Correction>
   9.000000E+99

> <Gold.Chemscore.Hbonds>
donor molecule, donor type, donor heavy atom, donor atom, acceptor molecule, acceptor atom, score
      L1  H     1    22       P1 10175  0.90
      L1  H    12    26       P1 10747  0.84
      L1  H    14    27       P1 10186  0.98
      L1  H    16    28       P1  7921  1.00

> <Gold.Chemscore.Hbond.Weighted>
-12.7928

> <Gold.Chemscore.Metal.Weighted>
-0.0000

> <Gold.Chemscore.Lipo.Weighted>
-3.1339

> <Gold.Chemscore.Internal_Hbond.Weighted>
0.0000

> <Gold.Chemscore.DEClash.Weighted>
0.0588

> <Gold.Chemscore.DEInternal.Weighted>
0.2631

> <Gold.Chemscore.Rot.Weighted>
10.3431

> <Gold.Chemscore.Internal.Correction.Weighted>
   9.000000E+99

> <Gold.Protein.RotatedTorsions>
[ 6907 6896 6895 6894 ] final  122.45 input  -60.11 | X-H torsion
[ 7974 7965 7964 7962 ] final -142.68 input  175.53 | X-H torsion
[ 8008 7997 7996 7995 ] final  131.89 input   59.86 | X-H torsion
[ 10167 10162 10161 10158 ] final   10.52 input  -65.29 | X-H torsion
[ 10718 10713 10712 10709 ] final   87.61 input   66.30 | X-H torsion
[ 10763 10752 10751 10750 ] final  -13.29 input  -60.55 | X-H torsion
[ 11005 11000 10999 10996 ] final  -76.78 input  -57.11 | X-H torsion

> <Gold.Protein.ActiveResidues>
 VAL166  LYS551  ARG553  GLY616  TRP617  ASP618  TYR619  PRO620  LYS621  CYS622 
 ASP623  PHE694  ASN695  SER759  ASP760  ASP761  ALA762  ILE779  LEU786  VAL792 
 PHE793  MET794  SER795  GLU796  ALA797  LYS798  CYS799  TRP800  GLU811  SER814 

> <Gold.Protein.RotatedAtoms>
  152.4242  133.7167  159.6509 H   0  0  0  0  0  0  0  0  0  0  0  0  # atno 6907 bound_to 6896
  150.8118  133.8397  159.3185 H   0  0  0  0  0  0  0  0  0  0  0  0  # atno 6908 bound_to 6896
  151.6105  135.1042  160.0131 H   0  0  0  0  0  0  0  0  0  0  0  0  # atno 6909 bound_to 6896
  144.8425  140.5928  143.5443 H   0  0  0  0  0  0  0  0  0  0  0  0  # atno 7974 bound_to 7965
  156.2976  140.2560  156.3000 H   0  0  0  0  0  0  0  0  0  0  0  0  # atno 8008 bound_to 7997
  154.9427  140.0396  157.2123 H   0  0  0  0  0  0  0  0  0  0  0  0  # atno 8009 bound_to 7997
  154.8111  140.2844  155.5857 H   0  0  0  0  0  0  0  0  0  0  0  0  # atno 8010 bound_to 7997
  140.6189  143.8248  150.7151 H   0  0  0  0  0  0  0  0  0  0  0  0  # atno 10167 bound_to 10162
  157.6942  131.0262  150.3150 H   0  0  0  0  0  0  0  0  0  0  0  0  # atno 10718 bound_to 10713
  153.5111  135.7016  153.5780 H   0  0  0  0  0  0  0  0  0  0  0  0  # atno 10763 bound_to 10752
  153.3870  135.3905  155.1897 H   0  0  0  0  0  0  0  0  0  0  0  0  # atno 10764 bound_to 10752
  154.8703  135.3849  154.4591 H   0  0  0  0  0  0  0  0  0  0  0  0  # atno 10765 bound_to 10752
  141.1656  133.6997  156.7721 H   0  0  0  0  0  0  0  0  0  0  0  0  # atno 11005 bound_to 11000
  145.4664  139.1507  143.3838 LP  0  0  0  0  0  0  0  0  0  0  0  0  # atno 17320 bound_to 7965
  146.2715  140.4796  142.8812 LP  0  0  0  0  0  0  0  0  0  0  0  0  # atno 17321 bound_to 7965
  140.1834  143.4096  152.1916 LP  0  0  0  0  0  0  0  0  0  0  0  0  # atno 17342 bound_to 10162
  139.5421  144.7266  151.4699 LP  0  0  0  0  0  0  0  0  0  0  0  0  # atno 17343 bound_to 10162
  156.3645  130.3853  149.7224 LP  0  0  0  0  0  0  0  0  0  0  0  0  # atno 17370 bound_to 10713
  156.4659  130.7974  151.2993 LP  0  0  0  0  0  0  0  0  0  0  0  0  # atno 17371 bound_to 10713
  140.2456  134.8580  157.3617 LP  0  0  0  0  0  0  0  0  0  0  0  0  # atno 17394 bound_to 11000
  140.1752  134.4558  155.7806 LP  0  0  0  0  0  0  0  0  0  0  0  0  # atno 17395 bound_to 11000

$$$$
