AV-unprocessed.smi:2682|AV-procd|sdf|10375|dock3
  -GOLD-   2272014403D 1   1.00000     0.00000
 Structure written by MMmdl.
 29 29  0  0  0  0  0  0  0  0  2 V2000
  147.4782  132.5076  152.9276 C   0  0  0  0  0  0  0  0  0  0  0  0
  148.8423  132.8896  152.9339 O   0  0  0  0  0  0  0  0  0  0  0  0
  149.2519  133.4186  154.1842 C   0  0  0  0  0  0  0  0  0  0  0  0
  149.1447  132.3260  155.2521 C   0  0  0  0  0  0  0  0  0  0  0  0
  149.2508  132.9195  156.5350 O   0  0  0  0  0  0  0  0  0  0  0  0
  148.1596  133.7763  156.8338 C   0  0  0  0  0  0  0  0  0  0  0  0
  148.4643  134.5455  158.1185 C   0  0  0  0  0  0  0  0  0  0  0  0
  149.5292  135.1543  158.2115 O   0  0  0  0  0  0  0  0  0  0  0  0
  147.5047  134.4903  159.0632 N   0  0  0  0  0  0  0  0  0  0  0  0
  147.4434  135.0964  160.3305 C   0  0  0  0  0  0  0  0  0  0  0  0
  147.1097  134.4612  161.4889 C   0  0  0  0  0  0  0  0  0  0  0  0
  147.0796  135.1622  162.7610 C   0  0  0  0  0  0  0  0  0  0  0  0
  147.4213  136.4928  162.6657 C   0  0  0  0  0  0  0  0  0  0  0  0
  147.7690  137.1908  161.5630 N   0  5  0  0  0  0  0  0  0  0  0  0
  147.7947  136.5339  160.3671 C   0  0  0  0  0  0  0  0  0  0  0  0
  148.1041  137.1120  159.3242 O   0  0  0  0  0  0  0  0  0  0  0  0
  147.2156  132.1029  151.9503 H   0  0  0  0  0  0  0  0  0  0  0  0
  146.8288  133.3617  153.1239 H   0  0  0  0  0  0  0  0  0  0  0  0
  147.2808  131.7380  153.6750 H   0  0  0  0  0  0  0  0  0  0  0  0
  150.2880  133.7517  154.1089 H   0  0  0  0  0  0  0  0  0  0  0  0
  148.6485  134.2844  154.4619 H   0  0  0  0  0  0  0  0  0  0  0  0
  148.2064  131.7787  155.1484 H   0  0  0  0  0  0  0  0  0  0  0  0
  149.9583  131.6110  155.1214 H   0  0  0  0  0  0  0  0  0  0  0  0
  147.9895  134.4750  156.0126 H   0  0  0  0  0  0  0  0  0  0  0  0
  147.2455  133.1976  156.9751 H   0  0  0  0  0  0  0  0  0  0  0  0
  146.7072  133.9100  158.8464 H   0  0  0  0  0  0  0  0  0  0  0  0
  146.8654  133.4126  161.5115 H   0  0  0  0  0  0  0  0  0  0  0  0
  146.8135  134.6845  163.6920 H   0  0  0  0  0  0  0  0  0  0  0  0
  147.4138  137.0775  163.6103 H   0  0  0  0  0  0  0  0  0  0  0  0
  1  2  1  0  0  0  0
  1 17  1  0  0  0  0
  1 18  1  0  0  0  0
  1 19  1  0  0  0  0
  2  3  1  0  0  0  0
  3  4  1  0  0  0  0
  3 20  1  0  0  0  0
  3 21  1  0  0  0  0
  4  5  1  0  0  0  0
  4 22  1  0  0  0  0
  4 23  1  0  0  0  0
  5  6  1  0  0  0  0
  6  7  1  0  0  0  0
  6 24  1  0  0  0  0
  6 25  1  0  0  0  0
  7  8  2  0  0  0  0
  7  9  1  0  0  0  0
  9 26  1  0  0  0  0
  9 10  1  0  0  0  0
 10 11  2  0  0  0  0
 10 15  1  0  0  0  0
 11 12  1  0  0  0  0
 11 27  1  0  0  0  0
 12 13  2  0  0  0  0
 12 28  1  0  0  0  0
 13 14  1  0  0  0  0
 13 29  1  0  0  0  0
 14 15  1  0  0  0  0
 15 16  2  0  0  0  0
M  CHG  1  14  -1
M  END
> <s_m_source_file>
AV-unprocessed.smi

> <i_m_source_file_index>
2682

> <i_lp_mmshare_version>
43012

> <i_f3d_flags>
0

> <s_epik_input>
W0NIM11PW0NIMl1bQ0gyXU9bQ0gyXUMoPU8pW05IXWMxW2NIXVtjSF1bY0hdbmMxW09IXQ==

> <s_epik_cmdline>
J2VwaWtfcHl0aG9uJywgJy1waCcsICc3LjAnLCAnLXRuJywgJzgnLCAnLW1hJywgJzIwMCcsICctbWV0YWxfYmluZGluZycsICctaW1hZScsICc8aW5maWxlLm1hZT4nLCAnLW9tYWUnLCAnPG91dGZpbGUubWFlPic=

> <r_lp_tautomer_probability>
1

> <r_epik_Ionization_Penalty>
5.6643

> <r_epik_Ionization_Penalty_Charging>
0.525144

> <r_epik_Ionization_Penalty_Neutral>
5.13916

> <r_epik_State_Penalty>
5.13906

> <r_epik_Charging_Adjusted_Penalty>
5.6642

> <i_epik_Tot_Q>
-1

> <i_epik_Tot_abs_Q>
1

> <r_epik_Metal_State_Penalty>
1.22048

> <b_epik_Metal_Only>
1

> <s_lp_Force_Field>
OPLS_2005

> <r_lp_Energy>
18.608

> <b_lp_Chiralities_Consistent>
1

> <s_lp_Variant>
AV-unprocessed.smi:2682-2

> <Gold.Version>
5.8.1

> <Gold.Id.Protein>
6NUR|6NUR_protein|mol2

> <Gold.PLP.Fitness>
40.5279

> <Gold.PLP.PLP>
-27.8585

> <Gold.PLP.part.hbond>
-3.0000

> <Gold.PLP.part.metal>
0.0000

> <Gold.PLP.part.buried>
-3.3095

> <Gold.PLP.part.nonpolar>
-21.2000

> <Gold.PLP.part.repulsive>
0.2845

> <Gold.PLP.ligand.clash>
0.0000

> <Gold.PLP.ligand.torsion>
0.5527

> <Gold.PLP.Chemscore.Hbond>
4.5680

> <Gold.PLP.Chemscore.CHOScore>
0.0000

> <Gold.PLP.Chemscore.Metal>
0.0000

> <Gold.Chemscore.Hbonds>
donor molecule, donor type, donor heavy atom, donor atom, acceptor molecule, acceptor atom, score
      P1  H  6896  6909       L1     8  1.00
      P1  H  6931  6943       L1    14  2.00
      P1  H  6934  6947       L1    14  1.44

> <Gold.PLP.Chemscore.Internal.Correction>
0.0709

> <Gold.Rescore>
     Score         DG    S(hbond)    S(metal)    S(lipo)     H(rot)  DE(clash)    DE(int)     intcor
      9.38     -12.75       2.06        0.00      49.69       2.11       0.00       3.37       ----

> <Gold.Chemscore.Fitness>
9.3802

> <Gold.Chemscore.DG>
-12.7529

> <Gold.Chemscore.ZeroCoef>
-5.4800

> <Gold.Chemscore.Hbond>
2.0575

> <Gold.Chemscore.Metal>
0.0000

> <Gold.Chemscore.Lipo>
49.6945

> <Gold.Chemscore.Internal_Hbond>
0.0000

> <Gold.Chemscore.DEClash>
0.0029

> <Gold.Chemscore.DEInternal>
3.3699

> <Gold.Chemscore.Rot>
2.1146

> <Gold.Chemscore.Internal.Correction>
   9.000000E+99

> <Gold.Chemscore.Hbonds>
donor molecule, donor type, donor heavy atom, donor atom, acceptor molecule, acceptor atom, score
      P1  H  6896  6909       L1     8  0.73
      P1  H  6931  6943       L1    14  0.69
      P1  H  6934  6947       L1    14  0.17

> <Gold.Chemscore.Hbond.Weighted>
-6.8720

> <Gold.Chemscore.Metal.Weighted>
-0.0000

> <Gold.Chemscore.Lipo.Weighted>
-5.8143

> <Gold.Chemscore.Internal_Hbond.Weighted>
0.0000

> <Gold.Chemscore.DEClash.Weighted>
0.0029

> <Gold.Chemscore.DEInternal.Weighted>
3.3699

> <Gold.Chemscore.Rot.Weighted>
5.4133

> <Gold.Chemscore.Internal.Correction.Weighted>
   9.000000E+99

> <Gold.Protein.RotatedTorsions>
[ 6907 6896 6895 6894 ] final   30.19 input  -60.11 | X-H torsion
[ 7974 7965 7964 7962 ] final  119.71 input  175.53 | X-H torsion
[ 8008 7997 7996 7995 ] final  -47.81 input   59.86 | X-H torsion
[ 10167 10162 10161 10158 ] final   40.44 input  -65.29 | X-H torsion
[ 10718 10713 10712 10709 ] final -175.71 input   66.30 | X-H torsion
[ 10763 10752 10751 10750 ] final  114.92 input  -60.55 | X-H torsion
[ 11005 11000 10999 10996 ] final -101.97 input  -57.11 | X-H torsion

> <Gold.Protein.ActiveResidues>
 VAL166  LYS551  ARG553  GLY616  TRP617  ASP618  TYR619  PRO620  LYS621  CYS622 
 ASP623  PHE694  ASN695  SER759  ASP760  ASP761  ALA762  ILE779  LEU786  VAL792 
 PHE793  MET794  SER795  GLU796  ALA797  LYS798  CYS799  TRP800  GLU811  SER814 

> <Gold.Protein.RotatedAtoms>
  152.0424  134.9703  160.0573 H   0  0  0  0  0  0  0  0  0  0  0  0  # atno 6907 bound_to 6896
  152.1137  133.4310  159.4651 H   0  0  0  0  0  0  0  0  0  0  0  0  # atno 6908 bound_to 6896
  150.6845  134.2537  159.4564 H   0  0  0  0  0  0  0  0  0  0  0  0  # atno 6909 bound_to 6896
  145.1398  139.3275  143.4622 H   0  0  0  0  0  0  0  0  0  0  0  0  # atno 7974 bound_to 7965
  154.4021  140.1337  156.4236 H   0  0  0  0  0  0  0  0  0  0  0  0  # atno 8008 bound_to 7997
  155.7619  140.3486  155.5182 H   0  0  0  0  0  0  0  0  0  0  0  0  # atno 8009 bound_to 7997
  155.8850  140.0994  157.1449 H   0  0  0  0  0  0  0  0  0  0  0  0  # atno 8010 bound_to 7997
  140.3742  144.2065  150.6132 H   0  0  0  0  0  0  0  0  0  0  0  0  # atno 10167 bound_to 10162
  156.8039  130.9562  151.3118 H   0  0  0  0  0  0  0  0  0  0  0  0  # atno 10718 bound_to 10713
  153.5144  135.3611  155.2602 H   0  0  0  0  0  0  0  0  0  0  0  0  # atno 10763 bound_to 10752
  154.8740  135.4030  154.3332 H   0  0  0  0  0  0  0  0  0  0  0  0  # atno 10764 bound_to 10752
  153.3991  135.7074  153.6506 H   0  0  0  0  0  0  0  0  0  0  0  0  # atno 10765 bound_to 10752
  141.1209  133.8520  157.1300 H   0  0  0  0  0  0  0  0  0  0  0  0  # atno 11005 bound_to 11000
  146.3506  140.1430  142.8594 LP  0  0  0  0  0  0  0  0  0  0  0  0  # atno 17320 bound_to 7965
  145.0544  140.9042  143.4976 LP  0  0  0  0  0  0  0  0  0  0  0  0  # atno 17321 bound_to 7965
  140.5003  143.2320  151.8688 LP  0  0  0  0  0  0  0  0  0  0  0  0  # atno 17342 bound_to 10162
  139.4801  144.5067  151.8988 LP  0  0  0  0  0  0  0  0  0  0  0  0  # atno 17343 bound_to 10162
  157.6540  130.8908  149.9690 LP  0  0  0  0  0  0  0  0  0  0  0  0  # atno 17370 bound_to 10713
  156.1085  130.3651  150.0091 LP  0  0  0  0  0  0  0  0  0  0  0  0  # atno 17371 bound_to 10713
  140.0165  134.9965  157.0505 LP  0  0  0  0  0  0  0  0  0  0  0  0  # atno 17394 bound_to 11000
  140.4510  134.1582  155.7181 LP  0  0  0  0  0  0  0  0  0  0  0  0  # atno 17395 bound_to 11000

$$$$
