AV-unprocessed.smi:613|AV-procd|sdf|3064|dock3
  -GOLD-   2262023583D 1   1.00000     0.00000
 Structure written by MMmdl.
 38 39  0  0  0  0  0  0  0  0  1 V2000
  152.0133  144.3427  157.5005 C   0  0  0  0  0  0  0  0  0  0  0  0
  151.6973  143.0700  158.1389 N   0  0  0  0  0  0  0  0  0  0  0  0
  150.6206  142.2544  157.5742 C   0  0  0  0  0  0  0  0  0  0  0  0
  151.0836  141.3946  156.3830 C   0  0  2  0  0  0  0  0  0  0  0  0
  149.9124  141.0466  155.4429 C   0  0  0  0  0  0  0  0  0  0  0  0
  150.3243  140.1714  154.3480 N   0  0  0  0  0  0  0  0  0  0  0  0
  149.2098  139.8925  153.4329 C   0  0  0  0  0  0  0  0  0  0  0  0
  148.0577  139.0959  154.0581 C   0  0  0  0  0  0  0  0  0  0  0  0
  147.8809  137.8423  153.6337 N   0  0  0  0  0  0  0  0  0  0  0  0
  147.3345  139.6083  154.9098 O   0  0  0  0  0  0  0  0  0  0  0  0
  150.9669  138.9717  154.8908 C   0  0  0  0  0  0  0  0  0  0  0  0
  152.1167  139.3237  155.8494 C   0  0  0  0  0  0  0  0  0  0  0  0
  151.6342  140.1773  156.8808 O   0  0  0  0  0  0  0  0  0  0  0  0
  152.1543  142.8325  159.4578 C   0  0  0  0  0  0  0  0  0  0  0  0
  153.3364  142.0942  159.7121 C   0  0  0  0  0  0  0  0  0  0  0  0
  153.7232  141.9009  161.0494 C   0  0  0  0  0  0  0  0  0  0  0  0
  152.9038  142.4564  162.0462 C   0  0  0  0  0  0  0  0  0  0  0  0
  151.7825  143.1514  161.7588 N   0  0  0  0  0  0  0  0  0  0  0  0
  151.4176  143.3320  160.4851 N   0  0  0  0  0  0  0  0  0  0  0  0
  153.0869  144.4342  157.3337 H   0  0  0  0  0  0  0  0  0  0  0  0
  151.6792  145.1784  158.1165 H   0  0  0  0  0  0  0  0  0  0  0  0
  151.5214  144.4266  156.5310 H   0  0  0  0  0  0  0  0  0  0  0  0
  150.2146  141.6098  158.3546 H   0  0  0  0  0  0  0  0  0  0  0  0
  149.7916  142.8967  157.2756 H   0  0  0  0  0  0  0  0  0  0  0  0
  151.8463  141.9322  155.8166 H   0  0  0  0  0  0  0  0  0  0  0  0
  149.1140  140.5725  156.0169 H   0  0  0  0  0  0  0  0  0  0  0  0
  149.4957  141.9703  155.0384 H   0  0  0  0  0  0  0  0  0  0  0  0
  148.8255  140.8276  153.0206 H   0  0  0  0  0  0  0  0  0  0  0  0
  149.5720  139.3130  152.5826 H   0  0  0  0  0  0  0  0  0  0  0  0
  147.1358  137.2799  154.0181 H   0  0  0  0  0  0  0  0  0  0  0  0
  148.4959  137.4611  152.9292 H   0  0  0  0  0  0  0  0  0  0  0  0
  150.2308  138.3635  155.4192 H   0  0  0  0  0  0  0  0  0  0  0  0
  151.3689  138.3493  154.0912 H   0  0  0  0  0  0  0  0  0  0  0  0
  152.5272  138.4189  156.2979 H   0  0  0  0  0  0  0  0  0  0  0  0
  152.9314  139.8133  155.3135 H   0  0  0  0  0  0  0  0  0  0  0  0
  153.9421  141.6777  158.9219 H   0  0  0  0  0  0  0  0  0  0  0  0
  154.6150  141.3466  161.3010 H   0  0  0  0  0  0  0  0  0  0  0  0
  153.1493  142.3411  163.0916 H   0  0  0  0  0  0  0  0  0  0  0  0
  1  2  1  0  0  0  0
  1 20  1  0  0  0  0
  1 21  1  0  0  0  0
  1 22  1  0  0  0  0
  2  3  1  0  0  0  0
  2 14  1  0  0  0  0
  3  4  1  0  0  0  0
  3 23  1  0  0  0  0
  3 24  1  0  0  0  0
  4 13  1  0  0  0  0
  4  5  1  0  0  0  0
  4 25  1  0  0  0  0
  5  6  1  0  0  0  0
  5 26  1  0  0  0  0
  5 27  1  0  0  0  0
  6  7  1  0  0  0  0
  6 11  1  0  0  0  0
  7  8  1  0  0  0  0
  7 28  1  0  0  0  0
  7 29  1  0  0  0  0
  8  9  1  0  0  0  0
  8 10  2  0  0  0  0
  9 30  1  0  0  0  0
  9 31  1  0  0  0  0
 11 12  1  0  0  0  0
 11 32  1  0  0  0  0
 11 33  1  0  0  0  0
 12 13  1  0  0  0  0
 12 34  1  0  0  0  0
 12 35  1  0  0  0  0
 14 19  1  0  0  0  0
 14 15  2  0  0  0  0
 15 16  1  0  0  0  0
 15 36  1  0  0  0  0
 16 17  2  0  0  0  0
 16 37  1  0  0  0  0
 17 18  1  0  0  0  0
 17 38  1  0  0  0  0
 18 19  2  0  0  0  0
M  END
> <s_m_source_file>
AV-unprocessed.smi

> <i_m_source_file_index>
613

> <i_lp_mmshare_version>
43012

> <i_f3d_flags>
0

> <s_epik_input>
bjFuW2NIXVtjSF1bY0hdYzFOKFtDSDNdKVtDSDJdW0NAQEhdMltDSDJdTihbQ0gyXVtDSDJdTzIpW0NIMl1DKD1PKVtOSDJd

> <s_epik_cmdline>
J2VwaWtfcHl0aG9uJywgJy1waCcsICc3LjAnLCAnLXRuJywgJzgnLCAnLW1hJywgJzIwMCcsICctbWV0YWxfYmluZGluZycsICctaW1hZScsICc8aW5maWxlLm1hZT4nLCAnLW9tYWUnLCAnPG91dGZpbGUubWFlPic=

> <r_lp_tautomer_probability>
1

> <r_epik_Ionization_Penalty>
0.0398875

> <r_epik_Ionization_Penalty_Charging>
0

> <r_epik_Ionization_Penalty_Neutral>
0.0398875

> <r_epik_State_Penalty>
0.0543012

> <r_epik_Charging_Adjusted_Penalty>
0.0543012

> <i_epik_Tot_Q>
0

> <i_epik_Tot_abs_Q>
0

> <r_epik_Metal_State_Penalty>
0.0489294

> <b_epik_Metal_Only>
0

> <s_lp_Force_Field>
OPLS_2005

> <r_lp_Energy>
27.5025

> <b_lp_Chiralities_Consistent>
1

> <s_lp_Variant>
AV-unprocessed.smi:613-1

> <Gold.Version>
5.8.1

> <Gold.Id.Protein>
6NUR|6NUR_protein|mol2

> <Gold.PLP.Fitness>
43.6251

> <Gold.PLP.PLP>
-40.8112

> <Gold.PLP.part.hbond>
-3.6859

> <Gold.PLP.part.metal>
0.0000

> <Gold.PLP.part.buried>
-1.8136

> <Gold.PLP.part.nonpolar>
-37.3360

> <Gold.PLP.part.repulsive>
0.6644

> <Gold.PLP.ligand.clash>
0.0000

> <Gold.PLP.ligand.torsion>
2.0134

> <Gold.PLP.Chemscore.Hbond>
2.1845

> <Gold.PLP.Chemscore.CHOScore>
0.0000

> <Gold.PLP.Chemscore.Metal>
0.0000

> <Gold.Chemscore.Hbonds>
donor molecule, donor type, donor heavy atom, donor atom, acceptor molecule, acceptor atom, score
      L1  H     9    31       P1  7948  1.00
      P1  H  6933  6945       L1    18  0.19
      P1  H  7989  7998       L1     6  1.00

> <Gold.PLP.Chemscore.Internal.Correction>
0.2870

> <Gold.Rescore>
     Score         DG    S(hbond)    S(metal)    S(lipo)     H(rot)  DE(clash)    DE(int)     intcor
     10.81     -14.46       1.17        0.00      91.20       2.18       1.67       1.98       ----

> <Gold.Chemscore.Fitness>
10.8056

> <Gold.Chemscore.DG>
-14.4557

> <Gold.Chemscore.ZeroCoef>
-5.4800

> <Gold.Chemscore.Hbond>
1.1654

> <Gold.Chemscore.Metal>
0.0000

> <Gold.Chemscore.Lipo>
91.1966

> <Gold.Chemscore.Internal_Hbond>
0.0000

> <Gold.Chemscore.DEClash>
1.6725

> <Gold.Chemscore.DEInternal>
1.9775

> <Gold.Chemscore.Rot>
2.1823

> <Gold.Chemscore.Internal.Correction>
   9.000000E+99

> <Gold.Chemscore.Hbonds>
donor molecule, donor type, donor heavy atom, donor atom, acceptor molecule, acceptor atom, score
      L1  H     9    31       P1  7948  0.97
      P1  H  6933  6945       L1    18  0.01
      P1  H  7989  7998       L1     6  0.16

> <Gold.Chemscore.Hbond.Weighted>
-3.8924

> <Gold.Chemscore.Metal.Weighted>
-0.0000

> <Gold.Chemscore.Lipo.Weighted>
-10.6700

> <Gold.Chemscore.Internal_Hbond.Weighted>
0.0000

> <Gold.Chemscore.DEClash.Weighted>
1.6725

> <Gold.Chemscore.DEInternal.Weighted>
1.9775

> <Gold.Chemscore.Rot.Weighted>
5.5867

> <Gold.Chemscore.Internal.Correction.Weighted>
   9.000000E+99

> <Gold.Protein.RotatedTorsions>
[ 6907 6896 6895 6894 ] final  -13.16 input  -60.11 | X-H torsion
[ 7974 7965 7964 7962 ] final -124.29 input  175.53 | X-H torsion
[ 8008 7997 7996 7995 ] final    7.44 input   59.86 | X-H torsion
[ 10167 10162 10161 10158 ] final   68.23 input  -65.29 | X-H torsion
[ 10718 10713 10712 10709 ] final   73.38 input   66.30 | X-H torsion
[ 10763 10752 10751 10750 ] final  -70.23 input  -60.55 | X-H torsion
[ 11005 11000 10999 10996 ] final -102.28 input  -57.11 | X-H torsion

> <Gold.Protein.ActiveResidues>
 VAL166  LYS551  ARG553  GLY616  TRP617  ASP618  TYR619  PRO620  LYS621  CYS622 
 ASP623  PHE694  ASN695  SER759  ASP760  ASP761  ALA762  ILE779  LEU786  VAL792 
 PHE793  MET794  SER795  GLU796  ALA797  LYS798  CYS799  TRP800  GLU811  SER814 

> <Gold.Protein.RotatedAtoms>
  151.3593  135.0900  159.9428 H   0  0  0  0  0  0  0  0  0  0  0  0  # atno 6907 bound_to 6896
  152.5166  133.9275  159.7574 H   0  0  0  0  0  0  0  0  0  0  0  0  # atno 6908 bound_to 6896
  150.9666  133.6334  159.2774 H   0  0  0  0  0  0  0  0  0  0  0  0  # atno 6909 bound_to 6896
  145.0096  140.7894  143.4446 H   0  0  0  0  0  0  0  0  0  0  0  0  # atno 7974 bound_to 7965
  154.7539  140.2772  155.6270 H   0  0  0  0  0  0  0  0  0  0  0  0  # atno 8008 bound_to 7997
  156.2901  140.2673  156.2226 H   0  0  0  0  0  0  0  0  0  0  0  0  # atno 8009 bound_to 7997
  155.0102  140.0372  157.2386 H   0  0  0  0  0  0  0  0  0  0  0  0  # atno 8010 bound_to 7997
  140.0809  144.5072  150.7163 H   0  0  0  0  0  0  0  0  0  0  0  0  # atno 10167 bound_to 10162
  157.6545  130.9625  150.1061 H   0  0  0  0  0  0  0  0  0  0  0  0  # atno 10718 bound_to 10713
  154.4147  135.6000  153.5974 H   0  0  0  0  0  0  0  0  0  0  0  0  # atno 10763 bound_to 10752
  152.9791  135.5938  154.4027 H   0  0  0  0  0  0  0  0  0  0  0  0  # atno 10764 bound_to 10752
  154.3844  135.2841  155.2170 H   0  0  0  0  0  0  0  0  0  0  0  0  # atno 10765 bound_to 10752
  141.1196  133.8545  157.1339 H   0  0  0  0  0  0  0  0  0  0  0  0  # atno 11005 bound_to 11000
  145.2041  139.2237  143.5177 LP  0  0  0  0  0  0  0  0  0  0  0  0  # atno 17320 bound_to 7965
  146.3467  140.1865  142.8589 LP  0  0  0  0  0  0  0  0  0  0  0  0  # atno 17321 bound_to 7965
  140.7078  143.2481  151.4673 LP  0  0  0  0  0  0  0  0  0  0  0  0  # atno 17342 bound_to 10162
  139.5780  144.1774  152.1930 LP  0  0  0  0  0  0  0  0  0  0  0  0  # atno 17343 bound_to 10162
  156.1970  130.3658  149.8836 LP  0  0  0  0  0  0  0  0  0  0  0  0  # atno 17370 bound_to 10713
  156.6750  130.8835  151.3567 LP  0  0  0  0  0  0  0  0  0  0  0  0  # atno 17371 bound_to 10713
  140.0143  134.9974  157.0460 LP  0  0  0  0  0  0  0  0  0  0  0  0  # atno 17394 bound_to 11000
  140.4547  134.1546  155.7185 LP  0  0  0  0  0  0  0  0  0  0  0  0  # atno 17395 bound_to 11000

$$$$
