AV-unprocessed.smi:470|AV-procd|sdf|2657|dock10
  -GOLD-   2262023 73D 1   1.00000     0.00000
 Structure written by MMmdl.
 32 33  0  0  0  0  0  0  0  0  2 V2000
  149.7926  138.5812  153.2385 N   0  0  0  0  0  0  0  0  0  0  0  0
  150.6068  138.5425  154.2974 C   0  0  0  0  0  0  0  0  0  0  0  0
  151.3066  139.4997  154.6222 O   0  0  0  0  0  0  0  0  0  0  0  0
  150.6320  137.2496  155.1169 C   0  0  0  0  0  0  0  0  0  0  0  0
  149.8336  137.4098  156.3782 C   0  0  0  0  0  0  0  0  0  0  0  0
  149.1620  138.5301  156.7944 C   0  0  0  0  0  0  0  0  0  0  0  0
  148.3792  138.2783  158.3278 S   0  0  0  0  0  0  0  0  0  0  0  0
  149.0140  136.6324  158.3708 C   0  0  0  0  0  0  0  0  0  0  0  0
  148.7969  135.7461  159.3577 N   0  5  0  0  0  0  0  0  0  0  0  0
  148.1371  136.0244  160.5183 C   0  0  0  0  0  0  0  0  0  0  0  0
  147.8174  137.1556  160.8787 O   0  0  0  0  0  0  0  0  0  0  0  0
  147.7772  134.8180  161.4373 C   0  0  1  0  0  0  0  0  0  0  0  0
  147.1121  135.2740  162.7603 C   0  0  0  0  0  0  0  0  0  0  0  0
  145.6153  135.4982  162.6385 C   0  0  0  0  0  0  0  0  0  0  0  0
  144.8683  135.0065  161.6366 C   0  0  0  0  0  0  0  0  0  0  0  0
  145.4296  134.1744  160.4990 C   0  0  0  0  0  0  0  0  0  0  0  0
  146.8977  133.7531  160.7333 C   0  0  0  0  0  0  0  0  0  0  0  0
  149.7169  136.3405  157.2707 N   0  0  0  0  0  0  0  0  0  0  0  0
  149.7596  139.4067  152.6586 H   0  0  0  0  0  0  0  0  0  0  0  0
  149.2277  137.7751  153.0114 H   0  0  0  0  0  0  0  0  0  0  0  0
  150.2335  136.4319  154.5150 H   0  0  0  0  0  0  0  0  0  0  0  0
  151.6675  136.9901  155.3411 H   0  0  0  0  0  0  0  0  0  0  0  0
  149.0840  139.4849  156.2964 H   0  0  0  0  0  0  0  0  0  0  0  0
  148.6881  134.2812  161.6977 H   0  0  0  0  0  0  0  0  0  0  0  0
  147.2810  134.5302  163.5392 H   0  0  0  0  0  0  0  0  0  0  0  0
  147.5623  136.1992  163.1194 H   0  0  0  0  0  0  0  0  0  0  0  0
  145.1456  136.0694  163.4257 H   0  0  0  0  0  0  0  0  0  0  0  0
  143.8078  135.2087  161.6114 H   0  0  0  0  0  0  0  0  0  0  0  0
  144.8098  133.2873  160.3670 H   0  0  0  0  0  0  0  0  0  0  0  0
  145.3353  134.7514  159.5793 H   0  0  0  0  0  0  0  0  0  0  0  0
  147.3490  133.4514  159.7872 H   0  0  0  0  0  0  0  0  0  0  0  0
  146.8988  132.8570  161.3551 H   0  0  0  0  0  0  0  0  0  0  0  0
  1  2  1  0  0  0  0
  1 19  1  0  0  0  0
  1 20  1  0  0  0  0
  2  3  2  0  0  0  0
  2  4  1  0  0  0  0
  4  5  1  0  0  0  0
  4 21  1  0  0  0  0
  4 22  1  0  0  0  0
  5 18  1  0  0  0  0
  5  6  2  0  0  0  0
  6  7  1  0  0  0  0
  6 23  1  0  0  0  0
  7  8  1  0  0  0  0
  8  9  1  0  0  0  0
  8 18  2  0  0  0  0
  9 10  1  0  0  0  0
 10 11  2  0  0  0  0
 10 12  1  0  0  0  0
 12 17  1  0  0  0  0
 12 13  1  0  0  0  0
 12 24  1  0  0  0  0
 13 14  1  0  0  0  0
 13 25  1  0  0  0  0
 13 26  1  0  0  0  0
 14 15  2  0  0  0  0
 14 27  1  0  0  0  0
 15 16  1  0  0  0  0
 15 28  1  0  0  0  0
 16 17  1  0  0  0  0
 16 29  1  0  0  0  0
 16 30  1  0  0  0  0
 17 31  1  0  0  0  0
 17 32  1  0  0  0  0
M  CHG  1   9  -1
M  END
> <s_m_source_file>
AV-unprocessed.smi

> <i_m_source_file_index>
470

> <i_lp_mmshare_version>
43012

> <i_f3d_flags>
0

> <s_epik_input>
W05IMl1DKD1PKVtDSDJdYzFbY0hdc2MobjEpW05IXUMoPU8pW0NAQEhdMltDSDJdW0NIXT1bQ0hdW0NIMl1bQ0gyXTI=

> <s_epik_cmdline>
J2VwaWtfcHl0aG9uJywgJy1waCcsICc3LjAnLCAnLXRuJywgJzgnLCAnLW1hJywgJzIwMCcsICctbWV0YWxfYmluZGluZycsICctaW1hZScsICc8aW5maWxlLm1hZT4nLCAnLW9tYWUnLCAnPG91dGZpbGUubWFlPic=

> <r_lp_tautomer_probability>
1

> <r_epik_Ionization_Penalty>
4.98985

> <r_epik_Ionization_Penalty_Charging>
4.63309

> <r_epik_Ionization_Penalty_Neutral>
0.356756

> <r_epik_State_Penalty>
4.63286

> <r_epik_Charging_Adjusted_Penalty>
9.26595

> <i_epik_Tot_Q>
-1

> <i_epik_Tot_abs_Q>
1

> <r_epik_Metal_State_Penalty>
0.88943

> <b_epik_Metal_Only>
1

> <s_lp_Force_Field>
OPLS_2005

> <r_lp_Energy>
8.68361

> <b_lp_Chiralities_Consistent>
1

> <s_lp_Variant>
AV-unprocessed.smi:470-4

> <Gold.Version>
5.8.1

> <Gold.Id.Protein>
6NUR|6NUR_protein|mol2

> <Gold.PLP.Fitness>
47.6684

> <Gold.PLP.PLP>
-27.7029

> <Gold.PLP.part.hbond>
-6.3846

> <Gold.PLP.part.metal>
0.0000

> <Gold.PLP.part.buried>
-4.5210

> <Gold.PLP.part.nonpolar>
-16.5278

> <Gold.PLP.part.repulsive>
0.1646

> <Gold.PLP.ligand.clash>
0.0000

> <Gold.PLP.ligand.torsion>
0.2788

> <Gold.PLP.Chemscore.Hbond>
6.8240

> <Gold.PLP.Chemscore.CHOScore>
0.0000

> <Gold.PLP.Chemscore.Metal>
0.0000

> <Gold.Chemscore.Hbonds>
donor molecule, donor type, donor heavy atom, donor atom, acceptor molecule, acceptor atom, score
      L1  H     1    19       P1  7957  0.94
      L1  H     1    20       P1  7948  0.93
      P1  H  6896  6908       L1     9  1.11
      P1  H  6931  6943       L1    11  0.90
      P1  H  6934  6947       L1    11  0.85
      P1  H  7989  7998       L1     3  1.00

> <Gold.PLP.Chemscore.Internal.Correction>
0.0512

> <Gold.Rescore>
     Score         DG    S(hbond)    S(metal)    S(lipo)     H(rot)  DE(clash)    DE(int)     intcor
     22.11     -23.96       5.26        0.00      48.58       1.87       0.19       1.66       ----

> <Gold.Chemscore.Fitness>
22.1103

> <Gold.Chemscore.DG>
-23.9584

> <Gold.Chemscore.ZeroCoef>
-5.4800

> <Gold.Chemscore.Hbond>
5.2632

> <Gold.Chemscore.Metal>
0.0000

> <Gold.Chemscore.Lipo>
48.5780

> <Gold.Chemscore.Internal_Hbond>
0.0000

> <Gold.Chemscore.DEClash>
0.1897

> <Gold.Chemscore.DEInternal>
1.6584

> <Gold.Chemscore.Rot>
1.8689

> <Gold.Chemscore.Internal.Correction>
   9.000000E+99

> <Gold.Chemscore.Hbonds>
donor molecule, donor type, donor heavy atom, donor atom, acceptor molecule, acceptor atom, score
      L1  H     1    19       P1  7957  0.89
      L1  H     1    20       P1  7948  0.88
      P1  H  6896  6908       L1     9  0.24
      P1  H  6931  6943       L1    11  0.86
      P1  H  6934  6947       L1    11  0.82
      P1  H  7989  7998       L1     3  0.99

> <Gold.Chemscore.Hbond.Weighted>
-17.5792

> <Gold.Chemscore.Metal.Weighted>
-0.0000

> <Gold.Chemscore.Lipo.Weighted>
-5.6836

> <Gold.Chemscore.Internal_Hbond.Weighted>
0.0000

> <Gold.Chemscore.DEClash.Weighted>
0.1897

> <Gold.Chemscore.DEInternal.Weighted>
1.6584

> <Gold.Chemscore.Rot.Weighted>
4.7844

> <Gold.Chemscore.Internal.Correction.Weighted>
   9.000000E+99

> <Gold.Protein.RotatedTorsions>
[ 6907 6896 6895 6894 ] final -176.52 input  -60.11 | X-H torsion
[ 7974 7965 7964 7962 ] final -156.38 input  175.53 | X-H torsion
[ 8008 7997 7996 7995 ] final  -89.82 input   59.86 | X-H torsion
[ 10167 10162 10161 10158 ] final  104.69 input  -65.29 | X-H torsion
[ 10718 10713 10712 10709 ] final -122.28 input   66.30 | X-H torsion
[ 10763 10752 10751 10750 ] final  167.25 input  -60.55 | X-H torsion
[ 11005 11000 10999 10996 ] final -154.83 input  -57.11 | X-H torsion

> <Gold.Protein.ActiveResidues>
 VAL166  LYS551  ARG553  GLY616  TRP617  ASP618  TYR619  PRO620  LYS621  CYS622 
 ASP623  PHE694  ASN695  SER759  ASP760  ASP761  ALA762  ILE779  LEU786  VAL792 
 PHE793  MET794  SER795  GLU796  ALA797  LYS798  CYS799  TRP800  GLU811  SER814 

> <Gold.Protein.RotatedAtoms>
  151.6061  133.3351  159.3057 H   0  0  0  0  0  0  0  0  0  0  0  0  # atno 6907 bound_to 6896
  150.8182  134.7378  159.6760 H   0  0  0  0  0  0  0  0  0  0  0  0  # atno 6908 bound_to 6896
  152.4277  134.5843  160.0008 H   0  0  0  0  0  0  0  0  0  0  0  0  # atno 6909 bound_to 6896
  144.7596  140.4118  143.5986 H   0  0  0  0  0  0  0  0  0  0  0  0  # atno 7974 bound_to 7965
  154.6911  140.0537  157.0365 H   0  0  0  0  0  0  0  0  0  0  0  0  # atno 8008 bound_to 7997
  155.0815  140.3210  155.4581 H   0  0  0  0  0  0  0  0  0  0  0  0  # atno 8009 bound_to 7997
  156.2728  140.2064  156.5943 H   0  0  0  0  0  0  0  0  0  0  0  0  # atno 8010 bound_to 7997
  139.7156  144.7069  151.0955 H   0  0  0  0  0  0  0  0  0  0  0  0  # atno 10167 bound_to 10162
  156.1405  130.6462  150.9764 H   0  0  0  0  0  0  0  0  0  0  0  0  # atno 10718 bound_to 10713
  154.3511  135.2753  155.2371 H   0  0  0  0  0  0  0  0  0  0  0  0  # atno 10763 bound_to 10752
  154.4600  135.5909  153.6253 H   0  0  0  0  0  0  0  0  0  0  0  0  # atno 10764 bound_to 10752
  152.9850  135.6062  154.3722 H   0  0  0  0  0  0  0  0  0  0  0  0  # atno 10765 bound_to 10752
  140.6931  134.4020  157.5217 H   0  0  0  0  0  0  0  0  0  0  0  0  # atno 11005 bound_to 11000
  145.6664  139.1591  143.2779 LP  0  0  0  0  0  0  0  0  0  0  0  0  # atno 17320 bound_to 7965
  146.1644  140.6740  142.9262 LP  0  0  0  0  0  0  0  0  0  0  0  0  # atno 17321 bound_to 7965
  140.7743  143.5234  150.9509 LP  0  0  0  0  0  0  0  0  0  0  0  0  # atno 17342 bound_to 10162
  139.8920  143.6941  152.3144 LP  0  0  0  0  0  0  0  0  0  0  0  0  # atno 17343 bound_to 10162
  157.6572  131.0887  150.7921 LP  0  0  0  0  0  0  0  0  0  0  0  0  # atno 17370 bound_to 10713
  156.7997  130.4917  149.5371 LP  0  0  0  0  0  0  0  0  0  0  0  0  # atno 17371 bound_to 10713
  139.8918  134.8771  156.2303 LP  0  0  0  0  0  0  0  0  0  0  0  0  # atno 17394 bound_to 11000
  141.0225  133.7033  156.1293 LP  0  0  0  0  0  0  0  0  0  0  0  0  # atno 17395 bound_to 11000

$$$$
