AV-unprocessed.smi:3354|AV-procd|sdf|12959|dock9
  -GOLD-   2272019393D 1   1.00000     0.00000
 Structure written by MMmdl.
 38 40  0  0  0  0  0  0  0  0  1 V2000
  149.5973  135.2345  154.9930 C   0  0  0  0  0  0  0  0  0  0  0  0
  149.4264  136.7022  155.3185 C   0  0  2  0  0  0  0  0  0  0  0  0
  148.2579  137.1558  156.1633 C   0  0  0  0  0  0  0  0  0  0  0  0
  148.3041  137.5135  154.6966 C   0  0  1  0  0  0  0  0  0  0  0  0
  148.4907  138.8896  154.3482 N   0  0  0  0  0  0  0  0  0  0  0  0
  149.5747  139.6299  154.9716 C   0  0  0  0  0  0  0  0  0  0  0  0
  149.4740  141.0586  154.4103 C   0  0  2  0  0  0  0  0  0  0  0  0
  149.6471  142.0482  155.4701 N   0  0  0  0  0  0  0  0  0  0  0  0
  150.5397  141.9554  156.4653 C   0  0  0  0  0  0  0  0  0  0  0  0
  151.3252  141.0152  156.5844 O   0  0  0  0  0  0  0  0  0  0  0  0
  150.4696  143.0210  157.2815 N   0  0  0  0  0  0  0  0  0  0  0  0
  151.2224  143.2885  158.4569 C   0  0  0  0  0  0  0  0  0  0  0  0
  151.4265  144.5817  158.9968 C   0  0  0  0  0  0  0  0  0  0  0  0
  152.2119  144.7174  160.1576 C   0  0  0  0  0  0  0  0  0  0  0  0
  152.7684  143.5586  160.7329 C   0  0  0  0  0  0  0  0  0  0  0  0
  152.5926  142.3216  160.2224 N   0  0  0  0  0  0  0  0  0  0  0  0
  151.8396  142.1996  159.1084 C   0  0  0  0  0  0  0  0  0  0  0  0
  148.0886  141.1383  153.7493 C   0  0  0  0  0  0  0  0  0  0  0  0
  147.5970  139.7010  153.7658 C   0  0  0  0  0  0  0  0  0  0  0  0
  146.5019  139.3750  153.3101 O   0  0  0  0  0  0  0  0  0  0  0  0
  148.6318  134.7622  154.8094 H   0  0  0  0  0  0  0  0  0  0  0  0
  150.0833  134.7214  155.8229 H   0  0  0  0  0  0  0  0  0  0  0  0
  150.2152  135.1200  154.1025 H   0  0  0  0  0  0  0  0  0  0  0  0
  150.3660  137.2143  155.5167 H   0  0  0  0  0  0  0  0  0  0  0  0
  147.5316  136.4066  156.4719 H   0  0  0  0  0  0  0  0  0  0  0  0
  148.4438  137.9476  156.8866 H   0  0  0  0  0  0  0  0  0  0  0  0
  147.6210  136.9630  154.0523 H   0  0  0  0  0  0  0  0  0  0  0  0
  149.4415  139.6060  156.0547 H   0  0  0  0  0  0  0  0  0  0  0  0
  150.5402  139.1770  154.7418 H   0  0  0  0  0  0  0  0  0  0  0  0
  150.2449  141.1943  153.6491 H   0  0  0  0  0  0  0  0  0  0  0  0
  149.0446  142.8579  155.4426 H   0  0  0  0  0  0  0  0  0  0  0  0
  149.8307  143.7515  157.0030 H   0  0  0  0  0  0  0  0  0  0  0  0
  151.0141  145.4683  158.5412 H   0  0  0  0  0  0  0  0  0  0  0  0
  152.3878  145.6892  160.5944 H   0  0  0  0  0  0  0  0  0  0  0  0
  153.3763  143.6286  161.6228 H   0  0  0  0  0  0  0  0  0  0  0  0
  151.7239  141.1957  158.7269 H   0  0  0  0  0  0  0  0  0  0  0  0
  147.3927  141.7615  154.3125 H   0  0  0  0  0  0  0  0  0  0  0  0
  148.1464  141.5195  152.7291 H   0  0  0  0  0  0  0  0  0  0  0  0
  1  2  1  0  0  0  0
  1 21  1  0  0  0  0
  1 22  1  0  0  0  0
  1 23  1  0  0  0  0
  2  4  1  0  0  0  0
  2  3  1  0  0  0  0
  2 24  1  0  0  0  0
  3  4  1  0  0  0  0
  3 25  1  0  0  0  0
  3 26  1  0  0  0  0
  4  5  1  0  0  0  0
  4 27  1  0  0  0  0
  5 19  1  0  0  0  0
  5  6  1  0  0  0  0
  6  7  1  0  0  0  0
  6 28  1  0  0  0  0
  6 29  1  0  0  0  0
  7  8  1  0  0  0  0
  7 18  1  0  0  0  0
  7 30  1  0  0  0  0
  8  9  1  0  0  0  0
  8 31  1  0  0  0  0
  9 10  2  0  0  0  0
  9 11  1  0  0  0  0
 11 12  1  0  0  0  0
 11 32  1  0  0  0  0
 12 17  1  0  0  0  0
 12 13  2  0  0  0  0
 13 14  1  0  0  0  0
 13 33  1  0  0  0  0
 14 15  2  0  0  0  0
 14 34  1  0  0  0  0
 15 16  1  0  0  0  0
 15 35  1  0  0  0  0
 16 17  2  0  0  0  0
 17 36  1  0  0  0  0
 18 19  1  0  0  0  0
 18 37  1  0  0  0  0
 18 38  1  0  0  0  0
 19 20  2  0  0  0  0
M  END
> <s_m_source_file>
AV-unprocessed.smi

> <i_m_source_file_index>
3354

> <i_lp_mmshare_version>
43012

> <i_f3d_flags>
0

> <s_epik_input>
W0NIM11bQ0BASF0xW0NIMl1bQ0BIXTFOMltDSDJdW0NASF0oW0NIMl1DMj1PKVtOSF1DKD1PKVtOSF1jM1tjSF1bY0hdW2NIXW5bY0hdMw==

> <s_epik_cmdline>
J2VwaWtfcHl0aG9uJywgJy1waCcsICc3LjAnLCAnLXRuJywgJzgnLCAnLW1hJywgJzIwMCcsICctbWV0YWxfYmluZGluZycsICctaW1hZScsICc8aW5maWxlLm1hZT4nLCAnLW9tYWUnLCAnPG91dGZpbGUubWFlPic=

> <r_epik_Ionization_Penalty>
0.00456191

> <r_epik_Ionization_Penalty_Charging>
0

> <r_epik_Ionization_Penalty_Neutral>
0.00456191

> <r_epik_State_Penalty>
0.00327094

> <r_epik_Charging_Adjusted_Penalty>
0.00327094

> <i_epik_Tot_Q>
0

> <i_epik_Tot_abs_Q>
0

> <r_epik_Metal_State_Penalty>
-0

> <b_epik_Metal_Only>
0

> <s_lp_Force_Field>
OPLS_2005

> <r_lp_Energy>
40.1113

> <b_lp_Chiralities_Consistent>
1

> <s_lp_Variant>
AV-unprocessed.smi:3354-5

> <Gold.Version>
5.8.1

> <Gold.Id.Protein>
6NUR|6NUR_protein|mol2

> <Gold.PLP.Fitness>
39.3837

> <Gold.PLP.PLP>
-34.3085

> <Gold.PLP.part.hbond>
-2.0000

> <Gold.PLP.part.metal>
0.0000

> <Gold.PLP.part.buried>
-4.2680

> <Gold.PLP.part.nonpolar>
-28.3258

> <Gold.PLP.part.repulsive>
0.4445

> <Gold.PLP.ligand.clash>
0.0000

> <Gold.PLP.ligand.torsion>
0.6145

> <Gold.PLP.Chemscore.Hbond>
1.9760

> <Gold.PLP.Chemscore.CHOScore>
0.0000

> <Gold.PLP.Chemscore.Metal>
0.0000

> <Gold.Chemscore.Hbonds>
donor molecule, donor type, donor heavy atom, donor atom, acceptor molecule, acceptor atom, score
      L1  H     8    31       P1  8028  0.96
      L1  H    11    32       P1  8028  1.00

> <Gold.PLP.Chemscore.Internal.Correction>
0.3763

> <Gold.Rescore>
     Score         DG    S(hbond)    S(metal)    S(lipo)     H(rot)  DE(clash)    DE(int)     intcor
     15.31     -19.00       1.88        0.00      88.84       1.24       0.31       3.39       ----

> <Gold.Chemscore.Fitness>
15.3062

> <Gold.Chemscore.DG>
-19.0005

> <Gold.Chemscore.ZeroCoef>
-5.4800

> <Gold.Chemscore.Hbond>
1.8833

> <Gold.Chemscore.Metal>
0.0000

> <Gold.Chemscore.Lipo>
88.8428

> <Gold.Chemscore.Internal_Hbond>
0.0000

> <Gold.Chemscore.DEClash>
0.3051

> <Gold.Chemscore.DEInternal>
3.3892

> <Gold.Chemscore.Rot>
1.2361

> <Gold.Chemscore.Internal.Correction>
   9.000000E+99

> <Gold.Chemscore.Hbonds>
donor molecule, donor type, donor heavy atom, donor atom, acceptor molecule, acceptor atom, score
      L1  H     8    31       P1  8028  0.92
      L1  H    11    32       P1  8028  0.92

> <Gold.Chemscore.Hbond.Weighted>
-6.2902

> <Gold.Chemscore.Metal.Weighted>
-0.0000

> <Gold.Chemscore.Lipo.Weighted>
-10.3946

> <Gold.Chemscore.Internal_Hbond.Weighted>
0.0000

> <Gold.Chemscore.DEClash.Weighted>
0.3051

> <Gold.Chemscore.DEInternal.Weighted>
3.3892

> <Gold.Chemscore.Rot.Weighted>
3.1643

> <Gold.Chemscore.Internal.Correction.Weighted>
   9.000000E+99

> <Gold.Protein.RotatedTorsions>
[ 6907 6896 6895 6894 ] final  176.93 input  -60.11 | X-H torsion
[ 7974 7965 7964 7962 ] final  166.28 input  175.53 | X-H torsion
[ 8008 7997 7996 7995 ] final  -10.38 input   59.86 | X-H torsion
[ 10167 10162 10161 10158 ] final  -95.41 input  -65.29 | X-H torsion
[ 10718 10713 10712 10709 ] final -104.57 input   66.30 | X-H torsion
[ 10763 10752 10751 10750 ] final  -14.80 input  -60.55 | X-H torsion
[ 11005 11000 10999 10996 ] final   37.68 input  -57.11 | X-H torsion

> <Gold.Protein.ActiveResidues>
 VAL166  LYS551  ARG553  GLY616  TRP617  ASP618  TYR619  PRO620  LYS621  CYS622 
 ASP623  PHE694  ASN695  SER759  ASP760  ASP761  ALA762  ILE779  LEU786  VAL792 
 PHE793  MET794  SER795  GLU796  ALA797  LYS798  CYS799  TRP800  GLU811  SER814 

> <Gold.Protein.RotatedAtoms>
  151.7121  133.3312  159.3293 H   0  0  0  0  0  0  0  0  0  0  0  0  # atno 6907 bound_to 6896
  150.7689  134.6523  159.6304 H   0  0  0  0  0  0  0  0  0  0  0  0  # atno 6908 bound_to 6896
  152.3705  134.6744  160.0229 H   0  0  0  0  0  0  0  0  0  0  0  0  # atno 6909 bound_to 6896
  144.7469  139.8592  143.6379 H   0  0  0  0  0  0  0  0  0  0  0  0  # atno 7974 bound_to 7965
  154.5560  140.2330  155.8409 H   0  0  0  0  0  0  0  0  0  0  0  0  # atno 8008 bound_to 7997
  156.1989  140.3058  155.9444 H   0  0  0  0  0  0  0  0  0  0  0  0  # atno 8009 bound_to 7997
  155.2979  140.0430  157.3018 H   0  0  0  0  0  0  0  0  0  0  0  0  # atno 8010 bound_to 7997
  140.3044  143.3142  152.0214 H   0  0  0  0  0  0  0  0  0  0  0  0  # atno 10167 bound_to 10162
  156.0310  130.5521  150.7415 H   0  0  0  0  0  0  0  0  0  0  0  0  # atno 10718 bound_to 10713
  153.5337  135.7014  153.5671 H   0  0  0  0  0  0  0  0  0  0  0  0  # atno 10763 bound_to 10752
  153.3667  135.3955  155.1758 H   0  0  0  0  0  0  0  0  0  0  0  0  # atno 10764 bound_to 10752
  154.8682  135.3802  154.4836 H   0  0  0  0  0  0  0  0  0  0  0  0  # atno 10765 bound_to 10752
  140.2202  134.3650  155.8008 H   0  0  0  0  0  0  0  0  0  0  0  0  # atno 11005 bound_to 11000
  146.1361  139.4406  143.0138 LP  0  0  0  0  0  0  0  0  0  0  0  0  # atno 17320 bound_to 7965
  145.7090  141.0112  143.1463 LP  0  0  0  0  0  0  0  0  0  0  0  0  # atno 17321 bound_to 7965
  139.4907  144.6431  151.6834 LP  0  0  0  0  0  0  0  0  0  0  0  0  # atno 17342 bound_to 10162
  140.5623  144.0248  150.6175 LP  0  0  0  0  0  0  0  0  0  0  0  0  # atno 17343 bound_to 10162
  157.4982  131.0916  151.0345 LP  0  0  0  0  0  0  0  0  0  0  0  0  # atno 17370 bound_to 10713
  157.0733  130.5873  149.5406 LP  0  0  0  0  0  0  0  0  0  0  0  0  # atno 17371 bound_to 10713
  141.2223  133.7189  156.8562 LP  0  0  0  0  0  0  0  0  0  0  0  0  # atno 17394 bound_to 11000
  140.1858  134.9001  157.3002 LP  0  0  0  0  0  0  0  0  0  0  0  0  # atno 17395 bound_to 11000

$$$$
