AV-unprocessed.smi:1567|AV-procd|sdf|6307|dock6
  -GOLD-   22720 6503D 1   1.00000     0.00000
 Structure written by MMmdl.
 42 44  0  0  0  0  0  0  0  0  1 V2000
  155.8216  139.4952  159.2442 O   0  0  0  0  0  0  0  0  0  0  0  0
  154.9776  138.4896  159.7607 C   0  0  0  0  0  0  0  0  0  0  0  0
  153.9365  138.0925  158.7034 C   0  0  0  0  0  0  0  0  0  0  0  0
  152.5105  138.5841  159.0131 C   0  0  0  0  0  0  0  0  0  0  0  0
  152.3504  140.0771  158.9210 C   0  0  0  0  0  0  0  0  0  0  0  0
  153.0871  140.8974  159.6723 N   0  0  0  0  0  0  0  0  0  0  0  0
  152.6530  142.1480  159.2818 C   0  0  0  0  0  0  0  0  0  0  0  0
  153.0397  143.4334  159.7240 C   0  0  0  0  0  0  0  0  0  0  0  0
  152.4494  144.5870  159.1675 C   0  0  0  0  0  0  0  0  0  0  0  0
  151.4677  144.4717  158.1624 C   0  0  0  0  0  0  0  0  0  0  0  0
  151.0695  143.2001  157.7070 C   0  0  0  0  0  0  0  0  0  0  0  0
  151.6606  142.0512  158.2668 C   0  0  0  0  0  0  0  0  0  0  0  0
  151.5030  140.6849  158.0488 N   0  0  0  0  0  0  0  0  0  0  0  0
  150.6102  140.0783  157.0691 C   0  0  0  0  0  0  0  0  0  0  0  0
  150.8303  140.6134  155.6410 C   0  0  1  0  0  0  0  0  0  0  0  0
  151.9784  140.0129  155.0712 O   0  0  0  0  0  0  0  0  0  0  0  0
  149.5878  140.4202  154.7832 C   0  0  0  0  0  0  0  0  0  0  0  0
  148.7259  141.5089  154.5217 C   0  0  0  0  0  0  0  0  0  0  0  0
  147.5805  141.3343  153.7216 C   0  0  0  0  0  0  0  0  0  0  0  0
  146.7598  142.3830  153.4775 F   0  0  0  0  0  0  0  0  0  0  0  0
  147.2895  140.0702  153.1745 C   0  0  0  0  0  0  0  0  0  0  0  0
  148.1472  138.9825  153.4253 C   0  0  0  0  0  0  0  0  0  0  0  0
  149.2948  139.1552  154.2241 C   0  0  0  0  0  0  0  0  0  0  0  0
  150.1141  138.0994  154.4469 F   0  0  0  0  0  0  0  0  0  0  0  0
  156.7196  139.2278  159.3682 H   0  0  0  0  0  0  0  0  0  0  0  0
  155.5896  137.6315  160.0375 H   0  0  0  0  0  0  0  0  0  0  0  0
  154.4975  138.8624  160.6661 H   0  0  0  0  0  0  0  0  0  0  0  0
  154.2446  138.4694  157.7271 H   0  0  0  0  0  0  0  0  0  0  0  0
  153.9200  137.0057  158.6137 H   0  0  0  0  0  0  0  0  0  0  0  0
  151.8123  138.1296  158.3097 H   0  0  0  0  0  0  0  0  0  0  0  0
  152.2216  138.2214  159.9979 H   0  0  0  0  0  0  0  0  0  0  0  0
  153.7911  143.5315  160.4933 H   0  0  0  0  0  0  0  0  0  0  0  0
  152.7515  145.5646  159.5132 H   0  0  0  0  0  0  0  0  0  0  0  0
  151.0197  145.3599  157.7413 H   0  0  0  0  0  0  0  0  0  0  0  0
  150.3158  143.1098  156.9391 H   0  0  0  0  0  0  0  0  0  0  0  0
  150.7591  138.9981  157.0882 H   0  0  0  0  0  0  0  0  0  0  0  0
  149.5793  140.2351  157.3866 H   0  0  0  0  0  0  0  0  0  0  0  0
  151.0457  141.6782  155.6945 H   0  0  0  0  0  0  0  0  0  0  0  0
  151.7874  139.1039  154.8972 H   0  0  0  0  0  0  0  0  0  0  0  0
  148.9421  142.4846  154.9320 H   0  0  0  0  0  0  0  0  0  0  0  0
  146.4110  139.9359  152.5606 H   0  0  0  0  0  0  0  0  0  0  0  0
  147.9258  138.0138  153.0022 H   0  0  0  0  0  0  0  0  0  0  0  0
  1  2  1  0  0  0  0
  1 25  1  0  0  0  0
  2  3  1  0  0  0  0
  2 26  1  0  0  0  0
  2 27  1  0  0  0  0
  3  4  1  0  0  0  0
  3 28  1  0  0  0  0
  3 29  1  0  0  0  0
  4  5  1  0  0  0  0
  4 30  1  0  0  0  0
  4 31  1  0  0  0  0
  5 13  1  0  0  0  0
  5  6  2  0  0  0  0
  6  7  1  0  0  0  0
  7 12  2  0  0  0  0
  7  8  1  0  0  0  0
  8  9  2  0  0  0  0
  8 32  1  0  0  0  0
  9 10  1  0  0  0  0
  9 33  1  0  0  0  0
 10 11  2  0  0  0  0
 10 34  1  0  0  0  0
 11 12  1  0  0  0  0
 11 35  1  0  0  0  0
 12 13  1  0  0  0  0
 13 14  1  0  0  0  0
 14 15  1  0  0  0  0
 14 36  1  0  0  0  0
 14 37  1  0  0  0  0
 15 16  1  0  0  0  0
 15 17  1  0  0  0  0
 15 38  1  0  0  0  0
 16 39  1  0  0  0  0
 17 23  1  0  0  0  0
 17 18  2  0  0  0  0
 18 19  1  0  0  0  0
 18 40  1  0  0  0  0
 19 20  1  0  0  0  0
 19 21  2  0  0  0  0
 21 22  1  0  0  0  0
 21 41  1  0  0  0  0
 22 23  2  0  0  0  0
 22 42  1  0  0  0  0
 23 24  1  0  0  0  0
M  END
> <s_m_source_file>
AV-unprocessed.smi

> <i_m_source_file_index>
1567

> <i_lp_mmshare_version>
43012

> <i_f3d_flags>
0

> <s_epik_input>
W09IXVtDSDJdW0NIMl1bQ0gyXWMobjEpbihjKGMxMilbY0hdW2NIXVtjSF1bY0hdMilbQ0gyXVtDQEhdKFtPSF0pYzNbY0hdYyhGKVtjSF1bY0hdYzNG

> <s_epik_cmdline>
J2VwaWtfcHl0aG9uJywgJy1waCcsICc3LjAnLCAnLXRuJywgJzgnLCAnLW1hJywgJzIwMCcsICctbWV0YWxfYmluZGluZycsICctaW1hZScsICc8aW5maWxlLm1hZT4nLCAnLW9tYWUnLCAnPG91dGZpbGUubWFlPic=

> <r_epik_Ionization_Penalty>
0.182562

> <r_epik_Ionization_Penalty_Charging>
0

> <r_epik_Ionization_Penalty_Neutral>
0.182562

> <r_epik_State_Penalty>
0.172086

> <r_epik_Charging_Adjusted_Penalty>
0.172086

> <i_epik_Tot_Q>
0

> <i_epik_Tot_abs_Q>
0

> <r_epik_Metal_State_Penalty>
0.000199649

> <b_epik_Metal_Only>
0

> <s_lp_Force_Field>
OPLS_2005

> <r_lp_Energy>
10.1612

> <b_lp_Chiralities_Consistent>
1

> <s_lp_Variant>
AV-unprocessed.smi:1567-2

> <Gold.Version>
5.8.1

> <Gold.Id.Protein>
6NUR|6NUR_protein|mol2

> <Gold.PLP.Fitness>
56.4005

> <Gold.PLP.PLP>
-52.6152

> <Gold.PLP.part.hbond>
-2.0000

> <Gold.PLP.part.metal>
0.0000

> <Gold.PLP.part.buried>
-5.3255

> <Gold.PLP.part.nonpolar>
-45.9378

> <Gold.PLP.part.repulsive>
0.0000

> <Gold.PLP.ligand.clash>
0.0000

> <Gold.PLP.ligand.torsion>
1.0173

> <Gold.PLP.Chemscore.Hbond>
1.9120

> <Gold.PLP.Chemscore.CHOScore>
0.0000

> <Gold.PLP.Chemscore.Metal>
0.0000

> <Gold.Chemscore.Hbonds>
donor molecule, donor type, donor heavy atom, donor atom, acceptor molecule, acceptor atom, score
      P1  H  7989  7998       L1    16  0.47
      P1  H  7997  8008       L1     1  1.00

> <Gold.PLP.Chemscore.Internal.Correction>
0.0838

> <Gold.Rescore>
     Score         DG    S(hbond)    S(metal)    S(lipo)     H(rot)  DE(clash)    DE(int)     intcor
     14.20     -16.75       1.73        0.00     117.47       3.23       0.03       2.52       ----

> <Gold.Chemscore.Fitness>
14.2037

> <Gold.Chemscore.DG>
-16.7532

> <Gold.Chemscore.ZeroCoef>
-5.4800

> <Gold.Chemscore.Hbond>
1.7345

> <Gold.Chemscore.Metal>
0.0000

> <Gold.Chemscore.Lipo>
117.4691

> <Gold.Chemscore.Internal_Hbond>
0.0000

> <Gold.Chemscore.DEClash>
0.0270

> <Gold.Chemscore.DEInternal>
2.5225

> <Gold.Chemscore.Rot>
3.2281

> <Gold.Chemscore.Internal.Correction>
   9.000000E+99

> <Gold.Chemscore.Hbonds>
donor molecule, donor type, donor heavy atom, donor atom, acceptor molecule, acceptor atom, score
      P1  H  7989  7998       L1    16  0.01
      P1  H  7997  8008       L1     1  0.70

> <Gold.Chemscore.Hbond.Weighted>
-5.7932

> <Gold.Chemscore.Metal.Weighted>
-0.0000

> <Gold.Chemscore.Lipo.Weighted>
-13.7439

> <Gold.Chemscore.Internal_Hbond.Weighted>
0.0000

> <Gold.Chemscore.DEClash.Weighted>
0.0270

> <Gold.Chemscore.DEInternal.Weighted>
2.5225

> <Gold.Chemscore.Rot.Weighted>
8.2639

> <Gold.Chemscore.Internal.Correction.Weighted>
   9.000000E+99

> <Gold.Protein.RotatedTorsions>
[ 6907 6896 6895 6894 ] final  -25.08 input  -60.11 | X-H torsion
[ 7974 7965 7964 7962 ] final   66.02 input  175.53 | X-H torsion
[ 8008 7997 7996 7995 ] final -129.00 input   59.86 | X-H torsion
[ 10167 10162 10161 10158 ] final  -19.51 input  -65.29 | X-H torsion
[ 10718 10713 10712 10709 ] final -101.06 input   66.30 | X-H torsion
[ 10763 10752 10751 10750 ] final  119.85 input  -60.55 | X-H torsion
[ 11005 11000 10999 10996 ] final    5.77 input  -57.11 | X-H torsion

> <Gold.Protein.ActiveResidues>
 VAL166  LYS551  ARG553  GLY616  TRP617  ASP618  TYR619  PRO620  LYS621  CYS622 
 ASP623  PHE694  ASN695  SER759  ASP760  ASP761  ALA762  ILE779  LEU786  VAL792 
 PHE793  MET794  SER795  GLU796  ALA797  LYS798  CYS799  TRP800  GLU811  SER814 

> <Gold.Protein.RotatedAtoms>
  151.1803  135.0358  159.8789 H   0  0  0  0  0  0  0  0  0  0  0  0  # atno 6907 bound_to 6896
  152.5445  134.1070  159.8352 H   0  0  0  0  0  0  0  0  0  0  0  0  # atno 6908 bound_to 6896
  151.1186  133.5073  159.2635 H   0  0  0  0  0  0  0  0  0  0  0  0  # atno 6909 bound_to 6896
  145.8316  139.3142  143.0984 H   0  0  0  0  0  0  0  0  0  0  0  0  # atno 7974 bound_to 7965
  155.2719  140.0440  157.3008 H   0  0  0  0  0  0  0  0  0  0  0  0  # atno 8008 bound_to 7997
  154.5648  140.2356  155.8249 H   0  0  0  0  0  0  0  0  0  0  0  0  # atno 8009 bound_to 7997
  156.2076  140.3008  155.9669 H   0  0  0  0  0  0  0  0  0  0  0  0  # atno 8010 bound_to 7997
  140.7269  143.4811  151.0116 H   0  0  0  0  0  0  0  0  0  0  0  0  # atno 10167 bound_to 10162
  156.0182  130.5356  150.6908 H   0  0  0  0  0  0  0  0  0  0  0  0  # atno 10718 bound_to 10713
  153.5893  135.3469  155.2905 H   0  0  0  0  0  0  0  0  0  0  0  0  # atno 10763 bound_to 10752
  154.8655  135.4201  154.2534 H   0  0  0  0  0  0  0  0  0  0  0  0  # atno 10764 bound_to 10752
  153.3337  135.7046  153.6996 H   0  0  0  0  0  0  0  0  0  0  0  0  # atno 10765 bound_to 10752
  140.5670  134.0138  155.7994 H   0  0  0  0  0  0  0  0  0  0  0  0  # atno 11005 bound_to 11000
  145.9565  140.8869  143.0232 LP  0  0  0  0  0  0  0  0  0  0  0  0  # atno 17320 bound_to 7965
  144.6739  140.1752  143.7410 LP  0  0  0  0  0  0  0  0  0  0  0  0  # atno 17321 bound_to 7965
  139.8510  143.7439  152.3178 LP  0  0  0  0  0  0  0  0  0  0  0  0  # atno 17342 bound_to 10162
  139.7621  144.7503  151.0349 LP  0  0  0  0  0  0  0  0  0  0  0  0  # atno 17343 bound_to 10162
  157.4590  131.0881  151.0766 LP  0  0  0  0  0  0  0  0  0  0  0  0  # atno 17370 bound_to 10713
  157.1259  130.6082  149.5517 LP  0  0  0  0  0  0  0  0  0  0  0  0  # atno 17371 bound_to 10713
  141.1079  133.9663  157.2963 LP  0  0  0  0  0  0  0  0  0  0  0  0  # atno 17394 bound_to 11000
  139.9380  135.0194  156.8617 LP  0  0  0  0  0  0  0  0  0  0  0  0  # atno 17395 bound_to 11000

$$$$
