AV-unprocessed.smi:951|AV-procd|sdf|4254|dock7
  -GOLD-   22720 2163D 1   1.00000     0.00000
 Structure written by MMmdl.
 52 54  0  0  0  0  0  0  0  0  2 V2000
  151.6524  137.6940  159.6146 O   0  0  0  0  0  0  0  0  0  0  0  0
  150.8361  137.6899  158.6921 C   0  0  0  0  0  0  0  0  0  0  0  0
  150.6628  138.7252  157.8554 N   0  0  0  0  0  0  0  0  0  0  0  0
  151.4008  139.9851  157.9018 C   0  0  0  0  0  0  0  0  0  0  0  0
  150.4727  141.2142  157.9695 C   0  0  0  0  0  0  0  0  0  0  0  0
  151.1860  142.5089  158.3222 C   0  0  0  0  0  0  0  0  0  0  0  0
  151.9739  142.6359  159.4864 C   0  0  0  0  0  0  0  0  0  0  0  0
  152.6356  143.8553  159.7411 C   0  0  0  0  0  0  0  0  0  0  0  0
  152.4958  144.9208  158.8279 C   0  0  0  0  0  0  0  0  0  0  0  0
  151.6969  144.7399  157.6809 C   0  0  0  0  0  0  0  0  0  0  0  0
  151.0793  143.5568  157.4721 N   0  3  0  0  0  0  0  0  0  0  0  0
  149.9835  136.4377  158.4114 C   0  0  1  0  0  0  0  0  0  0  0  0
  150.8645  135.3562  157.7643 C   0  0  0  0  0  0  0  0  0  0  0  0
  150.2486  134.0434  158.2035 C   0  0  0  0  0  0  0  0  0  0  0  0
  149.6198  134.3463  159.5620 C   0  0  0  0  0  0  0  0  0  0  0  0
  149.3982  135.7955  159.6064 N   0  0  0  0  0  0  0  0  0  0  0  0
  148.6725  136.4316  160.5632 C   0  0  0  0  0  0  0  0  0  0  0  0
  148.4100  137.6320  160.4823 O   0  0  0  0  0  0  0  0  0  0  0  0
  148.1474  135.6315  161.7817 C   0  0  0  0  0  0  0  0  0  0  0  0
  147.1933  134.4910  161.3553 C   0  0  0  0  0  0  0  0  0  0  0  0
  145.7887  134.9885  160.9723 C   0  0  0  0  0  0  0  0  0  0  0  0
  145.1582  135.7889  162.1203 C   0  0  0  0  0  0  0  0  0  0  0  0
  146.0479  136.9735  162.5245 C   0  0  0  0  0  0  0  0  0  0  0  0
  147.4828  136.5202  162.8652 C   0  0  0  0  0  0  0  0  0  0  0  0
  149.9654  138.6332  157.1307 H   0  0  0  0  0  0  0  0  0  0  0  0
  152.0443  139.9671  158.7817 H   0  0  0  0  0  0  0  0  0  0  0  0
  152.0691  140.0716  157.0434 H   0  0  0  0  0  0  0  0  0  0  0  0
  149.9662  141.3417  157.0116 H   0  0  0  0  0  0  0  0  0  0  0  0
  149.6861  141.0362  158.7034 H   0  0  0  0  0  0  0  0  0  0  0  0
  152.0782  141.8073  160.1720 H   0  0  0  0  0  0  0  0  0  0  0  0
  153.2449  143.9712  160.6255 H   0  0  0  0  0  0  0  0  0  0  0  0
  152.9959  145.8620  159.0039 H   0  0  0  0  0  0  0  0  0  0  0  0
  151.5369  145.4980  156.9281 H   0  0  0  0  0  0  0  0  0  0  0  0
  149.1600  136.6898  157.7404 H   0  0  0  0  0  0  0  0  0  0  0  0
  150.9107  135.4498  156.6787 H   0  0  0  0  0  0  0  0  0  0  0  0
  151.8887  135.4007  158.1402 H   0  0  0  0  0  0  0  0  0  0  0  0
  149.4651  133.7623  157.4986 H   0  0  0  0  0  0  0  0  0  0  0  0
  150.9690  133.2258  158.2422 H   0  0  0  0  0  0  0  0  0  0  0  0
  148.6991  133.7781  159.6981 H   0  0  0  0  0  0  0  0  0  0  0  0
  150.3141  134.0694  160.3567 H   0  0  0  0  0  0  0  0  0  0  0  0
  149.0015  135.1762  162.2797 H   0  0  0  0  0  0  0  0  0  0  0  0
  147.6181  133.9295  160.5225 H   0  0  0  0  0  0  0  0  0  0  0  0
  147.1045  133.7793  162.1770 H   0  0  0  0  0  0  0  0  0  0  0  0
  145.8395  135.6061  160.0749 H   0  0  0  0  0  0  0  0  0  0  0  0
  145.1530  134.1385  160.7228 H   0  0  0  0  0  0  0  0  0  0  0  0
  144.1719  136.1485  161.8262 H   0  0  0  0  0  0  0  0  0  0  0  0
  145.0057  135.1356  162.9804 H   0  0  0  0  0  0  0  0  0  0  0  0
  146.0593  137.7100  161.7219 H   0  0  0  0  0  0  0  0  0  0  0  0
  145.6119  137.4811  163.3853 H   0  0  0  0  0  0  0  0  0  0  0  0
  147.4529  135.9592  163.8001 H   0  0  0  0  0  0  0  0  0  0  0  0
  148.1033  137.3942  163.0680 H   0  0  0  0  0  0  0  0  0  0  0  0
  150.5114  143.4459  156.6319 H   0  0  0  0  0  0  0  0  0  0  0  0
  1  2  2  0  0  0  0
  2  3  1  0  0  0  0
  2 12  1  0  0  0  0
  3  4  1  0  0  0  0
  3 25  1  0  0  0  0
  4  5  1  0  0  0  0
  4 26  1  0  0  0  0
  4 27  1  0  0  0  0
  5  6  1  0  0  0  0
  5 28  1  0  0  0  0
  5 29  1  0  0  0  0
  6 11  1  0  0  0  0
  6  7  2  0  0  0  0
  7  8  1  0  0  0  0
  7 30  1  0  0  0  0
  8  9  2  0  0  0  0
  8 31  1  0  0  0  0
  9 10  1  0  0  0  0
  9 32  1  0  0  0  0
 10 11  2  0  0  0  0
 10 33  1  0  0  0  0
 11 52  1  0  0  0  0
 12 16  1  0  0  0  0
 12 13  1  0  0  0  0
 12 34  1  0  0  0  0
 13 14  1  0  0  0  0
 13 35  1  0  0  0  0
 13 36  1  0  0  0  0
 14 15  1  0  0  0  0
 14 37  1  0  0  0  0
 14 38  1  0  0  0  0
 15 16  1  0  0  0  0
 15 39  1  0  0  0  0
 15 40  1  0  0  0  0
 16 17  1  0  0  0  0
 17 18  2  0  0  0  0
 17 19  1  0  0  0  0
 19 24  1  0  0  0  0
 19 20  1  0  0  0  0
 19 41  1  0  0  0  0
 20 21  1  0  0  0  0
 20 42  1  0  0  0  0
 20 43  1  0  0  0  0
 21 22  1  0  0  0  0
 21 44  1  0  0  0  0
 21 45  1  0  0  0  0
 22 23  1  0  0  0  0
 22 46  1  0  0  0  0
 22 47  1  0  0  0  0
 23 24  1  0  0  0  0
 23 48  1  0  0  0  0
 23 49  1  0  0  0  0
 24 50  1  0  0  0  0
 24 51  1  0  0  0  0
M  CHG  1  11   1
M  END
> <s_m_source_file>
AV-unprocessed.smi

> <i_m_source_file_index>
951

> <i_lp_mmshare_version>
43012

> <i_f3d_flags>
0

> <s_epik_input>
bjFbY0hdW2NIXVtjSF1bY0hdYzFbQ0gyXVtDSDJdW05IXUMoPU8pW0NAQEhdMltDSDJdW0NIMl1bQ0gyXU4yQyg9TylbQ0hdM1tDSDJdW0NIMl1bQ0gyXVtDSDJdW0NIMl0z

> <s_epik_cmdline>
J2VwaWtfcHl0aG9uJywgJy1waCcsICc3LjAnLCAnLXRuJywgJzgnLCAnLW1hJywgJzIwMCcsICctbWV0YWxfYmluZGluZycsICctaW1hZScsICc8aW5maWxlLm1hZT4nLCAnLW9tYWUnLCAnPG91dGZpbGUubWFlPic=

> <r_epik_Ionization_Penalty>
1.85306

> <r_epik_Ionization_Penalty_Charging>
1.85306

> <r_epik_Ionization_Penalty_Neutral>
5.78903e-08

> <r_epik_State_Penalty>
1.97071

> <r_epik_Charging_Adjusted_Penalty>
3.82377

> <i_epik_Tot_Q>
1

> <i_epik_Tot_abs_Q>
1

> <r_epik_Metal_State_Penalty>
1.99634

> <b_epik_Metal_Only>
0

> <s_lp_Force_Field>
OPLS_2005

> <r_lp_Energy>
29.0494

> <b_lp_Chiralities_Consistent>
1

> <s_lp_Variant>
AV-unprocessed.smi:951-4

> <Gold.Version>
5.8.1

> <Gold.Id.Protein>
6NUR|6NUR_protein|mol2

> <Gold.PLP.Fitness>
48.7565

> <Gold.PLP.PLP>
-40.0039

> <Gold.PLP.part.hbond>
-3.0000

> <Gold.PLP.part.metal>
0.0000

> <Gold.PLP.part.buried>
-4.5462

> <Gold.PLP.part.nonpolar>
-32.2887

> <Gold.PLP.part.repulsive>
0.0692

> <Gold.PLP.ligand.clash>
0.0000

> <Gold.PLP.ligand.torsion>
0.5353

> <Gold.PLP.Chemscore.Hbond>
3.2469

> <Gold.PLP.Chemscore.CHOScore>
0.0000

> <Gold.PLP.Chemscore.Metal>
0.0000

> <Gold.Chemscore.Hbonds>
donor molecule, donor type, donor heavy atom, donor atom, acceptor molecule, acceptor atom, score
      L1  H    11    52       P1  8028  0.51
      P1  H  6931  6943       L1    18  0.51
      P1  H  6934  6947       L1    18  0.43

> <Gold.PLP.Chemscore.Internal.Correction>
0.0825

> <Gold.Rescore>
     Score         DG    S(hbond)    S(metal)    S(lipo)     H(rot)  DE(clash)    DE(int)     intcor
     19.33     -21.98       2.15        0.00     115.84       1.65       0.34       2.30       ----

> <Gold.Chemscore.Fitness>
19.3347

> <Gold.Chemscore.DG>
-21.9759

> <Gold.Chemscore.ZeroCoef>
-5.4800

> <Gold.Chemscore.Hbond>
2.1494

> <Gold.Chemscore.Metal>
0.0000

> <Gold.Chemscore.Lipo>
115.8374

> <Gold.Chemscore.Internal_Hbond>
0.0000

> <Gold.Chemscore.DEClash>
0.3410

> <Gold.Chemscore.DEInternal>
2.3002

> <Gold.Chemscore.Rot>
1.6548

> <Gold.Chemscore.Internal.Correction>
   9.000000E+99

> <Gold.Chemscore.Hbonds>
donor molecule, donor type, donor heavy atom, donor atom, acceptor molecule, acceptor atom, score
      L1  H    11    52       P1  8028  0.26
      P1  H  6931  6943       L1    18  0.23
      P1  H  6934  6947       L1    18  0.44

> <Gold.Chemscore.Hbond.Weighted>
-7.1791

> <Gold.Chemscore.Metal.Weighted>
-0.0000

> <Gold.Chemscore.Lipo.Weighted>
-13.5530

> <Gold.Chemscore.Internal_Hbond.Weighted>
0.0000

> <Gold.Chemscore.DEClash.Weighted>
0.3410

> <Gold.Chemscore.DEInternal.Weighted>
2.3002

> <Gold.Chemscore.Rot.Weighted>
4.2362

> <Gold.Chemscore.Internal.Correction.Weighted>
   9.000000E+99

> <Gold.Protein.RotatedTorsions>
[ 6907 6896 6895 6894 ] final  178.78 input  -60.11 | X-H torsion
[ 7974 7965 7964 7962 ] final  -33.74 input  175.53 | X-H torsion
[ 8008 7997 7996 7995 ] final   21.55 input   59.86 | X-H torsion
[ 10167 10162 10161 10158 ] final  145.66 input  -65.29 | X-H torsion
[ 10718 10713 10712 10709 ] final  -36.17 input   66.30 | X-H torsion
[ 10763 10752 10751 10750 ] final   37.88 input  -60.55 | X-H torsion
[ 11005 11000 10999 10996 ] final  -83.54 input  -57.11 | X-H torsion

> <Gold.Protein.ActiveResidues>
 VAL166  LYS551  ARG553  GLY616  TRP617  ASP618  TYR619  PRO620  LYS621  CYS622 
 ASP623  PHE694  ASN695  SER759  ASP760  ASP761  ALA762  ILE779  LEU786  VAL792 
 PHE793  MET794  SER795  GLU796  ALA797  LYS798  CYS799  TRP800  GLU811  SER814 

> <Gold.Protein.RotatedAtoms>
  151.6823  133.3312  159.3222 H   0  0  0  0  0  0  0  0  0  0  0  0  # atno 6907 bound_to 6896
  150.7817  134.6770  159.6432 H   0  0  0  0  0  0  0  0  0  0  0  0  # atno 6908 bound_to 6896
  152.3876  134.6496  160.0172 H   0  0  0  0  0  0  0  0  0  0  0  0  # atno 6909 bound_to 6896
  146.0886  140.5953  142.8875 H   0  0  0  0  0  0  0  0  0  0  0  0  # atno 7974 bound_to 7965
  154.9523  140.3067  155.5069 H   0  0  0  0  0  0  0  0  0  0  0  0  # atno 8008 bound_to 7997
  156.2986  140.2316  156.4540 H   0  0  0  0  0  0  0  0  0  0  0  0  # atno 8009 bound_to 7997
  154.8043  140.0432  157.1284 H   0  0  0  0  0  0  0  0  0  0  0  0  # atno 8010 bound_to 7997
  139.4922  144.5885  151.6728 H   0  0  0  0  0  0  0  0  0  0  0  0  # atno 10167 bound_to 10162
  156.3300  130.4278  149.7881 H   0  0  0  0  0  0  0  0  0  0  0  0  # atno 10718 bound_to 10713
  153.0021  135.6265  154.2216 H   0  0  0  0  0  0  0  0  0  0  0  0  # atno 10763 bound_to 10752
  154.1959  135.2806  155.3008 H   0  0  0  0  0  0  0  0  0  0  0  0  # atno 10764 bound_to 10752
  154.5722  135.5673  153.7165 H   0  0  0  0  0  0  0  0  0  0  0  0  # atno 10765 bound_to 10752
  141.1657  133.7299  156.8735 H   0  0  0  0  0  0  0  0  0  0  0  0  # atno 11005 bound_to 11000
  144.7344  140.4765  143.6915 LP  0  0  0  0  0  0  0  0  0  0  0  0  # atno 17320 bound_to 7965
  145.6082  139.1510  143.3091 LP  0  0  0  0  0  0  0  0  0  0  0  0  # atno 17321 bound_to 7965
  140.5507  144.0430  150.6126 LP  0  0  0  0  0  0  0  0  0  0  0  0  # atno 17342 bound_to 10162
  140.3483  143.2978  152.0515 LP  0  0  0  0  0  0  0  0  0  0  0  0  # atno 17343 bound_to 10162
  156.5158  130.8192  151.3185 LP  0  0  0  0  0  0  0  0  0  0  0  0  # atno 17370 bound_to 10713
  157.7428  130.9899  150.2547 LP  0  0  0  0  0  0  0  0  0  0  0  0  # atno 17371 bound_to 10713
  140.1765  134.9063  157.2897 LP  0  0  0  0  0  0  0  0  0  0  0  0  # atno 17394 bound_to 11000
  140.2443  134.3758  155.7467 LP  0  0  0  0  0  0  0  0  0  0  0  0  # atno 17395 bound_to 11000

$$$$
