AV-unprocessed.smi:193|AV-procd|sdf|1504|dock4
  -GOLD-   2262019333D 1   1.00000     0.00000
 Structure written by MMmdl.
 62 66  0  0  0  0  0  0  0  0  2 V2000
  147.1503  128.4324  151.7592 C   0  0  0  0  0  0  0  0  0  0  0  0
  147.0604  129.9609  151.8981 C   0  0  2  0  0  0  0  0  0  0  0  0
  147.6926  130.3931  153.2379 C   0  0  0  0  0  0  0  0  0  0  0  0
  148.1489  131.7845  153.2667 N   0  0  0  0  0  0  0  0  0  0  0  0
  149.0670  132.1395  154.2034 C   0  0  0  0  0  0  0  0  0  0  0  0
  149.8762  131.1825  154.7305 N   0  0  0  0  0  0  0  0  0  0  0  0
  150.7756  131.4979  155.6670 C   0  0  0  0  0  0  0  0  0  0  0  0
  151.0301  132.6887  156.2112 N   0  0  0  0  0  0  0  0  0  0  0  0
  150.2303  133.6569  155.6804 C   0  0  0  0  0  0  0  0  0  0  0  0
  149.2366  133.4730  154.6773 C   0  0  0  0  0  0  0  0  0  0  0  0
  148.6439  134.6937  154.3723 N   0  0  0  0  0  0  0  0  0  0  0  0
  149.2417  135.5454  155.1597 C   0  0  0  0  0  0  0  0  0  0  0  0
  150.1967  135.0053  155.9908 N   0  0  0  0  0  0  0  0  0  0  0  0
  150.9992  135.7174  156.9736 C   0  0  0  0  0  0  0  0  0  0  0  0
  151.1471  137.2327  156.6846 C   0  0  0  0  0  0  0  0  0  0  0  0
  149.9090  137.8544  156.9821 O   0  0  0  0  0  0  0  0  0  0  0  0
  152.2294  137.8492  157.5931 C   0  0  0  0  0  0  0  0  0  0  0  0
  152.5358  139.3113  157.2231 C   0  0  0  0  0  0  0  0  0  0  0  0
  152.9000  139.3997  155.8511 O   0  0  0  0  0  0  0  0  0  0  0  0
  151.8487  139.0062  154.9780 C   0  0  0  0  0  0  0  0  0  0  0  0
  151.4945  137.5263  155.2083 C   0  0  0  0  0  0  0  0  0  0  0  0
  147.4353  132.8578  152.5756 C   0  0  0  0  0  0  0  0  0  0  0  0
  145.9097  132.7085  152.6275 C   0  0  0  0  0  0  0  0  0  0  0  0
  145.4166  131.8545  151.5212 N   0  3  2  0  0  0  0  0  0  0  0  0
  144.0199  132.1891  151.1559 C   0  0  2  0  0  0  0  0  0  0  0  0
  143.8040  132.4027  149.6745 C   0  0  0  0  0  0  0  0  0  0  0  0
  143.8175  133.5919  150.6099 C   0  0  2  0  0  0  0  0  0  0  0  0
  144.9284  134.6226  150.5171 C   0  0  0  0  0  0  0  0  0  0  0  0
  145.5847  130.4036  151.7811 C   0  0  0  0  0  0  0  0  0  0  0  0
  146.6049  127.9282  152.5578 H   0  0  0  0  0  0  0  0  0  0  0  0
  148.1860  128.0932  151.7982 H   0  0  0  0  0  0  0  0  0  0  0  0
  146.7369  128.0955  150.8081 H   0  0  0  0  0  0  0  0  0  0  0  0
  147.6336  130.3849  151.0718 H   0  0  0  0  0  0  0  0  0  0  0  0
  147.0013  130.2134  154.0624 H   0  0  0  0  0  0  0  0  0  0  0  0
  148.5632  129.7628  153.4270 H   0  0  0  0  0  0  0  0  0  0  0  0
  151.3759  130.6790  156.0354 H   0  0  0  0  0  0  0  0  0  0  0  0
  148.9929  136.5969  155.1638 H   0  0  0  0  0  0  0  0  0  0  0  0
  150.5568  135.5594  157.9586 H   0  0  0  0  0  0  0  0  0  0  0  0
  151.9828  135.2470  157.0055 H   0  0  0  0  0  0  0  0  0  0  0  0
  149.3663  137.2374  157.4486 H   0  0  0  0  0  0  0  0  0  0  0  0
  151.9326  137.7833  158.6407 H   0  0  0  0  0  0  0  0  0  0  0  0
  153.1501  137.2714  157.5008 H   0  0  0  0  0  0  0  0  0  0  0  0
  151.6809  139.9580  157.4271 H   0  0  0  0  0  0  0  0  0  0  0  0
  153.3624  139.6827  157.8290 H   0  0  0  0  0  0  0  0  0  0  0  0
  150.9780  139.6466  155.1259 H   0  0  0  0  0  0  0  0  0  0  0  0
  152.1753  139.1535  153.9485 H   0  0  0  0  0  0  0  0  0  0  0  0
  152.3479  136.9154  154.9116 H   0  0  0  0  0  0  0  0  0  0  0  0
  150.6715  137.2445  154.5506 H   0  0  0  0  0  0  0  0  0  0  0  0
  147.6738  133.8119  153.0466 H   0  0  0  0  0  0  0  0  0  0  0  0
  147.7868  132.9323  151.5458 H   0  0  0  0  0  0  0  0  0  0  0  0
  145.5609  132.3541  153.5990 H   0  0  0  0  0  0  0  0  0  0  0  0
  145.4856  133.7055  152.5035 H   0  0  0  0  0  0  0  0  0  0  0  0
  143.2454  131.7121  151.7543 H   0  0  0  0  0  0  0  0  0  0  0  0
  144.6537  132.2757  149.0060 H   0  0  0  0  0  0  0  0  0  0  0  0
  142.8418  132.1085  149.2598 H   0  0  0  0  0  0  0  0  0  0  0  0
  142.8470  134.0340  150.8264 H   0  0  0  0  0  0  0  0  0  0  0  0
  145.8685  134.1695  150.2016 H   0  0  0  0  0  0  0  0  0  0  0  0
  145.0782  135.1026  151.4843 H   0  0  0  0  0  0  0  0  0  0  0  0
  144.6612  135.3900  149.7905 H   0  0  0  0  0  0  0  0  0  0  0  0
  145.1287  129.8646  150.9495 H   0  0  0  0  0  0  0  0  0  0  0  0
  145.0225  130.1160  152.6711 H   0  0  0  0  0  0  0  0  0  0  0  0
  145.9758  132.0768  150.7099 H   0  0  0  0  0  0  0  0  0  0  0  0
  1  2  1  0  0  0  0
  1 30  1  0  0  0  0
  1 31  1  0  0  0  0
  1 32  1  0  0  0  0
  2 29  1  0  0  0  0
  2  3  1  0  0  0  0
  2 33  1  0  0  0  0
  3  4  1  0  0  0  0
  3 34  1  0  0  0  0
  3 35  1  0  0  0  0
  4  5  1  0  0  0  0
  4 22  1  0  0  0  0
  5 10  1  0  0  0  0
  5  6  2  0  0  0  0
  6  7  1  0  0  0  0
  7  8  2  0  0  0  0
  7 36  1  0  0  0  0
  8  9  1  0  0  0  0
  9 13  1  0  0  0  0
  9 10  2  0  0  0  0
 10 11  1  0  0  0  0
 11 12  2  0  0  0  0
 12 13  1  0  0  0  0
 12 37  1  0  0  0  0
 13 14  1  0  0  0  0
 14 15  1  0  0  0  0
 14 38  1  0  0  0  0
 14 39  1  0  0  0  0
 15 21  1  0  0  0  0
 15 16  1  0  0  0  0
 15 17  1  0  0  0  0
 16 40  1  0  0  0  0
 17 18  1  0  0  0  0
 17 41  1  0  0  0  0
 17 42  1  0  0  0  0
 18 19  1  0  0  0  0
 18 43  1  0  0  0  0
 18 44  1  0  0  0  0
 19 20  1  0  0  0  0
 20 21  1  0  0  0  0
 20 45  1  0  0  0  0
 20 46  1  0  0  0  0
 21 47  1  0  0  0  0
 21 48  1  0  0  0  0
 22 23  1  0  0  0  0
 22 49  1  0  0  0  0
 22 50  1  0  0  0  0
 23 24  1  0  0  0  0
 23 51  1  0  0  0  0
 23 52  1  0  0  0  0
 24 25  1  0  0  0  0
 24 29  1  0  0  0  0
 24 62  1  0  0  0  0
 25 27  1  0  0  0  0
 25 26  1  0  0  0  0
 25 53  1  0  0  0  0
 26 27  1  0  0  0  0
 26 54  1  0  0  0  0
 26 55  1  0  0  0  0
 27 28  1  0  0  0  0
 27 56  1  0  0  0  0
 28 57  1  0  0  0  0
 28 58  1  0  0  0  0
 28 59  1  0  0  0  0
 29 60  1  0  0  0  0
 29 61  1  0  0  0  0
M  CHG  1  24   1
M  END
> <s_m_source_file>
AV-unprocessed.smi

> <i_m_source_file_index>
193

> <i_lp_mmshare_version>
43012

> <i_f3d_flags>
0

> <s_epik_input>
W0NIM11bQ0BASF0xW0NIMl1bQ0BIXTFOKFtDSDJdMilbQ0gyXVtDSDJdTihbQ0gyXVtDQEhdMltDSDNdKWMobltjSF1uMyljKGMzNCluW2NIXW40W0NIMl1DNShbT0hdKVtDSDJdW0NIMl1PW0NIMl1bQ0gyXTU=

> <s_epik_cmdline>
J2VwaWtfcHl0aG9uJywgJy1waCcsICc3LjAnLCAnLXRuJywgJzgnLCAnLW1hJywgJzIwMCcsICctbWV0YWxfYmluZGluZycsICctaW1hZScsICc8aW5maWxlLm1hZT4nLCAnLW9tYWUnLCAnPG91dGZpbGUubWFlPic=

> <r_lp_tautomer_probability>
1

> <r_epik_Ionization_Penalty>
0.0540825

> <r_epik_Ionization_Penalty_Charging>
0.0538476

> <r_epik_Ionization_Penalty_Neutral>
0.000234891

> <r_epik_State_Penalty>
0.0200719

> <r_epik_Charging_Adjusted_Penalty>
0.0739194

> <i_epik_Tot_Q>
1

> <i_epik_Tot_abs_Q>
1

> <r_epik_Metal_State_Penalty>
0.0199414

> <b_epik_Metal_Only>
0

> <s_lp_Force_Field>
OPLS_2005

> <r_lp_Energy>
56.2911

> <b_lp_Chiralities_Consistent>
1

> <s_lp_Variant>
AV-unprocessed.smi:193-9

> <Gold.Version>
5.8.1

> <Gold.Id.Protein>
6NUR|6NUR_protein|mol2

> <Gold.PLP.Fitness>
46.8088

> <Gold.PLP.PLP>
-45.0558

> <Gold.PLP.part.hbond>
-1.0000

> <Gold.PLP.part.metal>
0.0000

> <Gold.PLP.part.buried>
-0.1999

> <Gold.PLP.part.nonpolar>
-44.1829

> <Gold.PLP.part.repulsive>
1.4366

> <Gold.PLP.ligand.clash>
0.0000

> <Gold.PLP.ligand.torsion>
1.2823

> <Gold.PLP.Chemscore.Hbond>
1.0000

> <Gold.PLP.Chemscore.CHOScore>
0.0000

> <Gold.PLP.Chemscore.Metal>
0.0000

> <Gold.Chemscore.Hbonds>
donor molecule, donor type, donor heavy atom, donor atom, acceptor molecule, acceptor atom, score
      P1  H  7997  8008       L1    19  1.00

> <Gold.PLP.Chemscore.Internal.Correction>
1.3175

> <Gold.Rescore>
     Score         DG    S(hbond)    S(metal)    S(lipo)     H(rot)  DE(clash)    DE(int)     intcor
      9.08     -16.16       0.82        0.00     110.01       1.93       1.70       5.39       ----

> <Gold.Chemscore.Fitness>
9.0774

> <Gold.Chemscore.DG>
-16.1645

> <Gold.Chemscore.ZeroCoef>
-5.4800

> <Gold.Chemscore.Hbond>
0.8237

> <Gold.Chemscore.Metal>
0.0000

> <Gold.Chemscore.Lipo>
110.0128

> <Gold.Chemscore.Internal_Hbond>
0.0000

> <Gold.Chemscore.DEClash>
1.6952

> <Gold.Chemscore.DEInternal>
5.3919

> <Gold.Chemscore.Rot>
1.9290

> <Gold.Chemscore.Internal.Correction>
   9.000000E+99

> <Gold.Chemscore.Hbonds>
donor molecule, donor type, donor heavy atom, donor atom, acceptor molecule, acceptor atom, score
      P1  H  7997  8008       L1    19  0.25

> <Gold.Chemscore.Hbond.Weighted>
-2.7513

> <Gold.Chemscore.Metal.Weighted>
-0.0000

> <Gold.Chemscore.Lipo.Weighted>
-12.8715

> <Gold.Chemscore.Internal_Hbond.Weighted>
0.0000

> <Gold.Chemscore.DEClash.Weighted>
1.6952

> <Gold.Chemscore.DEInternal.Weighted>
5.3919

> <Gold.Chemscore.Rot.Weighted>
4.9383

> <Gold.Chemscore.Internal.Correction.Weighted>
   9.000000E+99

> <Gold.Protein.RotatedTorsions>
[ 6907 6896 6895 6894 ] final  141.49 input  -60.11 | X-H torsion
[ 7974 7965 7964 7962 ] final  130.28 input  175.53 | X-H torsion
[ 8008 7997 7996 7995 ] final  -21.72 input   59.86 | X-H torsion
[ 10167 10162 10161 10158 ] final   -8.85 input  -65.29 | X-H torsion
[ 10718 10713 10712 10709 ] final -179.17 input   66.30 | X-H torsion
[ 10763 10752 10751 10750 ] final -163.64 input  -60.55 | X-H torsion
[ 11005 11000 10999 10996 ] final -109.60 input  -57.11 | X-H torsion

> <Gold.Protein.ActiveResidues>
 VAL166  LYS551  ARG553  GLY616  TRP617  ASP618  TYR619  PRO620  LYS621  CYS622 
 ASP623  PHE694  ASN695  SER759  ASP760  ASP761  ALA762  ILE779  LEU786  VAL792 
 PHE793  MET794  SER795  GLU796  ALA797  LYS798  CYS799  TRP800  GLU811  SER814 

> <Gold.Protein.RotatedAtoms>
  152.2303  133.5053  159.5211 H   0  0  0  0  0  0  0  0  0  0  0  0  # atno 6907 bound_to 6896
  150.7036  134.1225  159.4049 H   0  0  0  0  0  0  0  0  0  0  0  0  # atno 6908 bound_to 6896
  151.9146  135.0324  160.0568 H   0  0  0  0  0  0  0  0  0  0  0  0  # atno 6909 bound_to 6896
  145.0196  139.4144  143.5204 H   0  0  0  0  0  0  0  0  0  0  0  0  # atno 7974 bound_to 7965
  154.4688  140.2027  156.0048 H   0  0  0  0  0  0  0  0  0  0  0  0  # atno 8008 bound_to 7997
  156.0974  140.3249  155.7867 H   0  0  0  0  0  0  0  0  0  0  0  0  # atno 8009 bound_to 7997
  155.4854  140.0542  157.2952 H   0  0  0  0  0  0  0  0  0  0  0  0  # atno 8010 bound_to 7997
  140.7071  143.5923  150.8881 H   0  0  0  0  0  0  0  0  0  0  0  0  # atno 10167 bound_to 10162
  156.8551  130.9732  151.3089 H   0  0  0  0  0  0  0  0  0  0  0  0  # atno 10718 bound_to 10713
  154.7104  135.3005  154.9206 H   0  0  0  0  0  0  0  0  0  0  0  0  # atno 10763 bound_to 10752
  154.0110  135.6695  153.4769 H   0  0  0  0  0  0  0  0  0  0  0  0  # atno 10764 bound_to 10752
  153.0750  135.5040  154.8299 H   0  0  0  0  0  0  0  0  0  0  0  0  # atno 10765 bound_to 10752
  141.0838  133.9174  157.2230 H   0  0  0  0  0  0  0  0  0  0  0  0  # atno 11005 bound_to 11000
  146.3483  139.9686  142.8709 LP  0  0  0  0  0  0  0  0  0  0  0  0  # atno 17320 bound_to 7965
  145.1913  140.9813  143.4209 LP  0  0  0  0  0  0  0  0  0  0  0  0  # atno 17321 bound_to 7965
  139.9648  143.6123  152.2991 LP  0  0  0  0  0  0  0  0  0  0  0  0  # atno 17342 bound_to 10162
  139.6688  144.7661  151.1822 LP  0  0  0  0  0  0  0  0  0  0  0  0  # atno 17343 bound_to 10162
  157.6282  130.8708  149.9226 LP  0  0  0  0  0  0  0  0  0  0  0  0  # atno 17370 bound_to 10713
  156.0807  130.3673  150.0586 LP  0  0  0  0  0  0  0  0  0  0  0  0  # atno 17371 bound_to 10713
  139.9654  135.0143  156.9374 LP  0  0  0  0  0  0  0  0  0  0  0  0  # atno 17394 bound_to 11000
  140.5408  134.0721  155.7341 LP  0  0  0  0  0  0  0  0  0  0  0  0  # atno 17395 bound_to 11000

$$$$
