AV-unprocessed.smi:160|AV-procd|sdf|1372|dock1
  -GOLD-   2262019 93D 1   1.00000     0.00000
 Structure written by MMmdl.
 28 29  0  0  0  0  0  0  0  0  2 V2000
  154.1328  136.1615  156.9016 N   0  5  0  0  0  0  0  0  0  0  0  0
  153.7625  137.4512  157.0590 C   0  0  0  0  0  0  0  0  0  0  0  0
  154.1601  138.2208  157.9332 O   0  0  0  0  0  0  0  0  0  0  0  0
  152.7644  137.9450  156.0383 C   0  0  0  0  0  0  0  0  0  0  0  0
  152.3138  137.1180  155.0463 N   0  0  0  0  0  0  0  0  0  0  0  0
  151.4970  137.9575  154.4238 C   0  0  0  0  0  0  0  0  0  0  0  0
  151.4348  139.1732  154.9783 N   0  0  0  0  0  0  0  0  0  0  0  0
  150.6795  140.4043  154.5857 C   0  0  1  0  0  0  0  0  0  0  0  0
  149.7141  140.0387  153.6455 O   0  0  0  0  0  0  0  0  0  0  0  0
  148.4804  139.7875  154.3094 C   0  0  2  0  0  0  0  0  0  0  0  0
  147.3025  139.7771  153.3184 C   0  0  0  0  0  0  0  0  0  0  0  0
  147.5680  138.8857  152.2562 O   0  0  0  0  0  0  0  0  0  0  0  0
  148.4592  140.9088  155.3559 C   0  0  2  0  0  0  0  0  0  0  0  0
  148.0110  142.1233  154.7750 O   0  0  0  0  0  0  0  0  0  0  0  0
  149.9211  140.9728  155.8020 C   0  0  2  0  0  0  0  0  0  0  0  0
  150.3317  142.2801  156.1577 O   0  0  0  0  0  0  0  0  0  0  0  0
  152.2774  139.1901  156.0392 N   0  0  0  0  0  0  0  0  0  0  0  0
  151.4308  141.0679  154.1555 H   0  0  0  0  0  0  0  0  0  0  0  0
  148.5392  138.8302  154.8314 H   0  0  0  0  0  0  0  0  0  0  0  0
  147.7981  140.6696  156.1895 H   0  0  0  0  0  0  0  0  0  0  0  0
  150.0613  140.3159  156.6621 H   0  0  0  0  0  0  0  0  0  0  0  0
  154.8899  135.7957  157.4910 H   0  0  0  0  0  0  0  0  0  0  0  0
  150.9339  137.6780  153.5454 H   0  0  0  0  0  0  0  0  0  0  0  0
  146.3962  139.4301  153.8161 H   0  0  0  0  0  0  0  0  0  0  0  0
  147.0995  140.7756  152.9299 H   0  0  0  0  0  0  0  0  0  0  0  0
  148.4364  139.0617  151.9271 H   0  0  0  0  0  0  0  0  0  0  0  0
  148.3099  142.8378  155.3169 H   0  0  0  0  0  0  0  0  0  0  0  0
  149.6393  142.8814  155.9274 H   0  0  0  0  0  0  0  0  0  0  0  0
  1  2  1  0  0  0  0
  1 22  1  0  0  0  0
  2  3  2  0  0  0  0
  2  4  1  0  0  0  0
  4 17  2  0  0  0  0
  4  5  1  0  0  0  0
  5  6  2  0  0  0  0
  6  7  1  0  0  0  0
  6 23  1  0  0  0  0
  7  8  1  0  0  0  0
  7 17  1  0  0  0  0
  8 18  1  0  0  0  0
  8 15  1  0  0  0  0
  8  9  1  0  0  0  0
  9 10  1  0  0  0  0
 10 19  1  0  0  0  0
 10 11  1  0  0  0  0
 10 13  1  0  0  0  0
 11 12  1  0  0  0  0
 11 24  1  0  0  0  0
 11 25  1  0  0  0  0
 12 26  1  0  0  0  0
 13 20  1  0  0  0  0
 13 14  1  0  0  0  0
 13 15  1  0  0  0  0
 14 27  1  0  0  0  0
 15 21  1  0  0  0  0
 15 16  1  0  0  0  0
 16 28  1  0  0  0  0
M  CHG  1   1  -1
M  END
> <s_m_source_file>
AV-unprocessed.smi

> <i_m_source_file_index>
160

> <i_lp_mmshare_version>
43012

> <i_f3d_flags>
0

> <s_epik_input>
W05IMl1DKD1PKWMxbltjSF1uKG4xKVtDQEBIXTJPW0NASF0oW0NIMl1bT0hdKVtDQEBIXShbT0hdKVtDQEhdMltPSF0=

> <s_epik_cmdline>
J2VwaWtfcHl0aG9uJywgJy1waCcsICc3LjAnLCAnLXRuJywgJzgnLCAnLW1hJywgJzIwMCcsICctbWV0YWxfYmluZGluZycsICctaW1hZScsICc8aW5maWxlLm1hZT4nLCAnLW9tYWUnLCAnPG91dGZpbGUubWFlPic=

> <r_lp_tautomer_probability>
1

> <r_epik_Ionization_Penalty>
6.6993

> <r_epik_Ionization_Penalty_Charging>
6.6993

> <r_epik_Ionization_Penalty_Neutral>
6.01698e-06

> <r_epik_State_Penalty>
6.69929

> <r_epik_Charging_Adjusted_Penalty>
13.3986

> <i_epik_Tot_Q>
-1

> <i_epik_Tot_abs_Q>
1

> <r_epik_Metal_State_Penalty>
2.62798

> <b_epik_Metal_Only>
1

> <s_epik_Chemistry_Notes>
This compound contains an acetal/aminal-like group ( X-CH(R)-Y where X, Y are N, S, or O) that may be acid/base labile, releasing an aldehyde.

> <s_lp_Force_Field>
OPLS_2005

> <r_lp_Energy>
45.7221

> <b_lp_Chiralities_Consistent>
1

> <s_lp_Variant>
AV-unprocessed.smi:160-30

> <Gold.Version>
5.8.1

> <Gold.Id.Protein>
6NUR|6NUR_protein|mol2

> <Gold.PLP.Fitness>
43.9779

> <Gold.PLP.PLP>
-22.4899

> <Gold.PLP.part.hbond>
-8.2115

> <Gold.PLP.part.metal>
0.0000

> <Gold.PLP.part.buried>
-0.9409

> <Gold.PLP.part.nonpolar>
-17.9105

> <Gold.PLP.part.repulsive>
4.5021

> <Gold.PLP.ligand.clash>
0.0000

> <Gold.PLP.ligand.torsion>
0.2716

> <Gold.PLP.Chemscore.Hbond>
6.5360

> <Gold.PLP.Chemscore.CHOScore>
0.7954

> <Gold.PLP.Chemscore.Metal>
0.0000

> <Gold.Chemscore.Hbonds>
donor molecule, donor type, donor heavy atom, donor atom, acceptor molecule, acceptor atom, score
      L1  H    12    26       P1  7957  1.00
      L1  H    14    27       P1  8028  1.00
      L1  H    16    28       P1  8028  1.00
      P1  H  7997  8009       L1     3  0.96
      P1  H 10752 10763       L1     5  0.61
      P1  H 10752 10764       L1     1  2.00
      L1  C     6    23       P1  7948  0.02
      L1  C     6    23       P1  7949  0.65

> <Gold.PLP.Chemscore.Internal.Correction>
0.0368

> <Gold.Rescore>
     Score         DG    S(hbond)    S(metal)    S(lipo)     H(rot)  DE(clash)    DE(int)     intcor
     11.74     -15.46       5.21        0.00      25.01       4.04       3.46       0.27       ----

> <Gold.Chemscore.Fitness>
11.7365

> <Gold.Chemscore.DG>
-15.4605

> <Gold.Chemscore.ZeroCoef>
-5.4800

> <Gold.Chemscore.Hbond>
5.2089

> <Gold.Chemscore.Metal>
0.0000

> <Gold.Chemscore.Lipo>
25.0081

> <Gold.Chemscore.Internal_Hbond>
0.0000

> <Gold.Chemscore.DEClash>
3.4589

> <Gold.Chemscore.DEInternal>
0.2651

> <Gold.Chemscore.Rot>
4.0403

> <Gold.Chemscore.Internal.Correction>
   9.000000E+99

> <Gold.Chemscore.Hbonds>
donor molecule, donor type, donor heavy atom, donor atom, acceptor molecule, acceptor atom, score
      L1  H    12    26       P1  7957  0.94
      L1  H    14    27       P1  8028  0.94
      L1  H    16    28       P1  8028  0.93
      P1  H  7997  8009       L1     3  0.71
      P1  H 10752 10763       L1     5  0.61
      P1  H 10752 10764       L1     1  0.61

> <Gold.Chemscore.Hbond.Weighted>
-17.3977

> <Gold.Chemscore.Metal.Weighted>
-0.0000

> <Gold.Chemscore.Lipo.Weighted>
-2.9259

> <Gold.Chemscore.Internal_Hbond.Weighted>
0.0000

> <Gold.Chemscore.DEClash.Weighted>
3.4589

> <Gold.Chemscore.DEInternal.Weighted>
0.2651

> <Gold.Chemscore.Rot.Weighted>
10.3431

> <Gold.Chemscore.Internal.Correction.Weighted>
   9.000000E+99

> <Gold.Protein.RotatedTorsions>
[ 6907 6896 6895 6894 ] final  175.83 input  -60.11 | X-H torsion
[ 7974 7965 7964 7962 ] final  -25.33 input  175.53 | X-H torsion
[ 8008 7997 7996 7995 ] final  140.62 input   59.86 | X-H torsion
[ 10167 10162 10161 10158 ] final   39.02 input  -65.29 | X-H torsion
[ 10718 10713 10712 10709 ] final   37.38 input   66.30 | X-H torsion
[ 10763 10752 10751 10750 ] final   38.44 input  -60.55 | X-H torsion
[ 11005 11000 10999 10996 ] final   66.78 input  -57.11 | X-H torsion

> <Gold.Protein.ActiveResidues>
 VAL166  LYS551  ARG553  GLY616  TRP617  ASP618  TYR619  PRO620  LYS621  CYS622 
 ASP623  PHE694  ASN695  SER759  ASP760  ASP761  ALA762  ILE779  LEU786  VAL792 
 PHE793  MET794  SER795  GLU796  ALA797  LYS798  CYS799  TRP800  GLU811  SER814 

> <Gold.Protein.RotatedAtoms>
  151.7299  133.3317  159.3337 H   0  0  0  0  0  0  0  0  0  0  0  0  # atno 6907 bound_to 6896
  150.7617  134.6373  159.6227 H   0  0  0  0  0  0  0  0  0  0  0  0  # atno 6908 bound_to 6896
  152.3598  134.6890  160.0262 H   0  0  0  0  0  0  0  0  0  0  0  0  # atno 6909 bound_to 6896
  146.1498  140.4872  142.8616 H   0  0  0  0  0  0  0  0  0  0  0  0  # atno 7974 bound_to 7965
  156.2977  140.2336  156.4431 H   0  0  0  0  0  0  0  0  0  0  0  0  # atno 8008 bound_to 7997
  154.8168  140.0440  157.1403 H   0  0  0  0  0  0  0  0  0  0  0  0  # atno 8009 bound_to 7997
  154.9360  140.3023  155.5147 H   0  0  0  0  0  0  0  0  0  0  0  0  # atno 8010 bound_to 7997
  140.3880  144.1891  150.6130 H   0  0  0  0  0  0  0  0  0  0  0  0  # atno 10167 bound_to 10162
  157.3462  130.7574  149.6946 H   0  0  0  0  0  0  0  0  0  0  0  0  # atno 10718 bound_to 10713
  153.0001  135.6249  154.2304 H   0  0  0  0  0  0  0  0  0  0  0  0  # atno 10763 bound_to 10752
  154.2046  135.2802  155.2981 H   0  0  0  0  0  0  0  0  0  0  0  0  # atno 10764 bound_to 10752
  154.5656  135.5692  153.7106 H   0  0  0  0  0  0  0  0  0  0  0  0  # atno 10765 bound_to 10752
  139.9811  134.6743  156.0261 H   0  0  0  0  0  0  0  0  0  0  0  0  # atno 11005 bound_to 11000
  144.7890  140.5994  143.6554 LP  0  0  0  0  0  0  0  0  0  0  0  0  # atno 17320 bound_to 7965
  145.4851  139.1492  143.3740 LP  0  0  0  0  0  0  0  0  0  0  0  0  # atno 17321 bound_to 7965
  140.4869  143.2360  151.8875 LP  0  0  0  0  0  0  0  0  0  0  0  0  # atno 17342 bound_to 10162
  139.4791  144.5208  151.8803 LP  0  0  0  0  0  0  0  0  0  0  0  0  # atno 17343 bound_to 10162
  155.9714  130.4153  150.4177 LP  0  0  0  0  0  0  0  0  0  0  0  0  # atno 17370 bound_to 10713
  157.2232  131.0487  151.2534 LP  0  0  0  0  0  0  0  0  0  0  0  0  # atno 17371 bound_to 10713
  141.1483  133.6552  156.3934 LP  0  0  0  0  0  0  0  0  0  0  0  0  # atno 17394 bound_to 11000
  140.5095  134.6409  157.5279 LP  0  0  0  0  0  0  0  0  0  0  0  0  # atno 17395 bound_to 11000

$$$$
