AV-unprocessed.smi:1385|AV-procd|sdf|5630|dock7
  -GOLD-   22720 5243D 1   1.00000     0.00000
 Structure written by MMmdl.
 39 40  0  0  0  0  0  0  0  0  2 V2000
  153.7543  141.4526  160.1034 C   0  0  0  0  0  0  0  0  0  0  0  0
  152.8093  141.4029  158.9519 C   0  0  0  0  0  0  0  0  0  0  0  0
  152.8297  140.4231  158.0402 N   0  0  0  0  0  0  0  0  0  0  0  0
  151.8570  140.5918  157.0644 N   0  0  0  0  0  0  0  0  0  0  0  0
  151.1279  141.6969  157.2718 C   0  0  0  0  0  0  0  0  0  0  0  0
  150.0663  142.1122  156.4249 N   0  0  0  0  0  0  0  0  0  0  0  0
  149.4360  141.4036  155.4717 C   0  0  0  0  0  0  0  0  0  0  0  0
  149.6823  140.2358  155.1704 O   0  0  0  0  0  0  0  0  0  0  0  0
  148.4888  142.1369  154.8684 N   0  0  0  0  0  0  0  0  0  0  0  0
  147.6222  141.6703  153.7863 C   0  0  2  0  0  0  0  0  0  0  0  0
  146.4925  142.6749  153.4838 C   0  0  0  0  0  0  0  0  0  0  0  0
  145.4471  142.7219  154.6117 C   0  0  0  0  0  0  0  0  0  0  0  0
  144.8869  141.3703  154.8795 N   0  3  2  0  0  0  0  0  0  0  0  0
  143.7749  141.3856  155.8649 C   0  0  0  0  0  0  0  0  0  0  0  0
  143.1077  140.0169  156.0361 C   0  0  0  0  0  0  0  0  0  0  0  0
  142.6047  139.4502  154.9371 N   0  0  0  0  0  0  0  0  0  0  0  0
  143.0315  139.4841  157.1418 O   0  0  0  0  0  0  0  0  0  0  0  0
  145.9511  140.3990  155.2405 C   0  0  0  0  0  0  0  0  0  0  0  0
  147.0164  140.2992  154.1328 C   0  0  0  0  0  0  0  0  0  0  0  0
  151.5741  142.6286  158.6909 S   0  0  0  0  0  0  0  0  0  0  0  0
  154.6590  140.8861  159.8808 H   0  0  0  0  0  0  0  0  0  0  0  0
  153.2832  141.0274  160.9896 H   0  0  0  0  0  0  0  0  0  0  0  0
  154.0340  142.4846  160.3160 H   0  0  0  0  0  0  0  0  0  0  0  0
  149.7561  143.0634  156.5568 H   0  0  0  0  0  0  0  0  0  0  0  0
  148.3506  143.0846  155.1876 H   0  0  0  0  0  0  0  0  0  0  0  0
  148.2366  141.5514  152.8920 H   0  0  0  0  0  0  0  0  0  0  0  0
  146.8996  143.6715  153.3091 H   0  0  0  0  0  0  0  0  0  0  0  0
  145.9986  142.3871  152.5548 H   0  0  0  0  0  0  0  0  0  0  0  0
  145.8929  143.1217  155.5238 H   0  0  0  0  0  0  0  0  0  0  0  0
  144.6495  143.4087  154.3276 H   0  0  0  0  0  0  0  0  0  0  0  0
  144.1574  141.6690  156.8463 H   0  0  0  0  0  0  0  0  0  0  0  0
  143.0375  142.1406  155.5866 H   0  0  0  0  0  0  0  0  0  0  0  0
  142.1565  138.5466  154.9900 H   0  0  0  0  0  0  0  0  0  0  0  0
  142.6767  139.9275  154.0494 H   0  0  0  0  0  0  0  0  0  0  0  0
  146.4095  140.6937  156.1857 H   0  0  0  0  0  0  0  0  0  0  0  0
  145.5107  139.4136  155.3975 H   0  0  0  0  0  0  0  0  0  0  0  0
  146.5583  139.8761  153.2375 H   0  0  0  0  0  0  0  0  0  0  0  0
  147.8012  139.6015  154.4280 H   0  0  0  0  0  0  0  0  0  0  0  0
  144.4857  141.0418  154.0122 H   0  0  0  0  0  0  0  0  0  0  0  0
  1  2  1  0  0  0  0
  1 21  1  0  0  0  0
  1 22  1  0  0  0  0
  1 23  1  0  0  0  0
  2 20  1  0  0  0  0
  2  3  2  0  0  0  0
  3  4  1  0  0  0  0
  4  5  2  0  0  0  0
  5  6  1  0  0  0  0
  5 20  1  0  0  0  0
  6  7  1  0  0  0  0
  6 24  1  0  0  0  0
  7  8  2  0  0  0  0
  7  9  1  0  0  0  0
  9 10  1  0  0  0  0
  9 25  1  0  0  0  0
 10 19  1  0  0  0  0
 10 11  1  0  0  0  0
 10 26  1  0  0  0  0
 11 12  1  0  0  0  0
 11 27  1  0  0  0  0
 11 28  1  0  0  0  0
 12 13  1  0  0  0  0
 12 29  1  0  0  0  0
 12 30  1  0  0  0  0
 13 14  1  0  0  0  0
 13 18  1  0  0  0  0
 13 39  1  0  0  0  0
 14 15  1  0  0  0  0
 14 31  1  0  0  0  0
 14 32  1  0  0  0  0
 15 16  1  0  0  0  0
 15 17  2  0  0  0  0
 16 33  1  0  0  0  0
 16 34  1  0  0  0  0
 18 19  1  0  0  0  0
 18 35  1  0  0  0  0
 18 36  1  0  0  0  0
 19 37  1  0  0  0  0
 19 38  1  0  0  0  0
M  CHG  1  13   1
M  END
> <s_m_source_file>
AV-unprocessed.smi

> <i_m_source_file_index>
1385

> <i_lp_mmshare_version>
43012

> <i_f3d_flags>
0

> <s_epik_input>
W0NIM11jMW5uYyhzMSlbTkhdQyg9TylbTkhdW0NIXTJbQ0gyXVtDSDJdTihbQ0gyXVtDSDJdMilbQ0gyXUMoPU8pW05IMl0=

> <s_epik_cmdline>
J2VwaWtfcHl0aG9uJywgJy1waCcsICc3LjAnLCAnLXRuJywgJzgnLCAnLW1hJywgJzIwMCcsICctbWV0YWxfYmluZGluZycsICctaW1hZScsICc8aW5maWxlLm1hZT4nLCAnLW9tYWUnLCAnPG91dGZpbGUubWFlPic=

> <r_lp_tautomer_probability>
1

> <r_epik_Ionization_Penalty>
0.866317

> <r_epik_Ionization_Penalty_Charging>
0.862349

> <r_epik_Ionization_Penalty_Neutral>
0.00396799

> <r_epik_State_Penalty>
0.898939

> <r_epik_Charging_Adjusted_Penalty>
1.76129

> <i_epik_Tot_Q>
1

> <i_epik_Tot_abs_Q>
1

> <r_epik_Metal_State_Penalty>
1.25402

> <b_epik_Metal_Only>
0

> <s_lp_Force_Field>
OPLS_2005

> <r_lp_Energy>
11.903

> <b_lp_Chiralities_Consistent>
1

> <s_lp_Variant>
AV-unprocessed.smi:1385-3

> <Gold.Version>
5.8.1

> <Gold.Id.Protein>
6NUR|6NUR_protein|mol2

> <Gold.PLP.Fitness>
46.4826

> <Gold.PLP.PLP>
-29.4797

> <Gold.PLP.part.hbond>
-5.0000

> <Gold.PLP.part.metal>
0.0000

> <Gold.PLP.part.buried>
-5.4236

> <Gold.PLP.part.nonpolar>
-18.6736

> <Gold.PLP.part.repulsive>
0.3416

> <Gold.PLP.ligand.clash>
0.0000

> <Gold.PLP.ligand.torsion>
0.1734

> <Gold.PLP.Chemscore.Hbond>
5.7763

> <Gold.PLP.Chemscore.CHOScore>
0.0000

> <Gold.PLP.Chemscore.Metal>
0.0000

> <Gold.Chemscore.Hbonds>
donor molecule, donor type, donor heavy atom, donor atom, acceptor molecule, acceptor atom, score
      L1  H     6    24       P1  8028  0.83
      L1  H     9    25       P1  8028  1.00
      L1  H    13    39       P1 10175  2.00
      L1  H    16    34       P1 10175  1.00
      P1  H  7997  8008       L1     3  0.84

> <Gold.PLP.Chemscore.Internal.Correction>
0.0209

> <Gold.Rescore>
     Score         DG    S(hbond)    S(metal)    S(lipo)     H(rot)  DE(clash)    DE(int)     intcor
     17.04     -21.28       4.30        0.00      57.57       2.07       1.47       2.78       ----

> <Gold.Chemscore.Fitness>
17.0378

> <Gold.Chemscore.DG>
-21.2836

> <Gold.Chemscore.ZeroCoef>
-5.4800

> <Gold.Chemscore.Hbond>
4.2977

> <Gold.Chemscore.Metal>
0.0000

> <Gold.Chemscore.Lipo>
57.5703

> <Gold.Chemscore.Internal_Hbond>
0.0000

> <Gold.Chemscore.DEClash>
1.4707

> <Gold.Chemscore.DEInternal>
2.7750

> <Gold.Chemscore.Rot>
2.0650

> <Gold.Chemscore.Internal.Correction>
   9.000000E+99

> <Gold.Chemscore.Hbonds>
donor molecule, donor type, donor heavy atom, donor atom, acceptor molecule, acceptor atom, score
      L1  H     6    24       P1  8028  0.78
      L1  H     9    25       P1  8028  0.98
      L1  H    13    39       P1 10175  0.82
      L1  H    16    34       P1 10175  0.97
      P1  H  7997  8008       L1     3  0.23

> <Gold.Chemscore.Hbond.Weighted>
-14.3543

> <Gold.Chemscore.Metal.Weighted>
-0.0000

> <Gold.Chemscore.Lipo.Weighted>
-6.7357

> <Gold.Chemscore.Internal_Hbond.Weighted>
0.0000

> <Gold.Chemscore.DEClash.Weighted>
1.4707

> <Gold.Chemscore.DEInternal.Weighted>
2.7750

> <Gold.Chemscore.Rot.Weighted>
5.2864

> <Gold.Chemscore.Internal.Correction.Weighted>
   9.000000E+99

> <Gold.Protein.RotatedTorsions>
[ 6907 6896 6895 6894 ] final  178.89 input  -60.11 | X-H torsion
[ 7974 7965 7964 7962 ] final -136.89 input  175.53 | X-H torsion
[ 8008 7997 7996 7995 ] final  -76.08 input   59.86 | X-H torsion
[ 10167 10162 10161 10158 ] final  -69.75 input  -65.29 | X-H torsion
[ 10718 10713 10712 10709 ] final -168.24 input   66.30 | X-H torsion
[ 10763 10752 10751 10750 ] final  -42.35 input  -60.55 | X-H torsion
[ 11005 11000 10999 10996 ] final   63.35 input  -57.11 | X-H torsion

> <Gold.Protein.ActiveResidues>
 VAL166  LYS551  ARG553  GLY616  TRP617  ASP618  TYR619  PRO620  LYS621  CYS622 
 ASP623  PHE694  ASN695  SER759  ASP760  ASP761  ALA762  ILE779  LEU786  VAL792 
 PHE793  MET794  SER795  GLU796  ALA797  LYS798  CYS799  TRP800  GLU811  SER814 

> <Gold.Protein.RotatedAtoms>
  151.6806  133.3312  159.3218 H   0  0  0  0  0  0  0  0  0  0  0  0  # atno 6907 bound_to 6896
  150.7825  134.6784  159.6440 H   0  0  0  0  0  0  0  0  0  0  0  0  # atno 6908 bound_to 6896
  152.3886  134.6481  160.0168 H   0  0  0  0  0  0  0  0  0  0  0  0  # atno 6909 bound_to 6896
  144.8888  140.6613  143.5158 H   0  0  0  0  0  0  0  0  0  0  0  0  # atno 7974 bound_to 7965
  154.5474  140.0733  156.8611 H   0  0  0  0  0  0  0  0  0  0  0  0  # atno 8008 bound_to 7997
  155.3061  140.3387  155.4227 H   0  0  0  0  0  0  0  0  0  0  0  0  # atno 8009 bound_to 7997
  156.1930  140.1693  156.8040 H   0  0  0  0  0  0  0  0  0  0  0  0  # atno 8010 bound_to 7997
  140.5406  143.2315  151.7096 H   0  0  0  0  0  0  0  0  0  0  0  0  # atno 10167 bound_to 10162
  156.6940  130.9170  151.3072 H   0  0  0  0  0  0  0  0  0  0  0  0  # atno 10718 bound_to 10713
  153.9775  135.6721  153.4749 H   0  0  0  0  0  0  0  0  0  0  0  0  # atno 10763 bound_to 10752
  153.0764  135.4946  154.8409 H   0  0  0  0  0  0  0  0  0  0  0  0  # atno 10764 bound_to 10752
  154.7183  135.3112  154.9049 H   0  0  0  0  0  0  0  0  0  0  0  0  # atno 10765 bound_to 10752
  140.0031  134.6412  155.9899 H   0  0  0  0  0  0  0  0  0  0  0  0  # atno 11005 bound_to 11000
  145.3820  139.1635  143.4275 LP  0  0  0  0  0  0  0  0  0  0  0  0  # atno 17320 bound_to 7965
  146.3041  140.3902  142.8693 LP  0  0  0  0  0  0  0  0  0  0  0  0  # atno 17321 bound_to 7965
  139.4987  144.3974  152.0217 LP  0  0  0  0  0  0  0  0  0  0  0  0  # atno 17342 bound_to 10162
  140.3083  144.3567  150.6041 LP  0  0  0  0  0  0  0  0  0  0  0  0  # atno 17343 bound_to 10162
  157.6998  130.9321  150.0751 LP  0  0  0  0  0  0  0  0  0  0  0  0  # atno 17370 bound_to 10713
  156.1777  130.3649  149.9078 LP  0  0  0  0  0  0  0  0  0  0  0  0  # atno 17371 bound_to 10713
  141.1656  133.6537  156.4470 LP  0  0  0  0  0  0  0  0  0  0  0  0  # atno 17394 bound_to 11000
  140.4692  134.6769  157.5121 LP  0  0  0  0  0  0  0  0  0  0  0  0  # atno 17395 bound_to 11000

$$$$
