AV-unprocessed.smi:3284|AV-procd|sdf|12572|dock9
  -GOLD-   2272018493D 1   1.00000     0.00000
 Structure written by MMmdl.
 44 45  0  0  0  0  0  0  0  0  2 V2000
  152.5174  138.9823  154.9573 C   0  0  0  0  0  0  0  0  0  0  0  0
  150.9991  139.0269  154.8979 C   0  0  0  0  0  0  0  0  0  0  0  0
  150.2858  137.9120  154.6429 C   0  0  0  0  0  0  0  0  0  0  0  0
  148.7745  137.8631  154.5002 C   0  0  0  0  0  0  0  0  0  0  0  0
  148.0894  139.1950  154.8489 C   0  0  0  0  0  0  0  0  0  0  0  0
  148.9325  140.4000  154.3958 C   0  0  1  0  0  0  0  0  0  0  0  0
  148.1639  141.7261  154.5291 C   0  0  0  0  0  0  0  0  0  0  0  0
  150.3274  140.3942  155.0832 C   0  0  1  0  0  0  0  0  0  0  0  0
  150.2668  140.8256  156.5726 C   0  0  0  0  0  0  0  0  0  0  0  0
  151.5125  141.4632  157.0417 N   0  3  0  0  0  0  0  0  0  0  0  0
  151.4509  141.9548  158.4315 C   0  0  0  0  0  0  0  0  0  0  0  0
  152.8570  142.1967  158.9948 C   0  0  0  0  0  0  0  0  0  0  0  0
  152.8318  142.5635  160.4459 C   0  0  0  0  0  0  0  0  0  0  0  0
  153.3206  141.7862  161.4072 N   0  0  0  0  0  0  0  0  0  0  0  0
  153.1189  142.5041  162.5813 C   0  0  0  0  0  0  0  0  0  0  0  0
  152.5168  143.7028  162.2843 C   0  0  0  0  0  0  0  0  0  0  0  0
  152.3439  143.7317  160.9067 N   0  0  0  0  0  0  0  0  0  0  0  0
  151.7547  144.8161  160.1455 C   0  0  0  0  0  0  0  0  0  0  0  0
  152.9479  139.7711  154.3400 H   0  0  0  0  0  0  0  0  0  0  0  0
  152.8956  138.0296  154.5852 H   0  0  0  0  0  0  0  0  0  0  0  0
  152.8829  139.0973  155.9762 H   0  0  0  0  0  0  0  0  0  0  0  0
  150.7986  136.9731  154.4919 H   0  0  0  0  0  0  0  0  0  0  0  0
  148.5549  137.5991  153.4652 H   0  0  0  0  0  0  0  0  0  0  0  0
  148.3753  137.0606  155.1210 H   0  0  0  0  0  0  0  0  0  0  0  0
  147.1019  139.2233  154.3865 H   0  0  0  0  0  0  0  0  0  0  0  0
  147.9178  139.2482  155.9242 H   0  0  0  0  0  0  0  0  0  0  0  0
  149.1130  140.2729  153.3267 H   0  0  0  0  0  0  0  0  0  0  0  0
  147.7952  141.8848  155.5425 H   0  0  0  0  0  0  0  0  0  0  0  0
  147.2970  141.7373  153.8678 H   0  0  0  0  0  0  0  0  0  0  0  0
  148.7918  142.5755  154.2585 H   0  0  0  0  0  0  0  0  0  0  0  0
  150.9381  141.1248  154.5505 H   0  0  0  0  0  0  0  0  0  0  0  0
  149.4654  141.5460  156.7316 H   0  0  0  0  0  0  0  0  0  0  0  0
  150.0516  139.9647  157.2064 H   0  0  0  0  0  0  0  0  0  0  0  0
  152.2597  140.7870  156.9731 H   0  0  0  0  0  0  0  0  0  0  0  0
  150.8731  142.8798  158.4580 H   0  0  0  0  0  0  0  0  0  0  0  0
  150.9235  141.2263  159.0490 H   0  0  0  0  0  0  0  0  0  0  0  0
  153.4815  141.3147  158.8501 H   0  0  0  0  0  0  0  0  0  0  0  0
  153.3418  143.0051  158.4458 H   0  0  0  0  0  0  0  0  0  0  0  0
  153.4210  142.1075  163.5395 H   0  0  0  0  0  0  0  0  0  0  0  0
  152.2086  144.5175  162.9234 H   0  0  0  0  0  0  0  0  0  0  0  0
  151.5634  145.6711  160.7950 H   0  0  0  0  0  0  0  0  0  0  0  0
  150.8115  144.4892  159.7069 H   0  0  0  0  0  0  0  0  0  0  0  0
  152.4339  145.1250  159.3506 H   0  0  0  0  0  0  0  0  0  0  0  0
  151.7238  142.2416  156.4336 H   0  0  0  0  0  0  0  0  0  0  0  0
  1  2  1  0  0  0  0
  1 19  1  0  0  0  0
  1 20  1  0  0  0  0
  1 21  1  0  0  0  0
  2  8  1  0  0  0  0
  2  3  2  0  0  0  0
  3  4  1  0  0  0  0
  3 22  1  0  0  0  0
  4  5  1  0  0  0  0
  4 23  1  0  0  0  0
  4 24  1  0  0  0  0
  5  6  1  0  0  0  0
  5 25  1  0  0  0  0
  5 26  1  0  0  0  0
  6  7  1  0  0  0  0
  6  8  1  0  0  0  0
  6 27  1  0  0  0  0
  7 28  1  0  0  0  0
  7 29  1  0  0  0  0
  7 30  1  0  0  0  0
  8  9  1  0  0  0  0
  8 31  1  0  0  0  0
  9 10  1  0  0  0  0
  9 32  1  0  0  0  0
  9 33  1  0  0  0  0
 10 11  1  0  0  0  0
 10 34  1  0  0  0  0
 10 44  1  0  0  0  0
 11 12  1  0  0  0  0
 11 35  1  0  0  0  0
 11 36  1  0  0  0  0
 12 13  1  0  0  0  0
 12 37  1  0  0  0  0
 12 38  1  0  0  0  0
 13 17  1  0  0  0  0
 13 14  2  0  0  0  0
 14 15  1  0  0  0  0
 15 16  2  0  0  0  0
 15 39  1  0  0  0  0
 16 17  1  0  0  0  0
 16 40  1  0  0  0  0
 17 18  1  0  0  0  0
 18 41  1  0  0  0  0
 18 42  1  0  0  0  0
 18 43  1  0  0  0  0
M  CHG  1  10   1
M  END
> <s_m_source_file>
AV-unprocessed.smi

> <i_m_source_file_index>
3284

> <i_lp_mmshare_version>
43012

> <i_f3d_flags>
0

> <s_epik_input>
W0NIM11DMT1bQ0hdW0NIMl1bQ0gyXVtDQEBIXShbQ0gzXSlbQ0BIXTFbQ0gyXVtOSF1bQ0gyXVtDSDJdYzJuW2NIXVtjSF1uMltDSDNd

> <s_epik_cmdline>
J2VwaWtfcHl0aG9uJywgJy1waCcsICc3LjAnLCAnLXRuJywgJzgnLCAnLW1hJywgJzIwMCcsICctbWV0YWxfYmluZGluZycsICctaW1hZScsICc8aW5maWxlLm1hZT4nLCAnLW9tYWUnLCAnPG91dGZpbGUubWFlPic=

> <r_lp_tautomer_probability>
1

> <r_epik_Ionization_Penalty>
0.150779

> <r_epik_Ionization_Penalty_Charging>
0.150779

> <r_epik_Ionization_Penalty_Neutral>
1.39452e-13

> <r_epik_State_Penalty>
0.349447

> <r_epik_Charging_Adjusted_Penalty>
0.500226

> <i_epik_Tot_Q>
1

> <i_epik_Tot_abs_Q>
1

> <r_epik_Metal_State_Penalty>
0.000470967

> <b_epik_Metal_Only>
0

> <s_lp_Force_Field>
OPLS_2005

> <r_lp_Energy>
13.2562

> <b_lp_Chiralities_Consistent>
1

> <s_lp_Variant>
AV-unprocessed.smi:3284-1

> <Gold.Version>
5.8.1

> <Gold.Id.Protein>
6NUR|6NUR_protein|mol2

> <Gold.PLP.Fitness>
43.2785

> <Gold.PLP.PLP>
-44.1319

> <Gold.PLP.part.hbond>
0.0000

> <Gold.PLP.part.metal>
0.0000

> <Gold.PLP.part.buried>
-2.3208

> <Gold.PLP.part.nonpolar>
-41.8961

> <Gold.PLP.part.repulsive>
0.1138

> <Gold.PLP.ligand.clash>
0.0000

> <Gold.PLP.ligand.torsion>
0.4510

> <Gold.PLP.Chemscore.Hbond>
0.0000

> <Gold.PLP.Chemscore.CHOScore>
0.0000

> <Gold.PLP.Chemscore.Metal>
0.0000

> <Gold.PLP.Chemscore.Internal.Correction>
0.0485

> <Gold.Rescore>
     Score         DG    S(hbond)    S(metal)    S(lipo)     H(rot)  DE(clash)    DE(int)     intcor
     13.71     -14.29       0.00        0.00     110.50       1.61       0.12       0.45       ----

> <Gold.Chemscore.Fitness>
13.7095

> <Gold.Chemscore.DG>
-14.2852

> <Gold.Chemscore.ZeroCoef>
-5.4800

> <Gold.Chemscore.Hbond>
0.0000

> <Gold.Chemscore.Metal>
0.0000

> <Gold.Chemscore.Lipo>
110.4974

> <Gold.Chemscore.Internal_Hbond>
0.0000

> <Gold.Chemscore.DEClash>
0.1231

> <Gold.Chemscore.DEInternal>
0.4526

> <Gold.Chemscore.Rot>
1.6105

> <Gold.Chemscore.Internal.Correction>
   9.000000E+99

> <Gold.Chemscore.Hbond.Weighted>
-0.0000

> <Gold.Chemscore.Metal.Weighted>
-0.0000

> <Gold.Chemscore.Lipo.Weighted>
-12.9282

> <Gold.Chemscore.Internal_Hbond.Weighted>
0.0000

> <Gold.Chemscore.DEClash.Weighted>
0.1231

> <Gold.Chemscore.DEInternal.Weighted>
0.4526

> <Gold.Chemscore.Rot.Weighted>
4.1230

> <Gold.Chemscore.Internal.Correction.Weighted>
   9.000000E+99

> <Gold.Protein.RotatedTorsions>
[ 6907 6896 6895 6894 ] final   56.58 input  -60.11 | X-H torsion
[ 7974 7965 7964 7962 ] final  -38.30 input  175.53 | X-H torsion
[ 8008 7997 7996 7995 ] final -179.81 input   59.86 | X-H torsion
[ 10167 10162 10161 10158 ] final -116.74 input  -65.29 | X-H torsion
[ 10718 10713 10712 10709 ] final -159.47 input   66.30 | X-H torsion
[ 10763 10752 10751 10750 ] final -145.65 input  -60.55 | X-H torsion
[ 11005 11000 10999 10996 ] final  146.71 input  -57.11 | X-H torsion

> <Gold.Protein.ActiveResidues>
 VAL166  LYS551  ARG553  GLY616  TRP617  ASP618  TYR619  PRO620  LYS621  CYS622 
 ASP623  PHE694  ASN695  SER759  ASP760  ASP761  ALA762  ILE779  LEU786  VAL792 
 PHE793  MET794  SER795  GLU796  ALA797  LYS798  CYS799  TRP800  GLU811  SER814 

> <Gold.Protein.RotatedAtoms>
  152.3649  134.6818  160.0194 H   0  0  0  0  0  0  0  0  0  0  0  0  # atno 6907 bound_to 6896
  151.7129  133.3307  159.3303 H   0  0  0  0  0  0  0  0  0  0  0  0  # atno 6908 bound_to 6896
  150.7631  134.6450  159.6302 H   0  0  0  0  0  0  0  0  0  0  0  0  # atno 6909 bound_to 6896
  146.0498  140.6496  142.9047 H   0  0  0  0  0  0  0  0  0  0  0  0  # atno 7974 bound_to 7965
  156.0348  140.1290  157.0219 H   0  0  0  0  0  0  0  0  0  0  0  0  # atno 8008 bound_to 7997
  154.4365  140.1042  156.6222 H   0  0  0  0  0  0  0  0  0  0  0  0  # atno 8009 bound_to 7997
  155.5753  140.3467  155.4528 H   0  0  0  0  0  0  0  0  0  0  0  0  # atno 8010 bound_to 7997
  140.0759  143.4833  152.1953 H   0  0  0  0  0  0  0  0  0  0  0  0  # atno 10167 bound_to 10162
  156.5686  130.8678  151.2831 H   0  0  0  0  0  0  0  0  0  0  0  0  # atno 10718 bound_to 10713
  154.8374  135.3407  154.6537 H   0  0  0  0  0  0  0  0  0  0  0  0  # atno 10763 bound_to 10752
  153.7150  135.6961  153.5032 H   0  0  0  0  0  0  0  0  0  0  0  0  # atno 10764 bound_to 10752
  153.2423  135.4380  155.0664 H   0  0  0  0  0  0  0  0  0  0  0  0  # atno 10765 bound_to 10752
  140.0816  134.9094  157.1509 H   0  0  0  0  0  0  0  0  0  0  0  0  # atno 11005 bound_to 11000
  144.7117  140.4062  143.7075 LP  0  0  0  0  0  0  0  0  0  0  0  0  # atno 17320 bound_to 7965
  145.6743  139.1605  143.2737 LP  0  0  0  0  0  0  0  0  0  0  0  0  # atno 17321 bound_to 7965
  139.5808  144.7509  151.3645 LP  0  0  0  0  0  0  0  0  0  0  0  0  # atno 17342 bound_to 10162
  140.7102  143.7410  150.7554 LP  0  0  0  0  0  0  0  0  0  0  0  0  # atno 17343 bound_to 10162
  157.7353  130.9760  150.2075 LP  0  0  0  0  0  0  0  0  0  0  0  0  # atno 17370 bound_to 10713
  156.2735  130.3724  149.8007 LP  0  0  0  0  0  0  0  0  0  0  0  0  # atno 17371 bound_to 10713
  140.3480  134.2630  155.7202 LP  0  0  0  0  0  0  0  0  0  0  0  0  # atno 17394 bound_to 11000
  141.2048  133.7876  157.0265 LP  0  0  0  0  0  0  0  0  0  0  0  0  # atno 17395 bound_to 11000

$$$$
