AV-unprocessed.smi:2709|AV-procd|sdf|10463|dock4
  -GOLD-   2272014503D 1   1.00000     0.00000
 Structure written by MMmdl.
 40 42  0  0  0  0  0  0  0  0  1 V2000
  142.2870  136.1038  154.3955 C   0  0  0  0  0  0  0  0  0  0  0  0
  143.2637  136.7857  153.6248 O   0  0  0  0  0  0  0  0  0  0  0  0
  144.2686  135.9344  153.0904 C   0  0  1  0  0  0  0  0  0  0  0  0
  143.6783  134.6507  152.4905 C   0  0  0  0  0  0  0  0  0  0  0  0
  144.6330  134.2849  151.3603 C   0  0  0  0  0  0  0  0  0  0  0  0
  145.0209  135.6347  150.7593 C   0  0  0  0  0  0  0  0  0  0  0  0
  145.0041  136.6393  151.9295 C   0  0  2  0  0  0  0  0  0  0  0  0
  146.3599  137.0109  152.3287 N   0  0  0  0  0  0  0  0  0  0  0  0
  146.6667  137.9313  153.2532 C   0  0  0  0  0  0  0  0  0  0  0  0
  145.8231  138.5761  153.8752 O   0  0  0  0  0  0  0  0  0  0  0  0
  147.9972  138.0361  153.4094 N   0  0  0  0  0  0  0  0  0  0  0  0
  148.7203  138.9155  154.2594 C   0  0  0  0  0  0  0  0  0  0  0  0
  150.0696  139.1980  153.9601 C   0  0  0  0  0  0  0  0  0  0  0  0
  150.8116  140.0359  154.7155 N   0  0  0  0  0  0  0  0  0  0  0  0
  150.2078  140.5900  155.7704 C   0  0  0  0  0  0  0  0  0  0  0  0
  151.0209  141.5466  156.5864 C   0  0  0  0  0  0  0  0  0  0  0  0
  151.4814  141.1815  157.9833 C   0  0  0  0  0  0  0  0  0  0  0  0
  150.4228  142.2323  157.7978 C   0  0  0  0  0  0  0  0  0  0  0  0
  148.9348  140.4211  156.1382 N   0  0  0  0  0  0  0  0  0  0  0  0
  148.1857  139.5827  155.3893 C   0  0  0  0  0  0  0  0  0  0  0  0
  141.5720  136.8231  154.7944 H   0  0  0  0  0  0  0  0  0  0  0  0
  142.7426  135.5828  155.2383 H   0  0  0  0  0  0  0  0  0  0  0  0
  141.7328  135.3815  153.7955 H   0  0  0  0  0  0  0  0  0  0  0  0
  144.9857  135.6663  153.8698 H   0  0  0  0  0  0  0  0  0  0  0  0
  143.5718  133.8519  153.2249 H   0  0  0  0  0  0  0  0  0  0  0  0
  142.6903  134.8545  152.0748 H   0  0  0  0  0  0  0  0  0  0  0  0
  145.5172  133.7933  151.7678 H   0  0  0  0  0  0  0  0  0  0  0  0
  144.1820  133.6137  150.6292 H   0  0  0  0  0  0  0  0  0  0  0  0
  145.9755  135.5895  150.2334 H   0  0  0  0  0  0  0  0  0  0  0  0
  144.2683  135.9286  150.0265 H   0  0  0  0  0  0  0  0  0  0  0  0
  144.4566  137.5347  151.6276 H   0  0  0  0  0  0  0  0  0  0  0  0
  147.1166  136.5241  151.8713 H   0  0  0  0  0  0  0  0  0  0  0  0
  148.5592  137.3847  152.8813 H   0  0  0  0  0  0  0  0  0  0  0  0
  150.5597  138.7486  153.1087 H   0  0  0  0  0  0  0  0  0  0  0  0
  151.7009  142.1215  155.9607 H   0  0  0  0  0  0  0  0  0  0  0  0
  151.1671  140.2214  158.3880 H   0  0  0  0  0  0  0  0  0  0  0  0
  152.4712  141.5141  158.2887 H   0  0  0  0  0  0  0  0  0  0  0  0
  150.7039  143.2681  157.9762 H   0  0  0  0  0  0  0  0  0  0  0  0
  149.4047  141.9705  158.0794 H   0  0  0  0  0  0  0  0  0  0  0  0
  147.1581  139.4776  155.6997 H   0  0  0  0  0  0  0  0  0  0  0  0
  1  2  1  0  0  0  0
  1 21  1  0  0  0  0
  1 22  1  0  0  0  0
  1 23  1  0  0  0  0
  2  3  1  0  0  0  0
  3  7  1  0  0  0  0
  3  4  1  0  0  0  0
  3 24  1  0  0  0  0
  4  5  1  0  0  0  0
  4 25  1  0  0  0  0
  4 26  1  0  0  0  0
  5  6  1  0  0  0  0
  5 27  1  0  0  0  0
  5 28  1  0  0  0  0
  6  7  1  0  0  0  0
  6 29  1  0  0  0  0
  6 30  1  0  0  0  0
  7  8  1  0  0  0  0
  7 31  1  0  0  0  0
  8  9  1  0  0  0  0
  8 32  1  0  0  0  0
  9 10  2  0  0  0  0
  9 11  1  0  0  0  0
 11 12  1  0  0  0  0
 11 33  1  0  0  0  0
 12 20  1  0  0  0  0
 12 13  2  0  0  0  0
 13 14  1  0  0  0  0
 13 34  1  0  0  0  0
 14 15  2  0  0  0  0
 15 16  1  0  0  0  0
 15 19  1  0  0  0  0
 16 18  1  0  0  0  0
 16 17  1  0  0  0  0
 16 35  1  0  0  0  0
 17 18  1  0  0  0  0
 17 36  1  0  0  0  0
 17 37  1  0  0  0  0
 18 38  1  0  0  0  0
 18 39  1  0  0  0  0
 19 20  2  0  0  0  0
 20 40  1  0  0  0  0
M  END
> <s_m_source_file>
AV-unprocessed.smi

> <i_m_source_file_index>
2709

> <i_lp_mmshare_version>
43012

> <i_f3d_flags>
0

> <s_epik_input>
W0NIM11PW0NAQEhdMVtDSDJdW0NIMl1bQ0gyXVtDQEhdMVtOSF1DKD1PKVtOSF1jMltjSF1uYyhuW2NIXTIpW0NIXTNbQ0gyXVtDSDJdMw==

> <s_epik_cmdline>
J2VwaWtfcHl0aG9uJywgJy1waCcsICc3LjAnLCAnLXRuJywgJzgnLCAnLW1hJywgJzIwMCcsICctbWV0YWxfYmluZGluZycsICctaW1hZScsICc8aW5maWxlLm1hZT4nLCAnLW9tYWUnLCAnPG91dGZpbGUubWFlPic=

> <r_lp_tautomer_probability>
1

> <r_epik_Ionization_Penalty>
2.49969e-05

> <r_epik_Ionization_Penalty_Charging>
0

> <r_epik_Ionization_Penalty_Neutral>
2.49969e-05

> <r_epik_State_Penalty>
-0

> <r_epik_Charging_Adjusted_Penalty>
0

> <i_epik_Tot_Q>
0

> <i_epik_Tot_abs_Q>
0

> <r_epik_Metal_State_Penalty>
-0

> <b_epik_Metal_Only>
0

> <s_lp_Force_Field>
OPLS_2005

> <r_lp_Energy>
19.78

> <b_lp_Chiralities_Consistent>
1

> <s_lp_Variant>
AV-unprocessed.smi:2709-4

> <Gold.Version>
5.8.1

> <Gold.Id.Protein>
6NUR|6NUR_protein|mol2

> <Gold.PLP.Fitness>
37.3938

> <Gold.PLP.PLP>
-27.8269

> <Gold.PLP.part.hbond>
-3.0000

> <Gold.PLP.part.metal>
0.0000

> <Gold.PLP.part.buried>
-2.1747

> <Gold.PLP.part.nonpolar>
-23.0420

> <Gold.PLP.part.repulsive>
0.4444

> <Gold.PLP.ligand.clash>
0.0000

> <Gold.PLP.ligand.torsion>
0.3887

> <Gold.PLP.Chemscore.Hbond>
2.9280

> <Gold.PLP.Chemscore.CHOScore>
0.4774

> <Gold.PLP.Chemscore.Metal>
0.0000

> <Gold.Chemscore.Hbonds>
donor molecule, donor type, donor heavy atom, donor atom, acceptor molecule, acceptor atom, score
      L1  H     8    32       P1  7948  0.93
      L1  H    11    33       P1  7948  1.00
      P1  H  7989  7998       L1    14  1.00
      L1  C    13    34       P1  7957  0.48

> <Gold.PLP.Chemscore.Internal.Correction>
0.1284

> <Gold.Rescore>
     Score         DG    S(hbond)    S(metal)    S(lipo)     H(rot)  DE(clash)    DE(int)     intcor
     14.79     -17.83       2.51        0.00      64.94       1.41       1.49       1.55       ----

> <Gold.Chemscore.Fitness>
14.7871

> <Gold.Chemscore.DG>
-17.8331

> <Gold.Chemscore.ZeroCoef>
-5.4800

> <Gold.Chemscore.Hbond>
2.5055

> <Gold.Chemscore.Metal>
0.0000

> <Gold.Chemscore.Lipo>
64.9406

> <Gold.Chemscore.Internal_Hbond>
0.0000

> <Gold.Chemscore.DEClash>
1.4927

> <Gold.Chemscore.DEInternal>
1.5532

> <Gold.Chemscore.Rot>
1.4114

> <Gold.Chemscore.Internal.Correction>
   9.000000E+99

> <Gold.Chemscore.Hbonds>
donor molecule, donor type, donor heavy atom, donor atom, acceptor molecule, acceptor atom, score
      L1  H     8    32       P1  7948  0.90
      L1  H    11    33       P1  7948  0.97
      P1  H  7989  7998       L1    14  0.26

> <Gold.Chemscore.Hbond.Weighted>
-8.3683

> <Gold.Chemscore.Metal.Weighted>
-0.0000

> <Gold.Chemscore.Lipo.Weighted>
-7.5980

> <Gold.Chemscore.Internal_Hbond.Weighted>
0.0000

> <Gold.Chemscore.DEClash.Weighted>
1.4927

> <Gold.Chemscore.DEInternal.Weighted>
1.5532

> <Gold.Chemscore.Rot.Weighted>
3.6133

> <Gold.Chemscore.Internal.Correction.Weighted>
   9.000000E+99

> <Gold.Protein.RotatedTorsions>
[ 6907 6896 6895 6894 ] final   63.29 input  -60.11 | X-H torsion
[ 7974 7965 7964 7962 ] final -145.60 input  175.53 | X-H torsion
[ 8008 7997 7996 7995 ] final -147.89 input   59.86 | X-H torsion
[ 10167 10162 10161 10158 ] final  109.86 input  -65.29 | X-H torsion
[ 10718 10713 10712 10709 ] final   97.37 input   66.30 | X-H torsion
[ 10763 10752 10751 10750 ] final  144.11 input  -60.55 | X-H torsion
[ 11005 11000 10999 10996 ] final   63.96 input  -57.11 | X-H torsion

> <Gold.Protein.ActiveResidues>
 VAL166  LYS551  ARG553  GLY616  TRP617  ASP618  TYR619  PRO620  LYS621  CYS622 
 ASP623  PHE694  ASN695  SER759  ASP760  ASP761  ALA762  ILE779  LEU786  VAL792 
 PHE793  MET794  SER795  GLU796  ALA797  LYS798  CYS799  TRP800  GLU811  SER814 

> <Gold.Protein.RotatedAtoms>
  152.4241  134.5900  159.9971 H   0  0  0  0  0  0  0  0  0  0  0  0  # atno 6907 bound_to 6896
  151.6042  133.3348  159.3061 H   0  0  0  0  0  0  0  0  0  0  0  0  # atno 6908 bound_to 6896
  150.8130  134.7334  159.6770 H   0  0  0  0  0  0  0  0  0  0  0  0  # atno 6909 bound_to 6896
  144.8216  140.5563  143.5574 H   0  0  0  0  0  0  0  0  0  0  0  0  # atno 7974 bound_to 7965
  155.5827  140.0645  157.2779 H   0  0  0  0  0  0  0  0  0  0  0  0  # atno 8008 bound_to 7997
  154.4328  140.1849  156.1040 H   0  0  0  0  0  0  0  0  0  0  0  0  # atno 8009 bound_to 7997
  156.0292  140.3308  155.7125 H   0  0  0  0  0  0  0  0  0  0  0  0  # atno 8010 bound_to 7997
  139.6733  144.7124  151.1647 H   0  0  0  0  0  0  0  0  0  0  0  0  # atno 10167 bound_to 10162
  157.6913  131.0607  150.4633 H   0  0  0  0  0  0  0  0  0  0  0  0  # atno 10718 bound_to 10713
  153.9835  135.2939  155.3418 H   0  0  0  0  0  0  0  0  0  0  0  0  # atno 10763 bound_to 10752
  154.7255  135.5090  153.8883 H   0  0  0  0  0  0  0  0  0  0  0  0  # atno 10764 bound_to 10752
  153.0843  135.6688  154.0095 H   0  0  0  0  0  0  0  0  0  0  0  0  # atno 10765 bound_to 10752
  139.9990  134.6472  155.9962 H   0  0  0  0  0  0  0  0  0  0  0  0  # atno 11005 bound_to 11000
  145.5092  139.1480  143.3614 LP  0  0  0  0  0  0  0  0  0  0  0  0  # atno 17320 bound_to 7965
  146.2522  140.5232  142.8889 LP  0  0  0  0  0  0  0  0  0  0  0  0  # atno 17321 bound_to 7965
  140.7626  143.5810  150.8895 LP  0  0  0  0  0  0  0  0  0  0  0  0  # atno 17342 bound_to 10162
  139.9477  143.6308  152.3037 LP  0  0  0  0  0  0  0  0  0  0  0  0  # atno 17343 bound_to 10162
  156.4976  130.4109  149.6371 LP  0  0  0  0  0  0  0  0  0  0  0  0  # atno 17370 bound_to 10713
  156.3358  130.7356  151.2293 LP  0  0  0  0  0  0  0  0  0  0  0  0  # atno 17371 bound_to 10713
  141.1627  133.6538  156.4373 LP  0  0  0  0  0  0  0  0  0  0  0  0  # atno 17394 bound_to 11000
  140.4764  134.6705  157.5152 LP  0  0  0  0  0  0  0  0  0  0  0  0  # atno 17395 bound_to 11000

$$$$
