AV-unprocessed.smi:630|AV-procd|sdf|3121|dock10
  -GOLD-   22720 0 43D 1   1.00000     0.00000
 Structure written by MMmdl.
 36 37  0  0  0  0  0  0  0  0  2 V2000
  150.6787  138.0544  158.1549 N   0  0  0  0  0  0  0  0  0  0  0  0
  151.7970  138.4513  158.7681 C   0  0  0  0  0  0  0  0  0  0  0  0
  152.4575  137.6920  159.4752 O   0  0  0  0  0  0  0  0  0  0  0  0
  152.2413  139.9112  158.5521 C   0  0  2  0  0  0  0  0  0  0  0  0
  152.9397  140.4242  159.8356 C   0  0  0  0  0  0  0  0  0  0  0  0
  153.8121  141.6677  159.5975 C   0  0  0  0  0  0  0  0  0  0  0  0
  153.0783  143.0124  159.7264 C   0  0  0  0  0  0  0  0  0  0  0  0
  151.6336  143.0475  159.2009 C   0  0  0  0  0  0  0  0  0  0  0  0
  151.3952  142.2893  157.8852 C   0  0  0  0  0  0  0  0  0  0  0  0
  151.0510  140.7956  158.0809 C   0  0  1  0  0  0  0  0  0  0  0  0
  150.5301  140.2856  156.8076 N   0  0  0  0  0  0  0  0  0  0  0  0
  151.2217  140.0692  155.6786 C   0  0  0  0  0  0  0  0  0  0  0  0
  152.4341  140.2903  155.6407 O   0  0  0  0  0  0  0  0  0  0  0  0
  150.4597  139.6129  154.6585 N   0  5  0  0  0  0  0  0  0  0  0  0
  149.3179  140.2444  154.3404 C   0  0  0  0  0  0  0  0  0  0  0  0
  149.1482  141.5643  154.4808 N   0  0  0  0  0  0  0  0  0  0  0  0
  147.8841  142.0062  154.0858 C   0  0  0  0  0  0  0  0  0  0  0  0
  147.0765  141.0011  153.6236 C   0  0  0  0  0  0  0  0  0  0  0  0
  147.8839  139.4598  153.6722 S   0  0  0  0  0  0  0  0  0  0  0  0
  150.3373  137.1150  158.2960 H   0  0  0  0  0  0  0  0  0  0  0  0
  150.1628  138.7032  157.5785 H   0  0  0  0  0  0  0  0  0  0  0  0
  152.9867  139.9019  157.7546 H   0  0  0  0  0  0  0  0  0  0  0  0
  152.2171  140.6072  160.6325 H   0  0  0  0  0  0  0  0  0  0  0  0
  153.5973  139.6391  160.2135 H   0  0  0  0  0  0  0  0  0  0  0  0
  154.6353  141.6665  160.3127 H   0  0  0  0  0  0  0  0  0  0  0  0
  154.2863  141.6001  158.6177 H   0  0  0  0  0  0  0  0  0  0  0  0
  153.0637  143.3129  160.7747 H   0  0  0  0  0  0  0  0  0  0  0  0
  153.6670  143.7728  159.2120 H   0  0  0  0  0  0  0  0  0  0  0  0
  150.9526  142.6726  159.9657 H   0  0  0  0  0  0  0  0  0  0  0  0
  151.3558  144.0929  159.0609 H   0  0  0  0  0  0  0  0  0  0  0  0
  150.5486  142.7669  157.3893 H   0  0  0  0  0  0  0  0  0  0  0  0
  152.2404  142.4119  157.2068 H   0  0  0  0  0  0  0  0  0  0  0  0
  150.2709  140.7346  158.8419 H   0  0  0  0  0  0  0  0  0  0  0  0
  149.5421  140.0813  156.7783 H   0  0  0  0  0  0  0  0  0  0  0  0
  147.6443  143.0560  154.1673 H   0  0  0  0  0  0  0  0  0  0  0  0
  146.0629  141.0718  153.2595 H   0  0  0  0  0  0  0  0  0  0  0  0
  1  2  1  0  0  0  0
  1 20  1  0  0  0  0
  1 21  1  0  0  0  0
  2  3  2  0  0  0  0
  2  4  1  0  0  0  0
  4 10  1  0  0  0  0
  4  5  1  0  0  0  0
  4 22  1  0  0  0  0
  5  6  1  0  0  0  0
  5 23  1  0  0  0  0
  5 24  1  0  0  0  0
  6  7  1  0  0  0  0
  6 25  1  0  0  0  0
  6 26  1  0  0  0  0
  7  8  1  0  0  0  0
  7 27  1  0  0  0  0
  7 28  1  0  0  0  0
  8  9  1  0  0  0  0
  8 29  1  0  0  0  0
  8 30  1  0  0  0  0
  9 10  1  0  0  0  0
  9 31  1  0  0  0  0
  9 32  1  0  0  0  0
 10 11  1  0  0  0  0
 10 33  1  0  0  0  0
 11 12  1  0  0  0  0
 11 34  1  0  0  0  0
 12 13  2  0  0  0  0
 12 14  1  0  0  0  0
 14 15  1  0  0  0  0
 15 19  1  0  0  0  0
 15 16  2  0  0  0  0
 16 17  1  0  0  0  0
 17 18  2  0  0  0  0
 17 35  1  0  0  0  0
 18 19  1  0  0  0  0
 18 36  1  0  0  0  0
M  CHG  1  14  -1
M  END
> <s_m_source_file>
AV-unprocessed.smi

> <i_m_source_file_index>
630

> <i_lp_mmshare_version>
43012

> <i_f3d_flags>
0

> <s_epik_input>
W05IMl1DKD1PKVtDQEBIXTFbQ0gyXVtDSDJdW0NIMl1bQ0gyXVtDSDJdW0NASF0xW05IXUMoPU8pW05IXWMybltjSF1bY0hdczI=

> <s_epik_cmdline>
J2VwaWtfcHl0aG9uJywgJy1waCcsICc3LjAnLCAnLXRuJywgJzgnLCAnLW1hJywgJzIwMCcsICctbWV0YWxfYmluZGluZycsICctaW1hZScsICc8aW5maWxlLm1hZT4nLCAnLW9tYWUnLCAnPG91dGZpbGUubWFlPic=

> <r_lp_tautomer_probability>
0.999

> <r_epik_Ionization_Penalty>
8.29606

> <r_epik_Ionization_Penalty_Charging>
6.67551

> <r_epik_Ionization_Penalty_Neutral>
1.62055

> <r_epik_State_Penalty>
6.67568

> <r_epik_Charging_Adjusted_Penalty>
13.3512

> <i_epik_Tot_Q>
-1

> <i_epik_Tot_abs_Q>
1

> <r_epik_Metal_State_Penalty>
2.59802

> <b_epik_Metal_Only>
1

> <s_lp_Force_Field>
OPLS_2005

> <r_lp_Energy>
8.76486

> <b_lp_Chiralities_Consistent>
1

> <s_lp_Variant>
AV-unprocessed.smi:630-5

> <Gold.Version>
5.8.1

> <Gold.Id.Protein>
6NUR|6NUR_protein|mol2

> <Gold.PLP.Fitness>
40.0154

> <Gold.PLP.PLP>
-33.6365

> <Gold.PLP.part.hbond>
-3.5145

> <Gold.PLP.part.metal>
0.0000

> <Gold.PLP.part.buried>
-1.3658

> <Gold.PLP.part.nonpolar>
-28.8259

> <Gold.PLP.part.repulsive>
0.3879

> <Gold.PLP.ligand.clash>
0.0267

> <Gold.PLP.ligand.torsion>
1.3698

> <Gold.PLP.Chemscore.Hbond>
1.1635

> <Gold.PLP.Chemscore.CHOScore>
1.8632

> <Gold.PLP.Chemscore.Metal>
0.0000

> <Gold.Chemscore.Hbonds>
donor molecule, donor type, donor heavy atom, donor atom, acceptor molecule, acceptor atom, score
      P1  H  7989  7998       L1    14  0.15
      P1  H  7997  8009       L1    13  1.00
      P1  H  8011  8017       L1    16  0.01
      L1  C    17    35       P1  8028  0.92
      L1  C    18    36       P1 10175  0.92

> <Gold.PLP.Chemscore.Internal.Correction>
0.0652

> <Gold.Rescore>
     Score         DG    S(hbond)    S(metal)    S(lipo)     H(rot)  DE(clash)    DE(int)     intcor
      9.60     -14.43       0.99        0.00      81.25       1.50       0.10       4.73       ----

> <Gold.Chemscore.Fitness>
9.5994

> <Gold.Chemscore.DG>
-14.4321

> <Gold.Chemscore.ZeroCoef>
-5.4800

> <Gold.Chemscore.Hbond>
0.9873

> <Gold.Chemscore.Metal>
0.0000

> <Gold.Chemscore.Lipo>
81.2454

> <Gold.Chemscore.Internal_Hbond>
0.0000

> <Gold.Chemscore.DEClash>
0.1027

> <Gold.Chemscore.DEInternal>
4.7300

> <Gold.Chemscore.Rot>
1.5044

> <Gold.Chemscore.Internal.Correction>
   9.000000E+99

> <Gold.Chemscore.Hbonds>
donor molecule, donor type, donor heavy atom, donor atom, acceptor molecule, acceptor atom, score
      P1  H  7997  8009       L1    13  0.96

> <Gold.Chemscore.Hbond.Weighted>
-3.2976

> <Gold.Chemscore.Metal.Weighted>
-0.0000

> <Gold.Chemscore.Lipo.Weighted>
-9.5057

> <Gold.Chemscore.Internal_Hbond.Weighted>
0.0000

> <Gold.Chemscore.DEClash.Weighted>
0.1027

> <Gold.Chemscore.DEInternal.Weighted>
4.7300

> <Gold.Chemscore.Rot.Weighted>
3.8512

> <Gold.Chemscore.Internal.Correction.Weighted>
   9.000000E+99

> <Gold.Protein.RotatedTorsions>
[ 6907 6896 6895 6894 ] final  105.81 input  -60.11 | X-H torsion
[ 7974 7965 7964 7962 ] final  -16.41 input  175.53 | X-H torsion
[ 8008 7997 7996 7995 ] final -145.50 input   59.86 | X-H torsion
[ 10167 10162 10161 10158 ] final -117.76 input  -65.29 | X-H torsion
[ 10718 10713 10712 10709 ] final  -14.44 input   66.30 | X-H torsion
[ 10763 10752 10751 10750 ] final  -86.00 input  -60.55 | X-H torsion
[ 11005 11000 10999 10996 ] final  154.62 input  -57.11 | X-H torsion

> <Gold.Protein.ActiveResidues>
 VAL166  LYS551  ARG553  GLY616  TRP617  ASP618  TYR619  PRO620  LYS621  CYS622 
 ASP623  PHE694  ASN695  SER759  ASP760  ASP761  ALA762  ILE779  LEU786  VAL792 
 PHE793  MET794  SER795  GLU796  ALA797  LYS798  CYS799  TRP800  GLU811  SER814 

> <Gold.Protein.RotatedAtoms>
  152.5217  133.9474  159.7655 H   0  0  0  0  0  0  0  0  0  0  0  0  # atno 6907 bound_to 6896
  150.9791  133.6256  159.2732 H   0  0  0  0  0  0  0  0  0  0  0  0  # atno 6908 bound_to 6896
  151.3440  135.0876  159.9433 H   0  0  0  0  0  0  0  0  0  0  0  0  # atno 6909 bound_to 6896
  146.1989  140.3633  142.8430 H   0  0  0  0  0  0  0  0  0  0  0  0  # atno 7974 bound_to 7965
  155.5443  140.0611  157.2863 H   0  0  0  0  0  0  0  0  0  0  0  0  # atno 8008 bound_to 7997
  154.4442  140.1914  156.0666 H   0  0  0  0  0  0  0  0  0  0  0  0  # atno 8009 bound_to 7997
  156.0562  140.3278  155.7412 H   0  0  0  0  0  0  0  0  0  0  0  0  # atno 8010 bound_to 7997
  140.0648  143.4933  152.2012 H   0  0  0  0  0  0  0  0  0  0  0  0  # atno 10167 bound_to 10162
  156.6159  130.4862  149.6183 H   0  0  0  0  0  0  0  0  0  0  0  0  # atno 10718 bound_to 10713
  154.6175  135.5465  153.7539 H   0  0  0  0  0  0  0  0  0  0  0  0  # atno 10763 bound_to 10752
  153.0223  135.6404  154.1489 H   0  0  0  0  0  0  0  0  0  0  0  0  # atno 10764 bound_to 10752
  154.1425  135.2907  155.3137 H   0  0  0  0  0  0  0  0  0  0  0  0  # atno 10765 bound_to 10752
  140.1506  134.8677  157.2449 H   0  0  0  0  0  0  0  0  0  0  0  0  # atno 11005 bound_to 11000
  144.8639  140.7178  143.6090 LP  0  0  0  0  0  0  0  0  0  0  0  0  # atno 17320 bound_to 7965
  145.3552  139.1696  143.4413 LP  0  0  0  0  0  0  0  0  0  0  0  0  # atno 17321 bound_to 7965
  139.5871  144.7535  151.3492 LP  0  0  0  0  0  0  0  0  0  0  0  0  # atno 17342 bound_to 10162
  140.7154  143.7280  150.7645 LP  0  0  0  0  0  0  0  0  0  0  0  0  # atno 17343 bound_to 10162
  156.2351  130.6818  151.1501 LP  0  0  0  0  0  0  0  0  0  0  0  0  # atno 17370 bound_to 10713
  157.7241  131.0662  150.6009 LP  0  0  0  0  0  0  0  0  0  0  0  0  # atno 17371 bound_to 10713
  140.2609  134.3572  155.7407 LP  0  0  0  0  0  0  0  0  0  0  0  0  # atno 17394 bound_to 11000
  141.2198  133.7369  156.9079 LP  0  0  0  0  0  0  0  0  0  0  0  0  # atno 17395 bound_to 11000

$$$$
