AV-unprocessed.smi:2127|AV-procd|sdf|8679|dock2
  -GOLD-   2272011433D 1   1.00000     0.00000
 Structure written by MMmdl.
 34 35  0  0  0  0  0  0  0  0  1 V2000
  149.8160  140.7878  157.4950 O   0  0  0  0  0  0  0  0  0  0  0  0
  149.6272  141.9232  157.0583 C   0  0  0  0  0  0  0  0  0  0  0  0
  150.1661  143.0478  157.5592 N   0  0  0  0  0  0  0  0  0  0  0  0
  151.0474  143.1847  158.6650 C   0  0  0  0  0  0  0  0  0  0  0  0
  151.3220  144.4122  159.3149 C   0  0  0  0  0  0  0  0  0  0  0  0
  152.2279  144.4221  160.3930 C   0  0  0  0  0  0  0  0  0  0  0  0
  152.8314  143.2085  160.7760 C   0  0  0  0  0  0  0  0  0  0  0  0
  152.5905  142.0342  160.1557 N   0  0  0  0  0  0  0  0  0  0  0  0
  151.7215  142.0327  159.1224 C   0  0  0  0  0  0  0  0  0  0  0  0
  148.8632  142.1873  155.9888 N   0  0  0  0  0  0  0  0  0  0  0  0
  148.1405  141.1974  155.1903 C   0  0  2  0  0  0  0  0  0  0  0  0
  147.2100  140.3455  156.0918 C   0  0  0  0  0  0  0  0  0  0  0  0
  146.8524  138.9407  155.5636 C   0  0  0  0  0  0  0  0  0  0  0  0
  146.2598  138.8981  154.1407 C   0  0  0  0  0  0  0  0  0  0  0  0
  147.0948  139.5630  153.0199 C   0  0  0  0  0  0  0  0  0  0  0  0
  148.5270  139.6489  153.3034 N   0  0  0  0  0  0  0  0  0  0  0  0
  149.0838  140.3977  154.2711 C   0  0  0  0  0  0  0  0  0  0  0  0
  150.3026  140.4313  154.4362 O   0  0  0  0  0  0  0  0  0  0  0  0
  149.9839  143.8960  157.0427 H   0  0  0  0  0  0  0  0  0  0  0  0
  150.8706  145.3407  159.0020 H   0  0  0  0  0  0  0  0  0  0  0  0
  152.4581  145.3407  160.9119 H   0  0  0  0  0  0  0  0  0  0  0  0
  153.5308  143.1815  161.5984 H   0  0  0  0  0  0  0  0  0  0  0  0
  151.5540  141.0758  158.6494 H   0  0  0  0  0  0  0  0  0  0  0  0
  148.7639  143.1505  155.7022 H   0  0  0  0  0  0  0  0  0  0  0  0
  147.5038  141.7670  154.5121 H   0  0  0  0  0  0  0  0  0  0  0  0
  147.6746  140.2166  157.0706 H   0  0  0  0  0  0  0  0  0  0  0  0
  146.2911  140.9036  156.2758 H   0  0  0  0  0  0  0  0  0  0  0  0
  147.7361  138.3023  155.6045 H   0  0  0  0  0  0  0  0  0  0  0  0
  146.1421  138.4809  156.2512 H   0  0  0  0  0  0  0  0  0  0  0  0
  146.1090  137.8499  153.8803 H   0  0  0  0  0  0  0  0  0  0  0  0
  145.2635  139.3414  154.1475 H   0  0  0  0  0  0  0  0  0  0  0  0
  146.9611  139.0088  152.0909 H   0  0  0  0  0  0  0  0  0  0  0  0
  146.7125  140.5632  152.8130 H   0  0  0  0  0  0  0  0  0  0  0  0
  149.1427  139.1134  152.7087 H   0  0  0  0  0  0  0  0  0  0  0  0
  1  2  2  0  0  0  0
  2  3  1  0  0  0  0
  2 10  1  0  0  0  0
  3  4  1  0  0  0  0
  3 19  1  0  0  0  0
  4  9  1  0  0  0  0
  4  5  2  0  0  0  0
  5  6  1  0  0  0  0
  5 20  1  0  0  0  0
  6  7  2  0  0  0  0
  6 21  1  0  0  0  0
  7  8  1  0  0  0  0
  7 22  1  0  0  0  0
  8  9  2  0  0  0  0
  9 23  1  0  0  0  0
 10 11  1  0  0  0  0
 10 24  1  0  0  0  0
 11 17  1  0  0  0  0
 11 12  1  0  0  0  0
 11 25  1  0  0  0  0
 12 13  1  0  0  0  0
 12 26  1  0  0  0  0
 12 27  1  0  0  0  0
 13 14  1  0  0  0  0
 13 28  1  0  0  0  0
 13 29  1  0  0  0  0
 14 15  1  0  0  0  0
 14 30  1  0  0  0  0
 14 31  1  0  0  0  0
 15 16  1  0  0  0  0
 15 32  1  0  0  0  0
 15 33  1  0  0  0  0
 16 17  1  0  0  0  0
 16 34  1  0  0  0  0
 17 18  2  0  0  0  0
M  END
> <s_m_source_file>
AV-unprocessed.smi

> <i_m_source_file_index>
2127

> <i_lp_mmshare_version>
43012

> <i_f3d_flags>
0

> <s_epik_input>
W2NIXTFuW2NIXVtjSF1bY0hdYzFbTkhdQyg9TylbTkhdW0NAQEhdMltDSDJdW0NIMl1bQ0gyXVtDSDJdW05IXUMyPU8=

> <s_epik_cmdline>
J2VwaWtfcHl0aG9uJywgJy1waCcsICc3LjAnLCAnLXRuJywgJzgnLCAnLW1hJywgJzIwMCcsICctbWV0YWxfYmluZGluZycsICctaW1hZScsICc8aW5maWxlLm1hZT4nLCAnLW9tYWUnLCAnPG91dGZpbGUubWFlPic=

> <r_epik_Ionization_Penalty>
0.00420494

> <r_epik_Ionization_Penalty_Charging>
0

> <r_epik_Ionization_Penalty_Neutral>
0.00420494

> <r_epik_State_Penalty>
0.0029968

> <r_epik_Charging_Adjusted_Penalty>
0.0029968

> <i_epik_Tot_Q>
0

> <i_epik_Tot_abs_Q>
0

> <r_epik_Metal_State_Penalty>
-0

> <b_epik_Metal_Only>
0

> <s_lp_Force_Field>
OPLS_2005

> <r_lp_Energy>
16.7417

> <b_lp_Chiralities_Consistent>
1

> <s_lp_Variant>
AV-unprocessed.smi:2127-1

> <Gold.Version>
5.8.1

> <Gold.Id.Protein>
6NUR|6NUR_protein|mol2

> <Gold.PLP.Fitness>
39.3039

> <Gold.PLP.PLP>
-30.1012

> <Gold.PLP.part.hbond>
-3.6979

> <Gold.PLP.part.metal>
0.0000

> <Gold.PLP.part.buried>
-5.2311

> <Gold.PLP.part.nonpolar>
-21.0975

> <Gold.PLP.part.repulsive>
0.3620

> <Gold.PLP.ligand.clash>
0.0000

> <Gold.PLP.ligand.torsion>
0.1650

> <Gold.PLP.Chemscore.Hbond>
3.1600

> <Gold.PLP.Chemscore.CHOScore>
0.0000

> <Gold.PLP.Chemscore.Metal>
0.0000

> <Gold.Chemscore.Hbonds>
donor molecule, donor type, donor heavy atom, donor atom, acceptor molecule, acceptor atom, score
      L1  H     3    19       P1  8028  0.93
      L1  H    10    24       P1  8028  1.00
      L1  H    16    34       P1  7957  0.26
      P1  H  7989  7998       L1    18  0.98

> <Gold.PLP.Chemscore.Internal.Correction>
0.0528

> <Gold.Rescore>
     Score         DG    S(hbond)    S(metal)    S(lipo)     H(rot)  DE(clash)    DE(int)     intcor
     18.47     -21.17       3.03        0.00      69.60       1.00       0.00       2.71       ----

> <Gold.Chemscore.Fitness>
18.4682

> <Gold.Chemscore.DG>
-21.1736

> <Gold.Chemscore.ZeroCoef>
-5.4800

> <Gold.Chemscore.Hbond>
3.0272

> <Gold.Chemscore.Metal>
0.0000

> <Gold.Chemscore.Lipo>
69.5962

> <Gold.Chemscore.Internal_Hbond>
0.0000

> <Gold.Chemscore.DEClash>
0.0000

> <Gold.Chemscore.DEInternal>
2.7054

> <Gold.Chemscore.Rot>
1.0000

> <Gold.Chemscore.Internal.Correction>
   9.000000E+99

> <Gold.Chemscore.Hbonds>
donor molecule, donor type, donor heavy atom, donor atom, acceptor molecule, acceptor atom, score
      L1  H     3    19       P1  8028  0.84
      L1  H    10    24       P1  8028  0.97
      L1  H    16    34       P1  7957  0.26
      P1  H  7989  7998       L1    18  0.93

> <Gold.Chemscore.Hbond.Weighted>
-10.1109

> <Gold.Chemscore.Metal.Weighted>
-0.0000

> <Gold.Chemscore.Lipo.Weighted>
-8.1428

> <Gold.Chemscore.Internal_Hbond.Weighted>
0.0000

> <Gold.Chemscore.DEClash.Weighted>
0.0000

> <Gold.Chemscore.DEInternal.Weighted>
2.7054

> <Gold.Chemscore.Rot.Weighted>
2.5600

> <Gold.Chemscore.Internal.Correction.Weighted>
   9.000000E+99

> <Gold.Protein.RotatedTorsions>
[ 6907 6896 6895 6894 ] final  -94.16 input  -60.11 | X-H torsion
[ 7974 7965 7964 7962 ] final  117.99 input  175.53 | X-H torsion
[ 8008 7997 7996 7995 ] final -110.39 input   59.86 | X-H torsion
[ 10167 10162 10161 10158 ] final   73.77 input  -65.29 | X-H torsion
[ 10718 10713 10712 10709 ] final   -0.14 input   66.30 | X-H torsion
[ 10763 10752 10751 10750 ] final  100.85 input  -60.55 | X-H torsion
[ 11005 11000 10999 10996 ] final   92.67 input  -57.11 | X-H torsion

> <Gold.Protein.ActiveResidues>
 VAL166  LYS551  ARG553  GLY616  TRP617  ASP618  TYR619  PRO620  LYS621  CYS622 
 ASP623  PHE694  ASN695  SER759  ASP760  ASP761  ALA762  ILE779  LEU786  VAL792 
 PHE793  MET794  SER795  GLU796  ALA797  LYS798  CYS799  TRP800  GLU811  SER814 

> <Gold.Protein.RotatedAtoms>
  150.6936  134.1856  159.4265 H   0  0  0  0  0  0  0  0  0  0  0  0  # atno 6907 bound_to 6896
  151.9829  135.0017  160.0567 H   0  0  0  0  0  0  0  0  0  0  0  0  # atno 6908 bound_to 6896
  152.1739  133.4627  159.4960 H   0  0  0  0  0  0  0  0  0  0  0  0  # atno 6909 bound_to 6896
  145.1606  139.3157  143.4519 H   0  0  0  0  0  0  0  0  0  0  0  0  # atno 7974 bound_to 7965
  154.9737  140.0397  157.2246 H   0  0  0  0  0  0  0  0  0  0  0  0  # atno 8008 bound_to 7997
  154.7777  140.2813  155.6065 H   0  0  0  0  0  0  0  0  0  0  0  0  # atno 8009 bound_to 7997
  156.2931  140.2597  156.2595 H   0  0  0  0  0  0  0  0  0  0  0  0  # atno 8010 bound_to 7997
  140.0209  144.5541  150.7582 H   0  0  0  0  0  0  0  0  0  0  0  0  # atno 10167 bound_to 10162
  156.8248  130.5468  149.5693 H   0  0  0  0  0  0  0  0  0  0  0  0  # atno 10718 bound_to 10713
  153.3192  135.4065  155.1402 H   0  0  0  0  0  0  0  0  0  0  0  0  # atno 10763 bound_to 10752
  154.8596  135.3583  154.5619 H   0  0  0  0  0  0  0  0  0  0  0  0  # atno 10764 bound_to 10752
  153.6052  135.7069  153.5427 H   0  0  0  0  0  0  0  0  0  0  0  0  # atno 10765 bound_to 10752
  139.8820  134.8746  156.3607 H   0  0  0  0  0  0  0  0  0  0  0  0  # atno 11005 bound_to 11000
  146.3483  140.1715  142.8589 LP  0  0  0  0  0  0  0  0  0  0  0  0  # atno 17320 bound_to 7965
  145.0335  140.8889  143.5095 LP  0  0  0  0  0  0  0  0  0  0  0  0  # atno 17321 bound_to 7965
  140.7342  143.2727  151.3839 LP  0  0  0  0  0  0  0  0  0  0  0  0  # atno 17342 bound_to 10162
  139.6140  144.1040  152.2327 LP  0  0  0  0  0  0  0  0  0  0  0  0  # atno 17343 bound_to 10162
  156.0968  130.5938  150.9826 LP  0  0  0  0  0  0  0  0  0  0  0  0  # atno 17370 bound_to 10713
  157.6438  131.0907  150.8197 LP  0  0  0  0  0  0  0  0  0  0  0  0  # atno 17371 bound_to 10713
  140.9531  133.7437  156.0299 LP  0  0  0  0  0  0  0  0  0  0  0  0  # atno 17394 bound_to 11000
  140.8081  134.3431  157.5420 LP  0  0  0  0  0  0  0  0  0  0  0  0  # atno 17395 bound_to 11000

$$$$
