AV-unprocessed.smi:1908|AV-procd|sdf|7733|dock4
  -GOLD-   22720 9473D 1   1.00000     0.00000
 Structure written by MMmdl.
 28 28  0  0  0  0  0  0  0  0  1 V2000
  149.9603  144.5668  159.6715 C   0  0  0  0  0  0  0  0  0  0  0  0
  151.1138  143.9685  158.8559 C   0  0  0  0  0  0  0  0  0  0  0  0
  152.1708  145.0267  158.5045 C   0  0  0  0  0  0  0  0  0  0  0  0
  150.5851  143.3580  157.6397 N   0  0  0  0  0  0  0  0  0  0  0  0
  150.7307  142.0710  157.2877 C   0  0  0  0  0  0  0  0  0  0  0  0
  151.3510  141.2511  157.9662 O   0  0  0  0  0  0  0  0  0  0  0  0
  150.1022  141.6589  155.9492 C   0  0  0  0  0  0  0  0  0  0  0  0
  150.4494  140.2852  155.5591 N   0  0  0  0  0  0  0  0  0  0  0  0
  151.7626  139.8435  155.6396 C   0  0  0  0  0  0  0  0  0  0  0  0
  152.1488  138.5889  155.3073 C   0  0  0  0  0  0  0  0  0  0  0  0
  151.1700  137.6155  154.8347 C   0  0  0  0  0  0  0  0  0  0  0  0
  151.4218  136.4580  154.5078 O   0  0  0  0  0  0  0  0  0  0  0  0
  149.8598  138.0969  154.7706 N   0  0  0  0  0  0  0  0  0  0  0  0
  149.4547  139.3875  155.1142 C   0  0  0  0  0  0  0  0  0  0  0  0
  148.2699  139.7079  155.0252 O   0  0  0  0  0  0  0  0  0  0  0  0
  149.1466  137.4574  154.4519 H   0  0  0  0  0  0  0  0  0  0  0  0
  150.3246  145.0048  160.6013 H   0  0  0  0  0  0  0  0  0  0  0  0
  149.2271  143.8032  159.9334 H   0  0  0  0  0  0  0  0  0  0  0  0
  149.4434  145.3499  159.1156 H   0  0  0  0  0  0  0  0  0  0  0  0
  151.5851  143.1974  159.4681 H   0  0  0  0  0  0  0  0  0  0  0  0
  152.5753  145.4897  159.4050 H   0  0  0  0  0  0  0  0  0  0  0  0
  151.7493  145.8185  157.8843 H   0  0  0  0  0  0  0  0  0  0  0  0
  153.0066  144.5858  157.9597 H   0  0  0  0  0  0  0  0  0  0  0  0
  150.0652  143.9608  157.0184 H   0  0  0  0  0  0  0  0  0  0  0  0
  149.0174  141.7773  155.9901 H   0  0  0  0  0  0  0  0  0  0  0  0
  150.4387  142.3641  155.1879 H   0  0  0  0  0  0  0  0  0  0  0  0
  152.5212  140.5296  155.9894 H   0  0  0  0  0  0  0  0  0  0  0  0
  153.1873  138.3032  155.3927 H   0  0  0  0  0  0  0  0  0  0  0  0
  1  2  1  0  0  0  0
  1 17  1  0  0  0  0
  1 18  1  0  0  0  0
  1 19  1  0  0  0  0
  2  3  1  0  0  0  0
  2  4  1  0  0  0  0
  2 20  1  0  0  0  0
  3 21  1  0  0  0  0
  3 22  1  0  0  0  0
  3 23  1  0  0  0  0
  4  5  1  0  0  0  0
  4 24  1  0  0  0  0
  5  6  2  0  0  0  0
  5  7  1  0  0  0  0
  7  8  1  0  0  0  0
  7 25  1  0  0  0  0
  7 26  1  0  0  0  0
  8 14  1  0  0  0  0
  8  9  1  0  0  0  0
  9 10  2  0  0  0  0
  9 27  1  0  0  0  0
 10 11  1  0  0  0  0
 10 28  1  0  0  0  0
 11 12  2  0  0  0  0
 11 13  1  0  0  0  0
 13 16  1  0  0  0  0
 13 14  1  0  0  0  0
 14 15  2  0  0  0  0
M  END
> <s_m_source_file>
AV-unprocessed.smi

> <i_m_source_file_index>
1908

> <i_lp_mmshare_version>
43012

> <i_f3d_flags>
0

> <s_epik_input>
W0NIM11bQ0hdKFtDSDNdKVtOSF1DKD1PKVtDSDJdbjFbY0hdW2NIXWMoPU8pW25IXWMxPU8=

> <s_epik_cmdline>
J2VwaWtfcHl0aG9uJywgJy1waCcsICc3LjAnLCAnLXRuJywgJzgnLCAnLW1hJywgJzIwMCcsICctbWV0YWxfYmluZGluZycsICctaW1hZScsICc8aW5maWxlLm1hZT4nLCAnLW9tYWUnLCAnPG91dGZpbGUubWFlPic=

> <r_lp_tautomer_probability>
0.999537

> <r_epik_Ionization_Penalty>
0.00328918

> <r_epik_Ionization_Penalty_Charging>
0.00328916

> <r_epik_Ionization_Penalty_Neutral>
2.06703e-08

> <r_epik_State_Penalty>
0.00232387

> <r_epik_Charging_Adjusted_Penalty>
0.00561303

> <i_epik_Tot_Q>
0

> <i_epik_Tot_abs_Q>
0

> <r_epik_Metal_State_Penalty>
0.365273

> <b_epik_Metal_Only>
0

> <s_lp_Force_Field>
OPLS_2005

> <r_lp_Energy>
1.74707

> <b_lp_Chiralities_Consistent>
1

> <s_lp_Variant>
AV-unprocessed.smi:1908-1

> <Gold.Version>
5.8.1

> <Gold.Id.Protein>
6NUR|6NUR_protein|mol2

> <Gold.PLP.Fitness>
37.3538

> <Gold.PLP.PLP>
-31.7523

> <Gold.PLP.part.hbond>
-2.0000

> <Gold.PLP.part.metal>
0.0000

> <Gold.PLP.part.buried>
-4.5695

> <Gold.PLP.part.nonpolar>
-26.2153

> <Gold.PLP.part.repulsive>
1.1252

> <Gold.PLP.ligand.clash>
0.0000

> <Gold.PLP.ligand.torsion>
0.2029

> <Gold.PLP.Chemscore.Hbond>
2.0000

> <Gold.PLP.Chemscore.CHOScore>
0.0000

> <Gold.PLP.Chemscore.Metal>
0.0000

> <Gold.Chemscore.Hbonds>
donor molecule, donor type, donor heavy atom, donor atom, acceptor molecule, acceptor atom, score
      L1  H     4    24       P1  8028  1.00
      P1  H 10752 10765       L1    12  1.00

> <Gold.PLP.Chemscore.Internal.Correction>
0.0073

> <Gold.Rescore>
     Score         DG    S(hbond)    S(metal)    S(lipo)     H(rot)  DE(clash)    DE(int)     intcor
     12.92     -14.41       1.98        0.00      58.29       1.76       0.06       1.43       ----

> <Gold.Chemscore.Fitness>
12.9192

> <Gold.Chemscore.DG>
-14.4108

> <Gold.Chemscore.ZeroCoef>
-5.4800

> <Gold.Chemscore.Hbond>
1.9781

> <Gold.Chemscore.Metal>
0.0000

> <Gold.Chemscore.Lipo>
58.2890

> <Gold.Chemscore.Internal_Hbond>
0.0000

> <Gold.Chemscore.DEClash>
0.0609

> <Gold.Chemscore.DEInternal>
1.4307

> <Gold.Chemscore.Rot>
1.7562

> <Gold.Chemscore.Internal.Correction>
   9.000000E+99

> <Gold.Chemscore.Hbonds>
donor molecule, donor type, donor heavy atom, donor atom, acceptor molecule, acceptor atom, score
      L1  H     4    24       P1  8028  0.94
      P1  H 10752 10765       L1    12  1.00

> <Gold.Chemscore.Hbond.Weighted>
-6.6067

> <Gold.Chemscore.Metal.Weighted>
-0.0000

> <Gold.Chemscore.Lipo.Weighted>
-6.8198

> <Gold.Chemscore.Internal_Hbond.Weighted>
0.0000

> <Gold.Chemscore.DEClash.Weighted>
0.0609

> <Gold.Chemscore.DEInternal.Weighted>
1.4307

> <Gold.Chemscore.Rot.Weighted>
4.4958

> <Gold.Chemscore.Internal.Correction.Weighted>
   9.000000E+99

> <Gold.Protein.RotatedTorsions>
[ 6907 6896 6895 6894 ] final  103.67 input  -60.11 | X-H torsion
[ 7974 7965 7964 7962 ] final  146.99 input  175.53 | X-H torsion
[ 8008 7997 7996 7995 ] final  -81.68 input   59.86 | X-H torsion
[ 10167 10162 10161 10158 ] final -165.05 input  -65.29 | X-H torsion
[ 10718 10713 10712 10709 ] final  137.65 input   66.30 | X-H torsion
[ 10763 10752 10751 10750 ] final  165.68 input  -60.55 | X-H torsion
[ 11005 11000 10999 10996 ] final   66.81 input  -57.11 | X-H torsion

> <Gold.Protein.ActiveResidues>
 VAL166  LYS551  ARG553  GLY616  TRP617  ASP618  TYR619  PRO620  LYS621  CYS622 
 ASP623  PHE694  ASN695  SER759  ASP760  ASP761  ALA762  ILE779  LEU786  VAL792 
 PHE793  MET794  SER795  GLU796  ALA797  LYS798  CYS799  TRP800  GLU811  SER814 

> <Gold.Protein.RotatedAtoms>
  152.5288  133.9791  159.7797 H   0  0  0  0  0  0  0  0  0  0  0  0  # atno 6907 bound_to 6896
  151.0048  133.6013  159.2697 H   0  0  0  0  0  0  0  0  0  0  0  0  # atno 6908 bound_to 6896
  151.3109  135.0800  159.9325 H   0  0  0  0  0  0  0  0  0  0  0  0  # atno 6909 bound_to 6896
  144.8627  139.5973  143.5923 H   0  0  0  0  0  0  0  0  0  0  0  0  # atno 7974 bound_to 7965
  154.6008  140.0644  156.9365 H   0  0  0  0  0  0  0  0  0  0  0  0  # atno 8008 bound_to 7997
  155.2136  140.3324  155.4307 H   0  0  0  0  0  0  0  0  0  0  0  0  # atno 8009 bound_to 7997
  156.2316  140.1844  156.7210 H   0  0  0  0  0  0  0  0  0  0  0  0  # atno 8010 bound_to 7997
  139.6209  144.0627  152.1931 H   0  0  0  0  0  0  0  0  0  0  0  0  # atno 10167 bound_to 10162
  157.4338  131.1051  151.0221 H   0  0  0  0  0  0  0  0  0  0  0  0  # atno 10718 bound_to 10713
  154.3276  135.2755  155.2488 H   0  0  0  0  0  0  0  0  0  0  0  0  # atno 10763 bound_to 10752
  154.4814  135.5857  153.6395 H   0  0  0  0  0  0  0  0  0  0  0  0  # atno 10764 bound_to 10752
  152.9870  135.6112  154.3466 H   0  0  0  0  0  0  0  0  0  0  0  0  # atno 10765 bound_to 10752
  139.9809  134.6746  156.0265 H   0  0  0  0  0  0  0  0  0  0  0  0  # atno 11005 bound_to 11000
  146.2873  139.7039  142.9186 LP  0  0  0  0  0  0  0  0  0  0  0  0  # atno 17320 bound_to 7965
  145.4281  141.0412  143.2926 LP  0  0  0  0  0  0  0  0  0  0  0  0  # atno 17321 bound_to 7965
  140.0269  144.6111  150.7520 LP  0  0  0  0  0  0  0  0  0  0  0  0  # atno 17342 bound_to 10162
  140.7381  143.2774  151.3701 LP  0  0  0  0  0  0  0  0  0  0  0  0  # atno 17343 bound_to 10162
  157.1108  130.6021  149.5481 LP  0  0  0  0  0  0  0  0  0  0  0  0  # atno 17370 bound_to 10713
  155.9923  130.4980  150.7333 LP  0  0  0  0  0  0  0  0  0  0  0  0  # atno 17371 bound_to 10713
  141.1481  133.6552  156.3928 LP  0  0  0  0  0  0  0  0  0  0  0  0  # atno 17394 bound_to 11000
  140.5099  134.6405  157.5280 LP  0  0  0  0  0  0  0  0  0  0  0  0  # atno 17395 bound_to 11000

$$$$
