AV-unprocessed.smi:2267|AV-procd|sdf|9149|dock3
  -GOLD-   2272012353D 1   1.00000     0.00000
 Structure written by MMmdl.
 41 42  0  0  0  0  0  0  0  0  1 V2000
  151.6952  144.1579  157.8808 C   0  0  0  0  0  0  0  0  0  0  0  0
  152.1668  142.9789  158.7066 C   0  0  0  0  0  0  0  0  0  0  0  0
  153.1571  143.1527  159.6940 C   0  0  0  0  0  0  0  0  0  0  0  0
  153.5903  142.0518  160.4553 C   0  0  0  0  0  0  0  0  0  0  0  0
  153.0350  140.7779  160.2309 C   0  0  0  0  0  0  0  0  0  0  0  0
  152.0436  140.5857  159.2469 C   0  0  0  0  0  0  0  0  0  0  0  0
  151.5546  139.3057  159.0948 O   0  0  0  0  0  0  0  0  0  0  0  0
  150.6777  139.0428  158.0073 C   0  0  0  0  0  0  0  0  0  0  0  0
  150.0689  137.6415  158.1864 C   0  0  1  0  0  0  0  0  0  0  0  0
  151.0000  136.8735  158.9236 O   0  0  0  0  0  0  0  0  0  0  0  0
  148.7487  137.6846  158.9892 C   0  0  0  0  0  0  0  0  0  0  0  0
  148.3921  136.3674  159.5437 N   0  0  0  0  0  0  0  0  0  0  0  0
  148.4551  135.2805  158.6563 C   0  0  0  0  0  0  0  0  0  0  0  0
  148.1657  134.0781  159.0327 N   0  0  0  0  0  0  0  0  0  0  0  0
  147.7737  133.8361  160.3525 C   0  0  0  0  0  0  0  0  0  0  0  0
  147.4563  132.3894  160.6877 C   0  0  0  0  0  0  0  0  0  0  0  0
  147.6858  134.8463  161.2604 C   0  0  0  0  0  0  0  0  0  0  0  0
  147.2618  134.6430  162.7097 C   0  0  0  0  0  0  0  0  0  0  0  0
  148.0106  136.2208  160.8456 C   0  0  0  0  0  0  0  0  0  0  0  0
  147.9451  137.1838  161.6124 O   0  0  0  0  0  0  0  0  0  0  0  0
  151.6137  141.7008  158.4833 C   0  0  0  0  0  0  0  0  0  0  0  0
  152.0427  145.1017  158.3020 H   0  0  0  0  0  0  0  0  0  0  0  0
  150.6058  144.1852  157.8433 H   0  0  0  0  0  0  0  0  0  0  0  0
  152.0728  144.0780  156.8613 H   0  0  0  0  0  0  0  0  0  0  0  0
  153.5872  144.1278  159.8708 H   0  0  0  0  0  0  0  0  0  0  0  0
  154.3492  142.1839  161.2123 H   0  0  0  0  0  0  0  0  0  0  0  0
  153.3736  139.9383  160.8204 H   0  0  0  0  0  0  0  0  0  0  0  0
  149.8944  139.7988  157.9266 H   0  0  0  0  0  0  0  0  0  0  0  0
  151.2640  139.0707  157.0874 H   0  0  0  0  0  0  0  0  0  0  0  0
  149.9058  137.1891  157.2072 H   0  0  0  0  0  0  0  0  0  0  0  0
  150.5310  136.3772  159.5768 H   0  0  0  0  0  0  0  0  0  0  0  0
  148.7929  138.4577  159.7594 H   0  0  0  0  0  0  0  0  0  0  0  0
  147.9349  138.0078  158.3375 H   0  0  0  0  0  0  0  0  0  0  0  0
  148.7594  135.5233  157.6367 H   0  0  0  0  0  0  0  0  0  0  0  0
  148.1084  132.0283  161.4836 H   0  0  0  0  0  0  0  0  0  0  0  0
  147.5967  131.7414  159.8215 H   0  0  0  0  0  0  0  0  0  0  0  0
  146.4202  132.2918  161.0129 H   0  0  0  0  0  0  0  0  0  0  0  0
  146.3637  135.2233  162.9228 H   0  0  0  0  0  0  0  0  0  0  0  0
  148.0507  134.9795  163.3830 H   0  0  0  0  0  0  0  0  0  0  0  0
  147.0457  133.6039  162.9527 H   0  0  0  0  0  0  0  0  0  0  0  0
  150.8591  141.6000  157.7182 H   0  0  0  0  0  0  0  0  0  0  0  0
  1  2  1  0  0  0  0
  1 22  1  0  0  0  0
  1 23  1  0  0  0  0
  1 24  1  0  0  0  0
  2 21  1  0  0  0  0
  2  3  2  0  0  0  0
  3  4  1  0  0  0  0
  3 25  1  0  0  0  0
  4  5  2  0  0  0  0
  4 26  1  0  0  0  0
  5  6  1  0  0  0  0
  5 27  1  0  0  0  0
  6  7  1  0  0  0  0
  6 21  2  0  0  0  0
  7  8  1  0  0  0  0
  8  9  1  0  0  0  0
  8 28  1  0  0  0  0
  8 29  1  0  0  0  0
  9 10  1  0  0  0  0
  9 11  1  0  0  0  0
  9 30  1  0  0  0  0
 10 31  1  0  0  0  0
 11 12  1  0  0  0  0
 11 32  1  0  0  0  0
 11 33  1  0  0  0  0
 12 19  1  0  0  0  0
 12 13  1  0  0  0  0
 13 14  2  0  0  0  0
 13 34  1  0  0  0  0
 14 15  1  0  0  0  0
 15 16  1  0  0  0  0
 15 17  2  0  0  0  0
 16 35  1  0  0  0  0
 16 36  1  0  0  0  0
 16 37  1  0  0  0  0
 17 18  1  0  0  0  0
 17 19  1  0  0  0  0
 18 38  1  0  0  0  0
 18 39  1  0  0  0  0
 18 40  1  0  0  0  0
 19 20  2  0  0  0  0
 21 41  1  0  0  0  0
M  END
> <s_m_source_file>
AV-unprocessed.smi

> <i_m_source_file_index>
2267

> <i_lp_mmshare_version>
43012

> <i_f3d_flags>
0

> <s_epik_input>
W0NIM11jMVtjSF1bY0hdW2NIXWMoW2NIXTEpT1tDSDJdW0NASF0oW09IXSlbQ0gyXW4yW2NIXW5jKFtDSDNdKWMoW0NIM10pYzI9Tw==

> <s_epik_cmdline>
J2VwaWtfcHl0aG9uJywgJy1waCcsICc3LjAnLCAnLXRuJywgJzgnLCAnLW1hJywgJzIwMCcsICctbWV0YWxfYmluZGluZycsICctaW1hZScsICc8aW5maWxlLm1hZT4nLCAnLW9tYWUnLCAnPG91dGZpbGUubWFlPic=

> <r_lp_tautomer_probability>
1

> <r_epik_Ionization_Penalty>
3.72236e-05

> <r_epik_Ionization_Penalty_Charging>
8.38864e-08

> <r_epik_Ionization_Penalty_Neutral>
3.71397e-05

> <r_epik_State_Penalty>
-0

> <r_epik_Charging_Adjusted_Penalty>
8.38864e-08

> <i_epik_Tot_Q>
0

> <i_epik_Tot_abs_Q>
0

> <r_epik_Metal_State_Penalty>
-0

> <b_epik_Metal_Only>
0

> <s_lp_Force_Field>
OPLS_2005

> <r_lp_Energy>
23.9214

> <b_lp_Chiralities_Consistent>
1

> <s_lp_Variant>
AV-unprocessed.smi:2267-2

> <Gold.Version>
5.8.1

> <Gold.Id.Protein>
6NUR|6NUR_protein|mol2

> <Gold.PLP.Fitness>
46.8934

> <Gold.PLP.PLP>
-43.3047

> <Gold.PLP.part.hbond>
-3.1080

> <Gold.PLP.part.metal>
0.0000

> <Gold.PLP.part.buried>
-4.5454

> <Gold.PLP.part.nonpolar>
-36.1493

> <Gold.PLP.part.repulsive>
0.0000

> <Gold.PLP.ligand.clash>
0.0000

> <Gold.PLP.ligand.torsion>
0.7621

> <Gold.PLP.Chemscore.Hbond>
1.6880

> <Gold.PLP.Chemscore.CHOScore>
0.0000

> <Gold.PLP.Chemscore.Metal>
0.0000

> <Gold.Chemscore.Hbonds>
donor molecule, donor type, donor heavy atom, donor atom, acceptor molecule, acceptor atom, score
      P1  H  6931  6943       L1    20  1.00
      P1  H  6934  6947       L1    20  0.54

> <Gold.PLP.Chemscore.Internal.Correction>
0.0490

> <Gold.Rescore>
     Score         DG    S(hbond)    S(metal)    S(lipo)     H(rot)  DE(clash)    DE(int)     intcor
     16.67     -17.36       1.73        0.00     103.66       2.35       0.03       0.66       ----

> <Gold.Chemscore.Fitness>
16.6678

> <Gold.Chemscore.DG>
-17.3596

> <Gold.Chemscore.ZeroCoef>
-5.4800

> <Gold.Chemscore.Hbond>
1.7261

> <Gold.Chemscore.Metal>
0.0000

> <Gold.Chemscore.Lipo>
103.6591

> <Gold.Chemscore.Internal_Hbond>
0.0000

> <Gold.Chemscore.DEClash>
0.0331

> <Gold.Chemscore.DEInternal>
0.6586

> <Gold.Chemscore.Rot>
2.3490

> <Gold.Chemscore.Internal.Correction>
   9.000000E+99

> <Gold.Chemscore.Hbonds>
donor molecule, donor type, donor heavy atom, donor atom, acceptor molecule, acceptor atom, score
      P1  H  6931  6943       L1    20  0.94
      P1  H  6934  6947       L1    20  0.52

> <Gold.Chemscore.Hbond.Weighted>
-5.7650

> <Gold.Chemscore.Metal.Weighted>
-0.0000

> <Gold.Chemscore.Lipo.Weighted>
-12.1281

> <Gold.Chemscore.Internal_Hbond.Weighted>
0.0000

> <Gold.Chemscore.DEClash.Weighted>
0.0331

> <Gold.Chemscore.DEInternal.Weighted>
0.6586

> <Gold.Chemscore.Rot.Weighted>
6.0136

> <Gold.Chemscore.Internal.Correction.Weighted>
   9.000000E+99

> <Gold.Protein.RotatedTorsions>
[ 6907 6896 6895 6894 ] final   93.88 input  -60.11 | X-H torsion
[ 7974 7965 7964 7962 ] final -125.64 input  175.53 | X-H torsion
[ 8008 7997 7996 7995 ] final  -61.79 input   59.86 | X-H torsion
[ 10167 10162 10161 10158 ] final  -98.35 input  -65.29 | X-H torsion
[ 10718 10713 10712 10709 ] final  -69.57 input   66.30 | X-H torsion
[ 10763 10752 10751 10750 ] final   96.08 input  -60.55 | X-H torsion
[ 11005 11000 10999 10996 ] final  -15.50 input  -57.11 | X-H torsion

> <Gold.Protein.ActiveResidues>
 VAL166  LYS551  ARG553  GLY616  TRP617  ASP618  TYR619  PRO620  LYS621  CYS622 
 ASP623  PHE694  ASN695  SER759  ASP760  ASP761  ALA762  ILE779  LEU786  VAL792 
 PHE793  MET794  SER795  GLU796  ALA797  LYS798  CYS799  TRP800  GLU811  SER814 

> <Gold.Protein.RotatedAtoms>
  152.5451  134.1280  159.8426 H   0  0  0  0  0  0  0  0  0  0  0  0  # atno 6907 bound_to 6896
  151.1328  133.5017  159.2606 H   0  0  0  0  0  0  0  0  0  0  0  0  # atno 6908 bound_to 6896
  151.1656  135.0304  159.8784 H   0  0  0  0  0  0  0  0  0  0  0  0  # atno 6909 bound_to 6896
  144.9955  140.7772  143.4528 H   0  0  0  0  0  0  0  0  0  0  0  0  # atno 7974 bound_to 7965
  154.4466  140.1010  156.6485 H   0  0  0  0  0  0  0  0  0  0  0  0  # atno 8008 bound_to 7997
  155.5423  140.3484  155.4431 H   0  0  0  0  0  0  0  0  0  0  0  0  # atno 8009 bound_to 7997
  156.0588  140.1321  156.9954 H   0  0  0  0  0  0  0  0  0  0  0  0  # atno 8010 bound_to 7997
  140.2738  143.3326  152.0508 H   0  0  0  0  0  0  0  0  0  0  0  0  # atno 10167 bound_to 10162
  156.0449  130.4315  150.2168 H   0  0  0  0  0  0  0  0  0  0  0  0  # atno 10718 bound_to 10713
  153.2607  135.4231  155.0891 H   0  0  0  0  0  0  0  0  0  0  0  0  # atno 10763 bound_to 10752
  154.8419  135.3448  154.6381 H   0  0  0  0  0  0  0  0  0  0  0  0  # atno 10764 bound_to 10752
  153.6802  135.7039  153.5177 H   0  0  0  0  0  0  0  0  0  0  0  0  # atno 10765 bound_to 10752
  140.7973  133.8241  155.9436 H   0  0  0  0  0  0  0  0  0  0  0  0  # atno 11005 bound_to 11000
  145.2226  139.2152  143.5085 LP  0  0  0  0  0  0  0  0  0  0  0  0  # atno 17320 bound_to 7965
  146.3441  140.2087  142.8590 LP  0  0  0  0  0  0  0  0  0  0  0  0  # atno 17321 bound_to 7965
  139.4981  144.6638  151.6404 LP  0  0  0  0  0  0  0  0  0  0  0  0  # atno 17342 bound_to 10162
  140.5867  143.9851  150.6300 LP  0  0  0  0  0  0  0  0  0  0  0  0  # atno 17343 bound_to 10162
  157.0258  130.9993  151.3326 LP  0  0  0  0  0  0  0  0  0  0  0  0  # atno 17370 bound_to 10713
  157.5312  130.8059  149.7919 LP  0  0  0  0  0  0  0  0  0  0  0  0  # atno 17371 bound_to 10713
  140.9330  134.1997  157.4851 LP  0  0  0  0  0  0  0  0  0  0  0  0  # atno 17394 bound_to 11000
  139.8725  134.9841  156.5224 LP  0  0  0  0  0  0  0  0  0  0  0  0  # atno 17395 bound_to 11000

$$$$
