AV-unprocessed.smi:753|AV-procd|sdf|3602|dock1
  -GOLD-   22720 0593D 1   1.00000     0.00000
 Structure written by MMmdl.
 43 45  0  0  0  0  0  0  0  0  1 V2000
  145.3220  136.0966  151.4281 C   0  0  0  0  0  0  0  0  0  0  0  0
  145.8227  137.2987  152.2013 C   0  0  0  0  0  0  0  0  0  0  0  0
  145.4701  137.4881  153.5543 C   0  0  0  0  0  0  0  0  0  0  0  0
  145.9647  138.6244  154.2231 C   0  0  0  0  0  0  0  0  0  0  0  0
  146.7892  139.5235  153.5163 C   0  0  0  0  0  0  0  0  0  0  0  0
  147.3413  140.7649  154.1875 C   0  0  0  0  0  0  0  0  0  0  0  0
  148.8780  140.7773  154.2012 C   0  0  0  0  0  0  0  0  0  0  0  0
  149.3926  141.7932  155.1102 N   0  0  0  0  0  0  0  0  0  0  0  0
  149.8103  141.5637  156.3664 C   0  0  0  0  0  0  0  0  0  0  0  0
  149.7830  140.4554  156.8980 O   0  0  0  0  0  0  0  0  0  0  0  0
  150.2703  142.6497  157.0128 N   0  0  0  0  0  0  0  0  0  0  0  0
  150.7923  142.7329  158.3791 C   0  0  1  0  0  0  0  0  0  0  0  0
  152.1238  141.9647  158.5306 C   0  0  0  0  0  0  0  0  0  0  0  0
  153.0907  143.0486  159.0429 C   0  0  2  0  0  0  0  0  0  0  0  0
  152.7085  143.4424  160.4829 C   0  0  0  0  0  0  0  0  0  0  0  0
  151.4060  144.2429  160.2852 C   0  0  0  0  0  0  0  0  0  0  0  0
  151.2006  144.1762  158.7610 C   0  0  1  0  0  0  0  0  0  0  0  0
  152.6364  144.2682  158.2533 C   0  0  0  0  0  0  0  0  0  0  0  0
  147.0809  139.2422  152.1651 C   0  0  0  0  0  0  0  0  0  0  0  0
  146.6114  138.1555  151.5156 N   0  0  0  0  0  0  0  0  0  0  0  0
  144.7295  135.4372  152.0629 H   0  0  0  0  0  0  0  0  0  0  0  0
  146.1610  135.5235  151.0324 H   0  0  0  0  0  0  0  0  0  0  0  0
  144.6984  136.4166  150.5930 H   0  0  0  0  0  0  0  0  0  0  0  0
  144.8354  136.7823  154.0698 H   0  0  0  0  0  0  0  0  0  0  0  0
  145.7130  138.8012  155.2585 H   0  0  0  0  0  0  0  0  0  0  0  0
  146.9603  141.6466  153.6701 H   0  0  0  0  0  0  0  0  0  0  0  0
  146.9567  140.8165  155.2071 H   0  0  0  0  0  0  0  0  0  0  0  0
  149.2557  139.8087  154.5296 H   0  0  0  0  0  0  0  0  0  0  0  0
  149.2696  140.9398  153.1953 H   0  0  0  0  0  0  0  0  0  0  0  0
  149.4481  142.7369  154.7560 H   0  0  0  0  0  0  0  0  0  0  0  0
  150.2390  143.5208  156.5031 H   0  0  0  0  0  0  0  0  0  0  0  0
  150.0517  142.3337  159.0749 H   0  0  0  0  0  0  0  0  0  0  0  0
  152.0407  141.1268  159.2238 H   0  0  0  0  0  0  0  0  0  0  0  0
  152.4706  141.5678  157.5751 H   0  0  0  0  0  0  0  0  0  0  0  0
  154.1426  142.7880  158.9242 H   0  0  0  0  0  0  0  0  0  0  0  0
  152.5697  142.5728  161.1261 H   0  0  0  0  0  0  0  0  0  0  0  0
  153.4790  144.0711  160.9311 H   0  0  0  0  0  0  0  0  0  0  0  0
  150.5668  143.8205  160.8389 H   0  0  0  0  0  0  0  0  0  0  0  0
  151.5375  145.2748  160.6134 H   0  0  0  0  0  0  0  0  0  0  0  0
  150.5303  144.9504  158.3856 H   0  0  0  0  0  0  0  0  0  0  0  0
  153.1428  145.1886  158.5490 H   0  0  0  0  0  0  0  0  0  0  0  0
  152.7240  144.1425  157.1726 H   0  0  0  0  0  0  0  0  0  0  0  0
  147.7048  139.9087  151.5880 H   0  0  0  0  0  0  0  0  0  0  0  0
  1  2  1  0  0  0  0
  1 21  1  0  0  0  0
  1 22  1  0  0  0  0
  1 23  1  0  0  0  0
  2 20  1  0  0  0  0
  2  3  2  0  0  0  0
  3  4  1  0  0  0  0
  3 24  1  0  0  0  0
  4  5  2  0  0  0  0
  4 25  1  0  0  0  0
  5  6  1  0  0  0  0
  5 19  1  0  0  0  0
  6  7  1  0  0  0  0
  6 26  1  0  0  0  0
  6 27  1  0  0  0  0
  7  8  1  0  0  0  0
  7 28  1  0  0  0  0
  7 29  1  0  0  0  0
  8  9  1  0  0  0  0
  8 30  1  0  0  0  0
  9 10  2  0  0  0  0
  9 11  1  0  0  0  0
 11 12  1  0  0  0  0
 11 31  1  0  0  0  0
 12 17  1  0  0  0  0
 12 13  1  0  0  0  0
 12 32  1  0  0  0  0
 13 14  1  0  0  0  0
 13 33  1  0  0  0  0
 13 34  1  0  0  0  0
 14 18  1  0  0  0  0
 14 15  1  0  0  0  0
 14 35  1  0  0  0  0
 15 16  1  0  0  0  0
 15 36  1  0  0  0  0
 15 37  1  0  0  0  0
 16 17  1  0  0  0  0
 16 38  1  0  0  0  0
 16 39  1  0  0  0  0
 17 18  1  0  0  0  0
 17 40  1  0  0  0  0
 18 41  1  0  0  0  0
 18 42  1  0  0  0  0
 19 20  2  0  0  0  0
 19 43  1  0  0  0  0
M  END
> <s_m_source_file>
AV-unprocessed.smi

> <i_m_source_file_index>
753

> <i_lp_mmshare_version>
43012

> <i_f3d_flags>
0

> <s_epik_input>
W0NIM11jMVtjSF1bY0hdYyhbY0hdbjEpW0NIMl1bQ0gyXVtOSF1DKD1PKVtOSF1bQ0BIXShbQ0gyXVtDQEBIXTIzKVtDQEBIXShbQ0gyXTMpW0NIMl1bQ0gyXTI=

> <s_epik_cmdline>
J2VwaWtfcHl0aG9uJywgJy1waCcsICc3LjAnLCAnLXRuJywgJzgnLCAnLW1hJywgJzIwMCcsICctbWV0YWxfYmluZGluZycsICctaW1hZScsICc8aW5maWxlLm1hZT4nLCAnLW9tYWUnLCAnPG91dGZpbGUubWFlPic=

> <r_epik_Ionization_Penalty>
0.0569047

> <r_epik_Ionization_Penalty_Charging>
0

> <r_epik_Ionization_Penalty_Neutral>
0.0569047

> <r_epik_State_Penalty>
0.0490541

> <r_epik_Charging_Adjusted_Penalty>
0.0490541

> <i_epik_Tot_Q>
0

> <i_epik_Tot_abs_Q>
0

> <r_epik_Metal_State_Penalty>
0.0447357

> <b_epik_Metal_Only>
0

> <s_lp_Force_Field>
OPLS_2005

> <r_lp_Energy>
50.3887

> <b_lp_Chiralities_Consistent>
1

> <s_lp_Variant>
AV-unprocessed.smi:753-4

> <Gold.Version>
5.8.1

> <Gold.Id.Protein>
6NUR|6NUR_protein|mol2

> <Gold.PLP.Fitness>
50.3828

> <Gold.PLP.PLP>
-41.9419

> <Gold.PLP.part.hbond>
-3.0000

> <Gold.PLP.part.metal>
0.0000

> <Gold.PLP.part.buried>
0.1423

> <Gold.PLP.part.nonpolar>
-40.8349

> <Gold.PLP.part.repulsive>
0.7218

> <Gold.PLP.ligand.clash>
0.0000

> <Gold.PLP.ligand.torsion>
0.2228

> <Gold.PLP.Chemscore.Hbond>
2.5048

> <Gold.PLP.Chemscore.CHOScore>
0.4453

> <Gold.PLP.Chemscore.Metal>
0.0000

> <Gold.Chemscore.Hbonds>
donor molecule, donor type, donor heavy atom, donor atom, acceptor molecule, acceptor atom, score
      L1  H     8    30       P1  8028  0.32
      L1  H    11    31       P1  8028  0.80
      P1  H  7954  7966       L1    20  0.42
      L1  C    19    43       P1  7957  0.71

> <Gold.PLP.Chemscore.Internal.Correction>
0.0361

> <Gold.Rescore>
     Score         DG    S(hbond)    S(metal)    S(lipo)     H(rot)  DE(clash)    DE(int)     intcor
     21.72     -21.99       1.83        0.00     120.13       1.43       0.02       0.25       ----

> <Gold.Chemscore.Fitness>
21.7158

> <Gold.Chemscore.DG>
-21.9866

> <Gold.Chemscore.ZeroCoef>
-5.4800

> <Gold.Chemscore.Hbond>
1.8294

> <Gold.Chemscore.Metal>
0.0000

> <Gold.Chemscore.Lipo>
120.1275

> <Gold.Chemscore.Internal_Hbond>
0.0000

> <Gold.Chemscore.DEClash>
0.0188

> <Gold.Chemscore.DEInternal>
0.2519

> <Gold.Chemscore.Rot>
1.4291

> <Gold.Chemscore.Internal.Correction>
   9.000000E+99

> <Gold.Chemscore.Hbonds>
donor molecule, donor type, donor heavy atom, donor atom, acceptor molecule, acceptor atom, score
      L1  H     8    30       P1  8028  0.32
      L1  H    11    31       P1  8028  0.77
      P1  H  7954  7966       L1    20  0.14

> <Gold.Chemscore.Hbond.Weighted>
-6.1102

> <Gold.Chemscore.Metal.Weighted>
-0.0000

> <Gold.Chemscore.Lipo.Weighted>
-14.0549

> <Gold.Chemscore.Internal_Hbond.Weighted>
0.0000

> <Gold.Chemscore.DEClash.Weighted>
0.0188

> <Gold.Chemscore.DEInternal.Weighted>
0.2519

> <Gold.Chemscore.Rot.Weighted>
3.6585

> <Gold.Chemscore.Internal.Correction.Weighted>
   9.000000E+99

> <Gold.Protein.RotatedTorsions>
[ 6907 6896 6895 6894 ] final   25.29 input  -60.11 | X-H torsion
[ 7974 7965 7964 7962 ] final -144.60 input  175.53 | X-H torsion
[ 8008 7997 7996 7995 ] final -112.58 input   59.86 | X-H torsion
[ 10167 10162 10161 10158 ] final  -89.23 input  -65.29 | X-H torsion
[ 10718 10713 10712 10709 ] final   84.17 input   66.30 | X-H torsion
[ 10763 10752 10751 10750 ] final   72.64 input  -60.55 | X-H torsion
[ 11005 11000 10999 10996 ] final -100.02 input  -57.11 | X-H torsion

> <Gold.Protein.ActiveResidues>
 VAL166  LYS551  ARG553  GLY616  TRP617  ASP618  TYR619  PRO620  LYS621  CYS622 
 ASP623  PHE694  ASN695  SER759  ASP760  ASP761  ALA762  ILE779  LEU786  VAL792 
 PHE793  MET794  SER795  GLU796  ALA797  LYS798  CYS799  TRP800  GLU811  SER814 

> <Gold.Protein.RotatedAtoms>
  151.9703  135.0080  160.0552 H   0  0  0  0  0  0  0  0  0  0  0  0  # atno 6907 bound_to 6896
  152.1789  133.4689  159.4956 H   0  0  0  0  0  0  0  0  0  0  0  0  # atno 6908 bound_to 6896
  150.6914  134.1775  159.4279 H   0  0  0  0  0  0  0  0  0  0  0  0  # atno 6909 bound_to 6896
  144.8286  140.5690  143.5530 H   0  0  0  0  0  0  0  0  0  0  0  0  # atno 7974 bound_to 7965
  155.0074  140.0394  157.2385 H   0  0  0  0  0  0  0  0  0  0  0  0  # atno 8008 bound_to 7997
  154.7490  140.2763  155.6285 H   0  0  0  0  0  0  0  0  0  0  0  0  # atno 8009 bound_to 7997
  156.2881  140.2650  156.2239 H   0  0  0  0  0  0  0  0  0  0  0  0  # atno 8010 bound_to 7997
  140.3669  143.2814  151.9547 H   0  0  0  0  0  0  0  0  0  0  0  0  # atno 10167 bound_to 10162
  157.6893  131.0122  150.2633 H   0  0  0  0  0  0  0  0  0  0  0  0  # atno 10718 bound_to 10713
  153.0471  135.5092  154.7774 H   0  0  0  0  0  0  0  0  0  0  0  0  # atno 10763 bound_to 10752
  154.6665  135.2946  154.9800 H   0  0  0  0  0  0  0  0  0  0  0  0  # atno 10764 bound_to 10752
  154.0633  135.6688  153.4867 H   0  0  0  0  0  0  0  0  0  0  0  0  # atno 10765 bound_to 10752
  141.1286  133.8367  157.1048 H   0  0  0  0  0  0  0  0  0  0  0  0  # atno 11005 bound_to 11000
  145.4945  139.1487  143.3691 LP  0  0  0  0  0  0  0  0  0  0  0  0  # atno 17320 bound_to 7965
  146.2590  140.5083  142.8861 LP  0  0  0  0  0  0  0  0  0  0  0  0  # atno 17321 bound_to 7965
  139.4808  144.5942  151.7719 LP  0  0  0  0  0  0  0  0  0  0  0  0  # atno 17342 bound_to 10162
  140.5072  144.1080  150.5985 LP  0  0  0  0  0  0  0  0  0  0  0  0  # atno 17343 bound_to 10162
  156.3209  130.3785  149.7576 LP  0  0  0  0  0  0  0  0  0  0  0  0  # atno 17370 bound_to 10713
  156.5147  130.8188  151.3182 LP  0  0  0  0  0  0  0  0  0  0  0  0  # atno 17371 bound_to 10713
  140.0311  134.9901  157.0781 LP  0  0  0  0  0  0  0  0  0  0  0  0  # atno 17394 bound_to 11000
  140.4284  134.1806  155.7167 LP  0  0  0  0  0  0  0  0  0  0  0  0  # atno 17395 bound_to 11000

$$$$
