AV-unprocessed.smi:1776|AV-procd|sdf|7173|dock9
  -GOLD-   22720 8413D 1   1.00000     0.00000
 Structure written by MMmdl.
 31 32  0  0  0  0  0  0  0  0  1 V2000
  154.5502  139.3725  158.4334 O   0  0  0  0  0  0  0  0  0  0  0  0
  153.7546  138.7150  157.7629 C   0  0  0  0  0  0  0  0  0  0  0  0
  152.6190  139.1948  157.2160 N   0  0  0  0  0  0  0  0  0  0  0  0
  152.0623  140.4852  157.2618 C   0  0  0  0  0  0  0  0  0  0  0  0
  152.2633  141.3950  158.2516 C   0  0  0  0  0  0  0  0  0  0  0  0
  151.6440  142.7097  158.2297 C   0  0  0  0  0  0  0  0  0  0  0  0
  151.9365  143.7427  159.3071 C   0  0  0  0  0  0  0  0  0  0  0  0
  152.7642  143.2580  160.2339 F   0  0  0  0  0  0  0  0  0  0  0  0
  152.5063  144.8162  158.7615 F   0  0  0  0  0  0  0  0  0  0  0  0
  150.8137  144.1319  159.9113 F   0  0  0  0  0  0  0  0  0  0  0  0
  150.8661  142.9897  157.1678 C   0  0  0  0  0  0  0  0  0  0  0  0
  150.6411  142.0559  156.1545 N   0  0  0  0  0  0  0  0  0  0  0  0
  151.1853  140.8188  156.1265 C   0  0  0  0  0  0  0  0  0  0  0  0
  150.9376  140.0538  155.1950 O   0  0  0  0  0  0  0  0  0  0  0  0
  154.0199  137.2240  157.5052 C   0  0  2  0  0  0  0  0  0  0  0  0
  153.0791  136.2891  158.3010 C   0  0  0  0  0  0  0  0  0  0  0  0
  153.4226  134.9358  158.0318 O   0  0  0  0  0  0  0  0  0  0  0  0
  154.7648  134.6580  158.4061 C   0  0  0  0  0  0  0  0  0  0  0  0
  155.7040  135.5768  157.6080 C   0  0  0  0  0  0  0  0  0  0  0  0
  155.3650  136.9308  157.8754 O   0  0  0  0  0  0  0  0  0  0  0  0
  150.0339  142.3371  155.3981 H   0  0  0  0  0  0  0  0  0  0  0  0
  152.0869  138.5338  156.6676 H   0  0  0  0  0  0  0  0  0  0  0  0
  152.8829  141.1712  159.1032 H   0  0  0  0  0  0  0  0  0  0  0  0
  150.3671  143.9344  157.0101 H   0  0  0  0  0  0  0  0  0  0  0  0
  153.8941  137.0469  156.4355 H   0  0  0  0  0  0  0  0  0  0  0  0
  153.1417  136.4823  159.3737 H   0  0  0  0  0  0  0  0  0  0  0  0
  152.0408  136.4444  158.0056 H   0  0  0  0  0  0  0  0  0  0  0  0
  154.8963  134.8036  159.4796 H   0  0  0  0  0  0  0  0  0  0  0  0
  154.9859  133.6120  158.1936 H   0  0  0  0  0  0  0  0  0  0  0  0
  156.7401  135.4054  157.9001 H   0  0  0  0  0  0  0  0  0  0  0  0
  155.6325  135.3735  156.5383 H   0  0  0  0  0  0  0  0  0  0  0  0
  1  2  2  0  0  0  0
  2  3  1  0  0  0  0
  2 15  1  0  0  0  0
  3  4  1  0  0  0  0
  3 22  1  0  0  0  0
  4 13  1  0  0  0  0
  4  5  2  0  0  0  0
  5  6  1  0  0  0  0
  5 23  1  0  0  0  0
  6  7  1  0  0  0  0
  6 11  2  0  0  0  0
  7  8  1  0  0  0  0
  7  9  1  0  0  0  0
  7 10  1  0  0  0  0
 11 12  1  0  0  0  0
 11 24  1  0  0  0  0
 12 21  1  0  0  0  0
 12 13  1  0  0  0  0
 13 14  2  0  0  0  0
 15 20  1  0  0  0  0
 15 16  1  0  0  0  0
 15 25  1  0  0  0  0
 16 17  1  0  0  0  0
 16 26  1  0  0  0  0
 16 27  1  0  0  0  0
 17 18  1  0  0  0  0
 18 19  1  0  0  0  0
 18 28  1  0  0  0  0
 18 29  1  0  0  0  0
 19 20  1  0  0  0  0
 19 30  1  0  0  0  0
 19 31  1  0  0  0  0
M  END
> <s_m_source_file>
AV-unprocessed.smi

> <i_m_source_file_index>
1776

> <i_lp_mmshare_version>
43012

> <i_f3d_flags>
0

> <s_epik_input>
TzFbQ0gyXVtDSDJdT1tDSDJdW0NASF0xQyg9TylbTkhdYzJbY0hdYyhDKEYpKEYpRilbY0hdW25IXWMyPU8=

> <s_epik_cmdline>
J2VwaWtfcHl0aG9uJywgJy1waCcsICc3LjAnLCAnLXRuJywgJzgnLCAnLW1hJywgJzIwMCcsICctbWV0YWxfYmluZGluZycsICctaW1hZScsICc8aW5maWxlLm1hZT4nLCAnLW9tYWUnLCAnPG91dGZpbGUubWFlPic=

> <r_lp_tautomer_probability>
0.999

> <r_epik_Ionization_Penalty>
0.0100875

> <r_epik_Ionization_Penalty_Charging>
0.0100873

> <r_epik_Ionization_Penalty_Neutral>
1.79075e-07

> <r_epik_State_Penalty>
0.00769562

> <r_epik_Charging_Adjusted_Penalty>
0.017783

> <i_epik_Tot_Q>
0

> <i_epik_Tot_abs_Q>
0

> <r_epik_Metal_State_Penalty>
0.325451

> <b_epik_Metal_Only>
0

> <s_lp_Force_Field>
OPLS_2005

> <r_lp_Energy>
23.697

> <b_lp_Chiralities_Consistent>
1

> <s_lp_Variant>
AV-unprocessed.smi:1776-1

> <Gold.Version>
5.8.1

> <Gold.Id.Protein>
6NUR|6NUR_protein|mol2

> <Gold.PLP.Fitness>
35.4530

> <Gold.PLP.PLP>
-26.8377

> <Gold.PLP.part.hbond>
-2.9444

> <Gold.PLP.part.metal>
0.0000

> <Gold.PLP.part.buried>
1.8954

> <Gold.PLP.part.nonpolar>
-26.2874

> <Gold.PLP.part.repulsive>
0.5985

> <Gold.PLP.ligand.clash>
0.0000

> <Gold.PLP.ligand.torsion>
0.4413

> <Gold.PLP.Chemscore.Hbond>
2.1567

> <Gold.PLP.Chemscore.CHOScore>
1.0000

> <Gold.PLP.Chemscore.Metal>
0.0000

> <Gold.Chemscore.Hbonds>
donor molecule, donor type, donor heavy atom, donor atom, acceptor molecule, acceptor atom, score
      P1  H  6896  6907       L1    17  0.21
      P1  H  7989  7998       L1    14  1.00
      P1  H  7997  8009       L1     1  0.80
      L1  C    11    24       P1  8028  1.00

> <Gold.PLP.Chemscore.Internal.Correction>
0.0277

> <Gold.Rescore>
     Score         DG    S(hbond)    S(metal)    S(lipo)     H(rot)  DE(clash)    DE(int)     intcor
     13.05     -15.40       1.63        0.00      60.19       1.00       1.37       0.99       ----

> <Gold.Chemscore.Fitness>
13.0456

> <Gold.Chemscore.DG>
-15.3983

> <Gold.Chemscore.ZeroCoef>
-5.4800

> <Gold.Chemscore.Hbond>
1.6274

> <Gold.Chemscore.Metal>
0.0000

> <Gold.Chemscore.Lipo>
60.1931

> <Gold.Chemscore.Internal_Hbond>
0.0000

> <Gold.Chemscore.DEClash>
1.3660

> <Gold.Chemscore.DEInternal>
0.9867

> <Gold.Chemscore.Rot>
1.0000

> <Gold.Chemscore.Internal.Correction>
   9.000000E+99

> <Gold.Chemscore.Hbonds>
donor molecule, donor type, donor heavy atom, donor atom, acceptor molecule, acceptor atom, score
      P1  H  6896  6907       L1    17  0.01
      P1  H  7989  7998       L1    14  0.63
      P1  H  7997  8009       L1     1  0.19

> <Gold.Chemscore.Hbond.Weighted>
-5.4357

> <Gold.Chemscore.Metal.Weighted>
-0.0000

> <Gold.Chemscore.Lipo.Weighted>
-7.0426

> <Gold.Chemscore.Internal_Hbond.Weighted>
0.0000

> <Gold.Chemscore.DEClash.Weighted>
1.3660

> <Gold.Chemscore.DEInternal.Weighted>
0.9867

> <Gold.Chemscore.Rot.Weighted>
2.5600

> <Gold.Chemscore.Internal.Correction.Weighted>
   9.000000E+99

> <Gold.Protein.RotatedTorsions>
[ 6907 6896 6895 6894 ] final  108.34 input  -60.11 | X-H torsion
[ 7974 7965 7964 7962 ] final  -20.78 input  175.53 | X-H torsion
[ 8008 7997 7996 7995 ] final  106.52 input   59.86 | X-H torsion
[ 10167 10162 10161 10158 ] final   -3.98 input  -65.29 | X-H torsion
[ 10718 10713 10712 10709 ] final  -44.88 input   66.30 | X-H torsion
[ 10763 10752 10751 10750 ] final -165.62 input  -60.55 | X-H torsion
[ 11005 11000 10999 10996 ] final -131.69 input  -57.11 | X-H torsion

> <Gold.Protein.ActiveResidues>
 VAL166  LYS551  ARG553  GLY616  TRP617  ASP618  TYR619  PRO620  LYS621  CYS622 
 ASP623  PHE694  ASN695  SER759  ASP760  ASP761  ALA762  ILE779  LEU786  VAL792 
 PHE793  MET794  SER795  GLU796  ALA797  LYS798  CYS799  TRP800  GLU811  SER814 

> <Gold.Protein.RotatedAtoms>
  152.5116  133.9103  159.7484 H   0  0  0  0  0  0  0  0  0  0  0  0  # atno 6907 bound_to 6896
  150.9498  133.6554  159.2781 H   0  0  0  0  0  0  0  0  0  0  0  0  # atno 6908 bound_to 6896
  151.3836  135.0949  159.9556 H   0  0  0  0  0  0  0  0  0  0  0  0  # atno 6909 bound_to 6896
  146.1769  140.4249  142.8510 H   0  0  0  0  0  0  0  0  0  0  0  0  # atno 7974 bound_to 7965
  156.1749  140.3111  155.9041 H   0  0  0  0  0  0  0  0  0  0  0  0  # atno 8008 bound_to 7997
  155.3508  140.0471  157.3063 H   0  0  0  0  0  0  0  0  0  0  0  0  # atno 8009 bound_to 7997
  154.5280  140.2221  155.8866 H   0  0  0  0  0  0  0  0  0  0  0  0  # atno 8010 bound_to 7997
  140.6910  143.6477  150.8378 H   0  0  0  0  0  0  0  0  0  0  0  0  # atno 10167 bound_to 10162
  156.2340  130.4174  149.8840 H   0  0  0  0  0  0  0  0  0  0  0  0  # atno 10718 bound_to 10713
  154.6914  135.2971  154.9474 H   0  0  0  0  0  0  0  0  0  0  0  0  # atno 10763 bound_to 10752
  154.0436  135.6654  153.4796 H   0  0  0  0  0  0  0  0  0  0  0  0  # atno 10764 bound_to 10752
  153.0615  135.5113  154.8008 H   0  0  0  0  0  0  0  0  0  0  0  0  # atno 10765 bound_to 10752
  140.9237  134.1411  157.4293 H   0  0  0  0  0  0  0  0  0  0  0  0  # atno 11005 bound_to 11000
  144.8251  140.6615  143.6327 LP  0  0  0  0  0  0  0  0  0  0  0  0  # atno 17320 bound_to 7965
  145.4185  139.1568  143.4087 LP  0  0  0  0  0  0  0  0  0  0  0  0  # atno 17321 bound_to 7965
  140.0190  143.5562  152.2808 LP  0  0  0  0  0  0  0  0  0  0  0  0  # atno 17342 bound_to 10162
  139.6314  144.7644  151.2529 LP  0  0  0  0  0  0  0  0  0  0  0  0  # atno 17343 bound_to 10162
  156.6445  130.8718  151.3520 LP  0  0  0  0  0  0  0  0  0  0  0  0  # atno 17370 bound_to 10713
  157.7146  130.9481  150.1208 LP  0  0  0  0  0  0  0  0  0  0  0  0  # atno 17371 bound_to 10713
  139.8781  134.9980  156.5879 LP  0  0  0  0  0  0  0  0  0  0  0  0  # atno 17394 bound_to 11000
  140.7955  133.8548  155.8682 LP  0  0  0  0  0  0  0  0  0  0  0  0  # atno 17395 bound_to 11000

$$$$
