AV-unprocessed.smi:3241|AV-procd|sdf|12389|dock8
  -GOLD-   2272018263D 1   1.00000     0.00000
 Structure written by MMmdl.
 43 44  0  0  0  0  0  0  0  0  1 V2000
  152.9342  141.6178  160.4159 C   0  0  0  0  0  0  0  0  0  0  0  0
  152.5681  142.9954  159.8375 C   0  0  2  0  0  0  0  0  0  0  0  0
  152.2561  143.9971  160.9672 C   0  0  0  0  0  0  0  0  0  0  0  0
  151.8850  145.3812  160.4136 C   0  0  0  0  0  0  0  0  0  0  0  0
  150.7046  145.2863  159.4365 C   0  0  0  0  0  0  0  0  0  0  0  0
  151.0060  144.2970  158.3006 C   0  0  0  0  0  0  0  0  0  0  0  0
  151.3852  142.9044  158.8467 C   0  0  1  0  0  0  0  0  0  0  0  0
  151.7895  142.0580  157.7787 O   0  0  0  0  0  0  0  0  0  0  0  0
  150.9720  142.1205  156.6193 C   0  0  0  0  0  0  0  0  0  0  0  0
  150.8090  140.6933  156.0887 C   0  0  0  0  0  0  0  0  0  0  0  0
  150.2779  140.7165  154.7310 N   0  0  0  0  0  0  0  0  0  0  0  0
  149.4900  139.5385  154.3834 C   0  0  0  0  0  0  0  0  0  0  0  0
  147.9868  139.7931  154.5814 C   0  0  0  0  0  0  0  0  0  0  0  0
  147.1721  138.9709  153.7028 N   0  0  0  0  0  0  0  0  0  0  0  0
  147.0566  139.0385  152.3302 C   0  0  0  0  0  0  0  0  0  0  0  0
  146.1888  138.0566  151.9462 C   0  0  0  0  0  0  0  0  0  0  0  0
  145.8197  137.4336  153.1710 C   0  0  0  0  0  0  0  0  0  0  0  0
  146.4094  137.9829  154.2203 N   0  0  0  0  0  0  0  0  0  0  0  0
  152.0974  141.1806  160.9613 H   0  0  0  0  0  0  0  0  0  0  0  0
  153.7775  141.6915  161.1029 H   0  0  0  0  0  0  0  0  0  0  0  0
  153.2175  140.9192  159.6284 H   0  0  0  0  0  0  0  0  0  0  0  0
  153.4378  143.3667  159.2931 H   0  0  0  0  0  0  0  0  0  0  0  0
  151.4352  143.6194  161.5785 H   0  0  0  0  0  0  0  0  0  0  0  0
  153.1163  144.0903  161.6312 H   0  0  0  0  0  0  0  0  0  0  0  0
  151.6356  146.0552  161.2335 H   0  0  0  0  0  0  0  0  0  0  0  0
  152.7470  145.8160  159.9060 H   0  0  0  0  0  0  0  0  0  0  0  0
  149.8097  144.9670  159.9723 H   0  0  0  0  0  0  0  0  0  0  0  0
  150.4837  146.2709  159.0233 H   0  0  0  0  0  0  0  0  0  0  0  0
  150.1372  144.2278  157.6463 H   0  0  0  0  0  0  0  0  0  0  0  0
  151.8228  144.6842  157.6897 H   0  0  0  0  0  0  0  0  0  0  0  0
  150.5311  142.4694  159.3695 H   0  0  0  0  0  0  0  0  0  0  0  0
  149.9962  142.5569  156.8400 H   0  0  0  0  0  0  0  0  0  0  0  0
  151.4489  142.7440  155.8632 H   0  0  0  0  0  0  0  0  0  0  0  0
  151.7732  140.1841  156.0958 H   0  0  0  0  0  0  0  0  0  0  0  0
  150.1500  140.1311  156.7515 H   0  0  0  0  0  0  0  0  0  0  0  0
  149.7134  141.5511  154.6027 H   0  0  0  0  0  0  0  0  0  0  0  0
  149.6805  139.2593  153.3468 H   0  0  0  0  0  0  0  0  0  0  0  0
  149.7945  138.6891  154.9960 H   0  0  0  0  0  0  0  0  0  0  0  0
  147.6987  139.6121  155.6184 H   0  0  0  0  0  0  0  0  0  0  0  0
  147.7591  140.8388  154.3725 H   0  0  0  0  0  0  0  0  0  0  0  0
  147.5990  139.7686  151.7479 H   0  0  0  0  0  0  0  0  0  0  0  0
  145.8675  137.8184  150.9430 H   0  0  0  0  0  0  0  0  0  0  0  0
  145.1478  136.6027  153.3279 H   0  0  0  0  0  0  0  0  0  0  0  0
  1  2  1  0  0  0  0
  1 19  1  0  0  0  0
  1 20  1  0  0  0  0
  1 21  1  0  0  0  0
  2  7  1  0  0  0  0
  2  3  1  0  0  0  0
  2 22  1  0  0  0  0
  3  4  1  0  0  0  0
  3 23  1  0  0  0  0
  3 24  1  0  0  0  0
  4  5  1  0  0  0  0
  4 25  1  0  0  0  0
  4 26  1  0  0  0  0
  5  6  1  0  0  0  0
  5 27  1  0  0  0  0
  5 28  1  0  0  0  0
  6  7  1  0  0  0  0
  6 29  1  0  0  0  0
  6 30  1  0  0  0  0
  7  8  1  0  0  0  0
  7 31  1  0  0  0  0
  8  9  1  0  0  0  0
  9 10  1  0  0  0  0
  9 32  1  0  0  0  0
  9 33  1  0  0  0  0
 10 11  1  0  0  0  0
 10 34  1  0  0  0  0
 10 35  1  0  0  0  0
 11 12  1  0  0  0  0
 11 36  1  0  0  0  0
 12 13  1  0  0  0  0
 12 37  1  0  0  0  0
 12 38  1  0  0  0  0
 13 14  1  0  0  0  0
 13 39  1  0  0  0  0
 13 40  1  0  0  0  0
 14 18  1  0  0  0  0
 14 15  1  0  0  0  0
 15 16  2  0  0  0  0
 15 41  1  0  0  0  0
 16 17  1  0  0  0  0
 16 42  1  0  0  0  0
 17 18  2  0  0  0  0
 17 43  1  0  0  0  0
M  END
> <s_m_source_file>
AV-unprocessed.smi

> <i_m_source_file_index>
3241

> <i_lp_mmshare_version>
43012

> <i_f3d_flags>
0

> <s_epik_input>
W0NIM11bQ0BASF0xW0NIMl1bQ0gyXVtDSDJdW0NIMl1bQ0BIXTFPW0NIMl1bQ0gyXVtOSF1bQ0gyXVtDSDJdbjJbY0hdW2NIXVtjSF1uMg==

> <s_epik_cmdline>
J2VwaWtfcHl0aG9uJywgJy1waCcsICc3LjAnLCAnLXRuJywgJzgnLCAnLW1hJywgJzIwMCcsICctbWV0YWxfYmluZGluZycsICctaW1hZScsICc8aW5maWxlLm1hZT4nLCAnLW9tYWUnLCAnPG91dGZpbGUubWFlPic=

> <r_lp_tautomer_probability>
1

> <r_epik_Ionization_Penalty>
2.47055

> <r_epik_Ionization_Penalty_Charging>
0

> <r_epik_Ionization_Penalty_Neutral>
2.47055

> <r_epik_State_Penalty>
2.6322

> <r_epik_Charging_Adjusted_Penalty>
2.6322

> <i_epik_Tot_Q>
0

> <i_epik_Tot_abs_Q>
0

> <r_epik_Metal_State_Penalty>
2.63108

> <b_epik_Metal_Only>
0

> <s_lp_Force_Field>
OPLS_2005

> <r_lp_Energy>
15.2111

> <b_lp_Chiralities_Consistent>
1

> <s_lp_Variant>
AV-unprocessed.smi:3241-5

> <Gold.Version>
5.8.1

> <Gold.Id.Protein>
6NUR|6NUR_protein|mol2

> <Gold.PLP.Fitness>
44.4313

> <Gold.PLP.PLP>
-41.0271

> <Gold.PLP.part.hbond>
-1.0000

> <Gold.PLP.part.metal>
0.0000

> <Gold.PLP.part.buried>
-1.1810

> <Gold.PLP.part.nonpolar>
-38.6417

> <Gold.PLP.part.repulsive>
0.1386

> <Gold.PLP.ligand.clash>
0.0000

> <Gold.PLP.ligand.torsion>
1.1061

> <Gold.PLP.Chemscore.Hbond>
0.8480

> <Gold.PLP.Chemscore.CHOScore>
1.0000

> <Gold.PLP.Chemscore.Metal>
0.0000

> <Gold.Chemscore.Hbonds>
donor molecule, donor type, donor heavy atom, donor atom, acceptor molecule, acceptor atom, score
      P1  H  7989  7998       L1    11  0.85
      L1  C    15    41       P1  7957  1.00

> <Gold.PLP.Chemscore.Internal.Correction>
0.0725

> <Gold.Rescore>
     Score         DG    S(hbond)    S(metal)    S(lipo)     H(rot)  DE(clash)    DE(int)     intcor
     14.59     -15.78       0.21        0.00     121.11       1.79       0.17       1.02       ----

> <Gold.Chemscore.Fitness>
14.5913

> <Gold.Chemscore.DG>
-15.7832

> <Gold.Chemscore.ZeroCoef>
-5.4800

> <Gold.Chemscore.Hbond>
0.2145

> <Gold.Chemscore.Metal>
0.0000

> <Gold.Chemscore.Lipo>
121.1082

> <Gold.Chemscore.Internal_Hbond>
0.0000

> <Gold.Chemscore.DEClash>
0.1707

> <Gold.Chemscore.DEInternal>
1.0212

> <Gold.Chemscore.Rot>
1.7901

> <Gold.Chemscore.Internal.Correction>
   9.000000E+99

> <Gold.Chemscore.Hbonds>
donor molecule, donor type, donor heavy atom, donor atom, acceptor molecule, acceptor atom, score
      P1  H  7989  7998       L1    11  0.19

> <Gold.Chemscore.Hbond.Weighted>
-0.7163

> <Gold.Chemscore.Metal.Weighted>
-0.0000

> <Gold.Chemscore.Lipo.Weighted>
-14.1697

> <Gold.Chemscore.Internal_Hbond.Weighted>
0.0000

> <Gold.Chemscore.DEClash.Weighted>
0.1707

> <Gold.Chemscore.DEInternal.Weighted>
1.0212

> <Gold.Chemscore.Rot.Weighted>
4.5827

> <Gold.Chemscore.Internal.Correction.Weighted>
   9.000000E+99

> <Gold.Protein.RotatedTorsions>
[ 6907 6896 6895 6894 ] final -179.09 input  -60.11 | X-H torsion
[ 7974 7965 7964 7962 ] final -140.17 input  175.53 | X-H torsion
[ 8008 7997 7996 7995 ] final  -80.36 input   59.86 | X-H torsion
[ 10167 10162 10161 10158 ] final -155.20 input  -65.29 | X-H torsion
[ 10718 10713 10712 10709 ] final -110.76 input   66.30 | X-H torsion
[ 10763 10752 10751 10750 ] final   10.00 input  -60.55 | X-H torsion
[ 11005 11000 10999 10996 ] final  -99.38 input  -57.11 | X-H torsion

> <Gold.Protein.ActiveResidues>
 VAL166  LYS551  ARG553  GLY616  TRP617  ASP618  TYR619  PRO620  LYS621  CYS622 
 ASP623  PHE694  ASN695  SER759  ASP760  ASP761  ALA762  ILE779  LEU786  VAL792 
 PHE793  MET794  SER795  GLU796  ALA797  LYS798  CYS799  TRP800  GLU811  SER814 

> <Gold.Protein.RotatedAtoms>
  151.6478  133.3322  159.3144 H   0  0  0  0  0  0  0  0  0  0  0  0  # atno 6907 bound_to 6896
  150.7975  134.7050  159.6581 H   0  0  0  0  0  0  0  0  0  0  0  0  # atno 6908 bound_to 6896
  152.4064  134.6204  160.0100 H   0  0  0  0  0  0  0  0  0  0  0  0  # atno 6909 bound_to 6896
  144.8618  140.6231  143.5323 H   0  0  0  0  0  0  0  0  0  0  0  0  # atno 7974 bound_to 7965
  154.5876  140.0664  156.9193 H   0  0  0  0  0  0  0  0  0  0  0  0  # atno 8008 bound_to 7997
  155.2352  140.3340  155.4280 H   0  0  0  0  0  0  0  0  0  0  0  0  # atno 8009 bound_to 7997
  156.2233  140.1808  156.7408 H   0  0  0  0  0  0  0  0  0  0  0  0  # atno 8010 bound_to 7997
  139.6951  143.9356  152.2403 H   0  0  0  0  0  0  0  0  0  0  0  0  # atno 10167 bound_to 10162
  156.0609  130.5832  150.8281 H   0  0  0  0  0  0  0  0  0  0  0  0  # atno 10718 bound_to 10713
  153.2079  135.6865  153.8150 H   0  0  0  0  0  0  0  0  0  0  0  0  # atno 10763 bound_to 10752
  153.7393  135.3240  155.3302 H   0  0  0  0  0  0  0  0  0  0  0  0  # atno 10764 bound_to 10752
  154.8207  135.4654  154.0874 H   0  0  0  0  0  0  0  0  0  0  0  0  # atno 10765 bound_to 10752
  141.1311  133.8317  157.0964 H   0  0  0  0  0  0  0  0  0  0  0  0  # atno 11005 bound_to 11000
  145.4298  139.1551  143.4029 LP  0  0  0  0  0  0  0  0  0  0  0  0  # atno 17320 bound_to 7965
  146.2866  140.4413  142.8755 LP  0  0  0  0  0  0  0  0  0  0  0  0  # atno 17321 bound_to 7965
  139.9183  144.6815  150.8489 LP  0  0  0  0  0  0  0  0  0  0  0  0  # atno 17342 bound_to 10162
  140.7694  143.3393  151.2241 LP  0  0  0  0  0  0  0  0  0  0  0  0  # atno 17343 bound_to 10162
  157.5616  131.0946  150.9550 LP  0  0  0  0  0  0  0  0  0  0  0  0  # atno 17370 bound_to 10713
  156.9787  130.5518  149.5295 LP  0  0  0  0  0  0  0  0  0  0  0  0  # atno 17371 bound_to 10713
  140.0360  134.9878  157.0873 LP  0  0  0  0  0  0  0  0  0  0  0  0  # atno 17394 bound_to 11000
  140.4209  134.1882  155.7164 LP  0  0  0  0  0  0  0  0  0  0  0  0  # atno 17395 bound_to 11000

$$$$
