AV-unprocessed.smi:3020|AV-procd|sdf|11497|dock3
  -GOLD-   2272016433D 1   1.00000     0.00000
 Structure written by MMmdl.
 28 29  0  0  0  0  0  0  0  0  1 V2000
  153.8089  138.9401  158.4195 O   0  0  0  0  0  0  0  0  0  0  0  0
  152.9194  139.7727  158.5952 C   0  0  0  0  0  0  0  0  0  0  0  0
  152.9829  140.6889  159.8173 C   0  0  0  0  0  0  0  0  0  0  0  0
  151.9886  141.6957  159.7032 O   0  0  0  0  0  0  0  0  0  0  0  0
  152.4772  142.9839  160.0330 C   0  0  0  0  0  0  0  0  0  0  0  0
  151.7335  144.0159  159.2127 C   0  0  0  0  0  0  0  0  0  0  0  0
  151.5795  143.8475  157.7181 C   0  0  0  0  0  0  0  0  0  0  0  0
  152.4826  144.9240  158.2643 C   0  0  0  0  0  0  0  0  0  0  0  0
  151.8740  139.9621  157.7681 N   0  0  0  0  0  0  0  0  0  0  0  0
  151.5647  139.2655  156.5708 C   0  0  0  0  0  0  0  0  0  0  0  0
  152.1582  137.9885  156.4324 C   0  0  0  0  0  0  0  0  0  0  0  0
  151.9584  137.2046  155.3497 N   0  0  0  0  0  0  0  0  0  0  0  0
  151.1527  137.6999  154.3862 C   0  0  0  0  0  0  0  0  0  0  0  0
  150.5525  138.9692  154.5070 C   0  0  0  0  0  0  0  0  0  0  0  0
  150.7567  139.7476  155.5920 N   0  0  0  0  0  0  0  0  0  0  0  0
  152.8259  140.1035  160.7249 H   0  0  0  0  0  0  0  0  0  0  0  0
  153.9764  141.1364  159.8741 H   0  0  0  0  0  0  0  0  0  0  0  0
  152.3195  143.1917  161.0923 H   0  0  0  0  0  0  0  0  0  0  0  0
  153.5478  143.0514  159.8317 H   0  0  0  0  0  0  0  0  0  0  0  0
  150.8920  144.4681  159.7345 H   0  0  0  0  0  0  0  0  0  0  0  0
  152.0510  142.9838  157.2535 H   0  0  0  0  0  0  0  0  0  0  0  0
  150.6364  144.1590  157.2733 H   0  0  0  0  0  0  0  0  0  0  0  0
  152.1429  145.9544  158.1819 H   0  0  0  0  0  0  0  0  0  0  0  0
  153.5561  144.7775  158.1613 H   0  0  0  0  0  0  0  0  0  0  0  0
  151.2202  140.6835  158.0358 H   0  0  0  0  0  0  0  0  0  0  0  0
  152.8035  137.5874  157.2006 H   0  0  0  0  0  0  0  0  0  0  0  0
  150.9856  137.0822  153.5163 H   0  0  0  0  0  0  0  0  0  0  0  0
  149.9086  139.3606  153.7336 H   0  0  0  0  0  0  0  0  0  0  0  0
  1  2  2  0  0  0  0
  2  3  1  0  0  0  0
  2  9  1  0  0  0  0
  3  4  1  0  0  0  0
  3 16  1  0  0  0  0
  3 17  1  0  0  0  0
  4  5  1  0  0  0  0
  5  6  1  0  0  0  0
  5 18  1  0  0  0  0
  5 19  1  0  0  0  0
  6  8  1  0  0  0  0
  6  7  1  0  0  0  0
  6 20  1  0  0  0  0
  7  8  1  0  0  0  0
  7 21  1  0  0  0  0
  7 22  1  0  0  0  0
  8 23  1  0  0  0  0
  8 24  1  0  0  0  0
  9 10  1  0  0  0  0
  9 25  1  0  0  0  0
 10 15  1  0  0  0  0
 10 11  2  0  0  0  0
 11 12  1  0  0  0  0
 11 26  1  0  0  0  0
 12 13  2  0  0  0  0
 13 14  1  0  0  0  0
 13 27  1  0  0  0  0
 14 15  2  0  0  0  0
 14 28  1  0  0  0  0
M  END
> <s_m_source_file>
AV-unprocessed.smi

> <i_m_source_file_index>
3020

> <i_lp_mmshare_version>
43012

> <i_f3d_flags>
0

> <s_epik_input>
W0NIMl0xW0NIMl1bQ0hdMVtDSDJdT1tDSDJdQyg9TylbTkhdYzJbY0hdbltjSF1bY0hdbjI=

> <s_epik_cmdline>
J2VwaWtfcHl0aG9uJywgJy1waCcsICc3LjAnLCAnLXRuJywgJzgnLCAnLW1hJywgJzIwMCcsICctbWV0YWxfYmluZGluZycsICctaW1hZScsICc8aW5maWxlLm1hZT4nLCAnLW9tYWUnLCAnPG91dGZpbGUubWFlPic=

> <r_lp_tautomer_probability>
1

> <r_epik_Ionization_Penalty>
2.93955e-06

> <r_epik_Ionization_Penalty_Charging>
0

> <r_epik_Ionization_Penalty_Neutral>
2.93955e-06

> <r_epik_State_Penalty>
-0

> <r_epik_Charging_Adjusted_Penalty>
0

> <i_epik_Tot_Q>
0

> <i_epik_Tot_abs_Q>
0

> <r_epik_Metal_State_Penalty>
-0

> <b_epik_Metal_Only>
0

> <s_lp_Force_Field>
OPLS_2005

> <r_lp_Energy>
21.027

> <b_lp_Chiralities_Consistent>
1

> <s_lp_Variant>
AV-unprocessed.smi:3020-1

> <Gold.Version>
5.8.1

> <Gold.Id.Protein>
6NUR|6NUR_protein|mol2

> <Gold.PLP.Fitness>
42.5281

> <Gold.PLP.PLP>
-32.4187

> <Gold.PLP.part.hbond>
-2.0000

> <Gold.PLP.part.metal>
0.0000

> <Gold.PLP.part.buried>
-3.6678

> <Gold.PLP.part.nonpolar>
-26.9065

> <Gold.PLP.part.repulsive>
0.1677

> <Gold.PLP.ligand.clash>
0.0000

> <Gold.PLP.ligand.torsion>
1.0937

> <Gold.PLP.Chemscore.Hbond>
1.8800

> <Gold.PLP.Chemscore.CHOScore>
2.0345

> <Gold.PLP.Chemscore.Metal>
0.0000

> <Gold.Chemscore.Hbonds>
donor molecule, donor type, donor heavy atom, donor atom, acceptor molecule, acceptor atom, score
      P1  H  7997  8010       L1     1  1.00
      P1  H 10752 10765       L1    12  0.89
      L1  C    13    27       P1  7948  0.09
      L1  C    13    27       P1  7949  1.00
      L1  C    14    28       P1  7957  0.64

> <Gold.PLP.Chemscore.Internal.Correction>
0.5531

> <Gold.Rescore>
     Score         DG    S(hbond)    S(metal)    S(lipo)     H(rot)  DE(clash)    DE(int)     intcor
     12.34     -14.83       1.33        0.00      80.23       1.75       0.00       2.50       ----

> <Gold.Chemscore.Fitness>
12.3353

> <Gold.Chemscore.DG>
-14.8349

> <Gold.Chemscore.ZeroCoef>
-5.4800

> <Gold.Chemscore.Hbond>
1.3306

> <Gold.Chemscore.Metal>
0.0000

> <Gold.Chemscore.Lipo>
80.2328

> <Gold.Chemscore.Internal_Hbond>
0.0000

> <Gold.Chemscore.DEClash>
0.0042

> <Gold.Chemscore.DEInternal>
2.4954

> <Gold.Chemscore.Rot>
1.7487

> <Gold.Chemscore.Internal.Correction>
   9.000000E+99

> <Gold.Chemscore.Hbonds>
donor molecule, donor type, donor heavy atom, donor atom, acceptor molecule, acceptor atom, score
      P1  H  7997  8010       L1     1  0.24
      P1  H 10752 10765       L1    12  0.45

> <Gold.Chemscore.Hbond.Weighted>
-4.4443

> <Gold.Chemscore.Metal.Weighted>
-0.0000

> <Gold.Chemscore.Lipo.Weighted>
-9.3872

> <Gold.Chemscore.Internal_Hbond.Weighted>
0.0000

> <Gold.Chemscore.DEClash.Weighted>
0.0042

> <Gold.Chemscore.DEInternal.Weighted>
2.4954

> <Gold.Chemscore.Rot.Weighted>
4.4767

> <Gold.Chemscore.Internal.Correction.Weighted>
   9.000000E+99

> <Gold.Protein.RotatedTorsions>
[ 6907 6896 6895 6894 ] final  108.73 input  -60.11 | X-H torsion
[ 7974 7965 7964 7962 ] final   36.97 input  175.53 | X-H torsion
[ 8008 7997 7996 7995 ] final    3.27 input   59.86 | X-H torsion
[ 10167 10162 10161 10158 ] final   34.39 input  -65.29 | X-H torsion
[ 10718 10713 10712 10709 ] final  126.13 input   66.30 | X-H torsion
[ 10763 10752 10751 10750 ] final  174.44 input  -60.55 | X-H torsion
[ 11005 11000 10999 10996 ] final -131.77 input  -57.11 | X-H torsion

> <Gold.Protein.ActiveResidues>
 VAL166  LYS551  ARG553  GLY616  TRP617  ASP618  TYR619  PRO620  LYS621  CYS622 
 ASP623  PHE694  ASN695  SER759  ASP760  ASP761  ALA762  ILE779  LEU786  VAL792 
 PHE793  MET794  SER795  GLU796  ALA797  LYS798  CYS799  TRP800  GLU811  SER814 

> <Gold.Protein.RotatedAtoms>
  152.5099  133.9047  159.7457 H   0  0  0  0  0  0  0  0  0  0  0  0  # atno 6907 bound_to 6896
  150.9454  133.6600  159.2789 H   0  0  0  0  0  0  0  0  0  0  0  0  # atno 6908 bound_to 6896
  151.3897  135.0959  159.9575 H   0  0  0  0  0  0  0  0  0  0  0  0  # atno 6909 bound_to 6896
  146.1172  139.5951  142.9313 H   0  0  0  0  0  0  0  0  0  0  0  0  # atno 7974 bound_to 7965
  154.7017  140.2674  155.6713 H   0  0  0  0  0  0  0  0  0  0  0  0  # atno 8008 bound_to 7997
  156.2767  140.2771  156.1553 H   0  0  0  0  0  0  0  0  0  0  0  0  # atno 8009 bound_to 7997
  155.0756  140.0372  157.2612 H   0  0  0  0  0  0  0  0  0  0  0  0  # atno 8010 bound_to 7997
  140.4320  144.1311  150.6161 H   0  0  0  0  0  0  0  0  0  0  0  0  # atno 10167 bound_to 10162
  157.5445  131.1096  150.8804 H   0  0  0  0  0  0  0  0  0  0  0  0  # atno 10718 bound_to 10713
  154.4539  135.2765  155.1762 H   0  0  0  0  0  0  0  0  0  0  0  0  # atno 10763 bound_to 10752
  154.3577  135.6136  153.5678 H   0  0  0  0  0  0  0  0  0  0  0  0  # atno 10764 bound_to 10752
  152.9849  135.5827  154.4888 H   0  0  0  0  0  0  0  0  0  0  0  0  # atno 10765 bound_to 10752
  140.9229  134.1420  157.4299 H   0  0  0  0  0  0  0  0  0  0  0  0  # atno 11005 bound_to 11000
  145.5542  141.0410  143.2262 LP  0  0  0  0  0  0  0  0  0  0  0  0  # atno 17320 bound_to 7965
  144.7564  139.7065  143.7252 LP  0  0  0  0  0  0  0  0  0  0  0  0  # atno 17321 bound_to 7965
  140.4417  143.2524  151.9465 LP  0  0  0  0  0  0  0  0  0  0  0  0  # atno 17342 bound_to 10162
  139.4785  144.5648  151.8182 LP  0  0  0  0  0  0  0  0  0  0  0  0  # atno 17343 bound_to 10162
  156.9347  130.5362  149.5279 LP  0  0  0  0  0  0  0  0  0  0  0  0  # atno 17370 bound_to 10713
  156.0524  130.5591  150.9018 LP  0  0  0  0  0  0  0  0  0  0  0  0  # atno 17371 bound_to 10713
  139.8779  134.9978  156.5865 LP  0  0  0  0  0  0  0  0  0  0  0  0  # atno 17394 bound_to 11000
  140.7964  133.8541  155.8689 LP  0  0  0  0  0  0  0  0  0  0  0  0  # atno 17395 bound_to 11000

$$$$
