AV-unprocessed.smi:671|AV-procd|sdf|3286|dock3
  -GOLD-   22720 0243D 1   1.00000     0.00000
 Structure written by MMmdl.
 50 51  0  0  0  0  0  0  0  0  2 V2000
  150.6743  141.5401  156.2400 C   0  0  0  0  0  0  0  0  0  0  0  0
  149.5183  141.3034  155.3270 C   0  0  0  0  0  0  0  0  0  0  0  0
  148.6170  142.2578  154.9717 N   0  3  0  0  0  0  0  0  0  0  0  0
  147.6980  141.7420  154.1438 N   0  0  0  0  0  0  0  0  0  0  0  0
  146.6287  142.6026  153.6379 C   0  0  0  0  0  0  0  0  0  0  0  0
  147.9530  140.4219  153.9208 C   0  0  0  0  0  0  0  0  0  0  0  0
  147.1227  139.5363  153.0505 C   0  0  0  0  0  0  0  0  0  0  0  0
  149.1013  140.1385  154.6706 C   0  0  0  0  0  0  0  0  0  0  0  0
  149.7733  138.7946  154.7610 C   0  0  0  0  0  0  0  0  0  0  0  0
  148.8847  137.7105  155.4048 C   0  0  1  0  0  0  0  0  0  0  0  0
  147.7666  138.3221  156.2596 C   0  0  0  0  0  0  0  0  0  0  0  0
  148.2936  136.8578  154.3675 N   0  0  0  0  0  0  0  0  0  0  0  0
  147.2796  135.9790  154.4624 C   0  0  0  0  0  0  0  0  0  0  0  0
  146.7082  135.7721  155.5309 O   0  0  0  0  0  0  0  0  0  0  0  0
  146.9698  135.3453  153.3192 N   0  0  0  0  0  0  0  0  0  0  0  0
  145.9125  134.3474  153.1500 C   0  0  2  0  0  0  0  0  0  0  0  0
  146.5174  133.0099  152.6753 C   0  0  0  0  0  0  0  0  0  0  0  0
  145.8580  132.6804  151.3315 C   0  0  0  0  0  0  0  0  0  0  0  0
  145.3369  134.0153  150.8075 C   0  0  0  0  0  0  0  0  0  0  0  0
  144.8818  134.7503  152.0690 C   0  0  2  0  0  0  0  0  0  0  0  0
  144.6523  136.2558  151.8547 C   0  0  0  0  0  0  0  0  0  0  0  0
  150.5294  141.0053  157.1787 H   0  0  0  0  0  0  0  0  0  0  0  0
  150.7783  142.6029  156.4605 H   0  0  0  0  0  0  0  0  0  0  0  0
  151.5979  141.1917  155.7776 H   0  0  0  0  0  0  0  0  0  0  0  0
  145.6696  142.2234  153.9916 H   0  0  0  0  0  0  0  0  0  0  0  0
  146.6469  142.5888  152.5479 H   0  0  0  0  0  0  0  0  0  0  0  0
  146.7667  143.6258  153.9904 H   0  0  0  0  0  0  0  0  0  0  0  0
  147.3145  138.4866  153.2704 H   0  0  0  0  0  0  0  0  0  0  0  0
  147.3538  139.7196  152.0015 H   0  0  0  0  0  0  0  0  0  0  0  0
  146.0622  139.7297  153.2134 H   0  0  0  0  0  0  0  0  0  0  0  0
  150.0736  138.4674  153.7649 H   0  0  0  0  0  0  0  0  0  0  0  0
  150.7025  138.8811  155.3256 H   0  0  0  0  0  0  0  0  0  0  0  0
  149.5206  137.1304  156.0737 H   0  0  0  0  0  0  0  0  0  0  0  0
  148.1767  138.9500  157.0512 H   0  0  0  0  0  0  0  0  0  0  0  0
  147.1667  137.5450  156.7346 H   0  0  0  0  0  0  0  0  0  0  0  0
  147.0976  138.9390  155.6586 H   0  0  0  0  0  0  0  0  0  0  0  0
  148.7835  136.8612  153.4845 H   0  0  0  0  0  0  0  0  0  0  0  0
  147.5105  135.5699  152.4968 H   0  0  0  0  0  0  0  0  0  0  0  0
  145.3934  134.1896  154.0971 H   0  0  0  0  0  0  0  0  0  0  0  0
  147.5980  133.0899  152.5447 H   0  0  0  0  0  0  0  0  0  0  0  0
  146.3453  132.2130  153.4000 H   0  0  0  0  0  0  0  0  0  0  0  0
  146.5443  132.1968  150.6354 H   0  0  0  0  0  0  0  0  0  0  0  0
  145.0194  132.0014  151.4934 H   0  0  0  0  0  0  0  0  0  0  0  0
  146.1470  134.5632  150.3236 H   0  0  0  0  0  0  0  0  0  0  0  0
  144.5339  133.8926  150.0800 H   0  0  0  0  0  0  0  0  0  0  0  0
  143.9258  134.3147  152.3647 H   0  0  0  0  0  0  0  0  0  0  0  0
  145.5501  136.7436  151.4783 H   0  0  0  0  0  0  0  0  0  0  0  0
  144.3647  136.7480  152.7842 H   0  0  0  0  0  0  0  0  0  0  0  0
  143.8580  136.4284  151.1285 H   0  0  0  0  0  0  0  0  0  0  0  0
  148.5832  143.2302  155.2513 H   0  0  0  0  0  0  0  0  0  0  0  0
  1  2  1  0  0  0  0
  1 22  1  0  0  0  0
  1 23  1  0  0  0  0
  1 24  1  0  0  0  0
  2  8  1  0  0  0  0
  2  3  2  0  0  0  0
  3  4  1  0  0  0  0
  3 50  1  0  0  0  0
  4  5  1  0  0  0  0
  4  6  1  0  0  0  0
  5 25  1  0  0  0  0
  5 26  1  0  0  0  0
  5 27  1  0  0  0  0
  6  7  1  0  0  0  0
  6  8  2  0  0  0  0
  7 28  1  0  0  0  0
  7 29  1  0  0  0  0
  7 30  1  0  0  0  0
  8  9  1  0  0  0  0
  9 10  1  0  0  0  0
  9 31  1  0  0  0  0
  9 32  1  0  0  0  0
 10 11  1  0  0  0  0
 10 12  1  0  0  0  0
 10 33  1  0  0  0  0
 11 34  1  0  0  0  0
 11 35  1  0  0  0  0
 11 36  1  0  0  0  0
 12 13  1  0  0  0  0
 12 37  1  0  0  0  0
 13 14  2  0  0  0  0
 13 15  1  0  0  0  0
 15 16  1  0  0  0  0
 15 38  1  0  0  0  0
 16 20  1  0  0  0  0
 16 17  1  0  0  0  0
 16 39  1  0  0  0  0
 17 18  1  0  0  0  0
 17 40  1  0  0  0  0
 17 41  1  0  0  0  0
 18 19  1  0  0  0  0
 18 42  1  0  0  0  0
 18 43  1  0  0  0  0
 19 20  1  0  0  0  0
 19 44  1  0  0  0  0
 19 45  1  0  0  0  0
 20 21  1  0  0  0  0
 20 46  1  0  0  0  0
 21 47  1  0  0  0  0
 21 48  1  0  0  0  0
 21 49  1  0  0  0  0
M  CHG  1   3   1
M  END
> <s_m_source_file>
AV-unprocessed.smi

> <i_m_source_file_index>
671

> <i_lp_mmshare_version>
43012

> <i_f3d_flags>
0

> <s_epik_input>
W0NIM11jMW5uKFtDSDNdKWMoW0NIM10pYzFbQ0gyXVtDQEhdKFtDSDNdKVtOSF1DKD1PKVtOSF1bQ0BASF0yW0NIMl1bQ0gyXVtDSDJdW0NASF0yW0NIM10=

> <s_epik_cmdline>
J2VwaWtfcHl0aG9uJywgJy1waCcsICc3LjAnLCAnLXRuJywgJzgnLCAnLW1hJywgJzIwMCcsICctbWV0YWxfYmluZGluZycsICctaW1hZScsICc8aW5maWxlLm1hZT4nLCAnLW9tYWUnLCAnPG91dGZpbGUubWFlPic=

> <r_lp_tautomer_probability>
1

> <r_epik_Ionization_Penalty>
2.28705

> <r_epik_Ionization_Penalty_Charging>
2.28698

> <r_epik_Ionization_Penalty_Neutral>
6.23157e-05

> <r_epik_State_Penalty>
2.43671

> <r_epik_Charging_Adjusted_Penalty>
4.72369

> <i_epik_Tot_Q>
1

> <i_epik_Tot_abs_Q>
1

> <r_epik_Metal_State_Penalty>
2.44911

> <b_epik_Metal_Only>
0

> <s_lp_Force_Field>
OPLS_2005

> <r_lp_Energy>
35.2288

> <b_lp_Chiralities_Consistent>
1

> <s_lp_Variant>
AV-unprocessed.smi:671-14

> <Gold.Version>
5.8.1

> <Gold.Id.Protein>
6NUR|6NUR_protein|mol2

> <Gold.PLP.Fitness>
45.5856

> <Gold.PLP.PLP>
-35.5138

> <Gold.PLP.part.hbond>
-2.9519

> <Gold.PLP.part.metal>
0.0000

> <Gold.PLP.part.buried>
-4.8668

> <Gold.PLP.part.nonpolar>
-28.8947

> <Gold.PLP.part.repulsive>
0.2321

> <Gold.PLP.ligand.clash>
0.0000

> <Gold.PLP.ligand.torsion>
0.7772

> <Gold.PLP.Chemscore.Hbond>
3.8560

> <Gold.PLP.Chemscore.CHOScore>
0.0000

> <Gold.PLP.Chemscore.Metal>
0.0000

> <Gold.Chemscore.Hbonds>
donor molecule, donor type, donor heavy atom, donor atom, acceptor molecule, acceptor atom, score
      L1  H     3    50       P1  8028  2.00
      L1  H    12    37       P1  7948  1.00
      L1  H    15    38       P1  7948  0.98

> <Gold.PLP.Chemscore.Internal.Correction>
0.0582

> <Gold.Rescore>
     Score         DG    S(hbond)    S(metal)    S(lipo)     H(rot)  DE(clash)    DE(int)     intcor
     18.42     -20.43       2.85        0.00      79.20       1.51       0.04       1.97       ----

> <Gold.Chemscore.Fitness>
18.4156

> <Gold.Chemscore.DG>
-20.4252

> <Gold.Chemscore.ZeroCoef>
-5.4800

> <Gold.Chemscore.Hbond>
2.8545

> <Gold.Chemscore.Metal>
0.0000

> <Gold.Chemscore.Lipo>
79.1958

> <Gold.Chemscore.Internal_Hbond>
0.0000

> <Gold.Chemscore.DEClash>
0.0376

> <Gold.Chemscore.DEInternal>
1.9720

> <Gold.Chemscore.Rot>
1.5057

> <Gold.Chemscore.Internal.Correction>
   9.000000E+99

> <Gold.Chemscore.Hbonds>
donor molecule, donor type, donor heavy atom, donor atom, acceptor molecule, acceptor atom, score
      L1  H     3    50       P1  8028  0.96
      L1  H    12    37       P1  7948  0.94
      L1  H    15    38       P1  7948  0.92

> <Gold.Chemscore.Hbond.Weighted>
-9.5340

> <Gold.Chemscore.Metal.Weighted>
-0.0000

> <Gold.Chemscore.Lipo.Weighted>
-9.2659

> <Gold.Chemscore.Internal_Hbond.Weighted>
0.0000

> <Gold.Chemscore.DEClash.Weighted>
0.0376

> <Gold.Chemscore.DEInternal.Weighted>
1.9720

> <Gold.Chemscore.Rot.Weighted>
3.8547

> <Gold.Chemscore.Internal.Correction.Weighted>
   9.000000E+99

> <Gold.Protein.RotatedTorsions>
[ 6907 6896 6895 6894 ] final  150.70 input  -60.11 | X-H torsion
[ 7974 7965 7964 7962 ] final  -46.48 input  175.53 | X-H torsion
[ 8008 7997 7996 7995 ] final  -67.84 input   59.86 | X-H torsion
[ 10167 10162 10161 10158 ] final -171.77 input  -65.29 | X-H torsion
[ 10718 10713 10712 10709 ] final -133.78 input   66.30 | X-H torsion
[ 10763 10752 10751 10750 ] final  -69.20 input  -60.55 | X-H torsion
[ 11005 11000 10999 10996 ] final  123.84 input  -57.11 | X-H torsion

> <Gold.Protein.ActiveResidues>
 VAL166  LYS551  ARG553  GLY616  TRP617  ASP618  TYR619  PRO620  LYS621  CYS622 
 ASP623  PHE694  ASN695  SER759  ASP760  ASP761  ALA762  ILE779  LEU786  VAL792 
 PHE793  MET794  SER795  GLU796  ALA797  LYS798  CYS799  TRP800  GLU811  SER814 

> <Gold.Protein.RotatedAtoms>
  152.1108  133.4299  159.4629 H   0  0  0  0  0  0  0  0  0  0  0  0  # atno 6907 bound_to 6896
  150.6867  134.2651  159.4574 H   0  0  0  0  0  0  0  0  0  0  0  0  # atno 6908 bound_to 6896
  152.0519  134.9648  160.0625 H   0  0  0  0  0  0  0  0  0  0  0  0  # atno 6909 bound_to 6896
  145.9714  140.7379  142.9408 H   0  0  0  0  0  0  0  0  0  0  0  0  # atno 7974 bound_to 7965
  154.4827  140.0885  156.7414 H   0  0  0  0  0  0  0  0  0  0  0  0  # atno 8008 bound_to 7997
  155.4430  140.3454  155.4274 H   0  0  0  0  0  0  0  0  0  0  0  0  # atno 8009 bound_to 7997
  156.1215  140.1475  156.9186 H   0  0  0  0  0  0  0  0  0  0  0  0  # atno 8010 bound_to 7997
  139.5783  144.1482  152.1480 H   0  0  0  0  0  0  0  0  0  0  0  0  # atno 10167 bound_to 10162
  156.2485  130.7139  151.1028 H   0  0  0  0  0  0  0  0  0  0  0  0  # atno 10718 bound_to 10713
  154.4000  135.6033  153.5891 H   0  0  0  0  0  0  0  0  0  0  0  0  # atno 10763 bound_to 10752
  152.9788  135.5904  154.4196 H   0  0  0  0  0  0  0  0  0  0  0  0  # atno 10764 bound_to 10752
  154.3993  135.2842  155.2085 H   0  0  0  0  0  0  0  0  0  0  0  0  # atno 10765 bound_to 10752
  139.9331  134.9641  156.8320 H   0  0  0  0  0  0  0  0  0  0  0  0  # atno 11005 bound_to 11000
  144.6838  140.2756  143.7299 LP  0  0  0  0  0  0  0  0  0  0  0  0  # atno 17320 bound_to 7965
  145.7900  139.1923  143.2108 LP  0  0  0  0  0  0  0  0  0  0  0  0  # atno 17321 bound_to 7965
  140.1030  144.5523  150.6976 LP  0  0  0  0  0  0  0  0  0  0  0  0  # atno 17342 bound_to 10162
  140.7063  143.2471  151.4715 LP  0  0  0  0  0  0  0  0  0  0  0  0  # atno 17343 bound_to 10162
  157.7205  131.0684  150.6156 LP  0  0  0  0  0  0  0  0  0  0  0  0  # atno 17370 bound_to 10713
  156.6234  130.4412  149.5813 LP  0  0  0  0  0  0  0  0  0  0  0  0  # atno 17371 bound_to 10713
  140.6148  134.0049  155.7592 LP  0  0  0  0  0  0  0  0  0  0  0  0  # atno 17394 bound_to 11000
  141.0931  133.9886  157.3205 LP  0  0  0  0  0  0  0  0  0  0  0  0  # atno 17395 bound_to 11000

$$$$
