AV-unprocessed.smi:1254|AV-procd|sdf|5277|dock7
  -GOLD-   22720 4393D 1   1.00000     0.00000
 Structure written by MMmdl.
 45 46  0  0  0  0  0  0  0  0  3 V2000
  147.4430  132.5650  161.9733 C   0  0  0  0  0  0  0  0  0  0  0  0
  147.5631  134.0454  161.8522 C   0  0  0  0  0  0  0  0  0  0  0  0
  147.5557  134.8939  160.7816 C   0  0  0  0  0  0  0  0  0  0  0  0
  147.7029  136.1746  161.3812 C   0  0  0  0  0  0  0  0  0  0  0  0
  147.7642  137.3476  160.7320 N   0  5  0  0  0  0  0  0  0  0  0  0
  148.2628  137.4050  159.4760 C   0  0  0  0  0  0  0  0  0  0  0  0
  148.9232  136.5325  158.9074 O   0  0  0  0  0  0  0  0  0  0  0  0
  147.9774  138.5462  158.8371 N   0  0  0  0  0  0  0  0  0  0  0  0
  148.3828  138.8687  157.4759 C   0  0  0  0  0  0  0  0  0  0  0  0
  149.4713  139.9500  157.4795 C   0  0  2  0  0  0  0  0  0  0  0  0
  148.8854  141.3556  157.2320 C   0  0  0  0  0  0  0  0  0  0  0  0
  149.9541  142.3827  157.1712 N   0  3  1  0  0  0  0  0  0  0  0  0
  150.4866  142.7694  158.5061 C   0  0  0  0  0  0  0  0  0  0  0  0
  151.8404  143.5070  158.4226 C   0  0  0  0  0  0  0  0  0  0  0  0
  152.7931  143.0115  159.5209 C   0  0  0  0  0  0  0  0  0  0  0  0
  151.6687  145.0329  158.5102 C   0  0  0  0  0  0  0  0  0  0  0  0
  150.9884  141.9972  156.1774 C   0  0  0  0  0  0  0  0  0  0  0  0
  151.4965  140.5623  156.4175 C   0  0  0  0  0  0  0  0  0  0  0  0
  150.3975  139.6607  156.4363 O   0  0  0  0  0  0  0  0  0  0  0  0
  147.8083  136.1073  162.6978 N   0  0  0  0  0  0  0  0  0  0  0  0
  147.7118  134.7456  163.0085 O   0  0  0  0  0  0  0  0  0  0  0  0
  147.7730  132.0731  161.0582 H   0  0  0  0  0  0  0  0  0  0  0  0
  146.4079  132.2771  162.1586 H   0  0  0  0  0  0  0  0  0  0  0  0
  148.0520  132.1905  162.7966 H   0  0  0  0  0  0  0  0  0  0  0  0
  147.4560  134.6414  159.7367 H   0  0  0  0  0  0  0  0  0  0  0  0
  147.4389  139.2391  159.3363 H   0  0  0  0  0  0  0  0  0  0  0  0
  148.7402  137.9667  156.9765 H   0  0  0  0  0  0  0  0  0  0  0  0
  147.5126  139.2227  156.9206 H   0  0  0  0  0  0  0  0  0  0  0  0
  149.9843  139.9270  158.4429 H   0  0  0  0  0  0  0  0  0  0  0  0
  148.3495  141.3634  156.2816 H   0  0  0  0  0  0  0  0  0  0  0  0
  148.1515  141.6135  157.9966 H   0  0  0  0  0  0  0  0  0  0  0  0
  149.7736  143.4273  159.0053 H   0  0  0  0  0  0  0  0  0  0  0  0
  150.5724  141.8878  159.1413 H   0  0  0  0  0  0  0  0  0  0  0  0
  152.3156  143.2782  157.4693 H   0  0  0  0  0  0  0  0  0  0  0  0
  152.3912  143.2097  160.5152 H   0  0  0  0  0  0  0  0  0  0  0  0
  153.7640  143.5030  159.4511 H   0  0  0  0  0  0  0  0  0  0  0  0
  152.9644  141.9377  159.4392 H   0  0  0  0  0  0  0  0  0  0  0  0
  151.1952  145.3262  159.4477 H   0  0  0  0  0  0  0  0  0  0  0  0
  151.0557  145.4144  157.6934 H   0  0  0  0  0  0  0  0  0  0  0  0
  152.6327  145.5392  158.4542 H   0  0  0  0  0  0  0  0  0  0  0  0
  150.5394  142.0534  155.1849 H   0  0  0  0  0  0  0  0  0  0  0  0
  151.8188  142.7020  156.1740 H   0  0  0  0  0  0  0  0  0  0  0  0
  152.1749  140.2693  155.6161 H   0  0  0  0  0  0  0  0  0  0  0  0
  152.0612  140.4863  157.3474 H   0  0  0  0  0  0  0  0  0  0  0  0
  149.5095  143.2178  156.8172 H   0  0  0  0  0  0  0  0  0  0  0  0
  1  2  1  0  0  0  0
  1 22  1  0  0  0  0
  1 23  1  0  0  0  0
  1 24  1  0  0  0  0
  2 21  1  0  0  0  0
  2  3  2  0  0  0  0
  3  4  1  0  0  0  0
  3 25  1  0  0  0  0
  4  5  1  0  0  0  0
  4 20  2  0  0  0  0
  5  6  1  0  0  0  0
  6  7  2  0  0  0  0
  6  8  1  0  0  0  0
  8  9  1  0  0  0  0
  8 26  1  0  0  0  0
  9 10  1  0  0  0  0
  9 27  1  0  0  0  0
  9 28  1  0  0  0  0
 10 19  1  0  0  0  0
 10 11  1  0  0  0  0
 10 29  1  0  0  0  0
 11 12  1  0  0  0  0
 11 30  1  0  0  0  0
 11 31  1  0  0  0  0
 12 13  1  0  0  0  0
 12 17  1  0  0  0  0
 12 45  1  0  0  0  0
 13 14  1  0  0  0  0
 13 32  1  0  0  0  0
 13 33  1  0  0  0  0
 14 15  1  0  0  0  0
 14 16  1  0  0  0  0
 14 34  1  0  0  0  0
 15 35  1  0  0  0  0
 15 36  1  0  0  0  0
 15 37  1  0  0  0  0
 16 38  1  0  0  0  0
 16 39  1  0  0  0  0
 16 40  1  0  0  0  0
 17 18  1  0  0  0  0
 17 41  1  0  0  0  0
 17 42  1  0  0  0  0
 18 19  1  0  0  0  0
 18 43  1  0  0  0  0
 18 44  1  0  0  0  0
 20 21  1  0  0  0  0
M  CHG  1   5  -1
M  CHG  1  12   1
M  END
> <s_m_source_file>
AV-unprocessed.smi

> <i_m_source_file_index>
1254

> <i_lp_mmshare_version>
43012

> <i_f3d_flags>
0

> <s_epik_input>
W0NIM11jMVtjSF1jKG5vMSlbTkhdQyg9TylbTkhdW0NIMl1bQ0BASF0yW0NIMl1OKFtDSDJdW0NIMl1PMilbQ0gyXVtDSF0oW0NIM10pW0NIM10=

> <s_epik_cmdline>
J2VwaWtfcHl0aG9uJywgJy1waCcsICc3LjAnLCAnLXRuJywgJzgnLCAnLW1hJywgJzIwMCcsICctbWV0YWxfYmluZGluZycsICctaW1hZScsICc8aW5maWxlLm1hZT4nLCAnLW9tYWUnLCAnPG91dGZpbGUubWFlPic=

> <r_epik_Ionization_Penalty>
6.33139

> <r_epik_Ionization_Penalty_Charging>
6.33128

> <r_epik_Ionization_Penalty_Neutral>
0.000104968

> <r_epik_State_Penalty>
6.32522

> <r_epik_Charging_Adjusted_Penalty>
12.6565

> <i_epik_Tot_Q>
0

> <i_epik_Tot_abs_Q>
2

> <r_epik_Metal_State_Penalty>
2.26285

> <b_epik_Metal_Only>
1

> <s_lp_Force_Field>
OPLS_2005

> <r_lp_Energy>
8.92976

> <b_lp_Chiralities_Consistent>
1

> <s_lp_Variant>
AV-unprocessed.smi:1254-9

> <Gold.Version>
5.8.1

> <Gold.Id.Protein>
6NUR|6NUR_protein|mol2

> <Gold.PLP.Fitness>
44.1370

> <Gold.PLP.PLP>
-31.7769

> <Gold.PLP.part.hbond>
-3.0000

> <Gold.PLP.part.metal>
0.0000

> <Gold.PLP.part.buried>
-5.3251

> <Gold.PLP.part.nonpolar>
-26.4760

> <Gold.PLP.part.repulsive>
2.8121

> <Gold.PLP.ligand.clash>
0.0000

> <Gold.PLP.ligand.torsion>
1.5764

> <Gold.PLP.Chemscore.Hbond>
5.1063

> <Gold.PLP.Chemscore.CHOScore>
0.0000

> <Gold.PLP.Chemscore.Metal>
0.0000

> <Gold.Chemscore.Hbonds>
donor molecule, donor type, donor heavy atom, donor atom, acceptor molecule, acceptor atom, score
      L1  H    12    45       P1  8028  2.00
      P1  H  6931  6943       L1     5  1.43
      P1  H  6934  6947       L1     5  1.70

> <Gold.PLP.Chemscore.Internal.Correction>
0.1942

> <Gold.Rescore>
     Score         DG    S(hbond)    S(metal)    S(lipo)     H(rot)  DE(clash)    DE(int)     intcor
     13.46     -16.67       1.72        0.00      83.67       1.69       0.34       2.88       ----

> <Gold.Chemscore.Fitness>
13.4568

> <Gold.Chemscore.DG>
-16.6745

> <Gold.Chemscore.ZeroCoef>
-5.4800

> <Gold.Chemscore.Hbond>
1.7179

> <Gold.Chemscore.Metal>
0.0000

> <Gold.Chemscore.Lipo>
83.6746

> <Gold.Chemscore.Internal_Hbond>
0.0000

> <Gold.Chemscore.DEClash>
0.3406

> <Gold.Chemscore.DEInternal>
2.8771

> <Gold.Chemscore.Rot>
1.6926

> <Gold.Chemscore.Internal.Correction>
   9.000000E+99

> <Gold.Chemscore.Hbonds>
donor molecule, donor type, donor heavy atom, donor atom, acceptor molecule, acceptor atom, score
      L1  H    12    45       P1  8028  0.96
      P1  H  6931  6943       L1     5  0.10
      P1  H  6934  6947       L1     5  0.22

> <Gold.Chemscore.Hbond.Weighted>
-5.7376

> <Gold.Chemscore.Metal.Weighted>
-0.0000

> <Gold.Chemscore.Lipo.Weighted>
-9.7899

> <Gold.Chemscore.Internal_Hbond.Weighted>
0.0000

> <Gold.Chemscore.DEClash.Weighted>
0.3406

> <Gold.Chemscore.DEInternal.Weighted>
2.8771

> <Gold.Chemscore.Rot.Weighted>
4.3330

> <Gold.Chemscore.Internal.Correction.Weighted>
   9.000000E+99

> <Gold.Protein.RotatedTorsions>
[ 6907 6896 6895 6894 ] final   -1.17 input  -60.11 | X-H torsion
[ 7974 7965 7964 7962 ] final   29.80 input  175.53 | X-H torsion
[ 8008 7997 7996 7995 ] final -120.74 input   59.86 | X-H torsion
[ 10167 10162 10161 10158 ] final   99.01 input  -65.29 | X-H torsion
[ 10718 10713 10712 10709 ] final  172.84 input   66.30 | X-H torsion
[ 10763 10752 10751 10750 ] final  162.74 input  -60.55 | X-H torsion
[ 11005 11000 10999 10996 ] final -173.64 input  -57.11 | X-H torsion

> <Gold.Protein.ActiveResidues>
 VAL166  LYS551  ARG553  GLY616  TRP617  ASP618  TYR619  PRO620  LYS621  CYS622 
 ASP623  PHE694  ASN695  SER759  ASP760  ASP761  ALA762  ILE779  LEU786  VAL792 
 PHE793  MET794  SER795  GLU796  ALA797  LYS798  CYS799  TRP800  GLU811  SER814 

> <Gold.Protein.RotatedAtoms>
  151.5504  135.1067  159.9948 H   0  0  0  0  0  0  0  0  0  0  0  0  # atno 6907 bound_to 6896
  152.4494  133.7595  159.6749 H   0  0  0  0  0  0  0  0  0  0  0  0  # atno 6908 bound_to 6896
  150.8418  133.7857  159.3082 H   0  0  0  0  0  0  0  0  0  0  0  0  # atno 6909 bound_to 6896
  146.1650  139.6873  142.9007 H   0  0  0  0  0  0  0  0  0  0  0  0  # atno 7974 bound_to 7965
  155.1367  140.0401  157.2788 H   0  0  0  0  0  0  0  0  0  0  0  0  # atno 8008 bound_to 7997
  154.6503  140.2567  155.7195 H   0  0  0  0  0  0  0  0  0  0  0  0  # atno 8009 bound_to 7997
  156.2574  140.2837  156.0933 H   0  0  0  0  0  0  0  0  0  0  0  0  # atno 8010 bound_to 7997
  139.7656  144.6940  151.0229 H   0  0  0  0  0  0  0  0  0  0  0  0  # atno 10167 bound_to 10162
  156.9730  131.0096  151.2900 H   0  0  0  0  0  0  0  0  0  0  0  0  # atno 10718 bound_to 10713
  154.2830  135.2763  155.2689 H   0  0  0  0  0  0  0  0  0  0  0  0  # atno 10763 bound_to 10752
  154.5201  135.5758  153.6677 H   0  0  0  0  0  0  0  0  0  0  0  0  # atno 10764 bound_to 10752
  152.9926  135.6202  154.2990 H   0  0  0  0  0  0  0  0  0  0  0  0  # atno 10765 bound_to 10752
  140.4834  134.6053  157.4928 H   0  0  0  0  0  0  0  0  0  0  0  0  # atno 11005 bound_to 11000
  145.4491  141.0427  143.2814 LP  0  0  0  0  0  0  0  0  0  0  0  0  # atno 17320 bound_to 7965
  144.8079  139.6016  143.7042 LP  0  0  0  0  0  0  0  0  0  0  0  0  # atno 17321 bound_to 7965
  140.7810  143.4646  151.0229 LP  0  0  0  0  0  0  0  0  0  0  0  0  # atno 17342 bound_to 10162
  139.8332  143.7663  152.3180 LP  0  0  0  0  0  0  0  0  0  0  0  0  # atno 17343 bound_to 10162
  157.5579  130.8226  149.8228 LP  0  0  0  0  0  0  0  0  0  0  0  0  # atno 17370 bound_to 10713
  156.0275  130.3775  150.1781 LP  0  0  0  0  0  0  0  0  0  0  0  0  # atno 17371 bound_to 10713
  139.9812  134.7134  155.9855 LP  0  0  0  0  0  0  0  0  0  0  0  0  # atno 17394 bound_to 11000
  141.1520  133.6547  156.4042 LP  0  0  0  0  0  0  0  0  0  0  0  0  # atno 17395 bound_to 11000

$$$$
