AV-unprocessed.smi:3271|AV-procd|sdf|12517|dock9
  -GOLD-   2272018433D 1   1.00000     0.00000
 Structure written by MMmdl.
 41 41  0  0  0  0  0  0  0  0  1 V2000
  146.3177  132.2665  152.0184 C   0  0  0  0  0  0  0  0  0  0  0  0
  146.1343  133.2581  153.1784 C   0  0  0  0  0  0  0  0  0  0  0  0
  147.3784  134.1237  153.4856 C   0  0  0  0  0  0  0  0  0  0  0  0
  148.4542  133.2901  154.2185 C   0  0  0  0  0  0  0  0  0  0  0  0
  148.9672  132.0772  153.4257 C   0  0  0  0  0  0  0  0  0  0  0  0
  147.0028  135.3808  154.2887 C   0  0  0  0  0  0  0  0  0  0  0  0
  146.4803  135.2770  155.3988 O   0  0  0  0  0  0  0  0  0  0  0  0
  147.2686  136.5597  153.7073 N   0  0  0  0  0  0  0  0  0  0  0  0
  146.9365  137.8679  154.2652 C   0  0  0  0  0  0  0  0  0  0  0  0
  147.6940  139.0377  153.5838 C   0  0  2  0  0  0  0  0  0  0  0  0
  146.9032  140.3473  153.7466 C   0  0  0  0  0  0  0  0  0  0  0  0
  147.6877  138.7799  152.1924 O   0  0  0  0  0  0  0  0  0  0  0  0
  149.1016  139.2128  154.1177 C   0  0  0  0  0  0  0  0  0  0  0  0
  149.6793  140.3616  154.7345 C   0  0  0  0  0  0  0  0  0  0  0  0
  150.9462  140.1873  155.0730 N   0  0  0  0  0  0  0  0  0  0  0  0
  151.2216  138.9227  154.6965 N   0  0  0  0  0  0  0  0  0  0  0  0
  152.5469  138.3850  154.9169 C   0  0  0  0  0  0  0  0  0  0  0  0
  150.1291  138.3100  154.1230 C   0  0  0  0  0  0  0  0  0  0  0  0
  145.4451  131.6206  151.9213 H   0  0  0  0  0  0  0  0  0  0  0  0
  147.1874  131.6280  152.1768 H   0  0  0  0  0  0  0  0  0  0  0  0
  146.4468  132.7823  151.0671 H   0  0  0  0  0  0  0  0  0  0  0  0
  145.2743  133.8974  152.9730 H   0  0  0  0  0  0  0  0  0  0  0  0
  145.8733  132.6883  154.0708 H   0  0  0  0  0  0  0  0  0  0  0  0
  147.7995  134.4396  152.5293 H   0  0  0  0  0  0  0  0  0  0  0  0
  149.2978  133.9255  154.4920 H   0  0  0  0  0  0  0  0  0  0  0  0
  148.0404  132.9271  155.1598 H   0  0  0  0  0  0  0  0  0  0  0  0
  149.6750  131.5002  154.0212 H   0  0  0  0  0  0  0  0  0  0  0  0
  149.4795  132.3772  152.5113 H   0  0  0  0  0  0  0  0  0  0  0  0
  148.1480  131.4128  153.1497 H   0  0  0  0  0  0  0  0  0  0  0  0
  147.6973  136.5499  152.7935 H   0  0  0  0  0  0  0  0  0  0  0  0
  145.8586  138.0401  154.2857 H   0  0  0  0  0  0  0  0  0  0  0  0
  147.2432  137.8137  155.3103 H   0  0  0  0  0  0  0  0  0  0  0  0
  146.8260  140.6361  154.7954 H   0  0  0  0  0  0  0  0  0  0  0  0
  145.8880  140.2525  153.3586 H   0  0  0  0  0  0  0  0  0  0  0  0
  147.3840  141.1703  153.2160 H   0  0  0  0  0  0  0  0  0  0  0  0
  148.1553  137.9744  152.0326 H   0  0  0  0  0  0  0  0  0  0  0  0
  149.2192  141.3177  154.9367 H   0  0  0  0  0  0  0  0  0  0  0  0
  152.5542  137.3136  154.7134 H   0  0  0  0  0  0  0  0  0  0  0  0
  152.8478  138.5503  155.9521 H   0  0  0  0  0  0  0  0  0  0  0  0
  153.2580  138.8778  154.2534 H   0  0  0  0  0  0  0  0  0  0  0  0
  150.1721  137.2935  153.7607 H   0  0  0  0  0  0  0  0  0  0  0  0
  1  2  1  0  0  0  0
  1 19  1  0  0  0  0
  1 20  1  0  0  0  0
  1 21  1  0  0  0  0
  2  3  1  0  0  0  0
  2 22  1  0  0  0  0
  2 23  1  0  0  0  0
  3  4  1  0  0  0  0
  3  6  1  0  0  0  0
  3 24  1  0  0  0  0
  4  5  1  0  0  0  0
  4 25  1  0  0  0  0
  4 26  1  0  0  0  0
  5 27  1  0  0  0  0
  5 28  1  0  0  0  0
  5 29  1  0  0  0  0
  6  7  2  0  0  0  0
  6  8  1  0  0  0  0
  8  9  1  0  0  0  0
  8 30  1  0  0  0  0
  9 10  1  0  0  0  0
  9 31  1  0  0  0  0
  9 32  1  0  0  0  0
 10 11  1  0  0  0  0
 10 12  1  0  0  0  0
 10 13  1  0  0  0  0
 11 33  1  0  0  0  0
 11 34  1  0  0  0  0
 11 35  1  0  0  0  0
 12 36  1  0  0  0  0
 13 18  2  0  0  0  0
 13 14  1  0  0  0  0
 14 15  2  0  0  0  0
 14 37  1  0  0  0  0
 15 16  1  0  0  0  0
 16 17  1  0  0  0  0
 16 18  1  0  0  0  0
 17 38  1  0  0  0  0
 17 39  1  0  0  0  0
 17 40  1  0  0  0  0
 18 41  1  0  0  0  0
M  END
> <s_m_source_file>
AV-unprocessed.smi

> <i_m_source_file_index>
3271

> <i_lp_mmshare_version>
43012

> <i_f3d_flags>
0

> <s_epik_input>
W0NIM11bQ0gyXVtDSF0oW0NIMl1bQ0gzXSlDKD1PKVtOSF1bQ0gyXVtDQEBdKFtDSDNdKShbT0hdKWMxW2NIXW5uKFtDSDNdKVtjSF0x

> <s_epik_cmdline>
J2VwaWtfcHl0aG9uJywgJy1waCcsICc3LjAnLCAnLXRuJywgJzgnLCAnLW1hJywgJzIwMCcsICctbWV0YWxfYmluZGluZycsICctaW1hZScsICc8aW5maWxlLm1hZT4nLCAnLW9tYWUnLCAnPG91dGZpbGUubWFlPic=

> <r_lp_tautomer_probability>
1

> <r_epik_Ionization_Penalty>
6.03488e-05

> <r_epik_Ionization_Penalty_Charging>
0

> <r_epik_Ionization_Penalty_Neutral>
6.03488e-05

> <r_epik_State_Penalty>
-0

> <r_epik_Charging_Adjusted_Penalty>
0

> <i_epik_Tot_Q>
0

> <i_epik_Tot_abs_Q>
0

> <r_epik_Metal_State_Penalty>
-0

> <b_epik_Metal_Only>
0

> <s_lp_Force_Field>
OPLS_2005

> <r_lp_Energy>
0.383254

> <b_lp_Chiralities_Consistent>
1

> <s_lp_Variant>
AV-unprocessed.smi:3271-2

> <Gold.Version>
5.8.1

> <Gold.Id.Protein>
6NUR|6NUR_protein|mol2

> <Gold.PLP.Fitness>
41.4596

> <Gold.PLP.PLP>
-31.6277

> <Gold.PLP.part.hbond>
-3.9865

> <Gold.PLP.part.metal>
0.0000

> <Gold.PLP.part.buried>
-0.7879

> <Gold.PLP.part.nonpolar>
-25.8442

> <Gold.PLP.part.repulsive>
0.0771

> <Gold.PLP.ligand.clash>
0.0000

> <Gold.PLP.ligand.torsion>
0.5916

> <Gold.PLP.Chemscore.Hbond>
2.5525

> <Gold.PLP.Chemscore.CHOScore>
1.0801

> <Gold.PLP.Chemscore.Metal>
0.0000

> <Gold.Chemscore.Hbonds>
donor molecule, donor type, donor heavy atom, donor atom, acceptor molecule, acceptor atom, score
      L1  H     8    30       P1  7948  1.00
      L1  H    12    36       P1  7948  1.00
      P1  H  7989  7998       L1    15  0.45
      L1  C    18    41       P1  7948  1.00
      L1  C    18    41       P1  7949  0.08

> <Gold.PLP.Chemscore.Internal.Correction>
0.1174

> <Gold.Rescore>
     Score         DG    S(hbond)    S(metal)    S(lipo)     H(rot)  DE(clash)    DE(int)     intcor
     13.26     -14.17       1.95        0.00      69.71       2.33       0.04       0.86       ----

> <Gold.Chemscore.Fitness>
13.2627

> <Gold.Chemscore.DG>
-14.1688

> <Gold.Chemscore.ZeroCoef>
-5.4800

> <Gold.Chemscore.Hbond>
1.9485

> <Gold.Chemscore.Metal>
0.0000

> <Gold.Chemscore.Lipo>
69.7094

> <Gold.Chemscore.Internal_Hbond>
0.0000

> <Gold.Chemscore.DEClash>
0.0425

> <Gold.Chemscore.DEInternal>
0.8636

> <Gold.Chemscore.Rot>
2.3341

> <Gold.Chemscore.Internal.Correction>
   9.000000E+99

> <Gold.Chemscore.Hbonds>
donor molecule, donor type, donor heavy atom, donor atom, acceptor molecule, acceptor atom, score
      L1  H     8    30       P1  7948  0.93
      L1  H    12    36       P1  7948  1.00

> <Gold.Chemscore.Hbond.Weighted>
-6.5081

> <Gold.Chemscore.Metal.Weighted>
-0.0000

> <Gold.Chemscore.Lipo.Weighted>
-8.1560

> <Gold.Chemscore.Internal_Hbond.Weighted>
0.0000

> <Gold.Chemscore.DEClash.Weighted>
0.0425

> <Gold.Chemscore.DEInternal.Weighted>
0.8636

> <Gold.Chemscore.Rot.Weighted>
5.9753

> <Gold.Chemscore.Internal.Correction.Weighted>
   9.000000E+99

> <Gold.Protein.RotatedTorsions>
[ 6907 6896 6895 6894 ] final   67.89 input  -60.11 | X-H torsion
[ 7974 7965 7964 7962 ] final -113.15 input  175.53 | X-H torsion
[ 8008 7997 7996 7995 ] final -127.94 input   59.86 | X-H torsion
[ 10167 10162 10161 10158 ] final  -40.08 input  -65.29 | X-H torsion
[ 10718 10713 10712 10709 ] final -150.63 input   66.30 | X-H torsion
[ 10763 10752 10751 10750 ] final -165.53 input  -60.55 | X-H torsion
[ 11005 11000 10999 10996 ] final  -46.17 input  -57.11 | X-H torsion

> <Gold.Protein.ActiveResidues>
 VAL166  LYS551  ARG553  GLY616  TRP617  ASP618  TYR619  PRO620  LYS621  CYS622 
 ASP623  PHE694  ASN695  SER759  ASP760  ASP761  ALA762  ILE779  LEU786  VAL792 
 PHE793  MET794  SER795  GLU796  ALA797  LYS798  CYS799  TRP800  GLU811  SER814 

> <Gold.Protein.RotatedAtoms>
  152.4583  134.5242  159.9791 H   0  0  0  0  0  0  0  0  0  0  0  0  # atno 6907 bound_to 6896
  151.5297  133.3445  159.2924 H   0  0  0  0  0  0  0  0  0  0  0  0  # atno 6908 bound_to 6896
  150.8536  134.7898  159.7090 H   0  0  0  0  0  0  0  0  0  0  0  0  # atno 6909 bound_to 6896
  145.1355  140.8749  143.3733 H   0  0  0  0  0  0  0  0  0  0  0  0  # atno 7974 bound_to 7965
  155.2544  140.0433  157.2990 H   0  0  0  0  0  0  0  0  0  0  0  0  # atno 8008 bound_to 7997
  154.5749  140.2384  155.8107 H   0  0  0  0  0  0  0  0  0  0  0  0  # atno 8009 bound_to 7997
  156.2150  140.2987  155.9828 H   0  0  0  0  0  0  0  0  0  0  0  0  # atno 8010 bound_to 7997
  140.7045  143.3175  151.2873 H   0  0  0  0  0  0  0  0  0  0  0  0  # atno 10167 bound_to 10162
  156.4486  130.8157  151.2387 H   0  0  0  0  0  0  0  0  0  0  0  0  # atno 10718 bound_to 10713
  154.6923  135.2973  154.9462 H   0  0  0  0  0  0  0  0  0  0  0  0  # atno 10763 bound_to 10752
  154.0421  135.6656  153.4795 H   0  0  0  0  0  0  0  0  0  0  0  0  # atno 10764 bound_to 10752
  153.0621  135.5110  154.8022 H   0  0  0  0  0  0  0  0  0  0  0  0  # atno 10765 bound_to 10752
  141.0562  133.6725  156.3117 H   0  0  0  0  0  0  0  0  0  0  0  0  # atno 11005 bound_to 11000
  145.0589  139.3121  143.5890 LP  0  0  0  0  0  0  0  0  0  0  0  0  # atno 17320 bound_to 7965
  146.3510  140.0023  142.8675 LP  0  0  0  0  0  0  0  0  0  0  0  0  # atno 17321 bound_to 7965
  139.6618  144.0175  152.2697 LP  0  0  0  0  0  0  0  0  0  0  0  0  # atno 17342 bound_to 10162
  139.9745  144.6471  150.7958 LP  0  0  0  0  0  0  0  0  0  0  0  0  # atno 17343 bound_to 10162
  157.7504  131.0145  150.3467 LP  0  0  0  0  0  0  0  0  0  0  0  0  # atno 17370 bound_to 10713
  156.3840  130.3885  149.7080 LP  0  0  0  0  0  0  0  0  0  0  0  0  # atno 17371 bound_to 10713
  140.5959  134.5604  157.5508 LP  0  0  0  0  0  0  0  0  0  0  0  0  # atno 17394 bound_to 11000
  139.9392  134.7818  156.0722 LP  0  0  0  0  0  0  0  0  0  0  0  0  # atno 17395 bound_to 11000

$$$$
