AV-unprocessed.smi:1031|AV-procd|sdf|4481|dock3
  -GOLD-   22720 2453D 1   1.00000     0.00000
 Structure written by MMmdl.
 35 36  0  0  0  0  0  0  0  0  1 V2000
  149.8651  140.4153  158.0325 C   0  0  0  0  0  0  0  0  0  0  0  0
  151.3751  140.2669  157.8021 C   0  0  1  0  0  0  0  0  0  0  0  0
  151.7518  140.5685  156.3356 C   0  0  0  0  0  0  0  0  0  0  0  0
  151.4193  139.4805  155.4332 N   0  0  0  0  0  0  0  0  0  0  0  0
  151.8470  138.1699  155.4762 C   0  0  0  0  0  0  0  0  0  0  0  0
  151.2579  137.5160  154.4325 C   0  0  0  0  0  0  0  0  0  0  0  0
  150.4807  138.5248  153.7976 C   0  0  0  0  0  0  0  0  0  0  0  0
  150.5826  139.7006  154.3962 N   0  0  0  0  0  0  0  0  0  0  0  0
  152.0826  141.1628  158.7164 N   0  0  0  0  0  0  0  0  0  0  0  0
  153.3290  140.9847  159.1832 C   0  0  0  0  0  0  0  0  0  0  0  0
  154.0281  140.0132  158.8932 O   0  0  0  0  0  0  0  0  0  0  0  0
  153.8712  142.0822  160.1128 C   0  0  0  0  0  0  0  0  0  0  0  0
  153.7089  141.7057  161.6046 C   0  0  0  0  0  0  0  0  0  0  0  0
  152.8158  142.7781  162.2419 C   0  0  0  0  0  0  0  0  0  0  0  0
  152.0807  143.4356  161.0777 C   0  0  0  0  0  0  0  0  0  0  0  0
  153.1000  143.4050  159.9403 C   0  0  0  0  0  0  0  0  0  0  0  0
  149.3020  139.7376  157.3904 H   0  0  0  0  0  0  0  0  0  0  0  0
  149.5279  141.4307  157.8212 H   0  0  0  0  0  0  0  0  0  0  0  0
  149.6008  140.1841  159.0650 H   0  0  0  0  0  0  0  0  0  0  0  0
  151.6325  139.2298  158.0248 H   0  0  0  0  0  0  0  0  0  0  0  0
  151.2296  141.4625  155.9911 H   0  0  0  0  0  0  0  0  0  0  0  0
  152.8184  140.7810  156.2491 H   0  0  0  0  0  0  0  0  0  0  0  0
  152.5207  137.8144  156.2420 H   0  0  0  0  0  0  0  0  0  0  0  0
  151.3640  136.4754  154.1646 H   0  0  0  0  0  0  0  0  0  0  0  0
  149.8501  138.4384  152.9249 H   0  0  0  0  0  0  0  0  0  0  0  0
  151.5859  141.9912  159.0110 H   0  0  0  0  0  0  0  0  0  0  0  0
  154.9253  142.2499  159.8845 H   0  0  0  0  0  0  0  0  0  0  0  0
  153.2487  140.7237  161.7288 H   0  0  0  0  0  0  0  0  0  0  0  0
  154.6750  141.6603  162.1084 H   0  0  0  0  0  0  0  0  0  0  0  0
  152.1329  142.3664  162.9857 H   0  0  0  0  0  0  0  0  0  0  0  0
  153.4393  143.5204  162.7418 H   0  0  0  0  0  0  0  0  0  0  0  0
  151.2055  142.8423  160.8093 H   0  0  0  0  0  0  0  0  0  0  0  0
  151.7413  144.4451  161.3110 H   0  0  0  0  0  0  0  0  0  0  0  0
  153.7900  144.2431  160.0454 H   0  0  0  0  0  0  0  0  0  0  0  0
  152.6218  143.5073  158.9647 H   0  0  0  0  0  0  0  0  0  0  0  0
  1  2  1  0  0  0  0
  1 17  1  0  0  0  0
  1 18  1  0  0  0  0
  1 19  1  0  0  0  0
  2  3  1  0  0  0  0
  2  9  1  0  0  0  0
  2 20  1  0  0  0  0
  3  4  1  0  0  0  0
  3 21  1  0  0  0  0
  3 22  1  0  0  0  0
  4  8  1  0  0  0  0
  4  5  1  0  0  0  0
  5  6  2  0  0  0  0
  5 23  1  0  0  0  0
  6  7  1  0  0  0  0
  6 24  1  0  0  0  0
  7  8  2  0  0  0  0
  7 25  1  0  0  0  0
  9 10  1  0  0  0  0
  9 26  1  0  0  0  0
 10 11  2  0  0  0  0
 10 12  1  0  0  0  0
 12 16  1  0  0  0  0
 12 13  1  0  0  0  0
 12 27  1  0  0  0  0
 13 14  1  0  0  0  0
 13 28  1  0  0  0  0
 13 29  1  0  0  0  0
 14 15  1  0  0  0  0
 14 30  1  0  0  0  0
 14 31  1  0  0  0  0
 15 16  1  0  0  0  0
 15 32  1  0  0  0  0
 15 33  1  0  0  0  0
 16 34  1  0  0  0  0
 16 35  1  0  0  0  0
M  END
> <s_m_source_file>
AV-unprocessed.smi

> <i_m_source_file_index>
1031

> <i_lp_mmshare_version>
43012

> <i_f3d_flags>
0

> <s_epik_input>
bjFbY0hdW2NIXVtjSF1uMVtDSDJdW0NAQEhdKFtDSDNdKVtOSF1DKD1PKVtDSF0yW0NIMl1bQ0gyXVtDSDJdW0NIMl0y

> <s_epik_cmdline>
J2VwaWtfcHl0aG9uJywgJy1waCcsICc3LjAnLCAnLXRuJywgJzgnLCAnLW1hJywgJzIwMCcsICctbWV0YWxfYmluZGluZycsICctaW1hZScsICc8aW5maWxlLm1hZT4nLCAnLW9tYWUnLCAnPG91dGZpbGUubWFlPic=

> <r_lp_tautomer_probability>
1

> <r_epik_Ionization_Penalty>
0.000326659

> <r_epik_Ionization_Penalty_Charging>
0

> <r_epik_Ionization_Penalty_Neutral>
0.000326659

> <r_epik_State_Penalty>
-0

> <r_epik_Charging_Adjusted_Penalty>
0

> <i_epik_Tot_Q>
0

> <i_epik_Tot_abs_Q>
0

> <r_epik_Metal_State_Penalty>
-0

> <b_epik_Metal_Only>
0

> <s_lp_Force_Field>
OPLS_2005

> <r_lp_Energy>
19.4397

> <b_lp_Chiralities_Consistent>
1

> <s_lp_Variant>
AV-unprocessed.smi:1031-2

> <Gold.Version>
5.8.1

> <Gold.Id.Protein>
6NUR|6NUR_protein|mol2

> <Gold.PLP.Fitness>
48.1092

> <Gold.PLP.PLP>
-38.5225

> <Gold.PLP.part.hbond>
-2.0000

> <Gold.PLP.part.metal>
0.0000

> <Gold.PLP.part.buried>
-4.1443

> <Gold.PLP.part.nonpolar>
-31.6029

> <Gold.PLP.part.repulsive>
0.2411

> <Gold.PLP.ligand.clash>
0.0132

> <Gold.PLP.ligand.torsion>
1.1184

> <Gold.PLP.Chemscore.Hbond>
2.0000

> <Gold.PLP.Chemscore.CHOScore>
1.9343

> <Gold.PLP.Chemscore.Metal>
0.0000

> <Gold.Chemscore.Hbonds>
donor molecule, donor type, donor heavy atom, donor atom, acceptor molecule, acceptor atom, score
      P1  H  7989  7998       L1     8  0.90
      P1  H  7997  8010       L1    11  1.00
      L1  C     7    25       P1  7948  0.87
      L1  C     7    25       P1  7957  0.95

> <Gold.PLP.Chemscore.Internal.Correction>
0.0337

> <Gold.Rescore>
     Score         DG    S(hbond)    S(metal)    S(lipo)     H(rot)  DE(clash)    DE(int)     intcor
     18.37     -18.74       1.86        0.00      93.45       1.51       0.00       0.37       ----

> <Gold.Chemscore.Fitness>
18.3733

> <Gold.Chemscore.DG>
-18.7423

> <Gold.Chemscore.ZeroCoef>
-5.4800

> <Gold.Chemscore.Hbond>
1.8582

> <Gold.Chemscore.Metal>
0.0000

> <Gold.Chemscore.Lipo>
93.4464

> <Gold.Chemscore.Internal_Hbond>
0.0000

> <Gold.Chemscore.DEClash>
0.0021

> <Gold.Chemscore.DEInternal>
0.3668

> <Gold.Chemscore.Rot>
1.5146

> <Gold.Chemscore.Internal.Correction>
   9.000000E+99

> <Gold.Chemscore.Hbonds>
donor molecule, donor type, donor heavy atom, donor atom, acceptor molecule, acceptor atom, score
      P1  H  7989  7998       L1     8  0.15
      P1  H  7997  8010       L1    11  0.92

> <Gold.Chemscore.Hbond.Weighted>
-6.2064

> <Gold.Chemscore.Metal.Weighted>
-0.0000

> <Gold.Chemscore.Lipo.Weighted>
-10.9332

> <Gold.Chemscore.Internal_Hbond.Weighted>
0.0000

> <Gold.Chemscore.DEClash.Weighted>
0.0021

> <Gold.Chemscore.DEInternal.Weighted>
0.3668

> <Gold.Chemscore.Rot.Weighted>
3.8773

> <Gold.Chemscore.Internal.Correction.Weighted>
   9.000000E+99

> <Gold.Protein.RotatedTorsions>
[ 6907 6896 6895 6894 ] final  -95.99 input  -60.11 | X-H torsion
[ 7974 7965 7964 7962 ] final   10.35 input  175.53 | X-H torsion
[ 8008 7997 7996 7995 ] final   12.53 input   59.86 | X-H torsion
[ 10167 10162 10161 10158 ] final  104.97 input  -65.29 | X-H torsion
[ 10718 10713 10712 10709 ] final  105.09 input   66.30 | X-H torsion
[ 10763 10752 10751 10750 ] final -102.27 input  -60.55 | X-H torsion
[ 11005 11000 10999 10996 ] final  171.32 input  -57.11 | X-H torsion

> <Gold.Protein.ActiveResidues>
 VAL166  LYS551  ARG553  GLY616  TRP617  ASP618  TYR619  PRO620  LYS621  CYS622 
 ASP623  PHE694  ASN695  SER759  ASP760  ASP761  ALA762  ILE779  LEU786  VAL792 
 PHE793  MET794  SER795  GLU796  ALA797  LYS798  CYS799  TRP800  GLU811  SER814 

> <Gold.Protein.RotatedAtoms>
  150.6977  134.1571  159.4162 H   0  0  0  0  0  0  0  0  0  0  0  0  # atno 6907 bound_to 6896
  151.9553  135.0147  160.0553 H   0  0  0  0  0  0  0  0  0  0  0  0  # atno 6908 bound_to 6896
  152.1975  133.4782  159.5077 H   0  0  0  0  0  0  0  0  0  0  0  0  # atno 6909 bound_to 6896
  146.2389  139.9647  142.8454 H   0  0  0  0  0  0  0  0  0  0  0  0  # atno 7974 bound_to 7965
  154.8219  140.2885  155.5781 H   0  0  0  0  0  0  0  0  0  0  0  0  # atno 8008 bound_to 7997
  156.2998  140.2548  156.3059 H   0  0  0  0  0  0  0  0  0  0  0  0  # atno 8009 bound_to 7997
  154.9328  140.0383  157.2046 H   0  0  0  0  0  0  0  0  0  0  0  0  # atno 8010 bound_to 7997
  139.7132  144.7073  151.0993 H   0  0  0  0  0  0  0  0  0  0  0  0  # atno 10167 bound_to 10162
  157.6718  131.0819  150.5804 H   0  0  0  0  0  0  0  0  0  0  0  0  # atno 10718 bound_to 10713
  154.7721  135.4867  153.9670 H   0  0  0  0  0  0  0  0  0  0  0  0  # atno 10763 bound_to 10752
  153.1381  135.6767  153.9077 H   0  0  0  0  0  0  0  0  0  0  0  0  # atno 10764 bound_to 10752
  153.8760  135.3138  155.3422 H   0  0  0  0  0  0  0  0  0  0  0  0  # atno 10765 bound_to 10752
  140.3178  134.7463  157.4041 H   0  0  0  0  0  0  0  0  0  0  0  0  # atno 11005 bound_to 11000
  145.1738  140.9734  143.4306 LP  0  0  0  0  0  0  0  0  0  0  0  0  # atno 17320 bound_to 7965
  145.0004  139.3603  143.6170 LP  0  0  0  0  0  0  0  0  0  0  0  0  # atno 17321 bound_to 7965
  140.7738  143.5265  150.9474 LP  0  0  0  0  0  0  0  0  0  0  0  0  # atno 17342 bound_to 10162
  139.8950  143.6906  152.3140 LP  0  0  0  0  0  0  0  0  0  0  0  0  # atno 17343 bound_to 10162
  156.6105  130.4379  149.5861 LP  0  0  0  0  0  0  0  0  0  0  0  0  # atno 17370 bound_to 10713
  156.2434  130.6864  151.1577 LP  0  0  0  0  0  0  0  0  0  0  0  0  # atno 17371 bound_to 10713
  140.0968  134.5526  155.8390 LP  0  0  0  0  0  0  0  0  0  0  0  0  # atno 17394 bound_to 11000
  141.2093  133.6683  156.6434 LP  0  0  0  0  0  0  0  0  0  0  0  0  # atno 17395 bound_to 11000

$$$$
