AV-unprocessed.smi:3278|AV-procd|sdf|12541|dock7
  -GOLD-   2272018453D 1   1.00000     0.00000
 Structure written by MMmdl.
 39 40  0  0  0  0  0  0  0  0  2 V2000
  154.3785  139.2887  155.5952 C   0  0  0  0  0  0  0  0  0  0  0  0
  152.9951  139.6484  155.3696 N   0  0  0  0  0  0  0  0  0  0  0  0
  152.1946  140.4954  156.1046 C   0  0  0  0  0  0  0  0  0  0  0  0
  150.9622  140.5223  155.5106 C   0  0  0  0  0  0  0  0  0  0  0  0
  149.7325  141.3045  155.9217 C   0  0  2  0  0  0  0  0  0  0  0  0
  148.5462  140.3500  156.1434 C   0  0  0  0  0  0  0  0  0  0  0  0
  149.3189  142.2063  154.9117 O   0  0  0  0  0  0  0  0  0  0  0  0
  150.0034  142.1356  157.1944 C   0  0  0  0  0  0  0  0  0  0  0  0
  150.6508  143.4293  156.8780 N   0  3  0  0  0  0  0  0  0  0  0  0
  151.1966  144.1704  158.0360 C   0  0  2  0  0  0  0  0  0  0  0  0
  151.8778  143.2117  159.0380 C   0  0  0  0  0  0  0  0  0  0  0  0
  152.5025  143.9453  160.2365 C   0  0  0  0  0  0  0  0  0  0  0  0
  151.4643  144.7244  161.0547 C   0  0  0  0  0  0  0  0  0  0  0  0
  150.6801  146.0133  160.0507 S   0  0  0  0  0  0  0  0  0  0  0  0
  150.0612  144.9646  158.7069 C   0  0  0  0  0  0  0  0  0  0  0  0
  151.1198  139.6381  154.4021 C   0  0  0  0  0  0  0  0  0  0  0  0
  152.3349  139.1232  154.3186 N   0  0  0  0  0  0  0  0  0  0  0  0
  154.7650  139.8158  156.4679 H   0  0  0  0  0  0  0  0  0  0  0  0
  154.9773  139.5580  154.7246 H   0  0  0  0  0  0  0  0  0  0  0  0
  154.4572  138.2144  155.7661 H   0  0  0  0  0  0  0  0  0  0  0  0
  152.5638  141.0054  156.9824 H   0  0  0  0  0  0  0  0  0  0  0  0
  148.7555  139.6304  156.9356 H   0  0  0  0  0  0  0  0  0  0  0  0
  148.3181  139.7843  155.2391 H   0  0  0  0  0  0  0  0  0  0  0  0
  147.6439  140.8924  156.4285 H   0  0  0  0  0  0  0  0  0  0  0  0
  149.1173  143.0389  155.3115 H   0  0  0  0  0  0  0  0  0  0  0  0
  149.0718  142.3051  157.7346 H   0  0  0  0  0  0  0  0  0  0  0  0
  150.6576  141.5765  157.8652 H   0  0  0  0  0  0  0  0  0  0  0  0
  151.4182  143.2280  156.2525 H   0  0  0  0  0  0  0  0  0  0  0  0
  151.9321  144.8853  157.6630 H   0  0  0  0  0  0  0  0  0  0  0  0
  151.1553  142.4776  159.3977 H   0  0  0  0  0  0  0  0  0  0  0  0
  152.6648  142.6443  158.5421 H   0  0  0  0  0  0  0  0  0  0  0  0
  152.9967  143.2197  160.8834 H   0  0  0  0  0  0  0  0  0  0  0  0
  153.2827  144.6240  159.8894 H   0  0  0  0  0  0  0  0  0  0  0  0
  150.6950  144.0515  161.4358 H   0  0  0  0  0  0  0  0  0  0  0  0
  151.9371  145.1919  161.9186 H   0  0  0  0  0  0  0  0  0  0  0  0
  149.5644  145.6070  157.9789 H   0  0  0  0  0  0  0  0  0  0  0  0
  149.3027  144.2901  159.1062 H   0  0  0  0  0  0  0  0  0  0  0  0
  150.3908  139.3610  153.6547 H   0  0  0  0  0  0  0  0  0  0  0  0
  149.9919  144.0185  156.3891 H   0  0  0  0  0  0  0  0  0  0  0  0
  1  2  1  0  0  0  0
  1 18  1  0  0  0  0
  1 19  1  0  0  0  0
  1 20  1  0  0  0  0
  2 17  1  0  0  0  0
  2  3  1  0  0  0  0
  3  4  2  0  0  0  0
  3 21  1  0  0  0  0
  4  5  1  0  0  0  0
  4 16  1  0  0  0  0
  5  6  1  0  0  0  0
  5  7  1  0  0  0  0
  5  8  1  0  0  0  0
  6 22  1  0  0  0  0
  6 23  1  0  0  0  0
  6 24  1  0  0  0  0
  7 25  1  0  0  0  0
  8  9  1  0  0  0  0
  8 26  1  0  0  0  0
  8 27  1  0  0  0  0
  9 10  1  0  0  0  0
  9 28  1  0  0  0  0
  9 39  1  0  0  0  0
 10 15  1  0  0  0  0
 10 11  1  0  0  0  0
 10 29  1  0  0  0  0
 11 12  1  0  0  0  0
 11 30  1  0  0  0  0
 11 31  1  0  0  0  0
 12 13  1  0  0  0  0
 12 32  1  0  0  0  0
 12 33  1  0  0  0  0
 13 14  1  0  0  0  0
 13 34  1  0  0  0  0
 13 35  1  0  0  0  0
 14 15  1  0  0  0  0
 15 36  1  0  0  0  0
 15 37  1  0  0  0  0
 16 17  2  0  0  0  0
 16 38  1  0  0  0  0
M  CHG  1   9   1
M  END
> <s_m_source_file>
AV-unprocessed.smi

> <i_m_source_file_index>
3278

> <i_lp_mmshare_version>
43012

> <i_f3d_flags>
0

> <s_epik_input>
W0NIM11uMVtjSF1jKFtjSF1uMSlbQ0BAXShbQ0gzXSkoW09IXSlbQ0gyXVtOSF1bQ0BASF0yW0NIMl1bQ0gyXVtDSDJdU1tDSDJdMg==

> <s_epik_cmdline>
J2VwaWtfcHl0aG9uJywgJy1waCcsICc3LjAnLCAnLXRuJywgJzgnLCAnLW1hJywgJzIwMCcsICctbWV0YWxfYmluZGluZycsICctaW1hZScsICc8aW5maWxlLm1hZT4nLCAnLW9tYWUnLCAnPG91dGZpbGUubWFlPic=

> <r_lp_tautomer_probability>
1

> <r_epik_Ionization_Penalty>
0.0185703

> <r_epik_Ionization_Penalty_Charging>
0.0185619

> <r_epik_Ionization_Penalty_Neutral>
8.47286e-06

> <r_epik_State_Penalty>
0.0147768

> <r_epik_Charging_Adjusted_Penalty>
0.0333386

> <i_epik_Tot_Q>
1

> <i_epik_Tot_abs_Q>
1

> <r_epik_Metal_State_Penalty>
0.0147782

> <b_epik_Metal_Only>
0

> <s_lp_Force_Field>
OPLS_2005

> <r_lp_Energy>
8.69531

> <b_lp_Chiralities_Consistent>
1

> <s_lp_Variant>
AV-unprocessed.smi:3278-2

> <Gold.Version>
5.8.1

> <Gold.Id.Protein>
6NUR|6NUR_protein|mol2

> <Gold.PLP.Fitness>
51.0998

> <Gold.PLP.PLP>
-40.4676

> <Gold.PLP.part.hbond>
-2.8077

> <Gold.PLP.part.metal>
0.0000

> <Gold.PLP.part.buried>
-1.0395

> <Gold.PLP.part.nonpolar>
-37.0756

> <Gold.PLP.part.repulsive>
0.2110

> <Gold.PLP.ligand.clash>
0.0000

> <Gold.PLP.ligand.torsion>
0.6395

> <Gold.PLP.Chemscore.Hbond>
3.0000

> <Gold.PLP.Chemscore.CHOScore>
0.9621

> <Gold.PLP.Chemscore.Metal>
0.0000

> <Gold.Chemscore.Hbonds>
donor molecule, donor type, donor heavy atom, donor atom, acceptor molecule, acceptor atom, score
      L1  H     7    25       P1  8028  1.00
      L1  H     9    39       P1  8028  1.79
      L1  C    16    38       P1  7957  0.60

> <Gold.PLP.Chemscore.Internal.Correction>
0.0248

> <Gold.Rescore>
     Score         DG    S(hbond)    S(metal)    S(lipo)     H(rot)  DE(clash)    DE(int)     intcor
     18.02     -20.61       1.96        0.00     117.15       2.00       1.41       1.18       ----

> <Gold.Chemscore.Fitness>
18.0241

> <Gold.Chemscore.DG>
-20.6091

> <Gold.Chemscore.ZeroCoef>
-5.4800

> <Gold.Chemscore.Hbond>
1.9618

> <Gold.Chemscore.Metal>
0.0000

> <Gold.Chemscore.Lipo>
117.1487

> <Gold.Chemscore.Internal_Hbond>
0.0000

> <Gold.Chemscore.DEClash>
1.4079

> <Gold.Chemscore.DEInternal>
1.1771

> <Gold.Chemscore.Rot>
2.0038

> <Gold.Chemscore.Internal.Correction>
   9.000000E+99

> <Gold.Chemscore.Hbonds>
donor molecule, donor type, donor heavy atom, donor atom, acceptor molecule, acceptor atom, score
      L1  H     7    25       P1  8028  1.00
      L1  H     9    39       P1  8028  0.86

> <Gold.Chemscore.Hbond.Weighted>
-6.5523

> <Gold.Chemscore.Metal.Weighted>
-0.0000

> <Gold.Chemscore.Lipo.Weighted>
-13.7064

> <Gold.Chemscore.Internal_Hbond.Weighted>
0.0000

> <Gold.Chemscore.DEClash.Weighted>
1.4079

> <Gold.Chemscore.DEInternal.Weighted>
1.1771

> <Gold.Chemscore.Rot.Weighted>
5.1296

> <Gold.Chemscore.Internal.Correction.Weighted>
   9.000000E+99

> <Gold.Protein.RotatedTorsions>
[ 6907 6896 6895 6894 ] final -152.44 input  -60.11 | X-H torsion
[ 7974 7965 7964 7962 ] final -118.17 input  175.53 | X-H torsion
[ 8008 7997 7996 7995 ] final  147.90 input   59.86 | X-H torsion
[ 10167 10162 10161 10158 ] final  -99.55 input  -65.29 | X-H torsion
[ 10718 10713 10712 10709 ] final  -84.93 input   66.30 | X-H torsion
[ 10763 10752 10751 10750 ] final  -73.44 input  -60.55 | X-H torsion
[ 11005 11000 10999 10996 ] final    4.01 input  -57.11 | X-H torsion

> <Gold.Protein.ActiveResidues>
 VAL166  LYS551  ARG553  GLY616  TRP617  ASP618  TYR619  PRO620  LYS621  CYS622 
 ASP623  PHE694  ASN695  SER759  ASP760  ASP761  ALA762  ILE779  LEU786  VAL792 
 PHE793  MET794  SER795  GLU796  ALA797  LYS798  CYS799  TRP800  GLU811  SER814 

> <Gold.Protein.RotatedAtoms>
  151.2279  133.4466  159.2602 H   0  0  0  0  0  0  0  0  0  0  0  0  # atno 6907 bound_to 6896
  151.0822  134.9865  159.8372 H   0  0  0  0  0  0  0  0  0  0  0  0  # atno 6908 bound_to 6896
  152.5425  134.2218  159.8843 H   0  0  0  0  0  0  0  0  0  0  0  0  # atno 6909 bound_to 6896
  145.0769  140.8398  143.4062 H   0  0  0  0  0  0  0  0  0  0  0  0  # atno 7974 bound_to 7965
  156.2809  140.2143  156.5612 H   0  0  0  0  0  0  0  0  0  0  0  0  # atno 8008 bound_to 7997
  154.7212  140.0503  157.0663 H   0  0  0  0  0  0  0  0  0  0  0  0  # atno 8009 bound_to 7997
  155.0477  140.3152  155.4706 H   0  0  0  0  0  0  0  0  0  0  0  0  # atno 8010 bound_to 7997
  140.2613  143.3406  152.0623 H   0  0  0  0  0  0  0  0  0  0  0  0  # atno 10167 bound_to 10162
  156.0001  130.4714  150.4485 H   0  0  0  0  0  0  0  0  0  0  0  0  # atno 10718 bound_to 10713
  154.4595  135.5897  153.6246 H   0  0  0  0  0  0  0  0  0  0  0  0  # atno 10763 bound_to 10752
  152.9822  135.6040  154.3504 H   0  0  0  0  0  0  0  0  0  0  0  0  # atno 10764 bound_to 10752
  154.3374  135.2842  155.2419 H   0  0  0  0  0  0  0  0  0  0  0  0  # atno 10765 bound_to 10752
  140.5867  133.9962  155.8071 H   0  0  0  0  0  0  0  0  0  0  0  0  # atno 11005 bound_to 11000
  145.1225  139.2684  143.5581 LP  0  0  0  0  0  0  0  0  0  0  0  0  # atno 17320 bound_to 7965
  146.3530  140.0853  142.8615 LP  0  0  0  0  0  0  0  0  0  0  0  0  # atno 17321 bound_to 7965
  139.5016  144.6717  151.6227 LP  0  0  0  0  0  0  0  0  0  0  0  0  # atno 17342 bound_to 10162
  140.5964  143.9689  150.6357 LP  0  0  0  0  0  0  0  0  0  0  0  0  # atno 17343 bound_to 10162
  157.2520  131.0548  151.2373 LP  0  0  0  0  0  0  0  0  0  0  0  0  # atno 17370 bound_to 10713
  157.3518  130.7086  149.6446 LP  0  0  0  0  0  0  0  0  0  0  0  0  # atno 17371 bound_to 10713
  141.0961  133.9841  157.3157 LP  0  0  0  0  0  0  0  0  0  0  0  0  # atno 17394 bound_to 11000
  139.9292  135.0200  156.8343 LP  0  0  0  0  0  0  0  0  0  0  0  0  # atno 17395 bound_to 11000

$$$$
