AV-unprocessed.smi:1814|AV-procd|sdf|7348|dock1
  -GOLD-   22720 9 13D 1   1.00000     0.00000
 Structure written by MMmdl.
 31 32  0  0  0  0  0  0  0  0  1 V2000
  151.1013  140.8651  156.3469 O   0  0  0  0  0  0  0  0  0  0  0  0
  150.4031  141.8790  156.3151 C   0  0  0  0  0  0  0  0  0  0  0  0
  150.5225  142.9313  157.1438 N   0  0  0  0  0  0  0  0  0  0  0  0
  151.4350  143.1035  158.2178 C   0  0  0  0  0  0  0  0  0  0  0  0
  151.5602  144.2302  158.9290 N   0  0  0  0  0  0  0  0  0  0  0  0
  152.5374  144.1186  159.9212 C   0  0  0  0  0  0  0  0  0  0  0  0
  153.1495  142.8903  159.9529 C   0  0  0  0  0  0  0  0  0  0  0  0
  152.5206  141.8194  158.7291 S   0  0  0  0  0  0  0  0  0  0  0  0
  149.4138  142.0684  155.4295 N   0  0  0  0  0  0  0  0  0  0  0  0
  149.0148  141.1166  154.3966 C   0  0  2  0  0  0  0  0  0  0  0  0
  147.6323  141.4858  153.8188 C   0  0  0  0  0  0  0  0  0  0  0  0
  147.1647  140.4538  152.7797 C   0  0  0  0  0  0  0  0  0  0  0  0
  147.1544  139.0343  153.3725 C   0  0  1  0  0  0  0  0  0  0  0  0
  146.7902  138.1076  152.3716 O   0  0  0  0  0  0  0  0  0  0  0  0
  148.5343  138.6616  153.9411 C   0  0  0  0  0  0  0  0  0  0  0  0
  148.9996  139.6920  154.9827 C   0  0  0  0  0  0  0  0  0  0  0  0
  149.8815  143.6961  156.9933 H   0  0  0  0  0  0  0  0  0  0  0  0
  152.7338  144.9654  160.5624 H   0  0  0  0  0  0  0  0  0  0  0  0
  153.9297  142.5527  160.6188 H   0  0  0  0  0  0  0  0  0  0  0  0
  148.8935  142.9320  155.4754 H   0  0  0  0  0  0  0  0  0  0  0  0
  149.7511  141.1408  153.5906 H   0  0  0  0  0  0  0  0  0  0  0  0
  146.8987  141.5457  154.6240 H   0  0  0  0  0  0  0  0  0  0  0  0
  147.6665  142.4741  153.3588 H   0  0  0  0  0  0  0  0  0  0  0  0
  146.1696  140.7178  152.4201 H   0  0  0  0  0  0  0  0  0  0  0  0
  147.8273  140.4904  151.9136 H   0  0  0  0  0  0  0  0  0  0  0  0
  146.4090  138.9792  154.1670 H   0  0  0  0  0  0  0  0  0  0  0  0
  147.4083  137.3927  152.3846 H   0  0  0  0  0  0  0  0  0  0  0  0
  148.4986  137.6698  154.3938 H   0  0  0  0  0  0  0  0  0  0  0  0
  149.2670  138.6081  153.1345 H   0  0  0  0  0  0  0  0  0  0  0  0
  149.9938  139.4247  155.3429 H   0  0  0  0  0  0  0  0  0  0  0  0
  148.3364  139.6539  155.8483 H   0  0  0  0  0  0  0  0  0  0  0  0
  1  2  2  0  0  0  0
  2  3  1  0  0  0  0
  2  9  1  0  0  0  0
  3  4  1  0  0  0  0
  3 17  1  0  0  0  0
  4  8  1  0  0  0  0
  4  5  2  0  0  0  0
  5  6  1  0  0  0  0
  6  7  2  0  0  0  0
  6 18  1  0  0  0  0
  7  8  1  0  0  0  0
  7 19  1  0  0  0  0
  9 10  1  0  0  0  0
  9 20  1  0  0  0  0
 10 16  1  0  0  0  0
 10 11  1  0  0  0  0
 10 21  1  0  0  0  0
 11 12  1  0  0  0  0
 11 22  1  0  0  0  0
 11 23  1  0  0  0  0
 12 13  1  0  0  0  0
 12 24  1  0  0  0  0
 12 25  1  0  0  0  0
 13 14  1  0  0  0  0
 13 15  1  0  0  0  0
 13 26  1  0  0  0  0
 14 27  1  0  0  0  0
 15 16  1  0  0  0  0
 15 28  1  0  0  0  0
 15 29  1  0  0  0  0
 16 30  1  0  0  0  0
 16 31  1  0  0  0  0
M  END
> <s_m_source_file>
AV-unprocessed.smi

> <i_m_source_file_index>
1814

> <i_lp_mmshare_version>
43012

> <i_f3d_flags>
0

> <s_epik_input>
czFbY0hdW2NIXW5jMVtOSF1DKD1PKVtOSF1bQ0BASF0yW0NIMl1bQ0gyXVtDQEBIXShbT0hdKVtDSDJdW0NIMl0y

> <s_epik_cmdline>
J2VwaWtfcHl0aG9uJywgJy1waCcsICc3LjAnLCAnLXRuJywgJzgnLCAnLW1hJywgJzIwMCcsICctbWV0YWxfYmluZGluZycsICctaW1hZScsICc8aW5maWxlLm1hZT4nLCAnLW9tYWUnLCAnPG91dGZpbGUubWFlPic=

> <r_lp_tautomer_probability>
0.999

> <r_epik_Ionization_Penalty>
0.000428518

> <r_epik_Ionization_Penalty_Charging>
0

> <r_epik_Ionization_Penalty_Neutral>
0.000428518

> <r_epik_State_Penalty>
0.000177984

> <r_epik_Charging_Adjusted_Penalty>
0.000177984

> <i_epik_Tot_Q>
0

> <i_epik_Tot_abs_Q>
0

> <r_epik_Metal_State_Penalty>
-0

> <b_epik_Metal_Only>
0

> <s_lp_Force_Field>
OPLS_2005

> <r_lp_Energy>
5.88149

> <b_lp_Chiralities_Consistent>
1

> <s_lp_Variant>
AV-unprocessed.smi:1814-1

> <Gold.Version>
5.8.1

> <Gold.Id.Protein>
6NUR|6NUR_protein|mol2

> <Gold.PLP.Fitness>
40.5784

> <Gold.PLP.PLP>
-32.1815

> <Gold.PLP.part.hbond>
-3.0000

> <Gold.PLP.part.metal>
0.0000

> <Gold.PLP.part.buried>
-4.1217

> <Gold.PLP.part.nonpolar>
-26.1310

> <Gold.PLP.part.repulsive>
0.2767

> <Gold.PLP.ligand.clash>
0.0000

> <Gold.PLP.ligand.torsion>
0.2194

> <Gold.PLP.Chemscore.Hbond>
2.9440

> <Gold.PLP.Chemscore.CHOScore>
0.0000

> <Gold.PLP.Chemscore.Metal>
0.0000

> <Gold.Chemscore.Hbonds>
donor molecule, donor type, donor heavy atom, donor atom, acceptor molecule, acceptor atom, score
      L1  H     3    17       P1  8028  0.93
      L1  H     9    20       P1  8028  0.99
      L1  H    14    27       P1  7948  1.00

> <Gold.PLP.Chemscore.Internal.Correction>
0.0036

> <Gold.Rescore>
     Score         DG    S(hbond)    S(metal)    S(lipo)     H(rot)  DE(clash)    DE(int)     intcor
     16.87     -20.02       2.84        0.00      76.13       1.50       0.27       2.88       ----

> <Gold.Chemscore.Fitness>
16.8705

> <Gold.Chemscore.DG>
-20.0186

> <Gold.Chemscore.ZeroCoef>
-5.4800

> <Gold.Chemscore.Hbond>
2.8362

> <Gold.Chemscore.Metal>
0.0000

> <Gold.Chemscore.Lipo>
76.1311

> <Gold.Chemscore.Internal_Hbond>
0.0000

> <Gold.Chemscore.DEClash>
0.2721

> <Gold.Chemscore.DEInternal>
2.8760

> <Gold.Chemscore.Rot>
1.5006

> <Gold.Chemscore.Internal.Correction>
   9.000000E+99

> <Gold.Chemscore.Hbonds>
donor molecule, donor type, donor heavy atom, donor atom, acceptor molecule, acceptor atom, score
      L1  H     3    17       P1  8028  0.87
      L1  H     9    20       P1  8028  0.94
      L1  H    14    27       P1  7948  0.96

> <Gold.Chemscore.Hbond.Weighted>
-9.4728

> <Gold.Chemscore.Metal.Weighted>
-0.0000

> <Gold.Chemscore.Lipo.Weighted>
-8.9073

> <Gold.Chemscore.Internal_Hbond.Weighted>
0.0000

> <Gold.Chemscore.DEClash.Weighted>
0.2721

> <Gold.Chemscore.DEInternal.Weighted>
2.8760

> <Gold.Chemscore.Rot.Weighted>
3.8415

> <Gold.Chemscore.Internal.Correction.Weighted>
   9.000000E+99

> <Gold.Protein.RotatedTorsions>
[ 6907 6896 6895 6894 ] final   12.95 input  -60.11 | X-H torsion
[ 7974 7965 7964 7962 ] final  120.61 input  175.53 | X-H torsion
[ 8008 7997 7996 7995 ] final  -34.07 input   59.86 | X-H torsion
[ 10167 10162 10161 10158 ] final  114.08 input  -65.29 | X-H torsion
[ 10718 10713 10712 10709 ] final  -67.66 input   66.30 | X-H torsion
[ 10763 10752 10751 10750 ] final -138.83 input  -60.55 | X-H torsion
[ 11005 11000 10999 10996 ] final  139.73 input  -57.11 | X-H torsion

> <Gold.Protein.ActiveResidues>
 VAL166  LYS551  ARG553  GLY616  TRP617  ASP618  TYR619  PRO620  LYS621  CYS622 
 ASP623  PHE694  ASN695  SER759  ASP760  ASP761  ALA762  ILE779  LEU786  VAL792 
 PHE793  MET794  SER795  GLU796  ALA797  LYS798  CYS799  TRP800  GLU811  SER814 

> <Gold.Protein.RotatedAtoms>
  151.7786  135.0767  160.0370 H   0  0  0  0  0  0  0  0  0  0  0  0  # atno 6907 bound_to 6896
  152.3239  133.5879  159.5771 H   0  0  0  0  0  0  0  0  0  0  0  0  # atno 6908 bound_to 6896
  150.7385  133.9886  159.3641 H   0  0  0  0  0  0  0  0  0  0  0  0  # atno 6909 bound_to 6896
  145.1291  139.3339  143.4674 H   0  0  0  0  0  0  0  0  0  0  0  0  # atno 7974 bound_to 7965
  154.4131  140.1694  156.1989 H   0  0  0  0  0  0  0  0  0  0  0  0  # atno 8008 bound_to 7997
  155.9540  140.3398  155.6409 H   0  0  0  0  0  0  0  0  0  0  0  0  # atno 8009 bound_to 7997
  155.6833  140.0725  157.2467 H   0  0  0  0  0  0  0  0  0  0  0  0  # atno 8010 bound_to 7997
  139.6415  144.7124  151.2228 H   0  0  0  0  0  0  0  0  0  0  0  0  # atno 10167 bound_to 10162
  156.0546  130.4281  150.1887 H   0  0  0  0  0  0  0  0  0  0  0  0  # atno 10718 bound_to 10713
  154.8626  135.3600  154.5448 H   0  0  0  0  0  0  0  0  0  0  0  0  # atno 10763 bound_to 10752
  153.6068  135.7011  153.5367 H   0  0  0  0  0  0  0  0  0  0  0  0  # atno 10764 bound_to 10752
  153.3243  135.4142  155.1404 H   0  0  0  0  0  0  0  0  0  0  0  0  # atno 10765 bound_to 10752
  140.0275  134.9367  157.0598 H   0  0  0  0  0  0  0  0  0  0  0  0  # atno 11005 bound_to 11000
  146.3515  140.1283  142.8598 LP  0  0  0  0  0  0  0  0  0  0  0  0  # atno 17320 bound_to 7965
  145.0655  140.9118  143.4913 LP  0  0  0  0  0  0  0  0  0  0  0  0  # atno 17321 bound_to 7965
  140.7493  143.6304  150.8428 LP  0  0  0  0  0  0  0  0  0  0  0  0  # atno 17342 bound_to 10162
  139.9942  143.5814  152.2899 LP  0  0  0  0  0  0  0  0  0  0  0  0  # atno 17343 bound_to 10162
  156.9965  130.9909  151.3401 LP  0  0  0  0  0  0  0  0  0  0  0  0  # atno 17370 bound_to 10713
  157.5504  130.8178  149.8137 LP  0  0  0  0  0  0  0  0  0  0  0  0  # atno 17371 bound_to 10713
  140.4281  134.1810  155.7167 LP  0  0  0  0  0  0  0  0  0  0  0  0  # atno 17394 bound_to 11000
  141.1812  133.8410  157.1252 LP  0  0  0  0  0  0  0  0  0  0  0  0  # atno 17395 bound_to 11000

$$$$
