AV-unprocessed.smi:1379|AV-procd|sdf|5599|dock2
  -GOLD-   22720 5203D 1   1.00000     0.00000
 Structure written by MMmdl.
 35 36  0  0  0  0  0  0  0  0  2 V2000
  153.5858  142.2447  162.5157 C   0  0  0  0  0  0  0  0  0  0  0  0
  153.5361  142.2757  161.1002 O   0  0  0  0  0  0  0  0  0  0  0  0
  154.1267  141.1256  160.5129 C   0  0  0  0  0  0  0  0  0  0  0  0
  153.3661  140.7494  159.2401 C   0  0  0  0  0  0  0  0  0  0  0  0
  153.7131  139.7522  158.6092 O   0  0  0  0  0  0  0  0  0  0  0  0
  152.3698  141.5791  158.8759 N   0  0  0  0  0  0  0  0  0  0  0  0
  151.4927  141.4920  157.7604 C   0  0  0  0  0  0  0  0  0  0  0  0
  151.2220  140.2077  157.2409 C   0  0  0  0  0  0  0  0  0  0  0  0
  150.3676  140.0663  156.1283 C   0  0  0  0  0  0  0  0  0  0  0  0
  149.7990  141.2198  155.5404 C   0  0  0  0  0  0  0  0  0  0  0  0
  148.9364  141.1906  154.4356 N   0  0  0  0  0  0  0  0  0  0  0  0
  148.5001  139.8663  154.0253 C   0  0  0  0  0  0  0  0  0  0  0  0
  147.2846  140.0963  153.1235 C   0  0  0  0  0  0  0  0  0  0  0  0
  146.7722  141.4916  153.5003 C   0  0  0  0  0  0  0  0  0  0  0  0
  147.7268  141.9803  154.5927 C   0  0  0  0  0  0  0  0  0  0  0  0
  150.0895  142.4322  156.0596 N   0  3  0  0  0  0  0  0  0  0  0  0
  150.9013  142.6114  157.1242 C   0  0  0  0  0  0  0  0  0  0  0  0
  153.1339  143.1508  162.9187 H   0  0  0  0  0  0  0  0  0  0  0  0
  154.6151  142.1936  162.8734 H   0  0  0  0  0  0  0  0  0  0  0  0
  153.0351  141.3896  162.9100 H   0  0  0  0  0  0  0  0  0  0  0  0
  155.1698  141.3199  160.2586 H   0  0  0  0  0  0  0  0  0  0  0  0
  154.1024  140.2891  161.2134 H   0  0  0  0  0  0  0  0  0  0  0  0
  152.2466  142.3920  159.4625 H   0  0  0  0  0  0  0  0  0  0  0  0
  151.6620  139.3310  157.6938 H   0  0  0  0  0  0  0  0  0  0  0  0
  150.1548  139.0819  155.7374 H   0  0  0  0  0  0  0  0  0  0  0  0
  149.2950  139.3383  153.4976 H   0  0  0  0  0  0  0  0  0  0  0  0
  148.2155  139.2667  154.8907 H   0  0  0  0  0  0  0  0  0  0  0  0
  147.5819  140.0815  152.0741 H   0  0  0  0  0  0  0  0  0  0  0  0
  146.5281  139.3239  153.2650 H   0  0  0  0  0  0  0  0  0  0  0  0
  146.8185  142.1507  152.6325 H   0  0  0  0  0  0  0  0  0  0  0  0
  145.7391  141.4745  153.8491 H   0  0  0  0  0  0  0  0  0  0  0  0
  147.2870  141.8158  155.5774 H   0  0  0  0  0  0  0  0  0  0  0  0
  147.9381  143.0454  154.4923 H   0  0  0  0  0  0  0  0  0  0  0  0
  151.0473  143.6420  157.4093 H   0  0  0  0  0  0  0  0  0  0  0  0
  149.6766  143.2568  155.6228 H   0  0  0  0  0  0  0  0  0  0  0  0
  1  2  1  0  0  0  0
  1 18  1  0  0  0  0
  1 19  1  0  0  0  0
  1 20  1  0  0  0  0
  2  3  1  0  0  0  0
  3  4  1  0  0  0  0
  3 21  1  0  0  0  0
  3 22  1  0  0  0  0
  4  5  2  0  0  0  0
  4  6  1  0  0  0  0
  6  7  1  0  0  0  0
  6 23  1  0  0  0  0
  7 17  1  0  0  0  0
  7  8  2  0  0  0  0
  8  9  1  0  0  0  0
  8 24  1  0  0  0  0
  9 10  2  0  0  0  0
  9 25  1  0  0  0  0
 10 11  1  0  0  0  0
 10 16  1  0  0  0  0
 11 15  1  0  0  0  0
 11 12  1  0  0  0  0
 12 13  1  0  0  0  0
 12 26  1  0  0  0  0
 12 27  1  0  0  0  0
 13 14  1  0  0  0  0
 13 28  1  0  0  0  0
 13 29  1  0  0  0  0
 14 15  1  0  0  0  0
 14 30  1  0  0  0  0
 14 31  1  0  0  0  0
 15 32  1  0  0  0  0
 15 33  1  0  0  0  0
 16 17  2  0  0  0  0
 16 35  1  0  0  0  0
 17 34  1  0  0  0  0
M  CHG  1  16   1
M  END
> <s_m_source_file>
AV-unprocessed.smi

> <i_m_source_file_index>
1379

> <i_lp_mmshare_version>
43012

> <i_f3d_flags>
0

> <s_epik_input>
W0NIM11PW0NIMl1DKD1PKVtOSF1jMVtjSF1bY0hdYyhuW2NIXTEpTjJbQ0gyXVtDSDJdW0NIMl1bQ0gyXTI=

> <s_epik_cmdline>
J2VwaWtfcHl0aG9uJywgJy1waCcsICc3LjAnLCAnLXRuJywgJzgnLCAnLW1hJywgJzIwMCcsICctbWV0YWxfYmluZGluZycsICctaW1hZScsICc8aW5maWxlLm1hZT4nLCAnLW9tYWUnLCAnPG91dGZpbGUubWFlPic=

> <r_lp_tautomer_probability>
0.999994

> <r_epik_Ionization_Penalty>
1.86748

> <r_epik_Ionization_Penalty_Charging>
1.86748

> <r_epik_Ionization_Penalty_Neutral>
2.87909e-06

> <r_epik_State_Penalty>
1.98622

> <r_epik_Charging_Adjusted_Penalty>
3.8537

> <i_epik_Tot_Q>
1

> <i_epik_Tot_abs_Q>
1

> <r_epik_Metal_State_Penalty>
2.01386

> <b_epik_Metal_Only>
0

> <s_lp_Force_Field>
OPLS_2005

> <r_lp_Energy>
42.4744

> <b_lp_Chiralities_Consistent>
1

> <s_lp_Variant>
AV-unprocessed.smi:1379-2

> <Gold.Version>
5.8.1

> <Gold.Id.Protein>
6NUR|6NUR_protein|mol2

> <Gold.PLP.Fitness>
40.1025

> <Gold.PLP.PLP>
-32.2751

> <Gold.PLP.part.hbond>
-2.0000

> <Gold.PLP.part.metal>
0.0000

> <Gold.PLP.part.buried>
-2.2010

> <Gold.PLP.part.nonpolar>
-27.0585

> <Gold.PLP.part.repulsive>
0.3700

> <Gold.PLP.ligand.clash>
0.0000

> <Gold.PLP.ligand.torsion>
0.5959

> <Gold.PLP.Chemscore.Hbond>
3.0000

> <Gold.PLP.Chemscore.CHOScore>
0.0000

> <Gold.PLP.Chemscore.Metal>
0.0000

> <Gold.Chemscore.Hbonds>
donor molecule, donor type, donor heavy atom, donor atom, acceptor molecule, acceptor atom, score
      L1  H    16    35       P1  8028  2.00
      P1  H  7997  8008       L1     5  1.00

> <Gold.PLP.Chemscore.Internal.Correction>
0.0191

> <Gold.Rescore>
     Score         DG    S(hbond)    S(metal)    S(lipo)     H(rot)  DE(clash)    DE(int)     intcor
     15.02     -17.03       1.95        0.00      74.65       1.44       0.20       1.80       ----

> <Gold.Chemscore.Fitness>
15.0218

> <Gold.Chemscore.DG>
-17.0258

> <Gold.Chemscore.ZeroCoef>
-5.4800

> <Gold.Chemscore.Hbond>
1.9475

> <Gold.Chemscore.Metal>
0.0000

> <Gold.Chemscore.Lipo>
74.6550

> <Gold.Chemscore.Internal_Hbond>
0.0000

> <Gold.Chemscore.DEClash>
0.2028

> <Gold.Chemscore.DEInternal>
1.8011

> <Gold.Chemscore.Rot>
1.4428

> <Gold.Chemscore.Internal.Correction>
   9.000000E+99

> <Gold.Chemscore.Hbonds>
donor molecule, donor type, donor heavy atom, donor atom, acceptor molecule, acceptor atom, score
      L1  H    16    35       P1  8028  0.97
      P1  H  7997  8008       L1     5  0.89

> <Gold.Chemscore.Hbond.Weighted>
-6.5048

> <Gold.Chemscore.Metal.Weighted>
-0.0000

> <Gold.Chemscore.Lipo.Weighted>
-8.7346

> <Gold.Chemscore.Internal_Hbond.Weighted>
0.0000

> <Gold.Chemscore.DEClash.Weighted>
0.2028

> <Gold.Chemscore.DEInternal.Weighted>
1.8011

> <Gold.Chemscore.Rot.Weighted>
3.6937

> <Gold.Chemscore.Internal.Correction.Weighted>
   9.000000E+99

> <Gold.Protein.RotatedTorsions>
[ 6907 6896 6895 6894 ] final  150.29 input  -60.11 | X-H torsion
[ 7974 7965 7964 7962 ] final  141.00 input  175.53 | X-H torsion
[ 8008 7997 7996 7995 ] final -111.99 input   59.86 | X-H torsion
[ 10167 10162 10161 10158 ] final   99.70 input  -65.29 | X-H torsion
[ 10718 10713 10712 10709 ] final   40.32 input   66.30 | X-H torsion
[ 10763 10752 10751 10750 ] final  -79.24 input  -60.55 | X-H torsion
[ 11005 11000 10999 10996 ] final   30.14 input  -57.11 | X-H torsion

> <Gold.Protein.ActiveResidues>
 VAL166  LYS551  ARG553  GLY616  TRP617  ASP618  TYR619  PRO620  LYS621  CYS622 
 ASP623  PHE694  ASN695  SER759  ASP760  ASP761  ALA762  ILE779  LEU786  VAL792 
 PHE793  MET794  SER795  GLU796  ALA797  LYS798  CYS799  TRP800  GLU811  SER814 

> <Gold.Protein.RotatedAtoms>
  152.1164  133.4329  159.4654 H   0  0  0  0  0  0  0  0  0  0  0  0  # atno 6907 bound_to 6896
  150.6869  134.2587  159.4549 H   0  0  0  0  0  0  0  0  0  0  0  0  # atno 6908 bound_to 6896
  152.0460  134.9682  160.0625 H   0  0  0  0  0  0  0  0  0  0  0  0  # atno 6909 bound_to 6896
  144.9136  139.5260  143.5697 H   0  0  0  0  0  0  0  0  0  0  0  0  # atno 7974 bound_to 7965
  154.9983  140.0394  157.2349 H   0  0  0  0  0  0  0  0  0  0  0  0  # atno 8008 bound_to 7997
  154.7567  140.2777  155.6225 H   0  0  0  0  0  0  0  0  0  0  0  0  # atno 8009 bound_to 7997
  156.2896  140.2636  156.2334 H   0  0  0  0  0  0  0  0  0  0  0  0  # atno 8010 bound_to 7997
  139.7593  144.6959  151.0315 H   0  0  0  0  0  0  0  0  0  0  0  0  # atno 10167 bound_to 10162
  157.3807  130.7752  149.7191 H   0  0  0  0  0  0  0  0  0  0  0  0  # atno 10718 bound_to 10713
  154.5362  135.5702  153.6800 H   0  0  0  0  0  0  0  0  0  0  0  0  # atno 10763 bound_to 10752
  152.9951  135.6216  154.2563 H   0  0  0  0  0  0  0  0  0  0  0  0  # atno 10764 bound_to 10752
  154.2492  135.2859  155.2803 H   0  0  0  0  0  0  0  0  0  0  0  0  # atno 10765 bound_to 10752
  140.2976  134.2793  155.7761 H   0  0  0  0  0  0  0  0  0  0  0  0  # atno 11005 bound_to 11000
  146.3171  139.7961  142.8975 LP  0  0  0  0  0  0  0  0  0  0  0  0  # atno 17320 bound_to 7965
  145.3413  141.0288  143.3391 LP  0  0  0  0  0  0  0  0  0  0  0  0  # atno 17321 bound_to 7965
  140.7805  143.4715  151.0139 LP  0  0  0  0  0  0  0  0  0  0  0  0  # atno 17342 bound_to 10162
  139.8402  143.7574  152.3180 LP  0  0  0  0  0  0  0  0  0  0  0  0  # atno 17343 bound_to 10162
  155.9775  130.4062  150.3707 LP  0  0  0  0  0  0  0  0  0  0  0  0  # atno 17370 bound_to 10713
  157.1811  131.0392  151.2748 LP  0  0  0  0  0  0  0  0  0  0  0  0  # atno 17371 bound_to 10713
  141.2134  133.7625  156.9718 LP  0  0  0  0  0  0  0  0  0  0  0  0  # atno 17394 bound_to 11000
  140.1139  134.9460  157.2105 LP  0  0  0  0  0  0  0  0  0  0  0  0  # atno 17395 bound_to 11000

$$$$
