AV-unprocessed.smi:1762|AV-procd|sdf|7106|dock8
  -GOLD-   22720 8333D 1   1.00000     0.00000
 Structure written by MMmdl.
 53 54  0  0  0  0  0  0  0  0  2 V2000
  150.3024  140.4504  157.0044 C   0  0  0  0  0  0  0  0  0  0  0  0
  148.8328  140.6385  156.6111 C   0  0  1  0  0  0  0  0  0  0  0  0
  148.1705  141.8101  157.3620 C   0  0  0  0  0  0  0  0  0  0  0  0
  146.7841  142.0562  156.9282 N   0  0  0  0  0  0  0  0  0  0  0  0
  146.1089  143.1783  157.6387 C   0  0  2  0  0  0  0  0  0  0  0  0
  146.5374  143.3132  159.1196 C   0  0  0  0  0  0  0  0  0  0  0  0
  146.0946  142.5412  159.9710 O   0  0  0  0  0  0  0  0  0  0  0  0
  147.4096  144.2926  159.4073 N   0  0  0  0  0  0  0  0  0  0  0  0
  147.9270  144.5870  160.7379 C   0  0  0  0  0  0  0  0  0  0  0  0
  149.1198  145.5562  160.6785 C   0  0  0  0  0  0  0  0  0  0  0  0
  150.3350  144.9309  160.0214 C   0  0  0  0  0  0  0  0  0  0  0  0
  151.3962  144.3823  160.7741 C   0  0  0  0  0  0  0  0  0  0  0  0
  152.4945  143.8085  160.1002 C   0  0  0  0  0  0  0  0  0  0  0  0
  152.5080  143.7938  158.6900 C   0  0  0  0  0  0  0  0  0  0  0  0
  151.4212  144.3545  157.9883 C   0  0  0  0  0  0  0  0  0  0  0  0
  150.3875  144.8956  158.6700 N   0  3  0  0  0  0  0  0  0  0  0  0
  144.5479  143.1971  157.5134 C   0  0  0  0  0  0  0  0  0  0  0  0
  144.0471  143.3149  156.0593 C   0  0  0  0  0  0  0  0  0  0  0  0
  143.8647  144.2555  158.4017 C   0  0  0  0  0  0  0  0  0  0  0  0
  146.7760  142.2161  155.4688 C   0  0  0  0  0  0  0  0  0  0  0  0
  147.4462  141.0387  154.7350 C   0  0  1  0  0  0  0  0  0  0  0  0
  147.5018  141.2539  153.2183 C   0  0  0  0  0  0  0  0  0  0  0  0
  148.7769  140.8874  155.2122 O   0  0  0  0  0  0  0  0  0  0  0  0
  150.4002  140.2406  158.0697 H   0  0  0  0  0  0  0  0  0  0  0  0
  150.8879  141.3432  156.7831 H   0  0  0  0  0  0  0  0  0  0  0  0
  150.7475  139.6172  156.4602 H   0  0  0  0  0  0  0  0  0  0  0  0
  148.2935  139.7149  156.8288 H   0  0  0  0  0  0  0  0  0  0  0  0
  148.2172  141.5677  158.4230 H   0  0  0  0  0  0  0  0  0  0  0  0
  148.7645  142.7152  157.2223 H   0  0  0  0  0  0  0  0  0  0  0  0
  146.4495  144.0965  157.1551 H   0  0  0  0  0  0  0  0  0  0  0  0
  147.7324  144.8766  158.6492 H   0  0  0  0  0  0  0  0  0  0  0  0
  147.1324  144.9959  161.3648 H   0  0  0  0  0  0  0  0  0  0  0  0
  148.2312  143.6460  161.1968 H   0  0  0  0  0  0  0  0  0  0  0  0
  148.8432  146.4569  160.1283 H   0  0  0  0  0  0  0  0  0  0  0  0
  149.3921  145.8835  161.6830 H   0  0  0  0  0  0  0  0  0  0  0  0
  151.3701  144.3986  161.8543 H   0  0  0  0  0  0  0  0  0  0  0  0
  153.3163  143.3840  160.6585 H   0  0  0  0  0  0  0  0  0  0  0  0
  153.3396  143.3584  158.1552 H   0  0  0  0  0  0  0  0  0  0  0  0
  151.3482  144.3864  156.9109 H   0  0  0  0  0  0  0  0  0  0  0  0
  144.1785  142.2257  157.8376 H   0  0  0  0  0  0  0  0  0  0  0  0
  144.2459  144.2992  155.6339 H   0  0  0  0  0  0  0  0  0  0  0  0
  142.9701  143.1534  156.0063 H   0  0  0  0  0  0  0  0  0  0  0  0
  144.5195  142.5701  155.4185 H   0  0  0  0  0  0  0  0  0  0  0  0
  144.1073  145.2701  158.0869 H   0  0  0  0  0  0  0  0  0  0  0  0
  144.1573  144.1520  159.4467 H   0  0  0  0  0  0  0  0  0  0  0  0
  142.7800  144.1540  158.3598 H   0  0  0  0  0  0  0  0  0  0  0  0
  145.7569  142.2798  155.0931 H   0  0  0  0  0  0  0  0  0  0  0  0
  147.2726  143.1487  155.1949 H   0  0  0  0  0  0  0  0  0  0  0  0
  146.8909  140.1207  154.9359 H   0  0  0  0  0  0  0  0  0  0  0  0
  146.5007  141.3613  152.8000 H   0  0  0  0  0  0  0  0  0  0  0  0
  147.9795  140.4087  152.7225 H   0  0  0  0  0  0  0  0  0  0  0  0
  148.0680  142.1512  152.9671 H   0  0  0  0  0  0  0  0  0  0  0  0
  149.6119  145.2960  158.1415 H   0  0  0  0  0  0  0  0  0  0  0  0
  1  2  1  0  0  0  0
  1 24  1  0  0  0  0
  1 25  1  0  0  0  0
  1 26  1  0  0  0  0
  2 23  1  0  0  0  0
  2  3  1  0  0  0  0
  2 27  1  0  0  0  0
  3  4  1  0  0  0  0
  3 28  1  0  0  0  0
  3 29  1  0  0  0  0
  4  5  1  0  0  0  0
  4 20  1  0  0  0  0
  5  6  1  0  0  0  0
  5 17  1  0  0  0  0
  5 30  1  0  0  0  0
  6  7  2  0  0  0  0
  6  8  1  0  0  0  0
  8  9  1  0  0  0  0
  8 31  1  0  0  0  0
  9 10  1  0  0  0  0
  9 32  1  0  0  0  0
  9 33  1  0  0  0  0
 10 11  1  0  0  0  0
 10 34  1  0  0  0  0
 10 35  1  0  0  0  0
 11 16  1  0  0  0  0
 11 12  2  0  0  0  0
 12 13  1  0  0  0  0
 12 36  1  0  0  0  0
 13 14  2  0  0  0  0
 13 37  1  0  0  0  0
 14 15  1  0  0  0  0
 14 38  1  0  0  0  0
 15 16  2  0  0  0  0
 15 39  1  0  0  0  0
 16 53  1  0  0  0  0
 17 18  1  0  0  0  0
 17 19  1  0  0  0  0
 17 40  1  0  0  0  0
 18 41  1  0  0  0  0
 18 42  1  0  0  0  0
 18 43  1  0  0  0  0
 19 44  1  0  0  0  0
 19 45  1  0  0  0  0
 19 46  1  0  0  0  0
 20 21  1  0  0  0  0
 20 47  1  0  0  0  0
 20 48  1  0  0  0  0
 21 22  1  0  0  0  0
 21 23  1  0  0  0  0
 21 49  1  0  0  0  0
 22 50  1  0  0  0  0
 22 51  1  0  0  0  0
 22 52  1  0  0  0  0
M  CHG  1  16   1
M  END
> <s_m_source_file>
AV-unprocessed.smi

> <i_m_source_file_index>
1762

> <i_lp_mmshare_version>
43012

> <i_f3d_flags>
0

> <s_epik_input>
W0NIM11bQ0BASF0xW0NIMl1OKFtDSDJdW0NASF0oTzEpW0NIM10pW0NAQEhdKFtDSF0oW0NIM10pW0NIM10pQyg9TylbTkhdW0NIMl1bQ0gyXWMyW2NIXVtjSF1bY0hdW2NIXW4y

> <s_epik_cmdline>
J2VwaWtfcHl0aG9uJywgJy1waCcsICc3LjAnLCAnLXRuJywgJzgnLCAnLW1hJywgJzIwMCcsICctbWV0YWxfYmluZGluZycsICctaW1hZScsICc8aW5maWxlLm1hZT4nLCAnLW9tYWUnLCAnPG91dGZpbGUubWFlPic=

> <r_epik_Ionization_Penalty>
1.86475

> <r_epik_Ionization_Penalty_Charging>
1.85347

> <r_epik_Ionization_Penalty_Neutral>
0.0112771

> <r_epik_State_Penalty>
1.99714

> <r_epik_Charging_Adjusted_Penalty>
3.85061

> <i_epik_Tot_Q>
1

> <i_epik_Tot_abs_Q>
1

> <r_epik_Metal_State_Penalty>
2.02271

> <b_epik_Metal_Only>
0

> <s_lp_Force_Field>
OPLS_2005

> <r_lp_Energy>
32.9979

> <b_lp_Chiralities_Consistent>
1

> <s_lp_Variant>
AV-unprocessed.smi:1762-8

> <Gold.Version>
5.8.1

> <Gold.Id.Protein>
6NUR|6NUR_protein|mol2

> <Gold.PLP.Fitness>
46.4834

> <Gold.PLP.PLP>
-36.4171

> <Gold.PLP.part.hbond>
-3.2598

> <Gold.PLP.part.metal>
0.0000

> <Gold.PLP.part.buried>
-4.4951

> <Gold.PLP.part.nonpolar>
-30.0065

> <Gold.PLP.part.repulsive>
0.5185

> <Gold.PLP.ligand.clash>
0.0000

> <Gold.PLP.ligand.torsion>
1.1240

> <Gold.PLP.Chemscore.Hbond>
4.0000

> <Gold.PLP.Chemscore.CHOScore>
0.0000

> <Gold.PLP.Chemscore.Metal>
0.0000

> <Gold.Chemscore.Hbonds>
donor molecule, donor type, donor heavy atom, donor atom, acceptor molecule, acceptor atom, score
      L1  H     8    31       P1  8029  1.00
      L1  H    16    53       P1  8029  2.00
      P1  H  6934  6946       L1     7  1.00

> <Gold.PLP.Chemscore.Internal.Correction>
0.3144

> <Gold.Rescore>
     Score         DG    S(hbond)    S(metal)    S(lipo)     H(rot)  DE(clash)    DE(int)     intcor
     19.99     -22.33       2.81        0.00     101.28       1.72       0.17       2.17       ----

> <Gold.Chemscore.Fitness>
19.9904

> <Gold.Chemscore.DG>
-22.3325

> <Gold.Chemscore.ZeroCoef>
-5.4800

> <Gold.Chemscore.Hbond>
2.8140

> <Gold.Chemscore.Metal>
0.0000

> <Gold.Chemscore.Lipo>
101.2845

> <Gold.Chemscore.Internal_Hbond>
0.0000

> <Gold.Chemscore.DEClash>
0.1722

> <Gold.Chemscore.DEInternal>
2.1700

> <Gold.Chemscore.Rot>
1.7174

> <Gold.Chemscore.Internal.Correction>
   9.000000E+99

> <Gold.Chemscore.Hbonds>
donor molecule, donor type, donor heavy atom, donor atom, acceptor molecule, acceptor atom, score
      L1  H     8    31       P1  8029  1.00
      L1  H    16    53       P1  8029  0.33
      P1  H  6934  6946       L1     7  0.95

> <Gold.Chemscore.Hbond.Weighted>
-9.3988

> <Gold.Chemscore.Metal.Weighted>
-0.0000

> <Gold.Chemscore.Lipo.Weighted>
-11.8503

> <Gold.Chemscore.Internal_Hbond.Weighted>
0.0000

> <Gold.Chemscore.DEClash.Weighted>
0.1722

> <Gold.Chemscore.DEInternal.Weighted>
2.1700

> <Gold.Chemscore.Rot.Weighted>
4.3966

> <Gold.Chemscore.Internal.Correction.Weighted>
   9.000000E+99

> <Gold.Protein.RotatedTorsions>
[ 6907 6896 6895 6894 ] final -148.36 input  -60.11 | X-H torsion
[ 7974 7965 7964 7962 ] final  112.64 input  175.53 | X-H torsion
[ 8008 7997 7996 7995 ] final  135.60 input   59.86 | X-H torsion
[ 10167 10162 10161 10158 ] final  -11.38 input  -65.29 | X-H torsion
[ 10718 10713 10712 10709 ] final    0.03 input   66.30 | X-H torsion
[ 10763 10752 10751 10750 ] final  -48.65 input  -60.55 | X-H torsion
[ 11005 11000 10999 10996 ] final  179.34 input  -57.11 | X-H torsion

> <Gold.Protein.ActiveResidues>
 VAL166  LYS551  ARG553  GLY616  TRP617  ASP618  TYR619  PRO620  LYS621  CYS622 
 ASP623  PHE694  ASN695  SER759  ASP760  ASP761  ALA762  ILE779  LEU786  VAL792 
 PHE793  MET794  SER795  GLU796  ALA797  LYS798  CYS799  TRP800  GLU811  SER814 

> <Gold.Protein.RotatedAtoms>
  151.1687  133.4798  159.2593 H   0  0  0  0  0  0  0  0  0  0  0  0  # atno 6907 bound_to 6896
  151.1379  135.0164  159.8622 H   0  0  0  0  0  0  0  0  0  0  0  0  # atno 6908 bound_to 6896
  152.5462  134.1583  159.8600 H   0  0  0  0  0  0  0  0  0  0  0  0  # atno 6909 bound_to 6896
  145.2270  139.2836  143.4188 H   0  0  0  0  0  0  0  0  0  0  0  0  # atno 7974 bound_to 7965
  156.3003  140.2466  156.3607 H   0  0  0  0  0  0  0  0  0  0  0  0  # atno 8008 bound_to 7997
  154.8879  140.0410  157.1841 H   0  0  0  0  0  0  0  0  0  0  0  0  # atno 8009 bound_to 7997
  154.8627  140.2923  155.5533 H   0  0  0  0  0  0  0  0  0  0  0  0  # atno 8010 bound_to 7997
  140.7137  143.5645  150.9159 H   0  0  0  0  0  0  0  0  0  0  0  0  # atno 10167 bound_to 10162
  156.8273  130.5476  149.5690 H   0  0  0  0  0  0  0  0  0  0  0  0  # atno 10718 bound_to 10713
  154.0812  135.6591  153.4838 H   0  0  0  0  0  0  0  0  0  0  0  0  # atno 10763 bound_to 10752
  153.0355  135.5180  154.7471 H   0  0  0  0  0  0  0  0  0  0  0  0  # atno 10764 bound_to 10752
  154.6567  135.3009  154.9887 H   0  0  0  0  0  0  0  0  0  0  0  0  # atno 10765 bound_to 10752
  140.4051  134.6742  157.4583 H   0  0  0  0  0  0  0  0  0  0  0  0  # atno 11005 bound_to 11000
  146.3362  140.2593  142.8601 LP  0  0  0  0  0  0  0  0  0  0  0  0  # atno 17320 bound_to 7965
  144.9712  140.8370  143.5454 LP  0  0  0  0  0  0  0  0  0  0  0  0  # atno 17321 bound_to 7965
  139.9371  143.6425  152.3062 LP  0  0  0  0  0  0  0  0  0  0  0  0  # atno 17342 bound_to 10162
  139.6897  144.7648  151.1461 LP  0  0  0  0  0  0  0  0  0  0  0  0  # atno 17343 bound_to 10162
  156.0954  130.5928  150.9805 LP  0  0  0  0  0  0  0  0  0  0  0  0  # atno 17370 bound_to 10713
  157.6425  131.0908  150.8221 LP  0  0  0  0  0  0  0  0  0  0  0  0  # atno 17371 bound_to 10713
  140.0308  134.6409  155.9110 LP  0  0  0  0  0  0  0  0  0  0  0  0  # atno 17394 bound_to 11000
  141.1842  133.6552  156.5148 LP  0  0  0  0  0  0  0  0  0  0  0  0  # atno 17395 bound_to 11000

$$$$
