AV-unprocessed.smi:1586|AV-procd|sdf|6380|dock1
  -GOLD-   22720 7 13D 1   1.00000     0.00000
 Structure written by MMmdl.
 46 47  0  0  0  0  0  0  0  0  3 V2000
  152.1631  144.2329  158.0213 C   0  0  0  0  0  0  0  0  0  0  0  0
  150.8472  143.7639  158.6581 C   0  0  0  0  0  0  0  0  0  0  0  0
  149.9285  143.1377  157.6754 N   0  3  0  0  0  0  0  0  0  0  0  0
  148.5913  142.8566  158.2530 C   0  0  0  0  0  0  0  0  0  0  0  0
  147.6537  142.2570  157.1841 C   0  0  0  0  0  0  0  0  0  0  0  0
  148.1923  141.0119  156.6208 N   0  0  0  0  0  0  0  0  0  0  0  0
  148.2180  139.8582  157.5468 C   0  0  1  0  0  0  0  0  0  0  0  0
  146.7967  139.3078  157.7939 C   0  0  0  0  0  0  0  0  0  0  0  0
  149.1361  138.7194  157.0394 C   0  0  0  0  0  0  0  0  0  0  0  0
  148.9711  137.4979  157.8200 N   0  0  0  0  0  0  0  0  0  0  0  0
  149.6743  137.1783  158.9138 C   0  0  0  0  0  0  0  0  0  0  0  0
  150.5404  137.9498  159.3324 O   0  0  0  0  0  0  0  0  0  0  0  0
  149.3290  135.9870  159.4535 N   0  5  0  0  0  0  0  0  0  0  0  0
  148.4604  135.9333  160.4750 C   0  0  0  0  0  0  0  0  0  0  0  0
  147.9054  134.7519  161.0381 C   0  0  0  0  0  0  0  0  0  0  0  0
  147.1111  135.2275  162.0424 C   0  0  0  0  0  0  0  0  0  0  0  0
  146.2313  134.5559  163.0409 C   0  0  0  0  0  0  0  0  0  0  0  0
  147.1808  136.5848  162.0964 O   0  0  0  0  0  0  0  0  0  0  0  0
  148.0507  137.0284  161.0931 N   0  0  0  0  0  0  0  0  0  0  0  0
  149.4822  141.3504  156.0039 C   0  0  0  0  0  0  0  0  0  0  0  0
  150.4811  141.9176  157.0342 C   0  0  0  0  0  0  0  0  0  0  0  0
  152.7699  144.7701  158.7506 H   0  0  0  0  0  0  0  0  0  0  0  0
  151.9794  144.9085  157.1852 H   0  0  0  0  0  0  0  0  0  0  0  0
  152.7620  143.3988  157.6565 H   0  0  0  0  0  0  0  0  0  0  0  0
  151.0423  143.0744  159.4808 H   0  0  0  0  0  0  0  0  0  0  0  0
  150.3585  144.6360  159.0946 H   0  0  0  0  0  0  0  0  0  0  0  0
  148.6826  142.1949  159.1151 H   0  0  0  0  0  0  0  0  0  0  0  0
  148.1580  143.7871  158.6214 H   0  0  0  0  0  0  0  0  0  0  0  0
  146.6543  142.1076  157.5889 H   0  0  0  0  0  0  0  0  0  0  0  0
  147.5265  142.9762  156.3737 H   0  0  0  0  0  0  0  0  0  0  0  0
  148.6125  140.1773  158.5105 H   0  0  0  0  0  0  0  0  0  0  0  0
  146.8334  138.3749  158.3568 H   0  0  0  0  0  0  0  0  0  0  0  0
  146.2753  139.1041  156.8579 H   0  0  0  0  0  0  0  0  0  0  0  0
  146.1864  139.9929  158.3812 H   0  0  0  0  0  0  0  0  0  0  0  0
  148.9645  138.5112  155.9833 H   0  0  0  0  0  0  0  0  0  0  0  0
  150.1781  139.0366  157.1043 H   0  0  0  0  0  0  0  0  0  0  0  0
  148.2730  136.8411  157.5031 H   0  0  0  0  0  0  0  0  0  0  0  0
  148.0631  133.7240  160.7488 H   0  0  0  0  0  0  0  0  0  0  0  0
  146.8218  133.9472  163.7257 H   0  0  0  0  0  0  0  0  0  0  0  0
  145.5113  133.9056  162.5441 H   0  0  0  0  0  0  0  0  0  0  0  0
  145.6761  135.2857  163.6307 H   0  0  0  0  0  0  0  0  0  0  0  0
  149.9093  140.4944  155.4844 H   0  0  0  0  0  0  0  0  0  0  0  0
  149.3086  142.0940  155.2248 H   0  0  0  0  0  0  0  0  0  0  0  0
  151.4092  142.1600  156.5181 H   0  0  0  0  0  0  0  0  0  0  0  0
  150.7332  141.1726  157.7900 H   0  0  0  0  0  0  0  0  0  0  0  0
  149.7797  143.8135  156.9396 H   0  0  0  0  0  0  0  0  0  0  0  0
  1  2  1  0  0  0  0
  1 22  1  0  0  0  0
  1 23  1  0  0  0  0
  1 24  1  0  0  0  0
  2  3  1  0  0  0  0
  2 25  1  0  0  0  0
  2 26  1  0  0  0  0
  3 21  1  0  0  0  0
  3  4  1  0  0  0  0
  3 46  1  0  0  0  0
  4  5  1  0  0  0  0
  4 27  1  0  0  0  0
  4 28  1  0  0  0  0
  5  6  1  0  0  0  0
  5 29  1  0  0  0  0
  5 30  1  0  0  0  0
  6  7  1  0  0  0  0
  6 20  1  0  0  0  0
  7  8  1  0  0  0  0
  7  9  1  0  0  0  0
  7 31  1  0  0  0  0
  8 32  1  0  0  0  0
  8 33  1  0  0  0  0
  8 34  1  0  0  0  0
  9 10  1  0  0  0  0
  9 35  1  0  0  0  0
  9 36  1  0  0  0  0
 10 11  1  0  0  0  0
 10 37  1  0  0  0  0
 11 12  2  0  0  0  0
 11 13  1  0  0  0  0
 13 14  1  0  0  0  0
 14 19  2  0  0  0  0
 14 15  1  0  0  0  0
 15 16  2  0  0  0  0
 15 38  1  0  0  0  0
 16 17  1  0  0  0  0
 16 18  1  0  0  0  0
 17 39  1  0  0  0  0
 17 40  1  0  0  0  0
 17 41  1  0  0  0  0
 18 19  1  0  0  0  0
 20 21  1  0  0  0  0
 20 42  1  0  0  0  0
 20 43  1  0  0  0  0
 21 44  1  0  0  0  0
 21 45  1  0  0  0  0
M  CHG  1   3   1
M  CHG  1  13  -1
M  END
> <s_m_source_file>
AV-unprocessed.smi

> <i_m_source_file_index>
1586

> <i_lp_mmshare_version>
43012

> <i_f3d_flags>
0

> <s_epik_input>
W0NIM11bQ0gyXU4xW0NIMl1bQ0gyXU4oW0NIMl1bQ0gyXTEpW0NASF0oW0NIM10pW0NIMl1bTkhdQyg9TylbTkhdYzJbY0hdYyhbQ0gzXSlvbjI=

> <s_epik_cmdline>
J2VwaWtfcHl0aG9uJywgJy1waCcsICc3LjAnLCAnLXRuJywgJzgnLCAnLW1hJywgJzIwMCcsICctbWV0YWxfYmluZGluZycsICctaW1hZScsICc8aW5maWxlLm1hZT4nLCAnLW9tYWUnLCAnPG91dGZpbGUubWFlPic=

> <r_epik_Ionization_Penalty>
6.66134

> <r_epik_Ionization_Penalty_Charging>
6.66063

> <r_epik_Ionization_Penalty_Neutral>
0.000714131

> <r_epik_State_Penalty>
6.77843

> <r_epik_Charging_Adjusted_Penalty>
13.4391

> <i_epik_Tot_Q>
0

> <i_epik_Tot_abs_Q>
2

> <r_epik_Metal_State_Penalty>
2.70494

> <b_epik_Metal_Only>
1

> <s_lp_Force_Field>
OPLS_2005

> <r_lp_Energy>
15.0096

> <b_lp_Chiralities_Consistent>
1

> <s_lp_Variant>
AV-unprocessed.smi:1586-8

> <Gold.Version>
5.8.1

> <Gold.Id.Protein>
6NUR|6NUR_protein|mol2

> <Gold.PLP.Fitness>
45.9261

> <Gold.PLP.PLP>
-31.4044

> <Gold.PLP.part.hbond>
-5.0072

> <Gold.PLP.part.metal>
0.0000

> <Gold.PLP.part.buried>
-3.8148

> <Gold.PLP.part.nonpolar>
-23.4757

> <Gold.PLP.part.repulsive>
0.1622

> <Gold.PLP.ligand.clash>
0.0000

> <Gold.PLP.ligand.torsion>
1.3168

> <Gold.PLP.Chemscore.Hbond>
5.6739

> <Gold.PLP.Chemscore.CHOScore>
0.0000

> <Gold.PLP.Chemscore.Metal>
0.0000

> <Gold.Chemscore.Hbonds>
donor molecule, donor type, donor heavy atom, donor atom, acceptor molecule, acceptor atom, score
      L1  H     3    46       P1  8028  2.00
      P1  H  6896  6908       L1    13  2.00
      P1  H  6931  6943       L1    19  1.00
      P1  H  6934  6947       L1    19  0.37

> <Gold.PLP.Chemscore.Internal.Correction>
0.1337

> <Gold.Rescore>
     Score         DG    S(hbond)    S(metal)    S(lipo)     H(rot)  DE(clash)    DE(int)     intcor
     15.99     -17.51       2.61        0.00      66.14       1.73       0.07       1.45       ----

> <Gold.Chemscore.Fitness>
15.9921

> <Gold.Chemscore.DG>
-17.5105

> <Gold.Chemscore.ZeroCoef>
-5.4800

> <Gold.Chemscore.Hbond>
2.6073

> <Gold.Chemscore.Metal>
0.0000

> <Gold.Chemscore.Lipo>
66.1387

> <Gold.Chemscore.Internal_Hbond>
0.0000

> <Gold.Chemscore.DEClash>
0.0716

> <Gold.Chemscore.DEInternal>
1.4469

> <Gold.Chemscore.Rot>
1.7250

> <Gold.Chemscore.Internal.Correction>
   9.000000E+99

> <Gold.Chemscore.Hbonds>
donor molecule, donor type, donor heavy atom, donor atom, acceptor molecule, acceptor atom, score
      L1  H     3    46       P1  8028  0.95
      P1  H  6896  6908       L1    13  0.76
      P1  H  6931  6943       L1    19  0.43
      P1  H  6934  6947       L1    19  0.06

> <Gold.Chemscore.Hbond.Weighted>
-8.7084

> <Gold.Chemscore.Metal.Weighted>
-0.0000

> <Gold.Chemscore.Lipo.Weighted>
-7.7382

> <Gold.Chemscore.Internal_Hbond.Weighted>
0.0000

> <Gold.Chemscore.DEClash.Weighted>
0.0716

> <Gold.Chemscore.DEInternal.Weighted>
1.4469

> <Gold.Chemscore.Rot.Weighted>
4.4161

> <Gold.Chemscore.Internal.Correction.Weighted>
   9.000000E+99

> <Gold.Protein.RotatedTorsions>
[ 6907 6896 6895 6894 ] final  169.81 input  -60.11 | X-H torsion
[ 7974 7965 7964 7962 ] final -118.04 input  175.53 | X-H torsion
[ 8008 7997 7996 7995 ] final  129.27 input   59.86 | X-H torsion
[ 10167 10162 10161 10158 ] final   63.69 input  -65.29 | X-H torsion
[ 10718 10713 10712 10709 ] final  -37.31 input   66.30 | X-H torsion
[ 10763 10752 10751 10750 ] final  175.93 input  -60.55 | X-H torsion
[ 11005 11000 10999 10996 ] final  -88.25 input  -57.11 | X-H torsion

> <Gold.Protein.ActiveResidues>
 VAL166  LYS551  ARG553  GLY616  TRP617  ASP618  TYR619  PRO620  LYS621  CYS622 
 ASP623  PHE694  ASN695  SER759  ASP760  ASP761  ALA762  ILE779  LEU786  VAL792 
 PHE793  MET794  SER795  GLU796  ALA797  LYS798  CYS799  TRP800  GLU811  SER814 

> <Gold.Protein.RotatedAtoms>
  151.8260  133.3401  159.3598 H   0  0  0  0  0  0  0  0  0  0  0  0  # atno 6907 bound_to 6896
  150.7279  134.5528  159.5813 H   0  0  0  0  0  0  0  0  0  0  0  0  # atno 6908 bound_to 6896
  152.2971  134.7655  160.0417 H   0  0  0  0  0  0  0  0  0  0  0  0  # atno 6909 bound_to 6896
  145.0783  140.8408  143.4054 H   0  0  0  0  0  0  0  0  0  0  0  0  # atno 7974 bound_to 7965
  156.2933  140.2624  156.2572 H   0  0  0  0  0  0  0  0  0  0  0  0  # atno 8008 bound_to 7997
  154.9824  140.0389  157.2302 H   0  0  0  0  0  0  0  0  0  0  0  0  # atno 8009 bound_to 7997
  154.7759  140.2786  155.6106 H   0  0  0  0  0  0  0  0  0  0  0  0  # atno 8010 bound_to 7997
  140.1303  144.4649  150.6869 H   0  0  0  0  0  0  0  0  0  0  0  0  # atno 10167 bound_to 10162
  156.3167  130.4260  149.7998 H   0  0  0  0  0  0  0  0  0  0  0  0  # atno 10718 bound_to 10713
  154.4743  135.2772  155.1619 H   0  0  0  0  0  0  0  0  0  0  0  0  # atno 10763 bound_to 10752
  154.3355  135.6181  153.5575 H   0  0  0  0  0  0  0  0  0  0  0  0  # atno 10764 bound_to 10752
  152.9868  135.5776  154.5131 H   0  0  0  0  0  0  0  0  0  0  0  0  # atno 10765 bound_to 10752
  141.1604  133.7559  156.9424 H   0  0  0  0  0  0  0  0  0  0  0  0  # atno 11005 bound_to 11000
  145.1208  139.2695  143.5589 LP  0  0  0  0  0  0  0  0  0  0  0  0  # atno 17320 bound_to 7965
  146.3530  140.0832  142.8616 LP  0  0  0  0  0  0  0  0  0  0  0  0  # atno 17321 bound_to 7965
  140.6821  143.2332  151.5357 LP  0  0  0  0  0  0  0  0  0  0  0  0  # atno 17342 bound_to 10162
  139.5523  144.2364  152.1552 LP  0  0  0  0  0  0  0  0  0  0  0  0  # atno 17343 bound_to 10162
  156.5321  130.8262  151.3240 LP  0  0  0  0  0  0  0  0  0  0  0  0  # atno 17370 bound_to 10713
  157.7403  130.9848  150.2369 LP  0  0  0  0  0  0  0  0  0  0  0  0  # atno 17371 bound_to 10713
  140.1312  134.9354  157.2340 LP  0  0  0  0  0  0  0  0  0  0  0  0  # atno 17394 bound_to 11000
  140.2950  134.3197  155.7305 LP  0  0  0  0  0  0  0  0  0  0  0  0  # atno 17395 bound_to 11000

$$$$
