AV-unprocessed.smi:3330|AV-procd|sdf|12813|dock9
  -GOLD-   2272019183D 1   1.00000     0.00000
 Structure written by MMmdl.
 37 38  0  0  0  0  0  0  0  0  2 V2000
  153.9744  141.6470  159.5960 C   0  0  0  0  0  0  0  0  0  0  0  0
  152.5357  141.1118  159.4528 C   0  0  2  0  0  0  0  0  0  0  0  0
  152.5394  140.0265  158.4754 N   0  0  0  0  0  0  0  0  0  0  0  0
  151.4051  139.1303  158.6376 C   0  0  0  0  0  0  0  0  0  0  0  0
  150.4372  139.3180  157.4599 C   0  0  0  0  0  0  0  0  0  0  0  0
  150.8530  138.5177  156.3047 N   0  0  0  0  0  0  0  0  0  0  0  0
  151.0281  139.0086  155.0740 C   0  0  0  0  0  0  0  0  0  0  0  0
  150.8701  140.1685  154.6916 O   0  0  0  0  0  0  0  0  0  0  0  0
  151.4785  137.8692  154.1895 C   0  0  0  0  0  0  0  0  0  0  0  0
  151.5203  136.7585  155.1136 N   0  5  0  0  0  0  0  0  0  0  0  0
  151.1473  137.2037  156.3366 C   0  0  0  0  0  0  0  0  0  0  0  0
  151.0751  136.5391  157.3700 O   0  0  0  0  0  0  0  0  0  0  0  0
  151.5280  142.1969  158.9843 C   0  0  2  0  0  0  0  0  0  0  0  0
  151.4824  142.3647  157.4530 C   0  0  0  0  0  0  0  0  0  0  0  0
  151.8039  143.4834  159.6171 N   0  0  0  0  0  0  0  0  0  0  0  0
  152.0437  144.6978  159.0071 C   0  0  0  0  0  0  0  0  0  0  0  0
  152.2240  145.6239  159.9941 C   0  0  0  0  0  0  0  0  0  0  0  0
  152.0676  144.8741  161.1927 C   0  0  0  0  0  0  0  0  0  0  0  0
  151.8174  143.5952  160.9654 N   0  0  0  0  0  0  0  0  0  0  0  0
  154.0410  142.4039  160.3770 H   0  0  0  0  0  0  0  0  0  0  0  0
  154.3258  142.0954  158.6662 H   0  0  0  0  0  0  0  0  0  0  0  0
  154.6767  140.8601  159.8699 H   0  0  0  0  0  0  0  0  0  0  0  0
  152.1997  140.7270  160.4170 H   0  0  0  0  0  0  0  0  0  0  0  0
  153.4071  139.5119  158.5236 H   0  0  0  0  0  0  0  0  0  0  0  0
  151.7430  138.0951  158.6820 H   0  0  0  0  0  0  0  0  0  0  0  0
  150.8953  139.3508  159.5767 H   0  0  0  0  0  0  0  0  0  0  0  0
  149.4249  139.0394  157.7586 H   0  0  0  0  0  0  0  0  0  0  0  0
  150.3835  140.3721  157.1818 H   0  0  0  0  0  0  0  0  0  0  0  0
  150.7660  137.7262  153.3766 H   0  0  0  0  0  0  0  0  0  0  0  0
  152.4494  138.1019  153.7508 H   0  0  0  0  0  0  0  0  0  0  0  0
  150.5286  141.8955  159.3027 H   0  0  0  0  0  0  0  0  0  0  0  0
  151.0956  141.4722  156.9621 H   0  0  0  0  0  0  0  0  0  0  0  0
  152.4713  142.5704  157.0421 H   0  0  0  0  0  0  0  0  0  0  0  0
  150.8275  143.1899  157.1710 H   0  0  0  0  0  0  0  0  0  0  0  0
  152.0614  144.8012  157.9322 H   0  0  0  0  0  0  0  0  0  0  0  0
  152.4300  146.6774  159.8773 H   0  0  0  0  0  0  0  0  0  0  0  0
  152.1274  145.2189  162.2145 H   0  0  0  0  0  0  0  0  0  0  0  0
  1  2  1  0  0  0  0
  1 20  1  0  0  0  0
  1 21  1  0  0  0  0
  1 22  1  0  0  0  0
  2  3  1  0  0  0  0
  2 13  1  0  0  0  0
  2 23  1  0  0  0  0
  3  4  1  0  0  0  0
  3 24  1  0  0  0  0
  4  5  1  0  0  0  0
  4 25  1  0  0  0  0
  4 26  1  0  0  0  0
  5  6  1  0  0  0  0
  5 27  1  0  0  0  0
  5 28  1  0  0  0  0
  6 11  1  0  0  0  0
  6  7  1  0  0  0  0
  7  8  2  0  0  0  0
  7  9  1  0  0  0  0
  9 10  1  0  0  0  0
  9 29  1  0  0  0  0
  9 30  1  0  0  0  0
 10 11  1  0  0  0  0
 11 12  2  0  0  0  0
 13 14  1  0  0  0  0
 13 15  1  0  0  0  0
 13 31  1  0  0  0  0
 14 32  1  0  0  0  0
 14 33  1  0  0  0  0
 14 34  1  0  0  0  0
 15 19  1  0  0  0  0
 15 16  1  0  0  0  0
 16 17  2  0  0  0  0
 16 35  1  0  0  0  0
 17 18  1  0  0  0  0
 17 36  1  0  0  0  0
 18 19  2  0  0  0  0
 18 37  1  0  0  0  0
M  CHG  1  10  -1
M  END
> <s_m_source_file>
AV-unprocessed.smi

> <i_m_source_file_index>
3330

> <i_lp_mmshare_version>
43012

> <i_f3d_flags>
0

> <s_epik_input>
bjFbY0hdW2NIXVtjSF1uMVtDQEBIXShbQ0gzXSlbQ0BIXShbQ0gzXSlbTkhdW0NIMl1bQ0gyXU4yQyg9TylbQ0gyXVtOSF1DMj1P

> <s_epik_cmdline>
J2VwaWtfcHl0aG9uJywgJy1waCcsICc3LjAnLCAnLXRuJywgJzgnLCAnLW1hJywgJzIwMCcsICctbWV0YWxfYmluZGluZycsICctaW1hZScsICc8aW5maWxlLm1hZT4nLCAnLW9tYWUnLCAnPG91dGZpbGUubWFlPic=

> <r_lp_tautomer_probability>
1

> <r_epik_Ionization_Penalty>
8.77477

> <r_epik_Ionization_Penalty_Charging>
6.28461

> <r_epik_Ionization_Penalty_Neutral>
2.49016

> <r_epik_State_Penalty>
8.73376

> <r_epik_Charging_Adjusted_Penalty>
15.0184

> <i_epik_Tot_Q>
-1

> <i_epik_Tot_abs_Q>
1

> <r_epik_Metal_State_Penalty>
4.73175

> <b_epik_Metal_Only>
1

> <s_lp_Force_Field>
OPLS_2005

> <r_lp_Energy>
21.1742

> <b_lp_Chiralities_Consistent>
1

> <s_lp_Variant>
AV-unprocessed.smi:3330-13

> <Gold.Version>
5.8.1

> <Gold.Id.Protein>
6NUR|6NUR_protein|mol2

> <Gold.PLP.Fitness>
43.2582

> <Gold.PLP.PLP>
-36.6596

> <Gold.PLP.part.hbond>
-2.2554

> <Gold.PLP.part.metal>
0.0000

> <Gold.PLP.part.buried>
-5.2646

> <Gold.PLP.part.nonpolar>
-29.1704

> <Gold.PLP.part.repulsive>
0.3096

> <Gold.PLP.ligand.clash>
0.0000

> <Gold.PLP.ligand.torsion>
1.2374

> <Gold.PLP.Chemscore.Hbond>
3.0000

> <Gold.PLP.Chemscore.CHOScore>
0.0000

> <Gold.PLP.Chemscore.Metal>
0.0000

> <Gold.Chemscore.Hbonds>
donor molecule, donor type, donor heavy atom, donor atom, acceptor molecule, acceptor atom, score
      P1  H  7989  7998       L1     8  1.00
      P1  H 10752 10763       L1    10  2.00

> <Gold.PLP.Chemscore.Internal.Correction>
0.0734

> <Gold.Rescore>
     Score         DG    S(hbond)    S(metal)    S(lipo)     H(rot)  DE(clash)    DE(int)     intcor
     13.30     -16.00       1.89        0.00      91.10       2.52       0.38       2.31       ----

> <Gold.Chemscore.Fitness>
13.3024

> <Gold.Chemscore.DG>
-15.9981

> <Gold.Chemscore.ZeroCoef>
-5.4800

> <Gold.Chemscore.Hbond>
1.8864

> <Gold.Chemscore.Metal>
0.0000

> <Gold.Chemscore.Lipo>
91.1000

> <Gold.Chemscore.Internal_Hbond>
0.0000

> <Gold.Chemscore.DEClash>
0.3844

> <Gold.Chemscore.DEInternal>
2.3112

> <Gold.Chemscore.Rot>
2.5160

> <Gold.Chemscore.Internal.Correction>
   9.000000E+99

> <Gold.Chemscore.Hbonds>
donor molecule, donor type, donor heavy atom, donor atom, acceptor molecule, acceptor atom, score
      P1  H  7989  7998       L1     8  0.97
      P1  H 10752 10763       L1    10  0.82

> <Gold.Chemscore.Hbond.Weighted>
-6.3004

> <Gold.Chemscore.Metal.Weighted>
-0.0000

> <Gold.Chemscore.Lipo.Weighted>
-10.6587

> <Gold.Chemscore.Internal_Hbond.Weighted>
0.0000

> <Gold.Chemscore.DEClash.Weighted>
0.3844

> <Gold.Chemscore.DEInternal.Weighted>
2.3112

> <Gold.Chemscore.Rot.Weighted>
6.4410

> <Gold.Chemscore.Internal.Correction.Weighted>
   9.000000E+99

> <Gold.Protein.RotatedTorsions>
[ 6907 6896 6895 6894 ] final -151.32 input  -60.11 | X-H torsion
[ 7974 7965 7964 7962 ] final   71.78 input  175.53 | X-H torsion
[ 8008 7997 7996 7995 ] final   -7.35 input   59.86 | X-H torsion
[ 10167 10162 10161 10158 ] final   39.42 input  -65.29 | X-H torsion
[ 10718 10713 10712 10709 ] final   21.48 input   66.30 | X-H torsion
[ 10763 10752 10751 10750 ] final   68.24 input  -60.55 | X-H torsion
[ 11005 11000 10999 10996 ] final  -15.96 input  -57.11 | X-H torsion

> <Gold.Protein.ActiveResidues>
 VAL166  LYS551  ARG553  GLY616  TRP617  ASP618  TYR619  PRO620  LYS621  CYS622 
 ASP623  PHE694  ASN695  SER759  ASP760  ASP761  ALA762  ILE779  LEU786  VAL792 
 PHE793  MET794  SER795  GLU796  ALA797  LYS798  CYS799  TRP800  GLU811  SER814 

> <Gold.Protein.RotatedAtoms>
  151.2114  133.4554  159.2598 H   0  0  0  0  0  0  0  0  0  0  0  0  # atno 6907 bound_to 6896
  151.0973  134.9952  159.8442 H   0  0  0  0  0  0  0  0  0  0  0  0  # atno 6908 bound_to 6896
  152.5440  134.2043  159.8777 H   0  0  0  0  0  0  0  0  0  0  0  0  # atno 6909 bound_to 6896
  145.7616  139.2803  143.1373 H   0  0  0  0  0  0  0  0  0  0  0  0  # atno 7974 bound_to 7965
  154.5847  140.2409  155.8004 H   0  0  0  0  0  0  0  0  0  0  0  0  # atno 8008 bound_to 7997
  156.2205  140.2999  155.9896 H   0  0  0  0  0  0  0  0  0  0  0  0  # atno 8009 bound_to 7997
  155.2478  140.0409  157.2973 H   0  0  0  0  0  0  0  0  0  0  0  0  # atno 8010 bound_to 7997
  140.3842  144.1940  150.6130 H   0  0  0  0  0  0  0  0  0  0  0  0  # atno 10167 bound_to 10162
  157.1390  130.6624  149.5975 H   0  0  0  0  0  0  0  0  0  0  0  0  # atno 10718 bound_to 10713
  153.0225  135.5254  154.7104 H   0  0  0  0  0  0  0  0  0  0  0  0  # atno 10763 bound_to 10752
  154.6188  135.2886  155.0352 H   0  0  0  0  0  0  0  0  0  0  0  0  # atno 10764 bound_to 10752
  154.1346  135.6587  153.4981 H   0  0  0  0  0  0  0  0  0  0  0  0  # atno 10765 bound_to 10752
  140.8019  133.8207  155.9478 H   0  0  0  0  0  0  0  0  0  0  0  0  # atno 11005 bound_to 11000
  146.0258  140.8305  142.9900 LP  0  0  0  0  0  0  0  0  0  0  0  0  # atno 17320 bound_to 7965
  144.6829  140.2696  143.7307 LP  0  0  0  0  0  0  0  0  0  0  0  0  # atno 17321 bound_to 7965
  140.4907  143.2348  151.8823 LP  0  0  0  0  0  0  0  0  0  0  0  0  # atno 17342 bound_to 10162
  139.4793  144.5169  151.8855 LP  0  0  0  0  0  0  0  0  0  0  0  0  # atno 17343 bound_to 10162
  155.9792  130.4784  150.6703 LP  0  0  0  0  0  0  0  0  0  0  0  0  # atno 17370 bound_to 10713
  157.4324  131.0851  151.1025 LP  0  0  0  0  0  0  0  0  0  0  0  0  # atno 17371 bound_to 10713
  140.9286  134.2051  157.4879 LP  0  0  0  0  0  0  0  0  0  0  0  0  # atno 17394 bound_to 11000
  139.8721  134.9823  156.5151 LP  0  0  0  0  0  0  0  0  0  0  0  0  # atno 17395 bound_to 11000

$$$$
