AV-unprocessed.smi:1672|AV-procd|sdf|6704|dock3
  -GOLD-   22720 7443D 1   1.00000     0.00000
 Structure written by MMmdl.
 48 50  0  0  0  0  0  0  0  0  2 V2000
  144.1808  133.9991  150.5606 C   0  0  0  0  0  0  0  0  0  0  0  0
  145.4435  134.8751  150.4821 C   0  0  2  0  0  0  0  0  0  0  0  0
  146.7429  134.0498  150.4973 C   0  0  0  0  0  0  0  0  0  0  0  0
  147.0550  133.4810  151.8931 C   0  0  0  0  0  0  0  0  0  0  0  0
  147.1162  134.5631  152.9111 N   0  3  2  0  0  0  0  0  0  0  0  0
  147.5446  134.0882  154.2523 C   0  0  0  0  0  0  0  0  0  0  0  0
  149.0318  133.6845  154.2951 C   0  0  1  0  0  0  0  0  0  0  0  0
  149.8010  134.8204  154.6399 O   0  0  0  0  0  0  0  0  0  0  0  0
  149.2864  132.5613  155.3198 C   0  0  0  0  0  0  0  0  0  0  0  0
  149.9096  131.3884  154.7202 N   0  0  0  0  0  0  0  0  0  0  0  0
  149.4405  130.5932  153.7246 C   0  0  0  0  0  0  0  0  0  0  0  0
  148.1226  130.8371  153.0554 C   0  0  0  0  0  0  0  0  0  0  0  0
  148.0428  130.2377  151.7804 O   0  0  0  0  0  0  0  0  0  0  0  0
  150.2304  129.5781  153.3734 N   0  0  0  0  0  0  0  0  0  0  0  0
  151.3165  129.7316  154.2124 C   0  0  0  0  0  0  0  0  0  0  0  0
  152.5011  128.9703  154.3314 C   0  0  0  0  0  0  0  0  0  0  0  0
  153.4862  129.3259  155.2760 C   0  0  0  0  0  0  0  0  0  0  0  0
  153.3017  130.4452  156.1131 C   0  0  0  0  0  0  0  0  0  0  0  0
  152.1283  131.2174  156.0114 C   0  0  0  0  0  0  0  0  0  0  0  0
  151.1480  130.8573  155.0671 C   0  0  0  0  0  0  0  0  0  0  0  0
  145.8472  135.3338  152.9656 C   0  0  0  0  0  0  0  0  0  0  0  0
  145.5008  135.9392  151.5932 C   0  0  0  0  0  0  0  0  0  0  0  0
  144.1269  133.4359  151.4918 H   0  0  0  0  0  0  0  0  0  0  0  0
  144.1526  133.2817  149.7399 H   0  0  0  0  0  0  0  0  0  0  0  0
  143.2791  134.6083  150.4918 H   0  0  0  0  0  0  0  0  0  0  0  0
  145.3964  135.3986  149.5260 H   0  0  0  0  0  0  0  0  0  0  0  0
  146.6863  133.2421  149.7667 H   0  0  0  0  0  0  0  0  0  0  0  0
  147.5727  134.6839  150.1816 H   0  0  0  0  0  0  0  0  0  0  0  0
  146.3023  132.7465  152.1824 H   0  0  0  0  0  0  0  0  0  0  0  0
  148.0039  132.9488  151.8463 H   0  0  0  0  0  0  0  0  0  0  0  0
  147.3827  134.8757  154.9905 H   0  0  0  0  0  0  0  0  0  0  0  0
  146.9113  133.2534  154.5565 H   0  0  0  0  0  0  0  0  0  0  0  0
  149.3613  133.3399  153.3156 H   0  0  0  0  0  0  0  0  0  0  0  0
  149.5531  135.5347  154.0716 H   0  0  0  0  0  0  0  0  0  0  0  0
  149.8993  132.9244  156.1446 H   0  0  0  0  0  0  0  0  0  0  0  0
  148.3420  132.2460  155.7652 H   0  0  0  0  0  0  0  0  0  0  0  0
  147.3230  130.4347  153.6784 H   0  0  0  0  0  0  0  0  0  0  0  0
  147.9402  131.9079  152.9680 H   0  0  0  0  0  0  0  0  0  0  0  0
  148.4397  130.8182  151.1495 H   0  0  0  0  0  0  0  0  0  0  0  0
  152.6528  128.1116  153.6941 H   0  0  0  0  0  0  0  0  0  0  0  0
  154.3883  128.7373  155.3573 H   0  0  0  0  0  0  0  0  0  0  0  0
  154.0623  130.7110  156.8327 H   0  0  0  0  0  0  0  0  0  0  0  0
  151.9854  132.0759  156.6504 H   0  0  0  0  0  0  0  0  0  0  0  0
  145.0405  134.6891  153.3171 H   0  0  0  0  0  0  0  0  0  0  0  0
  145.9407  136.1421  153.6920 H   0  0  0  0  0  0  0  0  0  0  0  0
  146.2556  136.6833  151.3355 H   0  0  0  0  0  0  0  0  0  0  0  0
  144.5541  136.4778  151.6495 H   0  0  0  0  0  0  0  0  0  0  0  0
  147.8258  135.2152  152.6072 H   0  0  0  0  0  0  0  0  0  0  0  0
  1  2  1  0  0  0  0
  1 23  1  0  0  0  0
  1 24  1  0  0  0  0
  1 25  1  0  0  0  0
  2 22  1  0  0  0  0
  2  3  1  0  0  0  0
  2 26  1  0  0  0  0
  3  4  1  0  0  0  0
  3 27  1  0  0  0  0
  3 28  1  0  0  0  0
  4  5  1  0  0  0  0
  4 29  1  0  0  0  0
  4 30  1  0  0  0  0
  5  6  1  0  0  0  0
  5 21  1  0  0  0  0
  5 48  1  0  0  0  0
  6  7  1  0  0  0  0
  6 31  1  0  0  0  0
  6 32  1  0  0  0  0
  7  8  1  0  0  0  0
  7  9  1  0  0  0  0
  7 33  1  0  0  0  0
  8 34  1  0  0  0  0
  9 10  1  0  0  0  0
  9 35  1  0  0  0  0
  9 36  1  0  0  0  0
 10 20  1  0  0  0  0
 10 11  1  0  0  0  0
 11 12  1  0  0  0  0
 11 14  2  0  0  0  0
 12 13  1  0  0  0  0
 12 37  1  0  0  0  0
 12 38  1  0  0  0  0
 13 39  1  0  0  0  0
 14 15  1  0  0  0  0
 15 20  2  0  0  0  0
 15 16  1  0  0  0  0
 16 17  2  0  0  0  0
 16 40  1  0  0  0  0
 17 18  1  0  0  0  0
 17 41  1  0  0  0  0
 18 19  2  0  0  0  0
 18 42  1  0  0  0  0
 19 20  1  0  0  0  0
 19 43  1  0  0  0  0
 21 22  1  0  0  0  0
 21 44  1  0  0  0  0
 21 45  1  0  0  0  0
 22 46  1  0  0  0  0
 22 47  1  0  0  0  0
M  CHG  1   5   1
M  END
> <s_m_source_file>
AV-unprocessed.smi

> <i_m_source_file_index>
1672

> <i_lp_mmshare_version>
43012

> <i_f3d_flags>
0

> <s_epik_input>
W0NIM11bQ0hdMVtDSDJdW0NIMl1OKFtDSDJdW0NIMl0xKVtDSDJdW0NASF0oW09IXSlbQ0gyXW4oYyhuMilbQ0gyXVtPSF0pYyhjMjMpW2NIXVtjSF1bY0hdW2NIXTM=

> <s_epik_cmdline>
J2VwaWtfcHl0aG9uJywgJy1waCcsICc3LjAnLCAnLXRuJywgJzgnLCAnLW1hJywgJzIwMCcsICctbWV0YWxfYmluZGluZycsICctaW1hZScsICc8aW5maWxlLm1hZT4nLCAnLW9tYWUnLCAnPG91dGZpbGUubWFlPic=

> <r_epik_Ionization_Penalty>
0.0498263

> <r_epik_Ionization_Penalty_Charging>
0.00181365

> <r_epik_Ionization_Penalty_Neutral>
0.0480127

> <r_epik_State_Penalty>
0.0408546

> <r_epik_Charging_Adjusted_Penalty>
0.0426682

> <i_epik_Tot_Q>
1

> <i_epik_Tot_abs_Q>
1

> <r_epik_Metal_State_Penalty>
4.22946e-05

> <b_epik_Metal_Only>
0

> <s_lp_Force_Field>
OPLS_2005

> <r_lp_Energy>
24.4653

> <b_lp_Chiralities_Consistent>
1

> <s_lp_Variant>
AV-unprocessed.smi:1672-4

> <Gold.Version>
5.8.1

> <Gold.Id.Protein>
6NUR|6NUR_protein|mol2

> <Gold.PLP.Fitness>
47.4432

> <Gold.PLP.PLP>
-38.4345

> <Gold.PLP.part.hbond>
-3.0000

> <Gold.PLP.part.metal>
0.0000

> <Gold.PLP.part.buried>
-3.4384

> <Gold.PLP.part.nonpolar>
-31.4432

> <Gold.PLP.part.repulsive>
0.1141

> <Gold.PLP.ligand.clash>
0.0000

> <Gold.PLP.ligand.torsion>
1.5341

> <Gold.PLP.Chemscore.Hbond>
4.0000

> <Gold.PLP.Chemscore.CHOScore>
0.0000

> <Gold.PLP.Chemscore.Metal>
0.0000

> <Gold.Chemscore.Hbonds>
donor molecule, donor type, donor heavy atom, donor atom, acceptor molecule, acceptor atom, score
      L1  H     5    48       P1  7948  2.00
      L1  H     8    34       P1  7948  0.17

> <Gold.PLP.Chemscore.Internal.Correction>
0.0768

> <Gold.Rescore>
     Score         DG    S(hbond)    S(metal)    S(lipo)     H(rot)  DE(clash)    DE(int)     intcor
     14.61     -16.08       2.51        0.00      81.92       2.88       0.07       1.40       ----

> <Gold.Chemscore.Fitness>
14.6103

> <Gold.Chemscore.DG>
-16.0832

> <Gold.Chemscore.ZeroCoef>
-5.4800

> <Gold.Chemscore.Hbond>
2.5108

> <Gold.Chemscore.Metal>
0.0000

> <Gold.Chemscore.Lipo>
81.9160

> <Gold.Chemscore.Internal_Hbond>
0.0000

> <Gold.Chemscore.DEClash>
0.0700

> <Gold.Chemscore.DEInternal>
1.4029

> <Gold.Chemscore.Rot>
2.8778

> <Gold.Chemscore.Internal.Correction>
   9.000000E+99

> <Gold.Chemscore.Hbonds>
donor molecule, donor type, donor heavy atom, donor atom, acceptor molecule, acceptor atom, score
      L1  H     5    48       P1  7948  0.99
      L1  H     8    34       P1  7948  0.06

> <Gold.Chemscore.Hbond.Weighted>
-8.3861

> <Gold.Chemscore.Metal.Weighted>
-0.0000

> <Gold.Chemscore.Lipo.Weighted>
-9.5842

> <Gold.Chemscore.Internal_Hbond.Weighted>
0.0000

> <Gold.Chemscore.DEClash.Weighted>
0.0700

> <Gold.Chemscore.DEInternal.Weighted>
1.4029

> <Gold.Chemscore.Rot.Weighted>
7.3671

> <Gold.Chemscore.Internal.Correction.Weighted>
   9.000000E+99

> <Gold.Protein.RotatedTorsions>
[ 6907 6896 6895 6894 ] final  100.34 input  -60.11 | X-H torsion
[ 7974 7965 7964 7962 ] final  121.74 input  175.53 | X-H torsion
[ 8008 7997 7996 7995 ] final  -41.04 input   59.86 | X-H torsion
[ 10167 10162 10161 10158 ] final   96.65 input  -65.29 | X-H torsion
[ 10718 10713 10712 10709 ] final    2.61 input   66.30 | X-H torsion
[ 10763 10752 10751 10750 ] final  110.11 input  -60.55 | X-H torsion
[ 11005 11000 10999 10996 ] final  -95.15 input  -57.11 | X-H torsion

> <Gold.Protein.ActiveResidues>
 VAL166  LYS551  ARG553  GLY616  TRP617  ASP618  TYR619  PRO620  LYS621  CYS622 
 ASP623  PHE694  ASN695  SER759  ASP760  ASP761  ALA762  ILE779  LEU786  VAL792 
 PHE793  MET794  SER795  GLU796  ALA797  LYS798  CYS799  TRP800  GLU811  SER814 

> <Gold.Protein.RotatedAtoms>
  152.5374  134.0292  159.8016 H   0  0  0  0  0  0  0  0  0  0  0  0  # atno 6907 bound_to 6896
  151.0465  133.5653  159.2653 H   0  0  0  0  0  0  0  0  0  0  0  0  # atno 6908 bound_to 6896
  151.2603  135.0659  159.9149 H   0  0  0  0  0  0  0  0  0  0  0  0  # atno 6909 bound_to 6896
  145.1158  139.3422  143.4740 H   0  0  0  0  0  0  0  0  0  0  0  0  # atno 7974 bound_to 7965
  154.4007  140.1510  156.3126 H   0  0  0  0  0  0  0  0  0  0  0  0  # atno 8008 bound_to 7997
  155.8602  140.3454  155.5730 H   0  0  0  0  0  0  0  0  0  0  0  0  # atno 8009 bound_to 7997
  155.7888  140.0854  157.2010 H   0  0  0  0  0  0  0  0  0  0  0  0  # atno 8010 bound_to 7997
  139.7874  144.6865  150.9939 H   0  0  0  0  0  0  0  0  0  0  0  0  # atno 10167 bound_to 10162
  156.8655  130.5602  149.5660 H   0  0  0  0  0  0  0  0  0  0  0  0  # atno 10718 bound_to 10713
  153.4442  135.3759  155.2246 H   0  0  0  0  0  0  0  0  0  0  0  0  # atno 10763 bound_to 10752
  154.8755  135.3870  154.4116 H   0  0  0  0  0  0  0  0  0  0  0  0  # atno 10764 bound_to 10752
  153.4666  135.7087  153.6082 H   0  0  0  0  0  0  0  0  0  0  0  0  # atno 10765 bound_to 10752
  141.1450  133.8006  157.0396 H   0  0  0  0  0  0  0  0  0  0  0  0  # atno 11005 bound_to 11000
  146.3524  140.1096  142.8604 LP  0  0  0  0  0  0  0  0  0  0  0  0  # atno 17320 bound_to 7965
  145.0796  140.9212  143.4833 LP  0  0  0  0  0  0  0  0  0  0  0  0  # atno 17321 bound_to 7965
  140.7820  143.4417  151.0542 LP  0  0  0  0  0  0  0  0  0  0  0  0  # atno 17342 bound_to 10162
  139.8095  143.7971  152.3170 LP  0  0  0  0  0  0  0  0  0  0  0  0  # atno 17343 bound_to 10162
  156.0754  130.5777  150.9463 LP  0  0  0  0  0  0  0  0  0  0  0  0  # atno 17370 bound_to 10713
  157.6226  131.0928  150.8594 LP  0  0  0  0  0  0  0  0  0  0  0  0  # atno 17371 bound_to 10713
  140.0701  134.9707  157.1453 LP  0  0  0  0  0  0  0  0  0  0  0  0  # atno 17394 bound_to 11000
  140.3723  134.2377  155.7177 LP  0  0  0  0  0  0  0  0  0  0  0  0  # atno 17395 bound_to 11000

$$$$
