AV-unprocessed.smi:1406|AV-procd|sdf|5711|dock7
  -GOLD-   22720 5343D 1   1.00000     0.00000
 Structure written by MMmdl.
 41 43  0  0  0  0  0  0  0  0  2 V2000
  147.6222  136.1249  156.4565 C   0  0  0  0  0  0  0  0  0  0  0  0
  148.5932  135.8785  155.2837 C   0  0  2  0  0  0  0  0  0  0  0  0
  148.4639  134.4690  154.6865 C   0  0  0  0  0  0  0  0  0  0  0  0
  148.8447  133.4785  155.3112 O   0  0  0  0  0  0  0  0  0  0  0  0
  147.9489  134.3970  153.4491 N   0  0  0  0  0  0  0  0  0  0  0  0
  147.8657  133.1773  152.6518 C   0  0  1  0  0  0  0  0  0  0  0  0
  147.2492  131.9960  153.4136 C   0  0  0  0  0  0  0  0  0  0  0  0
  146.4975  131.1780  152.3478 C   0  0  0  0  0  0  0  0  0  0  0  0
  146.6821  131.8990  151.0687 N   0  3  1  0  0  0  0  0  0  0  0  0
  145.6441  131.6802  150.0289 C   0  0  0  0  0  0  0  0  0  0  0  0
  144.3633  132.4913  150.2876 C   0  0  0  0  0  0  0  0  0  0  0  0
  144.6918  133.9762  150.4731 C   0  0  0  0  0  0  0  0  0  0  0  0
  145.6859  134.1426  151.6269 C   0  0  0  0  0  0  0  0  0  0  0  0
  146.9761  133.3103  151.4027 C   0  0  1  0  0  0  0  0  0  0  0  0
  149.9813  136.1298  155.6536 N   0  0  0  0  0  0  0  0  0  0  0  0
  151.0036  136.5560  154.9084 C   0  0  0  0  0  0  0  0  0  0  0  0
  152.1581  136.6097  155.5569 N   0  0  0  0  0  0  0  0  0  0  0  0
  151.7514  136.1684  156.7838 C   0  0  0  0  0  0  0  0  0  0  0  0
  150.4612  135.8520  156.8916 N   0  0  0  0  0  0  0  0  0  0  0  0
  146.5864  135.9920  156.1428 H   0  0  0  0  0  0  0  0  0  0  0  0
  147.7205  137.1432  156.8338 H   0  0  0  0  0  0  0  0  0  0  0  0
  147.8040  135.4462  157.2911 H   0  0  0  0  0  0  0  0  0  0  0  0
  148.3370  136.5899  154.4968 H   0  0  0  0  0  0  0  0  0  0  0  0
  147.6495  135.2549  153.0085 H   0  0  0  0  0  0  0  0  0  0  0  0
  148.8700  132.8857  152.3367 H   0  0  0  0  0  0  0  0  0  0  0  0
  148.0118  131.4056  153.9224 H   0  0  0  0  0  0  0  0  0  0  0  0
  146.5450  132.3438  154.1709 H   0  0  0  0  0  0  0  0  0  0  0  0
  146.8842  130.1620  152.2640 H   0  0  0  0  0  0  0  0  0  0  0  0
  145.4409  131.1110  152.6092 H   0  0  0  0  0  0  0  0  0  0  0  0
  146.0667  131.9784  149.0688 H   0  0  0  0  0  0  0  0  0  0  0  0
  145.4186  130.6161  149.9497 H   0  0  0  0  0  0  0  0  0  0  0  0
  143.6716  132.3655  149.4541 H   0  0  0  0  0  0  0  0  0  0  0  0
  143.8492  132.1130  151.1718 H   0  0  0  0  0  0  0  0  0  0  0  0
  145.1150  134.3843  149.5543 H   0  0  0  0  0  0  0  0  0  0  0  0
  143.7815  134.5405  150.6779 H   0  0  0  0  0  0  0  0  0  0  0  0
  145.9333  135.1988  151.7385 H   0  0  0  0  0  0  0  0  0  0  0  0
  145.2004  133.8437  152.5568 H   0  0  0  0  0  0  0  0  0  0  0  0
  147.5398  133.7545  150.5810 H   0  0  0  0  0  0  0  0  0  0  0  0
  150.9033  136.8216  153.8663 H   0  0  0  0  0  0  0  0  0  0  0  0
  152.4280  136.0665  157.6195 H   0  0  0  0  0  0  0  0  0  0  0  0
  147.5423  131.5302  150.6885 H   0  0  0  0  0  0  0  0  0  0  0  0
  1  2  1  0  0  0  0
  1 20  1  0  0  0  0
  1 21  1  0  0  0  0
  1 22  1  0  0  0  0
  2  3  1  0  0  0  0
  2 15  1  0  0  0  0
  2 23  1  0  0  0  0
  3  4  2  0  0  0  0
  3  5  1  0  0  0  0
  5  6  1  0  0  0  0
  5 24  1  0  0  0  0
  6 14  1  0  0  0  0
  6  7  1  0  0  0  0
  6 25  1  0  0  0  0
  7  8  1  0  0  0  0
  7 26  1  0  0  0  0
  7 27  1  0  0  0  0
  8  9  1  0  0  0  0
  8 28  1  0  0  0  0
  8 29  1  0  0  0  0
  9 14  1  0  0  0  0
  9 10  1  0  0  0  0
  9 41  1  0  0  0  0
 10 11  1  0  0  0  0
 10 30  1  0  0  0  0
 10 31  1  0  0  0  0
 11 12  1  0  0  0  0
 11 32  1  0  0  0  0
 11 33  1  0  0  0  0
 12 13  1  0  0  0  0
 12 34  1  0  0  0  0
 12 35  1  0  0  0  0
 13 14  1  0  0  0  0
 13 36  1  0  0  0  0
 13 37  1  0  0  0  0
 14 38  1  0  0  0  0
 15 19  1  0  0  0  0
 15 16  1  0  0  0  0
 16 17  2  0  0  0  0
 16 39  1  0  0  0  0
 17 18  1  0  0  0  0
 18 19  2  0  0  0  0
 18 40  1  0  0  0  0
M  CHG  1   9   1
M  END
> <s_m_source_file>
AV-unprocessed.smi

> <i_m_source_file_index>
1406

> <i_lp_mmshare_version>
43012

> <i_f3d_flags>
0

> <s_epik_input>
bjFbY0hdbltjSF1uMVtDQEhdKFtDSDNdKUMoPU8pW05IXVtDQEhdKFtDSDJdW0NIMl0yKVtDQEBIXShOMjMpW0NIMl1bQ0gyXVtDSDJdW0NIMl0z

> <s_epik_cmdline>
J2VwaWtfcHl0aG9uJywgJy1waCcsICc3LjAnLCAnLXRuJywgJzgnLCAnLW1hJywgJzIwMCcsICctbWV0YWxfYmluZGluZycsICctaW1hZScsICc8aW5maWxlLm1hZT4nLCAnLW9tYWUnLCAnPG91dGZpbGUubWFlPic=

> <r_lp_tautomer_probability>
1

> <r_epik_Ionization_Penalty>
0.00197066

> <r_epik_Ionization_Penalty_Charging>
0.00196223

> <r_epik_Ionization_Penalty_Neutral>
8.43107e-06

> <r_epik_State_Penalty>
0.00133866

> <r_epik_Charging_Adjusted_Penalty>
0.00330089

> <i_epik_Tot_Q>
1

> <i_epik_Tot_abs_Q>
1

> <r_epik_Metal_State_Penalty>
-0

> <b_epik_Metal_Only>
0

> <s_lp_Force_Field>
OPLS_2005

> <r_lp_Energy>
41.142

> <b_lp_Chiralities_Consistent>
1

> <s_lp_Variant>
AV-unprocessed.smi:1406-3

> <Gold.Version>
5.8.1

> <Gold.Id.Protein>
6NUR|6NUR_protein|mol2

> <Gold.PLP.Fitness>
37.2847

> <Gold.PLP.PLP>
-28.8498

> <Gold.PLP.part.hbond>
-2.8757

> <Gold.PLP.part.metal>
0.0000

> <Gold.PLP.part.buried>
-3.6979

> <Gold.PLP.part.nonpolar>
-22.3356

> <Gold.PLP.part.repulsive>
0.1121

> <Gold.PLP.ligand.clash>
0.0000

> <Gold.PLP.ligand.torsion>
0.9333

> <Gold.PLP.Chemscore.Hbond>
2.3520

> <Gold.PLP.Chemscore.CHOScore>
1.0463

> <Gold.PLP.Chemscore.Metal>
0.0000

> <Gold.Chemscore.Hbonds>
donor molecule, donor type, donor heavy atom, donor atom, acceptor molecule, acceptor atom, score
      L1  H     5    24       P1  7948  0.35
      L1  H     9    41       P1 10747  1.00
      P1  H 10752 10765       L1    17  1.00
      L1  C    16    39       P1  7948  0.10
      L1  C    16    39       P1  7949  0.95

> <Gold.PLP.Chemscore.Internal.Correction>
0.1066

> <Gold.Rescore>
     Score         DG    S(hbond)    S(metal)    S(lipo)     H(rot)  DE(clash)    DE(int)     intcor
     13.01     -15.33       2.26        0.00      60.95       1.89       0.07       2.26       ----

> <Gold.Chemscore.Fitness>
13.0142

> <Gold.Chemscore.DG>
-15.3349

> <Gold.Chemscore.ZeroCoef>
-5.4800

> <Gold.Chemscore.Hbond>
2.2616

> <Gold.Chemscore.Metal>
0.0000

> <Gold.Chemscore.Lipo>
60.9457

> <Gold.Chemscore.Internal_Hbond>
0.0000

> <Gold.Chemscore.DEClash>
0.0650

> <Gold.Chemscore.DEInternal>
2.2556

> <Gold.Chemscore.Rot>
1.8865

> <Gold.Chemscore.Internal.Correction>
   9.000000E+99

> <Gold.Chemscore.Hbonds>
donor molecule, donor type, donor heavy atom, donor atom, acceptor molecule, acceptor atom, score
      L1  H     5    24       P1  7948  0.33
      L1  H     9    41       P1 10747  1.00
      P1  H 10752 10765       L1    17  0.34

> <Gold.Chemscore.Hbond.Weighted>
-7.5538

> <Gold.Chemscore.Metal.Weighted>
-0.0000

> <Gold.Chemscore.Lipo.Weighted>
-7.1306

> <Gold.Chemscore.Internal_Hbond.Weighted>
0.0000

> <Gold.Chemscore.DEClash.Weighted>
0.0650

> <Gold.Chemscore.DEInternal.Weighted>
2.2556

> <Gold.Chemscore.Rot.Weighted>
4.8295

> <Gold.Chemscore.Internal.Correction.Weighted>
   9.000000E+99

> <Gold.Protein.RotatedTorsions>
[ 6907 6896 6895 6894 ] final  -93.16 input  -60.11 | X-H torsion
[ 7974 7965 7964 7962 ] final   91.23 input  175.53 | X-H torsion
[ 8008 7997 7996 7995 ] final   49.98 input   59.86 | X-H torsion
[ 10167 10162 10161 10158 ] final  -77.99 input  -65.29 | X-H torsion
[ 10718 10713 10712 10709 ] final    5.37 input   66.30 | X-H torsion
[ 10763 10752 10751 10750 ] final -161.43 input  -60.55 | X-H torsion
[ 11005 11000 10999 10996 ] final  157.51 input  -57.11 | X-H torsion

> <Gold.Protein.ActiveResidues>
 VAL166  LYS551  ARG553  GLY616  TRP617  ASP618  TYR619  PRO620  LYS621  CYS622 
 ASP623  PHE694  ASN695  SER759  ASP760  ASP761  ALA762  ILE779  LEU786  VAL792 
 PHE793  MET794  SER795  GLU796  ALA797  LYS798  CYS799  TRP800  GLU811  SER814 

> <Gold.Protein.RotatedAtoms>
  150.6918  134.2010  159.4321 H   0  0  0  0  0  0  0  0  0  0  0  0  # atno 6907 bound_to 6896
  151.9976  134.9943  160.0573 H   0  0  0  0  0  0  0  0  0  0  0  0  # atno 6908 bound_to 6896
  152.1609  133.4546  159.4897 H   0  0  0  0  0  0  0  0  0  0  0  0  # atno 6909 bound_to 6896
  145.5084  139.2276  143.2738 H   0  0  0  0  0  0  0  0  0  0  0  0  # atno 7974 bound_to 7965
  155.4112  140.3442  155.4264 H   0  0  0  0  0  0  0  0  0  0  0  0  # atno 8008 bound_to 7997
  156.1448  140.1553  156.8896 H   0  0  0  0  0  0  0  0  0  0  0  0  # atno 8009 bound_to 7997
  154.5001  140.0817  156.7760 H   0  0  0  0  0  0  0  0  0  0  0  0  # atno 8010 bound_to 7997
  140.4721  143.2424  151.8188 H   0  0  0  0  0  0  0  0  0  0  0  0  # atno 10167 bound_to 10162
  156.9064  130.5740  149.5647 H   0  0  0  0  0  0  0  0  0  0  0  0  # atno 10718 bound_to 10713
  154.7304  135.3045  154.8901 H   0  0  0  0  0  0  0  0  0  0  0  0  # atno 10763 bound_to 10752
  153.9745  135.6737  153.4752 H   0  0  0  0  0  0  0  0  0  0  0  0  # atno 10764 bound_to 10752
  153.0913  135.4958  154.8616 H   0  0  0  0  0  0  0  0  0  0  0  0  # atno 10765 bound_to 10752
  140.1777  134.8498  157.2765 H   0  0  0  0  0  0  0  0  0  0  0  0  # atno 11005 bound_to 11000
  146.2182  140.5889  142.9029 LP  0  0  0  0  0  0  0  0  0  0  0  0  # atno 17320 bound_to 7965
  144.7741  140.5701  143.6650 LP  0  0  0  0  0  0  0  0  0  0  0  0  # atno 17321 bound_to 7965
  139.4820  144.4878  151.9224 LP  0  0  0  0  0  0  0  0  0  0  0  0  # atno 17342 bound_to 10162
  140.3963  144.2550  150.5896 LP  0  0  0  0  0  0  0  0  0  0  0  0  # atno 17343 bound_to 10162
  156.0557  130.5619  150.9086 LP  0  0  0  0  0  0  0  0  0  0  0  0  # atno 17370 bound_to 10713
  157.5995  131.0942  150.8985 LP  0  0  0  0  0  0  0  0  0  0  0  0  # atno 17371 bound_to 10713
  140.2304  134.3916  155.7524 LP  0  0  0  0  0  0  0  0  0  0  0  0  # atno 17394 bound_to 11000
  141.2221  133.7212  156.8631 LP  0  0  0  0  0  0  0  0  0  0  0  0  # atno 17395 bound_to 11000

$$$$
