AV-unprocessed.smi:1718|AV-procd|sdf|6923|dock8
  -GOLD-   22720 8133D 1   1.00000     0.00000
 Structure written by MMmdl.
 40 41  0  0  0  0  0  0  0  0  1 V2000
  150.4911  137.4632  154.6078 C   0  0  0  0  0  0  0  0  0  0  0  0
  150.6580  138.9638  154.3248 C   0  0  1  0  0  0  0  0  0  0  0  0
  149.3701  139.5649  154.4300 O   0  0  0  0  0  0  0  0  0  0  0  0
  149.3365  140.9771  154.2552 C   0  0  0  0  0  0  0  0  0  0  0  0
  147.8750  141.4236  154.1313 C   0  0  2  0  0  0  0  0  0  0  0  0
  147.6965  142.8944  153.7646 C   0  0  0  0  0  0  0  0  0  0  0  0
  146.2870  143.1541  154.2465 C   0  0  0  0  0  0  0  0  0  0  0  0
  146.2133  142.3054  155.5155 C   0  0  0  0  0  0  0  0  0  0  0  0
  147.2040  141.2880  155.3792 O   0  0  0  0  0  0  0  0  0  0  0  0
  151.6356  139.6178  155.3153 C   0  0  0  0  0  0  0  0  0  0  0  0
  152.8188  139.7481  155.0017 O   0  0  0  0  0  0  0  0  0  0  0  0
  151.0959  140.0105  156.4863 N   0  0  0  0  0  0  0  0  0  0  0  0
  151.7198  140.5817  157.6080 C   0  0  0  0  0  0  0  0  0  0  0  0
  151.6571  141.8964  157.9453 C   0  0  0  0  0  0  0  0  0  0  0  0
  152.3415  142.4271  159.1123 C   0  0  0  0  0  0  0  0  0  0  0  0
  152.1981  143.8839  159.5248 C   0  0  0  0  0  0  0  0  0  0  0  0
  152.6848  144.0907  160.7493 F   0  0  0  0  0  0  0  0  0  0  0  0
  152.8670  144.6623  158.6753 F   0  0  0  0  0  0  0  0  0  0  0  0
  150.9193  144.2607  159.5136 F   0  0  0  0  0  0  0  0  0  0  0  0
  153.0388  141.5450  159.8519 C   0  0  0  0  0  0  0  0  0  0  0  0
  153.1272  140.1964  159.4993 N   0  0  0  0  0  0  0  0  0  0  0  0
  152.5175  139.6507  158.4232 C   0  0  0  0  0  0  0  0  0  0  0  0
  152.6463  138.4517  158.1779 O   0  0  0  0  0  0  0  0  0  0  0  0
  153.6840  139.6017  160.0961 H   0  0  0  0  0  0  0  0  0  0  0  0
  151.4472  136.9411  154.5545 H   0  0  0  0  0  0  0  0  0  0  0  0
  149.8245  137.0048  153.8770 H   0  0  0  0  0  0  0  0  0  0  0  0
  150.0654  137.2852  155.5961 H   0  0  0  0  0  0  0  0  0  0  0  0
  151.0283  139.0791  153.3041 H   0  0  0  0  0  0  0  0  0  0  0  0
  149.7929  141.4800  155.1083 H   0  0  0  0  0  0  0  0  0  0  0  0
  149.8984  141.2672  153.3661 H   0  0  0  0  0  0  0  0  0  0  0  0
  147.3532  140.7984  153.4047 H   0  0  0  0  0  0  0  0  0  0  0  0
  148.4017  143.5186  154.3154 H   0  0  0  0  0  0  0  0  0  0  0  0
  147.8271  143.0860  152.6991 H   0  0  0  0  0  0  0  0  0  0  0  0
  146.0822  144.2096  154.4267 H   0  0  0  0  0  0  0  0  0  0  0  0
  145.5706  142.7889  153.5093 H   0  0  0  0  0  0  0  0  0  0  0  0
  146.4500  142.9043  156.3953 H   0  0  0  0  0  0  0  0  0  0  0  0
  145.2226  141.8732  155.6583 H   0  0  0  0  0  0  0  0  0  0  0  0
  150.0945  139.9082  156.5708 H   0  0  0  0  0  0  0  0  0  0  0  0
  151.1111  142.6000  157.3382 H   0  0  0  0  0  0  0  0  0  0  0  0
  153.5707  141.7965  160.7577 H   0  0  0  0  0  0  0  0  0  0  0  0
  1  2  1  0  0  0  0
  1 25  1  0  0  0  0
  1 26  1  0  0  0  0
  1 27  1  0  0  0  0
  2  3  1  0  0  0  0
  2 10  1  0  0  0  0
  2 28  1  0  0  0  0
  3  4  1  0  0  0  0
  4  5  1  0  0  0  0
  4 29  1  0  0  0  0
  4 30  1  0  0  0  0
  5  9  1  0  0  0  0
  5  6  1  0  0  0  0
  5 31  1  0  0  0  0
  6  7  1  0  0  0  0
  6 32  1  0  0  0  0
  6 33  1  0  0  0  0
  7  8  1  0  0  0  0
  7 34  1  0  0  0  0
  7 35  1  0  0  0  0
  8  9  1  0  0  0  0
  8 36  1  0  0  0  0
  8 37  1  0  0  0  0
 10 11  2  0  0  0  0
 10 12  1  0  0  0  0
 12 13  1  0  0  0  0
 12 38  1  0  0  0  0
 13 22  1  0  0  0  0
 13 14  2  0  0  0  0
 14 15  1  0  0  0  0
 14 39  1  0  0  0  0
 15 16  1  0  0  0  0
 15 20  2  0  0  0  0
 16 17  1  0  0  0  0
 16 18  1  0  0  0  0
 16 19  1  0  0  0  0
 20 21  1  0  0  0  0
 20 40  1  0  0  0  0
 21 24  1  0  0  0  0
 21 22  1  0  0  0  0
 22 23  2  0  0  0  0
M  END
> <s_m_source_file>
AV-unprocessed.smi

> <i_m_source_file_index>
1718

> <i_lp_mmshare_version>
43012

> <i_f3d_flags>
0

> <s_epik_input>
TzFbQ0gyXVtDSDJdW0NIMl1bQ0BIXTFbQ0gyXU9bQ0BASF0oW0NIM10pQyg9TylbTkhdYzJbY0hdYyhDKEYpKEYpRilbY0hdW25IXWMyPU8=

> <s_epik_cmdline>
J2VwaWtfcHl0aG9uJywgJy1waCcsICc3LjAnLCAnLXRuJywgJzgnLCAnLW1hJywgJzIwMCcsICctbWV0YWxfYmluZGluZycsICctaW1hZScsICc8aW5maWxlLm1hZT4nLCAnLW9tYWUnLCAnPG91dGZpbGUubWFlPic=

> <r_lp_tautomer_probability>
0.999

> <r_epik_Ionization_Penalty>
0.00894336

> <r_epik_Ionization_Penalty_Charging>
0.00894326

> <r_epik_Ionization_Penalty_Neutral>
1.00145e-07

> <r_epik_State_Penalty>
0.00676626

> <r_epik_Charging_Adjusted_Penalty>
0.0157095

> <i_epik_Tot_Q>
0

> <i_epik_Tot_abs_Q>
0

> <r_epik_Metal_State_Penalty>
0.321145

> <b_epik_Metal_Only>
0

> <s_lp_Force_Field>
OPLS_2005

> <r_lp_Energy>
34.2201

> <b_lp_Chiralities_Consistent>
1

> <s_lp_Variant>
AV-unprocessed.smi:1718-2

> <Gold.Version>
5.8.1

> <Gold.Id.Protein>
6NUR|6NUR_protein|mol2

> <Gold.PLP.Fitness>
47.6035

> <Gold.PLP.PLP>
-49.0420

> <Gold.PLP.part.hbond>
-2.0000

> <Gold.PLP.part.metal>
0.0000

> <Gold.PLP.part.buried>
-7.4947

> <Gold.PLP.part.nonpolar>
-40.5017

> <Gold.PLP.part.repulsive>
0.3758

> <Gold.PLP.ligand.clash>
0.9986

> <Gold.PLP.ligand.torsion>
1.7930

> <Gold.PLP.Chemscore.Hbond>
1.0141

> <Gold.PLP.Chemscore.CHOScore>
0.0000

> <Gold.PLP.Chemscore.Metal>
0.0000

> <Gold.Chemscore.Hbonds>
donor molecule, donor type, donor heavy atom, donor atom, acceptor molecule, acceptor atom, score
      P1  H  7997  8010       L1    11  1.00

> <Gold.PLP.Chemscore.Internal.Correction>
0.1039

> <Gold.Rescore>
     Score         DG    S(hbond)    S(metal)    S(lipo)     H(rot)  DE(clash)    DE(int)     intcor
     12.83     -14.38       1.00        0.00      88.62       1.88       0.09       1.46       ----

> <Gold.Chemscore.Fitness>
12.8309

> <Gold.Chemscore.DG>
-14.3794

> <Gold.Chemscore.ZeroCoef>
-5.4800

> <Gold.Chemscore.Hbond>
1.0003

> <Gold.Chemscore.Metal>
0.0000

> <Gold.Chemscore.Lipo>
88.6206

> <Gold.Chemscore.Internal_Hbond>
0.0000

> <Gold.Chemscore.DEClash>
0.0883

> <Gold.Chemscore.DEInternal>
1.4602

> <Gold.Chemscore.Rot>
1.8790

> <Gold.Chemscore.Internal.Correction>
   9.000000E+99

> <Gold.Chemscore.Hbonds>
donor molecule, donor type, donor heavy atom, donor atom, acceptor molecule, acceptor atom, score
      P1  H  7997  8010       L1    11  0.98

> <Gold.Chemscore.Hbond.Weighted>
-3.3409

> <Gold.Chemscore.Metal.Weighted>
-0.0000

> <Gold.Chemscore.Lipo.Weighted>
-10.3686

> <Gold.Chemscore.Internal_Hbond.Weighted>
0.0000

> <Gold.Chemscore.DEClash.Weighted>
0.0883

> <Gold.Chemscore.DEInternal.Weighted>
1.4602

> <Gold.Chemscore.Rot.Weighted>
4.8102

> <Gold.Chemscore.Internal.Correction.Weighted>
   9.000000E+99

> <Gold.Protein.RotatedTorsions>
[ 6907 6896 6895 6894 ] final -138.75 input  -60.11 | X-H torsion
[ 7974 7965 7964 7962 ] final  176.57 input  175.53 | X-H torsion
[ 8008 7997 7996 7995 ] final  117.62 input   59.86 | X-H torsion
[ 10167 10162 10161 10158 ] final   -0.62 input  -65.29 | X-H torsion
[ 10718 10713 10712 10709 ] final   56.53 input   66.30 | X-H torsion
[ 10763 10752 10751 10750 ] final  -33.92 input  -60.55 | X-H torsion
[ 11005 11000 10999 10996 ] final -103.50 input  -57.11 | X-H torsion

> <Gold.Protein.ActiveResidues>
 VAL166  LYS551  ARG553  GLY616  TRP617  ASP618  TYR619  PRO620  LYS621  CYS622 
 ASP623  PHE694  ASN695  SER759  ASP760  ASP761  ALA762  ILE779  LEU786  VAL792 
 PHE793  MET794  SER795  GLU796  ALA797  LYS798  CYS799  TRP800  GLU811  SER814 

> <Gold.Protein.RotatedAtoms>
  151.0390  133.5723  159.2652 H   0  0  0  0  0  0  0  0  0  0  0  0  # atno 6907 bound_to 6896
  151.2777  135.0703  159.9167 H   0  0  0  0  0  0  0  0  0  0  0  0  # atno 6908 bound_to 6896
  152.5360  134.0109  159.7992 H   0  0  0  0  0  0  0  0  0  0  0  0  # atno 6909 bound_to 6896
  144.7182  140.0117  143.6440 H   0  0  0  0  0  0  0  0  0  0  0  0  # atno 7974 bound_to 7965
  156.2503  140.2892  156.0706 H   0  0  0  0  0  0  0  0  0  0  0  0  # atno 8008 bound_to 7997
  155.1675  140.0401  157.2873 H   0  0  0  0  0  0  0  0  0  0  0  0  # atno 8009 bound_to 7997
  154.6349  140.2508  155.7396 H   0  0  0  0  0  0  0  0  0  0  0  0  # atno 8010 bound_to 7997
  140.6775  143.6873  150.8056 H   0  0  0  0  0  0  0  0  0  0  0  0  # atno 10167 bound_to 10162
  157.5438  130.8716  149.8861 H   0  0  0  0  0  0  0  0  0  0  0  0  # atno 10718 bound_to 10713
  153.8382  135.6860  153.4806 H   0  0  0  0  0  0  0  0  0  0  0  0  # atno 10763 bound_to 10752
  153.1469  135.4634  154.9578 H   0  0  0  0  0  0  0  0  0  0  0  0  # atno 10764 bound_to 10752
  154.7857  135.3284  154.7838 H   0  0  0  0  0  0  0  0  0  0  0  0  # atno 10765 bound_to 10752
  141.1143  133.8645  157.1494 H   0  0  0  0  0  0  0  0  0  0  0  0  # atno 11005 bound_to 11000
  146.0253  139.3287  143.0788 LP  0  0  0  0  0  0  0  0  0  0  0  0  # atno 17320 bound_to 7965
  145.8519  140.9524  143.0745 LP  0  0  0  0  0  0  0  0  0  0  0  0  # atno 17321 bound_to 7965
  140.0568  143.5194  152.2647 LP  0  0  0  0  0  0  0  0  0  0  0  0  # atno 17342 bound_to 10162
  139.6076  144.7600  151.3025 LP  0  0  0  0  0  0  0  0  0  0  0  0  # atno 17343 bound_to 10162
  156.0519  130.3716  150.1182 LP  0  0  0  0  0  0  0  0  0  0  0  0  # atno 17370 bound_to 10713
  156.9360  130.9729  151.3524 LP  0  0  0  0  0  0  0  0  0  0  0  0  # atno 17371 bound_to 10713
  140.0055  135.0010  157.0283 LP  0  0  0  0  0  0  0  0  0  0  0  0  # atno 17394 bound_to 11000
  140.4690  134.1406  155.7200 LP  0  0  0  0  0  0  0  0  0  0  0  0  # atno 17395 bound_to 11000

$$$$
