AV-unprocessed.smi:104|AV-procd|sdf|1004|dock1
  -GOLD-   2262017593D 1   1.00000     0.00000
 Structure written by MMmdl.
 47 49  0  0  0  0  0  0  0  0  1 V2000
  147.0203  134.8528  162.1613 C   0  0  0  0  0  0  0  0  0  0  0  0
  147.5307  135.8293  161.1100 C   0  0  0  0  0  0  0  0  0  0  0  0
  147.7588  137.0084  161.3815 O   0  0  0  0  0  0  0  0  0  0  0  0
  147.6845  135.2516  159.9108 O   0  0  0  0  0  0  0  0  0  0  0  0
  148.4059  135.9245  158.8926 C   0  0  0  0  0  0  0  0  0  0  0  0
  147.5621  135.9385  157.6147 C   0  0  1  0  0  0  0  0  0  0  0  0
  146.6448  137.0222  157.6430 O   0  0  0  0  0  0  0  0  0  0  0  0
  146.1886  137.2655  156.3519 C   0  0  2  0  0  0  0  0  0  0  0  0
  144.9317  136.4769  156.0906 N   0  0  0  0  0  0  0  0  0  0  0  0
  144.0849  135.7778  156.9358 C   0  0  0  0  0  0  0  0  0  0  0  0
  144.3171  135.6244  158.8225 Br  0  0  0  0  0  0  0  0  0  0  0  0
  143.0476  135.2047  156.3915 N   0  0  0  0  0  0  0  0  0  0  0  0
  143.1480  135.5744  155.0591 C   0  0  0  0  0  0  0  0  0  0  0  0
  142.3625  135.3267  153.9053 C   0  0  0  0  0  0  0  0  0  0  0  0
  141.2518  134.5772  153.9245 N   0  0  0  0  0  0  0  0  0  0  0  0
  142.7478  135.8758  152.7298 N   0  0  0  0  0  0  0  0  0  0  0  0
  143.8478  136.6340  152.6865 C   0  0  0  0  0  0  0  0  0  0  0  0
  144.6826  136.9509  153.6796 N   0  0  0  0  0  0  0  0  0  0  0  0
  144.3008  136.3874  154.8638 C   0  0  0  0  0  0  0  0  0  0  0  0
  147.3138  136.8031  155.4061 C   0  0  1  0  0  0  0  0  0  0  0  0
  147.8228  137.9152  154.6813 O   0  0  0  0  0  0  0  0  0  0  0  0
  148.4019  138.9433  155.3262 C   0  0  0  0  0  0  0  0  0  0  0  0
  148.8547  140.0465  154.3786 C   0  0  0  0  0  0  0  0  0  0  0  0
  148.5686  139.0371  156.5422 O   0  0  0  0  0  0  0  0  0  0  0  0
  148.3662  136.2347  156.3531 C   0  0  2  0  0  0  0  0  0  0  0  0
  148.9180  135.0324  155.8325 O   0  0  0  0  0  0  0  0  0  0  0  0
  149.9788  134.4587  156.4251 C   0  0  0  0  0  0  0  0  0  0  0  0
  150.5221  133.2799  155.6289 C   0  0  0  0  0  0  0  0  0  0  0  0
  150.4922  134.8060  157.4888 O   0  0  0  0  0  0  0  0  0  0  0  0
  145.9986  134.5506  161.9303 H   0  0  0  0  0  0  0  0  0  0  0  0
  147.0302  135.3134  163.1494 H   0  0  0  0  0  0  0  0  0  0  0  0
  147.6473  133.9616  162.1889 H   0  0  0  0  0  0  0  0  0  0  0  0
  148.6545  136.9420  159.1975 H   0  0  0  0  0  0  0  0  0  0  0  0
  149.3423  135.3938  158.7154 H   0  0  0  0  0  0  0  0  0  0  0  0
  147.0168  134.9996  157.4984 H   0  0  0  0  0  0  0  0  0  0  0  0
  145.8833  138.3047  156.2242 H   0  0  0  0  0  0  0  0  0  0  0  0
  140.9417  134.1599  154.7902 H   0  0  0  0  0  0  0  0  0  0  0  0
  140.7288  134.4292  153.0737 H   0  0  0  0  0  0  0  0  0  0  0  0
  144.0962  137.0434  151.7184 H   0  0  0  0  0  0  0  0  0  0  0  0
  146.9287  136.0169  154.7554 H   0  0  0  0  0  0  0  0  0  0  0  0
  148.2162  140.9227  154.4902 H   0  0  0  0  0  0  0  0  0  0  0  0
  148.8073  139.7144  153.3413 H   0  0  0  0  0  0  0  0  0  0  0  0
  149.8818  140.3360  154.6009 H   0  0  0  0  0  0  0  0  0  0  0  0
  149.1267  136.9844  156.5795 H   0  0  0  0  0  0  0  0  0  0  0  0
  149.9082  132.3955  155.7990 H   0  0  0  0  0  0  0  0  0  0  0  0
  151.5451  133.0544  155.9308 H   0  0  0  0  0  0  0  0  0  0  0  0
  150.5200  133.5051  154.5623 H   0  0  0  0  0  0  0  0  0  0  0  0
  1  2  1  0  0  0  0
  1 30  1  0  0  0  0
  1 31  1  0  0  0  0
  1 32  1  0  0  0  0
  2  3  2  0  0  0  0
  2  4  1  0  0  0  0
  4  5  1  0  0  0  0
  5  6  1  0  0  0  0
  5 33  1  0  0  0  0
  5 34  1  0  0  0  0
  6 25  1  0  0  0  0
  6  7  1  0  0  0  0
  6 35  1  0  0  0  0
  7  8  1  0  0  0  0
  8  9  1  0  0  0  0
  8 20  1  0  0  0  0
  8 36  1  0  0  0  0
  9 19  1  0  0  0  0
  9 10  1  0  0  0  0
 10 11  1  0  0  0  0
 10 12  2  0  0  0  0
 12 13  1  0  0  0  0
 13 19  2  0  0  0  0
 13 14  1  0  0  0  0
 14 15  1  0  0  0  0
 14 16  2  0  0  0  0
 15 37  1  0  0  0  0
 15 38  1  0  0  0  0
 16 17  1  0  0  0  0
 17 18  2  0  0  0  0
 17 39  1  0  0  0  0
 18 19  1  0  0  0  0
 20 21  1  0  0  0  0
 20 25  1  0  0  0  0
 20 40  1  0  0  0  0
 21 22  1  0  0  0  0
 22 23  1  0  0  0  0
 22 24  2  0  0  0  0
 23 41  1  0  0  0  0
 23 42  1  0  0  0  0
 23 43  1  0  0  0  0
 25 26  1  0  0  0  0
 25 44  1  0  0  0  0
 26 27  1  0  0  0  0
 27 28  1  0  0  0  0
 27 29  2  0  0  0  0
 28 45  1  0  0  0  0
 28 46  1  0  0  0  0
 28 47  1  0  0  0  0
M  END
> <s_m_source_file>
AV-unprocessed.smi

> <i_m_source_file_index>
104

> <i_lp_mmshare_version>
43012

> <i_f3d_flags>
0

> <s_epik_input>
W0NIM11DKD1PKU9bQ0gyXVtDQEBIXTFPW0NASF0oW0NAQEhdKE9DKD1PKVtDSDNdKVtDQEhdMU9DKD1PKVtDSDNdKW4oYyhCciluMiljKGMyMyluW2NIXW5jM1tOSDJd

> <s_epik_cmdline>
J2VwaWtfcHl0aG9uJywgJy1waCcsICc3LjAnLCAnLXRuJywgJzgnLCAnLW1hJywgJzIwMCcsICctbWV0YWxfYmluZGluZycsICctaW1hZScsICc8aW5maWxlLm1hZT4nLCAnLW9tYWUnLCAnPG91dGZpbGUubWFlPic=

> <r_lp_tautomer_probability>
1

> <r_epik_Ionization_Penalty>
7.36622e-05

> <r_epik_Ionization_Penalty_Charging>
0

> <r_epik_Ionization_Penalty_Neutral>
7.36622e-05

> <r_epik_State_Penalty>
-0

> <r_epik_Charging_Adjusted_Penalty>
0

> <i_epik_Tot_Q>
0

> <i_epik_Tot_abs_Q>
0

> <r_epik_Metal_State_Penalty>
-0

> <b_epik_Metal_Only>
0

> <s_epik_Chemistry_Notes>
This compound has an ester and may undergo hydrolysis at high or low pH. This compound contains an acetal/aminal-like group ( X-CH(R)-Y where X, Y are N, S, or O) that may be acid/base labile, releasing an aldehyde.

> <s_lp_Force_Field>
OPLS_2005

> <r_lp_Energy>
12.8289

> <b_lp_Chiralities_Consistent>
1

> <s_lp_Variant>
AV-unprocessed.smi:104-12

> <Gold.Version>
5.8.1

> <Gold.Id.Protein>
6NUR|6NUR_protein|mol2

> <Gold.PLP.Fitness>
38.2997

> <Gold.PLP.PLP>
-26.5059

> <Gold.PLP.part.hbond>
-5.7228

> <Gold.PLP.part.metal>
0.0000

> <Gold.PLP.part.buried>
-5.6098

> <Gold.PLP.part.nonpolar>
-15.3511

> <Gold.PLP.part.repulsive>
0.6181

> <Gold.PLP.ligand.clash>
0.0000

> <Gold.PLP.ligand.torsion>
0.9854

> <Gold.PLP.Chemscore.Hbond>
3.3040

> <Gold.PLP.Chemscore.CHOScore>
1.0000

> <Gold.PLP.Chemscore.Metal>
0.0000

> <Gold.Chemscore.Hbonds>
donor molecule, donor type, donor heavy atom, donor atom, acceptor molecule, acceptor atom, score
      L1  H    15    37       P1 11000  1.00
      P1  H  6896  6907       L1    29  0.54
      P1  H  6931  6943       L1     3  1.00
      P1  H  6934  6947       L1     3  0.60
      L1  C    17    39       P1 10171  1.00

> <Gold.PLP.Chemscore.Internal.Correction>
0.8526

> <Gold.Rescore>
     Score         DG    S(hbond)    S(metal)    S(lipo)     H(rot)  DE(clash)    DE(int)     intcor
      3.97      -9.24       3.41        0.00      28.95       4.31       0.00       5.27       ----

> <Gold.Chemscore.Fitness>
3.9713

> <Gold.Chemscore.DG>
-9.2387

> <Gold.Chemscore.ZeroCoef>
-5.4800

> <Gold.Chemscore.Hbond>
3.4123

> <Gold.Chemscore.Metal>
0.0000

> <Gold.Chemscore.Lipo>
28.9541

> <Gold.Chemscore.Internal_Hbond>
0.0000

> <Gold.Chemscore.DEClash>
0.0000

> <Gold.Chemscore.DEInternal>
5.2674

> <Gold.Chemscore.Rot>
4.3070

> <Gold.Chemscore.Internal.Correction>
   9.000000E+99

> <Gold.Chemscore.Hbonds>
donor molecule, donor type, donor heavy atom, donor atom, acceptor molecule, acceptor atom, score
      L1  H    15    37       P1 11000  0.90
      P1  H  6896  6907       L1    29  0.53
      P1  H  6931  6943       L1     3  0.98
      P1  H  6934  6947       L1     3  0.59

> <Gold.Chemscore.Hbond.Weighted>
-11.3969

> <Gold.Chemscore.Metal.Weighted>
-0.0000

> <Gold.Chemscore.Lipo.Weighted>
-3.3876

> <Gold.Chemscore.Internal_Hbond.Weighted>
0.0000

> <Gold.Chemscore.DEClash.Weighted>
0.0000

> <Gold.Chemscore.DEInternal.Weighted>
5.2674

> <Gold.Chemscore.Rot.Weighted>
11.0259

> <Gold.Chemscore.Internal.Correction.Weighted>
   9.000000E+99

> <Gold.Protein.RotatedTorsions>
[ 6907 6896 6895 6894 ] final  -85.54 input  -60.11 | X-H torsion
[ 7974 7965 7964 7962 ] final -123.08 input  175.53 | X-H torsion
[ 8008 7997 7996 7995 ] final  -45.11 input   59.86 | X-H torsion
[ 10167 10162 10161 10158 ] final  -87.56 input  -65.29 | X-H torsion
[ 10718 10713 10712 10709 ] final  137.38 input   66.30 | X-H torsion
[ 10763 10752 10751 10750 ] final   47.45 input  -60.55 | X-H torsion
[ 11005 11000 10999 10996 ] final -137.28 input  -57.11 | X-H torsion

> <Gold.Protein.ActiveResidues>
 VAL166  LYS551  ARG553  GLY616  TRP617  ASP618  TYR619  PRO620  LYS621  CYS622 
 ASP623  PHE694  ASN695  SER759  ASP760  ASP761  ALA762  ILE779  LEU786  VAL792 
 PHE793  MET794  SER795  GLU796  ALA797  LYS798  CYS799  TRP800  GLU811  SER814 

> <Gold.Protein.RotatedAtoms>
  150.6870  134.3189  159.4777 H   0  0  0  0  0  0  0  0  0  0  0  0  # atno 6907 bound_to 6896
  152.1067  134.9301  160.0577 H   0  0  0  0  0  0  0  0  0  0  0  0  # atno 6908 bound_to 6896
  152.0559  133.4005  159.4434 H   0  0  0  0  0  0  0  0  0  0  0  0  # atno 6909 bound_to 6896
  145.0225  140.8000  143.4372 H   0  0  0  0  0  0  0  0  0  0  0  0  # atno 7974 bound_to 7965
  154.3999  140.1405  156.3794 H   0  0  0  0  0  0  0  0  0  0  0  0  # atno 8008 bound_to 7997
  155.8018  140.3475  155.5386 H   0  0  0  0  0  0  0  0  0  0  0  0  # atno 8009 bound_to 7997
  155.8475  140.0936  157.1686 H   0  0  0  0  0  0  0  0  0  0  0  0  # atno 8010 bound_to 7997
  140.3832  143.2739  151.9357 H   0  0  0  0  0  0  0  0  0  0  0  0  # atno 10167 bound_to 10162
  157.4367  131.1054  151.0190 H   0  0  0  0  0  0  0  0  0  0  0  0  # atno 10718 bound_to 10713
  152.9800  135.5976  154.3764 H   0  0  0  0  0  0  0  0  0  0  0  0  # atno 10763 bound_to 10752
  154.3433  135.2767  155.2413 H   0  0  0  0  0  0  0  0  0  0  0  0  # atno 10764 bound_to 10752
  154.4484  135.5996  153.6231 H   0  0  0  0  0  0  0  0  0  0  0  0  # atno 10765 bound_to 10752
  140.8726  134.2032  157.4641 H   0  0  0  0  0  0  0  0  0  0  0  0  # atno 11005 bound_to 11000
  145.1876  139.2318  143.5259 LP  0  0  0  0  0  0  0  0  0  0  0  0  # atno 17320 bound_to 7965
  146.3487  140.1665  142.8590 LP  0  0  0  0  0  0  0  0  0  0  0  0  # atno 17321 bound_to 7965
  139.4794  144.5798  151.7951 LP  0  0  0  0  0  0  0  0  0  0  0  0  # atno 17342 bound_to 10162
  140.4916  144.1302  150.5951 LP  0  0  0  0  0  0  0  0  0  0  0  0  # atno 17343 bound_to 10162
  157.1067  130.6004  149.5472 LP  0  0  0  0  0  0  0  0  0  0  0  0  # atno 17370 bound_to 10713
  155.9933  130.4993  150.7375 LP  0  0  0  0  0  0  0  0  0  0  0  0  # atno 17371 bound_to 10713
  139.8713  134.9781  156.4984 LP  0  0  0  0  0  0  0  0  0  0  0  0  # atno 17394 bound_to 11000
  140.8555  133.8099  155.9212 LP  0  0  0  0  0  0  0  0  0  0  0  0  # atno 17395 bound_to 11000

$$$$
