AV-unprocessed.smi:1901|AV-procd|sdf|7717|dock4
  -GOLD-   22720 9453D 1   1.00000     0.00000
 Structure written by MMmdl.
 28 29  0  0  0  0  0  0  0  0  1 V2000
  144.6643  136.8188  152.5625 O   0  0  0  0  0  0  0  0  0  0  0  0
  145.8622  136.5884  152.3952 C   0  0  0  0  0  0  0  0  0  0  0  0
  146.8405  137.3822  152.8546 N   0  0  0  0  0  0  0  0  0  0  0  0
  146.6465  138.6152  153.6116 C   0  0  0  0  0  0  0  0  0  0  0  0
  147.8768  139.5383  153.5321 C   0  0  1  0  0  0  0  0  0  0  0  0
  147.7149  140.8391  154.2910 C   0  0  0  0  0  0  0  0  0  0  0  0
  149.1600  141.3085  154.4303 C   0  0  0  0  0  0  0  0  0  0  0  0
  149.9515  140.1251  154.4829 O   0  0  0  0  0  0  0  0  0  0  0  0
  149.1501  138.9878  154.1778 C   0  0  0  0  0  0  0  0  0  0  0  0
  146.3657  135.5266  151.7419 N   0  0  0  0  0  0  0  0  0  0  0  0
  145.6611  134.4544  151.1344 C   0  0  0  0  0  0  0  0  0  0  0  0
  144.3303  134.4043  151.0015 N   0  0  0  0  0  0  0  0  0  0  0  0
  143.9105  133.2330  150.3661 C   0  0  0  0  0  0  0  0  0  0  0  0
  144.9420  132.3956  150.0205 C   0  0  0  0  0  0  0  0  0  0  0  0
  146.4911  133.0493  150.4817 S   0  0  0  0  0  0  0  0  0  0  0  0
  147.7954  137.1131  152.6678 H   0  0  0  0  0  0  0  0  0  0  0  0
  145.7818  139.1268  153.1884 H   0  0  0  0  0  0  0  0  0  0  0  0
  146.3923  138.3987  154.6508 H   0  0  0  0  0  0  0  0  0  0  0  0
  148.0868  139.7739  152.4873 H   0  0  0  0  0  0  0  0  0  0  0  0
  147.0826  141.5621  153.7744 H   0  0  0  0  0  0  0  0  0  0  0  0
  147.2864  140.6537  155.2771 H   0  0  0  0  0  0  0  0  0  0  0  0
  149.4591  141.8854  153.5543 H   0  0  0  0  0  0  0  0  0  0  0  0
  149.3112  141.9303  155.3128 H   0  0  0  0  0  0  0  0  0  0  0  0
  148.9181  138.4724  155.1108 H   0  0  0  0  0  0  0  0  0  0  0  0
  149.6814  138.2904  153.5299 H   0  0  0  0  0  0  0  0  0  0  0  0
  147.3715  135.4748  151.6773 H   0  0  0  0  0  0  0  0  0  0  0  0
  142.8552  133.0756  150.1990 H   0  0  0  0  0  0  0  0  0  0  0  0
  144.8843  131.4384  149.5243 H   0  0  0  0  0  0  0  0  0  0  0  0
  1  2  2  0  0  0  0
  2  3  1  0  0  0  0
  2 10  1  0  0  0  0
  3  4  1  0  0  0  0
  3 16  1  0  0  0  0
  4  5  1  0  0  0  0
  4 17  1  0  0  0  0
  4 18  1  0  0  0  0
  5  9  1  0  0  0  0
  5  6  1  0  0  0  0
  5 19  1  0  0  0  0
  6  7  1  0  0  0  0
  6 20  1  0  0  0  0
  6 21  1  0  0  0  0
  7  8  1  0  0  0  0
  7 22  1  0  0  0  0
  7 23  1  0  0  0  0
  8  9  1  0  0  0  0
  9 24  1  0  0  0  0
  9 25  1  0  0  0  0
 10 11  1  0  0  0  0
 10 26  1  0  0  0  0
 11 15  1  0  0  0  0
 11 12  2  0  0  0  0
 12 13  1  0  0  0  0
 13 14  2  0  0  0  0
 13 27  1  0  0  0  0
 14 15  1  0  0  0  0
 14 28  1  0  0  0  0
M  END
> <s_m_source_file>
AV-unprocessed.smi

> <i_m_source_file_index>
1901

> <i_lp_mmshare_version>
43012

> <i_f3d_flags>
0

> <s_epik_input>
czFbY0hdW2NIXW5jMVtOSF1DKD1PKVtOSF1bQ0gyXVtDQEBIXTJbQ0gyXVtDSDJdT1tDSDJdMg==

> <s_epik_cmdline>
J2VwaWtfcHl0aG9uJywgJy1waCcsICc3LjAnLCAnLXRuJywgJzgnLCAnLW1hJywgJzIwMCcsICctbWV0YWxfYmluZGluZycsICctaW1hZScsICc8aW5maWxlLm1hZT4nLCAnLW9tYWUnLCAnPG91dGZpbGUubWFlPic=

> <r_lp_tautomer_probability>
0.999

> <r_epik_Ionization_Penalty>
0.000365592

> <r_epik_Ionization_Penalty_Charging>
0

> <r_epik_Ionization_Penalty_Neutral>
0.000365592

> <r_epik_State_Penalty>
0.000177984

> <r_epik_Charging_Adjusted_Penalty>
0.000177984

> <i_epik_Tot_Q>
0

> <i_epik_Tot_abs_Q>
0

> <r_epik_Metal_State_Penalty>
0.00682492

> <b_epik_Metal_Only>
0

> <s_lp_Force_Field>
OPLS_2005

> <r_lp_Energy>
17.1136

> <b_lp_Chiralities_Consistent>
1

> <s_lp_Variant>
AV-unprocessed.smi:1901-2

> <Gold.Version>
5.8.1

> <Gold.Id.Protein>
6NUR|6NUR_protein|mol2

> <Gold.PLP.Fitness>
36.9642

> <Gold.PLP.PLP>
-25.3223

> <Gold.PLP.part.hbond>
-3.0000

> <Gold.PLP.part.metal>
0.0000

> <Gold.PLP.part.buried>
-1.3271

> <Gold.PLP.part.nonpolar>
-20.7176

> <Gold.PLP.part.repulsive>
0.5240

> <Gold.PLP.ligand.clash>
0.0000

> <Gold.PLP.ligand.torsion>
0.1704

> <Gold.PLP.Chemscore.Hbond>
2.9920

> <Gold.PLP.Chemscore.CHOScore>
1.0000

> <Gold.PLP.Chemscore.Metal>
0.0000

> <Gold.Chemscore.Hbonds>
donor molecule, donor type, donor heavy atom, donor atom, acceptor molecule, acceptor atom, score
      L1  H     3    16       P1  7948  1.00
      L1  H    10    26       P1  7948  1.00
      P1  H  7989  7998       L1     8  0.75
      L1  C    13    27       P1 10186  1.00

> <Gold.PLP.Chemscore.Internal.Correction>
0.0067

> <Gold.Rescore>
     Score         DG    S(hbond)    S(metal)    S(lipo)     H(rot)  DE(clash)    DE(int)     intcor
     15.38     -17.15       2.43        0.00      59.19       1.32       0.34       1.43       ----

> <Gold.Chemscore.Fitness>
15.3755

> <Gold.Chemscore.DG>
-17.1534

> <Gold.Chemscore.ZeroCoef>
-5.4800

> <Gold.Chemscore.Hbond>
2.4304

> <Gold.Chemscore.Metal>
0.0000

> <Gold.Chemscore.Lipo>
59.1929

> <Gold.Chemscore.Internal_Hbond>
0.0000

> <Gold.Chemscore.DEClash>
0.3444

> <Gold.Chemscore.DEInternal>
1.4335

> <Gold.Chemscore.Rot>
1.3163

> <Gold.Chemscore.Internal.Correction>
   9.000000E+99

> <Gold.Chemscore.Hbonds>
donor molecule, donor type, donor heavy atom, donor atom, acceptor molecule, acceptor atom, score
      L1  H     3    16       P1  7948  0.97
      L1  H    10    26       P1  7948  0.94
      P1  H  7989  7998       L1     8  0.12

> <Gold.Chemscore.Hbond.Weighted>
-8.1177

> <Gold.Chemscore.Metal.Weighted>
-0.0000

> <Gold.Chemscore.Lipo.Weighted>
-6.9256

> <Gold.Chemscore.Internal_Hbond.Weighted>
0.0000

> <Gold.Chemscore.DEClash.Weighted>
0.3444

> <Gold.Chemscore.DEInternal.Weighted>
1.4335

> <Gold.Chemscore.Rot.Weighted>
3.3698

> <Gold.Chemscore.Internal.Correction.Weighted>
   9.000000E+99

> <Gold.Protein.RotatedTorsions>
[ 6907 6896 6895 6894 ] final   90.68 input  -60.11 | X-H torsion
[ 7974 7965 7964 7962 ] final  -99.74 input  175.53 | X-H torsion
[ 8008 7997 7996 7995 ] final  169.29 input   59.86 | X-H torsion
[ 10167 10162 10161 10158 ] final  108.82 input  -65.29 | X-H torsion
[ 10718 10713 10712 10709 ] final  168.73 input   66.30 | X-H torsion
[ 10763 10752 10751 10750 ] final  161.02 input  -60.55 | X-H torsion
[ 11005 11000 10999 10996 ] final -143.54 input  -57.11 | X-H torsion

> <Gold.Protein.ActiveResidues>
 VAL166  LYS551  ARG553  GLY616  TRP617  ASP618  TYR619  PRO620  LYS621  CYS622 
 ASP623  PHE694  ASN695  SER759  ASP760  ASP761  ALA762  ILE779  LEU786  VAL792 
 PHE793  MET794  SER795  GLU796  ALA797  LYS798  CYS799  TRP800  GLU811  SER814 

> <Gold.Protein.RotatedAtoms>
  152.5446  134.1774  159.8621 H   0  0  0  0  0  0  0  0  0  0  0  0  # atno 6907 bound_to 6896
  151.1779  133.4736  159.2601 H   0  0  0  0  0  0  0  0  0  0  0  0  # atno 6908 bound_to 6896
  151.1208  135.0090  159.8593 H   0  0  0  0  0  0  0  0  0  0  0  0  # atno 6909 bound_to 6896
  145.3036  140.9383  143.2810 H   0  0  0  0  0  0  0  0  0  0  0  0  # atno 7974 bound_to 7965
  156.1470  140.1568  156.8831 H   0  0  0  0  0  0  0  0  0  0  0  0  # atno 8008 bound_to 7997
  154.5037  140.0818  156.7888 H   0  0  0  0  0  0  0  0  0  0  0  0  # atno 8009 bound_to 7997
  155.3969  140.3412  155.4257 H   0  0  0  0  0  0  0  0  0  0  0  0  # atno 8010 bound_to 7997
  139.6815  144.7117  151.1507 H   0  0  0  0  0  0  0  0  0  0  0  0  # atno 10167 bound_to 10162
  157.0328  131.0264  151.2739 H   0  0  0  0  0  0  0  0  0  0  0  0  # atno 10718 bound_to 10713
  154.2564  135.2770  155.2796 H   0  0  0  0  0  0  0  0  0  0  0  0  # atno 10763 bound_to 10752
  154.5421  135.5699  153.6852 H   0  0  0  0  0  0  0  0  0  0  0  0  # atno 10764 bound_to 10752
  152.9970  135.6253  154.2713 H   0  0  0  0  0  0  0  0  0  0  0  0  # atno 10765 bound_to 10752
  140.8115  134.2738  157.4939 H   0  0  0  0  0  0  0  0  0  0  0  0  # atno 11005 bound_to 11000
  144.9073  139.4572  143.6603 LP  0  0  0  0  0  0  0  0  0  0  0  0  # atno 17320 bound_to 7965
  146.3143  139.7862  142.8995 LP  0  0  0  0  0  0  0  0  0  0  0  0  # atno 17321 bound_to 7965
  140.7654  143.5692  150.9014 LP  0  0  0  0  0  0  0  0  0  0  0  0  # atno 17342 bound_to 10162
  139.9364  143.6433  152.3064 LP  0  0  0  0  0  0  0  0  0  0  0  0  # atno 17343 bound_to 10162
  157.5164  130.7971  149.7761 LP  0  0  0  0  0  0  0  0  0  0  0  0  # atno 17370 bound_to 10713
  156.0064  130.3854  150.2418 LP  0  0  0  0  0  0  0  0  0  0  0  0  # atno 17371 bound_to 10713
  139.8714  134.9486  156.4000 LP  0  0  0  0  0  0  0  0  0  0  0  0  # atno 17394 bound_to 11000
  140.9192  133.7656  155.9886 LP  0  0  0  0  0  0  0  0  0  0  0  0  # atno 17395 bound_to 11000

$$$$
