AV-unprocessed.smi:2402|AV-procd|sdf|9508|dock3
  -GOLD-   2272013133D 1   1.00000     0.00000
 Structure written by MMmdl.
 38 39  0  0  0  0  0  0  0  0  1 V2000
  154.5421  140.1556  161.2409 C   0  0  0  0  0  0  0  0  0  0  0  0
  153.5737  140.9948  160.4338 C   0  0  0  0  0  0  0  0  0  0  0  0
  153.3618  142.3523  160.7420 C   0  0  0  0  0  0  0  0  0  0  0  0
  152.4476  143.0779  159.9532 C   0  0  0  0  0  0  0  0  0  0  0  0
  152.1657  144.5394  160.2318 C   0  0  0  0  0  0  0  0  0  0  0  0
  151.7719  142.5329  158.9190 N   0  0  0  0  0  0  0  0  0  0  0  0
  151.9697  141.2268  158.6116 C   0  0  0  0  0  0  0  0  0  0  0  0
  151.3101  140.5595  157.5452 N   0  0  0  0  0  0  0  0  0  0  0  0
  150.7297  141.0998  156.4591 C   0  0  0  0  0  0  0  0  0  0  0  0
  150.6779  142.3030  156.2018 O   0  0  0  0  0  0  0  0  0  0  0  0
  150.2063  140.1535  155.6662 N   0  0  0  0  0  0  0  0  0  0  0  0
  149.5280  140.4109  154.4006 C   0  0  1  0  0  0  0  0  0  0  0  0
  148.5287  139.3266  154.1032 C   0  0  0  0  0  0  0  0  0  0  0  0
  147.3107  139.8044  153.8570 C   0  0  0  0  0  0  0  0  0  0  0  0
  147.2432  141.3064  153.9451 C   0  0  1  0  0  0  0  0  0  0  0  0
  146.1134  141.7855  154.8713 C   0  0  0  0  0  0  0  0  0  0  0  0
  144.9703  140.9734  154.7059 O   0  0  0  0  0  0  0  0  0  0  0  0
  148.6640  141.6988  154.4279 C   0  0  0  0  0  0  0  0  0  0  0  0
  152.8667  140.4270  159.3548 C   0  0  0  0  0  0  0  0  0  0  0  0
  150.2501  140.4426  153.5831 H   0  0  0  0  0  0  0  0  0  0  0  0
  147.0764  141.6815  152.9343 H   0  0  0  0  0  0  0  0  0  0  0  0
  154.9273  140.7085  162.0982 H   0  0  0  0  0  0  0  0  0  0  0  0
  155.3867  139.8542  160.6212 H   0  0  0  0  0  0  0  0  0  0  0  0
  154.0474  139.2569  161.6098 H   0  0  0  0  0  0  0  0  0  0  0  0
  153.8846  142.8241  161.5613 H   0  0  0  0  0  0  0  0  0  0  0  0
  152.7900  144.9157  161.0425 H   0  0  0  0  0  0  0  0  0  0  0  0
  151.1215  144.6753  160.5149 H   0  0  0  0  0  0  0  0  0  0  0  0
  152.3623  145.1405  159.3437 H   0  0  0  0  0  0  0  0  0  0  0  0
  151.2845  139.5531  157.6137 H   0  0  0  0  0  0  0  0  0  0  0  0
  150.2888  139.1888  155.9521 H   0  0  0  0  0  0  0  0  0  0  0  0
  148.8021  138.2818  154.0800 H   0  0  0  0  0  0  0  0  0  0  0  0
  146.4488  139.2044  153.6054 H   0  0  0  0  0  0  0  0  0  0  0  0
  146.4271  141.7300  155.9143 H   0  0  0  0  0  0  0  0  0  0  0  0
  145.8532  142.8246  154.6664 H   0  0  0  0  0  0  0  0  0  0  0  0
  144.7599  140.9329  153.7856 H   0  0  0  0  0  0  0  0  0  0  0  0
  148.6201  142.1094  155.4379 H   0  0  0  0  0  0  0  0  0  0  0  0
  149.0953  142.4755  153.7954 H   0  0  0  0  0  0  0  0  0  0  0  0
  153.0143  139.3871  159.1007 H   0  0  0  0  0  0  0  0  0  0  0  0
  1  2  1  0  0  0  0
  1 22  1  0  0  0  0
  1 23  1  0  0  0  0
  1 24  1  0  0  0  0
  2 19  1  0  0  0  0
  2  3  2  0  0  0  0
  3  4  1  0  0  0  0
  3 25  1  0  0  0  0
  4  5  1  0  0  0  0
  4  6  2  0  0  0  0
  5 26  1  0  0  0  0
  5 27  1  0  0  0  0
  5 28  1  0  0  0  0
  6  7  1  0  0  0  0
  7  8  1  0  0  0  0
  7 19  2  0  0  0  0
  8  9  1  0  0  0  0
  8 29  1  0  0  0  0
  9 10  2  0  0  0  0
  9 11  1  0  0  0  0
 11 12  1  0  0  0  0
 11 30  1  0  0  0  0
 12 20  1  0  0  0  0
 12 18  1  0  0  0  0
 12 13  1  0  0  0  0
 13 14  2  0  0  0  0
 13 31  1  0  0  0  0
 14 15  1  0  0  0  0
 14 32  1  0  0  0  0
 15 21  1  0  0  0  0
 15 16  1  0  0  0  0
 15 18  1  0  0  0  0
 16 17  1  0  0  0  0
 16 33  1  0  0  0  0
 16 34  1  0  0  0  0
 17 35  1  0  0  0  0
 18 36  1  0  0  0  0
 18 37  1  0  0  0  0
 19 38  1  0  0  0  0
M  END
> <s_m_source_file>
AV-unprocessed.smi

> <i_m_source_file_index>
2402

> <i_lp_mmshare_version>
43012

> <i_f3d_flags>
0

> <s_epik_input>
W0NIM11jMVtjSF1jKFtDSDNdKW5jKFtjSF0xKVtOSF1DKD1PKVtOSF1bQ0BASF0yW0NIXT1bQ0hdW0NAQEhdKFtDSDJdMilbQ0gyXVtPSF0=

> <s_epik_cmdline>
J2VwaWtfcHl0aG9uJywgJy1waCcsICc3LjAnLCAnLXRuJywgJzgnLCAnLW1hJywgJzIwMCcsICctbWV0YWxfYmluZGluZycsICctaW1hZScsICc8aW5maWxlLm1hZT4nLCAnLW9tYWUnLCAnPG91dGZpbGUubWFlPic=

> <r_lp_tautomer_probability>
1

> <r_epik_Ionization_Penalty>
0.000257495

> <r_epik_Ionization_Penalty_Charging>
0

> <r_epik_Ionization_Penalty_Neutral>
0.000257495

> <r_epik_State_Penalty>
-0

> <r_epik_Charging_Adjusted_Penalty>
0

> <i_epik_Tot_Q>
0

> <i_epik_Tot_abs_Q>
0

> <r_epik_Metal_State_Penalty>
-0

> <b_epik_Metal_Only>
0

> <s_lp_Force_Field>
OPLS_2005

> <r_lp_Energy>
18.3393

> <b_lp_Chiralities_Consistent>
1

> <s_lp_Variant>
AV-unprocessed.smi:2402-4

> <Gold.Version>
5.8.1

> <Gold.Id.Protein>
6NUR|6NUR_protein|mol2

> <Gold.PLP.Fitness>
41.6292

> <Gold.PLP.PLP>
-39.9601

> <Gold.PLP.part.hbond>
-1.0000

> <Gold.PLP.part.metal>
0.0000

> <Gold.PLP.part.buried>
-3.2827

> <Gold.PLP.part.nonpolar>
-34.9210

> <Gold.PLP.part.repulsive>
0.6498

> <Gold.PLP.ligand.clash>
0.0000

> <Gold.PLP.ligand.torsion>
0.6731

> <Gold.PLP.Chemscore.Hbond>
1.0000

> <Gold.PLP.Chemscore.CHOScore>
0.0000

> <Gold.PLP.Chemscore.Metal>
0.0000

> <Gold.Chemscore.Hbonds>
donor molecule, donor type, donor heavy atom, donor atom, acceptor molecule, acceptor atom, score
      L1  H    17    35       P1 10175  1.00

> <Gold.PLP.Chemscore.Internal.Correction>
0.0154

> <Gold.Rescore>
     Score         DG    S(hbond)    S(metal)    S(lipo)     H(rot)  DE(clash)    DE(int)     intcor
     12.27     -15.70       0.99        0.00      98.24       1.78       0.00       3.42       ----

> <Gold.Chemscore.Fitness>
12.2748

> <Gold.Chemscore.DG>
-15.7021

> <Gold.Chemscore.ZeroCoef>
-5.4800

> <Gold.Chemscore.Hbond>
0.9869

> <Gold.Chemscore.Metal>
0.0000

> <Gold.Chemscore.Lipo>
98.2383

> <Gold.Chemscore.Internal_Hbond>
0.0000

> <Gold.Chemscore.DEClash>
0.0048

> <Gold.Chemscore.DEInternal>
3.4224

> <Gold.Chemscore.Rot>
1.7844

> <Gold.Chemscore.Internal.Correction>
   9.000000E+99

> <Gold.Chemscore.Hbonds>
donor molecule, donor type, donor heavy atom, donor atom, acceptor molecule, acceptor atom, score
      L1  H    17    35       P1 10175  0.81

> <Gold.Chemscore.Hbond.Weighted>
-3.2963

> <Gold.Chemscore.Metal.Weighted>
-0.0000

> <Gold.Chemscore.Lipo.Weighted>
-11.4939

> <Gold.Chemscore.Internal_Hbond.Weighted>
0.0000

> <Gold.Chemscore.DEClash.Weighted>
0.0048

> <Gold.Chemscore.DEInternal.Weighted>
3.4224

> <Gold.Chemscore.Rot.Weighted>
4.5681

> <Gold.Chemscore.Internal.Correction.Weighted>
   9.000000E+99

> <Gold.Protein.RotatedTorsions>
[ 6907 6896 6895 6894 ] final  -53.42 input  -60.11 | X-H torsion
[ 7974 7965 7964 7962 ] final  108.92 input  175.53 | X-H torsion
[ 8008 7997 7996 7995 ] final  116.79 input   59.86 | X-H torsion
[ 10167 10162 10161 10158 ] final -137.27 input  -65.29 | X-H torsion
[ 10718 10713 10712 10709 ] final -126.42 input   66.30 | X-H torsion
[ 10763 10752 10751 10750 ] final  -39.71 input  -60.55 | X-H torsion
[ 11005 11000 10999 10996 ] final    8.61 input  -57.11 | X-H torsion

> <Gold.Protein.ActiveResidues>
 VAL166  LYS551  ARG553  GLY616  TRP617  ASP618  TYR619  PRO620  LYS621  CYS622 
 ASP623  PHE694  ASN695  SER759  ASP760  ASP761  ALA762  ILE779  LEU786  VAL792 
 PHE793  MET794  SER795  GLU796  ALA797  LYS798  CYS799  TRP800  GLU811  SER814 

> <Gold.Protein.RotatedAtoms>
  150.8428  134.7727  159.6946 H   0  0  0  0  0  0  0  0  0  0  0  0  # atno 6907 bound_to 6896
  152.4512  134.5386  159.9842 H   0  0  0  0  0  0  0  0  0  0  0  0  # atno 6908 bound_to 6896
  151.5523  133.3378  159.2991 H   0  0  0  0  0  0  0  0  0  0  0  0  # atno 6909 bound_to 6896
  145.2744  139.2655  143.3949 H   0  0  0  0  0  0  0  0  0  0  0  0  # atno 7974 bound_to 7965
  156.2459  140.2910  156.0578 H   0  0  0  0  0  0  0  0  0  0  0  0  # atno 8008 bound_to 7997
  155.1809  140.0404  157.2899 H   0  0  0  0  0  0  0  0  0  0  0  0  # atno 8009 bound_to 7997
  154.6260  140.2487  155.7498 H   0  0  0  0  0  0  0  0  0  0  0  0  # atno 8010 bound_to 7997
  139.8594  143.7096  152.2651 H   0  0  0  0  0  0  0  0  0  0  0  0  # atno 10167 bound_to 10162
  156.1763  130.6702  151.0247 H   0  0  0  0  0  0  0  0  0  0  0  0  # atno 10718 bound_to 10713
  153.9338  135.6769  153.4745 H   0  0  0  0  0  0  0  0  0  0  0  0  # atno 10763 bound_to 10752
  153.0966  135.4848  154.8787 H   0  0  0  0  0  0  0  0  0  0  0  0  # atno 10764 bound_to 10752
  154.7414  135.3161  154.8680 H   0  0  0  0  0  0  0  0  0  0  0  0  # atno 10765 bound_to 10752
  140.5350  134.0430  155.7885 H   0  0  0  0  0  0  0  0  0  0  0  0  # atno 11005 bound_to 11000
  146.3236  140.3196  142.8632 LP  0  0  0  0  0  0  0  0  0  0  0  0  # atno 17320 bound_to 7965
  144.9307  140.7971  143.5691 LP  0  0  0  0  0  0  0  0  0  0  0  0  # atno 17321 bound_to 7965
  139.7388  144.7564  151.0685 LP  0  0  0  0  0  0  0  0  0  0  0  0  # atno 17342 bound_to 10162
  140.7777  143.4998  150.9786 LP  0  0  0  0  0  0  0  0  0  0  0  0  # atno 17343 bound_to 10162
  157.6838  131.0830  150.7298 LP  0  0  0  0  0  0  0  0  0  0  0  0  # atno 17370 bound_to 10713
  156.7356  130.4723  149.5489 LP  0  0  0  0  0  0  0  0  0  0  0  0  # atno 17371 bound_to 10713
  141.1260  133.9382  157.2635 LP  0  0  0  0  0  0  0  0  0  0  0  0  # atno 17394 bound_to 11000
  139.9534  135.0171  156.9059 LP  0  0  0  0  0  0  0  0  0  0  0  0  # atno 17395 bound_to 11000

$$$$
