AV-unprocessed.smi:963|AV-procd|sdf|4276|dock5
  -GOLD-   22720 2183D 1   1.00000     0.00000
 Structure written by MMmdl.
 36 37  0  0  0  0  0  0  0  0  1 V2000
  155.8487  137.5751  164.9297 C   0  0  0  0  0  0  0  0  0  0  0  0
  154.7558  136.7278  164.2691 C   0  0  0  0  0  0  0  0  0  0  0  0
  154.6297  137.0057  162.7999 C   0  0  0  0  0  0  0  0  0  0  0  0
  154.4162  138.3180  162.3667 N   0  0  0  0  0  0  0  0  0  0  0  0
  154.3136  138.4131  161.0396 C   0  0  0  0  0  0  0  0  0  0  0  0
  154.1274  139.7053  160.3176 C   0  0  0  0  0  0  0  0  0  0  0  0
  154.0027  140.8965  161.2767 C   0  0  0  0  0  0  0  0  0  0  0  0
  153.4946  142.0696  160.5749 N   0  0  0  0  0  0  0  0  0  0  0  0
  152.4953  142.8611  160.9953 C   0  0  0  0  0  0  0  0  0  0  0  0
  151.8561  142.6735  162.0301 O   0  0  0  0  0  0  0  0  0  0  0  0
  152.2037  143.8405  160.1242 N   0  0  0  0  0  0  0  0  0  0  0  0
  151.0395  144.7165  160.0298 C   0  0  0  0  0  0  0  0  0  0  0  0
  151.5958  145.1530  158.6765 C   0  0  0  0  0  0  0  0  0  0  0  0
  152.5088  143.9292  158.7016 C   0  0  0  0  0  0  0  0  0  0  0  0
  154.4957  136.8686  160.2205 S   0  0  0  0  0  0  0  0  0  0  0  0
  154.6907  136.0935  161.7718 C   0  0  0  0  0  0  0  0  0  0  0  0
  154.8968  134.6181  161.8667 C   0  0  0  0  0  0  0  0  0  0  0  0
  155.9211  137.3536  165.9945 H   0  0  0  0  0  0  0  0  0  0  0  0
  155.6374  138.6396  164.8240 H   0  0  0  0  0  0  0  0  0  0  0  0
  156.8237  137.3802  164.4818 H   0  0  0  0  0  0  0  0  0  0  0  0
  154.9757  135.6719  164.4304 H   0  0  0  0  0  0  0  0  0  0  0  0
  153.8062  136.9111  164.7722 H   0  0  0  0  0  0  0  0  0  0  0  0
  154.9734  139.8515  159.6451 H   0  0  0  0  0  0  0  0  0  0  0  0
  153.2381  139.6306  159.6901 H   0  0  0  0  0  0  0  0  0  0  0  0
  153.3111  140.6560  162.0847 H   0  0  0  0  0  0  0  0  0  0  0  0
  154.9702  141.0950  161.7410 H   0  0  0  0  0  0  0  0  0  0  0  0
  153.9322  142.2955  159.6937 H   0  0  0  0  0  0  0  0  0  0  0  0
  150.0907  144.1817  159.9618 H   0  0  0  0  0  0  0  0  0  0  0  0
  151.0063  145.5169  160.7697 H   0  0  0  0  0  0  0  0  0  0  0  0
  150.8655  145.1553  157.8667 H   0  0  0  0  0  0  0  0  0  0  0  0
  152.1467  146.0937  158.7280 H   0  0  0  0  0  0  0  0  0  0  0  0
  153.5512  144.1523  158.4713 H   0  0  0  0  0  0  0  0  0  0  0  0
  152.1319  143.0883  158.1174 H   0  0  0  0  0  0  0  0  0  0  0  0
  154.2399  134.1821  162.6196 H   0  0  0  0  0  0  0  0  0  0  0  0
  155.9266  134.3893  162.1418 H   0  0  0  0  0  0  0  0  0  0  0  0
  154.6860  134.1284  160.9157 H   0  0  0  0  0  0  0  0  0  0  0  0
  1  2  1  0  0  0  0
  1 18  1  0  0  0  0
  1 19  1  0  0  0  0
  1 20  1  0  0  0  0
  2  3  1  0  0  0  0
  2 21  1  0  0  0  0
  2 22  1  0  0  0  0
  3 16  2  0  0  0  0
  3  4  1  0  0  0  0
  4  5  2  0  0  0  0
  5  6  1  0  0  0  0
  5 15  1  0  0  0  0
  6  7  1  0  0  0  0
  6 23  1  0  0  0  0
  6 24  1  0  0  0  0
  7  8  1  0  0  0  0
  7 25  1  0  0  0  0
  7 26  1  0  0  0  0
  8  9  1  0  0  0  0
  8 27  1  0  0  0  0
  9 10  2  0  0  0  0
  9 11  1  0  0  0  0
 11 14  1  0  0  0  0
 11 12  1  0  0  0  0
 12 13  1  0  0  0  0
 12 28  1  0  0  0  0
 12 29  1  0  0  0  0
 13 14  1  0  0  0  0
 13 30  1  0  0  0  0
 13 31  1  0  0  0  0
 14 32  1  0  0  0  0
 14 33  1  0  0  0  0
 15 16  1  0  0  0  0
 16 17  1  0  0  0  0
 17 34  1  0  0  0  0
 17 35  1  0  0  0  0
 17 36  1  0  0  0  0
M  END
> <s_m_source_file>
AV-unprocessed.smi

> <i_m_source_file_index>
963

> <i_lp_mmshare_version>
43012

> <i_f3d_flags>
0

> <s_epik_input>
W0NIM11bQ0gyXWMxbmMoc2MxW0NIM10pW0NIMl1bQ0gyXVtOSF1DKD1PKU4yW0NIMl1bQ0gyXVtDSDJdMg==

> <s_epik_cmdline>
J2VwaWtfcHl0aG9uJywgJy1waCcsICc3LjAnLCAnLXRuJywgJzgnLCAnLW1hJywgJzIwMCcsICctbWV0YWxfYmluZGluZycsICctaW1hZScsICc8aW5maWxlLm1hZT4nLCAnLW9tYWUnLCAnPG91dGZpbGUubWFlPic=

> <r_epik_Ionization_Penalty>
0.00446738

> <r_epik_Ionization_Penalty_Charging>
0

> <r_epik_Ionization_Penalty_Neutral>
0.00446738

> <r_epik_State_Penalty>
0.00317617

> <r_epik_Charging_Adjusted_Penalty>
0.00317617

> <i_epik_Tot_Q>
0

> <i_epik_Tot_abs_Q>
0

> <r_epik_Metal_State_Penalty>
-0

> <b_epik_Metal_Only>
0

> <s_lp_Force_Field>
OPLS_2005

> <r_lp_Energy>
11.733

> <b_lp_Chiralities_Consistent>
1

> <s_lp_Variant>
AV-unprocessed.smi:963-1

> <Gold.Version>
5.8.1

> <Gold.Id.Protein>
6NUR|6NUR_protein|mol2

> <Gold.PLP.Fitness>
42.8051

> <Gold.PLP.PLP>
-40.6699

> <Gold.PLP.part.hbond>
-1.0000

> <Gold.PLP.part.metal>
0.0000

> <Gold.PLP.part.buried>
-6.0303

> <Gold.PLP.part.nonpolar>
-34.4685

> <Gold.PLP.part.repulsive>
0.3128

> <Gold.PLP.ligand.clash>
0.0000

> <Gold.PLP.ligand.torsion>
0.2902

> <Gold.PLP.Chemscore.Hbond>
0.8089

> <Gold.PLP.Chemscore.CHOScore>
0.0000

> <Gold.PLP.Chemscore.Metal>
0.0000

> <Gold.Chemscore.Hbonds>
donor molecule, donor type, donor heavy atom, donor atom, acceptor molecule, acceptor atom, score
      P1  H  6933  6945       L1    10  0.87

> <Gold.PLP.Chemscore.Internal.Correction>
0.2890

> <Gold.Rescore>
     Score         DG    S(hbond)    S(metal)    S(lipo)     H(rot)  DE(clash)    DE(int)     intcor
     15.55     -15.91       0.77        0.00      99.41       1.48       0.03       0.32       ----

> <Gold.Chemscore.Fitness>
15.5490

> <Gold.Chemscore.DG>
-15.9068

> <Gold.Chemscore.ZeroCoef>
-5.4800

> <Gold.Chemscore.Hbond>
0.7704

> <Gold.Chemscore.Metal>
0.0000

> <Gold.Chemscore.Lipo>
99.4150

> <Gold.Chemscore.Internal_Hbond>
0.0000

> <Gold.Chemscore.DEClash>
0.0341

> <Gold.Chemscore.DEInternal>
0.3237

> <Gold.Chemscore.Rot>
1.4758

> <Gold.Chemscore.Internal.Correction>
   9.000000E+99

> <Gold.Chemscore.Hbonds>
donor molecule, donor type, donor heavy atom, donor atom, acceptor molecule, acceptor atom, score
      P1  H  6933  6945       L1    10  0.80

> <Gold.Chemscore.Hbond.Weighted>
-2.5732

> <Gold.Chemscore.Metal.Weighted>
-0.0000

> <Gold.Chemscore.Lipo.Weighted>
-11.6316

> <Gold.Chemscore.Internal_Hbond.Weighted>
0.0000

> <Gold.Chemscore.DEClash.Weighted>
0.0341

> <Gold.Chemscore.DEInternal.Weighted>
0.3237

> <Gold.Chemscore.Rot.Weighted>
3.7780

> <Gold.Chemscore.Internal.Correction.Weighted>
   9.000000E+99

> <Gold.Protein.RotatedTorsions>
[ 6907 6896 6895 6894 ] final  105.73 input  -60.11 | X-H torsion
[ 7974 7965 7964 7962 ] final  -46.48 input  175.53 | X-H torsion
[ 8008 7997 7996 7995 ] final   68.78 input   59.86 | X-H torsion
[ 10167 10162 10161 10158 ] final  -57.32 input  -65.29 | X-H torsion
[ 10718 10713 10712 10709 ] final  -52.33 input   66.30 | X-H torsion
[ 10763 10752 10751 10750 ] final   74.76 input  -60.55 | X-H torsion
[ 11005 11000 10999 10996 ] final -141.71 input  -57.11 | X-H torsion

> <Gold.Protein.ActiveResidues>
 VAL166  LYS551  ARG553  GLY616  TRP617  ASP618  TYR619  PRO620  LYS621  CYS622 
 ASP623  PHE694  ASN695  SER759  ASP760  ASP761  ALA762  ILE779  LEU786  VAL792 
 PHE793  MET794  SER795  GLU796  ALA797  LYS798  CYS799  TRP800  GLU811  SER814 

> <Gold.Protein.RotatedAtoms>
  152.5220  133.9486  159.7660 H   0  0  0  0  0  0  0  0  0  0  0  0  # atno 6907 bound_to 6896
  150.9801  133.6246  159.2731 H   0  0  0  0  0  0  0  0  0  0  0  0  # atno 6908 bound_to 6896
  151.3427  135.0873  159.9429 H   0  0  0  0  0  0  0  0  0  0  0  0  # atno 6909 bound_to 6896
  145.9715  140.7378  142.9408 H   0  0  0  0  0  0  0  0  0  0  0  0  # atno 7974 bound_to 7965
  155.7136  140.3494  155.4984 H   0  0  0  0  0  0  0  0  0  0  0  0  # atno 8008 bound_to 7997
  155.9333  140.1088  157.1136 H   0  0  0  0  0  0  0  0  0  0  0  0  # atno 8009 bound_to 7997
  154.4089  140.1227  156.4818 H   0  0  0  0  0  0  0  0  0  0  0  0  # atno 8010 bound_to 7997
  140.6265  143.2440  151.5350 H   0  0  0  0  0  0  0  0  0  0  0  0  # atno 10167 bound_to 10162
  156.1631  130.4149  149.9762 H   0  0  0  0  0  0  0  0  0  0  0  0  # atno 10718 bound_to 10713
  153.0608  135.5014  154.8089 H   0  0  0  0  0  0  0  0  0  0  0  0  # atno 10763 bound_to 10752
  154.6880  135.2979  154.9523 H   0  0  0  0  0  0  0  0  0  0  0  0  # atno 10764 bound_to 10752
  154.0287  135.6732  153.4831 H   0  0  0  0  0  0  0  0  0  0  0  0  # atno 10765 bound_to 10752
  140.8298  134.2531  157.4862 H   0  0  0  0  0  0  0  0  0  0  0  0  # atno 11005 bound_to 11000
  144.6838  140.2756  143.7299 LP  0  0  0  0  0  0  0  0  0  0  0  0  # atno 17320 bound_to 7965
  145.7899  139.1923  143.2109 LP  0  0  0  0  0  0  0  0  0  0  0  0  # atno 17321 bound_to 7965
  139.5485  144.2458  152.1486 LP  0  0  0  0  0  0  0  0  0  0  0  0  # atno 17342 bound_to 10162
  140.1691  144.4953  150.6589 LP  0  0  0  0  0  0  0  0  0  0  0  0  # atno 17343 bound_to 10162
  156.7585  130.9142  151.3640 LP  0  0  0  0  0  0  0  0  0  0  0  0  # atno 17370 bound_to 10713
  157.6748  130.9084  150.0123 LP  0  0  0  0  0  0  0  0  0  0  0  0  # atno 17371 bound_to 10713
  139.8705  134.9580  156.4286 LP  0  0  0  0  0  0  0  0  0  0  0  0  # atno 17394 bound_to 11000
  140.9010  133.7779  155.9681 LP  0  0  0  0  0  0  0  0  0  0  0  0  # atno 17395 bound_to 11000

$$$$
