AV-unprocessed.smi:946|AV-procd|sdf|4236|dock6
  -GOLD-   22720 2143D 1   1.00000     0.00000
 Structure written by MMmdl.
 42 43  0  0  0  0  0  0  0  0  1 V2000
  150.4500  140.4093  155.7987 C   0  0  0  0  0  0  0  0  0  0  0  0
  150.3161  140.2530  157.3202 C   0  0  2  0  0  0  0  0  0  0  0  0
  151.5660  140.6205  157.8960 O   0  0  0  0  0  0  0  0  0  0  0  0
  151.5910  140.6805  159.3171 C   0  0  0  0  0  0  0  0  0  0  0  0
  152.2503  142.0005  159.7374 C   0  0  1  0  0  0  0  0  0  0  0  0
  152.1980  143.0566  158.6161 C   0  0  0  0  0  0  0  0  0  0  0  0
  152.7875  144.3860  159.1020 C   0  0  0  0  0  0  0  0  0  0  0  0
  152.0943  144.8161  160.3990 C   0  0  0  0  0  0  0  0  0  0  0  0
  152.1316  143.6753  161.4284 C   0  0  0  0  0  0  0  0  0  0  0  0
  151.5474  142.5014  160.8728 O   0  0  0  0  0  0  0  0  0  0  0  0
  149.9606  138.8067  157.6994 C   0  0  0  0  0  0  0  0  0  0  0  0
  150.6599  137.8803  157.2875 O   0  0  0  0  0  0  0  0  0  0  0  0
  148.8815  138.6578  158.4908 N   0  0  0  0  0  0  0  0  0  0  0  0
  148.3144  137.4548  158.9879 C   0  0  0  0  0  0  0  0  0  0  0  0
  148.5252  136.3146  158.1817 C   0  0  0  0  0  0  0  0  0  0  0  0
  148.0058  135.0719  158.5913 C   0  0  0  0  0  0  0  0  0  0  0  0
  147.2870  135.0000  159.7975 C   0  0  0  0  0  0  0  0  0  0  0  0
  147.1168  136.1841  160.5462 C   0  0  0  0  0  0  0  0  0  0  0  0
  146.3502  136.1947  161.8613 C   0  0  0  0  0  0  0  0  0  0  0  0
  145.8862  134.9836  162.1720 F   0  0  0  0  0  0  0  0  0  0  0  0
  147.1510  136.6045  162.8452 F   0  0  0  0  0  0  0  0  0  0  0  0
  145.3164  137.0317  161.7716 F   0  0  0  0  0  0  0  0  0  0  0  0
  147.6182  137.3752  160.1483 N   0  0  0  0  0  0  0  0  0  0  0  0
  149.5229  140.1428  155.2898 H   0  0  0  0  0  0  0  0  0  0  0  0
  151.2460  139.7801  155.3982 H   0  0  0  0  0  0  0  0  0  0  0  0
  150.6846  141.4411  155.5359 H   0  0  0  0  0  0  0  0  0  0  0  0
  149.5390  140.9355  157.6696 H   0  0  0  0  0  0  0  0  0  0  0  0
  150.5654  140.6453  159.6874 H   0  0  0  0  0  0  0  0  0  0  0  0
  152.1260  139.8364  159.7541 H   0  0  0  0  0  0  0  0  0  0  0  0
  153.2915  141.8081  160.0034 H   0  0  0  0  0  0  0  0  0  0  0  0
  152.7441  142.7067  157.7394 H   0  0  0  0  0  0  0  0  0  0  0  0
  151.1647  143.2087  158.3012 H   0  0  0  0  0  0  0  0  0  0  0  0
  153.8576  144.2704  159.2787 H   0  0  0  0  0  0  0  0  0  0  0  0
  152.6768  145.1554  158.3374 H   0  0  0  0  0  0  0  0  0  0  0  0
  152.5723  145.7078  160.8052 H   0  0  0  0  0  0  0  0  0  0  0  0
  151.0578  145.0837  160.1899 H   0  0  0  0  0  0  0  0  0  0  0  0
  153.1549  143.4695  161.7459 H   0  0  0  0  0  0  0  0  0  0  0  0
  151.5726  143.9577  162.3205 H   0  0  0  0  0  0  0  0  0  0  0  0
  148.4035  139.5061  158.7566 H   0  0  0  0  0  0  0  0  0  0  0  0
  149.0819  136.3859  157.2585 H   0  0  0  0  0  0  0  0  0  0  0  0
  148.1580  134.1879  157.9896 H   0  0  0  0  0  0  0  0  0  0  0  0
  146.8808  134.0570  160.1318 H   0  0  0  0  0  0  0  0  0  0  0  0
  1  2  1  0  0  0  0
  1 24  1  0  0  0  0
  1 25  1  0  0  0  0
  1 26  1  0  0  0  0
  2  3  1  0  0  0  0
  2 11  1  0  0  0  0
  2 27  1  0  0  0  0
  3  4  1  0  0  0  0
  4  5  1  0  0  0  0
  4 28  1  0  0  0  0
  4 29  1  0  0  0  0
  5 10  1  0  0  0  0
  5  6  1  0  0  0  0
  5 30  1  0  0  0  0
  6  7  1  0  0  0  0
  6 31  1  0  0  0  0
  6 32  1  0  0  0  0
  7  8  1  0  0  0  0
  7 33  1  0  0  0  0
  7 34  1  0  0  0  0
  8  9  1  0  0  0  0
  8 35  1  0  0  0  0
  8 36  1  0  0  0  0
  9 10  1  0  0  0  0
  9 37  1  0  0  0  0
  9 38  1  0  0  0  0
 11 12  2  0  0  0  0
 11 13  1  0  0  0  0
 13 14  1  0  0  0  0
 13 39  1  0  0  0  0
 14 23  1  0  0  0  0
 14 15  2  0  0  0  0
 15 16  1  0  0  0  0
 15 40  1  0  0  0  0
 16 17  2  0  0  0  0
 16 41  1  0  0  0  0
 17 18  1  0  0  0  0
 17 42  1  0  0  0  0
 18 19  1  0  0  0  0
 18 23  2  0  0  0  0
 19 20  1  0  0  0  0
 19 21  1  0  0  0  0
 19 22  1  0  0  0  0
M  END
> <s_m_source_file>
AV-unprocessed.smi

> <i_m_source_file_index>
946

> <i_lp_mmshare_version>
43012

> <i_f3d_flags>
0

> <s_epik_input>
TzFbQ0gyXVtDSDJdW0NIMl1bQ0gyXVtDQEhdMVtDSDJdT1tDQEBIXShbQ0gzXSlDKD1PKVtOSF1jMltjSF1bY0hdW2NIXWMobjIpQyhGKShGKUY=

> <s_epik_cmdline>
J2VwaWtfcHl0aG9uJywgJy1waCcsICc3LjAnLCAnLXRuJywgJzgnLCAnLW1hJywgJzIwMCcsICctbWV0YWxfYmluZGluZycsICctaW1hZScsICc8aW5maWxlLm1hZT4nLCAnLW9tYWUnLCAnPG91dGZpbGUubWFlPic=

> <r_lp_tautomer_probability>
1

> <r_epik_Ionization_Penalty>
1.32683e-06

> <r_epik_Ionization_Penalty_Charging>
0

> <r_epik_Ionization_Penalty_Neutral>
1.32683e-06

> <r_epik_State_Penalty>
-0

> <r_epik_Charging_Adjusted_Penalty>
0

> <i_epik_Tot_Q>
0

> <i_epik_Tot_abs_Q>
0

> <r_epik_Metal_State_Penalty>
-0

> <b_epik_Metal_Only>
0

> <s_lp_Force_Field>
OPLS_2005

> <r_lp_Energy>
15.6569

> <b_lp_Chiralities_Consistent>
1

> <s_lp_Variant>
AV-unprocessed.smi:946-3

> <Gold.Version>
5.8.1

> <Gold.Id.Protein>
6NUR|6NUR_protein|mol2

> <Gold.PLP.Fitness>
51.8235

> <Gold.PLP.PLP>
-49.8714

> <Gold.PLP.part.hbond>
-3.0000

> <Gold.PLP.part.metal>
0.0000

> <Gold.PLP.part.buried>
-5.6049

> <Gold.PLP.part.nonpolar>
-41.8997

> <Gold.PLP.part.repulsive>
0.2869

> <Gold.PLP.ligand.clash>
0.0000

> <Gold.PLP.ligand.torsion>
1.1418

> <Gold.PLP.Chemscore.Hbond>
1.3867

> <Gold.PLP.Chemscore.CHOScore>
0.0000

> <Gold.PLP.Chemscore.Metal>
0.0000

> <Gold.Chemscore.Hbonds>
donor molecule, donor type, donor heavy atom, donor atom, acceptor molecule, acceptor atom, score
      P1  H  6931  6943       L1    23  0.03
      P1  H  6933  6945       L1    10  0.19
      P1  H  6934  6947       L1    23  0.88

> <Gold.PLP.Chemscore.Internal.Correction>
0.0755

> <Gold.Rescore>
     Score         DG    S(hbond)    S(metal)    S(lipo)     H(rot)  DE(clash)    DE(int)     intcor
     11.82     -14.40       0.70        0.00      94.67       1.76       0.01       2.57       ----

> <Gold.Chemscore.Fitness>
11.8206

> <Gold.Chemscore.DG>
-14.4041

> <Gold.Chemscore.ZeroCoef>
-5.4800

> <Gold.Chemscore.Hbond>
0.7013

> <Gold.Chemscore.Metal>
0.0000

> <Gold.Chemscore.Lipo>
94.6684

> <Gold.Chemscore.Internal_Hbond>
0.0000

> <Gold.Chemscore.DEClash>
0.0123

> <Gold.Chemscore.DEInternal>
2.5713

> <Gold.Chemscore.Rot>
1.7557

> <Gold.Chemscore.Internal.Correction>
   9.000000E+99

> <Gold.Chemscore.Hbonds>
donor molecule, donor type, donor heavy atom, donor atom, acceptor molecule, acceptor atom, score
      P1  H  6931  6943       L1    23  0.03
      P1  H  6933  6945       L1    10  0.13
      P1  H  6934  6947       L1    23  0.76

> <Gold.Chemscore.Hbond.Weighted>
-2.3425

> <Gold.Chemscore.Metal.Weighted>
-0.0000

> <Gold.Chemscore.Lipo.Weighted>
-11.0762

> <Gold.Chemscore.Internal_Hbond.Weighted>
0.0000

> <Gold.Chemscore.DEClash.Weighted>
0.0123

> <Gold.Chemscore.DEInternal.Weighted>
2.5713

> <Gold.Chemscore.Rot.Weighted>
4.4946

> <Gold.Chemscore.Internal.Correction.Weighted>
   9.000000E+99

> <Gold.Protein.RotatedTorsions>
[ 6907 6896 6895 6894 ] final  175.00 input  -60.11 | X-H torsion
[ 7974 7965 7964 7962 ] final  -28.68 input  175.53 | X-H torsion
[ 8008 7997 7996 7995 ] final -130.70 input   59.86 | X-H torsion
[ 10167 10162 10161 10158 ] final   97.05 input  -65.29 | X-H torsion
[ 10718 10713 10712 10709 ] final   33.61 input   66.30 | X-H torsion
[ 10763 10752 10751 10750 ] final  -35.79 input  -60.55 | X-H torsion
[ 11005 11000 10999 10996 ] final -177.63 input  -57.11 | X-H torsion

> <Gold.Protein.ActiveResidues>
 VAL166  LYS551  ARG553  GLY616  TRP617  ASP618  TYR619  PRO620  LYS621  CYS622 
 ASP623  PHE694  ASN695  SER759  ASP760  ASP761  ALA762  ILE779  LEU786  VAL792 
 PHE793  MET794  SER795  GLU796  ALA797  LYS798  CYS799  TRP800  GLU811  SER814 

> <Gold.Protein.RotatedAtoms>
  151.7433  133.3323  159.3371 H   0  0  0  0  0  0  0  0  0  0  0  0  # atno 6907 bound_to 6896
  150.7564  134.6258  159.6169 H   0  0  0  0  0  0  0  0  0  0  0  0  # atno 6908 bound_to 6896
  152.3516  134.6999  160.0286 H   0  0  0  0  0  0  0  0  0  0  0  0  # atno 6909 bound_to 6896
  146.1271  140.5314  142.8710 H   0  0  0  0  0  0  0  0  0  0  0  0  # atno 7974 bound_to 7965
  155.3002  140.0452  157.3029 H   0  0  0  0  0  0  0  0  0  0  0  0  # atno 8008 bound_to 7997
  154.5491  140.2312  155.8481 H   0  0  0  0  0  0  0  0  0  0  0  0  # atno 8009 bound_to 7997
  156.1951  140.3040  155.9417 H   0  0  0  0  0  0  0  0  0  0  0  0  # atno 8010 bound_to 7997
  139.7837  144.6878  150.9987 H   0  0  0  0  0  0  0  0  0  0  0  0  # atno 10167 bound_to 10162
  157.3000  130.7346  149.6661 H   0  0  0  0  0  0  0  0  0  0  0  0  # atno 10718 bound_to 10713
  153.8691  135.6832  153.4776 H   0  0  0  0  0  0  0  0  0  0  0  0  # atno 10763 bound_to 10752
  153.1298  135.4703  154.9328 H   0  0  0  0  0  0  0  0  0  0  0  0  # atno 10764 bound_to 10752
  154.7723  135.3242  154.8115 H   0  0  0  0  0  0  0  0  0  0  0  0  # atno 10765 bound_to 10752
  140.4388  134.6451  157.4747 H   0  0  0  0  0  0  0  0  0  0  0  0  # atno 11005 bound_to 11000
  144.7653  140.5516  143.6707 LP  0  0  0  0  0  0  0  0  0  0  0  0  # atno 17320 bound_to 7965
  145.5342  139.1475  143.3483 LP  0  0  0  0  0  0  0  0  0  0  0  0  # atno 17321 bound_to 7965
  140.7819  143.4455  151.0489 LP  0  0  0  0  0  0  0  0  0  0  0  0  # atno 17342 bound_to 10162
  139.8135  143.7919  152.3173 LP  0  0  0  0  0  0  0  0  0  0  0  0  # atno 17343 bound_to 10162
  155.9671  130.4283  150.4781 LP  0  0  0  0  0  0  0  0  0  0  0  0  # atno 17370 bound_to 10713
  157.2760  131.0597  151.2229 LP  0  0  0  0  0  0  0  0  0  0  0  0  # atno 17371 bound_to 10713
  140.0084  134.6728  155.9419 LP  0  0  0  0  0  0  0  0  0  0  0  0  # atno 17394 bound_to 11000
  141.1714  133.6537  156.4667 LP  0  0  0  0  0  0  0  0  0  0  0  0  # atno 17395 bound_to 11000

$$$$
