AV-unprocessed.smi:703|AV-procd|sdf|3433|dock1
  -GOLD-   22720 0423D 1   1.00000     0.00000
 Structure written by MMmdl.
 38 39  0  0  0  0  0  0  0  0  2 V2000
  153.1184  142.5754  160.7764 C   0  0  0  0  0  0  0  0  0  0  0  0
  152.0317  142.4598  159.6989 C   0  0  0  0  0  0  0  0  0  0  0  0
  152.4394  141.5732  158.5832 N   0  3  2  0  0  0  0  0  0  0  0  0
  151.5872  141.6571  157.3768 C   0  0  0  0  0  0  0  0  0  0  0  0
  151.7162  140.2947  156.6976 C   0  0  2  0  0  0  0  0  0  0  0  0
  150.6377  139.9888  155.6449 C   0  0  0  0  0  0  0  0  0  0  0  0
  151.8133  139.3270  157.8836 C   0  0  2  0  0  0  0  0  0  0  0  0
  150.4835  138.9369  158.3689 N   0  0  0  0  0  0  0  0  0  0  0  0
  149.9554  137.2941  158.4074 S   0  0  0  0  0  0  0  0  0  0  0  0
  149.9959  136.7760  157.0311 O   0  0  0  0  0  0  0  0  0  0  0  0
  150.7203  136.6321  159.4746 O   0  0  0  0  0  0  0  0  0  0  0  0
  148.2008  137.4418  158.9737 C   0  0  0  0  0  0  0  0  0  0  0  0
  147.9657  136.6587  160.2356 C   0  0  0  0  0  0  0  0  0  0  0  0
  147.7595  135.2582  160.3767 C   0  0  0  0  0  0  0  0  0  0  0  0
  147.5906  135.0936  161.7214 C   0  0  0  0  0  0  0  0  0  0  0  0
  147.6754  136.2873  162.3600 O   0  0  0  0  0  0  0  0  0  0  0  0
  147.9067  137.2812  161.4024 N   0  0  0  0  0  0  0  0  0  0  0  0
  152.5563  140.1424  158.9568 C   0  0  0  0  0  0  0  0  0  0  0  0
  152.7680  143.1814  161.6122 H   0  0  0  0  0  0  0  0  0  0  0  0
  154.0223  143.0457  160.3887 H   0  0  0  0  0  0  0  0  0  0  0  0
  153.3900  141.5956  161.1699 H   0  0  0  0  0  0  0  0  0  0  0  0
  151.1299  142.0511  160.1569 H   0  0  0  0  0  0  0  0  0  0  0  0
  151.7693  143.4464  159.3139 H   0  0  0  0  0  0  0  0  0  0  0  0
  150.5491  141.8292  157.6665 H   0  0  0  0  0  0  0  0  0  0  0  0
  151.8946  142.4764  156.7261 H   0  0  0  0  0  0  0  0  0  0  0  0
  152.6822  140.2750  156.1896 H   0  0  0  0  0  0  0  0  0  0  0  0
  149.6319  140.0475  156.0614 H   0  0  0  0  0  0  0  0  0  0  0  0
  150.7701  138.9907  155.2282 H   0  0  0  0  0  0  0  0  0  0  0  0
  150.6908  140.6996  154.8202 H   0  0  0  0  0  0  0  0  0  0  0  0
  152.3691  138.4285  157.6154 H   0  0  0  0  0  0  0  0  0  0  0  0
  149.9780  139.5933  158.9634 H   0  0  0  0  0  0  0  0  0  0  0  0
  147.9954  138.4992  159.1422 H   0  0  0  0  0  0  0  0  0  0  0  0
  147.5469  137.1096  158.1678 H   0  0  0  0  0  0  0  0  0  0  0  0
  147.7386  134.4950  159.6136 H   0  0  0  0  0  0  0  0  0  0  0  0
  147.4069  134.2328  162.3472 H   0  0  0  0  0  0  0  0  0  0  0  0
  153.6151  139.8821  158.9637 H   0  0  0  0  0  0  0  0  0  0  0  0
  152.1744  139.9451  159.9602 H   0  0  0  0  0  0  0  0  0  0  0  0
  153.3665  141.8574  158.3008 H   0  0  0  0  0  0  0  0  0  0  0  0
  1  2  1  0  0  0  0
  1 19  1  0  0  0  0
  1 20  1  0  0  0  0
  1 21  1  0  0  0  0
  2  3  1  0  0  0  0
  2 22  1  0  0  0  0
  2 23  1  0  0  0  0
  3 18  1  0  0  0  0
  3  4  1  0  0  0  0
  3 38  1  0  0  0  0
  4  5  1  0  0  0  0
  4 24  1  0  0  0  0
  4 25  1  0  0  0  0
  5  6  1  0  0  0  0
  5  7  1  0  0  0  0
  5 26  1  0  0  0  0
  6 27  1  0  0  0  0
  6 28  1  0  0  0  0
  6 29  1  0  0  0  0
  7  8  1  0  0  0  0
  7 18  1  0  0  0  0
  7 30  1  0  0  0  0
  8  9  1  0  0  0  0
  8 31  1  0  0  0  0
  9 10  2  0  0  0  0
  9 11  2  0  0  0  0
  9 12  1  0  0  0  0
 12 13  1  0  0  0  0
 12 32  1  0  0  0  0
 12 33  1  0  0  0  0
 13 17  2  0  0  0  0
 13 14  1  0  0  0  0
 14 15  2  0  0  0  0
 14 34  1  0  0  0  0
 15 16  1  0  0  0  0
 15 35  1  0  0  0  0
 16 17  1  0  0  0  0
 18 36  1  0  0  0  0
 18 37  1  0  0  0  0
M  CHG  1   3   1
M  END
> <s_m_source_file>
AV-unprocessed.smi

> <i_m_source_file_index>
703

> <i_lp_mmshare_version>
43012

> <i_f3d_flags>
0

> <s_epik_input>
W0NIM11bQ0gyXU4xW0NIMl1bQ0BASF0oW0NIM10pW0NASF0oW0NIMl0xKVtOSF1TKD1PKSg9TylbQ0gyXWMyW2NIXVtjSF1vbjI=

> <s_epik_cmdline>
J2VwaWtfcHl0aG9uJywgJy1waCcsICc3LjAnLCAnLXRuJywgJzgnLCAnLW1hJywgJzIwMCcsICctbWV0YWxfYmluZGluZycsICctaW1hZScsICc8aW5maWxlLm1hZT4nLCAnLW9tYWUnLCAnPG91dGZpbGUubWFlPic=

> <r_epik_Ionization_Penalty>
0.00324529

> <r_epik_Ionization_Penalty_Charging>
0.0019384

> <r_epik_Ionization_Penalty_Neutral>
0.00130689

> <r_epik_State_Penalty>
0.00218682

> <r_epik_Charging_Adjusted_Penalty>
0.00412522

> <i_epik_Tot_Q>
1

> <i_epik_Tot_abs_Q>
1

> <r_epik_Metal_State_Penalty>
0.310831

> <b_epik_Metal_Only>
0

> <s_lp_Force_Field>
OPLS_2005

> <r_lp_Energy>
18.8873

> <b_lp_Chiralities_Consistent>
1

> <s_lp_Variant>
AV-unprocessed.smi:703-8

> <Gold.Version>
5.8.1

> <Gold.Id.Protein>
6NUR|6NUR_protein|mol2

> <Gold.PLP.Fitness>
36.2278

> <Gold.PLP.PLP>
-28.6779

> <Gold.PLP.part.hbond>
-3.0000

> <Gold.PLP.part.metal>
0.0000

> <Gold.PLP.part.buried>
-4.8358

> <Gold.PLP.part.nonpolar>
-21.2898

> <Gold.PLP.part.repulsive>
0.1796

> <Gold.PLP.ligand.clash>
0.0000

> <Gold.PLP.ligand.torsion>
1.0000

> <Gold.PLP.Chemscore.Hbond>
2.7920

> <Gold.PLP.Chemscore.CHOScore>
0.0000

> <Gold.PLP.Chemscore.Metal>
0.0000

> <Gold.Chemscore.Hbonds>
donor molecule, donor type, donor heavy atom, donor atom, acceptor molecule, acceptor atom, score
      P1  H  6896  6908       L1    11  1.00
      P1  H  6931  6943       L1    17  1.00
      P1  H  6934  6947       L1    17  0.69

> <Gold.PLP.Chemscore.Internal.Correction>
1.1739

> <Gold.Rescore>
     Score         DG    S(hbond)    S(metal)    S(lipo)     H(rot)  DE(clash)    DE(int)     intcor
     15.82     -16.94       2.34        0.00      67.80       1.68       0.00       1.12       ----

> <Gold.Chemscore.Fitness>
15.8167

> <Gold.Chemscore.DG>
-16.9381

> <Gold.Chemscore.ZeroCoef>
-5.4800

> <Gold.Chemscore.Hbond>
2.3408

> <Gold.Chemscore.Metal>
0.0000

> <Gold.Chemscore.Lipo>
67.8038

> <Gold.Chemscore.Internal_Hbond>
0.0000

> <Gold.Chemscore.DEClash>
0.0009

> <Gold.Chemscore.DEInternal>
1.1205

> <Gold.Chemscore.Rot>
1.6770

> <Gold.Chemscore.Internal.Correction>
   9.000000E+99

> <Gold.Chemscore.Hbonds>
donor molecule, donor type, donor heavy atom, donor atom, acceptor molecule, acceptor atom, score
      P1  H  6896  6908       L1    11  1.00
      P1  H  6931  6943       L1    17  0.68
      P1  H  6934  6947       L1    17  0.30

> <Gold.Chemscore.Hbond.Weighted>
-7.8183

> <Gold.Chemscore.Metal.Weighted>
-0.0000

> <Gold.Chemscore.Lipo.Weighted>
-7.9330

> <Gold.Chemscore.Internal_Hbond.Weighted>
0.0000

> <Gold.Chemscore.DEClash.Weighted>
0.0009

> <Gold.Chemscore.DEInternal.Weighted>
1.1205

> <Gold.Chemscore.Rot.Weighted>
4.2932

> <Gold.Chemscore.Internal.Correction.Weighted>
   9.000000E+99

> <Gold.Protein.RotatedTorsions>
[ 6907 6896 6895 6894 ] final -146.73 input  -60.11 | X-H torsion
[ 7974 7965 7964 7962 ] final  -42.98 input  175.53 | X-H torsion
[ 8008 7997 7996 7995 ] final  -47.48 input   59.86 | X-H torsion
[ 10167 10162 10161 10158 ] final  -45.23 input  -65.29 | X-H torsion
[ 10718 10713 10712 10709 ] final  -77.36 input   66.30 | X-H torsion
[ 10763 10752 10751 10750 ] final -100.09 input  -60.55 | X-H torsion
[ 11005 11000 10999 10996 ] final  168.24 input  -57.11 | X-H torsion

> <Gold.Protein.ActiveResidues>
 VAL166  LYS551  ARG553  GLY616  TRP617  ASP618  TYR619  PRO620  LYS621  CYS622 
 ASP623  PHE694  ASN695  SER759  ASP760  ASP761  ALA762  ILE779  LEU786  VAL792 
 PHE793  MET794  SER795  GLU796  ALA797  LYS798  CYS799  TRP800  GLU811  SER814 

> <Gold.Protein.RotatedAtoms>
  151.1457  133.4941  159.2595 H   0  0  0  0  0  0  0  0  0  0  0  0  # atno 6907 bound_to 6896
  151.1607  135.0271  159.8719 H   0  0  0  0  0  0  0  0  0  0  0  0  # atno 6908 bound_to 6896
  152.5463  134.1331  159.8501 H   0  0  0  0  0  0  0  0  0  0  0  0  # atno 6909 bound_to 6896
  146.0064  140.7015  142.9245 H   0  0  0  0  0  0  0  0  0  0  0  0  # atno 7974 bound_to 7965
  154.4017  140.1345  156.4183 H   0  0  0  0  0  0  0  0  0  0  0  0  # atno 8008 bound_to 7997
  155.7668  140.3485  155.5206 H   0  0  0  0  0  0  0  0  0  0  0  0  # atno 8009 bound_to 7997
  155.8806  140.0987  157.1478 H   0  0  0  0  0  0  0  0  0  0  0  0  # atno 8010 bound_to 7997
  140.6866  143.2890  151.3610 H   0  0  0  0  0  0  0  0  0  0  0  0  # atno 10167 bound_to 10162
  156.0147  130.4489  150.3333 H   0  0  0  0  0  0  0  0  0  0  0  0  # atno 10718 bound_to 10713
  154.7551  135.4948  153.9360 H   0  0  0  0  0  0  0  0  0  0  0  0  # atno 10763 bound_to 10752
  153.1187  135.6726  153.9381 H   0  0  0  0  0  0  0  0  0  0  0  0  # atno 10764 bound_to 10752
  153.9120  135.3098  155.3427 H   0  0  0  0  0  0  0  0  0  0  0  0  # atno 10765 bound_to 10752
  140.2852  134.7718  157.3792 H   0  0  0  0  0  0  0  0  0  0  0  0  # atno 11005 bound_to 11000
  144.6937  140.3322  143.7214 LP  0  0  0  0  0  0  0  0  0  0  0  0  # atno 17320 bound_to 7965
  145.7410  139.1764  143.2376 LP  0  0  0  0  0  0  0  0  0  0  0  0  # atno 17321 bound_to 7965
  139.6230  144.0870  152.2408 LP  0  0  0  0  0  0  0  0  0  0  0  0  # atno 17342 bound_to 10162
  140.0320  144.6073  150.7480 LP  0  0  0  0  0  0  0  0  0  0  0  0  # atno 17343 bound_to 10162
  157.1431  131.0301  151.2919 LP  0  0  0  0  0  0  0  0  0  0  0  0  # atno 17370 bound_to 10713
  157.4455  130.7568  149.7106 LP  0  0  0  0  0  0  0  0  0  0  0  0  # atno 17371 bound_to 10713
  140.1246  134.5174  155.8155 LP  0  0  0  0  0  0  0  0  0  0  0  0  # atno 17394 bound_to 11000
  141.2156  133.6768  156.6929 LP  0  0  0  0  0  0  0  0  0  0  0  0  # atno 17395 bound_to 11000

$$$$
