AV-unprocessed.smi:3085|AV-procd|sdf|11760|dock3
  -GOLD-   2272017143D 1   1.00000     0.00000
 Structure written by MMmdl.
 27 28  0  0  0  0  0  0  0  0  3 V2000
  154.8214  138.7496  161.9751 C   0  0  0  0  0  0  0  0  0  0  0  0
  155.3082  139.1986  160.5936 C   0  0  0  0  0  0  0  0  0  0  0  0
  154.2697  140.0226  159.8643 C   0  0  0  0  0  0  0  0  0  0  0  0
  153.6925  141.1299  160.3204 N   0  0  0  0  0  0  0  0  0  0  0  0
  152.8234  141.5055  159.3715 C   0  0  0  0  0  0  0  0  0  0  0  0
  151.9099  142.7085  159.4778 C   0  0  2  0  0  0  0  0  0  0  0  0
  151.1041  142.9079  158.1793 C   0  0  0  0  0  0  0  0  0  0  0  0
  150.2291  144.0902  158.2969 N   0  3  0  0  0  0  0  0  0  0  0  0
  150.9931  145.2963  158.6693 C   0  0  0  0  0  0  0  0  0  0  0  0
  151.8057  145.0310  159.9478 C   0  0  0  0  0  0  0  0  0  0  0  0
  152.6459  143.8990  159.7534 O   0  0  0  0  0  0  0  0  0  0  0  0
  152.8310  140.6369  158.3488 N   0  0  0  0  0  0  0  0  0  0  0  0
  153.7297  139.7286  158.6684 N   0  5  0  0  0  0  0  0  0  0  0  0
  155.5822  138.1563  162.4825 H   0  0  0  0  0  0  0  0  0  0  0  0
  153.9210  138.1401  161.8932 H   0  0  0  0  0  0  0  0  0  0  0  0
  154.5892  139.6071  162.6072 H   0  0  0  0  0  0  0  0  0  0  0  0
  156.2204  139.7874  160.6926 H   0  0  0  0  0  0  0  0  0  0  0  0
  155.5594  138.3291  159.9854 H   0  0  0  0  0  0  0  0  0  0  0  0
  151.2266  142.5216  160.3085 H   0  0  0  0  0  0  0  0  0  0  0  0
  151.7769  143.0423  157.3310 H   0  0  0  0  0  0  0  0  0  0  0  0
  150.4922  142.0304  157.9681 H   0  0  0  0  0  0  0  0  0  0  0  0
  149.7571  144.2466  157.4178 H   0  0  0  0  0  0  0  0  0  0  0  0
  151.6588  145.5663  157.8484 H   0  0  0  0  0  0  0  0  0  0  0  0
  150.3060  146.1301  158.8154 H   0  0  0  0  0  0  0  0  0  0  0  0
  152.4265  145.8954  160.1845 H   0  0  0  0  0  0  0  0  0  0  0  0
  151.1473  144.8677  160.8027 H   0  0  0  0  0  0  0  0  0  0  0  0
  149.5410  143.9088  159.0136 H   0  0  0  0  0  0  0  0  0  0  0  0
  1  2  1  0  0  0  0
  1 14  1  0  0  0  0
  1 15  1  0  0  0  0
  1 16  1  0  0  0  0
  2  3  1  0  0  0  0
  2 17  1  0  0  0  0
  2 18  1  0  0  0  0
  3 13  1  0  0  0  0
  3  4  2  0  0  0  0
  4  5  1  0  0  0  0
  5  6  1  0  0  0  0
  5 12  2  0  0  0  0
  6 11  1  0  0  0  0
  6  7  1  0  0  0  0
  6 19  1  0  0  0  0
  7  8  1  0  0  0  0
  7 20  1  0  0  0  0
  7 21  1  0  0  0  0
  8  9  1  0  0  0  0
  8 22  1  0  0  0  0
  8 27  1  0  0  0  0
  9 10  1  0  0  0  0
  9 23  1  0  0  0  0
  9 24  1  0  0  0  0
 10 11  1  0  0  0  0
 10 25  1  0  0  0  0
 10 26  1  0  0  0  0
 12 13  1  0  0  0  0
M  CHG  1   8   1
M  CHG  1  13  -1
M  END
> <s_m_source_file>
AV-unprocessed.smi

> <i_m_source_file_index>
3085

> <i_lp_mmshare_version>
43012

> <i_f3d_flags>
0

> <s_epik_input>
W0NIM11bQ0gyXWMxbmMobltuSF0xKVtDQEBIXTJbQ0gyXVtOSF1bQ0gyXVtDSDJdTzI=

> <s_epik_cmdline>
J2VwaWtfcHl0aG9uJywgJy1waCcsICc3LjAnLCAnLXRuJywgJzgnLCAnLW1hJywgJzIwMCcsICctbWV0YWxfYmluZGluZycsICctaW1hZScsICc8aW5maWxlLm1hZT4nLCAnLW9tYWUnLCAnPG91dGZpbGUubWFlPic=

> <r_lp_tautomer_probability>
0.948284

> <r_epik_Ionization_Penalty>
5.24708

> <r_epik_Ionization_Penalty_Charging>
5.24708

> <r_epik_Ionization_Penalty_Neutral>
2.10756e-13

> <r_epik_State_Penalty>
3.12001

> <r_epik_Charging_Adjusted_Penalty>
8.36709

> <i_epik_Tot_Q>
0

> <i_epik_Tot_abs_Q>
2

> <r_epik_Metal_State_Penalty>
0.69864

> <b_epik_Metal_Only>
1

> <s_lp_Force_Field>
OPLS_2005

> <r_lp_Energy>
4.6385

> <b_lp_Chiralities_Consistent>
1

> <s_lp_Variant>
AV-unprocessed.smi:3085-11

> <Gold.Version>
5.8.1

> <Gold.Id.Protein>
6NUR|6NUR_protein|mol2

> <Gold.PLP.Fitness>
36.2412

> <Gold.PLP.PLP>
-24.3982

> <Gold.PLP.part.hbond>
-3.4512

> <Gold.PLP.part.metal>
0.0000

> <Gold.PLP.part.buried>
-3.4896

> <Gold.PLP.part.nonpolar>
-17.0403

> <Gold.PLP.part.repulsive>
0.0770

> <Gold.PLP.ligand.clash>
0.0000

> <Gold.PLP.ligand.torsion>
0.0879

> <Gold.PLP.Chemscore.Hbond>
4.0000

> <Gold.PLP.Chemscore.CHOScore>
0.0000

> <Gold.PLP.Chemscore.Metal>
0.0000

> <Gold.Chemscore.Hbonds>
donor molecule, donor type, donor heavy atom, donor atom, acceptor molecule, acceptor atom, score
      L1  H     8    22       P1  8028  2.00
      P1  H  7997  8010       L1    13  1.90

> <Gold.PLP.Chemscore.Internal.Correction>
0.0187

> <Gold.Rescore>
     Score         DG    S(hbond)    S(metal)    S(lipo)     H(rot)  DE(clash)    DE(int)     intcor
     11.63     -11.87       0.91        0.00      56.77       1.28       0.21       0.03       ----

> <Gold.Chemscore.Fitness>
11.6288

> <Gold.Chemscore.DG>
-11.8699

> <Gold.Chemscore.ZeroCoef>
-5.4800

> <Gold.Chemscore.Hbond>
0.9080

> <Gold.Chemscore.Metal>
0.0000

> <Gold.Chemscore.Lipo>
56.7723

> <Gold.Chemscore.Internal_Hbond>
0.0000

> <Gold.Chemscore.DEClash>
0.2062

> <Gold.Chemscore.DEInternal>
0.0348

> <Gold.Chemscore.Rot>
1.2833

> <Gold.Chemscore.Internal.Correction>
   9.000000E+99

> <Gold.Chemscore.Hbonds>
donor molecule, donor type, donor heavy atom, donor atom, acceptor molecule, acceptor atom, score
      L1  H     8    22       P1  8028  0.29
      P1  H  7997  8010       L1    13  0.16

> <Gold.Chemscore.Hbond.Weighted>
-3.0328

> <Gold.Chemscore.Metal.Weighted>
-0.0000

> <Gold.Chemscore.Lipo.Weighted>
-6.6424

> <Gold.Chemscore.Internal_Hbond.Weighted>
0.0000

> <Gold.Chemscore.DEClash.Weighted>
0.2062

> <Gold.Chemscore.DEInternal.Weighted>
0.0348

> <Gold.Chemscore.Rot.Weighted>
3.2853

> <Gold.Chemscore.Internal.Correction.Weighted>
   9.000000E+99

> <Gold.Protein.RotatedTorsions>
[ 6907 6896 6895 6894 ] final -161.94 input  -60.11 | X-H torsion
[ 7974 7965 7964 7962 ] final  -35.65 input  175.53 | X-H torsion
[ 8008 7997 7996 7995 ] final    7.30 input   59.86 | X-H torsion
[ 10167 10162 10161 10158 ] final   86.09 input  -65.29 | X-H torsion
[ 10718 10713 10712 10709 ] final -161.44 input   66.30 | X-H torsion
[ 10763 10752 10751 10750 ] final  -85.66 input  -60.55 | X-H torsion
[ 11005 11000 10999 10996 ] final  -34.72 input  -57.11 | X-H torsion

> <Gold.Protein.ActiveResidues>
 VAL166  LYS551  ARG553  GLY616  TRP617  ASP618  TYR619  PRO620  LYS621  CYS622 
 ASP623  PHE694  ASN695  SER759  ASP760  ASP761  ALA762  ILE779  LEU786  VAL792 
 PHE793  MET794  SER795  GLU796  ALA797  LYS798  CYS799  TRP800  GLU811  SER814 

> <Gold.Protein.RotatedAtoms>
  151.3726  133.3849  159.2700 H   0  0  0  0  0  0  0  0  0  0  0  0  # atno 6907 bound_to 6896
  150.9639  134.9024  159.7758 H   0  0  0  0  0  0  0  0  0  0  0  0  # atno 6908 bound_to 6896
  152.5160  134.3685  159.9362 H   0  0  0  0  0  0  0  0  0  0  0  0  # atno 6909 bound_to 6896
  146.0729  140.6184  142.8944 H   0  0  0  0  0  0  0  0  0  0  0  0  # atno 7974 bound_to 7965
  154.7521  140.2769  155.6284 H   0  0  0  0  0  0  0  0  0  0  0  0  # atno 8008 bound_to 7997
  156.2898  140.2676  156.2203 H   0  0  0  0  0  0  0  0  0  0  0  0  # atno 8009 bound_to 7997
  155.0124  140.0372  157.2394 H   0  0  0  0  0  0  0  0  0  0  0  0  # atno 8010 bound_to 7997
  139.8910  144.6385  150.8739 H   0  0  0  0  0  0  0  0  0  0  0  0  # atno 10167 bound_to 10162
  156.5963  130.8791  151.2903 H   0  0  0  0  0  0  0  0  0  0  0  0  # atno 10718 bound_to 10713
  154.6137  135.5477  153.7500 H   0  0  0  0  0  0  0  0  0  0  0  0  # atno 10763 bound_to 10752
  153.0206  135.6395  154.1542 H   0  0  0  0  0  0  0  0  0  0  0  0  # atno 10764 bound_to 10752
  154.1478  135.2904  155.3123 H   0  0  0  0  0  0  0  0  0  0  0  0  # atno 10765 bound_to 10752
  140.9739  133.7094  156.1569 H   0  0  0  0  0  0  0  0  0  0  0  0  # atno 11005 bound_to 11000
  144.7243  140.4474  143.6985 LP  0  0  0  0  0  0  0  0  0  0  0  0  # atno 17320 bound_to 7965
  145.6359  139.1543  143.2943 LP  0  0  0  0  0  0  0  0  0  0  0  0  # atno 17321 bound_to 7965
  140.7726  143.3510  151.2014 LP  0  0  0  0  0  0  0  0  0  0  0  0  # atno 17342 bound_to 10162
  139.7110  143.9377  152.2947 LP  0  0  0  0  0  0  0  0  0  0  0  0  # atno 17343 bound_to 10162
  157.7291  130.9666  150.1771 LP  0  0  0  0  0  0  0  0  0  0  0  0  # atno 17370 bound_to 10713
  156.2507  130.3700  149.8236 LP  0  0  0  0  0  0  0  0  0  0  0  0  # atno 17371 bound_to 10713
  140.7288  134.4277  157.5568 LP  0  0  0  0  0  0  0  0  0  0  0  0  # atno 17394 bound_to 11000
  139.8923  134.8759  156.2279 LP  0  0  0  0  0  0  0  0  0  0  0  0  # atno 17395 bound_to 11000

$$$$
