AV-unprocessed.smi:157|AV-procd|sdf|1320|dock8
  -GOLD-   2262019 13D 1   1.00000     0.00000
 Structure written by MMmdl.
 36 38  0  0  0  0  0  0  0  0  2 V2000
  151.9776  135.9992  156.2639 O   0  0  0  0  0  0  0  0  0  0  0  0
  150.6803  136.5545  156.3048 C   0  0  0  0  0  0  0  0  0  0  0  0
  150.6433  137.7698  157.2451 C   0  0  2  0  0  0  0  0  0  0  0  0
  151.3816  138.8416  156.6613 O   0  0  0  0  0  0  0  0  0  0  0  0
  152.0526  139.5660  157.6498 C   0  0  1  0  0  0  0  0  0  0  0  0
  151.6171  140.9934  157.5647 N   0  0  0  0  0  0  0  0  0  0  0  0
  150.8094  141.5239  156.6224 C   0  0  0  0  0  0  0  0  0  0  0  0
  150.5762  142.8171  156.7691 N   0  3  0  0  0  0  0  0  0  0  0  0
  151.2715  143.2143  157.8916 C   0  0  0  0  0  0  0  0  0  0  0  0
  151.9016  142.0661  158.3789 C   0  0  0  0  0  0  0  0  0  0  0  0
  152.7226  141.9009  159.5052 N   0  0  0  0  0  0  0  0  0  0  0  0
  152.8084  142.7788  160.4514 C   0  0  0  0  0  0  0  0  0  0  0  0
  152.2327  144.0357  160.5344 N   0  0  0  0  0  0  0  0  0  0  0  0
  152.2360  144.9872  159.4374 C   0  0  0  0  0  0  0  0  0  0  0  0
  151.2367  144.6466  158.3245 C   0  0  2  0  0  0  0  0  0  0  0  0
  149.9481  145.0592  158.7308 O   0  0  0  0  0  0  0  0  0  0  0  0
  151.6608  138.9688  159.0011 C   0  0  0  0  0  0  0  0  0  0  0  0
  151.3116  137.5500  158.6068 C   0  0  1  0  0  0  0  0  0  0  0  0
  150.4357  136.9732  159.5532 O   0  0  0  0  0  0  0  0  0  0  0  0
  149.6181  138.1211  157.3784 H   0  0  0  0  0  0  0  0  0  0  0  0
  153.1259  139.5601  157.4575 H   0  0  0  0  0  0  0  0  0  0  0  0
  151.4882  145.2589  157.4576 H   0  0  0  0  0  0  0  0  0  0  0  0
  152.2172  136.9494  158.5074 H   0  0  0  0  0  0  0  0  0  0  0  0
  152.3442  136.0260  157.1348 H   0  0  0  0  0  0  0  0  0  0  0  0
  150.3651  136.8285  155.2973 H   0  0  0  0  0  0  0  0  0  0  0  0
  149.9926  135.7867  156.6601 H   0  0  0  0  0  0  0  0  0  0  0  0
  150.3945  140.9388  155.8210 H   0  0  0  0  0  0  0  0  0  0  0  0
  153.4138  142.5489  161.3295 H   0  0  0  0  0  0  0  0  0  0  0  0
  152.2202  144.5040  161.4295 H   0  0  0  0  0  0  0  0  0  0  0  0
  152.0578  145.9917  159.8229 H   0  0  0  0  0  0  0  0  0  0  0  0
  153.2430  144.9986  159.0177 H   0  0  0  0  0  0  0  0  0  0  0  0
  149.5032  145.4408  157.9899 H   0  0  0  0  0  0  0  0  0  0  0  0
  152.4775  139.0424  159.7198 H   0  0  0  0  0  0  0  0  0  0  0  0
  150.7866  139.4882  159.3986 H   0  0  0  0  0  0  0  0  0  0  0  0
  149.6239  137.4583  159.5449 H   0  0  0  0  0  0  0  0  0  0  0  0
  150.0050  143.3971  156.1677 H   0  0  0  0  0  0  0  0  0  0  0  0
  1  2  1  0  0  0  0
  1 24  1  0  0  0  0
  2  3  1  0  0  0  0
  2 25  1  0  0  0  0
  2 26  1  0  0  0  0
  3 20  1  0  0  0  0
  3 18  1  0  0  0  0
  3  4  1  0  0  0  0
  4  5  1  0  0  0  0
  5 21  1  0  0  0  0
  5  6  1  0  0  0  0
  5 17  1  0  0  0  0
  6 10  1  0  0  0  0
  6  7  1  0  0  0  0
  7  8  2  0  0  0  0
  7 27  1  0  0  0  0
  8  9  1  0  0  0  0
  8 36  1  0  0  0  0
  9 15  1  0  0  0  0
  9 10  2  0  0  0  0
 10 11  1  0  0  0  0
 11 12  2  0  0  0  0
 12 13  1  0  0  0  0
 12 28  1  0  0  0  0
 13 14  1  0  0  0  0
 13 29  1  0  0  0  0
 14 15  1  0  0  0  0
 14 30  1  0  0  0  0
 14 31  1  0  0  0  0
 15 22  1  0  0  0  0
 15 16  1  0  0  0  0
 16 32  1  0  0  0  0
 17 18  1  0  0  0  0
 17 33  1  0  0  0  0
 17 34  1  0  0  0  0
 18 23  1  0  0  0  0
 18 19  1  0  0  0  0
 19 35  1  0  0  0  0
M  CHG  1   8   1
M  END
> <s_m_source_file>
AV-unprocessed.smi

> <i_m_source_file_index>
157

> <i_lp_mmshare_version>
43012

> <i_f3d_flags>
0

> <s_epik_input>
W09IXVtDSDJdW0NASF0xT1tDQEhdKFtDSDJdW0NAQEhdMVtPSF0pbihbY0hdbjIpYyhjMjMpTj1bQ0hdW05IXVtDSDJdW0NASF0zW09IXQ==

> <s_epik_cmdline>
J2VwaWtfcHl0aG9uJywgJy1waCcsICc3LjAnLCAnLXRuJywgJzgnLCAnLW1hJywgJzIwMCcsICctbWV0YWxfYmluZGluZycsICctaW1hZScsICc8aW5maWxlLm1hZT4nLCAnLW9tYWUnLCAnPG91dGZpbGUubWFlPic=

> <r_epik_Ionization_Penalty>
1.68594

> <r_epik_Ionization_Penalty_Charging>
0

> <r_epik_Ionization_Penalty_Neutral>
1.68594

> <r_epik_State_Penalty>
1.79006

> <r_epik_Charging_Adjusted_Penalty>
1.79006

> <i_epik_Tot_Q>
1

> <i_epik_Tot_abs_Q>
1

> <r_epik_Metal_State_Penalty>
5.85324

> <b_epik_Metal_Only>
0

> <s_epik_Chemistry_Notes>
This compound has an imine and may undergo hydrolysis. This compound contains an acetal/aminal-like group ( X-CH(R)-Y where X, Y are N, S, or O) that may be acid/base labile, releasing an aldehyde.

> <s_lp_Force_Field>
OPLS_2005

> <r_lp_Energy>
53.8289

> <b_lp_Chiralities_Consistent>
1

> <s_lp_Variant>
AV-unprocessed.smi:157-30

> <Gold.Version>
5.8.1

> <Gold.Id.Protein>
6NUR|6NUR_protein|mol2

> <Gold.PLP.Fitness>
48.7565

> <Gold.PLP.PLP>
-33.9880

> <Gold.PLP.part.hbond>
-4.3720

> <Gold.PLP.part.metal>
0.0000

> <Gold.PLP.part.buried>
-7.1049

> <Gold.PLP.part.nonpolar>
-23.0917

> <Gold.PLP.part.repulsive>
0.0919

> <Gold.PLP.ligand.clash>
0.0000

> <Gold.PLP.ligand.torsion>
0.1087

> <Gold.PLP.Chemscore.Hbond>
4.9920

> <Gold.PLP.Chemscore.CHOScore>
0.0000

> <Gold.PLP.Chemscore.Metal>
0.0000

> <Gold.Chemscore.Hbonds>
donor molecule, donor type, donor heavy atom, donor atom, acceptor molecule, acceptor atom, score
      L1  H     8    36       P1  8028  2.00
      L1  H    16    32       P1  8029  0.96
      P1  H  6896  6909       L1    19  0.96
      P1  H 10752 10765       L1     1  1.00

> <Gold.PLP.Chemscore.Internal.Correction>
0.0100

> <Gold.Rescore>
     Score         DG    S(hbond)    S(metal)    S(lipo)     H(rot)  DE(clash)    DE(int)     intcor
     14.81     -15.12       3.93        0.00      50.51       3.67       0.00       0.32       ----

> <Gold.Chemscore.Fitness>
14.8067

> <Gold.Chemscore.DG>
-15.1229

> <Gold.Chemscore.ZeroCoef>
-5.4800

> <Gold.Chemscore.Hbond>
3.9275

> <Gold.Chemscore.Metal>
0.0000

> <Gold.Chemscore.Lipo>
50.5113

> <Gold.Chemscore.Internal_Hbond>
0.0000

> <Gold.Chemscore.DEClash>
0.0000

> <Gold.Chemscore.DEInternal>
0.3162

> <Gold.Chemscore.Rot>
3.6659

> <Gold.Chemscore.Internal.Correction>
   9.000000E+99

> <Gold.Chemscore.Hbonds>
donor molecule, donor type, donor heavy atom, donor atom, acceptor molecule, acceptor atom, score
      L1  H     8    36       P1  8028  0.99
      L1  H    16    32       P1  8029  0.28
      P1  H  6896  6909       L1    19  0.36
      P1  H 10752 10765       L1     1  0.93

> <Gold.Chemscore.Hbond.Weighted>
-13.1179

> <Gold.Chemscore.Metal.Weighted>
-0.0000

> <Gold.Chemscore.Lipo.Weighted>
-5.9098

> <Gold.Chemscore.Internal_Hbond.Weighted>
0.0000

> <Gold.Chemscore.DEClash.Weighted>
0.0000

> <Gold.Chemscore.DEInternal.Weighted>
0.3162

> <Gold.Chemscore.Rot.Weighted>
9.3848

> <Gold.Chemscore.Internal.Correction.Weighted>
   9.000000E+99

> <Gold.Protein.RotatedTorsions>
[ 6907 6896 6895 6894 ] final  103.33 input  -60.11 | X-H torsion
[ 7974 7965 7964 7962 ] final  -85.67 input  175.53 | X-H torsion
[ 8008 7997 7996 7995 ] final  -25.83 input   59.86 | X-H torsion
[ 10167 10162 10161 10158 ] final -177.78 input  -65.29 | X-H torsion
[ 10718 10713 10712 10709 ] final -110.91 input   66.30 | X-H torsion
[ 10763 10752 10751 10750 ] final -157.47 input  -60.55 | X-H torsion
[ 11005 11000 10999 10996 ] final    0.65 input  -57.11 | X-H torsion

> <Gold.Protein.ActiveResidues>
 VAL166  LYS551  ARG553  GLY616  TRP617  ASP618  TYR619  PRO620  LYS621  CYS622 
 ASP623  PHE694  ASN695  SER759  ASP760  ASP761  ALA762  ILE779  LEU786  VAL792 
 PHE793  MET794  SER795  GLU796  ALA797  LYS798  CYS799  TRP800  GLU811  SER814 

> <Gold.Protein.RotatedAtoms>
  152.5298  133.9842  159.7820 H   0  0  0  0  0  0  0  0  0  0  0  0  # atno 6907 bound_to 6896
  151.0090  133.5975  159.2692 H   0  0  0  0  0  0  0  0  0  0  0  0  # atno 6908 bound_to 6896
  151.3057  135.0787  159.9307 H   0  0  0  0  0  0  0  0  0  0  0  0  # atno 6909 bound_to 6896
  145.4901  140.9553  143.1817 H   0  0  0  0  0  0  0  0  0  0  0  0  # atno 7974 bound_to 7965
  154.4456  140.1916  156.0680 H   0  0  0  0  0  0  0  0  0  0  0  0  # atno 8008 bound_to 7997
  156.0533  140.3306  155.7349 H   0  0  0  0  0  0  0  0  0  0  0  0  # atno 8009 bound_to 7997
  155.5524  140.0596  157.2838 H   0  0  0  0  0  0  0  0  0  0  0  0  # atno 8010 bound_to 7997
  139.5463  144.2226  152.0994 H   0  0  0  0  0  0  0  0  0  0  0  0  # atno 10167 bound_to 10162
  156.0617  130.5840  150.8301 H   0  0  0  0  0  0  0  0  0  0  0  0  # atno 10718 bound_to 10713
  154.7633  135.3124  154.8335 H   0  0  0  0  0  0  0  0  0  0  0  0  # atno 10763 bound_to 10752
  153.9089  135.6808  153.4756 H   0  0  0  0  0  0  0  0  0  0  0  0  # atno 10764 bound_to 10752
  153.1237  135.4811  154.9169 H   0  0  0  0  0  0  0  0  0  0  0  0  # atno 10765 bound_to 10752
  140.6242  133.9634  155.8240 H   0  0  0  0  0  0  0  0  0  0  0  0  # atno 11005 bound_to 11000
  144.7839  139.6468  143.7142 LP  0  0  0  0  0  0  0  0  0  0  0  0  # atno 17320 bound_to 7965
  146.2289  139.5776  142.9568 LP  0  0  0  0  0  0  0  0  0  0  0  0  # atno 17321 bound_to 7965
  140.1713  144.4933  150.6578 LP  0  0  0  0  0  0  0  0  0  0  0  0  # atno 17342 bound_to 10162
  140.6712  143.2287  151.5619 LP  0  0  0  0  0  0  0  0  0  0  0  0  # atno 17343 bound_to 10162
  157.5630  131.0946  150.9531 LP  0  0  0  0  0  0  0  0  0  0  0  0  # atno 17370 bound_to 10713
  156.9764  130.5510  149.5293 LP  0  0  0  0  0  0  0  0  0  0  0  0  # atno 17371 bound_to 10713
  141.0721  134.0189  157.3511 LP  0  0  0  0  0  0  0  0  0  0  0  0  # atno 17394 bound_to 11000
  139.9141  135.0194  156.7812 LP  0  0  0  0  0  0  0  0  0  0  0  0  # atno 17395 bound_to 11000

$$$$
