AV-unprocessed.smi:3064|AV-procd|sdf|11690|dock3
  -GOLD-   2272017 93D 1   1.00000     0.00000
 Structure written by MMmdl.
 21 22  0  0  0  0  0  0  0  0  1 V2000
  152.3727  142.3551  159.6191 C   0  0  0  0  0  0  0  0  0  0  0  0
  152.0483  143.6824  159.5016 C   0  0  0  0  0  0  0  0  0  0  0  0
  151.3251  144.0352  157.9562 S   0  0  0  0  0  0  0  0  0  0  0  0
  151.4763  142.3334  157.5281 C   0  0  0  0  0  0  0  0  0  0  0  0
  151.0600  141.7929  156.1969 C   0  0  1  0  0  0  0  0  0  0  0  0
  151.5322  140.3420  155.9808 C   0  0  0  0  0  0  0  0  0  0  0  0
  151.0367  139.8338  154.7027 N   0  0  0  0  0  0  0  0  0  0  0  0
  149.5826  139.9579  154.6131 C   0  0  0  0  0  0  0  0  0  0  0  0
  149.1525  141.4138  154.8691 C   0  0  0  0  0  0  0  0  0  0  0  0
  149.6359  141.8399  156.1386 O   0  0  0  0  0  0  0  0  0  0  0  0
  152.0528  141.6012  158.4875 N   0  0  0  0  0  0  0  0  0  0  0  0
  152.8336  141.8653  160.4640 H   0  0  0  0  0  0  0  0  0  0  0  0
  152.1933  144.4706  160.2252 H   0  0  0  0  0  0  0  0  0  0  0  0
  151.4760  142.4428  155.4248 H   0  0  0  0  0  0  0  0  0  0  0  0
  152.6209  140.2921  156.0058 H   0  0  0  0  0  0  0  0  0  0  0  0
  151.1705  139.7114  156.7941 H   0  0  0  0  0  0  0  0  0  0  0  0
  151.3021  138.8597  154.5979 H   0  0  0  0  0  0  0  0  0  0  0  0
  149.2388  139.6324  153.6311 H   0  0  0  0  0  0  0  0  0  0  0  0
  149.1081  139.3024  155.3445 H   0  0  0  0  0  0  0  0  0  0  0  0
  149.5221  142.0744  154.0833 H   0  0  0  0  0  0  0  0  0  0  0  0
  148.0651  141.4896  154.8621 H   0  0  0  0  0  0  0  0  0  0  0  0
  1 11  1  0  0  0  0
  1  2  2  0  0  0  0
  1 12  1  0  0  0  0
  2  3  1  0  0  0  0
  2 13  1  0  0  0  0
  3  4  1  0  0  0  0
  4  5  1  0  0  0  0
  4 11  2  0  0  0  0
  5 10  1  0  0  0  0
  5  6  1  0  0  0  0
  5 14  1  0  0  0  0
  6  7  1  0  0  0  0
  6 15  1  0  0  0  0
  6 16  1  0  0  0  0
  7  8  1  0  0  0  0
  7 17  1  0  0  0  0
  8  9  1  0  0  0  0
  8 18  1  0  0  0  0
  8 19  1  0  0  0  0
  9 10  1  0  0  0  0
  9 20  1  0  0  0  0
  9 21  1  0  0  0  0
M  END
> <s_m_source_file>
AV-unprocessed.smi

> <i_m_source_file_index>
3064

> <i_lp_mmshare_version>
43012

> <i_f3d_flags>
0

> <s_epik_input>
bjFbY0hdW2NIXXNjMVtDQEBIXTJbQ0gyXVtOSF1bQ0gyXVtDSDJdTzI=

> <s_epik_cmdline>
J2VwaWtfcHl0aG9uJywgJy1waCcsICc3LjAnLCAnLXRuJywgJzgnLCAnLW1hJywgJzIwMCcsICctbWV0YWxfYmluZGluZycsICctaW1hZScsICc8aW5maWxlLm1hZT4nLCAnLW9tYWUnLCAnPG91dGZpbGUubWFlPic=

> <r_epik_Ionization_Penalty>
0.980767

> <r_epik_Ionization_Penalty_Charging>
0

> <r_epik_Ionization_Penalty_Neutral>
0.980767

> <r_epik_State_Penalty>
1.0271

> <r_epik_Charging_Adjusted_Penalty>
1.0271

> <i_epik_Tot_Q>
0

> <i_epik_Tot_abs_Q>
0

> <r_epik_Metal_State_Penalty>
1.02673

> <b_epik_Metal_Only>
0

> <s_lp_Force_Field>
OPLS_2005

> <r_lp_Energy>
8.04051

> <b_lp_Chiralities_Consistent>
1

> <s_lp_Variant>
AV-unprocessed.smi:3064-4

> <Gold.Version>
5.8.1

> <Gold.Id.Protein>
6NUR|6NUR_protein|mol2

> <Gold.PLP.Fitness>
27.7905

> <Gold.PLP.PLP>
-25.0784

> <Gold.PLP.part.hbond>
-1.0000

> <Gold.PLP.part.metal>
0.0000

> <Gold.PLP.part.buried>
-4.4860

> <Gold.PLP.part.nonpolar>
-20.4367

> <Gold.PLP.part.repulsive>
0.7637

> <Gold.PLP.ligand.clash>
0.0000

> <Gold.PLP.ligand.torsion>
0.1492

> <Gold.PLP.Chemscore.Hbond>
1.0000

> <Gold.PLP.Chemscore.CHOScore>
0.0000

> <Gold.PLP.Chemscore.Metal>
0.0000

> <Gold.Chemscore.Hbonds>
donor molecule, donor type, donor heavy atom, donor atom, acceptor molecule, acceptor atom, score
      P1  H  7989  7998       L1     7  1.00

> <Gold.PLP.Chemscore.Internal.Correction>
0.0106

> <Gold.Rescore>
     Score         DG    S(hbond)    S(metal)    S(lipo)     H(rot)  DE(clash)    DE(int)     intcor
     12.09     -12.69       0.33        0.00      74.09       1.00       0.38       0.22       ----

> <Gold.Chemscore.Fitness>
12.0930

> <Gold.Chemscore.DG>
-12.6857

> <Gold.Chemscore.ZeroCoef>
-5.4800

> <Gold.Chemscore.Hbond>
0.3286

> <Gold.Chemscore.Metal>
0.0000

> <Gold.Chemscore.Lipo>
74.0861

> <Gold.Chemscore.Internal_Hbond>
0.0000

> <Gold.Chemscore.DEClash>
0.3777

> <Gold.Chemscore.DEInternal>
0.2150

> <Gold.Chemscore.Rot>
1.0000

> <Gold.Chemscore.Internal.Correction>
   9.000000E+99

> <Gold.Chemscore.Hbonds>
donor molecule, donor type, donor heavy atom, donor atom, acceptor molecule, acceptor atom, score
      P1  H  7989  7998       L1     7  0.27

> <Gold.Chemscore.Hbond.Weighted>
-1.0976

> <Gold.Chemscore.Metal.Weighted>
-0.0000

> <Gold.Chemscore.Lipo.Weighted>
-8.6681

> <Gold.Chemscore.Internal_Hbond.Weighted>
0.0000

> <Gold.Chemscore.DEClash.Weighted>
0.3777

> <Gold.Chemscore.DEInternal.Weighted>
0.2150

> <Gold.Chemscore.Rot.Weighted>
2.5600

> <Gold.Chemscore.Internal.Correction.Weighted>
   9.000000E+99

> <Gold.Protein.RotatedTorsions>
[ 6907 6896 6895 6894 ] final   49.27 input  -60.11 | X-H torsion
[ 7974 7965 7964 7962 ] final -135.68 input  175.53 | X-H torsion
[ 8008 7997 7996 7995 ] final -160.48 input   59.86 | X-H torsion
[ 10167 10162 10161 10158 ] final   10.83 input  -65.29 | X-H torsion
[ 10718 10713 10712 10709 ] final  -71.15 input   66.30 | X-H torsion
[ 10763 10752 10751 10750 ] final -132.80 input  -60.55 | X-H torsion
[ 11005 11000 10999 10996 ] final -134.72 input  -57.11 | X-H torsion

> <Gold.Protein.ActiveResidues>
 VAL166  LYS551  ARG553  GLY616  TRP617  ASP618  TYR619  PRO620  LYS621  CYS622 
 ASP623  PHE694  ASN695  SER759  ASP760  ASP761  ALA762  ILE779  LEU786  VAL792 
 PHE793  MET794  SER795  GLU796  ALA797  LYS798  CYS799  TRP800  GLU811  SER814 

> <Gold.Protein.RotatedAtoms>
  152.2889  134.7744  160.0381 H   0  0  0  0  0  0  0  0  0  0  0  0  # atno 6907 bound_to 6896
  151.8297  133.3401  159.3618 H   0  0  0  0  0  0  0  0  0  0  0  0  # atno 6908 bound_to 6896
  150.7221  134.5423  159.5798 H   0  0  0  0  0  0  0  0  0  0  0  0  # atno 6909 bound_to 6896
  144.8993  140.6749  143.5095 H   0  0  0  0  0  0  0  0  0  0  0  0  # atno 7974 bound_to 7965
  155.7780  140.0861  157.2074 H   0  0  0  0  0  0  0  0  0  0  0  0  # atno 8008 bound_to 7997
  154.3992  140.1513  156.3077 H   0  0  0  0  0  0  0  0  0  0  0  0  # atno 8009 bound_to 7997
  155.8681  140.3427  155.5805 H   0  0  0  0  0  0  0  0  0  0  0  0  # atno 8010 bound_to 7997
  140.6170  143.8287  150.7130 H   0  0  0  0  0  0  0  0  0  0  0  0  # atno 10167 bound_to 10162
  156.0376  130.4345  150.2401 H   0  0  0  0  0  0  0  0  0  0  0  0  # atno 10718 bound_to 10713
  154.8739  135.3786  154.4468 H   0  0  0  0  0  0  0  0  0  0  0  0  # atno 10763 bound_to 10752
  153.5148  135.7029  153.5767 H   0  0  0  0  0  0  0  0  0  0  0  0  # atno 10764 bound_to 10752
  153.4040  135.3941  155.1973 H   0  0  0  0  0  0  0  0  0  0  0  0  # atno 10765 bound_to 10752
  140.8964  134.1746  157.4491 H   0  0  0  0  0  0  0  0  0  0  0  0  # atno 11005 bound_to 11000
  145.3645  139.1673  143.4365 LP  0  0  0  0  0  0  0  0  0  0  0  0  # atno 17320 bound_to 7965
  146.3099  140.3710  142.8674 LP  0  0  0  0  0  0  0  0  0  0  0  0  # atno 17321 bound_to 7965
  140.1868  143.4069  152.1892 LP  0  0  0  0  0  0  0  0  0  0  0  0  # atno 17342 bound_to 10162
  139.5407  144.7253  151.4745 LP  0  0  0  0  0  0  0  0  0  0  0  0  # atno 17343 bound_to 10162
  157.0499  131.0059  151.3257 LP  0  0  0  0  0  0  0  0  0  0  0  0  # atno 17370 bound_to 10713
  157.5148  130.7961  149.7744 LP  0  0  0  0  0  0  0  0  0  0  0  0  # atno 17371 bound_to 10713
  139.8736  134.9880  156.5393 LP  0  0  0  0  0  0  0  0  0  0  0  0  # atno 17394 bound_to 11000
  140.8283  133.8299  155.8960 LP  0  0  0  0  0  0  0  0  0  0  0  0  # atno 17395 bound_to 11000

$$$$
