AV-unprocessed.smi:109|AV-procd|sdf|1043|dock8
  -GOLD-   2262018 73D 1   1.00000     0.00000
 Structure written by MMmdl.
 58 61  0  0  0  0  0  0  0  0  1 V2000
  151.0581  139.6290  154.7492 O   0  0  0  0  0  0  0  0  0  0  0  0
  151.5192  140.2241  155.9429 C   0  0  0  0  0  0  0  0  0  0  0  0
  150.4199  140.1606  157.0169 C   0  0  0  0  0  0  0  0  0  0  0  0
  149.9592  141.5441  157.5392 C   0  0  2  0  0  0  0  0  0  0  0  0
  149.2725  142.2660  156.4658 N   0  0  0  0  0  0  0  0  0  0  0  0
  148.3663  141.6644  155.6630 C   0  0  0  0  0  0  0  0  0  0  0  0
  148.5251  141.6243  154.3145 N   0  0  0  0  0  0  0  0  0  0  0  0
  147.6027  141.0336  153.5491 C   0  0  0  0  0  0  0  0  0  0  0  0
  146.4716  140.4297  153.9214 N   0  0  0  0  0  0  0  0  0  0  0  0
  146.3112  140.4612  155.2764 C   0  0  0  0  0  0  0  0  0  0  0  0
  147.2052  141.0585  156.2073 C   0  0  0  0  0  0  0  0  0  0  0  0
  146.7132  140.9043  157.4958 N   0  0  0  0  0  0  0  0  0  0  0  0
  145.5926  140.2550  157.3296 C   0  0  0  0  0  0  0  0  0  0  0  0
  145.2776  139.9362  156.0228 N   0  0  0  0  0  0  0  0  0  0  0  0
  144.0725  139.2361  155.4601 C   0  0  2  0  0  0  0  0  0  0  0  0
  143.2622  138.8539  156.5245 O   0  0  0  0  0  0  0  0  0  0  0  0
  143.6728  137.5761  156.9882 C   0  0  1  0  0  0  0  0  0  0  0  0
  142.5255  136.9250  157.7750 C   0  0  0  0  0  0  0  0  0  0  0  0
  142.6482  135.5192  157.7483 O   0  0  0  0  0  0  0  0  0  0  0  0
  144.0768  136.8346  155.7017 C   0  0  2  0  0  0  0  0  0  0  0  0
  145.1882  135.9969  155.9517 O   0  0  0  0  0  0  0  0  0  0  0  0
  144.4525  137.9461  154.7142 C   0  0  1  0  0  0  0  0  0  0  0  0
  143.7158  137.8196  153.5149 O   0  0  0  0  0  0  0  0  0  0  0  0
  151.1267  142.4166  158.0856 C   0  0  0  0  0  0  0  0  0  0  0  0
  151.8654  141.7618  159.2802 C   0  0  0  0  0  0  0  0  0  0  0  0
  152.9954  142.6474  159.8315 C   0  0  0  0  0  0  0  0  0  0  0  0
  152.4799  144.0351  160.2313 C   0  0  0  0  0  0  0  0  0  0  0  0
  151.7695  144.7065  159.0505 C   0  0  0  0  0  0  0  0  0  0  0  0
  150.6328  143.8238  158.5126 C   0  0  0  0  0  0  0  0  0  0  0  0
  143.5874  139.9824  154.8299 H   0  0  0  0  0  0  0  0  0  0  0  0
  144.5327  137.7231  157.6438 H   0  0  0  0  0  0  0  0  0  0  0  0
  143.2463  136.2374  155.3214 H   0  0  0  0  0  0  0  0  0  0  0  0
  145.5117  137.9530  154.4537 H   0  0  0  0  0  0  0  0  0  0  0  0
  150.1179  139.5488  154.7982 H   0  0  0  0  0  0  0  0  0  0  0  0
  152.4189  139.6998  156.2650 H   0  0  0  0  0  0  0  0  0  0  0  0
  151.7968  141.2584  155.7383 H   0  0  0  0  0  0  0  0  0  0  0  0
  149.5787  139.6323  156.5718 H   0  0  0  0  0  0  0  0  0  0  0  0
  150.7583  139.5478  157.8536 H   0  0  0  0  0  0  0  0  0  0  0  0
  149.2828  141.3756  158.3770 H   0  0  0  0  0  0  0  0  0  0  0  0
  149.4101  143.2666  156.4645 H   0  0  0  0  0  0  0  0  0  0  0  0
  147.7995  141.0461  152.4871 H   0  0  0  0  0  0  0  0  0  0  0  0
  144.9669  139.9955  158.1700 H   0  0  0  0  0  0  0  0  0  0  0  0
  142.5564  137.2486  158.8157 H   0  0  0  0  0  0  0  0  0  0  0  0
  141.5551  137.2195  157.3742 H   0  0  0  0  0  0  0  0  0  0  0  0
  141.7843  135.1405  157.8054 H   0  0  0  0  0  0  0  0  0  0  0  0
  145.8385  136.4907  156.4264 H   0  0  0  0  0  0  0  0  0  0  0  0
  143.6041  138.6796  153.1393 H   0  0  0  0  0  0  0  0  0  0  0  0
  151.8515  142.5489  157.2804 H   0  0  0  0  0  0  0  0  0  0  0  0
  151.1529  141.5423  160.0767 H   0  0  0  0  0  0  0  0  0  0  0  0
  152.3101  140.8113  158.9913 H   0  0  0  0  0  0  0  0  0  0  0  0
  153.4590  142.1633  160.6916 H   0  0  0  0  0  0  0  0  0  0  0  0
  153.7769  142.7518  159.0778 H   0  0  0  0  0  0  0  0  0  0  0  0
  151.7911  143.9444  161.0722 H   0  0  0  0  0  0  0  0  0  0  0  0
  153.3079  144.6572  160.5726 H   0  0  0  0  0  0  0  0  0  0  0  0
  151.3737  145.6749  159.3577 H   0  0  0  0  0  0  0  0  0  0  0  0
  152.4875  144.9043  158.2536 H   0  0  0  0  0  0  0  0  0  0  0  0
  150.1693  144.3444  157.6745 H   0  0  0  0  0  0  0  0  0  0  0  0
  149.8589  143.7243  159.2751 H   0  0  0  0  0  0  0  0  0  0  0  0
  1  2  1  0  0  0  0
  1 34  1  0  0  0  0
  2  3  1  0  0  0  0
  2 35  1  0  0  0  0
  2 36  1  0  0  0  0
  3  4  1  0  0  0  0
  3 37  1  0  0  0  0
  3 38  1  0  0  0  0
  4  5  1  0  0  0  0
  4 24  1  0  0  0  0
  4 39  1  0  0  0  0
  5  6  1  0  0  0  0
  5 40  1  0  0  0  0
  6 11  1  0  0  0  0
  6  7  2  0  0  0  0
  7  8  1  0  0  0  0
  8  9  2  0  0  0  0
  8 41  1  0  0  0  0
  9 10  1  0  0  0  0
 10 14  1  0  0  0  0
 10 11  2  0  0  0  0
 11 12  1  0  0  0  0
 12 13  2  0  0  0  0
 13 14  1  0  0  0  0
 13 42  1  0  0  0  0
 14 15  1  0  0  0  0
 15 30  1  0  0  0  0
 15 22  1  0  0  0  0
 15 16  1  0  0  0  0
 16 17  1  0  0  0  0
 17 31  1  0  0  0  0
 17 18  1  0  0  0  0
 17 20  1  0  0  0  0
 18 19  1  0  0  0  0
 18 43  1  0  0  0  0
 18 44  1  0  0  0  0
 19 45  1  0  0  0  0
 20 32  1  0  0  0  0
 20 21  1  0  0  0  0
 20 22  1  0  0  0  0
 21 46  1  0  0  0  0
 22 33  1  0  0  0  0
 22 23  1  0  0  0  0
 23 47  1  0  0  0  0
 24 29  1  0  0  0  0
 24 25  1  0  0  0  0
 24 48  1  0  0  0  0
 25 26  1  0  0  0  0
 25 49  1  0  0  0  0
 25 50  1  0  0  0  0
 26 27  1  0  0  0  0
 26 51  1  0  0  0  0
 26 52  1  0  0  0  0
 27 28  1  0  0  0  0
 27 53  1  0  0  0  0
 27 54  1  0  0  0  0
 28 29  1  0  0  0  0
 28 55  1  0  0  0  0
 28 56  1  0  0  0  0
 29 57  1  0  0  0  0
 29 58  1  0  0  0  0
M  END
> <s_m_source_file>
AV-unprocessed.smi

> <i_m_source_file_index>
109

> <i_lp_mmshare_version>
43012

> <i_f3d_flags>
0

> <s_epik_input>
W0NIMl0xW0NIMl1bQ0gyXVtDSDJdW0NIMl1bQ0hdMVtDQEhdKFtDSDJdW0NIMl1bT0hdKVtOSF1jKG5bY0hdbjIpYyhjMjMpbltjSF1uM1tDQEBIXTRPW0NASF0oW0NIMl1bT0hdKVtDQEBIXShbT0hdKVtDQEhdNFtPSF0=

> <s_epik_cmdline>
J2VwaWtfcHl0aG9uJywgJy1waCcsICc3LjAnLCAnLXRuJywgJzgnLCAnLW1hJywgJzIwMCcsICctbWV0YWxfYmluZGluZycsICctaW1hZScsICc8aW5maWxlLm1hZT4nLCAnLW9tYWUnLCAnPG91dGZpbGUubWFlPic=

> <r_lp_tautomer_probability>
1

> <r_epik_Ionization_Penalty>
0.000793976

> <r_epik_Ionization_Penalty_Charging>
0

> <r_epik_Ionization_Penalty_Neutral>
0.000793976

> <r_epik_State_Penalty>
-0

> <r_epik_Charging_Adjusted_Penalty>
0

> <i_epik_Tot_Q>
0

> <i_epik_Tot_abs_Q>
0

> <r_epik_Metal_State_Penalty>
-0

> <b_epik_Metal_Only>
0

> <s_epik_Chemistry_Notes>
This compound contains an acetal/aminal-like group ( X-CH(R)-Y where X, Y are N, S, or O) that may be acid/base labile, releasing an aldehyde.

> <s_lp_Force_Field>
OPLS_2005

> <r_lp_Energy>
47.5794

> <b_lp_Chiralities_Consistent>
1

> <s_lp_Variant>
AV-unprocessed.smi:109-13

> <Gold.Version>
5.8.1

> <Gold.Id.Protein>
6NUR|6NUR_protein|mol2

> <Gold.PLP.Fitness>
48.4969

> <Gold.PLP.PLP>
-36.5285

> <Gold.PLP.part.hbond>
-4.7401

> <Gold.PLP.part.metal>
0.0000

> <Gold.PLP.part.buried>
-5.1281

> <Gold.PLP.part.nonpolar>
-27.1637

> <Gold.PLP.part.repulsive>
0.4175

> <Gold.PLP.ligand.clash>
0.0000

> <Gold.PLP.ligand.torsion>
1.3723

> <Gold.PLP.Chemscore.Hbond>
3.8381

> <Gold.PLP.Chemscore.CHOScore>
1.0000

> <Gold.PLP.Chemscore.Metal>
0.0000

> <Gold.Chemscore.Hbonds>
donor molecule, donor type, donor heavy atom, donor atom, acceptor molecule, acceptor atom, score
      L1  H     5    40       P1  8028  0.85
      L1  H    19    45       P1 11000  0.84
      L1  H    23    47       P1 10175  1.00
      P1  H  7989  7998       L1     1  1.00
      L1  C     8    41       P1  7957  1.00

> <Gold.PLP.Chemscore.Internal.Correction>
0.1988

> <Gold.Rescore>
     Score         DG    S(hbond)    S(metal)    S(lipo)     H(rot)  DE(clash)    DE(int)     intcor
     10.34     -11.67       3.32        0.00      77.78       5.47       0.04       1.28       ----

> <Gold.Chemscore.Fitness>
10.3444

> <Gold.Chemscore.DG>
-11.6684

> <Gold.Chemscore.ZeroCoef>
-5.4800

> <Gold.Chemscore.Hbond>
3.3179

> <Gold.Chemscore.Metal>
0.0000

> <Gold.Chemscore.Lipo>
77.7804

> <Gold.Chemscore.Internal_Hbond>
0.0000

> <Gold.Chemscore.DEClash>
0.0424

> <Gold.Chemscore.DEInternal>
1.2817

> <Gold.Chemscore.Rot>
5.4662

> <Gold.Chemscore.Internal.Correction>
   9.000000E+99

> <Gold.Chemscore.Hbonds>
donor molecule, donor type, donor heavy atom, donor atom, acceptor molecule, acceptor atom, score
      L1  H     5    40       P1  8028  0.83
      L1  H    19    45       P1 11000  0.67
      L1  H    23    47       P1 10175  1.00
      P1  H  7989  7998       L1     1  0.26

> <Gold.Chemscore.Hbond.Weighted>
-11.0816

> <Gold.Chemscore.Metal.Weighted>
-0.0000

> <Gold.Chemscore.Lipo.Weighted>
-9.1003

> <Gold.Chemscore.Internal_Hbond.Weighted>
0.0000

> <Gold.Chemscore.DEClash.Weighted>
0.0424

> <Gold.Chemscore.DEInternal.Weighted>
1.2817

> <Gold.Chemscore.Rot.Weighted>
13.9935

> <Gold.Chemscore.Internal.Correction.Weighted>
   9.000000E+99

> <Gold.Protein.RotatedTorsions>
[ 6907 6896 6895 6894 ] final  123.50 input  -60.11 | X-H torsion
[ 7974 7965 7964 7962 ] final -102.43 input  175.53 | X-H torsion
[ 8008 7997 7996 7995 ] final  -93.44 input   59.86 | X-H torsion
[ 10167 10162 10161 10158 ] final   16.56 input  -65.29 | X-H torsion
[ 10718 10713 10712 10709 ] final   22.59 input   66.30 | X-H torsion
[ 10763 10752 10751 10750 ] final   70.22 input  -60.55 | X-H torsion
[ 11005 11000 10999 10996 ] final   11.23 input  -57.11 | X-H torsion

> <Gold.Protein.ActiveResidues>
 VAL166  LYS551  ARG553  GLY616  TRP617  ASP618  TYR619  PRO620  LYS621  CYS622 
 ASP623  PHE694  ASN695  SER759  ASP760  ASP761  ALA762  ILE779  LEU786  VAL792 
 PHE793  MET794  SER795  GLU796  ALA797  LYS798  CYS799  TRP800  GLU811  SER814 

> <Gold.Protein.RotatedAtoms>
  152.4156  133.7033  159.6435 H   0  0  0  0  0  0  0  0  0  0  0  0  # atno 6907 bound_to 6896
  150.8033  133.8546  159.3223 H   0  0  0  0  0  0  0  0  0  0  0  0  # atno 6908 bound_to 6896
  151.6276  135.1028  160.0166 H   0  0  0  0  0  0  0  0  0  0  0  0  # atno 6909 bound_to 6896
  145.2688  140.9292  143.2998 H   0  0  0  0  0  0  0  0  0  0  0  0  # atno 7974 bound_to 7965
  154.7357  140.0499  157.0767 H   0  0  0  0  0  0  0  0  0  0  0  0  # atno 8008 bound_to 7997
  155.0243  140.3150  155.4762 H   0  0  0  0  0  0  0  0  0  0  0  0  # atno 8009 bound_to 7997
  156.2852  140.2161  156.5362 H   0  0  0  0  0  0  0  0  0  0  0  0  # atno 8010 bound_to 7997
  140.5789  143.9019  150.6773 H   0  0  0  0  0  0  0  0  0  0  0  0  # atno 10167 bound_to 10162
  157.1543  130.6689  149.6022 H   0  0  0  0  0  0  0  0  0  0  0  0  # atno 10718 bound_to 10713
  153.0330  135.5182  154.7408 H   0  0  0  0  0  0  0  0  0  0  0  0  # atno 10763 bound_to 10752
  154.6408  135.2912  155.0108 H   0  0  0  0  0  0  0  0  0  0  0  0  # atno 10764 bound_to 10752
  154.1026  135.6634  153.4923 H   0  0  0  0  0  0  0  0  0  0  0  0  # atno 10765 bound_to 10752
  140.5055  134.0703  155.7804 H   0  0  0  0  0  0  0  0  0  0  0  0  # atno 11005 bound_to 11000
  144.9353  139.4251  143.6475 LP  0  0  0  0  0  0  0  0  0  0  0  0  # atno 17320 bound_to 7965
  146.3253  139.8285  142.8913 LP  0  0  0  0  0  0  0  0  0  0  0  0  # atno 17321 bound_to 7965
  140.2514  143.3591  152.1403 LP  0  0  0  0  0  0  0  0  0  0  0  0  # atno 17342 bound_to 10162
  139.5158  144.6968  151.5606 LP  0  0  0  0  0  0  0  0  0  0  0  0  # atno 17343 bound_to 10162
  155.9765  130.4733  150.6530 LP  0  0  0  0  0  0  0  0  0  0  0  0  # atno 17370 bound_to 10713
  157.4191  131.0834  151.1148 LP  0  0  0  0  0  0  0  0  0  0  0  0  # atno 17371 bound_to 10713
  141.1413  133.9133  157.2319 LP  0  0  0  0  0  0  0  0  0  0  0  0  # atno 17394 bound_to 11000
  139.9688  135.0134  156.9459 LP  0  0  0  0  0  0  0  0  0  0  0  0  # atno 17395 bound_to 11000

$$$$
