AV-unprocessed.smi:2877|AV-procd|sdf|11043|dock7
  -GOLD-   2272015513D 1   1.00000     0.00000
 Structure written by MMmdl.
 41 42  0  0  0  0  0  0  0  0  1 V2000
  150.6001  143.8641  157.9801 O   0  0  0  0  0  0  0  0  0  0  0  0
  151.4366  142.9939  158.2283 C   0  0  0  0  0  0  0  0  0  0  0  0
  151.3781  141.6634  157.4573 C   0  0  0  0  0  0  0  0  0  0  0  0
  150.7707  141.7829  156.0440 C   0  0  0  0  0  0  0  0  0  0  0  0
  149.3512  141.4467  156.0417 N   0  0  0  0  0  0  0  0  0  0  0  0
  148.5407  141.5081  154.9722 C   0  0  0  0  0  0  0  0  0  0  0  0
  148.9304  141.8702  153.8605 O   0  0  0  0  0  0  0  0  0  0  0  0
  147.0833  141.0710  155.1996 C   0  0  0  0  0  0  0  0  0  0  0  0
  146.9676  140.6748  156.4686 F   0  0  0  0  0  0  0  0  0  0  0  0
  146.2834  142.1268  155.0297 F   0  0  0  0  0  0  0  0  0  0  0  0
  146.6611  139.9464  154.2543 C   0  0  0  0  0  0  0  0  0  0  0  0
  145.4987  139.1816  154.5052 C   0  0  0  0  0  0  0  0  0  0  0  0
  145.1614  138.1506  153.6076 C   0  0  0  0  0  0  0  0  0  0  0  0
  145.9932  137.9198  152.4957 C   0  0  0  0  0  0  0  0  0  0  0  0
  147.1322  138.7322  152.3319 C   0  0  0  0  0  0  0  0  0  0  0  0
  147.4648  139.7230  153.1866 N   0  0  0  0  0  0  0  0  0  0  0  0
  152.4046  143.1691  159.1615 N   0  0  0  0  0  0  0  0  0  0  0  0
  152.4929  144.3758  159.9951 C   0  0  0  0  0  0  0  0  0  0  0  0
  152.1212  144.0091  161.4439 C   0  0  0  0  0  0  0  0  0  0  0  0
  153.0160  142.8721  161.9722 C   0  0  0  0  0  0  0  0  0  0  0  0
  153.0617  141.6834  160.9938 C   0  0  0  0  0  0  0  0  0  0  0  0
  153.3929  142.1592  159.5677 C   0  0  0  0  0  0  0  0  0  0  0  0
  152.3897  141.2639  157.3789 H   0  0  0  0  0  0  0  0  0  0  0  0
  150.7913  140.9516  158.0394 H   0  0  0  0  0  0  0  0  0  0  0  0
  150.8673  142.8053  155.6764 H   0  0  0  0  0  0  0  0  0  0  0  0
  151.3039  141.1440  155.3374 H   0  0  0  0  0  0  0  0  0  0  0  0
  148.9542  141.1391  156.9178 H   0  0  0  0  0  0  0  0  0  0  0  0
  144.8793  139.3727  155.3690 H   0  0  0  0  0  0  0  0  0  0  0  0
  144.2807  137.5469  153.7702 H   0  0  0  0  0  0  0  0  0  0  0  0
  145.7648  137.1378  151.7868 H   0  0  0  0  0  0  0  0  0  0  0  0
  147.7939  138.5824  151.4916 H   0  0  0  0  0  0  0  0  0  0  0  0
  153.5101  144.7682  159.9563 H   0  0  0  0  0  0  0  0  0  0  0  0
  151.8514  145.1843  159.6420 H   0  0  0  0  0  0  0  0  0  0  0  0
  152.2103  144.8843  162.0880 H   0  0  0  0  0  0  0  0  0  0  0  0
  151.0757  143.7003  161.4829 H   0  0  0  0  0  0  0  0  0  0  0  0
  154.0278  143.2532  162.1156 H   0  0  0  0  0  0  0  0  0  0  0  0
  152.6696  142.5423  162.9520 H   0  0  0  0  0  0  0  0  0  0  0  0
  153.8000  140.9540  161.3279 H   0  0  0  0  0  0  0  0  0  0  0  0
  152.0982  141.1718  160.9926 H   0  0  0  0  0  0  0  0  0  0  0  0
  153.4499  141.3020  158.8989 H   0  0  0  0  0  0  0  0  0  0  0  0
  154.3879  142.6063  159.5475 H   0  0  0  0  0  0  0  0  0  0  0  0
  1  2  2  0  0  0  0
  2  3  1  0  0  0  0
  2 17  1  0  0  0  0
  3  4  1  0  0  0  0
  3 23  1  0  0  0  0
  3 24  1  0  0  0  0
  4  5  1  0  0  0  0
  4 25  1  0  0  0  0
  4 26  1  0  0  0  0
  5  6  1  0  0  0  0
  5 27  1  0  0  0  0
  6  7  2  0  0  0  0
  6  8  1  0  0  0  0
  8  9  1  0  0  0  0
  8 10  1  0  0  0  0
  8 11  1  0  0  0  0
 11 16  1  0  0  0  0
 11 12  2  0  0  0  0
 12 13  1  0  0  0  0
 12 28  1  0  0  0  0
 13 14  2  0  0  0  0
 13 29  1  0  0  0  0
 14 15  1  0  0  0  0
 14 30  1  0  0  0  0
 15 16  2  0  0  0  0
 15 31  1  0  0  0  0
 17 22  1  0  0  0  0
 17 18  1  0  0  0  0
 18 19  1  0  0  0  0
 18 32  1  0  0  0  0
 18 33  1  0  0  0  0
 19 20  1  0  0  0  0
 19 34  1  0  0  0  0
 19 35  1  0  0  0  0
 20 21  1  0  0  0  0
 20 36  1  0  0  0  0
 20 37  1  0  0  0  0
 21 22  1  0  0  0  0
 21 38  1  0  0  0  0
 21 39  1  0  0  0  0
 22 40  1  0  0  0  0
 22 41  1  0  0  0  0
M  END
> <s_m_source_file>
AV-unprocessed.smi

> <i_m_source_file_index>
2877

> <i_lp_mmshare_version>
43012

> <i_f3d_flags>
0

> <s_epik_input>
W0NIMl0xW0NIMl1bQ0gyXVtDSDJdW0NIMl1OMUMoPU8pW0NIMl1bQ0gyXVtOSF1DKD1PKUMoRikoRiljMltjSF1bY0hdW2NIXVtjSF1uMg==

> <s_epik_cmdline>
J2VwaWtfcHl0aG9uJywgJy1waCcsICc3LjAnLCAnLXRuJywgJzgnLCAnLW1hJywgJzIwMCcsICctbWV0YWxfYmluZGluZycsICctaW1hZScsICc8aW5maWxlLm1hZT4nLCAnLW9tYWUnLCAnPG91dGZpbGUubWFlPic=

> <r_lp_tautomer_probability>
1

> <r_epik_Ionization_Penalty>
7.88991e-05

> <r_epik_Ionization_Penalty_Charging>
0

> <r_epik_Ionization_Penalty_Neutral>
7.88991e-05

> <r_epik_State_Penalty>
-0

> <r_epik_Charging_Adjusted_Penalty>
0

> <i_epik_Tot_Q>
0

> <i_epik_Tot_abs_Q>
0

> <r_epik_Metal_State_Penalty>
0.0639978

> <b_epik_Metal_Only>
0

> <s_lp_Force_Field>
OPLS_2005

> <r_lp_Energy>
32.8241

> <b_lp_Chiralities_Consistent>
1

> <s_lp_Variant>
AV-unprocessed.smi:2877-1

> <Gold.Version>
5.8.1

> <Gold.Id.Protein>
6NUR|6NUR_protein|mol2

> <Gold.PLP.Fitness>
44.7820

> <Gold.PLP.PLP>
-41.1139

> <Gold.PLP.part.hbond>
-1.0000

> <Gold.PLP.part.metal>
0.0000

> <Gold.PLP.part.buried>
-4.6098

> <Gold.PLP.part.nonpolar>
-35.6419

> <Gold.PLP.part.repulsive>
1.4230

> <Gold.PLP.ligand.clash>
0.0000

> <Gold.PLP.ligand.torsion>
1.2525

> <Gold.PLP.Chemscore.Hbond>
0.5600

> <Gold.PLP.Chemscore.CHOScore>
1.4852

> <Gold.PLP.Chemscore.Metal>
0.0000

> <Gold.Chemscore.Hbonds>
donor molecule, donor type, donor heavy atom, donor atom, acceptor molecule, acceptor atom, score
      P1  H  8011  8017       L1     7  0.51
      L1  C    15    31       P1  7948  0.45
      L1  C    15    31       P1  7957  0.82

> <Gold.PLP.Chemscore.Internal.Correction>
0.0375

> <Gold.Rescore>
     Score         DG    S(hbond)    S(metal)    S(lipo)     H(rot)  DE(clash)    DE(int)     intcor
     10.52     -13.22       0.44        0.00      96.35       1.95       0.13       2.57       ----

> <Gold.Chemscore.Fitness>
10.5228

> <Gold.Chemscore.DG>
-13.2190

> <Gold.Chemscore.ZeroCoef>
-5.4800

> <Gold.Chemscore.Hbond>
0.4356

> <Gold.Chemscore.Metal>
0.0000

> <Gold.Chemscore.Lipo>
96.3492

> <Gold.Chemscore.Internal_Hbond>
0.0000

> <Gold.Chemscore.DEClash>
0.1263

> <Gold.Chemscore.DEInternal>
2.5699

> <Gold.Chemscore.Rot>
1.9487

> <Gold.Chemscore.Internal.Correction>
   9.000000E+99

> <Gold.Chemscore.Hbonds>
donor molecule, donor type, donor heavy atom, donor atom, acceptor molecule, acceptor atom, score
      P1  H  8011  8017       L1     7  0.52

> <Gold.Chemscore.Hbond.Weighted>
-1.4548

> <Gold.Chemscore.Metal.Weighted>
-0.0000

> <Gold.Chemscore.Lipo.Weighted>
-11.2729

> <Gold.Chemscore.Internal_Hbond.Weighted>
0.0000

> <Gold.Chemscore.DEClash.Weighted>
0.1263

> <Gold.Chemscore.DEInternal.Weighted>
2.5699

> <Gold.Chemscore.Rot.Weighted>
4.9886

> <Gold.Chemscore.Internal.Correction.Weighted>
   9.000000E+99

> <Gold.Protein.RotatedTorsions>
[ 6907 6896 6895 6894 ] final  153.19 input  -60.11 | X-H torsion
[ 7974 7965 7964 7962 ] final -100.26 input  175.53 | X-H torsion
[ 8008 7997 7996 7995 ] final  139.27 input   59.86 | X-H torsion
[ 10167 10162 10161 10158 ] final   96.80 input  -65.29 | X-H torsion
[ 10718 10713 10712 10709 ] final  165.90 input   66.30 | X-H torsion
[ 10763 10752 10751 10750 ] final  -12.72 input  -60.55 | X-H torsion
[ 11005 11000 10999 10996 ] final  -52.98 input  -57.11 | X-H torsion

> <Gold.Protein.ActiveResidues>
 VAL166  LYS551  ARG553  GLY616  TRP617  ASP618  TYR619  PRO620  LYS621  CYS622 
 ASP623  PHE694  ASN695  SER759  ASP760  ASP761  ALA762  ILE779  LEU786  VAL792 
 PHE793  MET794  SER795  GLU796  ALA797  LYS798  CYS799  TRP800  GLU811  SER814 

> <Gold.Protein.RotatedAtoms>
  152.0761  133.4130  159.4480 H   0  0  0  0  0  0  0  0  0  0  0  0  # atno 6907 bound_to 6896
  150.6863  134.3035  159.4725 H   0  0  0  0  0  0  0  0  0  0  0  0  # atno 6908 bound_to 6896
  152.0872  134.9431  160.0623 H   0  0  0  0  0  0  0  0  0  0  0  0  # atno 6909 bound_to 6896
  145.2968  140.9367  143.2846 H   0  0  0  0  0  0  0  0  0  0  0  0  # atno 7974 bound_to 7965
  156.2991  140.2372  156.4210 H   0  0  0  0  0  0  0  0  0  0  0  0  # atno 8008 bound_to 7997
  154.8356  140.0431  157.1526 H   0  0  0  0  0  0  0  0  0  0  0  0  # atno 8009 bound_to 7997
  154.9160  140.2997  155.5245 H   0  0  0  0  0  0  0  0  0  0  0  0  # atno 8010 bound_to 7997
  139.7861  144.6870  150.9956 H   0  0  0  0  0  0  0  0  0  0  0  0  # atno 10167 bound_to 10162
  157.0736  131.0373  151.2602 H   0  0  0  0  0  0  0  0  0  0  0  0  # atno 10718 bound_to 10713
  153.5026  135.7017  153.5824 H   0  0  0  0  0  0  0  0  0  0  0  0  # atno 10763 bound_to 10752
  153.3948  135.3886  155.1948 H   0  0  0  0  0  0  0  0  0  0  0  0  # atno 10764 bound_to 10752
  154.8709  135.3867  154.4498 H   0  0  0  0  0  0  0  0  0  0  0  0  # atno 10765 bound_to 10752
  141.0952  133.6626  156.4104 H   0  0  0  0  0  0  0  0  0  0  0  0  # atno 11005 bound_to 11000
  144.9127  139.4509  143.6579 LP  0  0  0  0  0  0  0  0  0  0  0  0  # atno 17320 bound_to 7965
  146.3166  139.7943  142.8979 LP  0  0  0  0  0  0  0  0  0  0  0  0  # atno 17321 bound_to 7965
  140.7819  143.4431  151.0522 LP  0  0  0  0  0  0  0  0  0  0  0  0  # atno 17342 bound_to 10162
  139.8109  143.7952  152.3171 LP  0  0  0  0  0  0  0  0  0  0  0  0  # atno 17343 bound_to 10162
  157.4858  130.7792  149.7458 LP  0  0  0  0  0  0  0  0  0  0  0  0  # atno 17370 bound_to 10713
  155.9943  130.3918  150.2863 LP  0  0  0  0  0  0  0  0  0  0  0  0  # atno 17371 bound_to 10713
  140.5156  134.6353  157.5300 LP  0  0  0  0  0  0  0  0  0  0  0  0  # atno 17394 bound_to 11000
  139.9787  134.7172  155.9900 LP  0  0  0  0  0  0  0  0  0  0  0  0  # atno 17395 bound_to 11000

$$$$
