AV-unprocessed.smi:1484|AV-procd|sdf|5994|dock10
  -GOLD-   22720 6 93D 1   1.00000     0.00000
 Structure written by MMmdl.
 37 38  0  0  0  0  0  0  0  0  2 V2000
  151.8111  145.4588  159.9043 C   0  0  0  0  0  0  0  0  0  0  0  0
  152.2934  144.1002  159.3757 C   0  0  1  0  0  0  0  0  0  0  0  0
  152.8805  143.2319  160.5051 C   0  0  0  0  0  0  0  0  0  0  0  0
  153.3635  141.8715  159.9777 C   0  0  0  0  0  0  0  0  0  0  0  0
  152.2388  141.1247  159.2445 C   0  0  0  0  0  0  0  0  0  0  0  0
  151.6419  141.9812  158.1124 C   0  0  1  0  0  0  0  0  0  0  0  0
  150.5234  141.2744  157.4942 N   0  0  0  0  0  0  0  0  0  0  0  0
  150.4861  140.7976  156.2399 C   0  0  0  0  0  0  0  0  0  0  0  0
  151.4193  140.9152  155.4439 O   0  0  0  0  0  0  0  0  0  0  0  0
  149.1846  140.0799  155.8469 C   0  0  0  0  0  0  0  0  0  0  0  0
  148.0587  140.9799  155.5549 N   0  0  0  0  0  0  0  0  0  0  0  0
  146.9814  140.9146  156.5388 N   0  5  0  0  0  0  0  0  0  0  0  0
  145.8945  141.7166  156.3854 C   0  0  0  0  0  0  0  0  0  0  0  0
  144.9574  141.7281  157.1803 O   0  0  0  0  0  0  0  0  0  0  0  0
  145.8473  142.5907  155.2250 C   0  0  0  0  0  0  0  0  0  0  0  0
  146.8446  142.6116  154.3190 C   0  0  0  0  0  0  0  0  0  0  0  0
  148.0295  141.7715  154.4448 C   0  0  0  0  0  0  0  0  0  0  0  0
  148.9391  141.7778  153.6150 O   0  0  0  0  0  0  0  0  0  0  0  0
  151.1640  143.3445  158.6481 C   0  0  0  0  0  0  0  0  0  0  0  0
  151.0095  145.3397  160.6338 H   0  0  0  0  0  0  0  0  0  0  0  0
  151.4335  146.0830  159.0940 H   0  0  0  0  0  0  0  0  0  0  0  0
  152.6230  146.0028  160.3879 H   0  0  0  0  0  0  0  0  0  0  0  0
  153.0873  144.2934  158.6526 H   0  0  0  0  0  0  0  0  0  0  0  0
  153.7102  143.7528  160.9840 H   0  0  0  0  0  0  0  0  0  0  0  0
  152.1276  143.0743  161.2786 H   0  0  0  0  0  0  0  0  0  0  0  0
  154.2055  142.0193  159.3005 H   0  0  0  0  0  0  0  0  0  0  0  0
  153.7344  141.2638  160.8035 H   0  0  0  0  0  0  0  0  0  0  0  0
  152.6220  140.1865  158.8412 H   0  0  0  0  0  0  0  0  0  0  0  0
  151.4580  140.8585  159.9586 H   0  0  0  0  0  0  0  0  0  0  0  0
  152.4249  142.1679  157.3751 H   0  0  0  0  0  0  0  0  0  0  0  0
  149.7076  141.1293  158.0709 H   0  0  0  0  0  0  0  0  0  0  0  0
  149.3823  139.4476  154.9797 H   0  0  0  0  0  0  0  0  0  0  0  0
  148.9183  139.3926  156.6522 H   0  0  0  0  0  0  0  0  0  0  0  0
  144.9926  143.2361  155.0851 H   0  0  0  0  0  0  0  0  0  0  0  0
  146.7667  143.2753  153.4710 H   0  0  0  0  0  0  0  0  0  0  0  0
  150.3255  143.1979  159.3307 H   0  0  0  0  0  0  0  0  0  0  0  0
  150.7871  143.9502  157.8227 H   0  0  0  0  0  0  0  0  0  0  0  0
  1  2  1  0  0  0  0
  1 20  1  0  0  0  0
  1 21  1  0  0  0  0
  1 22  1  0  0  0  0
  2 19  1  0  0  0  0
  2  3  1  0  0  0  0
  2 23  1  0  0  0  0
  3  4  1  0  0  0  0
  3 24  1  0  0  0  0
  3 25  1  0  0  0  0
  4  5  1  0  0  0  0
  4 26  1  0  0  0  0
  4 27  1  0  0  0  0
  5  6  1  0  0  0  0
  5 28  1  0  0  0  0
  5 29  1  0  0  0  0
  6  7  1  0  0  0  0
  6 19  1  0  0  0  0
  6 30  1  0  0  0  0
  7  8  1  0  0  0  0
  7 31  1  0  0  0  0
  8  9  2  0  0  0  0
  8 10  1  0  0  0  0
 10 32  1  0  0  0  0
 10 33  1  0  0  0  0
 10 11  1  0  0  0  0
 11 12  1  0  0  0  0
 11 17  1  0  0  0  0
 12 13  1  0  0  0  0
 13 14  2  0  0  0  0
 13 15  1  0  0  0  0
 15 34  1  0  0  0  0
 15 16  2  0  0  0  0
 16 35  1  0  0  0  0
 16 17  1  0  0  0  0
 17 18  2  0  0  0  0
 19 36  1  0  0  0  0
 19 37  1  0  0  0  0
M  CHG  1  12  -1
M  END
> <s_m_source_file>
AV-unprocessed.smi

> <i_m_source_file_index>
1484

> <i_lp_mmshare_version>
43012

> <i_f3d_flags>
0

> <s_epik_input>
W0NIM11bQ0BASF0xW0NIMl1bQ0gyXVtDSDJdW0NASF0oW0NIMl0xKVtOSF1DKD1PKVtDSDJdbjJbbkhdYyg9TylbY0hdW2NIXWMyPU8=

> <s_epik_cmdline>
J2VwaWtfcHl0aG9uJywgJy1waCcsICc3LjAnLCAnLXRuJywgJzgnLCAnLW1hJywgJzIwMCcsICctbWV0YWxfYmluZGluZycsICctaW1hZScsICc8aW5maWxlLm1hZT4nLCAnLW9tYWUnLCAnPG91dGZpbGUubWFlPic=

> <r_lp_tautomer_probability>
1

> <r_epik_Ionization_Penalty>
0.101352

> <r_epik_Ionization_Penalty_Charging>
0.101352

> <r_epik_Ionization_Penalty_Neutral>
1.90469e-08

> <r_epik_State_Penalty>
0.0358555

> <r_epik_Charging_Adjusted_Penalty>
0.137208

> <i_epik_Tot_Q>
-1

> <i_epik_Tot_abs_Q>
1

> <r_epik_Metal_State_Penalty>
0.0358555

> <b_epik_Metal_Only>
0

> <s_lp_Force_Field>
OPLS_2005

> <r_lp_Energy>
25.5617

> <b_lp_Chiralities_Consistent>
1

> <s_lp_Variant>
AV-unprocessed.smi:1484-2

> <Gold.Version>
5.8.1

> <Gold.Id.Protein>
6NUR|6NUR_protein|mol2

> <Gold.PLP.Fitness>
42.5560

> <Gold.PLP.PLP>
-38.4743

> <Gold.PLP.part.hbond>
-2.8474

> <Gold.PLP.part.metal>
0.0000

> <Gold.PLP.part.buried>
-3.6001

> <Gold.PLP.part.nonpolar>
-32.4834

> <Gold.PLP.part.repulsive>
2.5306

> <Gold.PLP.ligand.clash>
0.0000

> <Gold.PLP.ligand.torsion>
0.3339

> <Gold.PLP.Chemscore.Hbond>
1.5816

> <Gold.PLP.Chemscore.CHOScore>
0.0000

> <Gold.PLP.Chemscore.Metal>
0.0000

> <Gold.Chemscore.Hbonds>
donor molecule, donor type, donor heavy atom, donor atom, acceptor molecule, acceptor atom, score
      P1  H  7989  7998       L1     9  0.64
      P1  H  8011  8017       L1    18  0.62

> <Gold.PLP.Chemscore.Internal.Correction>
0.0047

> <Gold.Rescore>
     Score         DG    S(hbond)    S(metal)    S(lipo)     H(rot)  DE(clash)    DE(int)     intcor
     16.33     -17.82       1.71        0.00      92.84       1.65       1.17       0.32       ----

> <Gold.Chemscore.Fitness>
16.3272

> <Gold.Chemscore.DG>
-17.8150

> <Gold.Chemscore.ZeroCoef>
-5.4800

> <Gold.Chemscore.Hbond>
1.7093

> <Gold.Chemscore.Metal>
0.0000

> <Gold.Chemscore.Lipo>
92.8415

> <Gold.Chemscore.Internal_Hbond>
0.0000

> <Gold.Chemscore.DEClash>
1.1683

> <Gold.Chemscore.DEInternal>
0.3195

> <Gold.Chemscore.Rot>
1.6549

> <Gold.Chemscore.Internal.Correction>
   9.000000E+99

> <Gold.Chemscore.Hbonds>
donor molecule, donor type, donor heavy atom, donor atom, acceptor molecule, acceptor atom, score
      P1  H  7989  7998       L1     9  0.63
      P1  H  8011  8017       L1    18  0.62

> <Gold.Chemscore.Hbond.Weighted>
-5.7090

> <Gold.Chemscore.Metal.Weighted>
-0.0000

> <Gold.Chemscore.Lipo.Weighted>
-10.8625

> <Gold.Chemscore.Internal_Hbond.Weighted>
0.0000

> <Gold.Chemscore.DEClash.Weighted>
1.1683

> <Gold.Chemscore.DEInternal.Weighted>
0.3195

> <Gold.Chemscore.Rot.Weighted>
4.2364

> <Gold.Chemscore.Internal.Correction.Weighted>
   9.000000E+99

> <Gold.Protein.RotatedTorsions>
[ 6907 6896 6895 6894 ] final  -21.61 input  -60.11 | X-H torsion
[ 7974 7965 7964 7962 ] final   15.99 input  175.53 | X-H torsion
[ 8008 7997 7996 7995 ] final -129.86 input   59.86 | X-H torsion
[ 10167 10162 10161 10158 ] final  -73.65 input  -65.29 | X-H torsion
[ 10718 10713 10712 10709 ] final  129.36 input   66.30 | X-H torsion
[ 10763 10752 10751 10750 ] final  -73.51 input  -60.55 | X-H torsion
[ 11005 11000 10999 10996 ] final -112.26 input  -57.11 | X-H torsion

> <Gold.Protein.ActiveResidues>
 VAL166  LYS551  ARG553  GLY616  TRP617  ASP618  TYR619  PRO620  LYS621  CYS622 
 ASP623  PHE694  ASN695  SER759  ASP760  ASP761  ALA762  ILE779  LEU786  VAL792 
 PHE793  MET794  SER795  GLU796  ALA797  LYS798  CYS799  TRP800  GLU811  SER814 

> <Gold.Protein.RotatedAtoms>
  151.2308  135.0553  159.8986 H   0  0  0  0  0  0  0  0  0  0  0  0  # atno 6907 bound_to 6896
  152.5405  134.0539  159.8132 H   0  0  0  0  0  0  0  0  0  0  0  0  # atno 6908 bound_to 6896
  151.0719  133.5411  159.2658 H   0  0  0  0  0  0  0  0  0  0  0  0  # atno 6909 bound_to 6896
  146.2263  139.8813  142.8570 H   0  0  0  0  0  0  0  0  0  0  0  0  # atno 7974 bound_to 7965
  155.2862  140.0446  157.3019 H   0  0  0  0  0  0  0  0  0  0  0  0  # atno 8008 bound_to 7997
  154.5568  140.2334  155.8366 H   0  0  0  0  0  0  0  0  0  0  0  0  # atno 8009 bound_to 7997
  156.2014  140.3024  155.9541 H   0  0  0  0  0  0  0  0  0  0  0  0  # atno 8010 bound_to 7997
  140.5092  143.2347  151.7622 H   0  0  0  0  0  0  0  0  0  0  0  0  # atno 10167 bound_to 10162
  157.5161  131.1097  150.9222 H   0  0  0  0  0  0  0  0  0  0  0  0  # atno 10718 bound_to 10713
  154.4605  135.5895  153.6252 H   0  0  0  0  0  0  0  0  0  0  0  0  # atno 10763 bound_to 10752
  152.9823  135.6043  154.3492 H   0  0  0  0  0  0  0  0  0  0  0  0  # atno 10764 bound_to 10752
  154.3363  135.2842  155.2425 H   0  0  0  0  0  0  0  0  0  0  0  0  # atno 10765 bound_to 10752
  141.0686  133.9418  157.2530 H   0  0  0  0  0  0  0  0  0  0  0  0  # atno 11005 bound_to 11000
  145.2509  141.0043  143.3881 LP  0  0  0  0  0  0  0  0  0  0  0  0  # atno 17320 bound_to 7965
  144.9375  139.4227  143.6465 LP  0  0  0  0  0  0  0  0  0  0  0  0  # atno 17321 bound_to 7965
  139.4891  144.4414  151.9760 LP  0  0  0  0  0  0  0  0  0  0  0  0  # atno 17342 bound_to 10162
  140.3506  144.3094  150.5950 LP  0  0  0  0  0  0  0  0  0  0  0  0  # atno 17343 bound_to 10162
  156.9847  130.5540  149.5299 LP  0  0  0  0  0  0  0  0  0  0  0  0  # atno 17370 bound_to 10713
  156.0321  130.5412  150.8561 LP  0  0  0  0  0  0  0  0  0  0  0  0  # atno 17371 bound_to 10713
  139.9501  135.0177  156.8967 LP  0  0  0  0  0  0  0  0  0  0  0  0  # atno 17394 bound_to 11000
  140.5721  134.0433  155.7434 LP  0  0  0  0  0  0  0  0  0  0  0  0  # atno 17395 bound_to 11000

$$$$
