AV-unprocessed.smi:1760|AV-procd|sdf|7093|dock10
  -GOLD-   22720 8313D 1   1.00000     0.00000
 Structure written by MMmdl.
 43 45  0  0  0  0  0  0  0  0  3 V2000
  149.6125  137.5112  156.0960 O   0  0  0  0  0  0  0  0  0  0  0  0
  150.0195  137.2716  154.9595 C   0  0  0  0  0  0  0  0  0  0  0  0
  150.3334  136.0579  154.4708 N   0  0  0  0  0  0  0  0  0  0  0  0
  150.2658  134.7976  155.0900 C   0  0  0  0  0  0  0  0  0  0  0  0
  149.8083  133.6602  154.4965 C   0  0  0  0  0  0  0  0  0  0  0  0
  149.7691  132.3801  155.1932 C   0  0  0  0  0  0  0  0  0  0  0  0
  149.2491  131.0899  154.5862 C   0  0  0  0  0  0  0  0  0  0  0  0
  148.8518  131.2987  153.3316 F   0  0  0  0  0  0  0  0  0  0  0  0
  150.2126  130.1695  154.5649 F   0  0  0  0  0  0  0  0  0  0  0  0
  148.2187  130.6047  155.2790 F   0  0  0  0  0  0  0  0  0  0  0  0
  150.2538  132.4679  156.4827 C   0  0  0  0  0  0  0  0  0  0  0  0
  150.7361  133.5458  157.1389 N   0  5  0  0  0  0  0  0  0  0  0  0
  150.7615  134.7396  156.4814 C   0  0  0  0  0  0  0  0  0  0  0  0
  151.1866  135.7625  157.0201 O   0  0  0  0  0  0  0  0  0  0  0  0
  150.2316  138.2224  154.0372 N   0  0  0  0  0  0  0  0  0  0  0  0
  150.0363  139.6575  154.2262 C   0  0  2  0  0  0  0  0  0  0  0  0
  150.6169  140.0970  155.5806 C   0  0  0  0  0  0  0  0  0  0  0  0
  150.3257  141.5851  155.8535 C   0  0  0  0  0  0  0  0  0  0  0  0
  148.8754  141.8969  155.7679 N   0  3  2  0  0  0  0  0  0  0  0  0
  148.1012  141.4152  156.9359 C   0  0  0  0  0  0  0  0  0  0  0  0
  146.9645  142.3302  157.3281 C   0  0  0  0  0  0  0  0  0  0  0  0
  148.2305  142.2988  158.1548 C   0  0  0  0  0  0  0  0  0  0  0  0
  148.2914  141.4860  154.4651 C   0  0  0  0  0  0  0  0  0  0  0  0
  148.5376  139.9955  154.1640 C   0  0  0  0  0  0  0  0  0  0  0  0
  150.7141  136.0355  153.5360 H   0  0  0  0  0  0  0  0  0  0  0  0
  149.4701  133.6684  153.4740 H   0  0  0  0  0  0  0  0  0  0  0  0
  150.2503  131.5284  157.0757 H   0  0  0  0  0  0  0  0  0  0  0  0
  150.5694  137.9268  153.1328 H   0  0  0  0  0  0  0  0  0  0  0  0
  150.5428  140.2195  153.4393 H   0  0  0  0  0  0  0  0  0  0  0  0
  150.2005  139.4855  156.3822 H   0  0  0  0  0  0  0  0  0  0  0  0
  151.6940  139.9259  155.5955 H   0  0  0  0  0  0  0  0  0  0  0  0
  150.7128  141.8761  156.8306 H   0  0  0  0  0  0  0  0  0  0  0  0
  150.8517  142.1979  155.1203 H   0  0  0  0  0  0  0  0  0  0  0  0
  148.0002  140.3376  157.0493 H   0  0  0  0  0  0  0  0  0  0  0  0
  146.7822  143.2165  156.7230 H   0  0  0  0  0  0  0  0  0  0  0  0
  146.0768  141.8711  157.7587 H   0  0  0  0  0  0  0  0  0  0  0  0
  148.1764  141.8196  159.1302 H   0  0  0  0  0  0  0  0  0  0  0  0
  148.8884  143.1643  158.0981 H   0  0  0  0  0  0  0  0  0  0  0  0
  147.2237  141.7069  154.4481 H   0  0  0  0  0  0  0  0  0  0  0  0
  148.7428  142.0938  153.6798 H   0  0  0  0  0  0  0  0  0  0  0  0
  148.1425  139.7513  153.1771 H   0  0  0  0  0  0  0  0  0  0  0  0
  147.9850  139.3787  154.8740 H   0  0  0  0  0  0  0  0  0  0  0  0
  148.8038  142.9040  155.8007 H   0  0  0  0  0  0  0  0  0  0  0  0
  1  2  2  0  0  0  0
  2  3  1  0  0  0  0
  2 15  1  0  0  0  0
  3  4  1  0  0  0  0
  3 25  1  0  0  0  0
  4 13  1  0  0  0  0
  4  5  2  0  0  0  0
  5  6  1  0  0  0  0
  5 26  1  0  0  0  0
  6  7  1  0  0  0  0
  6 11  2  0  0  0  0
  7  8  1  0  0  0  0
  7  9  1  0  0  0  0
  7 10  1  0  0  0  0
 11 12  1  0  0  0  0
 11 27  1  0  0  0  0
 12 13  1  0  0  0  0
 13 14  2  0  0  0  0
 15 16  1  0  0  0  0
 15 28  1  0  0  0  0
 16 24  1  0  0  0  0
 16 17  1  0  0  0  0
 16 29  1  0  0  0  0
 17 18  1  0  0  0  0
 17 30  1  0  0  0  0
 17 31  1  0  0  0  0
 18 19  1  0  0  0  0
 18 32  1  0  0  0  0
 18 33  1  0  0  0  0
 19 20  1  0  0  0  0
 19 23  1  0  0  0  0
 19 43  1  0  0  0  0
 20 22  1  0  0  0  0
 20 21  1  0  0  0  0
 20 34  1  0  0  0  0
 21 22  1  0  0  0  0
 21 35  1  0  0  0  0
 21 36  1  0  0  0  0
 22 37  1  0  0  0  0
 22 38  1  0  0  0  0
 23 24  1  0  0  0  0
 23 39  1  0  0  0  0
 23 40  1  0  0  0  0
 24 41  1  0  0  0  0
 24 42  1  0  0  0  0
M  CHG  1  12  -1
M  CHG  1  19   1
M  END
> <s_m_source_file>
AV-unprocessed.smi

> <i_m_source_file_index>
1760

> <i_lp_mmshare_version>
43012

> <i_f3d_flags>
0

> <s_epik_input>
W0NIMl0xW0NIMl1bQ0hdMU4oW0NIMl1bQ0gyXTIpW0NIMl1bQ0gyXVtDSF0yW05IXUMoPU8pW05IXWMzW2NIXWMoQyhGKShGKUYpW2NIXVtuSF1jMz1P

> <s_epik_cmdline>
J2VwaWtfcHl0aG9uJywgJy1waCcsICc3LjAnLCAnLXRuJywgJzgnLCAnLW1hJywgJzIwMCcsICctbWV0YWxfYmluZGluZycsICctaW1hZScsICc8aW5maWxlLm1hZT4nLCAnLW9tYWUnLCAnPG91dGZpbGUubWFlPic=

> <r_lp_tautomer_probability>
0.999

> <r_epik_Ionization_Penalty>
3.16043

> <r_epik_Ionization_Penalty_Charging>
0.268029

> <r_epik_Ionization_Penalty_Neutral>
2.8924

> <r_epik_State_Penalty>
3.0039

> <r_epik_Charging_Adjusted_Penalty>
3.27193

> <i_epik_Tot_Q>
0

> <i_epik_Tot_abs_Q>
2

> <r_epik_Metal_State_Penalty>
0.560618

> <b_epik_Metal_Only>
1

> <s_lp_Force_Field>
OPLS_2005

> <r_lp_Energy>
41.7611

> <b_lp_Chiralities_Consistent>
1

> <s_lp_Variant>
AV-unprocessed.smi:1760-5

> <Gold.Version>
5.8.1

> <Gold.Id.Protein>
6NUR|6NUR_protein|mol2

> <Gold.PLP.Fitness>
48.1818

> <Gold.PLP.PLP>
-37.7401

> <Gold.PLP.part.hbond>
-4.1659

> <Gold.PLP.part.metal>
0.0000

> <Gold.PLP.part.buried>
-3.0245

> <Gold.PLP.part.nonpolar>
-30.3181

> <Gold.PLP.part.repulsive>
0.2757

> <Gold.PLP.ligand.clash>
0.0000

> <Gold.PLP.ligand.torsion>
1.1982

> <Gold.PLP.Chemscore.Hbond>
3.8513

> <Gold.PLP.Chemscore.CHOScore>
0.0000

> <Gold.PLP.Chemscore.Metal>
0.0000

> <Gold.Chemscore.Hbonds>
donor molecule, donor type, donor heavy atom, donor atom, acceptor molecule, acceptor atom, score
      L1  H     3    25       P1  7949  0.47
      L1  H    19    43       P1  8028  2.00
      P1  H  6896  6908       L1    12  1.10

> <Gold.PLP.Chemscore.Internal.Correction>
1.2841

> <Gold.Rescore>
     Score         DG    S(hbond)    S(metal)    S(lipo)     H(rot)  DE(clash)    DE(int)     intcor
     10.46     -15.95       1.74        0.00      67.76       1.28       0.04       5.45       ----

> <Gold.Chemscore.Fitness>
10.4622

> <Gold.Chemscore.DG>
-15.9515

> <Gold.Chemscore.ZeroCoef>
-5.4800

> <Gold.Chemscore.Hbond>
1.7417

> <Gold.Chemscore.Metal>
0.0000

> <Gold.Chemscore.Lipo>
67.7583

> <Gold.Chemscore.Internal_Hbond>
0.0000

> <Gold.Chemscore.DEClash>
0.0443

> <Gold.Chemscore.DEInternal>
5.4451

> <Gold.Chemscore.Rot>
1.2787

> <Gold.Chemscore.Internal.Correction>
   9.000000E+99

> <Gold.Chemscore.Hbonds>
donor molecule, donor type, donor heavy atom, donor atom, acceptor molecule, acceptor atom, score
      L1  H     3    25       P1  7949  0.03
      L1  H    19    43       P1  8028  1.00
      P1  H  6896  6908       L1    12  0.52

> <Gold.Chemscore.Hbond.Weighted>
-5.8173

> <Gold.Chemscore.Metal.Weighted>
-0.0000

> <Gold.Chemscore.Lipo.Weighted>
-7.9277

> <Gold.Chemscore.Internal_Hbond.Weighted>
0.0000

> <Gold.Chemscore.DEClash.Weighted>
0.0443

> <Gold.Chemscore.DEInternal.Weighted>
5.4451

> <Gold.Chemscore.Rot.Weighted>
3.2735

> <Gold.Chemscore.Internal.Correction.Weighted>
   9.000000E+99

> <Gold.Protein.RotatedTorsions>
[ 6907 6896 6895 6894 ] final   85.29 input  -60.11 | X-H torsion
[ 7974 7965 7964 7962 ] final  -94.40 input  175.53 | X-H torsion
[ 8008 7997 7996 7995 ] final   95.13 input   59.86 | X-H torsion
[ 10167 10162 10161 10158 ] final  125.41 input  -65.29 | X-H torsion
[ 10718 10713 10712 10709 ] final  -10.72 input   66.30 | X-H torsion
[ 10763 10752 10751 10750 ] final  101.40 input  -60.55 | X-H torsion
[ 11005 11000 10999 10996 ] final -136.99 input  -57.11 | X-H torsion

> <Gold.Protein.ActiveResidues>
 VAL166  LYS551  ARG553  GLY616  TRP617  ASP618  TYR619  PRO620  LYS621  CYS622 
 ASP623  PHE694  ASN695  SER759  ASP760  ASP761  ALA762  ILE779  LEU786  VAL792 
 PHE793  MET794  SER795  GLU796  ALA797  LYS798  CYS799  TRP800  GLU811  SER814 

> <Gold.Protein.RotatedAtoms>
  152.5371  134.2609  159.8934 H   0  0  0  0  0  0  0  0  0  0  0  0  # atno 6907 bound_to 6896
  151.2568  133.4315  159.2622 H   0  0  0  0  0  0  0  0  0  0  0  0  # atno 6908 bound_to 6896
  151.0488  134.9673  159.8257 H   0  0  0  0  0  0  0  0  0  0  0  0  # atno 6909 bound_to 6896
  145.3738  140.9509  143.2432 H   0  0  0  0  0  0  0  0  0  0  0  0  # atno 7974 bound_to 7965
  156.0655  140.3290  155.7512 H   0  0  0  0  0  0  0  0  0  0  0  0  # atno 8008 bound_to 7997
  155.5388  140.0600  157.2891 H   0  0  0  0  0  0  0  0  0  0  0  0  # atno 8009 bound_to 7997
  154.4503  140.1914  156.0558 H   0  0  0  0  0  0  0  0  0  0  0  0  # atno 8010 bound_to 7997
  139.5687  144.6926  151.3839 H   0  0  0  0  0  0  0  0  0  0  0  0  # atno 10167 bound_to 10162
  156.6694  130.5005  149.6005 H   0  0  0  0  0  0  0  0  0  0  0  0  # atno 10718 bound_to 10713
  153.3262  135.4046  155.1457 H   0  0  0  0  0  0  0  0  0  0  0  0  # atno 10763 bound_to 10752
  154.8612  135.3599  154.5531 H   0  0  0  0  0  0  0  0  0  0  0  0  # atno 10764 bound_to 10752
  153.5967  135.7072  153.5460 H   0  0  0  0  0  0  0  0  0  0  0  0  # atno 10765 bound_to 10752
  140.8753  134.2000  157.4625 H   0  0  0  0  0  0  0  0  0  0  0  0  # atno 11005 bound_to 11000
  144.8557  139.5253  143.6835 LP  0  0  0  0  0  0  0  0  0  0  0  0  # atno 17320 bound_to 7965
  146.2873  139.7040  142.9186 LP  0  0  0  0  0  0  0  0  0  0  0  0  # atno 17321 bound_to 7965
  140.6971  143.7722  150.7344 LP  0  0  0  0  0  0  0  0  0  0  0  0  # atno 17342 bound_to 10162
  140.1222  143.4602  152.2306 LP  0  0  0  0  0  0  0  0  0  0  0  0  # atno 17343 bound_to 10162
  156.1950  130.6584  151.1104 LP  0  0  0  0  0  0  0  0  0  0  0  0  # atno 17370 bound_to 10713
  157.7082  131.0746  150.6592 LP  0  0  0  0  0  0  0  0  0  0  0  0  # atno 17371 bound_to 10713
  139.8715  134.9793  156.5030 LP  0  0  0  0  0  0  0  0  0  0  0  0  # atno 17394 bound_to 11000
  140.8525  133.8121  155.9183 LP  0  0  0  0  0  0  0  0  0  0  0  0  # atno 17395 bound_to 11000

$$$$
