AV-unprocessed.smi:121|AV-procd|sdf|1139|dock9
  -GOLD-   2262018273D 1   1.00000     0.00000
 Structure written by MMmdl.
 37 39  0  0  0  0  0  0  0  0  1 V2000
  151.6706  144.9008  158.4179 N   0  0  0  0  0  0  0  0  0  0  0  0
  152.0570  143.9386  158.9312 C   0  0  0  0  0  0  0  0  0  0  0  0
  152.5420  142.7296  159.5756 C   0  0  0  0  0  0  0  0  0  0  0  0
  153.0477  142.7832  160.8900 C   0  0  0  0  0  0  0  0  0  0  0  0
  153.5221  141.6109  161.5082 C   0  0  0  0  0  0  0  0  0  0  0  0
  153.4902  140.3854  160.8154 C   0  0  0  0  0  0  0  0  0  0  0  0
  152.9800  140.3192  159.5021 C   0  0  0  0  0  0  0  0  0  0  0  0
  152.9691  138.9721  158.7846 C   0  0  0  0  0  0  0  0  0  0  0  0
  151.7518  138.6415  158.0593 N   0  0  0  0  0  0  0  0  0  0  0  0
  150.8557  137.7341  158.6747 C   0  0  0  0  0  0  0  0  0  0  0  0
  151.0908  137.2263  159.7727 O   0  0  0  0  0  0  0  0  0  0  0  0
  149.6427  137.4686  157.9096 C   0  0  0  0  0  0  0  0  0  0  0  0
  148.7314  136.6052  158.3889 F   0  0  0  0  0  0  0  0  0  0  0  0
  149.4162  138.0779  156.7257 C   0  0  0  0  0  0  0  0  0  0  0  0
  150.2989  138.9849  156.1610 N   0  0  0  0  0  0  0  0  0  0  0  0
  150.0137  139.6721  154.8416 C   0  0  2  0  0  0  0  0  0  0  0  0
  149.8524  141.1915  155.0455 C   0  0  0  0  0  0  0  0  0  0  0  0
  148.5244  141.4826  154.3751 C   0  0  0  0  0  0  0  0  0  0  0  0
  147.7870  140.1634  154.5477 C   0  0  0  0  0  0  0  0  0  0  0  0
  148.8072  139.2022  154.3106 O   0  0  0  0  0  0  0  0  0  0  0  0
  151.5112  139.2831  156.8208 C   0  0  0  0  0  0  0  0  0  0  0  0
  152.3095  140.0883  156.3352 O   0  0  0  0  0  0  0  0  0  0  0  0
  152.5089  141.5014  158.8844 C   0  0  0  0  0  0  0  0  0  0  0  0
  153.0763  143.7199  161.4281 H   0  0  0  0  0  0  0  0  0  0  0  0
  153.9114  141.6514  162.5148 H   0  0  0  0  0  0  0  0  0  0  0  0
  153.8579  139.4917  161.2981 H   0  0  0  0  0  0  0  0  0  0  0  0
  153.8096  138.9150  158.0923 H   0  0  0  0  0  0  0  0  0  0  0  0
  153.1461  138.1597  159.4922 H   0  0  0  0  0  0  0  0  0  0  0  0
  148.4986  137.8326  156.2140 H   0  0  0  0  0  0  0  0  0  0  0  0
  150.8366  139.3932  154.1807 H   0  0  0  0  0  0  0  0  0  0  0  0
  149.8007  141.4282  156.1096 H   0  0  0  0  0  0  0  0  0  0  0  0
  150.6858  141.7366  154.6016 H   0  0  0  0  0  0  0  0  0  0  0  0
  147.9975  142.3278  154.8187 H   0  0  0  0  0  0  0  0  0  0  0  0
  148.6764  141.6898  153.3151 H   0  0  0  0  0  0  0  0  0  0  0  0
  147.4024  140.0642  155.5639 H   0  0  0  0  0  0  0  0  0  0  0  0
  146.9562  140.0483  153.8515 H   0  0  0  0  0  0  0  0  0  0  0  0
  152.1214  141.4759  157.8767 H   0  0  0  0  0  0  0  0  0  0  0  0
  1  2  3  0  0  0  0
  2  3  1  0  0  0  0
  3 23  1  0  0  0  0
  3  4  2  0  0  0  0
  4  5  1  0  0  0  0
  4 24  1  0  0  0  0
  5  6  2  0  0  0  0
  5 25  1  0  0  0  0
  6  7  1  0  0  0  0
  6 26  1  0  0  0  0
  7  8  1  0  0  0  0
  7 23  2  0  0  0  0
  8  9  1  0  0  0  0
  8 27  1  0  0  0  0
  8 28  1  0  0  0  0
  9 21  1  0  0  0  0
  9 10  1  0  0  0  0
 10 11  2  0  0  0  0
 10 12  1  0  0  0  0
 12 13  1  0  0  0  0
 12 14  2  0  0  0  0
 14 15  1  0  0  0  0
 14 29  1  0  0  0  0
 15 16  1  0  0  0  0
 15 21  1  0  0  0  0
 16 20  1  0  0  0  0
 16 17  1  0  0  0  0
 16 30  1  0  0  0  0
 17 18  1  0  0  0  0
 17 31  1  0  0  0  0
 17 32  1  0  0  0  0
 18 19  1  0  0  0  0
 18 33  1  0  0  0  0
 18 34  1  0  0  0  0
 19 20  1  0  0  0  0
 19 35  1  0  0  0  0
 19 36  1  0  0  0  0
 21 22  2  0  0  0  0
 23 37  1  0  0  0  0
M  END
> <s_m_source_file>
AV-unprocessed.smi

> <i_m_source_file_index>
121

> <i_lp_mmshare_version>
43012

> <i_f3d_flags>
0

> <s_epik_input>
TiNDYzFbY0hdW2NIXVtjSF1jKFtjSF0xKVtDSDJdbjJjKD1PKWMoRilbY0hdbihjMj1PKVtDQEBIXTNbQ0gyXVtDSDJdW0NIMl1PMw==

> <s_epik_cmdline>
J2VwaWtfcHl0aG9uJywgJy1waCcsICc3LjAnLCAnLXRuJywgJzgnLCAnLW1hJywgJzIwMCcsICctbWV0YWxfYmluZGluZycsICctaW1hZScsICc8aW5maWxlLm1hZT4nLCAnLW9tYWUnLCAnPG91dGZpbGUubWFlPic=

> <r_lp_tautomer_probability>
1

> <r_epik_Ionization_Penalty>
1.69864e-08

> <r_epik_Ionization_Penalty_Charging>
1.69802e-08

> <r_epik_Ionization_Penalty_Neutral>
6.20402e-12

> <r_epik_State_Penalty>
-0

> <r_epik_Charging_Adjusted_Penalty>
1.69802e-08

> <i_epik_Tot_Q>
0

> <i_epik_Tot_abs_Q>
0

> <r_epik_Metal_State_Penalty>
-0

> <b_epik_Metal_Only>
0

> <s_epik_Chemistry_Notes>
This compound contains an acetal/aminal-like group ( X-CH(R)-Y where X, Y are N, S, or O) that may be acid/base labile, releasing an aldehyde.

> <s_lp_Force_Field>
OPLS_2005

> <r_lp_Energy>
32.9852

> <b_lp_Chiralities_Consistent>
1

> <s_lp_Variant>
AV-unprocessed.smi:121-1

> <Gold.Version>
5.8.1

> <Gold.Id.Protein>
6NUR|6NUR_protein|mol2

> <Gold.PLP.Fitness>
46.1069

> <Gold.PLP.PLP>
-41.0375

> <Gold.PLP.part.hbond>
-1.9726

> <Gold.PLP.part.metal>
0.0000

> <Gold.PLP.part.buried>
-4.2969

> <Gold.PLP.part.nonpolar>
-34.9975

> <Gold.PLP.part.repulsive>
0.2754

> <Gold.PLP.ligand.clash>
0.0000

> <Gold.PLP.ligand.torsion>
0.4567

> <Gold.PLP.Chemscore.Hbond>
1.9913

> <Gold.PLP.Chemscore.CHOScore>
0.0000

> <Gold.PLP.Chemscore.Metal>
0.0000

> <Gold.Chemscore.Hbonds>
donor molecule, donor type, donor heavy atom, donor atom, acceptor molecule, acceptor atom, score
      P1  H  6896  6908       L1    11  0.83
      P1  H  7997  8009       L1    22  0.94

> <Gold.PLP.Chemscore.Internal.Correction>
0.0092

> <Gold.Rescore>
     Score         DG    S(hbond)    S(metal)    S(lipo)     H(rot)  DE(clash)    DE(int)     intcor
     16.01     -18.11       1.92        0.00      87.82       1.59       0.49       1.61       ----

> <Gold.Chemscore.Fitness>
16.0075

> <Gold.Chemscore.DG>
-18.1122

> <Gold.Chemscore.ZeroCoef>
-5.4800

> <Gold.Chemscore.Hbond>
1.9231

> <Gold.Chemscore.Metal>
0.0000

> <Gold.Chemscore.Lipo>
87.8193

> <Gold.Chemscore.Internal_Hbond>
0.0000

> <Gold.Chemscore.DEClash>
0.4903

> <Gold.Chemscore.DEInternal>
1.6143

> <Gold.Chemscore.Rot>
1.5882

> <Gold.Chemscore.Internal.Correction>
   9.000000E+99

> <Gold.Chemscore.Hbonds>
donor molecule, donor type, donor heavy atom, donor atom, acceptor molecule, acceptor atom, score
      P1  H  6896  6908       L1    11  0.81
      P1  H  7997  8009       L1    22  0.87

> <Gold.Chemscore.Hbond.Weighted>
-6.4231

> <Gold.Chemscore.Metal.Weighted>
-0.0000

> <Gold.Chemscore.Lipo.Weighted>
-10.2749

> <Gold.Chemscore.Internal_Hbond.Weighted>
0.0000

> <Gold.Chemscore.DEClash.Weighted>
0.4903

> <Gold.Chemscore.DEInternal.Weighted>
1.6143

> <Gold.Chemscore.Rot.Weighted>
4.0657

> <Gold.Chemscore.Internal.Correction.Weighted>
   9.000000E+99

> <Gold.Protein.RotatedTorsions>
[ 6907 6896 6895 6894 ] final -125.49 input  -60.11 | X-H torsion
[ 7974 7965 7964 7962 ] final  -49.78 input  175.53 | X-H torsion
[ 8008 7997 7996 7995 ] final -150.50 input   59.86 | X-H torsion
[ 10167 10162 10161 10158 ] final  127.74 input  -65.29 | X-H torsion
[ 10718 10713 10712 10709 ] final   29.40 input   66.30 | X-H torsion
[ 10763 10752 10751 10750 ] final -153.86 input  -60.55 | X-H torsion
[ 11005 11000 10999 10996 ] final  -90.72 input  -57.11 | X-H torsion

> <Gold.Protein.ActiveResidues>
 VAL166  LYS551  ARG553  GLY616  TRP617  ASP618  TYR619  PRO620  LYS621  CYS622 
 ASP623  PHE694  ASN695  SER759  ASP760  ASP761  ALA762  ILE779  LEU786  VAL792 
 PHE793  MET794  SER795  GLU796  ALA797  LYS798  CYS799  TRP800  GLU811  SER814 

> <Gold.Protein.RotatedAtoms>
  150.8873  133.7291  159.2914 H   0  0  0  0  0  0  0  0  0  0  0  0  # atno 6907 bound_to 6896
  151.4853  135.1053  159.9798 H   0  0  0  0  0  0  0  0  0  0  0  0  # atno 6908 bound_to 6896
  152.4798  133.8179  159.7093 H   0  0  0  0  0  0  0  0  0  0  0  0  # atno 6909 bound_to 6896
  145.9369  140.7698  142.9571 H   0  0  0  0  0  0  0  0  0  0  0  0  # atno 7974 bound_to 7965
  155.6245  140.0685  157.2668 H   0  0  0  0  0  0  0  0  0  0  0  0  # atno 8008 bound_to 7997
  154.4221  140.1778  156.1455 H   0  0  0  0  0  0  0  0  0  0  0  0  # atno 8009 bound_to 7997
  155.9983  140.3338  155.6823 H   0  0  0  0  0  0  0  0  0  0  0  0  # atno 8010 bound_to 7997
  139.5563  144.6850  151.4174 H   0  0  0  0  0  0  0  0  0  0  0  0  # atno 10167 bound_to 10162
  157.2461  130.7092  149.6382 H   0  0  0  0  0  0  0  0  0  0  0  0  # atno 10718 bound_to 10713
  154.7899  135.3203  154.7801 H   0  0  0  0  0  0  0  0  0  0  0  0  # atno 10763 bound_to 10752
  153.8492  135.6864  153.4798 H   0  0  0  0  0  0  0  0  0  0  0  0  # atno 10764 bound_to 10752
  153.1565  135.4678  154.9651 H   0  0  0  0  0  0  0  0  0  0  0  0  # atno 10765 bound_to 10752
  141.1560  133.7710  156.9778 H   0  0  0  0  0  0  0  0  0  0  0  0  # atno 11005 bound_to 11000
  144.6773  140.2217  143.7365 LP  0  0  0  0  0  0  0  0  0  0  0  0  # atno 17320 bound_to 7965
  145.8352  139.2104  143.1859 LP  0  0  0  0  0  0  0  0  0  0  0  0  # atno 17321 bound_to 7965
  140.6836  143.8026  150.7155 LP  0  0  0  0  0  0  0  0  0  0  0  0  # atno 17342 bound_to 10162
  140.1487  143.4377  152.2146 LP  0  0  0  0  0  0  0  0  0  0  0  0  # atno 17343 bound_to 10162
  155.9668  130.4442  150.5453 LP  0  0  0  0  0  0  0  0  0  0  0  0  # atno 17370 bound_to 10713
  157.3327  131.0702  151.1848 LP  0  0  0  0  0  0  0  0  0  0  0  0  # atno 17371 bound_to 10713
  140.1086  134.9491  157.2031 LP  0  0  0  0  0  0  0  0  0  0  0  0  # atno 17394 bound_to 11000
  140.3223  134.2902  155.7244 LP  0  0  0  0  0  0  0  0  0  0  0  0  # atno 17395 bound_to 11000

$$$$
