AV-unprocessed.smi:1406|AV-procd|sdf|5721|dock2
  -GOLD-   22720 5353D 1   1.00000     0.00000
 Structure written by MMmdl.
 41 43  0  0  0  0  0  0  0  0  2 V2000
  152.0845  139.5702  156.6293 C   0  0  0  0  0  0  0  0  0  0  0  0
  151.1538  140.6747  156.0895 C   0  0  2  0  0  0  0  0  0  0  0  0
  150.6209  141.6021  157.1940 C   0  0  0  0  0  0  0  0  0  0  0  0
  149.4129  141.6904  157.4171 O   0  0  0  0  0  0  0  0  0  0  0  0
  151.5411  142.2869  157.8919 N   0  0  0  0  0  0  0  0  0  0  0  0
  151.2400  143.2300  158.9651 C   0  0  2  0  0  0  0  0  0  0  0  0
  151.8521  144.6080  158.7492 C   0  0  0  0  0  0  0  0  0  0  0  0
  151.8168  145.2264  160.1511 C   0  0  0  0  0  0  0  0  0  0  0  0
  151.8408  144.1014  161.1187 N   0  3  2  0  0  0  0  0  0  0  0  0
  152.9334  144.1887  162.1249 C   0  0  0  0  0  0  0  0  0  0  0  0
  153.1636  142.8321  162.8069 C   0  0  0  0  0  0  0  0  0  0  0  0
  153.6011  141.7590  161.7920 C   0  0  0  0  0  0  0  0  0  0  0  0
  153.1306  142.0759  160.3593 C   0  0  0  0  0  0  0  0  0  0  0  0
  151.7752  142.8250  160.3519 C   0  0  2  0  0  0  0  0  0  0  0  0
  150.0534  140.1229  155.3087 N   0  0  0  0  0  0  0  0  0  0  0  0
  148.9930  140.7297  154.7714 C   0  0  0  0  0  0  0  0  0  0  0  0
  148.1627  139.9086  154.1442 N   0  0  0  0  0  0  0  0  0  0  0  0
  148.8123  138.7250  154.3516 C   0  0  0  0  0  0  0  0  0  0  0  0
  149.9445  138.7954  155.0514 N   0  0  0  0  0  0  0  0  0  0  0  0
  152.9341  139.9969  157.1635 H   0  0  0  0  0  0  0  0  0  0  0  0
  152.4833  138.9670  155.8132 H   0  0  0  0  0  0  0  0  0  0  0  0
  151.5674  138.8964  157.3139 H   0  0  0  0  0  0  0  0  0  0  0  0
  151.7474  141.2928  155.4137 H   0  0  0  0  0  0  0  0  0  0  0  0
  152.5134  142.1582  157.6518 H   0  0  0  0  0  0  0  0  0  0  0  0
  150.1568  143.3557  159.0299 H   0  0  0  0  0  0  0  0  0  0  0  0
  152.8860  144.5144  158.4127 H   0  0  0  0  0  0  0  0  0  0  0  0
  151.3112  145.2030  158.0125 H   0  0  0  0  0  0  0  0  0  0  0  0
  152.6333  145.9351  160.2954 H   0  0  0  0  0  0  0  0  0  0  0  0
  150.8844  145.7728  160.2964 H   0  0  0  0  0  0  0  0  0  0  0  0
  153.8614  144.5091  161.6479 H   0  0  0  0  0  0  0  0  0  0  0  0
  152.6771  144.9512  162.8611 H   0  0  0  0  0  0  0  0  0  0  0  0
  153.9081  142.9219  163.5987 H   0  0  0  0  0  0  0  0  0  0  0  0
  152.2387  142.5181  163.2930 H   0  0  0  0  0  0  0  0  0  0  0  0
  154.6875  141.6623  161.7936 H   0  0  0  0  0  0  0  0  0  0  0  0
  153.2105  140.7913  162.1090 H   0  0  0  0  0  0  0  0  0  0  0  0
  153.8826  142.6885  159.8602 H   0  0  0  0  0  0  0  0  0  0  0  0
  153.0720  141.1466  159.7922 H   0  0  0  0  0  0  0  0  0  0  0  0
  151.0415  142.1787  160.8362 H   0  0  0  0  0  0  0  0  0  0  0  0
  148.8240  141.7942  154.8411 H   0  0  0  0  0  0  0  0  0  0  0  0
  148.4368  137.7827  153.9802 H   0  0  0  0  0  0  0  0  0  0  0  0
  150.9724  144.1536  161.6322 H   0  0  0  0  0  0  0  0  0  0  0  0
  1  2  1  0  0  0  0
  1 20  1  0  0  0  0
  1 21  1  0  0  0  0
  1 22  1  0  0  0  0
  2  3  1  0  0  0  0
  2 15  1  0  0  0  0
  2 23  1  0  0  0  0
  3  4  2  0  0  0  0
  3  5  1  0  0  0  0
  5  6  1  0  0  0  0
  5 24  1  0  0  0  0
  6 14  1  0  0  0  0
  6  7  1  0  0  0  0
  6 25  1  0  0  0  0
  7  8  1  0  0  0  0
  7 26  1  0  0  0  0
  7 27  1  0  0  0  0
  8  9  1  0  0  0  0
  8 28  1  0  0  0  0
  8 29  1  0  0  0  0
  9 14  1  0  0  0  0
  9 10  1  0  0  0  0
  9 41  1  0  0  0  0
 10 11  1  0  0  0  0
 10 30  1  0  0  0  0
 10 31  1  0  0  0  0
 11 12  1  0  0  0  0
 11 32  1  0  0  0  0
 11 33  1  0  0  0  0
 12 13  1  0  0  0  0
 12 34  1  0  0  0  0
 12 35  1  0  0  0  0
 13 14  1  0  0  0  0
 13 36  1  0  0  0  0
 13 37  1  0  0  0  0
 14 38  1  0  0  0  0
 15 19  1  0  0  0  0
 15 16  1  0  0  0  0
 16 17  2  0  0  0  0
 16 39  1  0  0  0  0
 17 18  1  0  0  0  0
 18 19  2  0  0  0  0
 18 40  1  0  0  0  0
M  CHG  1   9   1
M  END
> <s_m_source_file>
AV-unprocessed.smi

> <i_m_source_file_index>
1406

> <i_lp_mmshare_version>
43012

> <i_f3d_flags>
0

> <s_epik_input>
bjFbY0hdbltjSF1uMVtDQEhdKFtDSDNdKUMoPU8pW05IXVtDQEhdKFtDSDJdW0NIMl0yKVtDQEBIXShOMjMpW0NIMl1bQ0gyXVtDSDJdW0NIMl0z

> <s_epik_cmdline>
J2VwaWtfcHl0aG9uJywgJy1waCcsICc3LjAnLCAnLXRuJywgJzgnLCAnLW1hJywgJzIwMCcsICctbWV0YWxfYmluZGluZycsICctaW1hZScsICc8aW5maWxlLm1hZT4nLCAnLW9tYWUnLCAnPG91dGZpbGUubWFlPic=

> <r_lp_tautomer_probability>
1

> <r_epik_Ionization_Penalty>
0.00197066

> <r_epik_Ionization_Penalty_Charging>
0.00196223

> <r_epik_Ionization_Penalty_Neutral>
8.43107e-06

> <r_epik_State_Penalty>
0.00133866

> <r_epik_Charging_Adjusted_Penalty>
0.00330089

> <i_epik_Tot_Q>
1

> <i_epik_Tot_abs_Q>
1

> <r_epik_Metal_State_Penalty>
-0

> <b_epik_Metal_Only>
0

> <s_lp_Force_Field>
OPLS_2005

> <r_lp_Energy>
46.3739

> <b_lp_Chiralities_Consistent>
1

> <s_lp_Variant>
AV-unprocessed.smi:1406-13

> <Gold.Version>
5.8.1

> <Gold.Id.Protein>
6NUR|6NUR_protein|mol2

> <Gold.PLP.Fitness>
45.8750

> <Gold.PLP.PLP>
-42.3776

> <Gold.PLP.part.hbond>
0.0000

> <Gold.PLP.part.metal>
0.0000

> <Gold.PLP.part.buried>
-2.5791

> <Gold.PLP.part.nonpolar>
-38.8310

> <Gold.PLP.part.repulsive>
1.3672

> <Gold.PLP.ligand.clash>
0.0000

> <Gold.PLP.ligand.torsion>
0.2181

> <Gold.PLP.Chemscore.Hbond>
0.0000

> <Gold.PLP.Chemscore.CHOScore>
1.2775

> <Gold.PLP.Chemscore.Metal>
0.0000

> <Gold.Chemscore.Hbonds>
donor molecule, donor type, donor heavy atom, donor atom, acceptor molecule, acceptor atom, score
      L1  C    18    40       P1  7948  0.66

> <Gold.PLP.Chemscore.Internal.Correction>
0.1010

> <Gold.Rescore>
     Score         DG    S(hbond)    S(metal)    S(lipo)     H(rot)  DE(clash)    DE(int)     intcor
     10.56     -12.73       0.00        0.00     103.24       1.89       0.86       1.31       ----

> <Gold.Chemscore.Fitness>
10.5576

> <Gold.Chemscore.DG>
-12.7293

> <Gold.Chemscore.ZeroCoef>
-5.4800

> <Gold.Chemscore.Hbond>
0.0000

> <Gold.Chemscore.Metal>
0.0000

> <Gold.Chemscore.Lipo>
103.2381

> <Gold.Chemscore.Internal_Hbond>
0.0000

> <Gold.Chemscore.DEClash>
0.8605

> <Gold.Chemscore.DEInternal>
1.3112

> <Gold.Chemscore.Rot>
1.8865

> <Gold.Chemscore.Internal.Correction>
   9.000000E+99

> <Gold.Chemscore.Hbond.Weighted>
-0.0000

> <Gold.Chemscore.Metal.Weighted>
-0.0000

> <Gold.Chemscore.Lipo.Weighted>
-12.0789

> <Gold.Chemscore.Internal_Hbond.Weighted>
0.0000

> <Gold.Chemscore.DEClash.Weighted>
0.8605

> <Gold.Chemscore.DEInternal.Weighted>
1.3112

> <Gold.Chemscore.Rot.Weighted>
4.8295

> <Gold.Chemscore.Internal.Correction.Weighted>
   9.000000E+99

> <Gold.Protein.RotatedTorsions>
[ 6907 6896 6895 6894 ] final  167.94 input  -60.11 | X-H torsion
[ 7974 7965 7964 7962 ] final  -42.85 input  175.53 | X-H torsion
[ 8008 7997 7996 7995 ] final   96.20 input   59.86 | X-H torsion
[ 10167 10162 10161 10158 ] final -126.63 input  -65.29 | X-H torsion
[ 10718 10713 10712 10709 ] final -122.99 input   66.30 | X-H torsion
[ 10763 10752 10751 10750 ] final  114.19 input  -60.55 | X-H torsion
[ 11005 11000 10999 10996 ] final  -37.43 input  -57.11 | X-H torsion

> <Gold.Protein.ActiveResidues>
 VAL166  LYS551  ARG553  GLY616  TRP617  ASP618  TYR619  PRO620  LYS621  CYS622 
 ASP623  PHE694  ASN695  SER759  ASP760  ASP761  ALA762  ILE779  LEU786  VAL792 
 PHE793  MET794  SER795  GLU796  ALA797  LYS798  CYS799  TRP800  GLU811  SER814 

> <Gold.Protein.RotatedAtoms>
  151.8554  133.3447  159.3686 H   0  0  0  0  0  0  0  0  0  0  0  0  # atno 6907 bound_to 6896
  150.7194  134.5258  159.5685 H   0  0  0  0  0  0  0  0  0  0  0  0  # atno 6908 bound_to 6896
  152.2760  134.7881  160.0456 H   0  0  0  0  0  0  0  0  0  0  0  0  # atno 6909 bound_to 6896
  146.0075  140.7002  142.9240 H   0  0  0  0  0  0  0  0  0  0  0  0  # atno 7974 bound_to 7965
  156.0771  140.3276  155.7647 H   0  0  0  0  0  0  0  0  0  0  0  0  # atno 8008 bound_to 7997
  155.5213  140.0585  157.2923 H   0  0  0  0  0  0  0  0  0  0  0  0  # atno 8009 bound_to 7997
  154.4561  140.1943  156.0392 H   0  0  0  0  0  0  0  0  0  0  0  0  # atno 8010 bound_to 7997
  139.9694  143.5862  152.2418 H   0  0  0  0  0  0  0  0  0  0  0  0  # atno 10167 bound_to 10162
  156.1464  130.6503  150.9849 H   0  0  0  0  0  0  0  0  0  0  0  0  # atno 10718 bound_to 10713
  153.5037  135.3632  155.2552 H   0  0  0  0  0  0  0  0  0  0  0  0  # atno 10763 bound_to 10752
  154.8746  135.4006  154.3449 H   0  0  0  0  0  0  0  0  0  0  0  0  # atno 10764 bound_to 10752
  153.4090  135.7077  153.6439 H   0  0  0  0  0  0  0  0  0  0  0  0  # atno 10765 bound_to 10752
  140.9951  133.6984  156.1919 H   0  0  0  0  0  0  0  0  0  0  0  0  # atno 11005 bound_to 11000
  144.6941  140.3341  143.7211 LP  0  0  0  0  0  0  0  0  0  0  0  0  # atno 17320 bound_to 7965
  145.7393  139.1759  143.2385 LP  0  0  0  0  0  0  0  0  0  0  0  0  # atno 17321 bound_to 7965
  139.6493  144.7660  151.2180 LP  0  0  0  0  0  0  0  0  0  0  0  0  # atno 17342 bound_to 10162
  140.7527  143.6187  150.8534 LP  0  0  0  0  0  0  0  0  0  0  0  0  # atno 17343 bound_to 10162
  157.6620  131.0879  150.7816 LP  0  0  0  0  0  0  0  0  0  0  0  0  # atno 17370 bound_to 10713
  156.7887  130.4883  149.5388 LP  0  0  0  0  0  0  0  0  0  0  0  0  # atno 17371 bound_to 10713
  140.6979  134.4596  157.5587 LP  0  0  0  0  0  0  0  0  0  0  0  0  # atno 17394 bound_to 11000
  139.9011  134.8555  156.1894 LP  0  0  0  0  0  0  0  0  0  0  0  0  # atno 17395 bound_to 11000

$$$$
