AV-unprocessed.smi:1361|AV-procd|sdf|5557|dock1
  -GOLD-   22720 5153D 1   1.00000     0.00000
 Structure written by MMmdl.
 45 46  0  0  0  0  0  0  0  0  2 V2000
  145.3924  144.1503  153.3046 C   0  0  0  0  0  0  0  0  0  0  0  0
  146.2503  143.1696  154.0750 C   0  0  0  0  0  0  0  0  0  0  0  0
  145.8870  142.8060  155.2455 N   0  0  0  0  0  0  0  0  0  0  0  0
  146.6778  141.8926  155.9626 C   0  0  0  0  0  0  0  0  0  0  0  0
  146.1646  141.5140  157.3413 C   0  0  0  0  0  0  0  0  0  0  0  0
  147.8300  141.3888  155.4336 C   0  0  0  0  0  0  0  0  0  0  0  0
  148.7202  140.3879  156.1688 C   0  0  0  0  0  0  0  0  0  0  0  0
  150.1768  140.8173  156.3501 C   0  0  0  0  0  0  0  0  0  0  0  0
  151.0072  140.5677  155.4766 O   0  0  0  0  0  0  0  0  0  0  0  0
  150.4717  141.4636  157.4889 N   0  0  0  0  0  0  0  0  0  0  0  0
  151.7892  141.9663  157.8704 C   0  0  0  0  0  0  0  0  0  0  0  0
  152.1448  141.4716  159.2910 C   0  0  0  0  0  0  0  0  0  0  0  0
  153.3767  142.1462  159.9226 C   0  0  0  0  0  0  0  0  0  0  0  0
  153.0654  143.0238  161.1494 C   0  0  0  0  0  0  0  0  0  0  0  0
  151.8435  143.9611  161.0523 C   0  0  0  0  0  0  0  0  0  0  0  0
  151.8022  144.9039  159.8369 C   0  0  0  0  0  0  0  0  0  0  0  0
  151.0254  144.3712  158.6133 C   0  0  0  0  0  0  0  0  0  0  0  0
  151.8425  143.4961  157.6440 C   0  0  0  0  0  0  0  0  0  0  0  0
  148.2174  141.8397  154.0846 C   0  0  0  0  0  0  0  0  0  0  0  0
  149.2547  141.4293  153.5657 O   0  0  0  0  0  0  0  0  0  0  0  0
  147.3913  142.7197  153.4500 N   0  5  0  0  0  0  0  0  0  0  0  0
  144.6278  144.5914  153.9453 H   0  0  0  0  0  0  0  0  0  0  0  0
  144.8968  143.6448  152.4754 H   0  0  0  0  0  0  0  0  0  0  0  0
  146.0054  144.9573  152.9016 H   0  0  0  0  0  0  0  0  0  0  0  0
  145.9831  140.4411  157.4043 H   0  0  0  0  0  0  0  0  0  0  0  0
  145.2271  142.0237  157.5664 H   0  0  0  0  0  0  0  0  0  0  0  0
  146.8868  141.7920  158.1087 H   0  0  0  0  0  0  0  0  0  0  0  0
  148.2790  140.1875  157.1455 H   0  0  0  0  0  0  0  0  0  0  0  0
  148.7126  139.4204  155.6663 H   0  0  0  0  0  0  0  0  0  0  0  0
  149.7202  141.6248  158.1434 H   0  0  0  0  0  0  0  0  0  0  0  0
  152.5228  141.5398  157.1833 H   0  0  0  0  0  0  0  0  0  0  0  0
  151.2799  141.5533  159.9482 H   0  0  0  0  0  0  0  0  0  0  0  0
  152.3363  140.3991  159.2345 H   0  0  0  0  0  0  0  0  0  0  0  0
  154.0771  141.3714  160.2367 H   0  0  0  0  0  0  0  0  0  0  0  0
  153.9302  142.7244  159.1847 H   0  0  0  0  0  0  0  0  0  0  0  0
  152.9161  142.3721  162.0110 H   0  0  0  0  0  0  0  0  0  0  0  0
  153.9513  143.6156  161.3823 H   0  0  0  0  0  0  0  0  0  0  0  0
  150.9129  143.3980  161.1192 H   0  0  0  0  0  0  0  0  0  0  0  0
  151.8516  144.5779  161.9519 H   0  0  0  0  0  0  0  0  0  0  0  0
  151.2892  145.8103  160.1605 H   0  0  0  0  0  0  0  0  0  0  0  0
  152.8056  145.2292  159.5601 H   0  0  0  0  0  0  0  0  0  0  0  0
  150.1042  143.8729  158.9161 H   0  0  0  0  0  0  0  0  0  0  0  0
  150.7011  145.2452  158.0472 H   0  0  0  0  0  0  0  0  0  0  0  0
  152.8739  143.8463  157.6133 H   0  0  0  0  0  0  0  0  0  0  0  0
  151.4729  143.6841  156.6345 H   0  0  0  0  0  0  0  0  0  0  0  0
  1  2  1  0  0  0  0
  1 22  1  0  0  0  0
  1 23  1  0  0  0  0
  1 24  1  0  0  0  0
  2 21  1  0  0  0  0
  2  3  2  0  0  0  0
  3  4  1  0  0  0  0
  4  5  1  0  0  0  0
  4  6  2  0  0  0  0
  5 25  1  0  0  0  0
  5 26  1  0  0  0  0
  5 27  1  0  0  0  0
  6  7  1  0  0  0  0
  6 19  1  0  0  0  0
  7  8  1  0  0  0  0
  7 28  1  0  0  0  0
  7 29  1  0  0  0  0
  8  9  2  0  0  0  0
  8 10  1  0  0  0  0
 10 11  1  0  0  0  0
 10 30  1  0  0  0  0
 11 18  1  0  0  0  0
 11 12  1  0  0  0  0
 11 31  1  0  0  0  0
 12 13  1  0  0  0  0
 12 32  1  0  0  0  0
 12 33  1  0  0  0  0
 13 14  1  0  0  0  0
 13 34  1  0  0  0  0
 13 35  1  0  0  0  0
 14 15  1  0  0  0  0
 14 36  1  0  0  0  0
 14 37  1  0  0  0  0
 15 16  1  0  0  0  0
 15 38  1  0  0  0  0
 15 39  1  0  0  0  0
 16 17  1  0  0  0  0
 16 40  1  0  0  0  0
 16 41  1  0  0  0  0
 17 18  1  0  0  0  0
 17 42  1  0  0  0  0
 17 43  1  0  0  0  0
 18 44  1  0  0  0  0
 18 45  1  0  0  0  0
 19 20  2  0  0  0  0
 19 21  1  0  0  0  0
M  CHG  1  21  -1
M  END
> <s_m_source_file>
AV-unprocessed.smi

> <i_m_source_file_index>
1361

> <i_lp_mmshare_version>
43012

> <i_f3d_flags>
0

> <s_epik_input>
W0NIM11jMW5jKFtDSDNdKWMoYyg9TylbbkhdMSlbQ0gyXUMoPU8pW05IXVtDSF0yW0NIMl1bQ0gyXVtDSDJdW0NIMl1bQ0gyXVtDSDJdW0NIMl0y

> <s_epik_cmdline>
J2VwaWtfcHl0aG9uJywgJy1waCcsICc3LjAnLCAnLXRuJywgJzgnLCAnLW1hJywgJzIwMCcsICctbWV0YWxfYmluZGluZycsICctaW1hZScsICc8aW5maWxlLm1hZT4nLCAnLW9tYWUnLCAnPG91dGZpbGUubWFlPic=

> <r_lp_tautomer_probability>
0.839158

> <r_epik_Ionization_Penalty>
6.62804

> <r_epik_Ionization_Penalty_Charging>
7.40585e-08

> <r_epik_Ionization_Penalty_Neutral>
6.62804

> <r_epik_State_Penalty>
4.44437

> <r_epik_Charging_Adjusted_Penalty>
4.44437

> <i_epik_Tot_Q>
-1

> <i_epik_Tot_abs_Q>
1

> <r_epik_Metal_State_Penalty>
0.804717

> <b_epik_Metal_Only>
1

> <s_lp_Force_Field>
OPLS_2005

> <r_lp_Energy>
26.9664

> <b_lp_Chiralities_Consistent>
1

> <s_lp_Variant>
AV-unprocessed.smi:1361-3

> <Gold.Version>
5.8.1

> <Gold.Id.Protein>
6NUR|6NUR_protein|mol2

> <Gold.PLP.Fitness>
44.1248

> <Gold.PLP.PLP>
-40.0583

> <Gold.PLP.part.hbond>
-4.6654

> <Gold.PLP.part.metal>
0.0000

> <Gold.PLP.part.buried>
-2.6200

> <Gold.PLP.part.nonpolar>
-33.2894

> <Gold.PLP.part.repulsive>
2.2547

> <Gold.PLP.ligand.clash>
0.0000

> <Gold.PLP.ligand.torsion>
0.5403

> <Gold.PLP.Chemscore.Hbond>
1.6990

> <Gold.PLP.Chemscore.CHOScore>
0.0000

> <Gold.PLP.Chemscore.Metal>
0.0000

> <Gold.Chemscore.Hbonds>
donor molecule, donor type, donor heavy atom, donor atom, acceptor molecule, acceptor atom, score
      P1  H  7989  7998       L1     9  0.76
      P1  H  8011  8017       L1    20  0.86
      P1  H  8022  8030       L1    21  0.07

> <Gold.PLP.Chemscore.Internal.Correction>
0.0503

> <Gold.Rescore>
     Score         DG    S(hbond)    S(metal)    S(lipo)     H(rot)  DE(clash)    DE(int)     intcor
     16.27     -19.08       1.64        0.00     100.89       1.43       1.03       1.78       ----

> <Gold.Chemscore.Fitness>
16.2698

> <Gold.Chemscore.DG>
-19.0834

> <Gold.Chemscore.ZeroCoef>
-5.4800

> <Gold.Chemscore.Hbond>
1.6376

> <Gold.Chemscore.Metal>
0.0000

> <Gold.Chemscore.Lipo>
100.8948

> <Gold.Chemscore.Internal_Hbond>
0.0000

> <Gold.Chemscore.DEClash>
1.0346

> <Gold.Chemscore.DEInternal>
1.7789

> <Gold.Chemscore.Rot>
1.4339

> <Gold.Chemscore.Internal.Correction>
   9.000000E+99

> <Gold.Chemscore.Hbonds>
donor molecule, donor type, donor heavy atom, donor atom, acceptor molecule, acceptor atom, score
      P1  H  7989  7998       L1     9  0.74
      P1  H  8011  8017       L1    20  0.72
      P1  H  8022  8030       L1    21  0.01

> <Gold.Chemscore.Hbond.Weighted>
-5.4695

> <Gold.Chemscore.Metal.Weighted>
-0.0000

> <Gold.Chemscore.Lipo.Weighted>
-11.8047

> <Gold.Chemscore.Internal_Hbond.Weighted>
0.0000

> <Gold.Chemscore.DEClash.Weighted>
1.0346

> <Gold.Chemscore.DEInternal.Weighted>
1.7789

> <Gold.Chemscore.Rot.Weighted>
3.6708

> <Gold.Chemscore.Internal.Correction.Weighted>
   9.000000E+99

> <Gold.Protein.RotatedTorsions>
[ 6907 6896 6895 6894 ] final  -44.35 input  -60.11 | X-H torsion
[ 7974 7965 7964 7962 ] final -125.78 input  175.53 | X-H torsion
[ 8008 7997 7996 7995 ] final  130.92 input   59.86 | X-H torsion
[ 10167 10162 10161 10158 ] final  -87.05 input  -65.29 | X-H torsion
[ 10718 10713 10712 10709 ] final   53.89 input   66.30 | X-H torsion
[ 10763 10752 10751 10750 ] final  -44.18 input  -60.55 | X-H torsion
[ 11005 11000 10999 10996 ] final   18.61 input  -57.11 | X-H torsion

> <Gold.Protein.ActiveResidues>
 VAL166  LYS551  ARG553  GLY616  TRP617  ASP618  TYR619  PRO620  LYS621  CYS622 
 ASP623  PHE694  ASN695  SER759  ASP760  ASP761  ALA762  ILE779  LEU786  VAL792 
 PHE793  MET794  SER795  GLU796  ALA797  LYS798  CYS799  TRP800  GLU811  SER814 

> <Gold.Protein.RotatedAtoms>
  150.9338  134.8752  159.7568 H   0  0  0  0  0  0  0  0  0  0  0  0  # atno 6907 bound_to 6896
  152.5050  134.4040  159.9436 H   0  0  0  0  0  0  0  0  0  0  0  0  # atno 6908 bound_to 6896
  151.4065  133.3701  159.2773 H   0  0  0  0  0  0  0  0  0  0  0  0  # atno 6909 bound_to 6896
  144.9940  140.7759  143.4536 H   0  0  0  0  0  0  0  0  0  0  0  0  # atno 7974 bound_to 7965
  156.2962  140.2584  156.2840 H   0  0  0  0  0  0  0  0  0  0  0  0  # atno 8008 bound_to 7997
  154.9574  140.0393  157.2192 H   0  0  0  0  0  0  0  0  0  0  0  0  # atno 8009 bound_to 7997
  154.7979  140.2823  155.5948 H   0  0  0  0  0  0  0  0  0  0  0  0  # atno 8010 bound_to 7997
  140.3882  143.2717  151.9298 H   0  0  0  0  0  0  0  0  0  0  0  0  # atno 10167 bound_to 10162
  157.5208  130.8564  149.8556 H   0  0  0  0  0  0  0  0  0  0  0  0  # atno 10718 bound_to 10713
  154.0078  135.6685  153.4763 H   0  0  0  0  0  0  0  0  0  0  0  0  # atno 10763 bound_to 10752
  153.0634  135.5015  154.8141 H   0  0  0  0  0  0  0  0  0  0  0  0  # atno 10764 bound_to 10752
  154.7014  135.3079  154.9299 H   0  0  0  0  0  0  0  0  0  0  0  0  # atno 10765 bound_to 10752
  140.4228  134.1500  155.7674 H   0  0  0  0  0  0  0  0  0  0  0  0  # atno 11005 bound_to 11000
  145.2245  139.2143  143.5075 LP  0  0  0  0  0  0  0  0  0  0  0  0  # atno 17320 bound_to 7965
  146.3438  140.2110  142.8590 LP  0  0  0  0  0  0  0  0  0  0  0  0  # atno 17321 bound_to 7965
  139.4790  144.5753  151.8021 LP  0  0  0  0  0  0  0  0  0  0  0  0  # atno 17342 bound_to 10162
  140.4867  144.1370  150.5942 LP  0  0  0  0  0  0  0  0  0  0  0  0  # atno 17343 bound_to 10162
  156.0352  130.3753  150.1579 LP  0  0  0  0  0  0  0  0  0  0  0  0  # atno 17370 bound_to 10713
  156.9767  130.9851  151.3446 LP  0  0  0  0  0  0  0  0  0  0  0  0  # atno 17371 bound_to 10713
  141.1777  133.8480  157.1366 LP  0  0  0  0  0  0  0  0  0  0  0  0  # atno 17394 bound_to 11000
  140.0188  134.9955  157.0548 LP  0  0  0  0  0  0  0  0  0  0  0  0  # atno 17395 bound_to 11000

$$$$
