AV-unprocessed.smi:36|AV-procd|sdf|297|dock5
  -GOLD-   2262016 93D 1   1.00000     0.00000
 Structure written by MMmdl.
 63 66  0  0  0  0  0  0  0  0  2 V2000
  145.0888  133.8217  160.7605 C   0  0  0  0  0  0  0  0  0  0  0  0
  146.1701  134.0186  161.8357 C   0  0  0  0  0  0  0  0  0  0  0  0
  145.5631  133.8004  163.2316 C   0  0  0  0  0  0  0  0  0  0  0  0
  147.3215  133.0238  161.6107 C   0  0  0  0  0  0  0  0  0  0  0  0
  146.8591  135.7976  161.7289 Si  0  0  0  0  0  0  0  0  0  0  0  0
  145.5268  137.0784  162.1718 C   0  0  0  0  0  0  0  0  0  0  0  0
  148.3674  136.0199  162.8623 C   0  0  0  0  0  0  0  0  0  0  0  0
  147.3507  136.0633  160.1331 O   0  0  0  0  0  0  0  0  0  0  0  0
  146.4673  136.0696  159.0323 C   0  0  0  0  0  0  0  0  0  0  0  0
  147.0929  135.2588  157.8906 C   0  0  2  0  0  0  0  0  0  0  0  0
  148.4711  134.9831  158.1547 O   0  0  0  0  0  0  0  0  0  0  0  0
  149.2464  135.2222  157.0154 C   0  0  2  0  0  0  0  0  0  0  0  0
  149.9710  136.5209  157.1981 N   0  0  0  0  0  0  0  0  0  0  0  0
  150.4206  137.1039  158.3299 C   0  0  0  0  0  0  0  0  0  0  0  0
  151.0495  138.2717  158.2113 N   0  0  0  0  0  0  0  0  0  0  0  0
  151.0205  138.4675  156.8385 C   0  0  0  0  0  0  0  0  0  0  0  0
  151.5129  139.5100  156.0069 C   0  0  0  0  0  0  0  0  0  0  0  0
  152.1570  140.5815  156.4931 N   0  5  0  0  0  0  0  0  0  0  0  0
  151.4669  141.7155  156.7745 C   0  0  0  0  0  0  0  0  0  0  0  0
  150.5929  142.2587  156.0954 O   0  0  0  0  0  0  0  0  0  0  0  0
  151.9139  142.3808  158.0485 C   0  0  0  0  0  0  0  0  0  0  0  0
  152.6558  141.6443  159.0000 C   0  0  0  0  0  0  0  0  0  0  0  0
  153.1027  142.2548  160.1881 C   0  0  0  0  0  0  0  0  0  0  0  0
  152.8212  143.6118  160.4325 C   0  0  0  0  0  0  0  0  0  0  0  0
  152.0952  144.3591  159.4863 C   0  0  0  0  0  0  0  0  0  0  0  0
  151.6473  143.7492  158.2982 C   0  0  0  0  0  0  0  0  0  0  0  0
  151.3252  139.3705  154.6693 N   0  0  0  0  0  0  0  0  0  0  0  0
  150.6894  138.2977  154.1837 C   0  0  0  0  0  0  0  0  0  0  0  0
  150.1719  137.2570  154.8440 N   0  0  0  0  0  0  0  0  0  0  0  0
  150.3616  137.3839  156.1896 C   0  0  0  0  0  0  0  0  0  0  0  0
  148.2664  135.3331  155.8472 C   0  0  0  0  0  0  0  0  0  0  0  0
  147.0620  135.9532  156.5244 C   0  0  1  0  0  0  0  0  0  0  0  0
  145.8789  135.6786  155.8028 O   0  0  0  0  0  0  0  0  0  0  0  0
  144.6734  132.8142  160.7974 H   0  0  0  0  0  0  0  0  0  0  0  0
  145.4906  133.9748  159.7586 H   0  0  0  0  0  0  0  0  0  0  0  0
  144.2635  134.5214  160.8950 H   0  0  0  0  0  0  0  0  0  0  0  0
  144.7377  134.4879  163.4184 H   0  0  0  0  0  0  0  0  0  0  0  0
  146.3053  133.9571  164.0150 H   0  0  0  0  0  0  0  0  0  0  0  0
  145.1766  132.7867  163.3420 H   0  0  0  0  0  0  0  0  0  0  0  0
  146.9757  131.9924  161.6879 H   0  0  0  0  0  0  0  0  0  0  0  0
  148.1138  133.1619  162.3477 H   0  0  0  0  0  0  0  0  0  0  0  0
  147.7668  133.1465  160.6233 H   0  0  0  0  0  0  0  0  0  0  0  0
  145.1427  136.9244  163.1800 H   0  0  0  0  0  0  0  0  0  0  0  0
  144.6793  137.0276  161.4885 H   0  0  0  0  0  0  0  0  0  0  0  0
  145.9178  138.0947  162.1266 H   0  0  0  0  0  0  0  0  0  0  0  0
  148.1127  135.8442  163.9071 H   0  0  0  0  0  0  0  0  0  0  0  0
  148.7736  137.0287  162.7934 H   0  0  0  0  0  0  0  0  0  0  0  0
  149.1694  135.3294  162.6023 H   0  0  0  0  0  0  0  0  0  0  0  0
  145.4991  135.6626  159.3235 H   0  0  0  0  0  0  0  0  0  0  0  0
  146.3086  137.1011  158.7169 H   0  0  0  0  0  0  0  0  0  0  0  0
  146.6014  134.2868  157.8213 H   0  0  0  0  0  0  0  0  0  0  0  0
  150.0353  134.4812  156.8810 H   0  0  0  0  0  0  0  0  0  0  0  0
  150.2844  136.6495  159.2991 H   0  0  0  0  0  0  0  0  0  0  0  0
  152.8813  140.6021  158.8265 H   0  0  0  0  0  0  0  0  0  0  0  0
  153.6632  141.6807  160.9111 H   0  0  0  0  0  0  0  0  0  0  0  0
  153.1646  144.0799  161.3432 H   0  0  0  0  0  0  0  0  0  0  0  0
  151.8831  145.4021  159.6693 H   0  0  0  0  0  0  0  0  0  0  0  0
  151.1005  144.3429  157.5798 H   0  0  0  0  0  0  0  0  0  0  0  0
  150.5803  138.2689  153.1098 H   0  0  0  0  0  0  0  0  0  0  0  0
  148.6647  135.9216  155.0200 H   0  0  0  0  0  0  0  0  0  0  0  0
  148.0448  134.3262  155.4900 H   0  0  0  0  0  0  0  0  0  0  0  0
  147.1982  137.0308  156.6265 H   0  0  0  0  0  0  0  0  0  0  0  0
  146.0776  135.7071  154.8796 H   0  0  0  0  0  0  0  0  0  0  0  0
  1  2  1  0  0  0  0
  1 34  1  0  0  0  0
  1 35  1  0  0  0  0
  1 36  1  0  0  0  0
  2  3  1  0  0  0  0
  2  4  1  0  0  0  0
  2  5  1  0  0  0  0
  3 37  1  0  0  0  0
  3 38  1  0  0  0  0
  3 39  1  0  0  0  0
  4 40  1  0  0  0  0
  4 41  1  0  0  0  0
  4 42  1  0  0  0  0
  5  6  1  0  0  0  0
  5  7  1  0  0  0  0
  5  8  1  0  0  0  0
  6 43  1  0  0  0  0
  6 44  1  0  0  0  0
  6 45  1  0  0  0  0
  7 46  1  0  0  0  0
  7 47  1  0  0  0  0
  7 48  1  0  0  0  0
  8  9  1  0  0  0  0
  9 10  1  0  0  0  0
  9 49  1  0  0  0  0
  9 50  1  0  0  0  0
 10 32  1  0  0  0  0
 10 11  1  0  0  0  0
 10 51  1  0  0  0  0
 11 12  1  0  0  0  0
 12 13  1  0  0  0  0
 12 31  1  0  0  0  0
 12 52  1  0  0  0  0
 13 30  1  0  0  0  0
 13 14  1  0  0  0  0
 14 15  2  0  0  0  0
 14 53  1  0  0  0  0
 15 16  1  0  0  0  0
 16 30  2  0  0  0  0
 16 17  1  0  0  0  0
 17 18  1  0  0  0  0
 17 27  2  0  0  0  0
 18 19  1  0  0  0  0
 19 20  2  0  0  0  0
 19 21  1  0  0  0  0
 21 26  1  0  0  0  0
 21 22  2  0  0  0  0
 22 23  1  0  0  0  0
 22 54  1  0  0  0  0
 23 24  2  0  0  0  0
 23 55  1  0  0  0  0
 24 25  1  0  0  0  0
 24 56  1  0  0  0  0
 25 26  2  0  0  0  0
 25 57  1  0  0  0  0
 26 58  1  0  0  0  0
 27 28  1  0  0  0  0
 28 29  2  0  0  0  0
 28 59  1  0  0  0  0
 29 30  1  0  0  0  0
 31 32  1  0  0  0  0
 31 60  1  0  0  0  0
 31 61  1  0  0  0  0
 32 33  1  0  0  0  0
 32 62  1  0  0  0  0
 33 63  1  0  0  0  0
M  CHG  1  18  -1
M  END
> <s_m_source_file>
AV-unprocessed.smi

> <i_m_source_file_index>
36

> <i_lp_mmshare_version>
43012

> <i_f3d_flags>
0

> <s_epik_input>
W0NIM11DKFtDSDNdKShbQ0gzXSlbU2ldKFtDSDNdKShbQ0gzXSlPW0NIMl1bQ0BASF0xT1tDQEhdKFtDSDJdW0NASF0xW09IXSluKFtjSF1uMiljKGMyMyluW2NIXW5jM1tOSF1DKD1PKWM0W2NIXVtjSF1bY0hdW2NIXVtjSF00

> <s_epik_cmdline>
J2VwaWtfcHl0aG9uJywgJy1waCcsICc3LjAnLCAnLXRuJywgJzgnLCAnLW1hJywgJzIwMCcsICctbWV0YWxfYmluZGluZycsICctaW1hZScsICc8aW5maWxlLm1hZT4nLCAnLW9tYWUnLCAnPG91dGZpbGUubWFlPic=

> <r_lp_tautomer_probability>
1

> <r_epik_Ionization_Penalty>
4.75685

> <r_epik_Ionization_Penalty_Charging>
3.55822

> <r_epik_Ionization_Penalty_Neutral>
1.19863

> <r_epik_State_Penalty>
3.564

> <r_epik_Charging_Adjusted_Penalty>
7.12222

> <i_epik_Tot_Q>
-1

> <i_epik_Tot_abs_Q>
1

> <r_epik_Metal_State_Penalty>
0.523258

> <b_epik_Metal_Only>
1

> <s_epik_Chemistry_Notes>
This compound contains an acetal/aminal-like group ( X-CH(R)-Y where X, Y are N, S, or O) that may be acid/base labile, releasing an aldehyde.

> <s_lp_Force_Field>
OPLS_2005

> <r_lp_Energy>
31.8386

> <b_lp_Chiralities_Consistent>
1

> <s_lp_Variant>
AV-unprocessed.smi:36-19

> <Gold.Version>
5.8.1

> <Gold.Id.Protein>
6NUR|6NUR_protein|mol2

> <Gold.PLP.Fitness>
48.6959

> <Gold.PLP.PLP>
-43.3752

> <Gold.PLP.part.hbond>
-1.8711

> <Gold.PLP.part.metal>
0.0000

> <Gold.PLP.part.buried>
-4.5156

> <Gold.PLP.part.nonpolar>
-35.9853

> <Gold.PLP.part.repulsive>
0.3229

> <Gold.PLP.ligand.clash>
0.0000

> <Gold.PLP.ligand.torsion>
3.0799

> <Gold.PLP.Chemscore.Hbond>
2.6004

> <Gold.PLP.Chemscore.CHOScore>
1.0000

> <Gold.PLP.Chemscore.Metal>
0.0000

> <Gold.Chemscore.Hbonds>
donor molecule, donor type, donor heavy atom, donor atom, acceptor molecule, acceptor atom, score
      P1  H  7989  7998       L1    27  1.00
      P1  H  7997  8010       L1    18  0.95
      L1  C    28    59       P1  7948  0.14
      L1  C    28    59       P1  7949  0.12
      L1  C    28    59       P1  7957  0.33

> <Gold.PLP.Chemscore.Internal.Correction>
0.6793

> <Gold.Rescore>
     Score         DG    S(hbond)    S(metal)    S(lipo)     H(rot)  DE(clash)    DE(int)     intcor
     11.67     -16.56       1.43        0.00     112.32       2.67       0.70       4.19       ----

> <Gold.Chemscore.Fitness>
11.6656

> <Gold.Chemscore.DG>
-16.5588

> <Gold.Chemscore.ZeroCoef>
-5.4800

> <Gold.Chemscore.Hbond>
1.4290

> <Gold.Chemscore.Metal>
0.0000

> <Gold.Chemscore.Lipo>
112.3210

> <Gold.Chemscore.Internal_Hbond>
0.0000

> <Gold.Chemscore.DEClash>
0.7012

> <Gold.Chemscore.DEInternal>
4.1919

> <Gold.Chemscore.Rot>
2.6702

> <Gold.Chemscore.Internal.Correction>
   9.000000E+99

> <Gold.Chemscore.Hbonds>
donor molecule, donor type, donor heavy atom, donor atom, acceptor molecule, acceptor atom, score
      P1  H  7989  7998       L1    27  0.93
      P1  H  7997  8010       L1    18  0.30

> <Gold.Chemscore.Hbond.Weighted>
-4.7730

> <Gold.Chemscore.Metal.Weighted>
-0.0000

> <Gold.Chemscore.Lipo.Weighted>
-13.1416

> <Gold.Chemscore.Internal_Hbond.Weighted>
0.0000

> <Gold.Chemscore.DEClash.Weighted>
0.7012

> <Gold.Chemscore.DEInternal.Weighted>
4.1919

> <Gold.Chemscore.Rot.Weighted>
6.8358

> <Gold.Chemscore.Internal.Correction.Weighted>
   9.000000E+99

> <Gold.Protein.RotatedTorsions>
[ 6907 6896 6895 6894 ] final  -99.46 input  -60.11 | X-H torsion
[ 7974 7965 7964 7962 ] final   97.04 input  175.53 | X-H torsion
[ 8008 7997 7996 7995 ] final   70.59 input   59.86 | X-H torsion
[ 10167 10162 10161 10158 ] final  141.83 input  -65.29 | X-H torsion
[ 10718 10713 10712 10709 ] final   95.24 input   66.30 | X-H torsion
[ 10763 10752 10751 10750 ] final -148.71 input  -60.55 | X-H torsion
[ 11005 11000 10999 10996 ] final   -4.57 input  -57.11 | X-H torsion

> <Gold.Protein.ActiveResidues>
 VAL166  LYS551  ARG553  GLY616  TRP617  ASP618  TYR619  PRO620  LYS621  CYS622 
 ASP623  PHE694  ASN695  SER759  ASP760  ASP761  ALA762  ILE779  LEU786  VAL792 
 PHE793  MET794  SER795  GLU796  ALA797  LYS798  CYS799  TRP800  GLU811  SER814 

> <Gold.Protein.RotatedAtoms>
  150.7081  134.1037  159.3974 H   0  0  0  0  0  0  0  0  0  0  0  0  # atno 6907 bound_to 6896
  151.9024  135.0370  160.0517 H   0  0  0  0  0  0  0  0  0  0  0  0  # atno 6908 bound_to 6896
  152.2403  133.5095  159.5303 H   0  0  0  0  0  0  0  0  0  0  0  0  # atno 6909 bound_to 6896
  145.4307  139.2311  143.3145 H   0  0  0  0  0  0  0  0  0  0  0  0  # atno 7974 bound_to 7965
  155.7411  140.3490  155.5104 H   0  0  0  0  0  0  0  0  0  0  0  0  # atno 8008 bound_to 7997
  155.9094  140.1047  157.1312 H   0  0  0  0  0  0  0  0  0  0  0  0  # atno 8009 bound_to 7997
  154.4054  140.1271  156.4524 H   0  0  0  0  0  0  0  0  0  0  0  0  # atno 8010 bound_to 7997
  139.5010  144.6146  151.6192 H   0  0  0  0  0  0  0  0  0  0  0  0  # atno 10167 bound_to 10162
  157.6940  131.0539  150.4308 H   0  0  0  0  0  0  0  0  0  0  0  0  # atno 10718 bound_to 10713
  154.8218  135.3327  154.7016 H   0  0  0  0  0  0  0  0  0  0  0  0  # atno 10763 bound_to 10752
  153.7648  135.6930  153.4922 H   0  0  0  0  0  0  0  0  0  0  0  0  # atno 10764 bound_to 10752
  153.2085  135.4490  155.0300 H   0  0  0  0  0  0  0  0  0  0  0  0  # atno 10765 bound_to 10752
  140.6817  133.9147  155.8560 H   0  0  0  0  0  0  0  0  0  0  0  0  # atno 11005 bound_to 11000
  146.2608  140.5044  142.8854 LP  0  0  0  0  0  0  0  0  0  0  0  0  # atno 17320 bound_to 7965
  144.8184  140.6508  143.6369 LP  0  0  0  0  0  0  0  0  0  0  0  0  # atno 17321 bound_to 7965
  140.5831  143.9911  150.6279 LP  0  0  0  0  0  0  0  0  0  0  0  0  # atno 17342 bound_to 10162
  140.3067  143.3225  152.0919 LP  0  0  0  0  0  0  0  0  0  0  0  0  # atno 17343 bound_to 10162
  156.4675  130.4045  149.6538 LP  0  0  0  0  0  0  0  0  0  0  0  0  # atno 17370 bound_to 10713
  156.3631  130.7492  151.2466 LP  0  0  0  0  0  0  0  0  0  0  0  0  # atno 17371 bound_to 10713
  141.0312  134.0754  157.4012 LP  0  0  0  0  0  0  0  0  0  0  0  0  # atno 17394 bound_to 11000
  139.8950  135.0138  156.6977 LP  0  0  0  0  0  0  0  0  0  0  0  0  # atno 17395 bound_to 11000

$$$$
