AV-unprocessed.smi:276|AV-procd|sdf|2077|dock1
  -GOLD-   2262021343D 1   1.00000     0.00000
 Structure written by MMmdl.
 57 61  0  0  0  0  0  0  0  0  1 V2000
  146.0013  132.6127  162.5083 C   0  0  0  0  0  0  0  0  0  0  0  0
  146.4509  133.9455  162.6751 O   0  0  0  0  0  0  0  0  0  0  0  0
  147.3183  134.3617  161.6323 C   0  0  1  0  0  0  0  0  0  0  0  0
  146.6517  134.4668  160.2551 C   0  0  0  0  0  0  0  0  0  0  0  0
  147.4393  135.7711  160.0206 C   0  0  2  0  0  0  0  0  0  0  0  0
  148.7073  135.5171  159.3215 N   0  0  0  0  0  0  0  0  0  0  0  0
  148.6181  134.7335  158.0930 C   0  0  0  0  0  0  0  0  0  0  0  0
  149.5057  136.5902  159.1253 C   0  0  0  0  0  0  0  0  0  0  0  0
  150.6910  136.6015  159.7844 N   0  0  0  0  0  0  0  0  0  0  0  0
  151.5253  137.6360  159.6433 C   0  0  0  0  0  0  0  0  0  0  0  0
  151.3732  138.7365  158.9036 N   0  0  0  0  0  0  0  0  0  0  0  0
  150.1890  138.7200  158.2272 C   0  0  0  0  0  0  0  0  0  0  0  0
  149.2046  137.6928  158.2743 C   0  0  0  0  0  0  0  0  0  0  0  0
  148.1370  138.0248  157.4479 N   0  0  0  0  0  0  0  0  0  0  0  0
  148.4651  139.1862  156.9519 C   0  0  0  0  0  0  0  0  0  0  0  0
  149.6803  139.6785  157.3693 N   0  0  0  0  0  0  0  0  0  0  0  0
  150.2820  140.9418  156.9805 C   0  0  0  0  0  0  0  0  0  0  0  0
  151.3956  141.3831  157.9499 C   0  0  1  0  0  0  0  0  0  0  0  0
  152.5879  140.6867  157.6405 O   0  0  0  0  0  0  0  0  0  0  0  0
  151.6696  142.8959  157.8707 C   0  0  2  0  0  0  0  0  0  0  0  0
  152.5466  143.4433  158.9983 C   0  0  0  0  0  0  0  0  0  0  0  0
  152.1529  144.9097  159.0784 C   0  0  0  0  0  0  0  0  0  0  0  0
  150.8312  144.9833  158.3089 C   0  0  0  0  0  0  0  0  0  0  0  0
  150.4708  143.6323  158.0575 O   0  0  0  0  0  0  0  0  0  0  0  0
  147.5331  135.8845  161.5671 C   0  0  0  0  0  0  0  0  0  0  0  0
  146.5711  136.8272  162.3134 C   0  0  0  0  0  0  0  0  0  0  0  0
  147.6328  136.9555  163.4092 C   0  0  0  0  0  0  0  0  0  0  0  0
  148.6712  136.5598  162.3566 C   0  0  0  0  0  0  0  0  0  0  0  0
  145.3419  132.3432  163.3331 H   0  0  0  0  0  0  0  0  0  0  0  0
  146.8385  131.9135  162.5042 H   0  0  0  0  0  0  0  0  0  0  0  0
  145.4425  132.4948  161.5791 H   0  0  0  0  0  0  0  0  0  0  0  0
  148.2647  133.8173  161.6065 H   0  0  0  0  0  0  0  0  0  0  0  0
  146.8717  133.6338  159.5882 H   0  0  0  0  0  0  0  0  0  0  0  0
  145.5762  134.6392  160.3233 H   0  0  0  0  0  0  0  0  0  0  0  0
  146.8231  136.5431  159.5601 H   0  0  0  0  0  0  0  0  0  0  0  0
  149.5023  134.8461  157.4628 H   0  0  0  0  0  0  0  0  0  0  0  0
  147.7478  135.0342  157.5083 H   0  0  0  0  0  0  0  0  0  0  0  0
  148.5229  133.6733  158.3255 H   0  0  0  0  0  0  0  0  0  0  0  0
  152.4457  137.5732  160.2046 H   0  0  0  0  0  0  0  0  0  0  0  0
  147.8245  139.7209  156.2656 H   0  0  0  0  0  0  0  0  0  0  0  0
  150.6698  140.8509  155.9650 H   0  0  0  0  0  0  0  0  0  0  0  0
  149.4927  141.6936  156.9444 H   0  0  0  0  0  0  0  0  0  0  0  0
  151.1089  141.1215  158.9695 H   0  0  0  0  0  0  0  0  0  0  0  0
  152.7401  140.0391  158.3120 H   0  0  0  0  0  0  0  0  0  0  0  0
  152.0994  143.1586  156.9018 H   0  0  0  0  0  0  0  0  0  0  0  0
  152.3023  142.9492  159.9398 H   0  0  0  0  0  0  0  0  0  0  0  0
  153.6111  143.2994  158.8109 H   0  0  0  0  0  0  0  0  0  0  0  0
  152.0374  145.2268  160.1154 H   0  0  0  0  0  0  0  0  0  0  0  0
  152.9032  145.5495  158.6124 H   0  0  0  0  0  0  0  0  0  0  0  0
  150.0494  145.4988  158.8672 H   0  0  0  0  0  0  0  0  0  0  0  0
  150.9694  145.5015  157.3589 H   0  0  0  0  0  0  0  0  0  0  0  0
  146.4062  137.7652  161.7803 H   0  0  0  0  0  0  0  0  0  0  0  0
  145.6289  136.3830  162.6357 H   0  0  0  0  0  0  0  0  0  0  0  0
  147.7522  137.9601  163.8159 H   0  0  0  0  0  0  0  0  0  0  0  0
  147.5216  136.2079  164.1964 H   0  0  0  0  0  0  0  0  0  0  0  0
  149.4495  135.8843  162.7125 H   0  0  0  0  0  0  0  0  0  0  0  0
  149.0923  137.4393  161.8705 H   0  0  0  0  0  0  0  0  0  0  0  0
  1  2  1  0  0  0  0
  1 29  1  0  0  0  0
  1 30  1  0  0  0  0
  1 31  1  0  0  0  0
  2  3  1  0  0  0  0
  3 25  1  0  0  0  0
  3  4  1  0  0  0  0
  3 32  1  0  0  0  0
  4  5  1  0  0  0  0
  4 33  1  0  0  0  0
  4 34  1  0  0  0  0
  5  6  1  0  0  0  0
  5 25  1  0  0  0  0
  5 35  1  0  0  0  0
  6  7  1  0  0  0  0
  6  8  1  0  0  0  0
  7 36  1  0  0  0  0
  7 37  1  0  0  0  0
  7 38  1  0  0  0  0
  8 13  1  0  0  0  0
  8  9  2  0  0  0  0
  9 10  1  0  0  0  0
 10 11  2  0  0  0  0
 10 39  1  0  0  0  0
 11 12  1  0  0  0  0
 12 16  1  0  0  0  0
 12 13  2  0  0  0  0
 13 14  1  0  0  0  0
 14 15  2  0  0  0  0
 15 16  1  0  0  0  0
 15 40  1  0  0  0  0
 16 17  1  0  0  0  0
 17 18  1  0  0  0  0
 17 41  1  0  0  0  0
 17 42  1  0  0  0  0
 18 19  1  0  0  0  0
 18 20  1  0  0  0  0
 18 43  1  0  0  0  0
 19 44  1  0  0  0  0
 20 24  1  0  0  0  0
 20 21  1  0  0  0  0
 20 45  1  0  0  0  0
 21 22  1  0  0  0  0
 21 46  1  0  0  0  0
 21 47  1  0  0  0  0
 22 23  1  0  0  0  0
 22 48  1  0  0  0  0
 22 49  1  0  0  0  0
 23 24  1  0  0  0  0
 23 50  1  0  0  0  0
 23 51  1  0  0  0  0
 25 28  1  0  0  0  0
 25 26  1  0  0  0  0
 26 27  1  0  0  0  0
 26 52  1  0  0  0  0
 26 53  1  0  0  0  0
 27 28  1  0  0  0  0
 27 54  1  0  0  0  0
 27 55  1  0  0  0  0
 28 56  1  0  0  0  0
 28 57  1  0  0  0  0
M  END
> <s_m_source_file>
AV-unprocessed.smi

> <i_m_source_file_index>
276

> <i_lp_mmshare_version>
43012

> <i_f3d_flags>
0

> <s_epik_input>
W0NIMl0xW0NIMl1bQ0gyXUMxMltDQEhdKE9bQ0gzXSlbQ0gyXVtDQEhdMk4oW0NIM10pYyhuW2NIXW4zKWMoYzM0KW5bY0hdbjRbQ0gyXVtDQEhdKFtPSF0pW0NAQEhdNVtDSDJdW0NIMl1bQ0gyXU81

> <s_epik_cmdline>
J2VwaWtfcHl0aG9uJywgJy1waCcsICc3LjAnLCAnLXRuJywgJzgnLCAnLW1hJywgJzIwMCcsICctbWV0YWxfYmluZGluZycsICctaW1hZScsICc8aW5maWxlLm1hZT4nLCAnLW9tYWUnLCAnPG91dGZpbGUubWFlPic=

> <r_lp_tautomer_probability>
1

> <r_epik_Ionization_Penalty>
0.00204117

> <r_epik_Ionization_Penalty_Charging>
0

> <r_epik_Ionization_Penalty_Neutral>
0.00204117

> <r_epik_State_Penalty>
0.00127401

> <r_epik_Charging_Adjusted_Penalty>
0.00127401

> <i_epik_Tot_Q>
0

> <i_epik_Tot_abs_Q>
0

> <r_epik_Metal_State_Penalty>
-0

> <b_epik_Metal_Only>
0

> <s_lp_Force_Field>
OPLS_2005

> <r_lp_Energy>
57.0409

> <b_lp_Chiralities_Consistent>
1

> <s_lp_Variant>
AV-unprocessed.smi:276-8

> <Gold.Version>
5.8.1

> <Gold.Id.Protein>
6NUR|6NUR_protein|mol2

> <Gold.PLP.Fitness>
44.5252

> <Gold.PLP.PLP>
-41.3297

> <Gold.PLP.part.hbond>
-2.0000

> <Gold.PLP.part.metal>
0.0000

> <Gold.PLP.part.buried>
-1.9048

> <Gold.PLP.part.nonpolar>
-35.6395

> <Gold.PLP.part.repulsive>
0.1853

> <Gold.PLP.ligand.clash>
0.0000

> <Gold.PLP.ligand.torsion>
1.0210

> <Gold.PLP.Chemscore.Hbond>
1.4867

> <Gold.PLP.Chemscore.CHOScore>
0.0000

> <Gold.PLP.Chemscore.Metal>
0.0000

> <Gold.Chemscore.Hbonds>
donor molecule, donor type, donor heavy atom, donor atom, acceptor molecule, acceptor atom, score
      P1  H  6896  6907       L1     9  1.00
      P1  H  7997  8008       L1    19  0.31

> <Gold.PLP.Chemscore.Internal.Correction>
0.7773

> <Gold.Rescore>
     Score         DG    S(hbond)    S(metal)    S(lipo)     H(rot)  DE(clash)    DE(int)     intcor
     11.79     -15.51       0.93        0.00     118.68       2.72       1.36       2.36       ----

> <Gold.Chemscore.Fitness>
11.7881

> <Gold.Chemscore.DG>
-15.5123

> <Gold.Chemscore.ZeroCoef>
-5.4800

> <Gold.Chemscore.Hbond>
0.9288

> <Gold.Chemscore.Metal>
0.0000

> <Gold.Chemscore.Lipo>
118.6838

> <Gold.Chemscore.Internal_Hbond>
0.0000

> <Gold.Chemscore.DEClash>
1.3644

> <Gold.Chemscore.DEInternal>
2.3599

> <Gold.Chemscore.Rot>
2.7172

> <Gold.Chemscore.Internal.Correction>
   9.000000E+99

> <Gold.Chemscore.Hbonds>
donor molecule, donor type, donor heavy atom, donor atom, acceptor molecule, acceptor atom, score
      P1  H  6896  6907       L1     9  0.78
      P1  H  7997  8008       L1    19  0.02

> <Gold.Chemscore.Hbond.Weighted>
-3.1023

> <Gold.Chemscore.Metal.Weighted>
-0.0000

> <Gold.Chemscore.Lipo.Weighted>
-13.8860

> <Gold.Chemscore.Internal_Hbond.Weighted>
0.0000

> <Gold.Chemscore.DEClash.Weighted>
1.3644

> <Gold.Chemscore.DEInternal.Weighted>
2.3599

> <Gold.Chemscore.Rot.Weighted>
6.9560

> <Gold.Chemscore.Internal.Correction.Weighted>
   9.000000E+99

> <Gold.Protein.RotatedTorsions>
[ 6907 6896 6895 6894 ] final  -15.30 input  -60.11 | X-H torsion
[ 7974 7965 7964 7962 ] final  168.55 input  175.53 | X-H torsion
[ 8008 7997 7996 7995 ] final  -55.61 input   59.86 | X-H torsion
[ 10167 10162 10161 10158 ] final  -17.41 input  -65.29 | X-H torsion
[ 10718 10713 10712 10709 ] final  154.70 input   66.30 | X-H torsion
[ 10763 10752 10751 10750 ] final   96.13 input  -60.55 | X-H torsion
[ 11005 11000 10999 10996 ] final  -22.08 input  -57.11 | X-H torsion

> <Gold.Protein.ActiveResidues>
 VAL166  LYS551  ARG553  GLY616  TRP617  ASP618  TYR619  PRO620  LYS621  CYS622 
 ASP623  PHE694  ASN695  SER759  ASP760  ASP761  ALA762  ILE779  LEU786  VAL792 
 PHE793  MET794  SER795  GLU796  ALA797  LYS798  CYS799  TRP800  GLU811  SER814 

> <Gold.Protein.RotatedAtoms>
  151.3261  135.0830  159.9322 H   0  0  0  0  0  0  0  0  0  0  0  0  # atno 6907 bound_to 6896
  152.5245  133.9590  159.7718 H   0  0  0  0  0  0  0  0  0  0  0  0  # atno 6908 bound_to 6896
  150.9920  133.6088  159.2737 H   0  0  0  0  0  0  0  0  0  0  0  0  # atno 6909 bound_to 6896
  144.7385  139.8924  143.6404 H   0  0  0  0  0  0  0  0  0  0  0  0  # atno 7974 bound_to 7965
  154.4201  140.1149  156.5504 H   0  0  0  0  0  0  0  0  0  0  0  0  # atno 8008 bound_to 7997
  155.6415  140.3496  155.4697 H   0  0  0  0  0  0  0  0  0  0  0  0  # atno 8009 bound_to 7997
  155.9866  140.1171  157.0666 H   0  0  0  0  0  0  0  0  0  0  0  0  # atno 8010 bound_to 7997
  140.7247  143.5018  150.9860 H   0  0  0  0  0  0  0  0  0  0  0  0  # atno 10167 bound_to 10162
  157.2281  131.0733  151.1870 H   0  0  0  0  0  0  0  0  0  0  0  0  # atno 10718 bound_to 10713
  153.2614  135.4229  155.0897 H   0  0  0  0  0  0  0  0  0  0  0  0  # atno 10763 bound_to 10752
  154.8421  135.3450  154.6373 H   0  0  0  0  0  0  0  0  0  0  0  0  # atno 10764 bound_to 10752
  153.6793  135.7039  153.5180 H   0  0  0  0  0  0  0  0  0  0  0  0  # atno 10765 bound_to 10752
  140.8623  133.7779  156.0088 H   0  0  0  0  0  0  0  0  0  0  0  0  # atno 11005 bound_to 11000
  146.1132  139.4139  143.0275 LP  0  0  0  0  0  0  0  0  0  0  0  0  # atno 17320 bound_to 7965
  145.7413  141.0007  143.1299 LP  0  0  0  0  0  0  0  0  0  0  0  0  # atno 17321 bound_to 7965
  139.8728  143.7171  152.3165 LP  0  0  0  0  0  0  0  0  0  0  0  0  # atno 17342 bound_to 10162
  139.7426  144.7555  151.0629 LP  0  0  0  0  0  0  0  0  0  0  0  0  # atno 17343 bound_to 10162
  157.3507  130.7080  149.6439 LP  0  0  0  0  0  0  0  0  0  0  0  0  # atno 17370 bound_to 10713
  155.9677  130.4253  150.4649 LP  0  0  0  0  0  0  0  0  0  0  0  0  # atno 17371 bound_to 10713
  140.8669  134.2773  157.5209 LP  0  0  0  0  0  0  0  0  0  0  0  0  # atno 17394 bound_to 11000
  139.8707  134.9547  156.4184 LP  0  0  0  0  0  0  0  0  0  0  0  0  # atno 17395 bound_to 11000

$$$$
