AV-unprocessed.smi:72|AV-procd|sdf|702|dock2
  -GOLD-   2262017 23D 1   1.00000     0.00000
 Structure written by MMmdl.
 30 31  0  0  0  0  0  0  0  0  2 V2000
  144.1533  139.6836  155.0520 N   0  0  0  0  0  0  0  0  0  0  0  0
  145.5320  139.6763  155.0064 C   0  0  0  0  0  0  0  0  0  0  0  0
  146.1398  140.1200  153.8462 N   0  3  0  0  0  0  0  0  0  0  0  0
  147.4633  140.1983  153.6545 C   0  0  0  0  0  0  0  0  0  0  0  0
  148.2771  139.8787  154.6397 N   0  0  0  0  0  0  0  0  0  0  0  0
  149.7701  139.9339  154.4247 C   0  0  1  0  0  0  0  0  0  0  0  0
  150.3139  140.5771  155.5323 O   0  0  0  0  0  0  0  0  0  0  0  0
  151.5345  139.9426  155.8888 C   0  0  1  0  0  0  0  0  0  0  0  0
  151.8498  140.2062  157.3692 C   0  0  0  0  0  0  0  0  0  0  0  0
  153.0125  139.5017  157.7485 O   0  0  0  0  0  0  0  0  0  0  0  0
  151.2648  138.4674  155.5723 C   0  0  2  0  0  0  0  0  0  0  0  0
  152.4791  137.7856  155.3301 O   0  0  0  0  0  0  0  0  0  0  0  0
  150.4232  138.5404  154.3039 C   0  0  1  0  0  0  0  0  0  0  0  0
  149.5075  137.4630  154.2186 O   0  0  0  0  0  0  0  0  0  0  0  0
  147.7473  139.3195  155.8323 C   0  0  0  0  0  0  0  0  0  0  0  0
  148.4896  138.9090  156.7230 O   0  0  0  0  0  0  0  0  0  0  0  0
  146.3493  139.2799  155.9424 N   0  0  0  0  0  0  0  0  0  0  0  0
  149.9577  140.5229  153.5273 H   0  0  0  0  0  0  0  0  0  0  0  0
  152.3297  140.3189  155.2413 H   0  0  0  0  0  0  0  0  0  0  0  0
  150.7138  137.9950  156.3871 H   0  0  0  0  0  0  0  0  0  0  0  0
  151.0589  138.5488  153.4167 H   0  0  0  0  0  0  0  0  0  0  0  0
  143.6249  139.3673  155.8530 H   0  0  0  0  0  0  0  0  0  0  0  0
  143.5645  140.0103  154.2992 H   0  0  0  0  0  0  0  0  0  0  0  0
  147.8457  140.5032  152.6887 H   0  0  0  0  0  0  0  0  0  0  0  0
  151.9665  141.2718  157.5685 H   0  0  0  0  0  0  0  0  0  0  0  0
  151.0335  139.8471  157.9968 H   0  0  0  0  0  0  0  0  0  0  0  0
  152.7600  138.7760  158.2987 H   0  0  0  0  0  0  0  0  0  0  0  0
  152.3087  136.8561  155.3230 H   0  0  0  0  0  0  0  0  0  0  0  0
  149.5893  137.0641  153.3653 H   0  0  0  0  0  0  0  0  0  0  0  0
  145.5375  140.3997  153.0852 H   0  0  0  0  0  0  0  0  0  0  0  0
  1  2  1  0  0  0  0
  1 22  1  0  0  0  0
  1 23  1  0  0  0  0
  2 17  2  0  0  0  0
  2  3  1  0  0  0  0
  3  4  2  0  0  0  0
  3 30  1  0  0  0  0
  4  5  1  0  0  0  0
  4 24  1  0  0  0  0
  5  6  1  0  0  0  0
  5 15  1  0  0  0  0
  6 18  1  0  0  0  0
  6 13  1  0  0  0  0
  6  7  1  0  0  0  0
  7  8  1  0  0  0  0
  8 19  1  0  0  0  0
  8  9  1  0  0  0  0
  8 11  1  0  0  0  0
  9 10  1  0  0  0  0
  9 25  1  0  0  0  0
  9 26  1  0  0  0  0
 10 27  1  0  0  0  0
 11 20  1  0  0  0  0
 11 12  1  0  0  0  0
 11 13  1  0  0  0  0
 12 28  1  0  0  0  0
 13 21  1  0  0  0  0
 13 14  1  0  0  0  0
 14 29  1  0  0  0  0
 15 16  2  0  0  0  0
 15 17  1  0  0  0  0
M  CHG  1   3   1
M  END
> <s_m_source_file>
AV-unprocessed.smi

> <i_m_source_file_index>
72

> <i_lp_mmshare_version>
43012

> <i_f3d_flags>
0

> <s_epik_input>
W05IMl1jMW5bY0hdbihjKD1PKW4xKVtDQEBIXTJPW0NASF0oW0NIMl1bT0hdKVtDQEBIXShbT0hdKVtDQEhdMltPSF0=

> <s_epik_cmdline>
J2VwaWtfcHl0aG9uJywgJy1waCcsICc3LjAnLCAnLXRuJywgJzgnLCAnLW1hJywgJzIwMCcsICctbWV0YWxfYmluZGluZycsICctaW1hZScsICc8aW5maWxlLm1hZT4nLCAnLW9tYWUnLCAnPG91dGZpbGUubWFlPic=

> <r_lp_tautomer_probability>
4.77166e-05

> <r_epik_Ionization_Penalty>
0.104979

> <r_epik_Ionization_Penalty_Charging>
0.0999619

> <r_epik_Ionization_Penalty_Neutral>
0.00501745

> <r_epik_State_Penalty>
2.51541

> <r_epik_Charging_Adjusted_Penalty>
2.61537

> <i_epik_Tot_Q>
1

> <i_epik_Tot_abs_Q>
1

> <r_epik_Metal_State_Penalty>
3.53763

> <b_epik_Metal_Only>
0

> <s_epik_Chemistry_Notes>
This compound contains an acetal/aminal-like group ( X-CH(R)-Y where X, Y are N, S, or O) that may be acid/base labile, releasing an aldehyde.

> <s_lp_Force_Field>
OPLS_2005

> <r_lp_Energy>
34.1778

> <b_lp_Chiralities_Consistent>
1

> <s_lp_Variant>
AV-unprocessed.smi:72-40

> <Gold.Version>
5.8.1

> <Gold.Id.Protein>
6NUR|6NUR_protein|mol2

> <Gold.PLP.Fitness>
38.7219

> <Gold.PLP.PLP>
-21.6848

> <Gold.PLP.part.hbond>
-5.2031

> <Gold.PLP.part.metal>
0.0000

> <Gold.PLP.part.buried>
-2.8637

> <Gold.PLP.part.nonpolar>
-14.4813

> <Gold.PLP.part.repulsive>
0.0758

> <Gold.PLP.ligand.clash>
0.0000

> <Gold.PLP.ligand.torsion>
0.2052

> <Gold.PLP.Chemscore.Hbond>
4.7680

> <Gold.PLP.Chemscore.CHOScore>
1.0000

> <Gold.PLP.Chemscore.Metal>
0.0000

> <Gold.Chemscore.Hbonds>
donor molecule, donor type, donor heavy atom, donor atom, acceptor molecule, acceptor atom, score
      L1  H     1    23       P1 10175  0.83
      L1  H     3    30       P1 10175  1.79
      L1  H    14    29       P1  7948  1.00
      P1  H  7997  8009       L1    10  1.00
      L1  C     4    24       P1  7957  1.00

> <Gold.PLP.Chemscore.Internal.Correction>
0.1435

> <Gold.Rescore>
     Score         DG    S(hbond)    S(metal)    S(lipo)     H(rot)  DE(clash)    DE(int)     intcor
      8.05     -10.03       3.57        0.00      26.29       4.08       0.00       1.99       ----

> <Gold.Chemscore.Fitness>
8.0458

> <Gold.Chemscore.DG>
-10.0330

> <Gold.Chemscore.ZeroCoef>
-5.4800

> <Gold.Chemscore.Hbond>
3.5681

> <Gold.Chemscore.Metal>
0.0000

> <Gold.Chemscore.Lipo>
26.2914

> <Gold.Chemscore.Internal_Hbond>
0.0000

> <Gold.Chemscore.DEClash>
0.0000

> <Gold.Chemscore.DEInternal>
1.9872

> <Gold.Chemscore.Rot>
4.0783

> <Gold.Chemscore.Internal.Correction>
   9.000000E+99

> <Gold.Chemscore.Hbonds>
donor molecule, donor type, donor heavy atom, donor atom, acceptor molecule, acceptor atom, score
      L1  H     1    23       P1 10175  0.83
      L1  H     3    30       P1 10175  0.82
      L1  H    14    29       P1  7948  0.77
      P1  H  7997  8009       L1    10  0.88

> <Gold.Chemscore.Hbond.Weighted>
-11.9173

> <Gold.Chemscore.Metal.Weighted>
-0.0000

> <Gold.Chemscore.Lipo.Weighted>
-3.0761

> <Gold.Chemscore.Internal_Hbond.Weighted>
0.0000

> <Gold.Chemscore.DEClash.Weighted>
0.0000

> <Gold.Chemscore.DEInternal.Weighted>
1.9872

> <Gold.Chemscore.Rot.Weighted>
10.4404

> <Gold.Chemscore.Internal.Correction.Weighted>
   9.000000E+99

> <Gold.Protein.RotatedTorsions>
[ 6907 6896 6895 6894 ] final   14.37 input  -60.11 | X-H torsion
[ 7974 7965 7964 7962 ] final   36.84 input  175.53 | X-H torsion
[ 8008 7997 7996 7995 ] final  163.21 input   59.86 | X-H torsion
[ 10167 10162 10161 10158 ] final   59.79 input  -65.29 | X-H torsion
[ 10718 10713 10712 10709 ] final   99.84 input   66.30 | X-H torsion
[ 10763 10752 10751 10750 ] final -158.49 input  -60.55 | X-H torsion
[ 11005 11000 10999 10996 ] final  130.11 input  -57.11 | X-H torsion

> <Gold.Protein.ActiveResidues>
 VAL166  LYS551  ARG553  GLY616  TRP617  ASP618  TYR619  PRO620  LYS621  CYS622 
 ASP623  PHE694  ASN695  SER759  ASP760  ASP761  ALA762  ILE779  LEU786  VAL792 
 PHE793  MET794  SER795  GLU796  ALA797  LYS798  CYS799  TRP800  GLU811  SER814 

> <Gold.Protein.RotatedAtoms>
  151.8011  135.0708  160.0400 H   0  0  0  0  0  0  0  0  0  0  0  0  # atno 6907 bound_to 6896
  152.3088  133.5727  159.5675 H   0  0  0  0  0  0  0  0  0  0  0  0  # atno 6908 bound_to 6896
  150.7309  134.0099  159.3708 H   0  0  0  0  0  0  0  0  0  0  0  0  # atno 6909 bound_to 6896
  146.1182  139.5968  142.9307 H   0  0  0  0  0  0  0  0  0  0  0  0  # atno 7974 bound_to 7965
  156.1974  140.1729  156.7970 H   0  0  0  0  0  0  0  0  0  0  0  0  # atno 8008 bound_to 7997
  154.5547  140.0711  156.8756 H   0  0  0  0  0  0  0  0  0  0  0  0  # atno 8009 bound_to 7997
  155.2961  140.3358  155.4252 H   0  0  0  0  0  0  0  0  0  0  0  0  # atno 8010 bound_to 7997
  140.1726  144.4262  150.6654 H   0  0  0  0  0  0  0  0  0  0  0  0  # atno 10167 bound_to 10162
  157.6867  131.0681  150.5009 H   0  0  0  0  0  0  0  0  0  0  0  0  # atno 10718 bound_to 10713
  154.7552  135.3103  154.8484 H   0  0  0  0  0  0  0  0  0  0  0  0  # atno 10763 bound_to 10752
  153.9260  135.6790  153.4751 H   0  0  0  0  0  0  0  0  0  0  0  0  # atno 10764 bound_to 10752
  153.1149  135.4849  154.9028 H   0  0  0  0  0  0  0  0  0  0  0  0  # atno 10765 bound_to 10752
  139.9653  134.9592  156.9246 H   0  0  0  0  0  0  0  0  0  0  0  0  # atno 11005 bound_to 11000
  145.5522  141.0412  143.2272 LP  0  0  0  0  0  0  0  0  0  0  0  0  # atno 17320 bound_to 7965
  144.7572  139.7044  143.7249 LP  0  0  0  0  0  0  0  0  0  0  0  0  # atno 17321 bound_to 7965
  140.6572  143.2241  151.5941 LP  0  0  0  0  0  0  0  0  0  0  0  0  # atno 17342 bound_to 10162
  139.5331  144.2858  152.1192 LP  0  0  0  0  0  0  0  0  0  0  0  0  # atno 17343 bound_to 10162
  156.5331  130.4189  149.6191 LP  0  0  0  0  0  0  0  0  0  0  0  0  # atno 17370 bound_to 10713
  156.3052  130.7198  151.2079 LP  0  0  0  0  0  0  0  0  0  0  0  0  # atno 17371 bound_to 10713
  140.5409  134.0721  155.7341 LP  0  0  0  0  0  0  0  0  0  0  0  0  # atno 17394 bound_to 11000
  141.1333  133.9265  157.2489 LP  0  0  0  0  0  0  0  0  0  0  0  0  # atno 17395 bound_to 11000

$$$$
