AV-unprocessed.smi:2222|AV-procd|sdf|8987|dock5
  -GOLD-   2272012203D 1   1.00000     0.00000
 Structure written by MMmdl.
 34 35  0  0  0  0  0  0  0  0  1 V2000
  151.6773  145.4843  159.9915 C   0  0  0  0  0  0  0  0  0  0  0  0
  151.4793  144.3867  159.1126 O   0  0  0  0  0  0  0  0  0  0  0  0
  152.2018  143.2309  159.3370 C   0  0  0  0  0  0  0  0  0  0  0  0
  153.0930  143.0618  160.4274 C   0  0  0  0  0  0  0  0  0  0  0  0
  153.7835  141.8463  160.5734 C   0  0  0  0  0  0  0  0  0  0  0  0
  153.5599  140.8367  159.6206 C   0  0  0  0  0  0  0  0  0  0  0  0
  154.2663  139.5011  159.7171 C   0  0  0  0  0  0  0  0  0  0  0  0
  152.7158  140.9856  158.5801 N   0  0  0  0  0  0  0  0  0  0  0  0
  152.0439  142.1536  158.4270 C   0  0  0  0  0  0  0  0  0  0  0  0
  151.1364  142.3875  157.3577 N   0  0  0  0  0  0  0  0  0  0  0  0
  150.7573  141.5479  156.3739 C   0  0  0  0  0  0  0  0  0  0  0  0
  151.1950  140.4094  156.2169 O   0  0  0  0  0  0  0  0  0  0  0  0
  149.8616  142.0700  155.5168 N   0  0  0  0  0  0  0  0  0  0  0  0
  149.2650  141.4421  154.3746 C   0  0  2  0  0  0  0  0  0  0  0  0
  147.7783  141.6456  154.1777 C   0  0  0  0  0  0  0  0  0  0  0  0
  148.2974  140.2919  154.5845 C   0  0  2  0  0  0  0  0  0  0  0  0
  147.9993  139.7305  155.9612 C   0  0  0  0  0  0  0  0  0  0  0  0
  151.0343  146.3093  159.6854 H   0  0  0  0  0  0  0  0  0  0  0  0
  152.7077  145.8408  159.9598 H   0  0  0  0  0  0  0  0  0  0  0  0
  151.4145  145.2255  161.0182 H   0  0  0  0  0  0  0  0  0  0  0  0
  153.2613  143.8398  161.1562 H   0  0  0  0  0  0  0  0  0  0  0  0
  154.4657  141.6969  161.3975 H   0  0  0  0  0  0  0  0  0  0  0  0
  155.0237  139.5099  160.5012 H   0  0  0  0  0  0  0  0  0  0  0  0
  154.7573  139.2606  158.7738 H   0  0  0  0  0  0  0  0  0  0  0  0
  153.5498  138.7109  159.9431 H   0  0  0  0  0  0  0  0  0  0  0  0
  150.7137  143.3042  157.3470 H   0  0  0  0  0  0  0  0  0  0  0  0
  149.6237  143.0416  155.6547 H   0  0  0  0  0  0  0  0  0  0  0  0
  149.8446  141.4248  153.4528 H   0  0  0  0  0  0  0  0  0  0  0  0
  147.2427  142.2295  154.9243 H   0  0  0  0  0  0  0  0  0  0  0  0
  147.4173  141.7566  153.1572 H   0  0  0  0  0  0  0  0  0  0  0  0
  148.3062  139.5316  153.8056 H   0  0  0  0  0  0  0  0  0  0  0  0
  147.9191  140.5259  156.7026 H   0  0  0  0  0  0  0  0  0  0  0  0
  148.7932  139.0486  156.2664 H   0  0  0  0  0  0  0  0  0  0  0  0
  147.0577  139.1818  155.9436 H   0  0  0  0  0  0  0  0  0  0  0  0
  1  2  1  0  0  0  0
  1 18  1  0  0  0  0
  1 19  1  0  0  0  0
  1 20  1  0  0  0  0
  2  3  1  0  0  0  0
  3  9  1  0  0  0  0
  3  4  2  0  0  0  0
  4  5  1  0  0  0  0
  4 21  1  0  0  0  0
  5  6  2  0  0  0  0
  5 22  1  0  0  0  0
  6  7  1  0  0  0  0
  6  8  1  0  0  0  0
  7 23  1  0  0  0  0
  7 24  1  0  0  0  0
  7 25  1  0  0  0  0
  8  9  2  0  0  0  0
  9 10  1  0  0  0  0
 10 11  1  0  0  0  0
 10 26  1  0  0  0  0
 11 12  2  0  0  0  0
 11 13  1  0  0  0  0
 13 14  1  0  0  0  0
 13 27  1  0  0  0  0
 14 16  1  0  0  0  0
 14 15  1  0  0  0  0
 14 28  1  0  0  0  0
 15 16  1  0  0  0  0
 15 29  1  0  0  0  0
 15 30  1  0  0  0  0
 16 17  1  0  0  0  0
 16 31  1  0  0  0  0
 17 32  1  0  0  0  0
 17 33  1  0  0  0  0
 17 34  1  0  0  0  0
M  END
> <s_m_source_file>
AV-unprocessed.smi

> <i_m_source_file_index>
2222

> <i_lp_mmshare_version>
43012

> <i_f3d_flags>
0

> <s_epik_input>
W0NIM11PYzFbY0hdW2NIXWMoW0NIM10pbmMxW05IXUMoPU8pW05IXVtDQEBIXTJbQ0gyXVtDQEhdMltDSDNd

> <s_epik_cmdline>
J2VwaWtfcHl0aG9uJywgJy1waCcsICc3LjAnLCAnLXRuJywgJzgnLCAnLW1hJywgJzIwMCcsICctbWV0YWxfYmluZGluZycsICctaW1hZScsICc8aW5maWxlLm1hZT4nLCAnLW9tYWUnLCAnPG91dGZpbGUubWFlPic=

> <r_lp_tautomer_probability>
1

> <r_epik_Ionization_Penalty>
6.59103e-05

> <r_epik_Ionization_Penalty_Charging>
0

> <r_epik_Ionization_Penalty_Neutral>
6.59103e-05

> <r_epik_State_Penalty>
-0

> <r_epik_Charging_Adjusted_Penalty>
0

> <i_epik_Tot_Q>
0

> <i_epik_Tot_abs_Q>
0

> <r_epik_Metal_State_Penalty>
-0

> <b_epik_Metal_Only>
0

> <s_lp_Force_Field>
OPLS_2005

> <r_lp_Energy>
34.1661

> <b_lp_Chiralities_Consistent>
1

> <s_lp_Variant>
AV-unprocessed.smi:2222-3

> <Gold.Version>
5.8.1

> <Gold.Id.Protein>
6NUR|6NUR_protein|mol2

> <Gold.PLP.Fitness>
38.7710

> <Gold.PLP.PLP>
-36.0263

> <Gold.PLP.part.hbond>
-1.0000

> <Gold.PLP.part.metal>
0.0000

> <Gold.PLP.part.buried>
-4.8236

> <Gold.PLP.part.nonpolar>
-29.8869

> <Gold.PLP.part.repulsive>
0.2880

> <Gold.PLP.ligand.clash>
0.0000

> <Gold.PLP.ligand.torsion>
0.1466

> <Gold.PLP.Chemscore.Hbond>
1.0000

> <Gold.PLP.Chemscore.CHOScore>
0.0000

> <Gold.PLP.Chemscore.Metal>
0.0000

> <Gold.Chemscore.Hbonds>
donor molecule, donor type, donor heavy atom, donor atom, acceptor molecule, acceptor atom, score
      L1  H    13    27       P1  8028  1.00

> <Gold.PLP.Chemscore.Internal.Correction>
0.0379

> <Gold.Rescore>
     Score         DG    S(hbond)    S(metal)    S(lipo)     H(rot)  DE(clash)    DE(int)     intcor
     14.34     -15.82       1.00        0.00      86.49       1.22       0.10       1.38       ----

> <Gold.Chemscore.Fitness>
14.3430

> <Gold.Chemscore.DG>
-15.8240

> <Gold.Chemscore.ZeroCoef>
-5.4800

> <Gold.Chemscore.Hbond>
1.0000

> <Gold.Chemscore.Metal>
0.0000

> <Gold.Chemscore.Lipo>
86.4868

> <Gold.Chemscore.Internal_Hbond>
0.0000

> <Gold.Chemscore.DEClash>
0.1006

> <Gold.Chemscore.DEInternal>
1.3803

> <Gold.Chemscore.Rot>
1.2168

> <Gold.Chemscore.Internal.Correction>
   9.000000E+99

> <Gold.Chemscore.Hbonds>
donor molecule, donor type, donor heavy atom, donor atom, acceptor molecule, acceptor atom, score
      L1  H    13    27       P1  8028  1.00

> <Gold.Chemscore.Hbond.Weighted>
-3.3400

> <Gold.Chemscore.Metal.Weighted>
-0.0000

> <Gold.Chemscore.Lipo.Weighted>
-10.1190

> <Gold.Chemscore.Internal_Hbond.Weighted>
0.0000

> <Gold.Chemscore.DEClash.Weighted>
0.1006

> <Gold.Chemscore.DEInternal.Weighted>
1.3803

> <Gold.Chemscore.Rot.Weighted>
3.1150

> <Gold.Chemscore.Internal.Correction.Weighted>
   9.000000E+99

> <Gold.Protein.RotatedTorsions>
[ 6907 6896 6895 6894 ] final  -21.80 input  -60.11 | X-H torsion
[ 7974 7965 7964 7962 ] final  107.11 input  175.53 | X-H torsion
[ 8008 7997 7996 7995 ] final   58.08 input   59.86 | X-H torsion
[ 10167 10162 10161 10158 ] final  175.13 input  -65.29 | X-H torsion
[ 10718 10713 10712 10709 ] final   74.18 input   66.30 | X-H torsion
[ 10763 10752 10751 10750 ] final -132.62 input  -60.55 | X-H torsion
[ 11005 11000 10999 10996 ] final   58.77 input  -57.11 | X-H torsion

> <Gold.Protein.ActiveResidues>
 VAL166  LYS551  ARG553  GLY616  TRP617  ASP618  TYR619  PRO620  LYS621  CYS622 
 ASP623  PHE694  ASN695  SER759  ASP760  ASP761  ALA762  ILE779  LEU786  VAL792 
 PHE793  MET794  SER795  GLU796  ALA797  LYS798  CYS799  TRP800  GLU811  SER814 

> <Gold.Protein.RotatedAtoms>
  151.2280  135.0543  159.8975 H   0  0  0  0  0  0  0  0  0  0  0  0  # atno 6907 bound_to 6896
  152.5408  134.0568  159.8145 H   0  0  0  0  0  0  0  0  0  0  0  0  # atno 6908 bound_to 6896
  151.0744  133.5392  159.2656 H   0  0  0  0  0  0  0  0  0  0  0  0  # atno 6909 bound_to 6896
  145.2979  139.2579  143.3829 H   0  0  0  0  0  0  0  0  0  0  0  0  # atno 7974 bound_to 7965
  155.5443  140.3485  155.4454 H   0  0  0  0  0  0  0  0  0  0  0  0  # atno 8008 bound_to 7997
  156.0629  140.1344  156.9946 H   0  0  0  0  0  0  0  0  0  0  0  0  # atno 8009 bound_to 7997
  154.4488  140.0981  156.6528 H   0  0  0  0  0  0  0  0  0  0  0  0  # atno 8010 bound_to 7997
  139.5166  144.3067  152.0329 H   0  0  0  0  0  0  0  0  0  0  0  0  # atno 10167 bound_to 10162
  157.6581  130.9665  150.1175 H   0  0  0  0  0  0  0  0  0  0  0  0  # atno 10718 bound_to 10713
  154.8741  135.3792  154.4439 H   0  0  0  0  0  0  0  0  0  0  0  0  # atno 10763 bound_to 10752
  153.5121  135.7029  153.5780 H   0  0  0  0  0  0  0  0  0  0  0  0  # atno 10764 bound_to 10752
  153.4065  135.3935  155.1988 H   0  0  0  0  0  0  0  0  0  0  0  0  # atno 10765 bound_to 10752
  140.0353  134.5952  155.9452 H   0  0  0  0  0  0  0  0  0  0  0  0  # atno 11005 bound_to 11000
  146.3162  140.3486  142.8654 LP  0  0  0  0  0  0  0  0  0  0  0  0  # atno 17320 bound_to 7965
  144.9118  140.7766  143.5803 LP  0  0  0  0  0  0  0  0  0  0  0  0  # atno 17321 bound_to 7965
  140.2513  144.4166  150.6221 LP  0  0  0  0  0  0  0  0  0  0  0  0  # atno 17342 bound_to 10162
  140.6222  143.2177  151.6670 LP  0  0  0  0  0  0  0  0  0  0  0  0  # atno 17343 bound_to 10162
  156.2055  130.3663  149.8735 LP  0  0  0  0  0  0  0  0  0  0  0  0  # atno 17370 bound_to 10713
  156.6627  130.8788  151.3550 LP  0  0  0  0  0  0  0  0  0  0  0  0  # atno 17371 bound_to 10713
  141.1854  133.6555  156.5196 LP  0  0  0  0  0  0  0  0  0  0  0  0  # atno 17394 bound_to 11000
  140.4158  134.7232  157.4862 LP  0  0  0  0  0  0  0  0  0  0  0  0  # atno 17395 bound_to 11000

$$$$
