AV-unprocessed.smi:21|AV-procd|sdf|145|dock9
  -GOLD-   2262015353D 1   1.00000     0.00000
 Structure written by MMmdl.
 62 65  0  0  0  0  0  0  0  0  2 V2000
  145.3149  132.4051  152.4009 C   0  0  0  0  0  0  0  0  0  0  0  0
  145.9487  133.1056  153.4593 O   0  0  0  0  0  0  0  0  0  0  0  0
  147.3557  133.2182  153.3045 C   0  0  1  0  0  0  0  0  0  0  0  0
  148.0200  134.0190  154.4190 C   0  0  0  0  0  0  0  0  0  0  0  0
  149.4739  133.5265  154.4037 C   0  0  1  0  0  0  0  0  0  0  0  0
  150.2154  133.7234  155.7493 C   0  0  0  0  0  0  0  0  0  0  0  0
  149.8105  134.9521  156.4381 N   0  0  0  0  0  0  0  0  0  0  0  0
  149.0643  134.8242  157.6839 C   0  0  0  0  0  0  0  0  0  0  0  0
  150.3798  136.1462  156.1051 C   0  0  0  0  0  0  0  0  0  0  0  0
  150.5883  136.4113  154.7877 N   0  0  0  0  0  0  0  0  0  0  0  0
  151.1468  137.5594  154.3978 C   0  0  0  0  0  0  0  0  0  0  0  0
  151.5693  138.5757  155.1484 N   0  0  0  0  0  0  0  0  0  0  0  0
  151.3655  138.3278  156.4725 C   0  0  0  0  0  0  0  0  0  0  0  0
  150.7875  137.1520  157.0358 C   0  0  0  0  0  0  0  0  0  0  0  0
  150.7757  137.2669  158.4229 N   0  0  0  0  0  0  0  0  0  0  0  0
  151.2994  138.4372  158.6617 C   0  0  0  0  0  0  0  0  0  0  0  0
  151.6640  139.1510  157.5444 N   0  0  0  0  0  0  0  0  0  0  0  0
  152.2732  140.4692  157.5177 C   0  0  0  0  0  0  0  0  0  0  0  0
  151.3296  141.6286  157.9349 C   0  0  2  0  0  0  0  0  0  0  0  0
  150.3350  141.9154  156.7865 C   0  0  0  0  0  0  0  0  0  0  0  0
  149.1098  142.4272  157.2711 O   0  0  0  0  0  0  0  0  0  0  0  0
  152.0627  142.9123  158.4240 C   0  0  1  0  0  0  0  0  0  0  0  0
  151.1452  144.0826  158.7437 C   0  0  0  0  0  0  0  0  0  0  0  0
  152.0396  144.9710  159.5957 C   0  0  0  0  0  0  0  0  0  0  0  0
  152.7945  144.0638  160.3840 O   0  0  0  0  0  0  0  0  0  0  0  0
  152.8216  142.7855  159.7551 C   0  0  0  0  0  0  0  0  0  0  0  0
  149.4171  132.1262  153.8878 N   0  3  1  0  0  0  0  0  0  0  0  0
  149.9828  131.0529  154.7388 C   0  0  0  0  0  0  0  0  0  0  0  0
  148.0250  131.8547  153.4599 C   0  0  0  0  0  0  0  0  0  0  0  0
  147.6112  133.6382  152.3298 H   0  0  0  0  0  0  0  0  0  0  0  0
  150.0066  134.0880  153.6347 H   0  0  0  0  0  0  0  0  0  0  0  0
  144.2468  132.3288  152.6041 H   0  0  0  0  0  0  0  0  0  0  0  0
  145.7104  131.3930  152.3046 H   0  0  0  0  0  0  0  0  0  0  0  0
  145.4358  132.9209  151.4478 H   0  0  0  0  0  0  0  0  0  0  0  0
  147.9406  135.0969  154.2739 H   0  0  0  0  0  0  0  0  0  0  0  0
  147.5495  133.7724  155.3720 H   0  0  0  0  0  0  0  0  0  0  0  0
  150.0965  132.8476  156.3866 H   0  0  0  0  0  0  0  0  0  0  0  0
  151.2869  133.8043  155.5659 H   0  0  0  0  0  0  0  0  0  0  0  0
  149.7402  134.8156  158.5393 H   0  0  0  0  0  0  0  0  0  0  0  0
  148.4932  133.8958  157.6997 H   0  0  0  0  0  0  0  0  0  0  0  0
  148.3557  135.6449  157.7999 H   0  0  0  0  0  0  0  0  0  0  0  0
  151.2725  137.6811  153.3319 H   0  0  0  0  0  0  0  0  0  0  0  0
  151.4241  138.8174  159.6653 H   0  0  0  0  0  0  0  0  0  0  0  0
  153.1551  140.4538  158.1593 H   0  0  0  0  0  0  0  0  0  0  0  0
  152.6371  140.6332  156.5029 H   0  0  0  0  0  0  0  0  0  0  0  0
  150.7200  141.2723  158.7657 H   0  0  0  0  0  0  0  0  0  0  0  0
  150.7600  142.6358  156.0870 H   0  0  0  0  0  0  0  0  0  0  0  0
  150.1342  141.0154  156.2055 H   0  0  0  0  0  0  0  0  0  0  0  0
  148.8946  143.2062  156.7815 H   0  0  0  0  0  0  0  0  0  0  0  0
  152.7660  143.2390  157.6563 H   0  0  0  0  0  0  0  0  0  0  0  0
  150.7780  144.5971  157.8555 H   0  0  0  0  0  0  0  0  0  0  0  0
  150.2861  143.7489  159.3279 H   0  0  0  0  0  0  0  0  0  0  0  0
  152.7208  145.5443  158.9656 H   0  0  0  0  0  0  0  0  0  0  0  0
  151.4758  145.6689  160.2149 H   0  0  0  0  0  0  0  0  0  0  0  0
  152.3343  142.0737  160.4223 H   0  0  0  0  0  0  0  0  0  0  0  0
  153.8525  142.4640  159.6116 H   0  0  0  0  0  0  0  0  0  0  0  0
  149.4656  130.9876  155.6967 H   0  0  0  0  0  0  0  0  0  0  0  0
  151.0456  131.2119  154.9212 H   0  0  0  0  0  0  0  0  0  0  0  0
  149.8824  130.0893  154.2382 H   0  0  0  0  0  0  0  0  0  0  0  0
  147.5092  131.2877  154.2373 H   0  0  0  0  0  0  0  0  0  0  0  0
  147.9930  131.2650  152.5435 H   0  0  0  0  0  0  0  0  0  0  0  0
  149.9724  132.1329  153.0441 H   0  0  0  0  0  0  0  0  0  0  0  0
  1  2  1  0  0  0  0
  1 32  1  0  0  0  0
  1 33  1  0  0  0  0
  1 34  1  0  0  0  0
  2  3  1  0  0  0  0
  3 30  1  0  0  0  0
  3 29  1  0  0  0  0
  3  4  1  0  0  0  0
  4  5  1  0  0  0  0
  4 35  1  0  0  0  0
  4 36  1  0  0  0  0
  5 31  1  0  0  0  0
  5  6  1  0  0  0  0
  5 27  1  0  0  0  0
  6  7  1  0  0  0  0
  6 37  1  0  0  0  0
  6 38  1  0  0  0  0
  7  8  1  0  0  0  0
  7  9  1  0  0  0  0
  8 39  1  0  0  0  0
  8 40  1  0  0  0  0
  8 41  1  0  0  0  0
  9 14  1  0  0  0  0
  9 10  2  0  0  0  0
 10 11  1  0  0  0  0
 11 12  2  0  0  0  0
 11 42  1  0  0  0  0
 12 13  1  0  0  0  0
 13 17  1  0  0  0  0
 13 14  2  0  0  0  0
 14 15  1  0  0  0  0
 15 16  2  0  0  0  0
 16 17  1  0  0  0  0
 16 43  1  0  0  0  0
 17 18  1  0  0  0  0
 18 19  1  0  0  0  0
 18 44  1  0  0  0  0
 18 45  1  0  0  0  0
 19 20  1  0  0  0  0
 19 22  1  0  0  0  0
 19 46  1  0  0  0  0
 20 21  1  0  0  0  0
 20 47  1  0  0  0  0
 20 48  1  0  0  0  0
 21 49  1  0  0  0  0
 22 26  1  0  0  0  0
 22 23  1  0  0  0  0
 22 50  1  0  0  0  0
 23 24  1  0  0  0  0
 23 51  1  0  0  0  0
 23 52  1  0  0  0  0
 24 25  1  0  0  0  0
 24 53  1  0  0  0  0
 24 54  1  0  0  0  0
 25 26  1  0  0  0  0
 26 55  1  0  0  0  0
 26 56  1  0  0  0  0
 27 28  1  0  0  0  0
 27 29  1  0  0  0  0
 27 62  1  0  0  0  0
 28 57  1  0  0  0  0
 28 58  1  0  0  0  0
 28 59  1  0  0  0  0
 29 60  1  0  0  0  0
 29 61  1  0  0  0  0
M  CHG  1  27   1
M  END
> <s_m_source_file>
AV-unprocessed.smi

> <i_m_source_file_index>
21

> <i_lp_mmshare_version>
43012

> <i_f3d_flags>
0

> <s_epik_input>
W0NIM11PW0NASF0xW0NIMl1bQ0BIXShOKFtDSDNdKVtDSDJdMSlbQ0gyXU4oW0NIM10pYyhuW2NIXW4yKWMoYzIzKW5bY0hdbjNbQ0gyXVtDQEhdKFtDSDJdW09IXSlbQ0BASF00W0NIMl1bQ0gyXU9bQ0gyXTQ=

> <s_epik_cmdline>
J2VwaWtfcHl0aG9uJywgJy1waCcsICc3LjAnLCAnLXRuJywgJzgnLCAnLW1hJywgJzIwMCcsICctbWV0YWxfYmluZGluZycsICctaW1hZScsICc8aW5maWxlLm1hZT4nLCAnLW9tYWUnLCAnPG91dGZpbGUubWFlPic=

> <r_lp_tautomer_probability>
1

> <r_epik_Ionization_Penalty>
0.0157465

> <r_epik_Ionization_Penalty_Charging>
0.015354

> <r_epik_Ionization_Penalty_Neutral>
0.000392529

> <r_epik_State_Penalty>
0.0120612

> <r_epik_Charging_Adjusted_Penalty>
0.0274152

> <i_epik_Tot_Q>
1

> <i_epik_Tot_abs_Q>
1

> <r_epik_Metal_State_Penalty>
0.0121253

> <b_epik_Metal_Only>
0

> <s_lp_Force_Field>
OPLS_2005

> <r_lp_Energy>
60.8003

> <b_lp_Chiralities_Consistent>
1

> <s_lp_Variant>
AV-unprocessed.smi:21-25

> <Gold.Version>
5.8.1

> <Gold.Id.Protein>
6NUR|6NUR_protein|mol2

> <Gold.PLP.Fitness>
49.3380

> <Gold.PLP.PLP>
-46.0081

> <Gold.PLP.part.hbond>
-0.8090

> <Gold.PLP.part.metal>
0.0000

> <Gold.PLP.part.buried>
-4.8090

> <Gold.PLP.part.nonpolar>
-39.6716

> <Gold.PLP.part.repulsive>
0.3720

> <Gold.PLP.ligand.clash>
0.0000

> <Gold.PLP.ligand.torsion>
1.5529

> <Gold.PLP.Chemscore.Hbond>
1.0000

> <Gold.PLP.Chemscore.CHOScore>
0.9776

> <Gold.PLP.Chemscore.Metal>
0.0000

> <Gold.Chemscore.Hbonds>
donor molecule, donor type, donor heavy atom, donor atom, acceptor molecule, acceptor atom, score
      L1  H    21    49       P1  8028  1.00
      L1  C    11    42       P1  7949  1.00

> <Gold.PLP.Chemscore.Internal.Correction>
0.5030

> <Gold.Rescore>
     Score         DG    S(hbond)    S(metal)    S(lipo)     H(rot)  DE(clash)    DE(int)     intcor
     10.37     -13.44       0.98        0.00     107.27       3.08       0.07       3.01       ----

> <Gold.Chemscore.Fitness>
10.3683

> <Gold.Chemscore.DG>
-13.4434

> <Gold.Chemscore.ZeroCoef>
-5.4800

> <Gold.Chemscore.Hbond>
0.9840

> <Gold.Chemscore.Metal>
0.0000

> <Gold.Chemscore.Lipo>
107.2731

> <Gold.Chemscore.Internal_Hbond>
0.0000

> <Gold.Chemscore.DEClash>
0.0659

> <Gold.Chemscore.DEInternal>
3.0092

> <Gold.Chemscore.Rot>
3.0758

> <Gold.Chemscore.Internal.Correction>
   9.000000E+99

> <Gold.Chemscore.Hbonds>
donor molecule, donor type, donor heavy atom, donor atom, acceptor molecule, acceptor atom, score
      L1  H    21    49       P1  8028  0.85

> <Gold.Chemscore.Hbond.Weighted>
-3.2866

> <Gold.Chemscore.Metal.Weighted>
-0.0000

> <Gold.Chemscore.Lipo.Weighted>
-12.5510

> <Gold.Chemscore.Internal_Hbond.Weighted>
0.0000

> <Gold.Chemscore.DEClash.Weighted>
0.0659

> <Gold.Chemscore.DEInternal.Weighted>
3.0092

> <Gold.Chemscore.Rot.Weighted>
7.8741

> <Gold.Chemscore.Internal.Correction.Weighted>
   9.000000E+99

> <Gold.Protein.RotatedTorsions>
[ 6907 6896 6895 6894 ] final  165.10 input  -60.11 | X-H torsion
[ 7974 7965 7964 7962 ] final  125.86 input  175.53 | X-H torsion
[ 8008 7997 7996 7995 ] final  -59.78 input   59.86 | X-H torsion
[ 10167 10162 10161 10158 ] final  157.56 input  -65.29 | X-H torsion
[ 10718 10713 10712 10709 ] final -145.65 input   66.30 | X-H torsion
[ 10763 10752 10751 10750 ] final  -11.91 input  -60.55 | X-H torsion
[ 11005 11000 10999 10996 ] final   35.79 input  -57.11 | X-H torsion

> <Gold.Protein.ActiveResidues>
 VAL166  LYS551  ARG553  GLY616  TRP617  ASP618  TYR619  PRO620  LYS621  CYS622 
 ASP623  PHE694  ASN695  SER759  ASP760  ASP761  ALA762  ILE779  LEU786  VAL792 
 PHE793  MET794  SER795  GLU796  ALA797  LYS798  CYS799  TRP800  GLU811  SER814 

> <Gold.Protein.RotatedAtoms>
  151.8997  133.3535  159.3826 H   0  0  0  0  0  0  0  0  0  0  0  0  # atno 6907 bound_to 6896
  150.7083  134.4841  159.5493 H   0  0  0  0  0  0  0  0  0  0  0  0  # atno 6908 bound_to 6896
  152.2427  134.8213  160.0509 H   0  0  0  0  0  0  0  0  0  0  0  0  # atno 6909 bound_to 6896
  145.0683  139.3750  143.4971 H   0  0  0  0  0  0  0  0  0  0  0  0  # atno 7974 bound_to 7965
  154.4368  140.1054  156.6170 H   0  0  0  0  0  0  0  0  0  0  0  0  # atno 8008 bound_to 7997
  155.5749  140.3490  155.4506 H   0  0  0  0  0  0  0  0  0  0  0  0  # atno 8009 bound_to 7997
  156.0362  140.1271  157.0194 H   0  0  0  0  0  0  0  0  0  0  0  0  # atno 8010 bound_to 7997
  139.4823  144.4906  151.8313 H   0  0  0  0  0  0  0  0  0  0  0  0  # atno 10167 bound_to 10162
  156.3851  130.7857  151.2053 H   0  0  0  0  0  0  0  0  0  0  0  0  # atno 10718 bound_to 10713
  153.4907  135.7017  153.5886 H   0  0  0  0  0  0  0  0  0  0  0  0  # atno 10763 bound_to 10752
  153.4060  135.3860  155.2019 H   0  0  0  0  0  0  0  0  0  0  0  0  # atno 10764 bound_to 10752
  154.8717  135.3893  154.4366 H   0  0  0  0  0  0  0  0  0  0  0  0  # atno 10765 bound_to 10752
  140.2390  134.3437  155.7933 H   0  0  0  0  0  0  0  0  0  0  0  0  # atno 11005 bound_to 11000
  146.3527  140.0415  142.8642 LP  0  0  0  0  0  0  0  0  0  0  0  0  # atno 17320 bound_to 7965
  145.1324  140.9525  143.4536 LP  0  0  0  0  0  0  0  0  0  0  0  0  # atno 17321 bound_to 7965
  140.4390  144.2012  150.5890 LP  0  0  0  0  0  0  0  0  0  0  0  0  # atno 17342 bound_to 10162
  140.4702  143.2416  151.9099 LP  0  0  0  0  0  0  0  0  0  0  0  0  # atno 17343 bound_to 10162
  157.7495  131.0332  150.4263 LP  0  0  0  0  0  0  0  0  0  0  0  0  # atno 17370 bound_to 10713
  156.4514  130.4012  149.6634 LP  0  0  0  0  0  0  0  0  0  0  0  0  # atno 17371 bound_to 10713
  141.2212  133.7288  156.8855 LP  0  0  0  0  0  0  0  0  0  0  0  0  # atno 17394 bound_to 11000
  140.1672  134.9125  157.2789 LP  0  0  0  0  0  0  0  0  0  0  0  0  # atno 17395 bound_to 11000

$$$$
