AV-unprocessed.smi:1106|AV-procd|sdf|4780|dock5
  -GOLD-   22720 3323D 1   1.00000     0.00000
 Structure written by MMmdl.
 48 49  0  0  0  0  0  0  0  0  2 V2000
  153.6581  143.3090  163.7743 C   0  0  0  0  0  0  0  0  0  0  0  0
  152.8583  143.6875  162.5189 C   0  0  0  0  0  0  0  0  0  0  0  0
  152.9828  142.7188  161.4610 N   0  0  0  0  0  0  0  0  0  0  0  0
  153.6847  141.5417  161.6336 C   0  0  0  0  0  0  0  0  0  0  0  0
  153.8188  140.6188  160.6568 C   0  0  0  0  0  0  0  0  0  0  0  0
  154.5425  139.4080  160.8626 C   0  0  0  0  0  0  0  0  0  0  0  0
  155.1230  138.4176  161.0094 N   0  0  0  0  0  0  0  0  0  0  0  0
  153.2219  140.8218  159.3384 C   0  0  0  0  0  0  0  0  0  0  0  0
  153.2884  139.9991  158.4227 O   0  0  0  0  0  0  0  0  0  0  0  0
  152.5314  142.0511  159.1884 N   0  0  0  0  0  0  0  0  0  0  0  0
  151.9053  142.3194  157.9033 C   0  0  0  0  0  0  0  0  0  0  0  0
  150.3648  142.2176  157.9434 C   0  0  1  0  0  0  0  0  0  0  0  0
  149.8272  143.5255  157.9707 O   0  0  0  0  0  0  0  0  0  0  0  0
  149.8126  141.5283  156.6800 C   0  0  0  0  0  0  0  0  0  0  0  0
  148.4783  142.0532  156.2936 N   0  3  2  0  0  0  0  0  0  0  0  0
  147.4382  141.8231  157.3309 C   0  0  0  0  0  0  0  0  0  0  0  0
  146.1138  142.5092  156.9514 C   0  0  0  0  0  0  0  0  0  0  0  0
  145.6053  142.0691  155.5663 C   0  0  2  0  0  0  0  0  0  0  0  0
  145.0224  140.6451  155.5692 C   0  0  0  0  0  0  0  0  0  0  0  0
  146.7273  142.2496  154.5273 C   0  0  0  0  0  0  0  0  0  0  0  0
  148.0388  141.5693  154.9604 C   0  0  0  0  0  0  0  0  0  0  0  0
  152.3774  143.0116  160.2167 C   0  0  0  0  0  0  0  0  0  0  0  0
  151.7396  144.0536  160.0427 O   0  0  0  0  0  0  0  0  0  0  0  0
  153.5098  144.0472  164.5623 H   0  0  0  0  0  0  0  0  0  0  0  0
  154.7276  143.2560  163.5695 H   0  0  0  0  0  0  0  0  0  0  0  0
  153.3430  142.3403  164.1634 H   0  0  0  0  0  0  0  0  0  0  0  0
  151.7930  143.7486  162.7454 H   0  0  0  0  0  0  0  0  0  0  0  0
  153.1472  144.6591  162.1136 H   0  0  0  0  0  0  0  0  0  0  0  0
  154.1451  141.3486  162.5921 H   0  0  0  0  0  0  0  0  0  0  0  0
  152.2551  143.2827  157.5279 H   0  0  0  0  0  0  0  0  0  0  0  0
  152.3292  141.5954  157.2049 H   0  0  0  0  0  0  0  0  0  0  0  0
  150.0487  141.6813  158.8379 H   0  0  0  0  0  0  0  0  0  0  0  0
  149.6588  143.8026  157.0822 H   0  0  0  0  0  0  0  0  0  0  0  0
  150.5258  141.6722  155.8662 H   0  0  0  0  0  0  0  0  0  0  0  0
  149.7408  140.4495  156.8278 H   0  0  0  0  0  0  0  0  0  0  0  0
  147.2851  140.7516  157.4661 H   0  0  0  0  0  0  0  0  0  0  0  0
  147.7725  142.2106  158.2928 H   0  0  0  0  0  0  0  0  0  0  0  0
  145.3580  142.3118  157.7124 H   0  0  0  0  0  0  0  0  0  0  0  0
  146.2646  143.5897  156.9498 H   0  0  0  0  0  0  0  0  0  0  0  0
  144.7878  142.7360  155.2887 H   0  0  0  0  0  0  0  0  0  0  0  0
  145.7686  139.8944  155.8283 H   0  0  0  0  0  0  0  0  0  0  0  0
  144.6222  140.3865  154.5886 H   0  0  0  0  0  0  0  0  0  0  0  0
  144.2057  140.5591  156.2866 H   0  0  0  0  0  0  0  0  0  0  0  0
  146.4094  141.8679  153.5563 H   0  0  0  0  0  0  0  0  0  0  0  0
  146.9131  143.3152  154.3861 H   0  0  0  0  0  0  0  0  0  0  0  0
  148.8098  141.7875  154.2203 H   0  0  0  0  0  0  0  0  0  0  0  0
  147.9226  140.4849  154.9825 H   0  0  0  0  0  0  0  0  0  0  0  0
  148.5901  143.0532  156.2019 H   0  0  0  0  0  0  0  0  0  0  0  0
  1  2  1  0  0  0  0
  1 24  1  0  0  0  0
  1 25  1  0  0  0  0
  1 26  1  0  0  0  0
  2  3  1  0  0  0  0
  2 27  1  0  0  0  0
  2 28  1  0  0  0  0
  3 22  1  0  0  0  0
  3  4  1  0  0  0  0
  4  5  2  0  0  0  0
  4 29  1  0  0  0  0
  5  6  1  0  0  0  0
  5  8  1  0  0  0  0
  6  7  3  0  0  0  0
  8  9  2  0  0  0  0
  8 10  1  0  0  0  0
 10 11  1  0  0  0  0
 10 22  1  0  0  0  0
 11 12  1  0  0  0  0
 11 30  1  0  0  0  0
 11 31  1  0  0  0  0
 12 13  1  0  0  0  0
 12 14  1  0  0  0  0
 12 32  1  0  0  0  0
 13 33  1  0  0  0  0
 14 15  1  0  0  0  0
 14 34  1  0  0  0  0
 14 35  1  0  0  0  0
 15 21  1  0  0  0  0
 15 16  1  0  0  0  0
 15 48  1  0  0  0  0
 16 17  1  0  0  0  0
 16 36  1  0  0  0  0
 16 37  1  0  0  0  0
 17 18  1  0  0  0  0
 17 38  1  0  0  0  0
 17 39  1  0  0  0  0
 18 19  1  0  0  0  0
 18 20  1  0  0  0  0
 18 40  1  0  0  0  0
 19 41  1  0  0  0  0
 19 42  1  0  0  0  0
 19 43  1  0  0  0  0
 20 21  1  0  0  0  0
 20 44  1  0  0  0  0
 20 45  1  0  0  0  0
 21 46  1  0  0  0  0
 21 47  1  0  0  0  0
 22 23  2  0  0  0  0
M  CHG  1  15   1
M  END
> <s_m_source_file>
AV-unprocessed.smi

> <i_m_source_file_index>
1106

> <i_lp_mmshare_version>
43012

> <i_f3d_flags>
0

> <s_epik_input>
W0NIM11bQ0gyXW4xW2NIXWMoQyNOKWMoPU8pbihjMT1PKVtDSDJdW0NASF0oW09IXSlbQ0gyXU4yW0NIMl1bQ0gyXVtDSF0oW0NIM10pW0NIMl1bQ0gyXTI=

> <s_epik_cmdline>
J2VwaWtfcHl0aG9uJywgJy1waCcsICc3LjAnLCAnLXRuJywgJzgnLCAnLW1hJywgJzIwMCcsICctbWV0YWxfYmluZGluZycsICctaW1hZScsICc8aW5maWxlLm1hZT4nLCAnLW9tYWUnLCAnPG91dGZpbGUubWFlPic=

> <r_epik_Ionization_Penalty>
0.00136816

> <r_epik_Ionization_Penalty_Charging>
0.00136813

> <r_epik_Ionization_Penalty_Neutral>
3.19882e-08

> <r_epik_State_Penalty>
0.000910892

> <r_epik_Charging_Adjusted_Penalty>
0.00227902

> <i_epik_Tot_Q>
1

> <i_epik_Tot_abs_Q>
1

> <r_epik_Metal_State_Penalty>
-0

> <b_epik_Metal_Only>
0

> <s_lp_Force_Field>
OPLS_2005

> <r_lp_Energy>
30.5318

> <b_lp_Chiralities_Consistent>
1

> <s_lp_Variant>
AV-unprocessed.smi:1106-4

> <Gold.Version>
5.8.1

> <Gold.Id.Protein>
6NUR|6NUR_protein|mol2

> <Gold.PLP.Fitness>
56.5717

> <Gold.PLP.PLP>
-46.8452

> <Gold.PLP.part.hbond>
-3.7649

> <Gold.PLP.part.metal>
0.0000

> <Gold.PLP.part.buried>
-5.9601

> <Gold.PLP.part.nonpolar>
-36.4000

> <Gold.PLP.part.repulsive>
0.0804

> <Gold.PLP.ligand.clash>
0.0000

> <Gold.PLP.ligand.torsion>
1.1640

> <Gold.PLP.Chemscore.Hbond>
4.0000

> <Gold.PLP.Chemscore.CHOScore>
0.0000

> <Gold.PLP.Chemscore.Metal>
0.0000

> <Gold.Chemscore.Hbonds>
donor molecule, donor type, donor heavy atom, donor atom, acceptor molecule, acceptor atom, score
      L1  H    13    33       P1  8028  1.00
      L1  H    15    48       P1  8028  2.00
      P1  H  7997  8010       L1     9  0.99

> <Gold.PLP.Chemscore.Internal.Correction>
0.0544

> <Gold.Rescore>
     Score         DG    S(hbond)    S(metal)    S(lipo)     H(rot)  DE(clash)    DE(int)     intcor
     16.04     -18.74       2.86        0.00      85.94       2.48       0.25       2.45       ----

> <Gold.Chemscore.Fitness>
16.0403

> <Gold.Chemscore.DG>
-18.7430

> <Gold.Chemscore.ZeroCoef>
-5.4800

> <Gold.Chemscore.Hbond>
2.8642

> <Gold.Chemscore.Metal>
0.0000

> <Gold.Chemscore.Lipo>
85.9398

> <Gold.Chemscore.Internal_Hbond>
0.0000

> <Gold.Chemscore.DEClash>
0.2519

> <Gold.Chemscore.DEInternal>
2.4508

> <Gold.Chemscore.Rot>
2.4838

> <Gold.Chemscore.Internal.Correction>
   9.000000E+99

> <Gold.Chemscore.Hbonds>
donor molecule, donor type, donor heavy atom, donor atom, acceptor molecule, acceptor atom, score
      L1  H    13    33       P1  8028  0.85
      L1  H    15    48       P1  8028  0.96
      P1  H  7997  8010       L1     9  0.94

> <Gold.Chemscore.Hbond.Weighted>
-9.5665

> <Gold.Chemscore.Metal.Weighted>
-0.0000

> <Gold.Chemscore.Lipo.Weighted>
-10.0550

> <Gold.Chemscore.Internal_Hbond.Weighted>
0.0000

> <Gold.Chemscore.DEClash.Weighted>
0.2519

> <Gold.Chemscore.DEInternal.Weighted>
2.4508

> <Gold.Chemscore.Rot.Weighted>
6.3585

> <Gold.Chemscore.Internal.Correction.Weighted>
   9.000000E+99

> <Gold.Protein.RotatedTorsions>
[ 6907 6896 6895 6894 ] final  -52.13 input  -60.11 | X-H torsion
[ 7974 7965 7964 7962 ] final   78.78 input  175.53 | X-H torsion
[ 8008 7997 7996 7995 ] final   41.12 input   59.86 | X-H torsion
[ 10167 10162 10161 10158 ] final  -85.20 input  -65.29 | X-H torsion
[ 10718 10713 10712 10709 ] final   73.67 input   66.30 | X-H torsion
[ 10763 10752 10751 10750 ] final   53.95 input  -60.55 | X-H torsion
[ 11005 11000 10999 10996 ] final -114.72 input  -57.11 | X-H torsion

> <Gold.Protein.ActiveResidues>
 VAL166  LYS551  ARG553  GLY616  TRP617  ASP618  TYR619  PRO620  LYS621  CYS622 
 ASP623  PHE694  ASN695  SER759  ASP760  ASP761  ALA762  ILE779  LEU786  VAL792 
 PHE793  MET794  SER795  GLU796  ALA797  LYS798  CYS799  TRP800  GLU811  SER814 

> <Gold.Protein.RotatedAtoms>
  150.8547  134.7882  159.7035 H   0  0  0  0  0  0  0  0  0  0  0  0  # atno 6907 bound_to 6896
  152.4602  134.5199  159.9789 H   0  0  0  0  0  0  0  0  0  0  0  0  # atno 6908 bound_to 6896
  151.5313  133.3410  159.2954 H   0  0  0  0  0  0  0  0  0  0  0  0  # atno 6909 bound_to 6896
  145.6727  139.2501  143.1859 H   0  0  0  0  0  0  0  0  0  0  0  0  # atno 7974 bound_to 7965
  155.2644  140.3361  155.4270 H   0  0  0  0  0  0  0  0  0  0  0  0  # atno 8008 bound_to 7997
  156.2160  140.1789  156.7629 H   0  0  0  0  0  0  0  0  0  0  0  0  # atno 8009 bound_to 7997
  154.5755  140.0662  156.9012 H   0  0  0  0  0  0  0  0  0  0  0  0  # atno 8010 bound_to 7997
  140.4060  143.2642  151.9080 H   0  0  0  0  0  0  0  0  0  0  0  0  # atno 10167 bound_to 10162
  157.6558  130.9640  150.1103 H   0  0  0  0  0  0  0  0  0  0  0  0  # atno 10718 bound_to 10713
  152.9800  135.5761  154.4824 H   0  0  0  0  0  0  0  0  0  0  0  0  # atno 10763 bound_to 10752
  154.4371  135.2775  155.1875 H   0  0  0  0  0  0  0  0  0  0  0  0  # atno 10764 bound_to 10752
  154.3559  135.6199  153.5719 H   0  0  0  0  0  0  0  0  0  0  0  0  # atno 10765 bound_to 10752
  141.0534  133.9651  157.2797 H   0  0  0  0  0  0  0  0  0  0  0  0  # atno 11005 bound_to 11000
  146.1032  140.7519  142.9539 LP  0  0  0  0  0  0  0  0  0  0  0  0  # atno 17320 bound_to 7965
  144.7052  140.3820  143.7124 LP  0  0  0  0  0  0  0  0  0  0  0  0  # atno 17321 bound_to 7965
  139.4783  144.5586  151.8275 LP  0  0  0  0  0  0  0  0  0  0  0  0  # atno 17342 bound_to 10162
  140.4689  144.1615  150.5915 LP  0  0  0  0  0  0  0  0  0  0  0  0  # atno 17343 bound_to 10162
  156.2001  130.3660  149.8799 LP  0  0  0  0  0  0  0  0  0  0  0  0  # atno 17370 bound_to 10713
  156.6705  130.8818  151.3561 LP  0  0  0  0  0  0  0  0  0  0  0  0  # atno 17371 bound_to 10713
  139.9369  135.0195  156.8585 LP  0  0  0  0  0  0  0  0  0  0  0  0  # atno 17394 bound_to 11000
  140.6011  134.0171  155.7538 LP  0  0  0  0  0  0  0  0  0  0  0  0  # atno 17395 bound_to 11000

$$$$
