AV-unprocessed.smi:1639|AV-procd|sdf|6553|dock3
  -GOLD-   22720 7233D 1   1.00000     0.00000
 Structure written by MMmdl.
 38 39  0  0  0  0  0  0  0  0  2 V2000
  152.2342  142.9370  160.6023 C   0  0  0  0  0  0  0  0  0  0  0  0
  152.4055  142.6802  159.1032 C   0  0  0  0  0  0  0  0  0  0  0  0
  151.2933  141.9291  158.6399 O   0  0  0  0  0  0  0  0  0  0  0  0
  151.4202  141.4456  157.3094 C   0  0  1  0  0  0  0  0  0  0  0  0
  152.2456  140.1448  157.2649 C   0  0  0  0  0  0  0  0  0  0  0  0
  152.2393  139.5647  155.8431 C   0  0  0  0  0  0  0  0  0  0  0  0
  150.8032  139.3565  155.3345 C   0  0  0  0  0  0  0  0  0  0  0  0
  150.0207  140.5889  155.4447 N   0  0  0  0  0  0  0  0  0  0  0  0
  148.8298  140.6221  154.6873 C   0  0  0  0  0  0  0  0  0  0  0  0
  148.0193  141.7765  154.6593 C   0  0  0  0  0  0  0  0  0  0  0  0
  146.8473  141.7299  153.8794 C   0  0  0  0  0  0  0  0  0  0  0  0
  145.9033  142.9092  153.7773 C   0  0  0  0  0  0  0  0  0  0  0  0
  146.5341  140.6058  153.1898 N   0  3  0  0  0  0  0  0  0  0  0  0
  147.3422  139.5395  153.2612 C   0  0  0  0  0  0  0  0  0  0  0  0
  147.0019  138.4078  152.5595 N   0  0  0  0  0  0  0  0  0  0  0  0
  148.4661  139.5230  153.9849 N   0  0  0  0  0  0  0  0  0  0  0  0
  149.9974  141.1947  156.7789 C   0  0  0  0  0  0  0  0  0  0  0  0
  153.0683  143.5182  160.9956 H   0  0  0  0  0  0  0  0  0  0  0  0
  152.1886  141.9996  161.1572 H   0  0  0  0  0  0  0  0  0  0  0  0
  151.3167  143.4911  160.8024 H   0  0  0  0  0  0  0  0  0  0  0  0
  152.4660  143.6309  158.5715 H   0  0  0  0  0  0  0  0  0  0  0  0
  153.3379  142.1438  158.9282 H   0  0  0  0  0  0  0  0  0  0  0  0
  151.8906  142.2038  156.6803 H   0  0  0  0  0  0  0  0  0  0  0  0
  153.2736  140.3230  157.5792 H   0  0  0  0  0  0  0  0  0  0  0  0
  151.8266  139.4170  157.9609 H   0  0  0  0  0  0  0  0  0  0  0  0
  152.7700  140.2407  155.1715 H   0  0  0  0  0  0  0  0  0  0  0  0
  152.7821  138.6193  155.8231 H   0  0  0  0  0  0  0  0  0  0  0  0
  150.8428  138.9920  154.3090 H   0  0  0  0  0  0  0  0  0  0  0  0
  150.3112  138.5801  155.9218 H   0  0  0  0  0  0  0  0  0  0  0  0
  148.2703  142.6628  155.2237 H   0  0  0  0  0  0  0  0  0  0  0  0
  146.0904  143.6300  154.5738 H   0  0  0  0  0  0  0  0  0  0  0  0
  144.8664  142.5808  153.8554 H   0  0  0  0  0  0  0  0  0  0  0  0
  146.0333  143.4146  152.8202 H   0  0  0  0  0  0  0  0  0  0  0  0
  146.1592  138.3865  152.0034 H   0  0  0  0  0  0  0  0  0  0  0  0
  147.6180  137.6081  152.5438 H   0  0  0  0  0  0  0  0  0  0  0  0
  149.4557  140.5356  157.4590 H   0  0  0  0  0  0  0  0  0  0  0  0
  149.4599  142.1436  156.7528 H   0  0  0  0  0  0  0  0  0  0  0  0
  145.6838  140.5822  152.6267 H   0  0  0  0  0  0  0  0  0  0  0  0
  1  2  1  0  0  0  0
  1 18  1  0  0  0  0
  1 19  1  0  0  0  0
  1 20  1  0  0  0  0
  2  3  1  0  0  0  0
  2 21  1  0  0  0  0
  2 22  1  0  0  0  0
  3  4  1  0  0  0  0
  4 17  1  0  0  0  0
  4  5  1  0  0  0  0
  4 23  1  0  0  0  0
  5  6  1  0  0  0  0
  5 24  1  0  0  0  0
  5 25  1  0  0  0  0
  6  7  1  0  0  0  0
  6 26  1  0  0  0  0
  6 27  1  0  0  0  0
  7  8  1  0  0  0  0
  7 28  1  0  0  0  0
  7 29  1  0  0  0  0
  8  9  1  0  0  0  0
  8 17  1  0  0  0  0
  9 16  1  0  0  0  0
  9 10  2  0  0  0  0
 10 11  1  0  0  0  0
 10 30  1  0  0  0  0
 11 12  1  0  0  0  0
 11 13  2  0  0  0  0
 12 31  1  0  0  0  0
 12 32  1  0  0  0  0
 12 33  1  0  0  0  0
 13 14  1  0  0  0  0
 13 38  1  0  0  0  0
 14 15  1  0  0  0  0
 14 16  2  0  0  0  0
 15 34  1  0  0  0  0
 15 35  1  0  0  0  0
 17 36  1  0  0  0  0
 17 37  1  0  0  0  0
M  CHG  1  13   1
M  END
> <s_m_source_file>
AV-unprocessed.smi

> <i_m_source_file_index>
1639

> <i_lp_mmshare_version>
43012

> <i_f3d_flags>
0

> <s_epik_input>
W0NIM11bQ0gyXU9bQ0BASF0xW0NIMl1bQ0gyXVtDSDJdTihbQ0gyXTEpYzJbY0hdYyhbQ0gzXSluYyhuMilbTkgyXQ==

> <s_epik_cmdline>
J2VwaWtfcHl0aG9uJywgJy1waCcsICc3LjAnLCAnLXRuJywgJzgnLCAnLW1hJywgJzIwMCcsICctbWV0YWxfYmluZGluZycsICctaW1hZScsICc8aW5maWxlLm1hZT4nLCAnLW9tYWUnLCAnPG91dGZpbGUubWFlPic=

> <r_lp_tautomer_probability>
0.575011

> <r_epik_Ionization_Penalty>
2.98813

> <r_epik_Ionization_Penalty_Charging>
2.98813

> <r_epik_Ionization_Penalty_Neutral>
3.21773e-06

> <r_epik_State_Penalty>
2.17402

> <r_epik_Charging_Adjusted_Penalty>
5.16215

> <i_epik_Tot_Q>
1

> <i_epik_Tot_abs_Q>
1

> <r_epik_Metal_State_Penalty>
2.51158

> <b_epik_Metal_Only>
0

> <s_lp_Force_Field>
OPLS_2005

> <r_lp_Energy>
14.4858

> <b_lp_Chiralities_Consistent>
1

> <s_lp_Variant>
AV-unprocessed.smi:1639-6

> <Gold.Version>
5.8.1

> <Gold.Id.Protein>
6NUR|6NUR_protein|mol2

> <Gold.PLP.Fitness>
45.2089

> <Gold.PLP.PLP>
-33.8165

> <Gold.PLP.part.hbond>
-2.0000

> <Gold.PLP.part.metal>
0.0000

> <Gold.PLP.part.buried>
-3.6157

> <Gold.PLP.part.nonpolar>
-29.1460

> <Gold.PLP.part.repulsive>
0.5263

> <Gold.PLP.ligand.clash>
0.0000

> <Gold.PLP.ligand.torsion>
0.5190

> <Gold.PLP.Chemscore.Hbond>
4.0000

> <Gold.PLP.Chemscore.CHOScore>
0.0000

> <Gold.PLP.Chemscore.Metal>
0.0000

> <Gold.Chemscore.Hbonds>
donor molecule, donor type, donor heavy atom, donor atom, acceptor molecule, acceptor atom, score
      L1  H    13    38       P1 10175  2.00
      L1  H    15    35       P1  7948  2.00

> <Gold.PLP.Chemscore.Internal.Correction>
0.4303

> <Gold.Rescore>
     Score         DG    S(hbond)    S(metal)    S(lipo)     H(rot)  DE(clash)    DE(int)     intcor
     16.40     -16.84       1.85        0.00      76.10       1.46       0.05       0.39       ----

> <Gold.Chemscore.Fitness>
16.3963

> <Gold.Chemscore.DG>
-16.8379

> <Gold.Chemscore.ZeroCoef>
-5.4800

> <Gold.Chemscore.Hbond>
1.8507

> <Gold.Chemscore.Metal>
0.0000

> <Gold.Chemscore.Lipo>
76.1013

> <Gold.Chemscore.Internal_Hbond>
0.0000

> <Gold.Chemscore.DEClash>
0.0467

> <Gold.Chemscore.DEInternal>
0.3949

> <Gold.Chemscore.Rot>
1.4560

> <Gold.Chemscore.Internal.Correction>
   9.000000E+99

> <Gold.Chemscore.Hbonds>
donor molecule, donor type, donor heavy atom, donor atom, acceptor molecule, acceptor atom, score
      L1  H    13    38       P1 10175  0.46
      L1  H    15    35       P1  7948  0.94

> <Gold.Chemscore.Hbond.Weighted>
-6.1813

> <Gold.Chemscore.Metal.Weighted>
-0.0000

> <Gold.Chemscore.Lipo.Weighted>
-8.9038

> <Gold.Chemscore.Internal_Hbond.Weighted>
0.0000

> <Gold.Chemscore.DEClash.Weighted>
0.0467

> <Gold.Chemscore.DEInternal.Weighted>
0.3949

> <Gold.Chemscore.Rot.Weighted>
3.7272

> <Gold.Chemscore.Internal.Correction.Weighted>
   9.000000E+99

> <Gold.Protein.RotatedTorsions>
[ 6907 6896 6895 6894 ] final  -14.61 input  -60.11 | X-H torsion
[ 7974 7965 7964 7962 ] final -104.87 input  175.53 | X-H torsion
[ 8008 7997 7996 7995 ] final   79.52 input   59.86 | X-H torsion
[ 10167 10162 10161 10158 ] final    8.85 input  -65.29 | X-H torsion
[ 10718 10713 10712 10709 ] final -171.80 input   66.30 | X-H torsion
[ 10763 10752 10751 10750 ] final   18.83 input  -60.55 | X-H torsion
[ 11005 11000 10999 10996 ] final   83.94 input  -57.11 | X-H torsion

> <Gold.Protein.ActiveResidues>
 VAL166  LYS551  ARG553  GLY616  TRP617  ASP618  TYR619  PRO620  LYS621  CYS622 
 ASP623  PHE694  ASN695  SER759  ASP760  ASP761  ALA762  ILE779  LEU786  VAL792 
 PHE793  MET794  SER795  GLU796  ALA797  LYS798  CYS799  TRP800  GLU811  SER814 

> <Gold.Protein.RotatedAtoms>
  151.3367  135.0854  159.9356 H   0  0  0  0  0  0  0  0  0  0  0  0  # atno 6907 bound_to 6896
  152.5221  133.9488  159.7672 H   0  0  0  0  0  0  0  0  0  0  0  0  # atno 6908 bound_to 6896
  150.9837  133.6166  159.2748 H   0  0  0  0  0  0  0  0  0  0  0  0  # atno 6909 bound_to 6896
  145.2376  140.9193  143.3168 H   0  0  0  0  0  0  0  0  0  0  0  0  # atno 7974 bound_to 7965
  155.8708  140.3449  155.5820 H   0  0  0  0  0  0  0  0  0  0  0  0  # atno 8008 bound_to 7997
  155.7829  140.0861  157.2069 H   0  0  0  0  0  0  0  0  0  0  0  0  # atno 8009 bound_to 7997
  154.4017  140.1497  156.3060 H   0  0  0  0  0  0  0  0  0  0  0  0  # atno 8010 bound_to 7997
  140.6290  143.8037  150.7270 H   0  0  0  0  0  0  0  0  0  0  0  0  # atno 10167 bound_to 10162
  156.7463  130.9361  151.3112 H   0  0  0  0  0  0  0  0  0  0  0  0  # atno 10718 bound_to 10713
  153.1214  135.6720  153.9329 H   0  0  0  0  0  0  0  0  0  0  0  0  # atno 10763 bound_to 10752
  153.8843  135.3054  155.3447 H   0  0  0  0  0  0  0  0  0  0  0  0  # atno 10764 bound_to 10752
  154.7625  135.4981  153.9571 H   0  0  0  0  0  0  0  0  0  0  0  0  # atno 10765 bound_to 10752
  139.9015  134.8180  156.2377 H   0  0  0  0  0  0  0  0  0  0  0  0  # atno 11005 bound_to 11000
  144.9618  139.3971  143.6352 LP  0  0  0  0  0  0  0  0  0  0  0  0  # atno 17320 bound_to 7965
  146.3337  139.8675  142.8845 LP  0  0  0  0  0  0  0  0  0  0  0  0  # atno 17321 bound_to 7965
  140.1644  143.4248  152.2045 LP  0  0  0  0  0  0  0  0  0  0  0  0  # atno 17342 bound_to 10162
  139.5506  144.7334  151.4446 LP  0  0  0  0  0  0  0  0  0  0  0  0  # atno 17343 bound_to 10162
  157.6797  130.9128  150.0236 LP  0  0  0  0  0  0  0  0  0  0  0  0  # atno 17370 bound_to 10713
  156.1431  130.3642  149.9551 LP  0  0  0  0  0  0  0  0  0  0  0  0  # atno 17371 bound_to 10713
  141.0305  133.6991  156.1422 LP  0  0  0  0  0  0  0  0  0  0  0  0  # atno 17394 bound_to 11000
  140.7103  134.4468  157.5582 LP  0  0  0  0  0  0  0  0  0  0  0  0  # atno 17395 bound_to 11000

$$$$
