AV-unprocessed.smi:3322|AV-procd|sdf|12776|dock2
  -GOLD-   2272019123D 1   1.00000     0.00000
 Structure written by MMmdl.
 38 39  0  0  0  0  0  0  0  0  1 V2000
  152.2600  138.8285  157.1607 C   0  0  0  0  0  0  0  0  0  0  0  0
  151.3938  140.0976  157.2187 C   0  0  1  0  0  0  0  0  0  0  0  0
  152.1935  141.1991  157.7871 N   0  0  0  0  0  0  0  0  0  0  0  0
  151.4239  142.4137  158.0408 C   0  0  0  0  0  0  0  0  0  0  0  0
  152.3068  143.4677  158.7298 C   0  0  0  0  0  0  0  0  0  0  0  0
  152.6189  143.1154  160.1043 N   0  0  0  0  0  0  0  0  0  0  0  0
  153.3717  142.0560  160.5655 C   0  0  0  0  0  0  0  0  0  0  0  0
  153.3961  142.1373  161.9284 C   0  0  0  0  0  0  0  0  0  0  0  0
  152.6195  143.2956  162.2116 C   0  0  0  0  0  0  0  0  0  0  0  0
  152.1560  143.8789  161.1181 N   0  0  0  0  0  0  0  0  0  0  0  0
  150.8117  140.4072  155.8182 C   0  0  0  0  0  0  0  0  0  0  0  0
  151.4009  139.9597  154.8323 O   0  0  0  0  0  0  0  0  0  0  0  0
  149.6797  141.1460  155.6948 N   0  0  0  0  0  0  0  0  0  0  0  0
  149.0984  141.4918  154.3925 C   0  0  0  0  0  0  0  0  0  0  0  0
  147.7224  140.8145  154.2717 C   0  0  0  0  0  0  0  0  0  0  0  0
  146.8864  141.2463  155.3414 O   0  0  0  0  0  0  0  0  0  0  0  0
  147.4297  140.9493  156.6245 C   0  0  0  0  0  0  0  0  0  0  0  0
  148.8088  141.6172  156.7787 C   0  0  0  0  0  0  0  0  0  0  0  0
  151.6940  137.9677  156.8042 H   0  0  0  0  0  0  0  0  0  0  0  0
  152.6468  138.5740  158.1481 H   0  0  0  0  0  0  0  0  0  0  0  0
  153.1146  138.9596  156.4954 H   0  0  0  0  0  0  0  0  0  0  0  0
  150.5805  139.9255  157.9218 H   0  0  0  0  0  0  0  0  0  0  0  0
  152.6507  140.9175  158.6429 H   0  0  0  0  0  0  0  0  0  0  0  0
  151.0436  142.8238  157.1053 H   0  0  0  0  0  0  0  0  0  0  0  0
  150.5600  142.1888  158.6679 H   0  0  0  0  0  0  0  0  0  0  0  0
  153.2341  143.6223  158.1751 H   0  0  0  0  0  0  0  0  0  0  0  0
  151.7895  144.4275  158.7402 H   0  0  0  0  0  0  0  0  0  0  0  0
  153.8231  141.3417  159.8928 H   0  0  0  0  0  0  0  0  0  0  0  0
  153.8930  141.4714  162.6181 H   0  0  0  0  0  0  0  0  0  0  0  0
  152.3808  143.7275  163.1724 H   0  0  0  0  0  0  0  0  0  0  0  0
  148.9908  142.5750  154.3215 H   0  0  0  0  0  0  0  0  0  0  0  0
  149.7259  141.1984  153.5500 H   0  0  0  0  0  0  0  0  0  0  0  0
  147.2514  141.0813  153.3257 H   0  0  0  0  0  0  0  0  0  0  0  0
  147.8200  139.7278  154.2865 H   0  0  0  0  0  0  0  0  0  0  0  0
  146.7455  141.3166  157.3895 H   0  0  0  0  0  0  0  0  0  0  0  0
  147.5045  139.8686  156.7552 H   0  0  0  0  0  0  0  0  0  0  0  0
  149.1813  141.4108  157.7786 H   0  0  0  0  0  0  0  0  0  0  0  0
  148.7098  142.7017  156.7140 H   0  0  0  0  0  0  0  0  0  0  0  0
  1  2  1  0  0  0  0
  1 19  1  0  0  0  0
  1 20  1  0  0  0  0
  1 21  1  0  0  0  0
  2  3  1  0  0  0  0
  2 11  1  0  0  0  0
  2 22  1  0  0  0  0
  3  4  1  0  0  0  0
  3 23  1  0  0  0  0
  4  5  1  0  0  0  0
  4 24  1  0  0  0  0
  4 25  1  0  0  0  0
  5  6  1  0  0  0  0
  5 26  1  0  0  0  0
  5 27  1  0  0  0  0
  6 10  1  0  0  0  0
  6  7  1  0  0  0  0
  7  8  2  0  0  0  0
  7 28  1  0  0  0  0
  8  9  1  0  0  0  0
  8 29  1  0  0  0  0
  9 10  2  0  0  0  0
  9 30  1  0  0  0  0
 11 12  2  0  0  0  0
 11 13  1  0  0  0  0
 13 18  1  0  0  0  0
 13 14  1  0  0  0  0
 14 15  1  0  0  0  0
 14 31  1  0  0  0  0
 14 32  1  0  0  0  0
 15 16  1  0  0  0  0
 15 33  1  0  0  0  0
 15 34  1  0  0  0  0
 16 17  1  0  0  0  0
 17 18  1  0  0  0  0
 17 35  1  0  0  0  0
 17 36  1  0  0  0  0
 18 37  1  0  0  0  0
 18 38  1  0  0  0  0
M  END
> <s_m_source_file>
AV-unprocessed.smi

> <i_m_source_file_index>
3322

> <i_lp_mmshare_version>
43012

> <i_f3d_flags>
0

> <s_epik_input>
W0NIMl0xW0NIMl1PW0NIMl1bQ0gyXU4xQyg9TylbQ0BIXShbQ0gzXSlbTkhdW0NIMl1bQ0gyXW4yW2NIXVtjSF1bY0hdbjI=

> <s_epik_cmdline>
J2VwaWtfcHl0aG9uJywgJy1waCcsICc3LjAnLCAnLXRuJywgJzgnLCAnLW1hJywgJzIwMCcsICctbWV0YWxfYmluZGluZycsICctaW1hZScsICc8aW5maWxlLm1hZT4nLCAnLW9tYWUnLCAnPG91dGZpbGUubWFlPic=

> <r_lp_tautomer_probability>
1

> <r_epik_Ionization_Penalty>
0.511228

> <r_epik_Ionization_Penalty_Charging>
0

> <r_epik_Ionization_Penalty_Neutral>
0.511228

> <r_epik_State_Penalty>
0.51753

> <r_epik_Charging_Adjusted_Penalty>
0.51753

> <i_epik_Tot_Q>
0

> <i_epik_Tot_abs_Q>
0

> <r_epik_Metal_State_Penalty>
0.517012

> <b_epik_Metal_Only>
0

> <s_lp_Force_Field>
OPLS_2005

> <r_lp_Energy>
27.6931

> <b_lp_Chiralities_Consistent>
1

> <s_lp_Variant>
AV-unprocessed.smi:3322-4

> <Gold.Version>
5.8.1

> <Gold.Id.Protein>
6NUR|6NUR_protein|mol2

> <Gold.PLP.Fitness>
40.7590

> <Gold.PLP.PLP>
-39.1040

> <Gold.PLP.part.hbond>
-1.0000

> <Gold.PLP.part.metal>
0.0000

> <Gold.PLP.part.buried>
-3.1869

> <Gold.PLP.part.nonpolar>
-33.5276

> <Gold.PLP.part.repulsive>
0.2625

> <Gold.PLP.ligand.clash>
0.0000

> <Gold.PLP.ligand.torsion>
0.7208

> <Gold.PLP.Chemscore.Hbond>
1.0000

> <Gold.PLP.Chemscore.CHOScore>
0.0000

> <Gold.PLP.Chemscore.Metal>
0.0000

> <Gold.Chemscore.Hbonds>
donor molecule, donor type, donor heavy atom, donor atom, acceptor molecule, acceptor atom, score
      P1  H  7989  7998       L1    12  1.00

> <Gold.PLP.Chemscore.Internal.Correction>
0.0966

> <Gold.Rescore>
     Score         DG    S(hbond)    S(metal)    S(lipo)     H(rot)  DE(clash)    DE(int)     intcor
     13.32     -14.24       0.99        0.00      86.90       1.84       0.07       0.84       ----

> <Gold.Chemscore.Fitness>
13.3232

> <Gold.Chemscore.DG>
-14.2379

> <Gold.Chemscore.ZeroCoef>
-5.4800

> <Gold.Chemscore.Hbond>
0.9915

> <Gold.Chemscore.Metal>
0.0000

> <Gold.Chemscore.Lipo>
86.9001

> <Gold.Chemscore.Internal_Hbond>
0.0000

> <Gold.Chemscore.DEClash>
0.0724

> <Gold.Chemscore.DEInternal>
0.8423

> <Gold.Chemscore.Rot>
1.8442

> <Gold.Chemscore.Internal.Correction>
   9.000000E+99

> <Gold.Chemscore.Hbonds>
donor molecule, donor type, donor heavy atom, donor atom, acceptor molecule, acceptor atom, score
      P1  H  7989  7998       L1    12  0.98

> <Gold.Chemscore.Hbond.Weighted>
-3.3118

> <Gold.Chemscore.Metal.Weighted>
-0.0000

> <Gold.Chemscore.Lipo.Weighted>
-10.1673

> <Gold.Chemscore.Internal_Hbond.Weighted>
0.0000

> <Gold.Chemscore.DEClash.Weighted>
0.0724

> <Gold.Chemscore.DEInternal.Weighted>
0.8423

> <Gold.Chemscore.Rot.Weighted>
4.7212

> <Gold.Chemscore.Internal.Correction.Weighted>
   9.000000E+99

> <Gold.Protein.RotatedTorsions>
[ 6907 6896 6895 6894 ] final   88.30 input  -60.11 | X-H torsion
[ 7974 7965 7964 7962 ] final  116.45 input  175.53 | X-H torsion
[ 8008 7997 7996 7995 ] final   64.00 input   59.86 | X-H torsion
[ 10167 10162 10161 10158 ] final   11.11 input  -65.29 | X-H torsion
[ 10718 10713 10712 10709 ] final -160.03 input   66.30 | X-H torsion
[ 10763 10752 10751 10750 ] final -111.56 input  -60.55 | X-H torsion
[ 11005 11000 10999 10996 ] final  124.94 input  -57.11 | X-H torsion

> <Gold.Protein.ActiveResidues>
 VAL166  LYS551  ARG553  GLY616  TRP617  ASP618  TYR619  PRO620  LYS621  CYS622 
 ASP623  PHE694  ASN695  SER759  ASP760  ASP761  ALA762  ILE779  LEU786  VAL792 
 PHE793  MET794  SER795  GLU796  ALA797  LYS798  CYS799  TRP800  GLU811  SER814 

> <Gold.Protein.RotatedAtoms>
  152.5423  134.2143  159.8762 H   0  0  0  0  0  0  0  0  0  0  0  0  # atno 6907 bound_to 6896
  151.2124  133.4542  159.2606 H   0  0  0  0  0  0  0  0  0  0  0  0  # atno 6908 bound_to 6896
  151.0884  134.9914  159.8446 H   0  0  0  0  0  0  0  0  0  0  0  0  # atno 6909 bound_to 6896
  145.1795  139.3057  143.4425 H   0  0  0  0  0  0  0  0  0  0  0  0  # atno 7974 bound_to 7965
  155.6391  140.3496  155.4709 H   0  0  0  0  0  0  0  0  0  0  0  0  # atno 8008 bound_to 7997
  155.9940  140.1199  157.0634 H   0  0  0  0  0  0  0  0  0  0  0  0  # atno 8009 bound_to 7997
  154.4228  140.1113  156.5591 H   0  0  0  0  0  0  0  0  0  0  0  0  # atno 8010 bound_to 7997
  140.6152  143.8323  150.7110 H   0  0  0  0  0  0  0  0  0  0  0  0  # atno 10167 bound_to 10162
  156.5764  130.8710  151.2852 H   0  0  0  0  0  0  0  0  0  0  0  0  # atno 10718 bound_to 10713
  154.8306  135.4523  154.1058 H   0  0  0  0  0  0  0  0  0  0  0  0  # atno 10763 bound_to 10752
  153.2334  135.6908  153.7870 H   0  0  0  0  0  0  0  0  0  0  0  0  # atno 10764 bound_to 10752
  153.7244  135.3336  155.3249 H   0  0  0  0  0  0  0  0  0  0  0  0  # atno 10765 bound_to 10752
  139.9382  134.9638  156.8484 H   0  0  0  0  0  0  0  0  0  0  0  0  # atno 11005 bound_to 11000
  146.3455  140.1969  142.8589 LP  0  0  0  0  0  0  0  0  0  0  0  0  # atno 17320 bound_to 7965
  145.0150  140.8746  143.5201 LP  0  0  0  0  0  0  0  0  0  0  0  0  # atno 17321 bound_to 7965
  140.1900  143.4044  152.1870 LP  0  0  0  0  0  0  0  0  0  0  0  0  # atno 17342 bound_to 10162
  139.5393  144.7241  151.4787 LP  0  0  0  0  0  0  0  0  0  0  0  0  # atno 17343 bound_to 10162
  157.7337  130.9734  150.1989 LP  0  0  0  0  0  0  0  0  0  0  0  0  # atno 17370 bound_to 10713
  156.2670  130.3717  149.8071 LP  0  0  0  0  0  0  0  0  0  0  0  0  # atno 17371 bound_to 10713
  140.6019  134.0163  155.7541 LP  0  0  0  0  0  0  0  0  0  0  0  0  # atno 17394 bound_to 11000
  141.1006  133.9775  157.3086 LP  0  0  0  0  0  0  0  0  0  0  0  0  # atno 17395 bound_to 11000

$$$$
