AV-unprocessed.smi:1244|AV-procd|sdf|5238|dock4
  -GOLD-   22720 4343D 1   1.00000     0.00000
 Structure written by MMmdl.
 55 57  0  0  0  0  0  0  0  0  4 V2000
  154.6703  133.6482  163.4921 C   0  0  0  0  0  0  0  0  0  0  0  0
  155.0533  135.0980  163.1750 C   0  0  1  0  0  0  0  0  0  0  0  0
  155.2303  135.3289  161.6636 C   0  0  0  0  0  0  0  0  0  0  0  0
  155.5078  136.7578  161.3861 N   0  3  1  0  0  0  0  0  0  0  0  0
  155.8106  137.0206  159.9539 C   0  0  0  0  0  0  0  0  0  0  0  0
  156.3239  138.4563  159.7211 C   0  0  0  0  0  0  0  0  0  0  0  0
  155.2250  139.3109  159.2732 N   0  5  0  0  0  0  0  0  0  0  0  0
  154.6394  140.2837  160.0212 C   0  0  0  0  0  0  0  0  0  0  0  0
  154.7856  140.4985  161.2297 O   0  0  0  0  0  0  0  0  0  0  0  0
  153.8100  141.0460  159.2880 N   0  0  0  0  0  0  0  0  0  0  0  0
  152.9926  142.1406  159.6897 C   0  0  0  0  0  0  0  0  0  0  0  0
  153.1794  142.7810  160.9416 C   0  0  0  0  0  0  0  0  0  0  0  0
  152.3433  143.8483  161.3184 C   0  0  0  0  0  0  0  0  0  0  0  0
  151.3356  144.2666  160.4336 C   0  0  0  0  0  0  0  0  0  0  0  0
  151.1989  143.6547  159.2395 N   0  3  0  0  0  0  0  0  0  0  0  0
  151.9810  142.6312  158.8123 C   0  0  0  0  0  0  0  0  0  0  0  0
  151.7211  142.1048  157.5250 N   0  0  0  0  0  0  0  0  0  0  0  0
  151.5621  140.6683  157.3317 C   0  0  0  0  0  0  0  0  0  0  0  0
  150.9906  140.5176  155.9245 C   0  0  0  0  0  0  0  0  0  0  0  0
  150.0980  141.7483  155.7992 C   0  0  0  0  0  0  0  0  0  0  0  0
  150.8396  142.8189  156.6064 C   0  0  0  0  0  0  0  0  0  0  0  0
  154.4177  137.6043  161.9387 C   0  0  0  0  0  0  0  0  0  0  0  0
  154.2191  137.3372  163.4427 C   0  0  2  0  0  0  0  0  0  0  0  0
  155.3405  137.9180  164.3230 C   0  0  0  0  0  0  0  0  0  0  0  0
  154.0173  135.9423  163.6706 O   0  0  0  0  0  0  0  0  0  0  0  0
  155.4367  132.9545  163.1459 H   0  0  0  0  0  0  0  0  0  0  0  0
  153.7300  133.3744  163.0127 H   0  0  0  0  0  0  0  0  0  0  0  0
  154.5512  133.5024  164.5659 H   0  0  0  0  0  0  0  0  0  0  0  0
  155.9875  135.3206  163.6911 H   0  0  0  0  0  0  0  0  0  0  0  0
  156.0554  134.7155  161.2986 H   0  0  0  0  0  0  0  0  0  0  0  0
  154.3351  135.0203  161.1209 H   0  0  0  0  0  0  0  0  0  0  0  0
  156.5837  136.3295  159.6140 H   0  0  0  0  0  0  0  0  0  0  0  0
  154.9320  136.8128  159.3410 H   0  0  0  0  0  0  0  0  0  0  0  0
  156.7545  138.8327  160.6490 H   0  0  0  0  0  0  0  0  0  0  0  0
  157.1515  138.4289  159.0107 H   0  0  0  0  0  0  0  0  0  0  0  0
  153.6772  140.7336  158.3376 H   0  0  0  0  0  0  0  0  0  0  0  0
  153.9594  142.4733  161.6211 H   0  0  0  0  0  0  0  0  0  0  0  0
  152.4743  144.3369  162.2728 H   0  0  0  0  0  0  0  0  0  0  0  0
  150.6457  145.0724  160.6372 H   0  0  0  0  0  0  0  0  0  0  0  0
  152.5104  140.1418  157.4425 H   0  0  0  0  0  0  0  0  0  0  0  0
  150.8561  140.2659  158.0591 H   0  0  0  0  0  0  0  0  0  0  0  0
  151.7936  140.5641  155.1876 H   0  0  0  0  0  0  0  0  0  0  0  0
  150.4511  139.5809  155.7819 H   0  0  0  0  0  0  0  0  0  0  0  0
  149.9223  142.0442  154.7648 H   0  0  0  0  0  0  0  0  0  0  0  0
  149.1301  141.5467  156.2600 H   0  0  0  0  0  0  0  0  0  0  0  0
  150.1416  143.4738  157.1296 H   0  0  0  0  0  0  0  0  0  0  0  0
  151.4495  143.4302  155.9410 H   0  0  0  0  0  0  0  0  0  0  0  0
  154.6277  138.6620  161.7766 H   0  0  0  0  0  0  0  0  0  0  0  0
  153.4922  137.3848  161.4039 H   0  0  0  0  0  0  0  0  0  0  0  0
  153.2944  137.8285  163.7472 H   0  0  0  0  0  0  0  0  0  0  0  0
  155.3835  139.0032  164.2269 H   0  0  0  0  0  0  0  0  0  0  0  0
  156.3229  137.5317  164.0524 H   0  0  0  0  0  0  0  0  0  0  0  0
  155.1677  137.6879  165.3745 H   0  0  0  0  0  0  0  0  0  0  0  0
  156.3508  136.9854  161.8941 H   0  0  0  0  0  0  0  0  0  0  0  0
  150.4660  143.9887  158.6139 H   0  0  0  0  0  0  0  0  0  0  0  0
  1  2  1  0  0  0  0
  1 26  1  0  0  0  0
  1 27  1  0  0  0  0
  1 28  1  0  0  0  0
  2 25  1  0  0  0  0
  2  3  1  0  0  0  0
  2 29  1  0  0  0  0
  3  4  1  0  0  0  0
  3 30  1  0  0  0  0
  3 31  1  0  0  0  0
  4  5  1  0  0  0  0
  4 22  1  0  0  0  0
  4 54  1  0  0  0  0
  5  6  1  0  0  0  0
  5 32  1  0  0  0  0
  5 33  1  0  0  0  0
  6  7  1  0  0  0  0
  6 34  1  0  0  0  0
  6 35  1  0  0  0  0
  7  8  1  0  0  0  0
  8  9  2  0  0  0  0
  8 10  1  0  0  0  0
 10 11  1  0  0  0  0
 10 36  1  0  0  0  0
 11 16  1  0  0  0  0
 11 12  2  0  0  0  0
 12 13  1  0  0  0  0
 12 37  1  0  0  0  0
 13 14  2  0  0  0  0
 13 38  1  0  0  0  0
 14 15  1  0  0  0  0
 14 39  1  0  0  0  0
 15 16  2  0  0  0  0
 15 55  1  0  0  0  0
 16 17  1  0  0  0  0
 17 21  1  0  0  0  0
 17 18  1  0  0  0  0
 18 19  1  0  0  0  0
 18 40  1  0  0  0  0
 18 41  1  0  0  0  0
 19 20  1  0  0  0  0
 19 42  1  0  0  0  0
 19 43  1  0  0  0  0
 20 21  1  0  0  0  0
 20 44  1  0  0  0  0
 20 45  1  0  0  0  0
 21 46  1  0  0  0  0
 21 47  1  0  0  0  0
 22 23  1  0  0  0  0
 22 48  1  0  0  0  0
 22 49  1  0  0  0  0
 23 24  1  0  0  0  0
 23 25  1  0  0  0  0
 23 50  1  0  0  0  0
 24 51  1  0  0  0  0
 24 52  1  0  0  0  0
 24 53  1  0  0  0  0
M  CHG  1   4   1
M  CHG  1   7  -1
M  CHG  1  15   1
M  END
> <s_m_source_file>
AV-unprocessed.smi

> <i_m_source_file_index>
1244

> <i_lp_mmshare_version>
43012

> <i_f3d_flags>
0

> <s_epik_input>
W0NIM11bQ0BASF0xW0NIMl1OKFtDSDJdW0NASF0oTzEpW0NIM10pW0NIMl1bQ0gyXVtOSF1DKD1PKVtOSF1jMltjSF1bY0hdW2NIXW5jMk4zW0NIMl1bQ0gyXVtDSDJdW0NIMl0z

> <s_epik_cmdline>
J2VwaWtfcHl0aG9uJywgJy1waCcsICc3LjAnLCAnLXRuJywgJzgnLCAnLW1hJywgJzIwMCcsICctbWV0YWxfYmluZGluZycsICctaW1hZScsICc8aW5maWxlLm1hZT4nLCAnLW9tYWUnLCAnPG91dGZpbGUubWFlPic=

> <r_lp_tautomer_probability>
0.999994

> <r_epik_Ionization_Penalty>
8.60539

> <r_epik_Ionization_Penalty_Charging>
8.60539

> <r_epik_Ionization_Penalty_Neutral>
3.60441e-06

> <r_epik_State_Penalty>
8.59967

> <r_epik_Charging_Adjusted_Penalty>
17.2051

> <i_epik_Tot_Q>
1

> <i_epik_Tot_abs_Q>
3

> <r_epik_Metal_State_Penalty>
4.59489

> <b_epik_Metal_Only>
1

> <s_lp_Force_Field>
OPLS_2005

> <r_lp_Energy>
46.9431

> <b_lp_Chiralities_Consistent>
1

> <s_lp_Variant>
AV-unprocessed.smi:1244-18

> <Gold.Version>
5.8.1

> <Gold.Id.Protein>
6NUR|6NUR_protein|mol2

> <Gold.PLP.Fitness>
47.7528

> <Gold.PLP.PLP>
-42.4955

> <Gold.PLP.part.hbond>
-0.9637

> <Gold.PLP.part.metal>
0.0000

> <Gold.PLP.part.buried>
-3.2802

> <Gold.PLP.part.nonpolar>
-37.5529

> <Gold.PLP.part.repulsive>
0.2077

> <Gold.PLP.ligand.clash>
0.0000

> <Gold.PLP.ligand.torsion>
0.8811

> <Gold.PLP.Chemscore.Hbond>
1.9825

> <Gold.PLP.Chemscore.CHOScore>
0.0000

> <Gold.PLP.Chemscore.Metal>
0.0000

> <Gold.Chemscore.Hbonds>
donor molecule, donor type, donor heavy atom, donor atom, acceptor molecule, acceptor atom, score
      P1  H  7997  8009       L1     7  1.98

> <Gold.PLP.Chemscore.Internal.Correction>
1.0720

> <Gold.Rescore>
     Score         DG    S(hbond)    S(metal)    S(lipo)     H(rot)  DE(clash)    DE(int)     intcor
     13.30     -16.50       0.53        0.00     110.00       1.42       0.73       2.47       ----

> <Gold.Chemscore.Fitness>
13.2991

> <Gold.Chemscore.DG>
-16.4964

> <Gold.Chemscore.ZeroCoef>
-5.4800

> <Gold.Chemscore.Hbond>
0.5324

> <Gold.Chemscore.Metal>
0.0000

> <Gold.Chemscore.Lipo>
109.9968

> <Gold.Chemscore.Internal_Hbond>
0.0000

> <Gold.Chemscore.DEClash>
0.7307

> <Gold.Chemscore.DEInternal>
2.4666

> <Gold.Chemscore.Rot>
1.4185

> <Gold.Chemscore.Internal.Correction>
   9.000000E+99

> <Gold.Chemscore.Hbonds>
donor molecule, donor type, donor heavy atom, donor atom, acceptor molecule, acceptor atom, score
      P1  H  7997  8009       L1     7  0.48

> <Gold.Chemscore.Hbond.Weighted>
-1.7781

> <Gold.Chemscore.Metal.Weighted>
-0.0000

> <Gold.Chemscore.Lipo.Weighted>
-12.8696

> <Gold.Chemscore.Internal_Hbond.Weighted>
0.0000

> <Gold.Chemscore.DEClash.Weighted>
0.7307

> <Gold.Chemscore.DEInternal.Weighted>
2.4666

> <Gold.Chemscore.Rot.Weighted>
3.6313

> <Gold.Chemscore.Internal.Correction.Weighted>
   9.000000E+99

> <Gold.Protein.RotatedTorsions>
[ 6907 6896 6895 6894 ] final  123.92 input  -60.11 | X-H torsion
[ 7974 7965 7964 7962 ] final  -42.53 input  175.53 | X-H torsion
[ 8008 7997 7996 7995 ] final  108.62 input   59.86 | X-H torsion
[ 10167 10162 10161 10158 ] final  -81.42 input  -65.29 | X-H torsion
[ 10718 10713 10712 10709 ] final  -99.68 input   66.30 | X-H torsion
[ 10763 10752 10751 10750 ] final -131.57 input  -60.55 | X-H torsion
[ 11005 11000 10999 10996 ] final   89.42 input  -57.11 | X-H torsion

> <Gold.Protein.ActiveResidues>
 VAL166  LYS551  ARG553  GLY616  TRP617  ASP618  TYR619  PRO620  LYS621  CYS622 
 ASP623  PHE694  ASN695  SER759  ASP760  ASP761  ALA762  ILE779  LEU786  VAL792 
 PHE793  MET794  SER795  GLU796  ALA797  LYS798  CYS799  TRP800  GLU811  SER814 

> <Gold.Protein.RotatedAtoms>
  152.4122  133.6981  159.6407 H   0  0  0  0  0  0  0  0  0  0  0  0  # atno 6907 bound_to 6896
  150.8001  133.8604  159.3239 H   0  0  0  0  0  0  0  0  0  0  0  0  # atno 6908 bound_to 6896
  151.6344  135.1021  160.0180 H   0  0  0  0  0  0  0  0  0  0  0  0  # atno 6909 bound_to 6896
  146.0107  140.6967  142.9225 H   0  0  0  0  0  0  0  0  0  0  0  0  # atno 7974 bound_to 7965
  156.1917  140.3073  155.9346 H   0  0  0  0  0  0  0  0  0  0  0  0  # atno 8008 bound_to 7997
  155.3158  140.0453  157.3054 H   0  0  0  0  0  0  0  0  0  0  0  0  # atno 8009 bound_to 7997
  154.5460  140.2276  155.8571 H   0  0  0  0  0  0  0  0  0  0  0  0  # atno 8010 bound_to 7997
  140.4413  143.2513  151.8621 H   0  0  0  0  0  0  0  0  0  0  0  0  # atno 10167 bound_to 10162
  156.0141  130.5293  150.6706 H   0  0  0  0  0  0  0  0  0  0  0  0  # atno 10718 bound_to 10713
  154.8750  135.3825  154.4268 H   0  0  0  0  0  0  0  0  0  0  0  0  # atno 10763 bound_to 10752
  153.4966  135.7030  153.5859 H   0  0  0  0  0  0  0  0  0  0  0  0  # atno 10764 bound_to 10752
  153.4209  135.3901  155.2077 H   0  0  0  0  0  0  0  0  0  0  0  0  # atno 10765 bound_to 10752
  139.8876  134.8550  156.3139 H   0  0  0  0  0  0  0  0  0  0  0  0  # atno 11005 bound_to 11000
  144.6952  140.3394  143.7202 LP  0  0  0  0  0  0  0  0  0  0  0  0  # atno 17320 bound_to 7965
  145.7346  139.1746  143.2411 LP  0  0  0  0  0  0  0  0  0  0  0  0  # atno 17321 bound_to 7965
  139.4790  144.5225  151.8781 LP  0  0  0  0  0  0  0  0  0  0  0  0  # atno 17342 bound_to 10162
  140.4315  144.2110  150.5888 LP  0  0  0  0  0  0  0  0  0  0  0  0  # atno 17343 bound_to 10162
  157.4429  131.0863  151.0925 LP  0  0  0  0  0  0  0  0  0  0  0  0  # atno 17370 bound_to 10713
  157.1464  130.6165  149.5569 LP  0  0  0  0  0  0  0  0  0  0  0  0  # atno 17371 bound_to 10713
  140.9832  133.7254  156.0703 LP  0  0  0  0  0  0  0  0  0  0  0  0  # atno 17394 bound_to 11000
  140.7722  134.3819  157.5505 LP  0  0  0  0  0  0  0  0  0  0  0  0  # atno 17395 bound_to 11000

$$$$
