AV-unprocessed.smi:109|AV-procd|sdf|1047|dock4
  -GOLD-   2262018 93D 1   1.00000     0.00000
 Structure written by MMmdl.
 58 61  0  0  0  0  0  0  0  0  1 V2000
  150.8579  140.0807  154.2675 O   0  0  0  0  0  0  0  0  0  0  0  0
  150.9489  140.5840  155.5829 C   0  0  0  0  0  0  0  0  0  0  0  0
  151.3492  139.4549  156.5479 C   0  0  0  0  0  0  0  0  0  0  0  0
  150.6125  139.4957  157.9091 C   0  0  2  0  0  0  0  0  0  0  0  0
  149.2082  139.8494  157.6920 N   0  0  0  0  0  0  0  0  0  0  0  0
  148.2332  138.9144  157.6399 C   0  0  0  0  0  0  0  0  0  0  0  0
  147.1392  138.9802  158.4428 N   0  0  0  0  0  0  0  0  0  0  0  0
  146.1936  138.0388  158.3655 C   0  0  0  0  0  0  0  0  0  0  0  0
  146.1449  136.9677  157.5696 N   0  0  0  0  0  0  0  0  0  0  0  0
  147.2442  136.8967  156.7643 C   0  0  0  0  0  0  0  0  0  0  0  0
  148.3234  137.8225  156.7394 C   0  0  0  0  0  0  0  0  0  0  0  0
  149.2577  137.4299  155.7901 N   0  0  0  0  0  0  0  0  0  0  0  0
  148.7516  136.3384  155.2818 C   0  0  0  0  0  0  0  0  0  0  0  0
  147.5401  135.9464  155.8113 N   0  0  0  0  0  0  0  0  0  0  0  0
  146.6893  134.7644  155.4561 C   0  0  2  0  0  0  0  0  0  0  0  0
  147.3589  133.6235  155.9019 O   0  0  0  0  0  0  0  0  0  0  0  0
  147.7303  132.7906  154.8065 C   0  0  2  0  0  0  0  0  0  0  0  0
  149.1137  132.1727  155.0692 C   0  0  0  0  0  0  0  0  0  0  0  0
  149.0959  131.3962  156.2475 O   0  0  0  0  0  0  0  0  0  0  0  0
  147.6446  133.6865  153.5650 C   0  0  1  0  0  0  0  0  0  0  0  0
  147.3009  132.9310  152.4207 O   0  0  0  0  0  0  0  0  0  0  0  0
  146.5126  134.6316  153.9312 C   0  0  2  0  0  0  0  0  0  0  0  0
  146.6238  135.8528  153.2218 O   0  0  0  0  0  0  0  0  0  0  0  0
  151.2408  140.4896  158.9283 C   0  0  0  0  0  0  0  0  0  0  0  0
  151.4351  141.9141  158.3507 C   0  0  0  0  0  0  0  0  0  0  0  0
  152.0921  142.8720  159.3582 C   0  0  0  0  0  0  0  0  0  0  0  0
  153.4335  142.3251  159.8611 C   0  0  0  0  0  0  0  0  0  0  0  0
  153.2529  140.9269  160.4632 C   0  0  0  0  0  0  0  0  0  0  0  0
  152.6039  139.9680  159.4533 C   0  0  0  0  0  0  0  0  0  0  0  0
  145.7558  134.9167  155.9988 H   0  0  0  0  0  0  0  0  0  0  0  0
  146.9730  132.0062  154.7534 H   0  0  0  0  0  0  0  0  0  0  0  0
  148.5784  134.2293  153.4101 H   0  0  0  0  0  0  0  0  0  0  0  0
  145.5417  134.1691  153.7461 H   0  0  0  0  0  0  0  0  0  0  0  0
  150.7685  139.1411  154.3113 H   0  0  0  0  0  0  0  0  0  0  0  0
  151.6796  141.3928  155.5939 H   0  0  0  0  0  0  0  0  0  0  0  0
  149.9856  141.0083  155.8669 H   0  0  0  0  0  0  0  0  0  0  0  0
  151.1346  138.5172  156.0382 H   0  0  0  0  0  0  0  0  0  0  0  0
  152.4275  139.4759  156.7131 H   0  0  0  0  0  0  0  0  0  0  0  0
  150.6935  138.5051  158.3564 H   0  0  0  0  0  0  0  0  0  0  0  0
  149.0028  140.8370  157.7408 H   0  0  0  0  0  0  0  0  0  0  0  0
  145.3562  138.1630  159.0360 H   0  0  0  0  0  0  0  0  0  0  0  0
  149.2539  135.7904  154.4996 H   0  0  0  0  0  0  0  0  0  0  0  0
  149.4401  131.5574  154.2310 H   0  0  0  0  0  0  0  0  0  0  0  0
  149.8556  132.9612  155.1972 H   0  0  0  0  0  0  0  0  0  0  0  0
  149.0712  131.9783  156.9915 H   0  0  0  0  0  0  0  0  0  0  0  0
  147.9982  132.3162  152.2498 H   0  0  0  0  0  0  0  0  0  0  0  0
  147.4007  135.8171  152.6846 H   0  0  0  0  0  0  0  0  0  0  0  0
  150.5634  140.5697  159.7803 H   0  0  0  0  0  0  0  0  0  0  0  0
  152.0414  141.8645  157.4453 H   0  0  0  0  0  0  0  0  0  0  0  0
  150.4803  142.3510  158.0627 H   0  0  0  0  0  0  0  0  0  0  0  0
  152.2398  143.8496  158.8982 H   0  0  0  0  0  0  0  0  0  0  0  0
  151.4208  143.0275  160.2039 H   0  0  0  0  0  0  0  0  0  0  0  0
  154.1460  142.2818  159.0365 H   0  0  0  0  0  0  0  0  0  0  0  0
  153.8582  143.0005  160.6044 H   0  0  0  0  0  0  0  0  0  0  0  0
  154.2184  140.5329  160.7814 H   0  0  0  0  0  0  0  0  0  0  0  0
  152.6339  140.9894  161.3591 H   0  0  0  0  0  0  0  0  0  0  0  0
  152.4887  138.9968  159.9347 H   0  0  0  0  0  0  0  0  0  0  0  0
  153.2833  139.8123  158.6142 H   0  0  0  0  0  0  0  0  0  0  0  0
  1  2  1  0  0  0  0
  1 34  1  0  0  0  0
  2  3  1  0  0  0  0
  2 35  1  0  0  0  0
  2 36  1  0  0  0  0
  3  4  1  0  0  0  0
  3 37  1  0  0  0  0
  3 38  1  0  0  0  0
  4  5  1  0  0  0  0
  4 24  1  0  0  0  0
  4 39  1  0  0  0  0
  5  6  1  0  0  0  0
  5 40  1  0  0  0  0
  6 11  1  0  0  0  0
  6  7  2  0  0  0  0
  7  8  1  0  0  0  0
  8  9  2  0  0  0  0
  8 41  1  0  0  0  0
  9 10  1  0  0  0  0
 10 14  1  0  0  0  0
 10 11  2  0  0  0  0
 11 12  1  0  0  0  0
 12 13  2  0  0  0  0
 13 14  1  0  0  0  0
 13 42  1  0  0  0  0
 14 15  1  0  0  0  0
 15 30  1  0  0  0  0
 15 22  1  0  0  0  0
 15 16  1  0  0  0  0
 16 17  1  0  0  0  0
 17 31  1  0  0  0  0
 17 18  1  0  0  0  0
 17 20  1  0  0  0  0
 18 19  1  0  0  0  0
 18 43  1  0  0  0  0
 18 44  1  0  0  0  0
 19 45  1  0  0  0  0
 20 32  1  0  0  0  0
 20 21  1  0  0  0  0
 20 22  1  0  0  0  0
 21 46  1  0  0  0  0
 22 33  1  0  0  0  0
 22 23  1  0  0  0  0
 23 47  1  0  0  0  0
 24 29  1  0  0  0  0
 24 25  1  0  0  0  0
 24 48  1  0  0  0  0
 25 26  1  0  0  0  0
 25 49  1  0  0  0  0
 25 50  1  0  0  0  0
 26 27  1  0  0  0  0
 26 51  1  0  0  0  0
 26 52  1  0  0  0  0
 27 28  1  0  0  0  0
 27 53  1  0  0  0  0
 27 54  1  0  0  0  0
 28 29  1  0  0  0  0
 28 55  1  0  0  0  0
 28 56  1  0  0  0  0
 29 57  1  0  0  0  0
 29 58  1  0  0  0  0
M  END
> <s_m_source_file>
AV-unprocessed.smi

> <i_m_source_file_index>
109

> <i_lp_mmshare_version>
43012

> <i_f3d_flags>
0

> <s_epik_input>
W0NIMl0xW0NIMl1bQ0gyXVtDSDJdW0NIMl1bQ0hdMVtDQEhdKFtDSDJdW0NIMl1bT0hdKVtOSF1jKG5bY0hdbjIpYyhjMjMpbltjSF1uM1tDQEBIXTRPW0NASF0oW0NIMl1bT0hdKVtDQEBIXShbT0hdKVtDQEhdNFtPSF0=

> <s_epik_cmdline>
J2VwaWtfcHl0aG9uJywgJy1waCcsICc3LjAnLCAnLXRuJywgJzgnLCAnLW1hJywgJzIwMCcsICctbWV0YWxfYmluZGluZycsICctaW1hZScsICc8aW5maWxlLm1hZT4nLCAnLW9tYWUnLCAnPG91dGZpbGUubWFlPic=

> <r_lp_tautomer_probability>
1

> <r_epik_Ionization_Penalty>
0.000793976

> <r_epik_Ionization_Penalty_Charging>
0

> <r_epik_Ionization_Penalty_Neutral>
0.000793976

> <r_epik_State_Penalty>
-0

> <r_epik_Charging_Adjusted_Penalty>
0

> <i_epik_Tot_Q>
0

> <i_epik_Tot_abs_Q>
0

> <r_epik_Metal_State_Penalty>
-0

> <b_epik_Metal_Only>
0

> <s_epik_Chemistry_Notes>
This compound contains an acetal/aminal-like group ( X-CH(R)-Y where X, Y are N, S, or O) that may be acid/base labile, releasing an aldehyde.

> <s_lp_Force_Field>
OPLS_2005

> <r_lp_Energy>
53.0649

> <b_lp_Chiralities_Consistent>
1

> <s_lp_Variant>
AV-unprocessed.smi:109-17

> <Gold.Version>
5.8.1

> <Gold.Id.Protein>
6NUR|6NUR_protein|mol2

> <Gold.PLP.Fitness>
43.5958

> <Gold.PLP.PLP>
-35.9949

> <Gold.PLP.part.hbond>
-4.5307

> <Gold.PLP.part.metal>
0.0000

> <Gold.PLP.part.buried>
-5.4922

> <Gold.PLP.part.nonpolar>
-26.2250

> <Gold.PLP.part.repulsive>
0.2024

> <Gold.PLP.ligand.clash>
0.0000

> <Gold.PLP.ligand.torsion>
1.5879

> <Gold.PLP.Chemscore.Hbond>
2.5819

> <Gold.PLP.Chemscore.CHOScore>
0.9573

> <Gold.PLP.Chemscore.Metal>
0.0000

> <Gold.Chemscore.Hbonds>
donor molecule, donor type, donor heavy atom, donor atom, acceptor molecule, acceptor atom, score
      L1  H    23    47       P1  7948  1.00
      P1  H  7989  7998       L1     1  0.54
      L1  C    13    42       P1  7948  0.61

> <Gold.PLP.Chemscore.Internal.Correction>
0.1591

> <Gold.Rescore>
     Score         DG    S(hbond)    S(metal)    S(lipo)     H(rot)  DE(clash)    DE(int)     intcor
      7.20      -9.77       2.66        0.00      80.36       5.47       0.00       2.57       ----

> <Gold.Chemscore.Fitness>
7.2040

> <Gold.Chemscore.DG>
-9.7697

> <Gold.Chemscore.ZeroCoef>
-5.4800

> <Gold.Chemscore.Hbond>
2.6590

> <Gold.Chemscore.Metal>
0.0000

> <Gold.Chemscore.Lipo>
80.3603

> <Gold.Chemscore.Internal_Hbond>
0.0000

> <Gold.Chemscore.DEClash>
0.0000

> <Gold.Chemscore.DEInternal>
2.5657

> <Gold.Chemscore.Rot>
5.4662

> <Gold.Chemscore.Internal.Correction>
   9.000000E+99

> <Gold.Chemscore.Hbonds>
donor molecule, donor type, donor heavy atom, donor atom, acceptor molecule, acceptor atom, score
      L1  H    23    47       P1  7948  1.00
      P1  H  7989  7998       L1     1  0.33

> <Gold.Chemscore.Hbond.Weighted>
-8.8811

> <Gold.Chemscore.Metal.Weighted>
-0.0000

> <Gold.Chemscore.Lipo.Weighted>
-9.4022

> <Gold.Chemscore.Internal_Hbond.Weighted>
0.0000

> <Gold.Chemscore.DEClash.Weighted>
0.0000

> <Gold.Chemscore.DEInternal.Weighted>
2.5657

> <Gold.Chemscore.Rot.Weighted>
13.9935

> <Gold.Chemscore.Internal.Correction.Weighted>
   9.000000E+99

> <Gold.Protein.RotatedTorsions>
[ 6907 6896 6895 6894 ] final  115.47 input  -60.11 | X-H torsion
[ 7974 7965 7964 7962 ] final   33.16 input  175.53 | X-H torsion
[ 8008 7997 7996 7995 ] final -120.60 input   59.86 | X-H torsion
[ 10167 10162 10161 10158 ] final   10.60 input  -65.29 | X-H torsion
[ 10718 10713 10712 10709 ] final  128.00 input   66.30 | X-H torsion
[ 10763 10752 10751 10750 ] final  -52.58 input  -60.55 | X-H torsion
[ 11005 11000 10999 10996 ] final   40.97 input  -57.11 | X-H torsion

> <Gold.Protein.ActiveResidues>
 VAL166  LYS551  ARG553  GLY616  TRP617  ASP618  TYR619  PRO620  LYS621  CYS622 
 ASP623  PHE694  ASN695  SER759  ASP760  ASP761  ALA762  ILE779  LEU786  VAL792 
 PHE793  MET794  SER795  GLU796  ALA797  LYS798  CYS799  TRP800  GLU811  SER814 

> <Gold.Protein.RotatedAtoms>
  152.4740  133.8094  159.6995 H   0  0  0  0  0  0  0  0  0  0  0  0  # atno 6907 bound_to 6896
  150.8745  133.7449  159.2957 H   0  0  0  0  0  0  0  0  0  0  0  0  # atno 6908 bound_to 6896
  151.4973  135.1063  159.9871 H   0  0  0  0  0  0  0  0  0  0  0  0  # atno 6909 bound_to 6896
  146.1439  139.6433  142.9144 H   0  0  0  0  0  0  0  0  0  0  0  0  # atno 7974 bound_to 7965
  155.1344  140.0401  157.2783 H   0  0  0  0  0  0  0  0  0  0  0  0  # atno 8008 bound_to 7997
  154.6519  140.2571  155.7178 H   0  0  0  0  0  0  0  0  0  0  0  0  # atno 8009 bound_to 7997
  156.2581  140.2834  156.0956 H   0  0  0  0  0  0  0  0  0  0  0  0  # atno 8010 bound_to 7997
  140.6184  143.8258  150.7146 H   0  0  0  0  0  0  0  0  0  0  0  0  # atno 10167 bound_to 10162
  157.5283  131.1098  150.9048 H   0  0  0  0  0  0  0  0  0  0  0  0  # atno 10718 bound_to 10713
  154.1450  135.6499  153.4950 H   0  0  0  0  0  0  0  0  0  0  0  0  # atno 10763 bound_to 10752
  153.0154  135.5324  154.6866 H   0  0  0  0  0  0  0  0  0  0  0  0  # atno 10764 bound_to 10752
  154.6138  135.2957  155.0374 H   0  0  0  0  0  0  0  0  0  0  0  0  # atno 10765 bound_to 10752
  140.1879  134.4023  155.8163 H   0  0  0  0  0  0  0  0  0  0  0  0  # atno 11005 bound_to 11000
  145.4983  141.0438  143.2555 LP  0  0  0  0  0  0  0  0  0  0  0  0  # atno 17320 bound_to 7965
  144.7824  139.6498  143.7149 LP  0  0  0  0  0  0  0  0  0  0  0  0  # atno 17321 bound_to 7965
  140.1842  143.4089  152.1911 LP  0  0  0  0  0  0  0  0  0  0  0  0  # atno 17342 bound_to 10162
  139.5418  144.7263  151.4710 LP  0  0  0  0  0  0  0  0  0  0  0  0  # atno 17343 bound_to 10162
  156.9637  130.5465  149.5287 LP  0  0  0  0  0  0  0  0  0  0  0  0  # atno 17370 bound_to 10713
  156.0403  130.5487  150.8755 LP  0  0  0  0  0  0  0  0  0  0  0  0  # atno 17371 bound_to 10713
  141.2225  133.7032  156.8044 LP  0  0  0  0  0  0  0  0  0  0  0  0  # atno 17394 bound_to 11000
  140.2193  134.8769  157.3359 LP  0  0  0  0  0  0  0  0  0  0  0  0  # atno 17395 bound_to 11000

$$$$
