AV-unprocessed.smi:3156|AV-procd|sdf|12033|dock9
  -GOLD-   2272017453D 1   1.00000     0.00000
 Structure written by MMmdl.
 41 42  0  0  0  0  0  0  0  0  2 V2000
  150.0883  139.7755  154.7198 C   0  0  0  0  0  0  0  0  0  0  0  0
  149.3229  141.1109  154.6020 C   0  0  2  0  0  0  0  0  0  0  0  0
  149.8584  142.0919  155.5739 N   0  3  0  0  0  0  0  0  0  0  0  0
  150.0400  141.5866  156.9513 C   0  0  0  0  0  0  0  0  0  0  0  0
  151.1805  142.3289  157.6619 C   0  0  2  0  0  0  0  0  0  0  0  0
  151.3861  141.8196  159.1020 C   0  0  0  0  0  0  0  0  0  0  0  0
  152.4589  142.6470  159.8194 C   0  0  0  0  0  0  0  0  0  0  0  0
  152.1113  144.1360  159.7250 C   0  0  0  0  0  0  0  0  0  0  0  0
  151.8636  144.5339  158.2617 C   0  0  0  0  0  0  0  0  0  0  0  0
  150.8415  143.7140  157.7028 O   0  0  0  0  0  0  0  0  0  0  0  0
  147.7925  140.9506  154.8105 C   0  0  1  0  0  0  0  0  0  0  0  0
  147.0029  142.1994  154.3714 C   0  0  0  0  0  0  0  0  0  0  0  0
  147.2632  139.7666  154.1444 N   0  0  0  0  0  0  0  0  0  0  0  0
  147.2632  139.4737  152.7960 C   0  0  0  0  0  0  0  0  0  0  0  0
  146.6567  138.2602  152.6412 C   0  0  0  0  0  0  0  0  0  0  0  0
  146.3187  137.8790  153.9694 C   0  0  0  0  0  0  0  0  0  0  0  0
  146.6824  138.7811  154.8664 N   0  0  0  0  0  0  0  0  0  0  0  0
  149.7629  139.0536  153.9709 H   0  0  0  0  0  0  0  0  0  0  0  0
  149.9425  139.3222  155.7009 H   0  0  0  0  0  0  0  0  0  0  0  0
  151.1598  139.9072  154.5736 H   0  0  0  0  0  0  0  0  0  0  0  0
  149.4832  141.5064  153.5975 H   0  0  0  0  0  0  0  0  0  0  0  0
  150.7661  142.3859  155.2428 H   0  0  0  0  0  0  0  0  0  0  0  0
  149.1183  141.6916  157.5234 H   0  0  0  0  0  0  0  0  0  0  0  0
  150.2684  140.5212  156.9023 H   0  0  0  0  0  0  0  0  0  0  0  0
  152.1040  142.1950  157.0951 H   0  0  0  0  0  0  0  0  0  0  0  0
  150.4473  141.8851  159.6539 H   0  0  0  0  0  0  0  0  0  0  0  0
  151.6715  140.7670  159.0952 H   0  0  0  0  0  0  0  0  0  0  0  0
  152.5428  142.3406  160.8625 H   0  0  0  0  0  0  0  0  0  0  0  0
  153.4317  142.4669  159.3598 H   0  0  0  0  0  0  0  0  0  0  0  0
  151.2168  144.3423  160.3144 H   0  0  0  0  0  0  0  0  0  0  0  0
  152.9131  144.7397  160.1514 H   0  0  0  0  0  0  0  0  0  0  0  0
  151.5490  145.5761  158.2053 H   0  0  0  0  0  0  0  0  0  0  0  0
  152.7779  144.4458  157.6733 H   0  0  0  0  0  0  0  0  0  0  0  0
  147.6138  140.8092  155.8779 H   0  0  0  0  0  0  0  0  0  0  0  0
  147.2871  143.0785  154.9497 H   0  0  0  0  0  0  0  0  0  0  0  0
  145.9314  142.0535  154.5127 H   0  0  0  0  0  0  0  0  0  0  0  0
  147.1690  142.4287  153.3182 H   0  0  0  0  0  0  0  0  0  0  0  0
  147.6874  140.1466  152.0652 H   0  0  0  0  0  0  0  0  0  0  0  0
  146.4822  137.7254  151.7194 H   0  0  0  0  0  0  0  0  0  0  0  0
  145.8223  136.9804  154.3058 H   0  0  0  0  0  0  0  0  0  0  0  0
  149.2498  142.8980  155.5939 H   0  0  0  0  0  0  0  0  0  0  0  0
  1  2  1  0  0  0  0
  1 18  1  0  0  0  0
  1 19  1  0  0  0  0
  1 20  1  0  0  0  0
  2  3  1  0  0  0  0
  2 11  1  0  0  0  0
  2 21  1  0  0  0  0
  3  4  1  0  0  0  0
  3 22  1  0  0  0  0
  3 41  1  0  0  0  0
  4  5  1  0  0  0  0
  4 23  1  0  0  0  0
  4 24  1  0  0  0  0
  5 10  1  0  0  0  0
  5  6  1  0  0  0  0
  5 25  1  0  0  0  0
  6  7  1  0  0  0  0
  6 26  1  0  0  0  0
  6 27  1  0  0  0  0
  7  8  1  0  0  0  0
  7 28  1  0  0  0  0
  7 29  1  0  0  0  0
  8  9  1  0  0  0  0
  8 30  1  0  0  0  0
  8 31  1  0  0  0  0
  9 10  1  0  0  0  0
  9 32  1  0  0  0  0
  9 33  1  0  0  0  0
 11 12  1  0  0  0  0
 11 13  1  0  0  0  0
 11 34  1  0  0  0  0
 12 35  1  0  0  0  0
 12 36  1  0  0  0  0
 12 37  1  0  0  0  0
 13 17  1  0  0  0  0
 13 14  1  0  0  0  0
 14 15  2  0  0  0  0
 14 38  1  0  0  0  0
 15 16  1  0  0  0  0
 15 39  1  0  0  0  0
 16 17  2  0  0  0  0
 16 40  1  0  0  0  0
M  CHG  1   3   1
M  END
> <s_m_source_file>
AV-unprocessed.smi

> <i_m_source_file_index>
3156

> <i_lp_mmshare_version>
43012

> <i_f3d_flags>
0

> <s_epik_input>
bjFbY0hdW2NIXVtjSF1uMVtDQEBIXShbQ0gzXSlbQ0BIXShbQ0gzXSlbTkhdW0NIMl1bQ0BASF0yW0NIMl1bQ0gyXVtDSDJdW0NIMl1PMg==

> <s_epik_cmdline>
J2VwaWtfcHl0aG9uJywgJy1waCcsICc3LjAnLCAnLXRuJywgJzgnLCAnLW1hJywgJzIwMCcsICctbWV0YWxfYmluZGluZycsICctaW1hZScsICc8aW5maWxlLm1hZT4nLCAnLW9tYWUnLCAnPG91dGZpbGUubWFlPic=

> <r_lp_tautomer_probability>
1

> <r_epik_Ionization_Penalty>
0.00658015

> <r_epik_Ionization_Penalty_Charging>
0.00656881

> <r_epik_Ionization_Penalty_Neutral>
1.13431e-05

> <r_epik_State_Penalty>
0.0048654

> <r_epik_Charging_Adjusted_Penalty>
0.0114342

> <i_epik_Tot_Q>
1

> <i_epik_Tot_abs_Q>
1

> <r_epik_Metal_State_Penalty>
-0

> <b_epik_Metal_Only>
0

> <s_lp_Force_Field>
OPLS_2005

> <r_lp_Energy>
17.6132

> <b_lp_Chiralities_Consistent>
1

> <s_lp_Variant>
AV-unprocessed.smi:3156-5

> <Gold.Version>
5.8.1

> <Gold.Id.Protein>
6NUR|6NUR_protein|mol2

> <Gold.PLP.Fitness>
44.9143

> <Gold.PLP.PLP>
-36.8825

> <Gold.PLP.part.hbond>
-1.0000

> <Gold.PLP.part.metal>
0.0000

> <Gold.PLP.part.buried>
-2.0868

> <Gold.PLP.part.nonpolar>
-34.8833

> <Gold.PLP.part.repulsive>
0.7205

> <Gold.PLP.ligand.clash>
0.0000

> <Gold.PLP.ligand.torsion>
0.5167

> <Gold.PLP.Chemscore.Hbond>
2.0000

> <Gold.PLP.Chemscore.CHOScore>
0.9965

> <Gold.PLP.Chemscore.Metal>
0.0000

> <Gold.Chemscore.Hbonds>
donor molecule, donor type, donor heavy atom, donor atom, acceptor molecule, acceptor atom, score
      L1  H     3    41       P1  8028  2.00
      L1  C    14    38       P1  7957  0.97

> <Gold.PLP.Chemscore.Internal.Correction>
0.0756

> <Gold.Rescore>
     Score         DG    S(hbond)    S(metal)    S(lipo)     H(rot)  DE(clash)    DE(int)     intcor
     16.10     -16.73       1.00        0.00     102.52       1.59       0.13       0.49       ----

> <Gold.Chemscore.Fitness>
16.1037

> <Gold.Chemscore.DG>
-16.7261

> <Gold.Chemscore.ZeroCoef>
-5.4800

> <Gold.Chemscore.Hbond>
0.9974

> <Gold.Chemscore.Metal>
0.0000

> <Gold.Chemscore.Lipo>
102.5220

> <Gold.Chemscore.Internal_Hbond>
0.0000

> <Gold.Chemscore.DEClash>
0.1326

> <Gold.Chemscore.DEInternal>
0.4898

> <Gold.Chemscore.Rot>
1.5938

> <Gold.Chemscore.Internal.Correction>
   9.000000E+99

> <Gold.Chemscore.Hbonds>
donor molecule, donor type, donor heavy atom, donor atom, acceptor molecule, acceptor atom, score
      L1  H     3    41       P1  8028  0.98

> <Gold.Chemscore.Hbond.Weighted>
-3.3313

> <Gold.Chemscore.Metal.Weighted>
-0.0000

> <Gold.Chemscore.Lipo.Weighted>
-11.9951

> <Gold.Chemscore.Internal_Hbond.Weighted>
0.0000

> <Gold.Chemscore.DEClash.Weighted>
0.1326

> <Gold.Chemscore.DEInternal.Weighted>
0.4898

> <Gold.Chemscore.Rot.Weighted>
4.0802

> <Gold.Chemscore.Internal.Correction.Weighted>
   9.000000E+99

> <Gold.Protein.RotatedTorsions>
[ 6907 6896 6895 6894 ] final   -2.41 input  -60.11 | X-H torsion
[ 7974 7965 7964 7962 ] final   79.63 input  175.53 | X-H torsion
[ 8008 7997 7996 7995 ] final  -45.93 input   59.86 | X-H torsion
[ 10167 10162 10161 10158 ] final  -42.22 input  -65.29 | X-H torsion
[ 10718 10713 10712 10709 ] final   34.01 input   66.30 | X-H torsion
[ 10763 10752 10751 10750 ] final  134.31 input  -60.55 | X-H torsion
[ 11005 11000 10999 10996 ] final  -47.84 input  -57.11 | X-H torsion

> <Gold.Protein.ActiveResidues>
 VAL166  LYS551  ARG553  GLY616  TRP617  ASP618  TYR619  PRO620  LYS621  CYS622 
 ASP623  PHE694  ASN695  SER759  ASP760  ASP761  ALA762  ILE779  LEU786  VAL792 
 PHE793  MET794  SER795  GLU796  ALA797  LYS798  CYS799  TRP800  GLU811  SER814 

> <Gold.Protein.RotatedAtoms>
  151.5304  135.1068  159.9900 H   0  0  0  0  0  0  0  0  0  0  0  0  # atno 6907 bound_to 6896
  152.4581  133.7761  159.6836 H   0  0  0  0  0  0  0  0  0  0  0  0  # atno 6908 bound_to 6896
  150.8532  133.7689  159.3043 H   0  0  0  0  0  0  0  0  0  0  0  0  # atno 6909 bound_to 6896
  145.6617  139.2473  143.1919 H   0  0  0  0  0  0  0  0  0  0  0  0  # atno 7974 bound_to 7965
  154.4004  140.1384  156.3928 H   0  0  0  0  0  0  0  0  0  0  0  0  # atno 8008 bound_to 7997
  155.7898  140.3479  155.5322 H   0  0  0  0  0  0  0  0  0  0  0  0  # atno 8009 bound_to 7997
  155.8591  140.0953  157.1616 H   0  0  0  0  0  0  0  0  0  0  0  0  # atno 8010 bound_to 7997
  140.6977  143.3050  151.3177 H   0  0  0  0  0  0  0  0  0  0  0  0  # atno 10167 bound_to 10162
  157.3051  130.7370  149.6690 H   0  0  0  0  0  0  0  0  0  0  0  0  # atno 10718 bound_to 10713
  153.8215  135.3115  155.3410 H   0  0  0  0  0  0  0  0  0  0  0  0  # atno 10763 bound_to 10752
  154.8010  135.4726  154.0280 H   0  0  0  0  0  0  0  0  0  0  0  0  # atno 10764 bound_to 10752
  153.1690  135.6874  153.8724 H   0  0  0  0  0  0  0  0  0  0  0  0  # atno 10765 bound_to 10752
  141.0665  133.6692  156.3355 H   0  0  0  0  0  0  0  0  0  0  0  0  # atno 11005 bound_to 11000
  146.1120  140.7417  142.9499 LP  0  0  0  0  0  0  0  0  0  0  0  0  # atno 17320 bound_to 7965
  144.7087  140.3954  143.7098 LP  0  0  0  0  0  0  0  0  0  0  0  0  # atno 17321 bound_to 7965
  139.6452  144.0464  152.2585 LP  0  0  0  0  0  0  0  0  0  0  0  0  # atno 17342 bound_to 10162
  139.9982  144.6312  150.7753 LP  0  0  0  0  0  0  0  0  0  0  0  0  # atno 17343 bound_to 10162
  155.9674  130.4268  150.4716 LP  0  0  0  0  0  0  0  0  0  0  0  0  # atno 17370 bound_to 10713
  157.2704  131.0586  151.2263 LP  0  0  0  0  0  0  0  0  0  0  0  0  # atno 17371 bound_to 10713
  140.5762  134.5791  157.5469 LP  0  0  0  0  0  0  0  0  0  0  0  0  # atno 17394 bound_to 11000
  139.9481  134.7665  156.0513 LP  0  0  0  0  0  0  0  0  0  0  0  0  # atno 17395 bound_to 11000

$$$$
