AV-unprocessed.smi:1072|AV-procd|sdf|4686|dock3
  -GOLD-   22720 3203D 1   1.00000     0.00000
 Structure written by MMmdl.
 46 47  0  0  0  0  0  0  0  0  1 V2000
  151.0216  143.1174  158.0336 C   0  0  0  0  0  0  0  0  0  0  0  0
  151.0271  141.9572  157.0623 C   0  0  0  0  0  0  0  0  0  0  0  0
  149.9836  141.9884  156.1519 N   0  0  0  0  0  0  0  0  0  0  0  0
  149.9049  140.9666  155.2224 C   0  0  0  0  0  0  0  0  0  0  0  0
  148.7323  141.0752  154.2629 C   0  0  0  0  0  0  0  0  0  0  0  0
  150.8223  139.9669  155.1979 C   0  0  0  0  0  0  0  0  0  0  0  0
  150.7706  138.8241  154.1848 C   0  0  0  0  0  0  0  0  0  0  0  0
  150.7500  137.4118  154.7748 C   0  0  0  0  0  0  0  0  0  0  0  0
  151.7483  136.9668  155.3403 O   0  0  0  0  0  0  0  0  0  0  0  0
  149.6012  136.7284  154.6209 N   0  0  0  0  0  0  0  0  0  0  0  0
  149.2668  135.3599  155.0401 C   0  0  1  0  0  0  0  0  0  0  0  0
  149.4341  135.3514  156.5750 C   0  0  0  0  0  0  0  0  0  0  0  0
  147.7987  135.0219  154.6592 C   0  0  0  0  0  0  0  0  0  0  0  0
  147.4281  133.5509  154.9201 C   0  0  0  0  0  0  0  0  0  0  0  0
  148.3999  132.5859  154.2177 C   0  0  2  0  0  0  0  0  0  0  0  0
  148.0176  131.1208  154.4720 C   0  0  0  0  0  0  0  0  0  0  0  0
  149.8480  132.8742  154.6524 C   0  0  0  0  0  0  0  0  0  0  0  0
  150.2408  134.3390  154.3889 C   0  0  0  0  0  0  0  0  0  0  0  0
  151.9214  139.9925  156.1918 C   0  0  0  0  0  0  0  0  0  0  0  0
  152.7927  139.1241  156.2119 O   0  0  0  0  0  0  0  0  0  0  0  0
  151.9511  141.0468  157.1190 N   0  0  0  0  0  0  0  0  0  0  0  0
  149.2829  142.7154  156.1321 H   0  0  0  0  0  0  0  0  0  0  0  0
  151.7438  142.9581  158.8353 H   0  0  0  0  0  0  0  0  0  0  0  0
  150.0354  143.2357  158.4839 H   0  0  0  0  0  0  0  0  0  0  0  0
  151.2816  144.0422  157.5176 H   0  0  0  0  0  0  0  0  0  0  0  0
  148.0757  140.2109  154.3640 H   0  0  0  0  0  0  0  0  0  0  0  0
  149.0857  141.1223  153.2325 H   0  0  0  0  0  0  0  0  0  0  0  0
  148.1385  141.9700  154.4534 H   0  0  0  0  0  0  0  0  0  0  0  0
  151.6363  138.9149  153.5277 H   0  0  0  0  0  0  0  0  0  0  0  0
  149.9096  138.9298  153.5244 H   0  0  0  0  0  0  0  0  0  0  0  0
  148.8604  137.2171  154.1394 H   0  0  0  0  0  0  0  0  0  0  0  0
  149.2137  134.3801  157.0156 H   0  0  0  0  0  0  0  0  0  0  0  0
  148.7696  136.0756  157.0482 H   0  0  0  0  0  0  0  0  0  0  0  0
  150.4541  135.6092  156.8628 H   0  0  0  0  0  0  0  0  0  0  0  0
  147.1103  135.6750  155.1965 H   0  0  0  0  0  0  0  0  0  0  0  0
  147.6242  135.2154  153.6012 H   0  0  0  0  0  0  0  0  0  0  0  0
  147.4149  133.3516  155.9918 H   0  0  0  0  0  0  0  0  0  0  0  0
  146.4116  133.3698  154.5692 H   0  0  0  0  0  0  0  0  0  0  0  0
  148.3304  132.7615  153.1431 H   0  0  0  0  0  0  0  0  0  0  0  0
  148.0664  130.8770  155.5338 H   0  0  0  0  0  0  0  0  0  0  0  0
  148.6875  130.4424  153.9431 H   0  0  0  0  0  0  0  0  0  0  0  0
  147.0033  130.9151  154.1293 H   0  0  0  0  0  0  0  0  0  0  0  0
  149.9736  132.6371  155.7090 H   0  0  0  0  0  0  0  0  0  0  0  0
  150.5322  132.2173  154.1142 H   0  0  0  0  0  0  0  0  0  0  0  0
  150.2710  134.4750  153.3085 H   0  0  0  0  0  0  0  0  0  0  0  0
  151.2593  134.5150  154.7372 H   0  0  0  0  0  0  0  0  0  0  0  0
  1 23  1  0  0  0  0
  1 24  1  0  0  0  0
  1 25  1  0  0  0  0
  1  2  1  0  0  0  0
  2  3  1  0  0  0  0
  2 21  2  0  0  0  0
  3  4  1  0  0  0  0
  3 22  1  0  0  0  0
  4  6  2  0  0  0  0
  4  5  1  0  0  0  0
  5 26  1  0  0  0  0
  5 27  1  0  0  0  0
  5 28  1  0  0  0  0
  6 19  1  0  0  0  0
  6  7  1  0  0  0  0
  7  8  1  0  0  0  0
  7 29  1  0  0  0  0
  7 30  1  0  0  0  0
  8  9  2  0  0  0  0
  8 10  1  0  0  0  0
 10 11  1  0  0  0  0
 10 31  1  0  0  0  0
 11 18  1  0  0  0  0
 11 12  1  0  0  0  0
 11 13  1  0  0  0  0
 12 32  1  0  0  0  0
 12 33  1  0  0  0  0
 12 34  1  0  0  0  0
 13 14  1  0  0  0  0
 13 35  1  0  0  0  0
 13 36  1  0  0  0  0
 14 15  1  0  0  0  0
 14 37  1  0  0  0  0
 14 38  1  0  0  0  0
 15 16  1  0  0  0  0
 15 17  1  0  0  0  0
 15 39  1  0  0  0  0
 16 40  1  0  0  0  0
 16 41  1  0  0  0  0
 16 42  1  0  0  0  0
 17 18  1  0  0  0  0
 17 43  1  0  0  0  0
 17 44  1  0  0  0  0
 18 45  1  0  0  0  0
 18 46  1  0  0  0  0
 19 20  2  0  0  0  0
 19 21  1  0  0  0  0
M  END
> <s_m_source_file>
AV-unprocessed.smi

> <i_m_source_file_index>
1072

> <i_lp_mmshare_version>
43012

> <i_f3d_flags>
0

> <s_epik_input>
W0NIM11jMW5jKFtDSDNdKWMoYyg9TylbbkhdMSlbQ0gyXUMoPU8pW05IXVtDQEBdMihbQ0gzXSlbQ0gyXVtDSDJdW0NAQEhdKFtDSDNdKVtDSDJdW0NIMl0y

> <s_epik_cmdline>
J2VwaWtfcHl0aG9uJywgJy1waCcsICc3LjAnLCAnLXRuJywgJzgnLCAnLW1hJywgJzIwMCcsICctbWV0YWxfYmluZGluZycsICctaW1hZScsICc8aW5maWxlLm1hZT4nLCAnLW9tYWUnLCAnPG91dGZpbGUubWFlPic=

> <r_lp_tautomer_probability>
0.156392

> <r_epik_Ionization_Penalty>
0.0131066

> <r_epik_Ionization_Penalty_Charging>
0.0129643

> <r_epik_Ionization_Penalty_Neutral>
0.000142248

> <r_epik_State_Penalty>
1.15342

> <r_epik_Charging_Adjusted_Penalty>
1.16638

> <i_epik_Tot_Q>
0

> <i_epik_Tot_abs_Q>
0

> <r_epik_Metal_State_Penalty>
1.30766

> <b_epik_Metal_Only>
0

> <s_lp_Force_Field>
OPLS_2005

> <r_lp_Energy>
18.066

> <b_lp_Chiralities_Consistent>
1

> <s_lp_Variant>
AV-unprocessed.smi:1072-4

> <Gold.Version>
5.8.1

> <Gold.Id.Protein>
6NUR|6NUR_protein|mol2

> <Gold.PLP.Fitness>
42.6008

> <Gold.PLP.PLP>
-33.8759

> <Gold.PLP.part.hbond>
-4.0000

> <Gold.PLP.part.metal>
0.0000

> <Gold.PLP.part.buried>
-0.3901

> <Gold.PLP.part.nonpolar>
-27.8742

> <Gold.PLP.part.repulsive>
0.1912

> <Gold.PLP.ligand.clash>
0.0000

> <Gold.PLP.ligand.torsion>
0.0931

> <Gold.PLP.Chemscore.Hbond>
2.9680

> <Gold.PLP.Chemscore.CHOScore>
0.0000

> <Gold.PLP.Chemscore.Metal>
0.0000

> <Gold.Chemscore.Hbonds>
donor molecule, donor type, donor heavy atom, donor atom, acceptor molecule, acceptor atom, score
      L1  H     3    22       P1  8028  0.76
      P1  H  7997  8008       L1    20  1.00
      P1  H 10752 10764       L1     9  1.00

> <Gold.PLP.Chemscore.Internal.Correction>
0.0071

> <Gold.Rescore>
     Score         DG    S(hbond)    S(metal)    S(lipo)     H(rot)  DE(clash)    DE(int)     intcor
     15.71     -17.61       2.20        0.00      73.08       1.47       0.25       1.64       ----

> <Gold.Chemscore.Fitness>
15.7148

> <Gold.Chemscore.DG>
-17.6058

> <Gold.Chemscore.ZeroCoef>
-5.4800

> <Gold.Chemscore.Hbond>
2.1965

> <Gold.Chemscore.Metal>
0.0000

> <Gold.Chemscore.Lipo>
73.0776

> <Gold.Chemscore.Internal_Hbond>
0.0000

> <Gold.Chemscore.DEClash>
0.2510

> <Gold.Chemscore.DEInternal>
1.6400

> <Gold.Chemscore.Rot>
1.4690

> <Gold.Chemscore.Internal.Correction>
   9.000000E+99

> <Gold.Chemscore.Hbonds>
donor molecule, donor type, donor heavy atom, donor atom, acceptor molecule, acceptor atom, score
      L1  H     3    22       P1  8028  0.74
      P1  H  7997  8008       L1    20  0.40
      P1  H 10752 10764       L1     9  0.97

> <Gold.Chemscore.Hbond.Weighted>
-7.3364

> <Gold.Chemscore.Metal.Weighted>
-0.0000

> <Gold.Chemscore.Lipo.Weighted>
-8.5501

> <Gold.Chemscore.Internal_Hbond.Weighted>
0.0000

> <Gold.Chemscore.DEClash.Weighted>
0.2510

> <Gold.Chemscore.DEInternal.Weighted>
1.6400

> <Gold.Chemscore.Rot.Weighted>
3.7607

> <Gold.Chemscore.Internal.Correction.Weighted>
   9.000000E+99

> <Gold.Protein.RotatedTorsions>
[ 6907 6896 6895 6894 ] final   81.75 input  -60.11 | X-H torsion
[ 7974 7965 7964 7962 ] final  -45.94 input  175.53 | X-H torsion
[ 8008 7997 7996 7995 ] final  -49.09 input   59.86 | X-H torsion
[ 10167 10162 10161 10158 ] final   31.49 input  -65.29 | X-H torsion
[ 10718 10713 10712 10709 ] final   68.18 input   66.30 | X-H torsion
[ 10763 10752 10751 10750 ] final  -52.00 input  -60.55 | X-H torsion
[ 11005 11000 10999 10996 ] final   66.79 input  -57.11 | X-H torsion

> <Gold.Protein.ActiveResidues>
 VAL166  LYS551  ARG553  GLY616  TRP617  ASP618  TYR619  PRO620  LYS621  CYS622 
 ASP623  PHE694  ASN695  SER759  ASP760  ASP761  ALA762  ILE779  LEU786  VAL792 
 PHE793  MET794  SER795  GLU796  ALA797  LYS798  CYS799  TRP800  GLU811  SER814 

> <Gold.Protein.RotatedAtoms>
  152.5278  134.3155  159.9129 H   0  0  0  0  0  0  0  0  0  0  0  0  # atno 6907 bound_to 6896
  151.3105  133.4076  159.2654 H   0  0  0  0  0  0  0  0  0  0  0  0  # atno 6908 bound_to 6896
  151.0043  134.9363  159.8028 H   0  0  0  0  0  0  0  0  0  0  0  0  # atno 6909 bound_to 6896
  145.9769  140.7324  142.9382 H   0  0  0  0  0  0  0  0  0  0  0  0  # atno 7974 bound_to 7965
  154.4038  140.1305  156.4446 H   0  0  0  0  0  0  0  0  0  0  0  0  # atno 8008 bound_to 7997
  155.7426  140.3489  155.5091 H   0  0  0  0  0  0  0  0  0  0  0  0  # atno 8009 bound_to 7997
  155.9025  140.1022  157.1330 H   0  0  0  0  0  0  0  0  0  0  0  0  # atno 8010 bound_to 7997
  140.4584  144.0943  150.6207 H   0  0  0  0  0  0  0  0  0  0  0  0  # atno 10167 bound_to 10162
  157.6274  130.9360  150.0342 H   0  0  0  0  0  0  0  0  0  0  0  0  # atno 10718 bound_to 10713
  154.1357  135.6513  153.4931 H   0  0  0  0  0  0  0  0  0  0  0  0  # atno 10763 bound_to 10752
  153.0181  135.5303  154.6956 H   0  0  0  0  0  0  0  0  0  0  0  0  # atno 10764 bound_to 10752
  154.6203  135.2964  155.0304 H   0  0  0  0  0  0  0  0  0  0  0  0  # atno 10765 bound_to 10752
  139.9810  134.6744  156.0263 H   0  0  0  0  0  0  0  0  0  0  0  0  # atno 11005 bound_to 11000
  144.6851  140.2843  143.7287 LP  0  0  0  0  0  0  0  0  0  0  0  0  # atno 17320 bound_to 7965
  145.7825  139.1896  143.2149 LP  0  0  0  0  0  0  0  0  0  0  0  0  # atno 17321 bound_to 7965
  140.4123  143.2651  151.9817 LP  0  0  0  0  0  0  0  0  0  0  0  0  # atno 17342 bound_to 10162
  139.4803  144.5904  151.7781 LP  0  0  0  0  0  0  0  0  0  0  0  0  # atno 17343 bound_to 10162
  156.1455  130.3642  149.9517 LP  0  0  0  0  0  0  0  0  0  0  0  0  # atno 17370 bound_to 10713
  156.7549  130.9129  151.3639 LP  0  0  0  0  0  0  0  0  0  0  0  0  # atno 17371 bound_to 10713
  141.1482  133.6552  156.3931 LP  0  0  0  0  0  0  0  0  0  0  0  0  # atno 17394 bound_to 11000
  140.5097  134.6407  157.5279 LP  0  0  0  0  0  0  0  0  0  0  0  0  # atno 17395 bound_to 11000

$$$$
