AV-unprocessed.smi:712|AV-procd|sdf|3473|dock6
  -GOLD-   22720 0463D 1   1.00000     0.00000
 Structure written by MMmdl.
 50 51  0  0  0  0  0  0  0  0  1 V2000
  143.6571  132.5529  150.4094 C   0  0  0  0  0  0  0  0  0  0  0  0
  144.9491  132.6145  151.1978 C   0  0  0  0  0  0  0  0  0  0  0  0
  145.7175  133.8401  151.2665 C   0  0  0  0  0  0  0  0  0  0  0  0
  146.8542  133.8600  151.9801 C   0  0  0  0  0  0  0  0  0  0  0  0
  147.3222  132.7231  152.6639 N   0  0  0  0  0  0  0  0  0  0  0  0
  148.5774  132.8591  153.4212 C   0  0  0  0  0  0  0  0  0  0  0  0
  148.5008  133.9215  154.5263 C   0  0  0  0  0  0  0  0  0  0  0  0
  147.5238  133.9793  155.2737 O   0  0  0  0  0  0  0  0  0  0  0  0
  149.5604  134.7377  154.6319 N   0  0  0  0  0  0  0  0  0  0  0  0
  149.7180  135.8109  155.6100 C   0  0  0  0  0  0  0  0  0  0  0  0
  150.4747  137.0211  155.0335 C   0  0  1  0  0  0  0  0  0  0  0  0
  149.7082  138.3555  155.1504 C   0  0  0  0  0  0  0  0  0  0  0  0
  150.4736  139.4793  154.6201 N   0  0  0  0  0  0  0  0  0  0  0  0
  149.7048  140.7227  154.7352 C   0  0  0  0  0  0  0  0  0  0  0  0
  148.2107  140.6857  154.3287 C   0  0  0  0  0  0  0  0  0  0  0  0
  147.9042  139.7178  153.1734 C   0  0  0  0  0  0  0  0  0  0  0  0
  147.5931  142.0786  154.1159 C   0  0  0  0  0  0  0  0  0  0  0  0
  151.7634  139.5323  155.3032 C   0  0  0  0  0  0  0  0  0  0  0  0
  152.5278  138.2013  155.1991 C   0  0  0  0  0  0  0  0  0  0  0  0
  151.7264  137.1398  155.7049 O   0  0  0  0  0  0  0  0  0  0  0  0
  146.6482  131.5341  152.6337 C   0  0  0  0  0  0  0  0  0  0  0  0
  147.0561  130.5342  153.2255 O   0  0  0  0  0  0  0  0  0  0  0  0
  145.4053  131.5249  151.8536 C   0  0  0  0  0  0  0  0  0  0  0  0
  143.4967  133.4701  149.8422 H   0  0  0  0  0  0  0  0  0  0  0  0
  142.8103  132.4146  151.0819 H   0  0  0  0  0  0  0  0  0  0  0  0
  143.6793  131.7190  149.7073 H   0  0  0  0  0  0  0  0  0  0  0  0
  145.3848  134.7283  150.7494 H   0  0  0  0  0  0  0  0  0  0  0  0
  147.4759  134.7391  152.0671 H   0  0  0  0  0  0  0  0  0  0  0  0
  148.8516  131.9107  153.8850 H   0  0  0  0  0  0  0  0  0  0  0  0
  149.3987  133.0917  152.7404 H   0  0  0  0  0  0  0  0  0  0  0  0
  150.3220  134.6066  153.9820 H   0  0  0  0  0  0  0  0  0  0  0  0
  148.7218  136.1232  155.9246 H   0  0  0  0  0  0  0  0  0  0  0  0
  150.2186  135.4522  156.5106 H   0  0  0  0  0  0  0  0  0  0  0  0
  150.6703  136.8199  153.9786 H   0  0  0  0  0  0  0  0  0  0  0  0
  148.7603  138.2701  154.6179 H   0  0  0  0  0  0  0  0  0  0  0  0
  149.4604  138.5493  156.1948 H   0  0  0  0  0  0  0  0  0  0  0  0
  149.7249  141.0237  155.7837 H   0  0  0  0  0  0  0  0  0  0  0  0
  150.2138  141.5262  154.2008 H   0  0  0  0  0  0  0  0  0  0  0  0
  147.6904  140.2841  155.1994 H   0  0  0  0  0  0  0  0  0  0  0  0
  148.3349  140.0607  152.2328 H   0  0  0  0  0  0  0  0  0  0  0  0
  146.8290  139.6177  153.0240 H   0  0  0  0  0  0  0  0  0  0  0  0
  148.3011  138.7235  153.3795 H   0  0  0  0  0  0  0  0  0  0  0  0
  147.9743  142.5786  153.2283 H   0  0  0  0  0  0  0  0  0  0  0  0
  147.7856  142.7277  154.9706 H   0  0  0  0  0  0  0  0  0  0  0  0
  146.5111  142.0061  154.0024 H   0  0  0  0  0  0  0  0  0  0  0  0
  152.3882  140.3091  154.8689 H   0  0  0  0  0  0  0  0  0  0  0  0
  151.6182  139.7885  156.3539 H   0  0  0  0  0  0  0  0  0  0  0  0
  152.8021  137.9952  154.1635 H   0  0  0  0  0  0  0  0  0  0  0  0
  153.4543  138.2507  155.7710 H   0  0  0  0  0  0  0  0  0  0  0  0
  144.8363  130.6076  151.8068 H   0  0  0  0  0  0  0  0  0  0  0  0
  1  2  1  0  0  0  0
  1 24  1  0  0  0  0
  1 25  1  0  0  0  0
  1 26  1  0  0  0  0
  2 23  2  0  0  0  0
  2  3  1  0  0  0  0
  3  4  2  0  0  0  0
  3 27  1  0  0  0  0
  4  5  1  0  0  0  0
  4 28  1  0  0  0  0
  5  6  1  0  0  0  0
  5 21  1  0  0  0  0
  6  7  1  0  0  0  0
  6 29  1  0  0  0  0
  6 30  1  0  0  0  0
  7  8  2  0  0  0  0
  7  9  1  0  0  0  0
  9 10  1  0  0  0  0
  9 31  1  0  0  0  0
 10 11  1  0  0  0  0
 10 32  1  0  0  0  0
 10 33  1  0  0  0  0
 11 20  1  0  0  0  0
 11 12  1  0  0  0  0
 11 34  1  0  0  0  0
 12 13  1  0  0  0  0
 12 35  1  0  0  0  0
 12 36  1  0  0  0  0
 13 14  1  0  0  0  0
 13 18  1  0  0  0  0
 14 15  1  0  0  0  0
 14 37  1  0  0  0  0
 14 38  1  0  0  0  0
 15 16  1  0  0  0  0
 15 17  1  0  0  0  0
 15 39  1  0  0  0  0
 16 40  1  0  0  0  0
 16 41  1  0  0  0  0
 16 42  1  0  0  0  0
 17 43  1  0  0  0  0
 17 44  1  0  0  0  0
 17 45  1  0  0  0  0
 18 19  1  0  0  0  0
 18 46  1  0  0  0  0
 18 47  1  0  0  0  0
 19 20  1  0  0  0  0
 19 48  1  0  0  0  0
 19 49  1  0  0  0  0
 21 22  2  0  0  0  0
 21 23  1  0  0  0  0
 23 50  1  0  0  0  0
M  END
> <s_m_source_file>
AV-unprocessed.smi

> <i_m_source_file_index>
712

> <i_lp_mmshare_version>
43012

> <i_f3d_flags>
0

> <s_epik_input>
W0NIM11jMVtjSF1bY0hdbihjKD1PKVtjSF0xKVtDSDJdQyg9TylbTkhdW0NIMl1bQ0BASF0yW0NIMl1OKFtDSDJdW0NIMl1PMilbQ0gyXVtDSF0oW0NIM10pW0NIM10=

> <s_epik_cmdline>
J2VwaWtfcHl0aG9uJywgJy1waCcsICc3LjAnLCAnLXRuJywgJzgnLCAnLW1hJywgJzIwMCcsICctbWV0YWxfYmluZGluZycsICctaW1hZScsICc8aW5maWxlLm1hZT4nLCAnLW9tYWUnLCAnPG91dGZpbGUubWFlPic=

> <r_lp_tautomer_probability>
1

> <r_epik_Ionization_Penalty>
1.11669

> <r_epik_Ionization_Penalty_Charging>
4.93496e-07

> <r_epik_Ionization_Penalty_Neutral>
1.11669

> <r_epik_State_Penalty>
1.17516

> <r_epik_Charging_Adjusted_Penalty>
1.17516

> <i_epik_Tot_Q>
0

> <i_epik_Tot_abs_Q>
0

> <r_epik_Metal_State_Penalty>
1.17513

> <b_epik_Metal_Only>
0

> <s_lp_Force_Field>
OPLS_2005

> <r_lp_Energy>
40.1187

> <b_lp_Chiralities_Consistent>
1

> <s_lp_Variant>
AV-unprocessed.smi:712-6

> <Gold.Version>
5.8.1

> <Gold.Id.Protein>
6NUR|6NUR_protein|mol2

> <Gold.PLP.Fitness>
46.8291

> <Gold.PLP.PLP>
-43.6841

> <Gold.PLP.part.hbond>
-3.0000

> <Gold.PLP.part.metal>
0.0000

> <Gold.PLP.part.buried>
-0.1875

> <Gold.PLP.part.nonpolar>
-41.3501

> <Gold.PLP.part.repulsive>
0.4146

> <Gold.PLP.ligand.clash>
0.0000

> <Gold.PLP.ligand.torsion>
1.4217

> <Gold.PLP.Chemscore.Hbond>
0.9600

> <Gold.PLP.Chemscore.CHOScore>
1.0000

> <Gold.PLP.Chemscore.Metal>
0.0000

> <Gold.Chemscore.Hbonds>
donor molecule, donor type, donor heavy atom, donor atom, acceptor molecule, acceptor atom, score
      P1  H 10752 10765       L1    20  0.30
      L1  C     4    28       P1  7948  1.00

> <Gold.PLP.Chemscore.Internal.Correction>
0.1084

> <Gold.Rescore>
     Score         DG    S(hbond)    S(metal)    S(lipo)     H(rot)  DE(clash)    DE(int)     intcor
      9.56     -13.89       0.17        0.00     106.89       1.82       2.96       1.37       ----

> <Gold.Chemscore.Fitness>
9.5593

> <Gold.Chemscore.DG>
-13.8863

> <Gold.Chemscore.ZeroCoef>
-5.4800

> <Gold.Chemscore.Hbond>
0.1709

> <Gold.Chemscore.Metal>
0.0000

> <Gold.Chemscore.Lipo>
106.8866

> <Gold.Chemscore.Internal_Hbond>
0.0000

> <Gold.Chemscore.DEClash>
2.9601

> <Gold.Chemscore.DEInternal>
1.3669

> <Gold.Chemscore.Rot>
1.8243

> <Gold.Chemscore.Internal.Correction>
   9.000000E+99

> <Gold.Chemscore.Hbonds>
donor molecule, donor type, donor heavy atom, donor atom, acceptor molecule, acceptor atom, score
      P1  H 10752 10765       L1    20  0.01

> <Gold.Chemscore.Hbond.Weighted>
-0.5708

> <Gold.Chemscore.Metal.Weighted>
-0.0000

> <Gold.Chemscore.Lipo.Weighted>
-12.5057

> <Gold.Chemscore.Internal_Hbond.Weighted>
0.0000

> <Gold.Chemscore.DEClash.Weighted>
2.9601

> <Gold.Chemscore.DEInternal.Weighted>
1.3669

> <Gold.Chemscore.Rot.Weighted>
4.6703

> <Gold.Chemscore.Internal.Correction.Weighted>
   9.000000E+99

> <Gold.Protein.RotatedTorsions>
[ 6907 6896 6895 6894 ] final -149.79 input  -60.11 | X-H torsion
[ 7974 7965 7964 7962 ] final  -74.76 input  175.53 | X-H torsion
[ 8008 7997 7996 7995 ] final  125.58 input   59.86 | X-H torsion
[ 10167 10162 10161 10158 ] final -117.55 input  -65.29 | X-H torsion
[ 10718 10713 10712 10709 ] final  -10.30 input   66.30 | X-H torsion
[ 10763 10752 10751 10750 ] final -174.15 input  -60.55 | X-H torsion
[ 11005 11000 10999 10996 ] final   38.56 input  -57.11 | X-H torsion

> <Gold.Protein.ActiveResidues>
 VAL166  LYS551  ARG553  GLY616  TRP617  ASP618  TYR619  PRO620  LYS621  CYS622 
 ASP623  PHE694  ASN695  SER759  ASP760  ASP761  ALA762  ILE779  LEU786  VAL792 
 PHE793  MET794  SER795  GLU796  ALA797  LYS798  CYS799  TRP800  GLU811  SER814 

> <Gold.Protein.RotatedAtoms>
  151.1893  133.4677  159.2594 H   0  0  0  0  0  0  0  0  0  0  0  0  # atno 6907 bound_to 6896
  151.1180  135.0063  159.8535 H   0  0  0  0  0  0  0  0  0  0  0  0  # atno 6908 bound_to 6896
  152.5454  134.1806  159.8687 H   0  0  0  0  0  0  0  0  0  0  0  0  # atno 6909 bound_to 6896
  145.6348  140.9327  143.1067 H   0  0  0  0  0  0  0  0  0  0  0  0  # atno 7974 bound_to 7965
  156.2838  140.2713  156.1973 H   0  0  0  0  0  0  0  0  0  0  0  0  # atno 8008 bound_to 7997
  155.0397  140.0386  157.2523 H   0  0  0  0  0  0  0  0  0  0  0  0  # atno 8009 bound_to 7997
  154.7284  140.2702  155.6483 H   0  0  0  0  0  0  0  0  0  0  0  0  # atno 8010 bound_to 7997
  140.0671  143.4912  152.2000 H   0  0  0  0  0  0  0  0  0  0  0  0  # atno 10167 bound_to 10162
  156.6755  130.5022  149.5987 H   0  0  0  0  0  0  0  0  0  0  0  0  # atno 10718 bound_to 10713
  154.5996  135.2853  155.0550 H   0  0  0  0  0  0  0  0  0  0  0  0  # atno 10763 bound_to 10752
  154.1820  135.6455  153.5040 H   0  0  0  0  0  0  0  0  0  0  0  0  # atno 10764 bound_to 10752
  153.0151  135.5426  154.6710 H   0  0  0  0  0  0  0  0  0  0  0  0  # atno 10765 bound_to 10752
  140.2114  134.3750  155.8047 H   0  0  0  0  0  0  0  0  0  0  0  0  # atno 11005 bound_to 11000
  144.7179  139.8130  143.7392 LP  0  0  0  0  0  0  0  0  0  0  0  0  # atno 17320 bound_to 7965
  146.1327  139.4366  143.0158 LP  0  0  0  0  0  0  0  0  0  0  0  0  # atno 17321 bound_to 7965
  139.5858  144.7530  151.3523 LP  0  0  0  0  0  0  0  0  0  0  0  0  # atno 17342 bound_to 10162
  140.7144  143.7306  150.7626 LP  0  0  0  0  0  0  0  0  0  0  0  0  # atno 17343 bound_to 10162
  156.1906  130.6557  151.1057 LP  0  0  0  0  0  0  0  0  0  0  0  0  # atno 17370 bound_to 10713
  157.7062  131.0755  150.6658 LP  0  0  0  0  0  0  0  0  0  0  0  0  # atno 17371 bound_to 10713
  141.2226  133.7145  156.8424 LP  0  0  0  0  0  0  0  0  0  0  0  0  # atno 17394 bound_to 11000
  140.1947  134.8940  157.3100 LP  0  0  0  0  0  0  0  0  0  0  0  0  # atno 17395 bound_to 11000

$$$$
