AV-unprocessed.smi:40|AV-procd|sdf|372|dock1
  -GOLD-   2262016213D 1   1.00000     0.00000
 Structure written by MMmdl.
 47 48  0  0  0  0  0  0  0  0  1 V2000
  156.6980  131.7999  154.0343 C   0  0  0  0  0  0  0  0  0  0  0  0
  156.1209  130.4171  153.7046 C   0  0  0  0  0  0  0  0  0  0  0  0
  154.7845  130.1172  154.4036 C   0  0  0  0  0  0  0  0  0  0  0  0
  154.8729  130.1234  155.9402 C   0  0  0  0  0  0  0  0  0  0  0  0
  153.5116  129.9284  156.6209 C   0  0  0  0  0  0  0  0  0  0  0  0
  152.6180  130.9294  156.1642 O   0  0  0  0  0  0  0  0  0  0  0  0
  151.4795  130.5982  155.5307 C   0  0  0  0  0  0  0  0  0  0  0  0
  151.1116  129.4397  155.3375 O   0  0  0  0  0  0  0  0  0  0  0  0
  150.7600  131.7768  155.0730 N   0  0  0  0  0  0  0  0  0  0  0  0
  149.5843  131.8580  154.4013 C   0  0  0  0  0  0  0  0  0  0  0  0
  148.9006  130.7895  154.0197 N   0  0  0  0  0  0  0  0  0  0  0  0
  147.7183  130.8385  153.3321 C   0  0  0  0  0  0  0  0  0  0  0  0
  147.1370  129.8039  153.0087 O   0  0  0  0  0  0  0  0  0  0  0  0
  147.2137  132.1185  153.0057 N   0  0  0  0  0  0  0  0  0  0  0  0
  145.9001  132.2472  152.2676 C   0  0  1  0  0  0  0  0  0  0  0  0
  145.0939  133.1366  152.9807 O   0  0  0  0  0  0  0  0  0  0  0  0
  144.3723  133.9577  152.0725 C   0  0  2  0  0  0  0  0  0  0  0  0
  143.0439  133.2568  151.7259 C   0  0  0  0  0  0  0  0  0  0  0  0
  145.3538  134.1325  150.9049 C   0  0  2  0  0  0  0  0  0  0  0  0
  144.7007  134.4585  149.6941 O   0  0  0  0  0  0  0  0  0  0  0  0
  146.0553  132.7825  150.8245 C   0  0  1  0  0  0  0  0  0  0  0  0
  147.3955  132.9346  150.3906 O   0  0  0  0  0  0  0  0  0  0  0  0
  147.9226  133.2511  153.3751 C   0  0  0  0  0  0  0  0  0  0  0  0
  149.0864  133.1724  154.0549 C   0  0  0  0  0  0  0  0  0  0  0  0
  149.7566  134.2855  154.4002 F   0  0  0  0  0  0  0  0  0  0  0  0
  145.4167  131.2699  152.2924 H   0  0  0  0  0  0  0  0  0  0  0  0
  144.1554  134.9180  152.5412 H   0  0  0  0  0  0  0  0  0  0  0  0
  146.0690  134.9170  151.1584 H   0  0  0  0  0  0  0  0  0  0  0  0
  145.5256  132.1009  150.1570 H   0  0  0  0  0  0  0  0  0  0  0  0
  157.6747  131.9302  153.5680 H   0  0  0  0  0  0  0  0  0  0  0  0
  156.8241  131.9287  155.1095 H   0  0  0  0  0  0  0  0  0  0  0  0
  156.0539  132.6007  153.6713 H   0  0  0  0  0  0  0  0  0  0  0  0
  156.0043  130.3145  152.6252 H   0  0  0  0  0  0  0  0  0  0  0  0
  156.8469  129.6598  154.0023 H   0  0  0  0  0  0  0  0  0  0  0  0
  154.0614  130.8692  154.0854 H   0  0  0  0  0  0  0  0  0  0  0  0
  154.3941  129.1588  154.0594 H   0  0  0  0  0  0  0  0  0  0  0  0
  155.5408  129.3276  156.2697 H   0  0  0  0  0  0  0  0  0  0  0  0
  155.3164  131.0595  156.2820 H   0  0  0  0  0  0  0  0  0  0  0  0
  153.1094  128.9386  156.4011 H   0  0  0  0  0  0  0  0  0  0  0  0
  153.6273  130.0049  157.7030 H   0  0  0  0  0  0  0  0  0  0  0  0
  151.1925  132.6497  155.3378 H   0  0  0  0  0  0  0  0  0  0  0  0
  142.4379  133.8659  151.0547 H   0  0  0  0  0  0  0  0  0  0  0  0
  142.4551  133.0822  152.6266 H   0  0  0  0  0  0  0  0  0  0  0  0
  143.2047  132.2918  151.2452 H   0  0  0  0  0  0  0  0  0  0  0  0
  145.3299  134.3979  148.9913 H   0  0  0  0  0  0  0  0  0  0  0  0
  147.7511  132.0761  150.2155 H   0  0  0  0  0  0  0  0  0  0  0  0
  147.5435  134.2279  153.1113 H   0  0  0  0  0  0  0  0  0  0  0  0
  1  2  1  0  0  0  0
  1 30  1  0  0  0  0
  1 31  1  0  0  0  0
  1 32  1  0  0  0  0
  2  3  1  0  0  0  0
  2 33  1  0  0  0  0
  2 34  1  0  0  0  0
  3  4  1  0  0  0  0
  3 35  1  0  0  0  0
  3 36  1  0  0  0  0
  4  5  1  0  0  0  0
  4 37  1  0  0  0  0
  4 38  1  0  0  0  0
  5  6  1  0  0  0  0
  5 39  1  0  0  0  0
  5 40  1  0  0  0  0
  6  7  1  0  0  0  0
  7  8  2  0  0  0  0
  7  9  1  0  0  0  0
  9 10  1  0  0  0  0
  9 41  1  0  0  0  0
 10 24  1  0  0  0  0
 10 11  2  0  0  0  0
 11 12  1  0  0  0  0
 12 13  2  0  0  0  0
 12 14  1  0  0  0  0
 14 15  1  0  0  0  0
 14 23  1  0  0  0  0
 15 26  1  0  0  0  0
 15 21  1  0  0  0  0
 15 16  1  0  0  0  0
 16 17  1  0  0  0  0
 17 27  1  0  0  0  0
 17 18  1  0  0  0  0
 17 19  1  0  0  0  0
 18 42  1  0  0  0  0
 18 43  1  0  0  0  0
 18 44  1  0  0  0  0
 19 28  1  0  0  0  0
 19 20  1  0  0  0  0
 19 21  1  0  0  0  0
 20 45  1  0  0  0  0
 21 29  1  0  0  0  0
 21 22  1  0  0  0  0
 22 46  1  0  0  0  0
 23 24  2  0  0  0  0
 23 47  1  0  0  0  0
 24 25  1  0  0  0  0
M  END
> <s_m_source_file>
AV-unprocessed.smi

> <i_m_source_file_index>
40

> <i_lp_mmshare_version>
43012

> <i_f3d_flags>
0

> <s_epik_input>
W0NIM11bQ0gyXVtDSDJdW0NIMl1bQ0gyXU9DKD1PKVtOSF1jMW5jKD1PKW4oW2NIXWMxRilbQ0BASF0yT1tDQEhdKFtDSDNdKVtDQEBIXShbT0hdKVtDQEhdMltPSF0=

> <s_epik_cmdline>
J2VwaWtfcHl0aG9uJywgJy1waCcsICc3LjAnLCAnLXRuJywgJzgnLCAnLW1hJywgJzIwMCcsICctbWV0YWxfYmluZGluZycsICctaW1hZScsICc8aW5maWxlLm1hZT4nLCAnLW9tYWUnLCAnPG91dGZpbGUubWFlPic=

> <r_lp_tautomer_probability>
1

> <r_epik_Ionization_Penalty>
2.29506e-06

> <r_epik_Ionization_Penalty_Charging>
8.26867e-09

> <r_epik_Ionization_Penalty_Neutral>
2.2868e-06

> <r_epik_State_Penalty>
-0

> <r_epik_Charging_Adjusted_Penalty>
8.26867e-09

> <i_epik_Tot_Q>
0

> <i_epik_Tot_abs_Q>
0

> <r_epik_Metal_State_Penalty>
-0

> <b_epik_Metal_Only>
0

> <s_epik_Chemistry_Notes>
This compound has an ester and may undergo hydrolysis at high or low pH. This compound contains an acetal/aminal-like group ( X-CH(R)-Y where X, Y are N, S, or O) that may be acid/base labile, releasing an aldehyde.

> <s_lp_Force_Field>
OPLS_2005

> <r_lp_Energy>
39.9495

> <b_lp_Chiralities_Consistent>
1

> <s_lp_Variant>
AV-unprocessed.smi:40-6

> <Gold.Version>
5.8.1

> <Gold.Id.Protein>
6NUR|6NUR_protein|mol2

> <Gold.PLP.Fitness>
44.5699

> <Gold.PLP.PLP>
-37.1908

> <Gold.PLP.part.hbond>
-2.2414

> <Gold.PLP.part.metal>
0.0000

> <Gold.PLP.part.buried>
-1.4846

> <Gold.PLP.part.nonpolar>
-32.4852

> <Gold.PLP.part.repulsive>
0.3515

> <Gold.PLP.ligand.clash>
0.0000

> <Gold.PLP.ligand.torsion>
0.5355

> <Gold.PLP.Chemscore.Hbond>
1.9920

> <Gold.PLP.Chemscore.CHOScore>
0.7548

> <Gold.PLP.Chemscore.Metal>
0.0000

> <Gold.Chemscore.Hbonds>
donor molecule, donor type, donor heavy atom, donor atom, acceptor molecule, acceptor atom, score
      L1  H    20    45       P1  7921  1.00
      L1  H    22    46       P1 10747  1.00
      L1  C    23    47       P1  7948  0.49

> <Gold.PLP.Chemscore.Internal.Correction>
0.2096

> <Gold.Rescore>
     Score         DG    S(hbond)    S(metal)    S(lipo)     H(rot)  DE(clash)    DE(int)     intcor
      7.69     -10.40       1.94        0.00      67.69       3.70       0.06       2.65       ----

> <Gold.Chemscore.Fitness>
7.6905

> <Gold.Chemscore.DG>
-10.4021

> <Gold.Chemscore.ZeroCoef>
-5.4800

> <Gold.Chemscore.Hbond>
1.9352

> <Gold.Chemscore.Metal>
0.0000

> <Gold.Chemscore.Lipo>
67.6884

> <Gold.Chemscore.Internal_Hbond>
0.0000

> <Gold.Chemscore.DEClash>
0.0609

> <Gold.Chemscore.DEInternal>
2.6506

> <Gold.Chemscore.Rot>
3.6957

> <Gold.Chemscore.Internal.Correction>
   9.000000E+99

> <Gold.Chemscore.Hbonds>
donor molecule, donor type, donor heavy atom, donor atom, acceptor molecule, acceptor atom, score
      L1  H    20    45       P1  7921  0.98
      L1  H    22    46       P1 10747  0.98

> <Gold.Chemscore.Hbond.Weighted>
-6.4635

> <Gold.Chemscore.Metal.Weighted>
-0.0000

> <Gold.Chemscore.Lipo.Weighted>
-7.9195

> <Gold.Chemscore.Internal_Hbond.Weighted>
0.0000

> <Gold.Chemscore.DEClash.Weighted>
0.0609

> <Gold.Chemscore.DEInternal.Weighted>
2.6506

> <Gold.Chemscore.Rot.Weighted>
9.4610

> <Gold.Chemscore.Internal.Correction.Weighted>
   9.000000E+99

> <Gold.Protein.RotatedTorsions>
[ 6907 6896 6895 6894 ] final -128.78 input  -60.11 | X-H torsion
[ 7974 7965 7964 7962 ] final -172.58 input  175.53 | X-H torsion
[ 8008 7997 7996 7995 ] final  -93.29 input   59.86 | X-H torsion
[ 10167 10162 10161 10158 ] final  -47.31 input  -65.29 | X-H torsion
[ 10718 10713 10712 10709 ] final -159.85 input   66.30 | X-H torsion
[ 10763 10752 10751 10750 ] final  -86.93 input  -60.55 | X-H torsion
[ 11005 11000 10999 10996 ] final -133.04 input  -57.11 | X-H torsion

> <Gold.Protein.ActiveResidues>
 VAL166  LYS551  ARG553  GLY616  TRP617  ASP618  TYR619  PRO620  LYS621  CYS622 
 ASP623  PHE694  ASN695  SER759  ASP760  ASP761  ALA762  ILE779  LEU786  VAL792 
 PHE793  MET794  SER795  GLU796  ALA797  LYS798  CYS799  TRP800  GLU811  SER814 

> <Gold.Protein.RotatedAtoms>
  150.9216  133.6874  159.2830 H   0  0  0  0  0  0  0  0  0  0  0  0  # atno 6907 bound_to 6896
  151.4327  135.1010  159.9656 H   0  0  0  0  0  0  0  0  0  0  0  0  # atno 6908 bound_to 6896
  152.4982  133.8642  159.7320 H   0  0  0  0  0  0  0  0  0  0  0  0  # atno 6909 bound_to 6896
  144.7145  140.1751  143.6364 H   0  0  0  0  0  0  0  0  0  0  0  0  # atno 7974 bound_to 7965
  154.7337  140.0500  157.0750 H   0  0  0  0  0  0  0  0  0  0  0  0  # atno 8008 bound_to 7997
  155.0268  140.3153  155.4754 H   0  0  0  0  0  0  0  0  0  0  0  0  # atno 8009 bound_to 7997
  156.2848  140.2157  156.5388 H   0  0  0  0  0  0  0  0  0  0  0  0  # atno 8010 bound_to 7997
  140.6781  143.2790  151.3908 H   0  0  0  0  0  0  0  0  0  0  0  0  # atno 10167 bound_to 10162
  156.5739  130.8700  151.2845 H   0  0  0  0  0  0  0  0  0  0  0  0  # atno 10718 bound_to 10713
  154.6279  135.5431  153.7648 H   0  0  0  0  0  0  0  0  0  0  0  0  # atno 10763 bound_to 10752
  153.0270  135.6429  154.1344 H   0  0  0  0  0  0  0  0  0  0  0  0  # atno 10764 bound_to 10752
  154.1275  135.2916  155.3173 H   0  0  0  0  0  0  0  0  0  0  0  0  # atno 10765 bound_to 10752
  140.9116  134.1561  157.4385 H   0  0  0  0  0  0  0  0  0  0  0  0  # atno 11005 bound_to 11000
  145.8908  139.2374  143.1551 LP  0  0  0  0  0  0  0  0  0  0  0  0  # atno 17320 bound_to 7965
  145.9905  140.8606  143.0068 LP  0  0  0  0  0  0  0  0  0  0  0  0  # atno 17321 bound_to 7965
  139.6085  144.1147  152.2274 LP  0  0  0  0  0  0  0  0  0  0  0  0  # atno 17342 bound_to 10162
  140.0554  144.5899  150.7304 LP  0  0  0  0  0  0  0  0  0  0  0  0  # atno 17343 bound_to 10162
  157.7342  130.9742  150.2016 LP  0  0  0  0  0  0  0  0  0  0  0  0  # atno 17370 bound_to 10713
  156.2690  130.3719  149.8051 LP  0  0  0  0  0  0  0  0  0  0  0  0  # atno 17371 bound_to 10713
  139.8758  134.9938  156.5661 LP  0  0  0  0  0  0  0  0  0  0  0  0  # atno 17394 bound_to 11000
  140.8103  133.8434  155.8804 LP  0  0  0  0  0  0  0  0  0  0  0  0  # atno 17395 bound_to 11000

$$$$
