AV-unprocessed.smi:2061|AV-procd|sdf|8388|dock2
  -GOLD-   2272011 73D 1   1.00000     0.00000
 Structure written by MMmdl.
 45 46  0  0  0  0  0  0  0  0  3 V2000
  150.4845  142.4747  157.1603 C   0  0  0  0  0  0  0  0  0  0  0  0
  150.0482  141.4304  156.1905 C   0  0  0  0  0  0  0  0  0  0  0  0
  148.8230  141.0566  155.7150 C   0  0  0  0  0  0  0  0  0  0  0  0
  149.1340  139.9959  154.8231 C   0  0  0  0  0  0  0  0  0  0  0  0
  148.1066  139.3273  154.1061 N   0  0  0  0  0  0  0  0  0  0  0  0
  146.9440  139.8220  153.6435 C   0  0  0  0  0  0  0  0  0  0  0  0
  146.6667  141.0171  153.8012 O   0  0  0  0  0  0  0  0  0  0  0  0
  146.1843  138.8722  153.0303 N   0  5  0  0  0  0  0  0  0  0  0  0
  146.2084  137.4447  153.3559 C   0  0  0  0  0  0  0  0  0  0  0  0
  145.4250  136.6137  152.3010 C   0  0  2  0  0  0  0  0  0  0  0  0
  143.9164  136.4511  152.6140 C   0  0  0  0  0  0  0  0  0  0  0  0
  146.1131  135.3100  152.0460 N   0  3  1  0  0  0  0  0  0  0  0  0
  146.3825  134.4534  153.2340 C   0  0  0  0  0  0  0  0  0  0  0  0
  147.2451  133.2447  152.8293 C   0  0  1  0  0  0  0  0  0  0  0  0
  147.5013  132.2966  154.0056 C   0  0  0  0  0  0  0  0  0  0  0  0
  146.5667  132.5151  151.8118 O   0  0  0  0  0  0  0  0  0  0  0  0
  146.3568  133.2843  150.6323 C   0  0  1  0  0  0  0  0  0  0  0  0
  145.7047  132.3806  149.5803 C   0  0  0  0  0  0  0  0  0  0  0  0
  145.4823  134.5069  150.9697 C   0  0  0  0  0  0  0  0  0  0  0  0
  150.4337  139.7462  154.7604 N   0  0  0  0  0  0  0  0  0  0  0  0
  151.0258  140.6631  155.6368 O   0  0  0  0  0  0  0  0  0  0  0  0
  149.7071  143.2265  157.2977 H   0  0  0  0  0  0  0  0  0  0  0  0
  151.3839  142.9800  156.8084 H   0  0  0  0  0  0  0  0  0  0  0  0
  150.7029  142.0310  158.1317 H   0  0  0  0  0  0  0  0  0  0  0  0
  147.8599  141.4755  155.9658 H   0  0  0  0  0  0  0  0  0  0  0  0
  148.2663  138.3468  153.9284 H   0  0  0  0  0  0  0  0  0  0  0  0
  147.2312  137.0684  153.4123 H   0  0  0  0  0  0  0  0  0  0  0  0
  145.7837  137.2557  154.3421 H   0  0  0  0  0  0  0  0  0  0  0  0
  145.4870  137.1772  151.3688 H   0  0  0  0  0  0  0  0  0  0  0  0
  143.4025  137.4137  152.6407 H   0  0  0  0  0  0  0  0  0  0  0  0
  143.7334  135.9604  153.5716 H   0  0  0  0  0  0  0  0  0  0  0  0
  143.4226  135.8590  151.8435 H   0  0  0  0  0  0  0  0  0  0  0  0
  146.8950  135.0253  154.0080 H   0  0  0  0  0  0  0  0  0  0  0  0
  145.4434  134.1006  153.6627 H   0  0  0  0  0  0  0  0  0  0  0  0
  148.2070  133.5900  152.4462 H   0  0  0  0  0  0  0  0  0  0  0  0
  148.0268  132.8068  154.8131 H   0  0  0  0  0  0  0  0  0  0  0  0
  148.1119  131.4479  153.6962 H   0  0  0  0  0  0  0  0  0  0  0  0
  146.5669  131.9048  154.4084 H   0  0  0  0  0  0  0  0  0  0  0  0
  147.3222  133.6198  150.2490 H   0  0  0  0  0  0  0  0  0  0  0  0
  145.5359  132.9217  148.6490 H   0  0  0  0  0  0  0  0  0  0  0  0
  144.7429  132.0011  149.9265 H   0  0  0  0  0  0  0  0  0  0  0  0
  146.3394  131.5232  149.3553 H   0  0  0  0  0  0  0  0  0  0  0  0
  144.4864  134.1911  151.2846 H   0  0  0  0  0  0  0  0  0  0  0  0
  145.3585  135.1165  150.0736 H   0  0  0  0  0  0  0  0  0  0  0  0
  147.0175  135.5727  151.6803 H   0  0  0  0  0  0  0  0  0  0  0  0
  1  2  1  0  0  0  0
  1 22  1  0  0  0  0
  1 23  1  0  0  0  0
  1 24  1  0  0  0  0
  2 21  1  0  0  0  0
  2  3  2  0  0  0  0
  3  4  1  0  0  0  0
  3 25  1  0  0  0  0
  4  5  1  0  0  0  0
  4 20  2  0  0  0  0
  5  6  1  0  0  0  0
  5 26  1  0  0  0  0
  6  7  2  0  0  0  0
  6  8  1  0  0  0  0
  8  9  1  0  0  0  0
  9 10  1  0  0  0  0
  9 27  1  0  0  0  0
  9 28  1  0  0  0  0
 10 11  1  0  0  0  0
 10 12  1  0  0  0  0
 10 29  1  0  0  0  0
 11 30  1  0  0  0  0
 11 31  1  0  0  0  0
 11 32  1  0  0  0  0
 12 19  1  0  0  0  0
 12 13  1  0  0  0  0
 12 45  1  0  0  0  0
 13 14  1  0  0  0  0
 13 33  1  0  0  0  0
 13 34  1  0  0  0  0
 14 15  1  0  0  0  0
 14 16  1  0  0  0  0
 14 35  1  0  0  0  0
 15 36  1  0  0  0  0
 15 37  1  0  0  0  0
 15 38  1  0  0  0  0
 16 17  1  0  0  0  0
 17 18  1  0  0  0  0
 17 19  1  0  0  0  0
 17 39  1  0  0  0  0
 18 40  1  0  0  0  0
 18 41  1  0  0  0  0
 18 42  1  0  0  0  0
 19 43  1  0  0  0  0
 19 44  1  0  0  0  0
 20 21  1  0  0  0  0
M  CHG  1   8  -1
M  CHG  1  12   1
M  END
> <s_m_source_file>
AV-unprocessed.smi

> <i_m_source_file_index>
2061

> <i_lp_mmshare_version>
43012

> <i_f3d_flags>
0

> <s_epik_input>
W0NIM11jMVtjSF1jKG5vMSlbTkhdQyg9TylbTkhdW0NIMl1bQ0BIXShbQ0gzXSlOMltDSDJdW0NAQEhdKFtDSDNdKU9bQ0BASF0oW0NIM10pW0NIMl0y

> <s_epik_cmdline>
J2VwaWtfcHl0aG9uJywgJy1waCcsICc3LjAnLCAnLXRuJywgJzgnLCAnLW1hJywgJzIwMCcsICctbWV0YWxfYmluZGluZycsICctaW1hZScsICc8aW5maWxlLm1hZT4nLCAnLW9tYWUnLCAnPG91dGZpbGUubWFlPic=

> <r_epik_Ionization_Penalty>
6.8073

> <r_epik_Ionization_Penalty_Charging>
6.80729

> <r_epik_Ionization_Penalty_Neutral>
5.65391e-06

> <r_epik_State_Penalty>
7.47323

> <r_epik_Charging_Adjusted_Penalty>
14.2805

> <i_epik_Tot_Q>
0

> <i_epik_Tot_abs_Q>
2

> <r_epik_Metal_State_Penalty>
3.40035

> <b_epik_Metal_Only>
1

> <s_lp_Force_Field>
OPLS_2005

> <r_lp_Energy>
16.5553

> <b_lp_Chiralities_Consistent>
1

> <s_lp_Variant>
AV-unprocessed.smi:2061-29

> <Gold.Version>
5.8.1

> <Gold.Id.Protein>
6NUR|6NUR_protein|mol2

> <Gold.PLP.Fitness>
39.0593

> <Gold.PLP.PLP>
-34.8084

> <Gold.PLP.part.hbond>
-4.0000

> <Gold.PLP.part.metal>
0.0000

> <Gold.PLP.part.buried>
-4.3345

> <Gold.PLP.part.nonpolar>
-26.9819

> <Gold.PLP.part.repulsive>
0.8221

> <Gold.PLP.ligand.clash>
0.0000

> <Gold.PLP.ligand.torsion>
0.9473

> <Gold.PLP.Chemscore.Hbond>
1.9840

> <Gold.PLP.Chemscore.CHOScore>
0.0000

> <Gold.PLP.Chemscore.Metal>
0.0000

> <Gold.Chemscore.Hbonds>
donor molecule, donor type, donor heavy atom, donor atom, acceptor molecule, acceptor atom, score
      L1  H    12    45       P1  7948  2.00

> <Gold.PLP.Chemscore.Internal.Correction>
0.1936

> <Gold.Rescore>
     Score         DG    S(hbond)    S(metal)    S(lipo)     H(rot)  DE(clash)    DE(int)     intcor
     10.98     -13.14       0.99        0.00      71.31       1.56       0.14       2.02       ----

> <Gold.Chemscore.Fitness>
10.9767

> <Gold.Chemscore.DG>
-13.1372

> <Gold.Chemscore.ZeroCoef>
-5.4800

> <Gold.Chemscore.Hbond>
0.9863

> <Gold.Chemscore.Metal>
0.0000

> <Gold.Chemscore.Lipo>
71.3136

> <Gold.Chemscore.Internal_Hbond>
0.0000

> <Gold.Chemscore.DEClash>
0.1434

> <Gold.Chemscore.DEInternal>
2.0171

> <Gold.Chemscore.Rot>
1.5550

> <Gold.Chemscore.Internal.Correction>
   9.000000E+99

> <Gold.Chemscore.Hbonds>
donor molecule, donor type, donor heavy atom, donor atom, acceptor molecule, acceptor atom, score
      L1  H    12    45       P1  7948  0.92

> <Gold.Chemscore.Hbond.Weighted>
-3.2944

> <Gold.Chemscore.Metal.Weighted>
-0.0000

> <Gold.Chemscore.Lipo.Weighted>
-8.3437

> <Gold.Chemscore.Internal_Hbond.Weighted>
0.0000

> <Gold.Chemscore.DEClash.Weighted>
0.1434

> <Gold.Chemscore.DEInternal.Weighted>
2.0171

> <Gold.Chemscore.Rot.Weighted>
3.9809

> <Gold.Chemscore.Internal.Correction.Weighted>
   9.000000E+99

> <Gold.Protein.RotatedTorsions>
[ 6907 6896 6895 6894 ] final   41.95 input  -60.11 | X-H torsion
[ 7974 7965 7964 7962 ] final  104.19 input  175.53 | X-H torsion
[ 8008 7997 7996 7995 ] final   -4.79 input   59.86 | X-H torsion
[ 10167 10162 10161 10158 ] final  -70.63 input  -65.29 | X-H torsion
[ 10718 10713 10712 10709 ] final  146.07 input   66.30 | X-H torsion
[ 10763 10752 10751 10750 ] final  -29.95 input  -60.55 | X-H torsion
[ 11005 11000 10999 10996 ] final  150.75 input  -57.11 | X-H torsion

> <Gold.Protein.ActiveResidues>
 VAL166  LYS551  ARG553  GLY616  TRP617  ASP618  TYR619  PRO620  LYS621  CYS622 
 ASP623  PHE694  ASN695  SER759  ASP760  ASP761  ALA762  ILE779  LEU786  VAL792 
 PHE793  MET794  SER795  GLU796  ALA797  LYS798  CYS799  TRP800  GLU811  SER814 

> <Gold.Protein.RotatedAtoms>
  152.2017  134.8581  160.0506 H   0  0  0  0  0  0  0  0  0  0  0  0  # atno 6907 bound_to 6896
  151.9432  133.3639  159.3981 H   0  0  0  0  0  0  0  0  0  0  0  0  # atno 6908 bound_to 6896
  150.6956  134.4341  159.5306 H   0  0  0  0  0  0  0  0  0  0  0  0  # atno 6909 bound_to 6896
  145.3360  139.2474  143.3635 H   0  0  0  0  0  0  0  0  0  0  0  0  # atno 7974 bound_to 7965
  154.6106  140.2475  155.7673 H   0  0  0  0  0  0  0  0  0  0  0  0  # atno 8008 bound_to 7997
  156.2368  140.2947  156.0286 H   0  0  0  0  0  0  0  0  0  0  0  0  # atno 8009 bound_to 7997
  155.2058  140.0395  157.2915 H   0  0  0  0  0  0  0  0  0  0  0  0  # atno 8010 bound_to 7997
  140.5337  143.2319  151.7215 H   0  0  0  0  0  0  0  0  0  0  0  0  # atno 10167 bound_to 10162
  157.3376  131.0930  151.1110 H   0  0  0  0  0  0  0  0  0  0  0  0  # atno 10718 bound_to 10713
  153.7729  135.6911  153.4903 H   0  0  0  0  0  0  0  0  0  0  0  0  # atno 10763 bound_to 10752
  153.1862  135.4488  155.0090 H   0  0  0  0  0  0  0  0  0  0  0  0  # atno 10764 bound_to 10752
  154.8111  135.3378  154.7237 H   0  0  0  0  0  0  0  0  0  0  0  0  # atno 10765 bound_to 10752
  140.1159  134.8895  157.2003 H   0  0  0  0  0  0  0  0  0  0  0  0  # atno 11005 bound_to 11000
  146.3026  140.3948  142.8698 LP  0  0  0  0  0  0  0  0  0  0  0  0  # atno 17320 bound_to 7965
  144.8827  140.7421  143.5976 LP  0  0  0  0  0  0  0  0  0  0  0  0  # atno 17321 bound_to 7965
  139.4963  144.4075  152.0116 LP  0  0  0  0  0  0  0  0  0  0  0  0  # atno 17342 bound_to 10162
  140.3178  144.3463  150.6017 LP  0  0  0  0  0  0  0  0  0  0  0  0  # atno 17343 bound_to 10162
  157.2334  130.6536  149.5859 LP  0  0  0  0  0  0  0  0  0  0  0  0  # atno 17370 bound_to 10713
  155.9703  130.4591  150.6025 LP  0  0  0  0  0  0  0  0  0  0  0  0  # atno 17371 bound_to 10713
  140.3029  134.3111  155.7285 LP  0  0  0  0  0  0  0  0  0  0  0  0  # atno 17394 bound_to 11000
  141.2141  133.7603  156.9667 LP  0  0  0  0  0  0  0  0  0  0  0  0  # atno 17395 bound_to 11000

$$$$
