AV-unprocessed.smi:2061|AV-procd|sdf|8395|dock8
  -GOLD-   2272011 83D 1   1.00000     0.00000
 Structure written by MMmdl.
 45 46  0  0  0  0  0  0  0  0  3 V2000
  153.5109  138.2082  154.2779 C   0  0  0  0  0  0  0  0  0  0  0  0
  152.0341  138.4070  154.2889 C   0  0  0  0  0  0  0  0  0  0  0  0
  150.9813  137.5726  154.0396 C   0  0  0  0  0  0  0  0  0  0  0  0
  149.8525  138.4141  154.2270 C   0  0  0  0  0  0  0  0  0  0  0  0
  148.5370  137.9093  154.0508 N   0  0  0  0  0  0  0  0  0  0  0  0
  147.4125  138.2354  154.7138 C   0  0  0  0  0  0  0  0  0  0  0  0
  147.4460  139.0639  155.6315 O   0  0  0  0  0  0  0  0  0  0  0  0
  146.3271  137.5602  154.2463 N   0  5  0  0  0  0  0  0  0  0  0  0
  145.7596  137.7239  152.9083 C   0  0  0  0  0  0  0  0  0  0  0  0
  144.3333  137.1020  152.8432 C   0  0  1  0  0  0  0  0  0  0  0  0
  144.3560  135.6267  153.3390 C   0  0  0  0  0  0  0  0  0  0  0  0
  143.3541  137.9854  153.5723 N   0  3  1  0  0  0  0  0  0  0  0  0
  141.9197  137.7381  153.2393 C   0  0  0  0  0  0  0  0  0  0  0  0
  141.3541  136.5282  154.0131 C   0  0  2  0  0  0  0  0  0  0  0  0
  139.8594  136.3226  153.7444 C   0  0  0  0  0  0  0  0  0  0  0  0
  141.5256  136.7472  155.4082 O   0  0  0  0  0  0  0  0  0  0  0  0
  142.8933  136.8797  155.7766 C   0  0  2  0  0  0  0  0  0  0  0  0
  142.9619  137.0246  157.3004 C   0  0  0  0  0  0  0  0  0  0  0  0
  143.4886  138.1054  155.0508 C   0  0  0  0  0  0  0  0  0  0  0  0
  150.1877  139.6513  154.5620 N   0  0  0  0  0  0  0  0  0  0  0  0
  151.5870  139.6528  154.6040 O   0  0  0  0  0  0  0  0  0  0  0  0
  153.7657  137.1971  153.9601 H   0  0  0  0  0  0  0  0  0  0  0  0
  153.9288  138.3659  155.2723 H   0  0  0  0  0  0  0  0  0  0  0  0
  153.9898  138.9083  153.5931 H   0  0  0  0  0  0  0  0  0  0  0  0
  151.0147  136.5286  153.7657 H   0  0  0  0  0  0  0  0  0  0  0  0
  148.4296  137.2195  153.3222 H   0  0  0  0  0  0  0  0  0  0  0  0
  145.7071  138.7717  152.6105 H   0  0  0  0  0  0  0  0  0  0  0  0
  146.3898  137.2440  152.1588 H   0  0  0  0  0  0  0  0  0  0  0  0
  144.0216  137.0694  151.7988 H   0  0  0  0  0  0  0  0  0  0  0  0
  145.0601  135.0100  152.7765 H   0  0  0  0  0  0  0  0  0  0  0  0
  143.3919  135.1378  153.2111 H   0  0  0  0  0  0  0  0  0  0  0  0
  144.6287  135.5451  154.3932 H   0  0  0  0  0  0  0  0  0  0  0  0
  141.3540  138.6323  153.5046 H   0  0  0  0  0  0  0  0  0  0  0  0
  141.7709  137.6004  152.1683 H   0  0  0  0  0  0  0  0  0  0  0  0
  141.8786  135.6157  153.7264 H   0  0  0  0  0  0  0  0  0  0  0  0
  139.6736  136.1389  152.6859 H   0  0  0  0  0  0  0  0  0  0  0  0
  139.2796  137.1975  154.0399 H   0  0  0  0  0  0  0  0  0  0  0  0
  139.4776  135.4664  154.3011 H   0  0  0  0  0  0  0  0  0  0  0  0
  143.4237  135.9698  155.4943 H   0  0  0  0  0  0  0  0  0  0  0  0
  143.9939  137.1210  157.6388 H   0  0  0  0  0  0  0  0  0  0  0  0
  142.5303  136.1538  157.7945 H   0  0  0  0  0  0  0  0  0  0  0  0
  142.4144  137.9047  157.6390 H   0  0  0  0  0  0  0  0  0  0  0  0
  144.5143  138.3010  155.3600 H   0  0  0  0  0  0  0  0  0  0  0  0
  142.9343  138.9940  155.3567 H   0  0  0  0  0  0  0  0  0  0  0  0
  143.5664  138.9077  153.2187 H   0  0  0  0  0  0  0  0  0  0  0  0
  1  2  1  0  0  0  0
  1 22  1  0  0  0  0
  1 23  1  0  0  0  0
  1 24  1  0  0  0  0
  2 21  1  0  0  0  0
  2  3  2  0  0  0  0
  3  4  1  0  0  0  0
  3 25  1  0  0  0  0
  4  5  1  0  0  0  0
  4 20  2  0  0  0  0
  5  6  1  0  0  0  0
  5 26  1  0  0  0  0
  6  7  2  0  0  0  0
  6  8  1  0  0  0  0
  8  9  1  0  0  0  0
  9 10  1  0  0  0  0
  9 27  1  0  0  0  0
  9 28  1  0  0  0  0
 10 11  1  0  0  0  0
 10 12  1  0  0  0  0
 10 29  1  0  0  0  0
 11 30  1  0  0  0  0
 11 31  1  0  0  0  0
 11 32  1  0  0  0  0
 12 19  1  0  0  0  0
 12 13  1  0  0  0  0
 12 45  1  0  0  0  0
 13 14  1  0  0  0  0
 13 33  1  0  0  0  0
 13 34  1  0  0  0  0
 14 15  1  0  0  0  0
 14 16  1  0  0  0  0
 14 35  1  0  0  0  0
 15 36  1  0  0  0  0
 15 37  1  0  0  0  0
 15 38  1  0  0  0  0
 16 17  1  0  0  0  0
 17 18  1  0  0  0  0
 17 19  1  0  0  0  0
 17 39  1  0  0  0  0
 18 40  1  0  0  0  0
 18 41  1  0  0  0  0
 18 42  1  0  0  0  0
 19 43  1  0  0  0  0
 19 44  1  0  0  0  0
 20 21  1  0  0  0  0
M  CHG  1   8  -1
M  CHG  1  12   1
M  END
> <s_m_source_file>
AV-unprocessed.smi

> <i_m_source_file_index>
2061

> <i_lp_mmshare_version>
43012

> <i_f3d_flags>
0

> <s_epik_input>
W0NIM11jMVtjSF1jKG5vMSlbTkhdQyg9TylbTkhdW0NIMl1bQ0BIXShbQ0gzXSlOMltDSDJdW0NAQEhdKFtDSDNdKU9bQ0BASF0oW0NIM10pW0NIMl0y

> <s_epik_cmdline>
J2VwaWtfcHl0aG9uJywgJy1waCcsICc3LjAnLCAnLXRuJywgJzgnLCAnLW1hJywgJzIwMCcsICctbWV0YWxfYmluZGluZycsICctaW1hZScsICc8aW5maWxlLm1hZT4nLCAnLW9tYWUnLCAnPG91dGZpbGUubWFlPic=

> <r_epik_Ionization_Penalty>
6.8073

> <r_epik_Ionization_Penalty_Charging>
6.80729

> <r_epik_Ionization_Penalty_Neutral>
5.65391e-06

> <r_epik_State_Penalty>
7.47323

> <r_epik_Charging_Adjusted_Penalty>
14.2805

> <i_epik_Tot_Q>
0

> <i_epik_Tot_abs_Q>
2

> <r_epik_Metal_State_Penalty>
3.40035

> <b_epik_Metal_Only>
1

> <s_lp_Force_Field>
OPLS_2005

> <r_lp_Energy>
21.1883

> <b_lp_Chiralities_Consistent>
1

> <s_lp_Variant>
AV-unprocessed.smi:2061-36

> <Gold.Version>
5.8.1

> <Gold.Id.Protein>
6NUR|6NUR_protein|mol2

> <Gold.PLP.Fitness>
38.2790

> <Gold.PLP.PLP>
-29.2042

> <Gold.PLP.part.hbond>
-4.2981

> <Gold.PLP.part.metal>
0.0000

> <Gold.PLP.part.buried>
-5.0387

> <Gold.PLP.part.nonpolar>
-19.9461

> <Gold.PLP.part.repulsive>
0.2594

> <Gold.PLP.ligand.clash>
0.0000

> <Gold.PLP.ligand.torsion>
1.1533

> <Gold.PLP.Chemscore.Hbond>
3.7500

> <Gold.PLP.Chemscore.CHOScore>
0.0000

> <Gold.PLP.Chemscore.Metal>
0.0000

> <Gold.Chemscore.Hbonds>
donor molecule, donor type, donor heavy atom, donor atom, acceptor molecule, acceptor atom, score
      L1  H     5    26       P1  7948  1.00
      L1  H    12    45       P1 10175  2.00
      P1  H  7989  7998       L1    21  0.55

> <Gold.PLP.Chemscore.Internal.Correction>
0.1314

> <Gold.Rescore>
     Score         DG    S(hbond)    S(metal)    S(lipo)     H(rot)  DE(clash)    DE(int)     intcor
     13.10     -15.14       2.03        0.00      58.59       1.56       0.01       2.03       ----

> <Gold.Chemscore.Fitness>
13.0965

> <Gold.Chemscore.DG>
-15.1352

> <Gold.Chemscore.ZeroCoef>
-5.4800

> <Gold.Chemscore.Hbond>
2.0302

> <Gold.Chemscore.Metal>
0.0000

> <Gold.Chemscore.Lipo>
58.5901

> <Gold.Chemscore.Internal_Hbond>
0.0000

> <Gold.Chemscore.DEClash>
0.0128

> <Gold.Chemscore.DEInternal>
2.0259

> <Gold.Chemscore.Rot>
1.5550

> <Gold.Chemscore.Internal.Correction>
   9.000000E+99

> <Gold.Chemscore.Hbonds>
donor molecule, donor type, donor heavy atom, donor atom, acceptor molecule, acceptor atom, score
      L1  H     5    26       P1  7948  0.98
      L1  H    12    45       P1 10175  1.00
      P1  H  7989  7998       L1    21  0.03

> <Gold.Chemscore.Hbond.Weighted>
-6.7810

> <Gold.Chemscore.Metal.Weighted>
-0.0000

> <Gold.Chemscore.Lipo.Weighted>
-6.8550

> <Gold.Chemscore.Internal_Hbond.Weighted>
0.0000

> <Gold.Chemscore.DEClash.Weighted>
0.0128

> <Gold.Chemscore.DEInternal.Weighted>
2.0259

> <Gold.Chemscore.Rot.Weighted>
3.9809

> <Gold.Chemscore.Internal.Correction.Weighted>
   9.000000E+99

> <Gold.Protein.RotatedTorsions>
[ 6907 6896 6895 6894 ] final -157.54 input  -60.11 | X-H torsion
[ 7974 7965 7964 7962 ] final  143.06 input  175.53 | X-H torsion
[ 8008 7997 7996 7995 ] final  -60.66 input   59.86 | X-H torsion
[ 10167 10162 10161 10158 ] final   49.77 input  -65.29 | X-H torsion
[ 10718 10713 10712 10709 ] final -141.56 input   66.30 | X-H torsion
[ 10763 10752 10751 10750 ] final   77.14 input  -60.55 | X-H torsion
[ 11005 11000 10999 10996 ] final   -2.57 input  -57.11 | X-H torsion

> <Gold.Protein.ActiveResidues>
 VAL166  LYS551  ARG553  GLY616  TRP617  ASP618  TYR619  PRO620  LYS621  CYS622 
 ASP623  PHE694  ASN695  SER759  ASP760  ASP761  ALA762  ILE779  LEU786  VAL792 
 PHE793  MET794  SER795  GLU796  ALA797  LYS798  CYS799  TRP800  GLU811  SER814 

> <Gold.Protein.RotatedAtoms>
  151.3044  133.4108  159.2641 H   0  0  0  0  0  0  0  0  0  0  0  0  # atno 6907 bound_to 6896
  151.0167  134.9439  159.8047 H   0  0  0  0  0  0  0  0  0  0  0  0  # atno 6908 bound_to 6896
  152.5314  134.3008  159.9130 H   0  0  0  0  0  0  0  0  0  0  0  0  # atno 6909 bound_to 6896
  144.8954  139.5499  143.5779 H   0  0  0  0  0  0  0  0  0  0  0  0  # atno 7974 bound_to 7965
  154.4409  140.1034  156.6309 H   0  0  0  0  0  0  0  0  0  0  0  0  # atno 8008 bound_to 7997
  155.5606  140.3487  155.4472 H   0  0  0  0  0  0  0  0  0  0  0  0  # atno 8009 bound_to 7997
  156.0462  140.1293  157.0090 H   0  0  0  0  0  0  0  0  0  0  0  0  # atno 8010 bound_to 7997
  140.2794  144.3174  150.6268 H   0  0  0  0  0  0  0  0  0  0  0  0  # atno 10167 bound_to 10162
  156.3354  130.7609  151.1735 H   0  0  0  0  0  0  0  0  0  0  0  0  # atno 10718 bound_to 10713
  153.0777  135.4925  154.8438 H   0  0  0  0  0  0  0  0  0  0  0  0  # atno 10763 bound_to 10752
  154.7109  135.3020  154.9201 H   0  0  0  0  0  0  0  0  0  0  0  0  # atno 10764 bound_to 10752
  153.9895  135.6780  153.4806 H   0  0  0  0  0  0  0  0  0  0  0  0  # atno 10765 bound_to 10752
  140.6598  133.9330  155.8429 H   0  0  0  0  0  0  0  0  0  0  0  0  # atno 11005 bound_to 11000
  146.3078  139.7640  142.9043 LP  0  0  0  0  0  0  0  0  0  0  0  0  # atno 17320 bound_to 7965
  145.3710  141.0342  143.3231 LP  0  0  0  0  0  0  0  0  0  0  0  0  # atno 17321 bound_to 7965
  140.5824  143.2172  151.7403 LP  0  0  0  0  0  0  0  0  0  0  0  0  # atno 17342 bound_to 10162
  139.4967  144.4060  152.0131 LP  0  0  0  0  0  0  0  0  0  0  0  0  # atno 17343 bound_to 10162
  157.7438  131.0469  150.4918 LP  0  0  0  0  0  0  0  0  0  0  0  0  # atno 17370 bound_to 10713
  156.5091  130.4135  149.6311 LP  0  0  0  0  0  0  0  0  0  0  0  0  # atno 17371 bound_to 10713
  141.0473  134.0535  157.3827 LP  0  0  0  0  0  0  0  0  0  0  0  0  # atno 17394 bound_to 11000
  139.9017  135.0166  156.7298 LP  0  0  0  0  0  0  0  0  0  0  0  0  # atno 17395 bound_to 11000

$$$$
