AV-unprocessed.smi:3032|AV-procd|sdf|11565|dock7
  -GOLD-   2272016533D 1   1.00000     0.00000
 Structure written by MMmdl.
 37 38  0  0  0  0  0  0  0  0  1 V2000
  151.3073  145.4176  159.8508 C   0  0  0  0  0  0  0  0  0  0  0  0
  151.8547  143.9977  160.0517 C   0  0  2  0  0  0  0  0  0  0  0  0
  152.1281  143.7048  161.5384 C   0  0  0  0  0  0  0  0  0  0  0  0
  152.6556  142.2770  161.7461 C   0  0  0  0  0  0  0  0  0  0  0  0
  153.9031  141.9977  160.8837 C   0  0  0  0  0  0  0  0  0  0  0  0
  153.7159  142.3444  159.3861 C   0  0  1  0  0  0  0  0  0  0  0  0
  152.8940  141.3053  158.6012 C   0  0  0  0  0  0  0  0  0  0  0  0
  153.2740  140.1400  158.4894 O   0  0  0  0  0  0  0  0  0  0  0  0
  151.7481  141.7507  158.0638 N   0  0  0  0  0  0  0  0  0  0  0  0
  150.7754  140.9304  157.3476 C   0  0  0  0  0  0  0  0  0  0  0  0
  151.0576  140.8319  155.8335 C   0  0  0  0  0  0  0  0  0  0  0  0
  151.3738  139.4470  155.3617 C   0  0  0  0  0  0  0  0  0  0  0  0
  152.4165  138.7172  155.7756 N   0  0  0  0  0  0  0  0  0  0  0  0
  152.3372  137.5240  155.0745 N   0  0  0  0  0  0  0  0  0  0  0  0
  151.2527  137.6492  154.3079 C   0  0  0  0  0  0  0  0  0  0  0  0
  150.6186  138.8188  154.4471 N   0  0  0  0  0  0  0  0  0  0  0  0
  153.1366  143.7685  159.2253 C   0  0  0  0  0  0  0  0  0  0  0  0
  149.7874  139.1483  153.9780 H   0  0  0  0  0  0  0  0  0  0  0  0
  152.0231  146.1697  160.1841 H   0  0  0  0  0  0  0  0  0  0  0  0
  150.3839  145.5648  160.4115 H   0  0  0  0  0  0  0  0  0  0  0  0
  151.0880  145.6090  158.8003 H   0  0  0  0  0  0  0  0  0  0  0  0
  151.0881  143.3043  159.7037 H   0  0  0  0  0  0  0  0  0  0  0  0
  152.8548  144.4197  161.9271 H   0  0  0  0  0  0  0  0  0  0  0  0
  151.2169  143.8441  162.1209 H   0  0  0  0  0  0  0  0  0  0  0  0
  152.8980  142.1248  162.7980 H   0  0  0  0  0  0  0  0  0  0  0  0
  151.8657  141.5623  161.5181 H   0  0  0  0  0  0  0  0  0  0  0  0
  154.7341  142.5867  161.2741 H   0  0  0  0  0  0  0  0  0  0  0  0
  154.2024  140.9548  160.9974 H   0  0  0  0  0  0  0  0  0  0  0  0
  154.7099  142.3411  158.9357 H   0  0  0  0  0  0  0  0  0  0  0  0
  151.5112  142.7236  158.1956 H   0  0  0  0  0  0  0  0  0  0  0  0
  150.8198  139.9324  157.7842 H   0  0  0  0  0  0  0  0  0  0  0  0
  149.7648  141.3001  157.5256 H   0  0  0  0  0  0  0  0  0  0  0  0
  150.1971  141.2023  155.2755 H   0  0  0  0  0  0  0  0  0  0  0  0
  151.8900  141.4863  155.5710 H   0  0  0  0  0  0  0  0  0  0  0  0
  150.9170  136.8756  153.6333 H   0  0  0  0  0  0  0  0  0  0  0  0
  152.9391  143.9753  158.1722 H   0  0  0  0  0  0  0  0  0  0  0  0
  153.8938  144.4926  159.5287 H   0  0  0  0  0  0  0  0  0  0  0  0
  1  2  1  0  0  0  0
  1 19  1  0  0  0  0
  1 20  1  0  0  0  0
  1 21  1  0  0  0  0
  2 17  1  0  0  0  0
  2  3  1  0  0  0  0
  2 22  1  0  0  0  0
  3  4  1  0  0  0  0
  3 23  1  0  0  0  0
  3 24  1  0  0  0  0
  4  5  1  0  0  0  0
  4 25  1  0  0  0  0
  4 26  1  0  0  0  0
  5  6  1  0  0  0  0
  5 27  1  0  0  0  0
  5 28  1  0  0  0  0
  6  7  1  0  0  0  0
  6 17  1  0  0  0  0
  6 29  1  0  0  0  0
  7  8  2  0  0  0  0
  7  9  1  0  0  0  0
  9 10  1  0  0  0  0
  9 30  1  0  0  0  0
 10 11  1  0  0  0  0
 10 31  1  0  0  0  0
 10 32  1  0  0  0  0
 11 12  1  0  0  0  0
 11 33  1  0  0  0  0
 11 34  1  0  0  0  0
 12 16  1  0  0  0  0
 12 13  2  0  0  0  0
 13 14  1  0  0  0  0
 14 15  2  0  0  0  0
 15 16  1  0  0  0  0
 15 35  1  0  0  0  0
 16 18  1  0  0  0  0
 17 36  1  0  0  0  0
 17 37  1  0  0  0  0
M  END
> <s_m_source_file>
AV-unprocessed.smi

> <i_m_source_file_index>
3032

> <i_lp_mmshare_version>
43012

> <i_f3d_flags>
0

> <s_epik_input>
W0NIM11bQ0BASF0xW0NIMl1bQ0gyXVtDSDJdW0NASF0oW0NIMl0xKUMoPU8pW05IXVtDSDJdW0NIMl1jMm5uW2NIXVtuSF0y

> <s_epik_cmdline>
J2VwaWtfcHl0aG9uJywgJy1waCcsICc3LjAnLCAnLXRuJywgJzgnLCAnLW1hJywgJzIwMCcsICctbWV0YWxfYmluZGluZycsICctaW1hZScsICc8aW5maWxlLm1hZT4nLCAnLW9tYWUnLCAnPG91dGZpbGUubWFlPic=

> <r_lp_tautomer_probability>
0.0517155

> <r_epik_Ionization_Penalty>
0.00149837

> <r_epik_Ionization_Penalty_Charging>
0

> <r_epik_Ionization_Penalty_Neutral>
0.00149837

> <r_epik_State_Penalty>
2.1109

> <r_epik_Charging_Adjusted_Penalty>
2.1109

> <i_epik_Tot_Q>
0

> <i_epik_Tot_abs_Q>
0

> <r_epik_Metal_State_Penalty>
2.23635

> <b_epik_Metal_Only>
0

> <s_lp_Force_Field>
OPLS_2005

> <r_lp_Energy>
9.22736

> <b_lp_Chiralities_Consistent>
1

> <s_lp_Variant>
AV-unprocessed.smi:3032-9

> <Gold.Version>
5.8.1

> <Gold.Id.Protein>
6NUR|6NUR_protein|mol2

> <Gold.PLP.Fitness>
46.1042

> <Gold.PLP.PLP>
-40.5092

> <Gold.PLP.part.hbond>
-2.0000

> <Gold.PLP.part.metal>
0.0000

> <Gold.PLP.part.buried>
-5.6658

> <Gold.PLP.part.nonpolar>
-32.1667

> <Gold.PLP.part.repulsive>
0.2091

> <Gold.PLP.ligand.clash>
1.4152

> <Gold.PLP.ligand.torsion>
0.6226

> <Gold.PLP.Chemscore.Hbond>
1.7000

> <Gold.PLP.Chemscore.CHOScore>
1.0368

> <Gold.PLP.Chemscore.Metal>
0.0000

> <Gold.Chemscore.Hbonds>
donor molecule, donor type, donor heavy atom, donor atom, acceptor molecule, acceptor atom, score
      P1  H  7997  8010       L1     8  0.98
      P1  H 10752 10763       L1    14  0.61
      L1  C    15    35       P1  7948  0.12
      L1  C    15    35       P1  7949  0.95

> <Gold.PLP.Chemscore.Internal.Correction>
0.0451

> <Gold.Rescore>
     Score         DG    S(hbond)    S(metal)    S(lipo)     H(rot)  DE(clash)    DE(int)     intcor
     13.93     -15.49       1.52        0.00      91.49       2.25       0.07       1.49       ----

> <Gold.Chemscore.Fitness>
13.9309

> <Gold.Chemscore.DG>
-15.4873

> <Gold.Chemscore.ZeroCoef>
-5.4800

> <Gold.Chemscore.Hbond>
1.5159

> <Gold.Chemscore.Metal>
0.0000

> <Gold.Chemscore.Lipo>
91.4904

> <Gold.Chemscore.Internal_Hbond>
0.0000

> <Gold.Chemscore.DEClash>
0.0658

> <Gold.Chemscore.DEInternal>
1.4906

> <Gold.Chemscore.Rot>
2.2501

> <Gold.Chemscore.Internal.Correction>
   9.000000E+99

> <Gold.Chemscore.Hbonds>
donor molecule, donor type, donor heavy atom, donor atom, acceptor molecule, acceptor atom, score
      P1  H  7997  8010       L1     8  0.60
      P1  H 10752 10763       L1    14  0.20

> <Gold.Chemscore.Hbond.Weighted>
-5.0633

> <Gold.Chemscore.Metal.Weighted>
-0.0000

> <Gold.Chemscore.Lipo.Weighted>
-10.7044

> <Gold.Chemscore.Internal_Hbond.Weighted>
0.0000

> <Gold.Chemscore.DEClash.Weighted>
0.0658

> <Gold.Chemscore.DEInternal.Weighted>
1.4906

> <Gold.Chemscore.Rot.Weighted>
5.7603

> <Gold.Chemscore.Internal.Correction.Weighted>
   9.000000E+99

> <Gold.Protein.RotatedTorsions>
[ 6907 6896 6895 6894 ] final -153.43 input  -60.11 | X-H torsion
[ 7974 7965 7964 7962 ] final  -65.76 input  175.53 | X-H torsion
[ 8008 7997 7996 7995 ] final   34.08 input   59.86 | X-H torsion
[ 10167 10162 10161 10158 ] final   98.07 input  -65.29 | X-H torsion
[ 10718 10713 10712 10709 ] final   42.17 input   66.30 | X-H torsion
[ 10763 10752 10751 10750 ] final   60.59 input  -60.55 | X-H torsion
[ 11005 11000 10999 10996 ] final    7.47 input  -57.11 | X-H torsion

> <Gold.Protein.ActiveResidues>
 VAL166  LYS551  ARG553  GLY616  TRP617  ASP618  TYR619  PRO620  LYS621  CYS622 
 ASP623  PHE694  ASN695  SER759  ASP760  ASP761  ALA762  ILE779  LEU786  VAL792 
 PHE793  MET794  SER795  GLU796  ALA797  LYS798  CYS799  TRP800  GLU811  SER814 

> <Gold.Protein.RotatedAtoms>
  151.2424  133.4392  159.2607 H   0  0  0  0  0  0  0  0  0  0  0  0  # atno 6907 bound_to 6896
  151.0693  134.9788  159.8310 H   0  0  0  0  0  0  0  0  0  0  0  0  # atno 6908 bound_to 6896
  152.5410  134.2370  159.8900 H   0  0  0  0  0  0  0  0  0  0  0  0  # atno 6909 bound_to 6896
  145.7503  140.8911  143.0483 H   0  0  0  0  0  0  0  0  0  0  0  0  # atno 7974 bound_to 7965
  155.1490  140.3273  155.4435 H   0  0  0  0  0  0  0  0  0  0  0  0  # atno 8008 bound_to 7997
  156.2580  140.1980  156.6553 H   0  0  0  0  0  0  0  0  0  0  0  0  # atno 8009 bound_to 7997
  154.6487  140.0561  156.9916 H   0  0  0  0  0  0  0  0  0  0  0  0  # atno 8010 bound_to 7997
  139.7742  144.6911  151.0113 H   0  0  0  0  0  0  0  0  0  0  0  0  # atno 10167 bound_to 10162
  157.4018  130.7864  149.7355 H   0  0  0  0  0  0  0  0  0  0  0  0  # atno 10718 bound_to 10713
  152.9925  135.5531  154.5898 H   0  0  0  0  0  0  0  0  0  0  0  0  # atno 10763 bound_to 10752
  154.5262  135.2810  155.1222 H   0  0  0  0  0  0  0  0  0  0  0  0  # atno 10764 bound_to 10752
  154.2555  135.6391  153.5308 H   0  0  0  0  0  0  0  0  0  0  0  0  # atno 10765 bound_to 10752
  140.5479  134.0312  155.7926 H   0  0  0  0  0  0  0  0  0  0  0  0  # atno 11005 bound_to 11000
  144.6851  139.9582  143.7479 LP  0  0  0  0  0  0  0  0  0  0  0  0  # atno 17320 bound_to 7965
  146.0363  139.3380  143.0724 LP  0  0  0  0  0  0  0  0  0  0  0  0  # atno 17321 bound_to 7965
  140.7815  143.4554  151.0353 LP  0  0  0  0  0  0  0  0  0  0  0  0  # atno 17342 bound_to 10162
  139.8237  143.7785  152.3178 LP  0  0  0  0  0  0  0  0  0  0  0  0  # atno 17343 bound_to 10162
  155.9825  130.4009  150.3411 LP  0  0  0  0  0  0  0  0  0  0  0  0  # atno 17370 bound_to 10713
  157.1540  131.0328  151.2872 LP  0  0  0  0  0  0  0  0  0  0  0  0  # atno 17371 bound_to 10713
  141.1189  133.9494  157.2768 LP  0  0  0  0  0  0  0  0  0  0  0  0  # atno 17394 bound_to 11000
  139.9470  135.0182  156.8882 LP  0  0  0  0  0  0  0  0  0  0  0  0  # atno 17395 bound_to 11000

$$$$
