AV-unprocessed.smi:3181|AV-procd|sdf|12135|dock6
  -GOLD-   2272017573D 1   1.00000     0.00000
 Structure written by MMmdl.
 42 43  0  0  0  0  0  0  0  0  2 V2000
  148.2435  141.4577  156.3670 C   0  0  0  0  0  0  0  0  0  0  0  0
  149.6902  141.3213  155.8644 C   0  0  2  0  0  0  0  0  0  0  0  0
  150.4936  140.2496  156.6289 C   0  0  0  0  0  0  0  0  0  0  0  0
  151.0102  139.2047  155.7643 N   0  0  0  0  0  0  0  0  0  0  0  0
  151.6104  138.0497  156.0575 C   0  0  0  0  0  0  0  0  0  0  0  0
  151.9577  137.3421  154.9919 N   0  0  0  0  0  0  0  0  0  0  0  0
  151.5187  138.1812  154.0069 C   0  0  0  0  0  0  0  0  0  0  0  0
  150.9446  139.3126  154.4168 N   0  0  0  0  0  0  0  0  0  0  0  0
  150.3798  142.6275  155.9661 N   0  3  0  0  0  0  0  0  0  0  0  0
  150.9237  142.9656  157.3003 C   0  0  2  0  0  0  0  0  0  0  0  0
  149.7730  143.3137  158.2611 C   0  0  0  0  0  0  0  0  0  0  0  0
  150.2941  143.7196  159.6489 C   0  0  0  0  0  0  0  0  0  0  0  0
  151.2933  144.8895  159.5558 C   0  0  1  0  0  0  0  0  0  0  0  0
  151.7543  145.3600  160.9449 C   0  0  0  0  0  0  0  0  0  0  0  0
  152.4662  144.5626  158.5963 C   0  0  1  0  0  0  0  0  0  0  0  0
  153.4681  143.5299  159.1513 C   0  0  0  0  0  0  0  0  0  0  0  0
  151.9221  144.1422  157.2146 C   0  0  0  0  0  0  0  0  0  0  0  0
  147.6834  140.5322  156.2318 H   0  0  0  0  0  0  0  0  0  0  0  0
  147.7119  142.2376  155.8209 H   0  0  0  0  0  0  0  0  0  0  0  0
  148.2135  141.7137  157.4265 H   0  0  0  0  0  0  0  0  0  0  0  0
  149.6444  141.0195  154.8170 H   0  0  0  0  0  0  0  0  0  0  0  0
  151.3368  140.7077  157.1481 H   0  0  0  0  0  0  0  0  0  0  0  0
  149.8712  139.7839  157.3945 H   0  0  0  0  0  0  0  0  0  0  0  0
  151.7943  137.7176  157.0689 H   0  0  0  0  0  0  0  0  0  0  0  0
  151.6261  137.9518  152.9568 H   0  0  0  0  0  0  0  0  0  0  0  0
  151.1360  142.6517  155.2970 H   0  0  0  0  0  0  0  0  0  0  0  0
  151.4288  142.0800  157.6889 H   0  0  0  0  0  0  0  0  0  0  0  0
  149.1798  144.1306  157.8472 H   0  0  0  0  0  0  0  0  0  0  0  0
  149.0977  142.4631  158.3603 H   0  0  0  0  0  0  0  0  0  0  0  0
  149.4515  144.0029  160.2806 H   0  0  0  0  0  0  0  0  0  0  0  0
  150.7608  142.8617  160.1340 H   0  0  0  0  0  0  0  0  0  0  0  0
  150.7547  145.7303  159.1154 H   0  0  0  0  0  0  0  0  0  0  0  0
  152.2328  144.5574  161.5063 H   0  0  0  0  0  0  0  0  0  0  0  0
  150.9087  145.7107  161.5370 H   0  0  0  0  0  0  0  0  0  0  0  0
  152.4629  146.1848  160.8662 H   0  0  0  0  0  0  0  0  0  0  0  0
  153.0304  145.4843  158.4462 H   0  0  0  0  0  0  0  0  0  0  0  0
  152.9907  142.5826  159.3993 H   0  0  0  0  0  0  0  0  0  0  0  0
  153.9619  143.8961  160.0512 H   0  0  0  0  0  0  0  0  0  0  0  0
  154.2534  143.3204  158.4245 H   0  0  0  0  0  0  0  0  0  0  0  0
  152.7553  143.8954  156.5561 H   0  0  0  0  0  0  0  0  0  0  0  0
  151.4253  144.9985  156.7555 H   0  0  0  0  0  0  0  0  0  0  0  0
  149.7117  143.3417  155.7137 H   0  0  0  0  0  0  0  0  0  0  0  0
  1  2  1  0  0  0  0
  1 18  1  0  0  0  0
  1 19  1  0  0  0  0
  1 20  1  0  0  0  0
  2  3  1  0  0  0  0
  2  9  1  0  0  0  0
  2 21  1  0  0  0  0
  3  4  1  0  0  0  0
  3 22  1  0  0  0  0
  3 23  1  0  0  0  0
  4  8  1  0  0  0  0
  4  5  1  0  0  0  0
  5  6  2  0  0  0  0
  5 24  1  0  0  0  0
  6  7  1  0  0  0  0
  7  8  2  0  0  0  0
  7 25  1  0  0  0  0
  9 10  1  0  0  0  0
  9 26  1  0  0  0  0
  9 42  1  0  0  0  0
 10 17  1  0  0  0  0
 10 11  1  0  0  0  0
 10 27  1  0  0  0  0
 11 12  1  0  0  0  0
 11 28  1  0  0  0  0
 11 29  1  0  0  0  0
 12 13  1  0  0  0  0
 12 30  1  0  0  0  0
 12 31  1  0  0  0  0
 13 14  1  0  0  0  0
 13 15  1  0  0  0  0
 13 32  1  0  0  0  0
 14 33  1  0  0  0  0
 14 34  1  0  0  0  0
 14 35  1  0  0  0  0
 15 16  1  0  0  0  0
 15 17  1  0  0  0  0
 15 36  1  0  0  0  0
 16 37  1  0  0  0  0
 16 38  1  0  0  0  0
 16 39  1  0  0  0  0
 17 40  1  0  0  0  0
 17 41  1  0  0  0  0
M  CHG  1   9   1
M  END
> <s_m_source_file>
AV-unprocessed.smi

> <i_m_source_file_index>
3181

> <i_lp_mmshare_version>
43012

> <i_f3d_flags>
0

> <s_epik_input>
bjFbY0hdbltjSF1uMVtDSDJdW0NAQEhdKFtDSDNdKVtOSF1bQ0BASF0yW0NIMl1bQ0gyXVtDQEBIXShbQ0gzXSlbQ0BASF0oW0NIM10pW0NIMl0y

> <s_epik_cmdline>
J2VwaWtfcHl0aG9uJywgJy1waCcsICc3LjAnLCAnLXRuJywgJzgnLCAnLW1hJywgJzIwMCcsICctbWV0YWxfYmluZGluZycsICctaW1hZScsICc8aW5maWxlLm1hZT4nLCAnLW9tYWUnLCAnPG91dGZpbGUubWFlPic=

> <r_lp_tautomer_probability>
1

> <r_epik_Ionization_Penalty>
0.000617007

> <r_epik_Ionization_Penalty_Charging>
0.000616215

> <r_epik_Ionization_Penalty_Neutral>
7.92544e-07

> <r_epik_State_Penalty>
0.000388807

> <r_epik_Charging_Adjusted_Penalty>
0.00100502

> <i_epik_Tot_Q>
1

> <i_epik_Tot_abs_Q>
1

> <r_epik_Metal_State_Penalty>
-0

> <b_epik_Metal_Only>
0

> <s_lp_Force_Field>
OPLS_2005

> <r_lp_Energy>
21.1585

> <b_lp_Chiralities_Consistent>
1

> <s_lp_Variant>
AV-unprocessed.smi:3181-1

> <Gold.Version>
5.8.1

> <Gold.Id.Protein>
6NUR|6NUR_protein|mol2

> <Gold.PLP.Fitness>
43.9503

> <Gold.PLP.PLP>
-31.3402

> <Gold.PLP.part.hbond>
-3.0000

> <Gold.PLP.part.metal>
0.0000

> <Gold.PLP.part.buried>
-0.2404

> <Gold.PLP.part.nonpolar>
-28.6538

> <Gold.PLP.part.repulsive>
0.3493

> <Gold.PLP.ligand.clash>
0.0000

> <Gold.PLP.ligand.torsion>
1.1002

> <Gold.PLP.Chemscore.Hbond>
3.9280

> <Gold.PLP.Chemscore.CHOScore>
1.0000

> <Gold.PLP.Chemscore.Metal>
0.0000

> <Gold.Chemscore.Hbonds>
donor molecule, donor type, donor heavy atom, donor atom, acceptor molecule, acceptor atom, score
      L1  H     9    42       P1  8028  2.00
      P1  H  7989  7998       L1     8  1.00
      P1  H 10752 10765       L1     6  0.91
      L1  C     7    25       P1  7949  1.00

> <Gold.PLP.Chemscore.Internal.Correction>
0.0265

> <Gold.Rescore>
     Score         DG    S(hbond)    S(metal)    S(lipo)     H(rot)  DE(clash)    DE(int)     intcor
     18.70     -20.82       2.67        0.00     101.05       2.11       0.88       1.24       ----

> <Gold.Chemscore.Fitness>
18.7009

> <Gold.Chemscore.DG>
-20.8204

> <Gold.Chemscore.ZeroCoef>
-5.4800

> <Gold.Chemscore.Hbond>
2.6700

> <Gold.Chemscore.Metal>
0.0000

> <Gold.Chemscore.Lipo>
101.0500

> <Gold.Chemscore.Internal_Hbond>
0.0000

> <Gold.Chemscore.DEClash>
0.8843

> <Gold.Chemscore.DEInternal>
1.2352

> <Gold.Chemscore.Rot>
2.1095

> <Gold.Chemscore.Internal.Correction>
   9.000000E+99

> <Gold.Chemscore.Hbonds>
donor molecule, donor type, donor heavy atom, donor atom, acceptor molecule, acceptor atom, score
      L1  H     9    42       P1  8028  0.98
      P1  H  7989  7998       L1     8  0.81
      P1  H 10752 10765       L1     6  0.81

> <Gold.Chemscore.Hbond.Weighted>
-8.9179

> <Gold.Chemscore.Metal.Weighted>
-0.0000

> <Gold.Chemscore.Lipo.Weighted>
-11.8228

> <Gold.Chemscore.Internal_Hbond.Weighted>
0.0000

> <Gold.Chemscore.DEClash.Weighted>
0.8843

> <Gold.Chemscore.DEInternal.Weighted>
1.2352

> <Gold.Chemscore.Rot.Weighted>
5.4003

> <Gold.Chemscore.Internal.Correction.Weighted>
   9.000000E+99

> <Gold.Protein.RotatedTorsions>
[ 6907 6896 6895 6894 ] final  -16.15 input  -60.11 | X-H torsion
[ 7974 7965 7964 7962 ] final  124.03 input  175.53 | X-H torsion
[ 8008 7997 7996 7995 ] final  104.16 input   59.86 | X-H torsion
[ 10167 10162 10161 10158 ] final  177.82 input  -65.29 | X-H torsion
[ 10718 10713 10712 10709 ] final  -20.60 input   66.30 | X-H torsion
[ 10763 10752 10751 10750 ] final  177.90 input  -60.55 | X-H torsion
[ 11005 11000 10999 10996 ] final   37.79 input  -57.11 | X-H torsion

> <Gold.Protein.ActiveResidues>
 VAL166  LYS551  ARG553  GLY616  TRP617  ASP618  TYR619  PRO620  LYS621  CYS622 
 ASP623  PHE694  ASN695  SER759  ASP760  ASP761  ALA762  ILE779  LEU786  VAL792 
 PHE793  MET794  SER795  GLU796  ALA797  LYS798  CYS799  TRP800  GLU811  SER814 

> <Gold.Protein.RotatedAtoms>
  151.3131  135.0799  159.9278 H   0  0  0  0  0  0  0  0  0  0  0  0  # atno 6907 bound_to 6896
  152.5273  133.9716  159.7775 H   0  0  0  0  0  0  0  0  0  0  0  0  # atno 6908 bound_to 6896
  151.0023  133.5992  159.2723 H   0  0  0  0  0  0  0  0  0  0  0  0  # atno 6909 bound_to 6896
  145.0891  139.3600  143.4870 H   0  0  0  0  0  0  0  0  0  0  0  0  # atno 7974 bound_to 7965
  156.1548  140.3152  155.8708 H   0  0  0  0  0  0  0  0  0  0  0  0  # atno 8008 bound_to 7997
  155.3900  140.0493  157.3058 H   0  0  0  0  0  0  0  0  0  0  0  0  # atno 8009 bound_to 7997
  154.5091  140.2158  155.9203 H   0  0  0  0  0  0  0  0  0  0  0  0  # atno 8010 bound_to 7997
  139.5268  144.2753  152.0593 H   0  0  0  0  0  0  0  0  0  0  0  0  # atno 10167 bound_to 10162
  156.5297  130.4652  149.6554 H   0  0  0  0  0  0  0  0  0  0  0  0  # atno 10718 bound_to 10713
  154.5006  135.2783  155.1424 H   0  0  0  0  0  0  0  0  0  0  0  0  # atno 10763 bound_to 10752
  154.3058  135.6239  153.5448 H   0  0  0  0  0  0  0  0  0  0  0  0  # atno 10764 bound_to 10752
  152.9902  135.5708  154.5448 H   0  0  0  0  0  0  0  0  0  0  0  0  # atno 10765 bound_to 10752
  140.2190  134.3664  155.8013 H   0  0  0  0  0  0  0  0  0  0  0  0  # atno 11005 bound_to 11000
  146.3531  140.0717  142.8623 LP  0  0  0  0  0  0  0  0  0  0  0  0  # atno 17320 bound_to 7965
  145.1087  140.9391  143.4669 LP  0  0  0  0  0  0  0  0  0  0  0  0  # atno 17321 bound_to 7965
  140.2211  144.4465  150.6341 LP  0  0  0  0  0  0  0  0  0  0  0  0  # atno 17342 bound_to 10162
  140.6418  143.2205  151.6274 LP  0  0  0  0  0  0  0  0  0  0  0  0  # atno 17343 bound_to 10162
  156.3072  130.7209  151.2094 LP  0  0  0  0  0  0  0  0  0  0  0  0  # atno 17370 bound_to 10713
  157.7424  131.0491  150.5029 LP  0  0  0  0  0  0  0  0  0  0  0  0  # atno 17371 bound_to 10713
  141.2224  133.7183  156.8544 LP  0  0  0  0  0  0  0  0  0  0  0  0  # atno 17394 bound_to 11000
  140.1870  134.8993  157.3015 LP  0  0  0  0  0  0  0  0  0  0  0  0  # atno 17395 bound_to 11000

$$$$
