AV-unprocessed.smi:1705|AV-procd|sdf|6884|dock4
  -GOLD-   22720 8 93D 1   1.00000     0.00000
 Structure written by MMmdl.
 38 39  0  0  0  0  0  0  0  0  1 V2000
  150.9443  141.5126  156.9854 C   0  0  0  0  0  0  0  0  0  0  0  0
  151.6928  140.6632  158.0221 C   0  0  2  0  0  0  0  0  0  0  0  0
  150.9808  139.4116  158.2462 N   0  0  0  0  0  0  0  0  0  0  0  0
  150.8096  138.2778  157.4516 C   0  0  0  0  0  0  0  0  0  0  0  0
  151.3519  138.1415  156.2046 C   0  0  0  0  0  0  0  0  0  0  0  0
  152.1885  139.1098  155.5680 C   0  0  0  0  0  0  0  0  0  0  0  0
  152.8619  139.8662  155.0050 N   0  0  0  0  0  0  0  0  0  0  0  0
  151.1430  136.9412  155.3948 C   0  0  0  0  0  0  0  0  0  0  0  0
  151.6387  136.7750  154.2775 O   0  0  0  0  0  0  0  0  0  0  0  0
  150.3286  135.9570  155.9889 N   0  0  0  0  0  0  0  0  0  0  0  0
  150.0972  134.7416  155.2320 C   0  0  0  0  0  0  0  0  0  0  0  0
  149.7767  136.0596  157.2803 C   0  0  0  0  0  0  0  0  0  0  0  0
  149.0931  135.1511  157.7628 O   0  0  0  0  0  0  0  0  0  0  0  0
  150.0453  137.2446  158.0085 N   0  0  0  0  0  0  0  0  0  0  0  0
  149.4505  137.2779  159.3318 C   0  0  0  0  0  0  0  0  0  0  0  0
  151.9094  141.4280  159.3453 C   0  0  1  0  0  0  0  0  0  0  0  0
  153.3307  141.9457  159.5992 C   0  0  0  0  0  0  0  0  0  0  0  0
  153.0701  143.1306  160.5011 C   0  0  0  0  0  0  0  0  0  0  0  0
  151.7926  143.6985  159.8930 C   0  0  0  0  0  0  0  0  0  0  0  0
  151.0596  142.5706  159.4261 O   0  0  0  0  0  0  0  0  0  0  0  0
  151.4710  142.4474  156.7915 H   0  0  0  0  0  0  0  0  0  0  0  0
  149.9368  141.7610  157.3203 H   0  0  0  0  0  0  0  0  0  0  0  0
  150.8563  140.9822  156.0366 H   0  0  0  0  0  0  0  0  0  0  0  0
  152.6631  140.4569  157.5795 H   0  0  0  0  0  0  0  0  0  0  0  0
  150.3336  139.4764  159.0186 H   0  0  0  0  0  0  0  0  0  0  0  0
  149.1864  134.2476  155.5713 H   0  0  0  0  0  0  0  0  0  0  0  0
  150.9712  134.1055  155.3797 H   0  0  0  0  0  0  0  0  0  0  0  0
  149.9637  134.9997  154.1802 H   0  0  0  0  0  0  0  0  0  0  0  0
  148.3690  137.3342  159.1977 H   0  0  0  0  0  0  0  0  0  0  0  0
  149.8060  138.1358  159.8974 H   0  0  0  0  0  0  0  0  0  0  0  0
  149.7476  136.3691  159.8591 H   0  0  0  0  0  0  0  0  0  0  0  0
  151.6276  140.7815  160.1779 H   0  0  0  0  0  0  0  0  0  0  0  0
  153.9798  141.1975  160.0546 H   0  0  0  0  0  0  0  0  0  0  0  0
  153.8025  142.2871  158.6772 H   0  0  0  0  0  0  0  0  0  0  0  0
  152.8854  142.7936  161.5218 H   0  0  0  0  0  0  0  0  0  0  0  0
  153.8908  143.8480  160.5176 H   0  0  0  0  0  0  0  0  0  0  0  0
  151.2128  144.2861  160.6052 H   0  0  0  0  0  0  0  0  0  0  0  0
  152.0288  144.3352  159.0395 H   0  0  0  0  0  0  0  0  0  0  0  0
  1  2  1  0  0  0  0
  1 21  1  0  0  0  0
  1 22  1  0  0  0  0
  1 23  1  0  0  0  0
  2  3  1  0  0  0  0
  2 16  1  0  0  0  0
  2 24  1  0  0  0  0
  3  4  1  0  0  0  0
  3 25  1  0  0  0  0
  4 14  1  0  0  0  0
  4  5  2  0  0  0  0
  5  6  1  0  0  0  0
  5  8  1  0  0  0  0
  6  7  3  0  0  0  0
  8  9  2  0  0  0  0
  8 10  1  0  0  0  0
 10 11  1  0  0  0  0
 10 12  1  0  0  0  0
 11 26  1  0  0  0  0
 11 27  1  0  0  0  0
 11 28  1  0  0  0  0
 12 13  2  0  0  0  0
 12 14  1  0  0  0  0
 14 15  1  0  0  0  0
 15 29  1  0  0  0  0
 15 30  1  0  0  0  0
 15 31  1  0  0  0  0
 16 20  1  0  0  0  0
 16 17  1  0  0  0  0
 16 32  1  0  0  0  0
 17 18  1  0  0  0  0
 17 33  1  0  0  0  0
 17 34  1  0  0  0  0
 18 19  1  0  0  0  0
 18 35  1  0  0  0  0
 18 36  1  0  0  0  0
 19 20  1  0  0  0  0
 19 37  1  0  0  0  0
 19 38  1  0  0  0  0
M  END
> <s_m_source_file>
AV-unprocessed.smi

> <i_m_source_file_index>
1705

> <i_lp_mmshare_version>
43012

> <i_f3d_flags>
0

> <s_epik_input>
TzFbQ0gyXVtDSDJdW0NIMl1bQ0BIXTFbQ0BIXShbQ0gzXSlbTkhdYzJjKEMjTiljKD1PKW4oW0NIM10pYyg9TyluMltDSDNd

> <s_epik_cmdline>
J2VwaWtfcHl0aG9uJywgJy1waCcsICc3LjAnLCAnLXRuJywgJzgnLCAnLW1hJywgJzIwMCcsICctbWV0YWxfYmluZGluZycsICctaW1hZScsICc8aW5maWxlLm1hZT4nLCAnLW9tYWUnLCAnPG91dGZpbGUubWFlPic=

> <r_epik_Ionization_Penalty>
0.000446268

> <r_epik_Ionization_Penalty_Charging>
9.41922e-10

> <r_epik_Ionization_Penalty_Neutral>
0.000446267

> <r_epik_State_Penalty>
0.000275531

> <r_epik_Charging_Adjusted_Penalty>
0.000275532

> <i_epik_Tot_Q>
0

> <i_epik_Tot_abs_Q>
0

> <r_epik_Metal_State_Penalty>
-0

> <b_epik_Metal_Only>
0

> <s_lp_Force_Field>
OPLS_2005

> <r_lp_Energy>
40.5078

> <b_lp_Chiralities_Consistent>
1

> <s_lp_Variant>
AV-unprocessed.smi:1705-3

> <Gold.Version>
5.8.1

> <Gold.Id.Protein>
6NUR|6NUR_protein|mol2

> <Gold.PLP.Fitness>
40.5026

> <Gold.PLP.PLP>
-32.8837

> <Gold.PLP.part.hbond>
-4.9228

> <Gold.PLP.part.metal>
0.0000

> <Gold.PLP.part.buried>
-4.6173

> <Gold.PLP.part.nonpolar>
-25.1151

> <Gold.PLP.part.repulsive>
1.2881

> <Gold.PLP.ligand.clash>
1.7701

> <Gold.PLP.ligand.torsion>
1.4672

> <Gold.PLP.Chemscore.Hbond>
3.5120

> <Gold.PLP.Chemscore.CHOScore>
0.0000

> <Gold.PLP.Chemscore.Metal>
0.0000

> <Gold.Chemscore.Hbonds>
donor molecule, donor type, donor heavy atom, donor atom, acceptor molecule, acceptor atom, score
      P1  H  6896  6909       L1    13  0.03
      P1  H  7989  7998       L1     7  0.31
      P1  H  7997  8009       L1     7  1.00
      P1  H 10752 10764       L1     9  1.00

> <Gold.PLP.Chemscore.Internal.Correction>
1.7873

> <Gold.Rescore>
     Score         DG    S(hbond)    S(metal)    S(lipo)     H(rot)  DE(clash)    DE(int)     intcor
     16.71     -19.40       2.74        0.00      68.62       1.28       0.08       2.61       ----

> <Gold.Chemscore.Fitness>
16.7055

> <Gold.Chemscore.DG>
-19.3970

> <Gold.Chemscore.ZeroCoef>
-5.4800

> <Gold.Chemscore.Hbond>
2.7425

> <Gold.Chemscore.Metal>
0.0000

> <Gold.Chemscore.Lipo>
68.6223

> <Gold.Chemscore.Internal_Hbond>
0.0000

> <Gold.Chemscore.DEClash>
0.0818

> <Gold.Chemscore.DEInternal>
2.6097

> <Gold.Chemscore.Rot>
1.2780

> <Gold.Chemscore.Internal.Correction>
   9.000000E+99

> <Gold.Chemscore.Hbonds>
donor molecule, donor type, donor heavy atom, donor atom, acceptor molecule, acceptor atom, score
      P1  H  6896  6909       L1    13  0.02
      P1  H  7989  7998       L1     7  0.21
      P1  H  7997  8009       L1     7  0.88
      P1  H 10752 10764       L1     9  0.97

> <Gold.Chemscore.Hbond.Weighted>
-9.1598

> <Gold.Chemscore.Metal.Weighted>
-0.0000

> <Gold.Chemscore.Lipo.Weighted>
-8.0288

> <Gold.Chemscore.Internal_Hbond.Weighted>
0.0000

> <Gold.Chemscore.DEClash.Weighted>
0.0818

> <Gold.Chemscore.DEInternal.Weighted>
2.6097

> <Gold.Chemscore.Rot.Weighted>
3.2717

> <Gold.Chemscore.Internal.Correction.Weighted>
   9.000000E+99

> <Gold.Protein.RotatedTorsions>
[ 6907 6896 6895 6894 ] final   36.93 input  -60.11 | X-H torsion
[ 7974 7965 7964 7962 ] final -165.74 input  175.53 | X-H torsion
[ 8008 7997 7996 7995 ] final -131.86 input   59.86 | X-H torsion
[ 10167 10162 10161 10158 ] final -103.18 input  -65.29 | X-H torsion
[ 10718 10713 10712 10709 ] final  -45.14 input   66.30 | X-H torsion
[ 10763 10752 10751 10750 ] final  -92.59 input  -60.55 | X-H torsion
[ 11005 11000 10999 10996 ] final  167.82 input  -57.11 | X-H torsion

> <Gold.Protein.ActiveResidues>
 VAL166  LYS551  ARG553  GLY616  TRP617  ASP618  TYR619  PRO620  LYS621  CYS622 
 ASP623  PHE694  ASN695  SER759  ASP760  ASP761  ALA762  ILE779  LEU786  VAL792 
 PHE793  MET794  SER795  GLU796  ALA797  LYS798  CYS799  TRP800  GLU811  SER814 

> <Gold.Protein.RotatedAtoms>
  152.1364  134.9096  160.0555 H   0  0  0  0  0  0  0  0  0  0  0  0  # atno 6907 bound_to 6896
  152.0181  133.3883  159.4255 H   0  0  0  0  0  0  0  0  0  0  0  0  # atno 6908 bound_to 6896
  150.6861  134.3578  159.4981 H   0  0  0  0  0  0  0  0  0  0  0  0  # atno 6909 bound_to 6896
  144.7262  140.2769  143.6242 H   0  0  0  0  0  0  0  0  0  0  0  0  # atno 7974 bound_to 7965
  155.3193  140.0461  157.3038 H   0  0  0  0  0  0  0  0  0  0  0  0  # atno 8008 bound_to 7997
  154.5389  140.2281  155.8641 H   0  0  0  0  0  0  0  0  0  0  0  0  # atno 8009 bound_to 7997
  156.1862  140.3062  155.9249 H   0  0  0  0  0  0  0  0  0  0  0  0  # atno 8010 bound_to 7997
  140.2227  143.3664  152.0955 H   0  0  0  0  0  0  0  0  0  0  0  0  # atno 10167 bound_to 10162
  156.2314  130.4173  149.8871 H   0  0  0  0  0  0  0  0  0  0  0  0  # atno 10718 bound_to 10713
  154.6876  135.5225  153.8348 H   0  0  0  0  0  0  0  0  0  0  0  0  # atno 10763 bound_to 10752
  153.0609  135.6568  154.0475 H   0  0  0  0  0  0  0  0  0  0  0  0  # atno 10764 bound_to 10752
  154.0354  135.2982  155.3342 H   0  0  0  0  0  0  0  0  0  0  0  0  # atno 10765 bound_to 10752
  140.2808  134.7752  157.3756 H   0  0  0  0  0  0  0  0  0  0  0  0  # atno 11005 bound_to 11000
  145.7988  139.1956  143.2060 LP  0  0  0  0  0  0  0  0  0  0  0  0  # atno 17320 bound_to 7965
  146.0694  140.7885  142.9695 LP  0  0  0  0  0  0  0  0  0  0  0  0  # atno 17321 bound_to 7965
  139.5138  144.6938  151.5686 LP  0  0  0  0  0  0  0  0  0  0  0  0  # atno 17342 bound_to 10162
  140.6243  143.9199  150.6551 LP  0  0  0  0  0  0  0  0  0  0  0  0  # atno 17343 bound_to 10162
  156.6484  130.8733  151.3527 LP  0  0  0  0  0  0  0  0  0  0  0  0  # atno 17370 bound_to 10713
  157.7134  130.9468  150.1170 LP  0  0  0  0  0  0  0  0  0  0  0  0  # atno 17371 bound_to 10713
  140.1285  134.5126  155.8125 LP  0  0  0  0  0  0  0  0  0  0  0  0  # atno 17394 bound_to 11000
  141.2163  133.6781  156.6996 LP  0  0  0  0  0  0  0  0  0  0  0  0  # atno 17395 bound_to 11000

$$$$
