AV-unprocessed.smi:2077|AV-procd|sdf|8461|dock4
  -GOLD-   2272011163D 1   1.00000     0.00000
 Structure written by MMmdl.
 38 40  0  0  0  0  0  0  0  0  1 V2000
  152.2893  144.0212  161.5912 C   0  0  0  0  0  0  0  0  0  0  0  0
  152.5284  142.8548  160.7205 N   0  0  0  0  0  0  0  0  0  0  0  0
  151.8241  142.7636  159.5486 C   0  0  0  0  0  0  0  0  0  0  0  0
  150.9971  143.5894  159.1601 O   0  0  0  0  0  0  0  0  0  0  0  0
  152.1389  141.5684  158.7574 C   0  0  0  0  0  0  0  0  0  0  0  0
  153.0472  140.6412  159.1498 C   0  0  0  0  0  0  0  0  0  0  0  0
  153.1584  139.6172  158.2155 N   0  0  0  0  0  0  0  0  0  0  0  0
  152.2855  139.9947  157.2812 C   0  0  0  0  0  0  0  0  0  0  0  0
  151.6345  141.1495  157.5259 N   0  0  0  0  0  0  0  0  0  0  0  0
  150.6430  141.7718  156.6610 C   0  0  0  0  0  0  0  0  0  0  0  0
  149.9104  140.7535  155.7629 C   0  0  2  0  0  0  0  0  0  0  0  0
  150.7317  140.3697  154.6770 O   0  0  0  0  0  0  0  0  0  0  0  0
  148.5686  141.2948  155.2962 C   0  0  0  0  0  0  0  0  0  0  0  0
  148.2816  141.3860  153.9172 C   0  0  0  0  0  0  0  0  0  0  0  0
  147.0377  141.8847  153.4832 C   0  0  0  0  0  0  0  0  0  0  0  0
  146.0735  142.2920  154.4250 C   0  0  0  0  0  0  0  0  0  0  0  0
  146.3530  142.1998  155.8020 C   0  0  0  0  0  0  0  0  0  0  0  0
  145.4258  142.5892  156.7087 F   0  0  0  0  0  0  0  0  0  0  0  0
  147.5966  141.7019  156.2365 C   0  0  0  0  0  0  0  0  0  0  0  0
  153.7215  140.8353  160.3831 N   0  0  0  0  0  0  0  0  0  0  0  0
  154.7091  139.8446  160.8204 C   0  0  0  0  0  0  0  0  0  0  0  0
  153.4662  141.9370  161.1610 C   0  0  0  0  0  0  0  0  0  0  0  0
  154.0657  142.0986  162.2278 O   0  0  0  0  0  0  0  0  0  0  0  0
  151.5073  144.6986  161.2467 H   0  0  0  0  0  0  0  0  0  0  0  0
  153.1997  144.6155  161.6842 H   0  0  0  0  0  0  0  0  0  0  0  0
  151.9957  143.6993  162.5918 H   0  0  0  0  0  0  0  0  0  0  0  0
  152.1153  139.4130  156.3871 H   0  0  0  0  0  0  0  0  0  0  0  0
  149.9193  142.2850  157.2958 H   0  0  0  0  0  0  0  0  0  0  0  0
  151.1186  142.5509  156.0669 H   0  0  0  0  0  0  0  0  0  0  0  0
  149.7304  139.8484  156.3450 H   0  0  0  0  0  0  0  0  0  0  0  0
  150.3331  139.6287  154.2467 H   0  0  0  0  0  0  0  0  0  0  0  0
  149.0135  141.0746  153.1863 H   0  0  0  0  0  0  0  0  0  0  0  0
  146.8232  141.9542  152.4269 H   0  0  0  0  0  0  0  0  0  0  0  0
  145.1198  142.6741  154.0917 H   0  0  0  0  0  0  0  0  0  0  0  0
  147.8025  141.6317  157.2948 H   0  0  0  0  0  0  0  0  0  0  0  0
  154.4364  139.4331  161.7933 H   0  0  0  0  0  0  0  0  0  0  0  0
  155.6951  140.3029  160.9090 H   0  0  0  0  0  0  0  0  0  0  0  0
  154.8016  139.0067  160.1301 H   0  0  0  0  0  0  0  0  0  0  0  0
  1  2  1  0  0  0  0
  1 24  1  0  0  0  0
  1 25  1  0  0  0  0
  1 26  1  0  0  0  0
  2 22  1  0  0  0  0
  2  3  1  0  0  0  0
  3  4  2  0  0  0  0
  3  5  1  0  0  0  0
  5  9  1  0  0  0  0
  5  6  2  0  0  0  0
  6  7  1  0  0  0  0
  6 20  1  0  0  0  0
  7  8  2  0  0  0  0
  8  9  1  0  0  0  0
  8 27  1  0  0  0  0
  9 10  1  0  0  0  0
 10 11  1  0  0  0  0
 10 28  1  0  0  0  0
 10 29  1  0  0  0  0
 11 12  1  0  0  0  0
 11 13  1  0  0  0  0
 11 30  1  0  0  0  0
 12 31  1  0  0  0  0
 13 19  1  0  0  0  0
 13 14  2  0  0  0  0
 14 15  1  0  0  0  0
 14 32  1  0  0  0  0
 15 16  2  0  0  0  0
 15 33  1  0  0  0  0
 16 17  1  0  0  0  0
 16 34  1  0  0  0  0
 17 18  1  0  0  0  0
 17 19  2  0  0  0  0
 19 35  1  0  0  0  0
 20 21  1  0  0  0  0
 20 22  1  0  0  0  0
 21 36  1  0  0  0  0
 21 37  1  0  0  0  0
 21 38  1  0  0  0  0
 22 23  2  0  0  0  0
M  END
> <s_m_source_file>
AV-unprocessed.smi

> <i_m_source_file_index>
2077

> <i_lp_mmshare_version>
43012

> <i_f3d_flags>
0

> <s_epik_input>
Tz1jMW4oW0NIM10pYyg9TyluKFtDSDNdKWMoYzEyKW5bY0hdbjJbQ0gyXVtDQEhdKFtPSF0pYzNbY0hdW2NIXVtjSF1jKEYpW2NIXTM=

> <s_epik_cmdline>
J2VwaWtfcHl0aG9uJywgJy1waCcsICc3LjAnLCAnLXRuJywgJzgnLCAnLW1hJywgJzIwMCcsICctbWV0YWxfYmluZGluZycsICctaW1hZScsICc8aW5maWxlLm1hZT4nLCAnLW9tYWUnLCAnPG91dGZpbGUubWFlPic=

> <r_lp_tautomer_probability>
1

> <r_epik_Ionization_Penalty>
1.5338e-06

> <r_epik_Ionization_Penalty_Charging>
3.74189e-09

> <r_epik_Ionization_Penalty_Neutral>
1.53006e-06

> <r_epik_State_Penalty>
-0

> <r_epik_Charging_Adjusted_Penalty>
3.74189e-09

> <i_epik_Tot_Q>
0

> <i_epik_Tot_abs_Q>
0

> <r_epik_Metal_State_Penalty>
-0

> <b_epik_Metal_Only>
0

> <s_lp_Force_Field>
OPLS_2005

> <r_lp_Energy>
35.2177

> <b_lp_Chiralities_Consistent>
1

> <s_lp_Variant>
AV-unprocessed.smi:2077-1

> <Gold.Version>
5.8.1

> <Gold.Id.Protein>
6NUR|6NUR_protein|mol2

> <Gold.PLP.Fitness>
50.2001

> <Gold.PLP.PLP>
-48.2794

> <Gold.PLP.part.hbond>
-2.9876

> <Gold.PLP.part.metal>
0.0000

> <Gold.PLP.part.buried>
-5.5944

> <Gold.PLP.part.nonpolar>
-39.2965

> <Gold.PLP.part.repulsive>
0.0906

> <Gold.PLP.ligand.clash>
0.0000

> <Gold.PLP.ligand.torsion>
0.5549

> <Gold.PLP.Chemscore.Hbond>
1.0000

> <Gold.PLP.Chemscore.CHOScore>
0.0000

> <Gold.PLP.Chemscore.Metal>
0.0000

> <Gold.Chemscore.Hbonds>
donor molecule, donor type, donor heavy atom, donor atom, acceptor molecule, acceptor atom, score
      P1  H  7989  7998       L1    12  0.95

> <Gold.PLP.Chemscore.Internal.Correction>
0.0305

> <Gold.Rescore>
     Score         DG    S(hbond)    S(metal)    S(lipo)     H(rot)  DE(clash)    DE(int)     intcor
     10.20     -11.02       0.82        0.00      72.91       2.24       0.07       0.75       ----

> <Gold.Chemscore.Fitness>
10.2044

> <Gold.Chemscore.DG>
-11.0200

> <Gold.Chemscore.ZeroCoef>
-5.4800

> <Gold.Chemscore.Hbond>
0.8199

> <Gold.Chemscore.Metal>
0.0000

> <Gold.Chemscore.Lipo>
72.9087

> <Gold.Chemscore.Internal_Hbond>
0.0000

> <Gold.Chemscore.DEClash>
0.0650

> <Gold.Chemscore.DEInternal>
0.7506

> <Gold.Chemscore.Rot>
2.2377

> <Gold.Chemscore.Internal.Correction>
   9.000000E+99

> <Gold.Chemscore.Hbonds>
donor molecule, donor type, donor heavy atom, donor atom, acceptor molecule, acceptor atom, score
      P1  H  7989  7998       L1    12  0.21

> <Gold.Chemscore.Hbond.Weighted>
-2.7383

> <Gold.Chemscore.Metal.Weighted>
-0.0000

> <Gold.Chemscore.Lipo.Weighted>
-8.5303

> <Gold.Chemscore.Internal_Hbond.Weighted>
0.0000

> <Gold.Chemscore.DEClash.Weighted>
0.0650

> <Gold.Chemscore.DEInternal.Weighted>
0.7506

> <Gold.Chemscore.Rot.Weighted>
5.7286

> <Gold.Chemscore.Internal.Correction.Weighted>
   9.000000E+99

> <Gold.Protein.RotatedTorsions>
[ 6907 6896 6895 6894 ] final  -83.75 input  -60.11 | X-H torsion
[ 7974 7965 7964 7962 ] final   48.01 input  175.53 | X-H torsion
[ 8008 7997 7996 7995 ] final  -49.57 input   59.86 | X-H torsion
[ 10167 10162 10161 10158 ] final  158.15 input  -65.29 | X-H torsion
[ 10718 10713 10712 10709 ] final  -65.89 input   66.30 | X-H torsion
[ 10763 10752 10751 10750 ] final  179.40 input  -60.55 | X-H torsion
[ 11005 11000 10999 10996 ] final  -52.30 input  -57.11 | X-H torsion

> <Gold.Protein.ActiveResidues>
 VAL166  LYS551  ARG553  GLY616  TRP617  ASP618  TYR619  PRO620  LYS621  CYS622 
 ASP623  PHE694  ASN695  SER759  ASP760  ASP761  ALA762  ILE779  LEU786  VAL792 
 PHE793  MET794  SER795  GLU796  ALA797  LYS798  CYS799  TRP800  GLU811  SER814 

> <Gold.Protein.RotatedAtoms>
  150.6882  134.3465  159.4890 H   0  0  0  0  0  0  0  0  0  0  0  0  # atno 6907 bound_to 6896
  152.1311  134.9131  160.0568 H   0  0  0  0  0  0  0  0  0  0  0  0  # atno 6908 bound_to 6896
  152.0300  133.3899  159.4330 H   0  0  0  0  0  0  0  0  0  0  0  0  # atno 6909 bound_to 6896
  146.0245  139.4689  142.9876 H   0  0  0  0  0  0  0  0  0  0  0  0  # atno 7974 bound_to 7965
  154.4046  140.1293  156.4525 H   0  0  0  0  0  0  0  0  0  0  0  0  # atno 8008 bound_to 7997
  155.7352  140.3490  155.5058 H   0  0  0  0  0  0  0  0  0  0  0  0  # atno 8009 bound_to 7997
  155.9090  140.1032  157.1284 H   0  0  0  0  0  0  0  0  0  0  0  0  # atno 8010 bound_to 7997
  139.4825  144.4851  151.8389 H   0  0  0  0  0  0  0  0  0  0  0  0  # atno 10167 bound_to 10162
  156.0643  130.4254  150.1629 H   0  0  0  0  0  0  0  0  0  0  0  0  # atno 10718 bound_to 10713
  154.5202  135.2793  155.1269 H   0  0  0  0  0  0  0  0  0  0  0  0  # atno 10763 bound_to 10752
  154.2829  135.6282  153.5358 H   0  0  0  0  0  0  0  0  0  0  0  0  # atno 10764 bound_to 10752
  152.9935  135.5655  154.5689 H   0  0  0  0  0  0  0  0  0  0  0  0  # atno 10765 bound_to 10752
  141.0917  133.6631  156.4004 H   0  0  0  0  0  0  0  0  0  0  0  0  # atno 11005 bound_to 11000
  145.7141  141.0097  143.1438 LP  0  0  0  0  0  0  0  0  0  0  0  0  # atno 17320 bound_to 7965
  144.7003  139.8792  143.7446 LP  0  0  0  0  0  0  0  0  0  0  0  0  # atno 17321 bound_to 7965
  140.4330  144.2090  150.5888 LP  0  0  0  0  0  0  0  0  0  0  0  0  # atno 17342 bound_to 10162
  140.4760  143.2396  151.9022 LP  0  0  0  0  0  0  0  0  0  0  0  0  # atno 17343 bound_to 10162
  156.9692  130.9829  151.3462 LP  0  0  0  0  0  0  0  0  0  0  0  0  # atno 17370 bound_to 10713
  157.5674  130.8287  149.8346 LP  0  0  0  0  0  0  0  0  0  0  0  0  # atno 17371 bound_to 10713
  140.5237  134.6280  157.5327 LP  0  0  0  0  0  0  0  0  0  0  0  0  # atno 17394 bound_to 11000
  139.9744  134.7239  155.9978 LP  0  0  0  0  0  0  0  0  0  0  0  0  # atno 17395 bound_to 11000

$$$$
