AV-unprocessed.smi:828|AV-procd|sdf|3865|dock8
  -GOLD-   22720 1313D 1   1.00000     0.00000
 Structure written by MMmdl.
 34 35  0  0  0  0  0  0  0  0  3 V2000
  148.8778  140.7768  154.7696 C   0  0  0  0  0  0  0  0  0  0  0  0
  149.7986  139.6063  154.7180 C   0  0  0  0  0  0  0  0  0  0  0  0
  151.1103  139.7293  154.5016 N   0  0  0  0  0  0  0  0  0  0  0  0
  151.7568  138.5019  154.4965 N   0  0  0  0  0  0  0  0  0  0  0  0
  150.9261  137.4694  154.6986 C   0  0  0  0  0  0  0  0  0  0  0  0
  151.3547  136.1968  154.7325 N   0  5  0  0  0  0  0  0  0  0  0  0
  150.5175  135.2128  155.1293 C   0  0  0  0  0  0  0  0  0  0  0  0
  150.6328  134.5185  156.1416 O   0  0  0  0  0  0  0  0  0  0  0  0
  149.4876  135.0161  154.2940 N   0  0  0  0  0  0  0  0  0  0  0  0
  148.4344  134.0164  154.4410 C   0  0  0  0  0  0  0  0  0  0  0  0
  147.0323  134.6564  154.4309 C   0  0  1  0  0  0  0  0  0  0  0  0
  146.7961  135.6851  155.5423 C   0  0  0  0  0  0  0  0  0  0  0  0
  145.6668  136.5382  154.9839 C   0  0  0  0  0  0  0  0  0  0  0  0
  145.9741  136.5958  153.4862 C   0  0  0  0  0  0  0  0  0  0  0  0
  146.7766  135.3901  153.1682 N   0  3  2  0  0  0  0  0  0  0  0  0
  146.2025  134.5584  152.0878 C   0  0  0  0  0  0  0  0  0  0  0  0
  149.2469  137.9538  154.9339 S   0  0  0  0  0  0  0  0  0  0  0  0
  148.7415  141.1886  153.7695 H   0  0  0  0  0  0  0  0  0  0  0  0
  149.2905  141.5513  155.4164 H   0  0  0  0  0  0  0  0  0  0  0  0
  147.9055  140.4776  155.1610 H   0  0  0  0  0  0  0  0  0  0  0  0
  149.4362  135.6149  153.4828 H   0  0  0  0  0  0  0  0  0  0  0  0
  148.5121  133.2479  153.6699 H   0  0  0  0  0  0  0  0  0  0  0  0
  148.6025  133.5084  155.3904 H   0  0  0  0  0  0  0  0  0  0  0  0
  146.2768  133.8749  154.5358 H   0  0  0  0  0  0  0  0  0  0  0  0
  146.5464  135.2270  156.5000 H   0  0  0  0  0  0  0  0  0  0  0  0
  147.6836  136.3034  155.6860 H   0  0  0  0  0  0  0  0  0  0  0  0
  144.7127  136.0358  155.1482 H   0  0  0  0  0  0  0  0  0  0  0  0
  145.6116  137.5250  155.4443 H   0  0  0  0  0  0  0  0  0  0  0  0
  145.0600  136.6668  152.8948 H   0  0  0  0  0  0  0  0  0  0  0  0
  146.5804  137.4731  153.2590 H   0  0  0  0  0  0  0  0  0  0  0  0
  145.2190  134.1771  152.3658 H   0  0  0  0  0  0  0  0  0  0  0  0
  146.8498  133.7092  151.8686 H   0  0  0  0  0  0  0  0  0  0  0  0
  146.0973  135.1428  151.1732 H   0  0  0  0  0  0  0  0  0  0  0  0
  147.6724  135.7272  152.8456 H   0  0  0  0  0  0  0  0  0  0  0  0
  1  2  1  0  0  0  0
  1 18  1  0  0  0  0
  1 19  1  0  0  0  0
  1 20  1  0  0  0  0
  2 17  1  0  0  0  0
  2  3  2  0  0  0  0
  3  4  1  0  0  0  0
  4  5  2  0  0  0  0
  5  6  1  0  0  0  0
  5 17  1  0  0  0  0
  6  7  1  0  0  0  0
  7  8  2  0  0  0  0
  7  9  1  0  0  0  0
  9 10  1  0  0  0  0
  9 21  1  0  0  0  0
 10 11  1  0  0  0  0
 10 22  1  0  0  0  0
 10 23  1  0  0  0  0
 11 15  1  0  0  0  0
 11 12  1  0  0  0  0
 11 24  1  0  0  0  0
 12 13  1  0  0  0  0
 12 25  1  0  0  0  0
 12 26  1  0  0  0  0
 13 14  1  0  0  0  0
 13 27  1  0  0  0  0
 13 28  1  0  0  0  0
 14 15  1  0  0  0  0
 14 29  1  0  0  0  0
 14 30  1  0  0  0  0
 15 16  1  0  0  0  0
 15 34  1  0  0  0  0
 16 31  1  0  0  0  0
 16 32  1  0  0  0  0
 16 33  1  0  0  0  0
M  CHG  1   6  -1
M  CHG  1  15   1
M  END
> <s_m_source_file>
AV-unprocessed.smi

> <i_m_source_file_index>
828

> <i_lp_mmshare_version>
43012

> <i_f3d_flags>
0

> <s_epik_input>
W0NIM11jMW5uYyhzMSlbTkhdQyg9TylbTkhdW0NIMl1bQ0BASF0yW0NIMl1bQ0gyXVtDSDJdTjJbQ0gzXQ==

> <s_epik_cmdline>
J2VwaWtfcHl0aG9uJywgJy1waCcsICc3LjAnLCAnLXRuJywgJzgnLCAnLW1hJywgJzIwMCcsICctbWV0YWxfYmluZGluZycsICctaW1hZScsICc8aW5maWxlLm1hZT4nLCAnLW9tYWUnLCAnPG91dGZpbGUubWFlPic=

> <r_lp_tautomer_probability>
1

> <r_epik_Ionization_Penalty>
3.94379

> <r_epik_Ionization_Penalty_Charging>
3.83377

> <r_epik_Ionization_Penalty_Neutral>
0.110023

> <r_epik_State_Penalty>
3.83036

> <r_epik_Charging_Adjusted_Penalty>
7.66413

> <i_epik_Tot_Q>
0

> <i_epik_Tot_abs_Q>
2

> <r_epik_Metal_State_Penalty>
0.575095

> <b_epik_Metal_Only>
1

> <s_lp_Force_Field>
OPLS_2005

> <r_lp_Energy>
18.3481

> <b_lp_Chiralities_Consistent>
1

> <s_lp_Variant>
AV-unprocessed.smi:828-8

> <Gold.Version>
5.8.1

> <Gold.Id.Protein>
6NUR|6NUR_protein|mol2

> <Gold.PLP.Fitness>
37.7443

> <Gold.PLP.PLP>
-21.0481

> <Gold.PLP.part.hbond>
-4.0000

> <Gold.PLP.part.metal>
0.0000

> <Gold.PLP.part.buried>
-3.1483

> <Gold.PLP.part.nonpolar>
-14.1463

> <Gold.PLP.part.repulsive>
0.4204

> <Gold.PLP.ligand.clash>
0.0000

> <Gold.PLP.ligand.torsion>
0.6535

> <Gold.PLP.Chemscore.Hbond>
6.0000

> <Gold.PLP.Chemscore.CHOScore>
0.0000

> <Gold.PLP.Chemscore.Metal>
0.0000

> <Gold.Chemscore.Hbonds>
donor molecule, donor type, donor heavy atom, donor atom, acceptor molecule, acceptor atom, score
      L1  H     9    21       P1  7948  1.00
      L1  H    15    34       P1  7948  2.00
      P1  H  7989  7998       L1     3  1.00
      P1  H 10752 10763       L1     6  2.00

> <Gold.PLP.Chemscore.Internal.Correction>
0.0033

> <Gold.Rescore>
     Score         DG    S(hbond)    S(metal)    S(lipo)     H(rot)  DE(clash)    DE(int)     intcor
     16.38     -18.10       3.71        0.00      30.74       1.31       0.03       1.69       ----

> <Gold.Chemscore.Fitness>
16.3755

> <Gold.Chemscore.DG>
-18.0959

> <Gold.Chemscore.ZeroCoef>
-5.4800

> <Gold.Chemscore.Hbond>
3.7082

> <Gold.Chemscore.Metal>
0.0000

> <Gold.Chemscore.Lipo>
30.7416

> <Gold.Chemscore.Internal_Hbond>
0.0000

> <Gold.Chemscore.DEClash>
0.0263

> <Gold.Chemscore.DEInternal>
1.6940

> <Gold.Chemscore.Rot>
1.3149

> <Gold.Chemscore.Internal.Correction>
   9.000000E+99

> <Gold.Chemscore.Hbonds>
donor molecule, donor type, donor heavy atom, donor atom, acceptor molecule, acceptor atom, score
      L1  H     9    21       P1  7948  0.25
      L1  H    15    34       P1  7948  1.00
      P1  H  7989  7998       L1     3  0.91
      P1  H 10752 10763       L1     6  0.78

> <Gold.Chemscore.Hbond.Weighted>
-12.3853

> <Gold.Chemscore.Metal.Weighted>
-0.0000

> <Gold.Chemscore.Lipo.Weighted>
-3.5968

> <Gold.Chemscore.Internal_Hbond.Weighted>
0.0000

> <Gold.Chemscore.DEClash.Weighted>
0.0263

> <Gold.Chemscore.DEInternal.Weighted>
1.6940

> <Gold.Chemscore.Rot.Weighted>
3.3662

> <Gold.Chemscore.Internal.Correction.Weighted>
   9.000000E+99

> <Gold.Protein.RotatedTorsions>
[ 6907 6896 6895 6894 ] final   94.78 input  -60.11 | X-H torsion
[ 7974 7965 7964 7962 ] final   46.67 input  175.53 | X-H torsion
[ 8008 7997 7996 7995 ] final -135.21 input   59.86 | X-H torsion
[ 10167 10162 10161 10158 ] final -169.94 input  -65.29 | X-H torsion
[ 10718 10713 10712 10709 ] final   15.11 input   66.30 | X-H torsion
[ 10763 10752 10751 10750 ] final   52.41 input  -60.55 | X-H torsion
[ 11005 11000 10999 10996 ] final -114.83 input  -57.11 | X-H torsion

> <Gold.Protein.ActiveResidues>
 VAL166  LYS551  ARG553  GLY616  TRP617  ASP618  TYR619  PRO620  LYS621  CYS622 
 ASP623  PHE694  ASN695  SER759  ASP760  ASP761  ALA762  ILE779  LEU786  VAL792 
 PHE793  MET794  SER795  GLU796  ALA797  LYS798  CYS799  TRP800  GLU811  SER814 

> <Gold.Protein.RotatedAtoms>
  152.5448  134.1141  159.8370 H   0  0  0  0  0  0  0  0  0  0  0  0  # atno 6907 bound_to 6896
  151.1204  133.5100  159.2609 H   0  0  0  0  0  0  0  0  0  0  0  0  # atno 6908 bound_to 6896
  151.1785  135.0360  159.8836 H   0  0  0  0  0  0  0  0  0  0  0  0  # atno 6909 bound_to 6896
  146.0368  139.4830  142.9803 H   0  0  0  0  0  0  0  0  0  0  0  0  # atno 7974 bound_to 7965
  155.3749  140.0490  157.3045 H   0  0  0  0  0  0  0  0  0  0  0  0  # atno 8008 bound_to 7997
  154.5111  140.2192  155.9117 H   0  0  0  0  0  0  0  0  0  0  0  0  # atno 8009 bound_to 7997
  156.1584  140.3121  155.8770 H   0  0  0  0  0  0  0  0  0  0  0  0  # atno 8010 bound_to 7997
  139.5892  144.1250  152.1613 H   0  0  0  0  0  0  0  0  0  0  0  0  # atno 10167 bound_to 10162
  157.0488  130.6261  149.5764 H   0  0  0  0  0  0  0  0  0  0  0  0  # atno 10718 bound_to 10713
  152.9789  135.5813  154.4574 H   0  0  0  0  0  0  0  0  0  0  0  0  # atno 10763 bound_to 10752
  154.4154  135.2770  155.2012 H   0  0  0  0  0  0  0  0  0  0  0  0  # atno 10764 bound_to 10752
  154.3783  135.6152  153.5831 H   0  0  0  0  0  0  0  0  0  0  0  0  # atno 10765 bound_to 10752
  141.0527  133.9662  157.2809 H   0  0  0  0  0  0  0  0  0  0  0  0  # atno 11005 bound_to 11000
  145.6950  141.0153  143.1534 LP  0  0  0  0  0  0  0  0  0  0  0  0  # atno 17320 bound_to 7965
  144.7055  139.8578  143.7431 LP  0  0  0  0  0  0  0  0  0  0  0  0  # atno 17321 bound_to 7965
  140.0821  144.5692  150.7115 LP  0  0  0  0  0  0  0  0  0  0  0  0  # atno 17342 bound_to 10162
  140.7158  143.2543  151.4438 LP  0  0  0  0  0  0  0  0  0  0  0  0  # atno 17343 bound_to 10162
  156.0014  130.5094  150.7676 LP  0  0  0  0  0  0  0  0  0  0  0  0  # atno 17370 bound_to 10713
  157.5046  131.0921  151.0272 LP  0  0  0  0  0  0  0  0  0  0  0  0  # atno 17371 bound_to 10713
  139.9363  135.0196  156.8567 LP  0  0  0  0  0  0  0  0  0  0  0  0  # atno 17394 bound_to 11000
  140.6025  134.0158  155.7543 LP  0  0  0  0  0  0  0  0  0  0  0  0  # atno 17395 bound_to 11000

$$$$
