AV-unprocessed.smi:2332|AV-procd|sdf|9319|dock9
  -GOLD-   2272012543D 1   1.00000     0.00000
 Structure written by MMmdl.
 32 33  0  0  0  0  0  0  0  0  1 V2000
  146.8883  138.8595  152.4830 C   0  0  0  0  0  0  0  0  0  0  0  0
  148.2416  139.1121  152.9530 N   0  0  0  0  0  0  0  0  0  0  0  0
  148.5774  139.2830  154.2406 C   0  0  0  0  0  0  0  0  0  0  0  0
  147.7519  139.2498  155.1541 O   0  0  0  0  0  0  0  0  0  0  0  0
  150.0596  139.5500  154.5453 C   0  0  1  0  0  0  0  0  0  0  0  0
  150.2880  139.9390  156.0240 C   0  0  0  0  0  0  0  0  0  0  0  0
  151.7145  140.0711  156.3117 N   0  0  0  0  0  0  0  0  0  0  0  0
  152.0319  140.6728  157.5491 C   0  0  0  0  0  0  0  0  0  0  0  0
  151.3487  141.8394  157.9693 C   0  0  0  0  0  0  0  0  0  0  0  0
  151.6781  142.4211  159.2091 C   0  0  0  0  0  0  0  0  0  0  0  0
  152.6819  141.8230  159.9941 C   0  0  0  0  0  0  0  0  0  0  0  0
  153.0575  142.3848  161.2802 C   0  0  0  0  0  0  0  0  0  0  0  0
  153.3564  142.8320  162.3045 N   0  0  0  0  0  0  0  0  0  0  0  0
  153.3150  140.6671  159.4975 C   0  0  0  0  0  0  0  0  0  0  0  0
  153.0032  140.1071  158.3090 N   0  0  0  0  0  0  0  0  0  0  0  0
  152.5025  138.9143  155.8927 C   0  0  0  0  0  0  0  0  0  0  0  0
  152.2157  138.5789  154.4213 C   0  0  0  0  0  0  0  0  0  0  0  0
  150.8184  138.3778  154.2447 O   0  0  0  0  0  0  0  0  0  0  0  0
  146.8908  138.7144  151.4029 H   0  0  0  0  0  0  0  0  0  0  0  0
  146.2348  139.7020  152.7130 H   0  0  0  0  0  0  0  0  0  0  0  0
  146.4763  137.9620  152.9466 H   0  0  0  0  0  0  0  0  0  0  0  0
  148.9744  139.1531  152.2590 H   0  0  0  0  0  0  0  0  0  0  0  0
  150.3852  140.3635  153.8945 H   0  0  0  0  0  0  0  0  0  0  0  0
  149.7574  140.8666  156.2356 H   0  0  0  0  0  0  0  0  0  0  0  0
  149.8688  139.1778  156.6840 H   0  0  0  0  0  0  0  0  0  0  0  0
  150.5913  142.3008  157.3531 H   0  0  0  0  0  0  0  0  0  0  0  0
  151.1677  143.3127  159.5436 H   0  0  0  0  0  0  0  0  0  0  0  0
  154.0927  140.1745  160.0630 H   0  0  0  0  0  0  0  0  0  0  0  0
  153.5670  139.1177  156.0158 H   0  0  0  0  0  0  0  0  0  0  0  0
  152.2566  138.0600  156.5251 H   0  0  0  0  0  0  0  0  0  0  0  0
  152.5676  139.3752  153.7632 H   0  0  0  0  0  0  0  0  0  0  0  0
  152.7443  137.6704  154.1333 H   0  0  0  0  0  0  0  0  0  0  0  0
  1  2  1  0  0  0  0
  1 19  1  0  0  0  0
  1 20  1  0  0  0  0
  1 21  1  0  0  0  0
  2  3  1  0  0  0  0
  2 22  1  0  0  0  0
  3  4  2  0  0  0  0
  3  5  1  0  0  0  0
  5 18  1  0  0  0  0
  5  6  1  0  0  0  0
  5 23  1  0  0  0  0
  6  7  1  0  0  0  0
  6 24  1  0  0  0  0
  6 25  1  0  0  0  0
  7  8  1  0  0  0  0
  7 16  1  0  0  0  0
  8 15  1  0  0  0  0
  8  9  2  0  0  0  0
  9 10  1  0  0  0  0
  9 26  1  0  0  0  0
 10 11  2  0  0  0  0
 10 27  1  0  0  0  0
 11 12  1  0  0  0  0
 11 14  1  0  0  0  0
 12 13  3  0  0  0  0
 14 15  2  0  0  0  0
 14 28  1  0  0  0  0
 16 17  1  0  0  0  0
 16 29  1  0  0  0  0
 16 30  1  0  0  0  0
 17 18  1  0  0  0  0
 17 31  1  0  0  0  0
 17 32  1  0  0  0  0
M  END
> <s_m_source_file>
AV-unprocessed.smi

> <i_m_source_file_index>
2332

> <i_lp_mmshare_version>
43012

> <i_f3d_flags>
0

> <s_epik_input>
W0NIM11bTkhdQyg9TylbQ0BASF0xW0NIMl1OKFtDSDJdW0NIMl1PMSljMltjSF1bY0hdYyhDI04pW2NIXW4y

> <s_epik_cmdline>
J2VwaWtfcHl0aG9uJywgJy1waCcsICc3LjAnLCAnLXRuJywgJzgnLCAnLW1hJywgJzIwMCcsICctbWV0YWxfYmluZGluZycsICctaW1hZScsICc8aW5maWxlLm1hZT4nLCAnLW9tYWUnLCAnPG91dGZpbGUubWFlPic=

> <r_lp_tautomer_probability>
1

> <r_epik_Ionization_Penalty>
6.95229e-08

> <r_epik_Ionization_Penalty_Charging>
0

> <r_epik_Ionization_Penalty_Neutral>
6.95229e-08

> <r_epik_State_Penalty>
-0

> <r_epik_Charging_Adjusted_Penalty>
0

> <i_epik_Tot_Q>
0

> <i_epik_Tot_abs_Q>
0

> <r_epik_Metal_State_Penalty>
-0

> <b_epik_Metal_Only>
0

> <s_lp_Force_Field>
OPLS_2005

> <r_lp_Energy>
17.7289

> <b_lp_Chiralities_Consistent>
1

> <s_lp_Variant>
AV-unprocessed.smi:2332-2

> <Gold.Version>
5.8.1

> <Gold.Id.Protein>
6NUR|6NUR_protein|mol2

> <Gold.PLP.Fitness>
39.0755

> <Gold.PLP.PLP>
-33.6380

> <Gold.PLP.part.hbond>
-2.3377

> <Gold.PLP.part.metal>
0.0000

> <Gold.PLP.part.buried>
-3.3593

> <Gold.PLP.part.nonpolar>
-27.1168

> <Gold.PLP.part.repulsive>
0.4126

> <Gold.PLP.ligand.clash>
0.0000

> <Gold.PLP.ligand.torsion>
0.3168

> <Gold.PLP.Chemscore.Hbond>
1.9120

> <Gold.PLP.Chemscore.CHOScore>
0.0000

> <Gold.PLP.Chemscore.Metal>
0.0000

> <Gold.Chemscore.Hbonds>
donor molecule, donor type, donor heavy atom, donor atom, acceptor molecule, acceptor atom, score
      L1  H     2    22       P1  7957  0.90
      P1  H  7997  8010       L1    15  0.98

> <Gold.PLP.Chemscore.Internal.Correction>
0.3350

> <Gold.Rescore>
     Score         DG    S(hbond)    S(metal)    S(lipo)     H(rot)  DE(clash)    DE(int)     intcor
     14.81     -15.50       1.60        0.00      69.64       1.35       0.22       0.47       ----

> <Gold.Chemscore.Fitness>
14.8071

> <Gold.Chemscore.DG>
-15.5042

> <Gold.Chemscore.ZeroCoef>
-5.4800

> <Gold.Chemscore.Hbond>
1.5964

> <Gold.Chemscore.Metal>
0.0000

> <Gold.Chemscore.Lipo>
69.6392

> <Gold.Chemscore.Internal_Hbond>
0.0000

> <Gold.Chemscore.DEClash>
0.2221

> <Gold.Chemscore.DEInternal>
0.4750

> <Gold.Chemscore.Rot>
1.3498

> <Gold.Chemscore.Internal.Correction>
   9.000000E+99

> <Gold.Chemscore.Hbonds>
donor molecule, donor type, donor heavy atom, donor atom, acceptor molecule, acceptor atom, score
      L1  H     2    22       P1  7957  0.82
      P1  H  7997  8010       L1    15  0.20

> <Gold.Chemscore.Hbond.Weighted>
-5.3320

> <Gold.Chemscore.Metal.Weighted>
-0.0000

> <Gold.Chemscore.Lipo.Weighted>
-8.1478

> <Gold.Chemscore.Internal_Hbond.Weighted>
0.0000

> <Gold.Chemscore.DEClash.Weighted>
0.2221

> <Gold.Chemscore.DEInternal.Weighted>
0.4750

> <Gold.Chemscore.Rot.Weighted>
3.4556

> <Gold.Chemscore.Internal.Correction.Weighted>
   9.000000E+99

> <Gold.Protein.RotatedTorsions>
[ 6907 6896 6895 6894 ] final   -5.99 input  -60.11 | X-H torsion
[ 7974 7965 7964 7962 ] final  174.86 input  175.53 | X-H torsion
[ 8008 7997 7996 7995 ] final   40.76 input   59.86 | X-H torsion
[ 10167 10162 10161 10158 ] final   28.23 input  -65.29 | X-H torsion
[ 10718 10713 10712 10709 ] final  -52.55 input   66.30 | X-H torsion
[ 10763 10752 10751 10750 ] final  109.02 input  -60.55 | X-H torsion
[ 11005 11000 10999 10996 ] final  163.22 input  -57.11 | X-H torsion

> <Gold.Protein.ActiveResidues>
 VAL166  LYS551  ARG553  GLY616  TRP617  ASP618  TYR619  PRO620  LYS621  CYS622 
 ASP623  PHE694  ASN695  SER759  ASP760  ASP761  ALA762  ILE779  LEU786  VAL792 
 PHE793  MET794  SER795  GLU796  ALA797  LYS798  CYS799  TRP800  GLU811  SER814 

> <Gold.Protein.RotatedAtoms>
  151.4727  135.1047  159.9755 H   0  0  0  0  0  0  0  0  0  0  0  0  # atno 6907 bound_to 6896
  152.4810  133.8250  159.7084 H   0  0  0  0  0  0  0  0  0  0  0  0  # atno 6908 bound_to 6896
  150.8882  133.7218  159.2939 H   0  0  0  0  0  0  0  0  0  0  0  0  # atno 6909 bound_to 6896
  144.7213  139.9860  143.6439 H   0  0  0  0  0  0  0  0  0  0  0  0  # atno 7974 bound_to 7965
  155.2584  140.3357  155.4275 H   0  0  0  0  0  0  0  0  0  0  0  0  # atno 8008 bound_to 7997
  156.2185  140.1799  156.7575 H   0  0  0  0  0  0  0  0  0  0  0  0  # atno 8009 bound_to 7997
  154.5790  140.0657  156.9061 H   0  0  0  0  0  0  0  0  0  0  0  0  # atno 8010 bound_to 7997
  140.4870  144.0526  150.6284 H   0  0  0  0  0  0  0  0  0  0  0  0  # atno 10167 bound_to 10162
  156.1611  130.4149  149.9791 H   0  0  0  0  0  0  0  0  0  0  0  0  # atno 10718 bound_to 10713
  153.4288  135.3793  155.2157 H   0  0  0  0  0  0  0  0  0  0  0  0  # atno 10763 bound_to 10752
  154.8749  135.3835  154.4294 H   0  0  0  0  0  0  0  0  0  0  0  0  # atno 10764 bound_to 10752
  153.4823  135.7088  153.5994 H   0  0  0  0  0  0  0  0  0  0  0  0  # atno 10765 bound_to 10752
  140.2336  134.8105  157.3341 H   0  0  0  0  0  0  0  0  0  0  0  0  # atno 11005 bound_to 11000
  146.0450  139.3457  143.0674 LP  0  0  0  0  0  0  0  0  0  0  0  0  # atno 17320 bound_to 7965
  145.8287  140.9642  143.0860 LP  0  0  0  0  0  0  0  0  0  0  0  0  # atno 17321 bound_to 7965
  140.3785  143.2816  152.0198 LP  0  0  0  0  0  0  0  0  0  0  0  0  # atno 17342 bound_to 10162
  139.4844  144.6174  151.7321 LP  0  0  0  0  0  0  0  0  0  0  0  0  # atno 17343 bound_to 10162
  156.7620  130.9154  151.3641 LP  0  0  0  0  0  0  0  0  0  0  0  0  # atno 17370 bound_to 10713
  157.6733  130.9071  150.0091 LP  0  0  0  0  0  0  0  0  0  0  0  0  # atno 17371 bound_to 10713
  140.1725  134.4590  155.7822 LP  0  0  0  0  0  0  0  0  0  0  0  0  # atno 17394 bound_to 11000
  141.2216  133.6948  156.7732 LP  0  0  0  0  0  0  0  0  0  0  0  0  # atno 17395 bound_to 11000

$$$$
