AV-unprocessed.smi:926|AV-procd|sdf|4185|dock7
  -GOLD-   22720 2 93D 1   1.00000     0.00000
 Structure written by MMmdl.
 37 39  0  0  0  0  0  0  0  0  1 V2000
  149.2160  141.7073  154.1140 O   0  0  0  0  0  0  0  0  0  0  0  0
  149.1899  140.7216  154.8507 C   0  0  0  0  0  0  0  0  0  0  0  0
  149.1201  139.3193  154.2457 C   0  0  0  0  0  0  0  0  0  0  0  0
  150.3320  138.5739  154.5262 N   0  0  0  0  0  0  0  0  0  0  0  0
  150.5873  137.2646  154.4797 C   0  0  0  0  0  0  0  0  0  0  0  0
  151.8388  136.9983  154.8220 N   0  0  0  0  0  0  0  0  0  0  0  0
  152.3637  138.2507  155.0940 N   0  0  0  0  0  0  0  0  0  0  0  0
  151.4741  139.1896  154.9214 N   0  0  0  0  0  0  0  0  0  0  0  0
  149.2146  140.7970  156.1904 N   0  0  0  0  0  0  0  0  0  0  0  0
  149.2800  142.0346  156.9587 C   0  0  0  0  0  0  0  0  0  0  0  0
  150.7319  142.5095  157.1429 C   0  0  0  0  0  0  0  0  0  0  0  0
  151.0727  142.8468  158.6080 C   0  0  2  0  0  0  0  0  0  0  0  0
  150.4337  144.1623  159.1121 C   0  0  0  0  0  0  0  0  0  0  0  0
  151.6425  144.9649  159.6261 C   0  0  1  0  0  0  0  0  0  0  0  0
  152.1992  144.3015  160.8996 C   0  0  0  0  0  0  0  0  0  0  0  0
  152.8737  143.0297  160.3514 C   0  0  0  0  0  0  0  0  0  0  0  0
  152.5782  143.1128  158.8414 C   0  0  2  0  0  0  0  0  0  0  0  0
  152.7048  144.6131  158.5930 C   0  0  0  0  0  0  0  0  0  0  0  0
  148.2709  138.7805  154.6682 H   0  0  0  0  0  0  0  0  0  0  0  0
  148.9659  139.3676  153.1663 H   0  0  0  0  0  0  0  0  0  0  0  0
  149.8626  136.5143  154.1993 H   0  0  0  0  0  0  0  0  0  0  0  0
  149.1855  139.9352  156.7158 H   0  0  0  0  0  0  0  0  0  0  0  0
  148.7015  142.7885  156.4248 H   0  0  0  0  0  0  0  0  0  0  0  0
  148.7945  141.9029  157.9272 H   0  0  0  0  0  0  0  0  0  0  0  0
  151.4075  141.7254  156.7989 H   0  0  0  0  0  0  0  0  0  0  0  0
  150.9204  143.3723  156.5033 H   0  0  0  0  0  0  0  0  0  0  0  0
  150.7519  142.0105  159.2311 H   0  0  0  0  0  0  0  0  0  0  0  0
  149.9445  144.7048  158.3020 H   0  0  0  0  0  0  0  0  0  0  0  0
  149.6892  143.9898  159.8900 H   0  0  0  0  0  0  0  0  0  0  0  0
  151.4436  146.0309  159.7384 H   0  0  0  0  0  0  0  0  0  0  0  0
  152.9326  144.9455  161.3864 H   0  0  0  0  0  0  0  0  0  0  0  0
  151.4150  144.0781  161.6239 H   0  0  0  0  0  0  0  0  0  0  0  0
  153.9483  143.0572  160.5361 H   0  0  0  0  0  0  0  0  0  0  0  0
  152.4820  142.1190  160.8061 H   0  0  0  0  0  0  0  0  0  0  0  0
  153.2390  142.4881  158.2392 H   0  0  0  0  0  0  0  0  0  0  0  0
  152.4398  144.9140  157.5785 H   0  0  0  0  0  0  0  0  0  0  0  0
  153.6919  145.0107  158.8358 H   0  0  0  0  0  0  0  0  0  0  0  0
  1  2  2  0  0  0  0
  2  3  1  0  0  0  0
  2  9  1  0  0  0  0
  3  4  1  0  0  0  0
  3 19  1  0  0  0  0
  3 20  1  0  0  0  0
  4  8  1  0  0  0  0
  4  5  1  0  0  0  0
  5  6  2  0  0  0  0
  5 21  1  0  0  0  0
  6  7  1  0  0  0  0
  7  8  2  0  0  0  0
  9 10  1  0  0  0  0
  9 22  1  0  0  0  0
 10 11  1  0  0  0  0
 10 23  1  0  0  0  0
 10 24  1  0  0  0  0
 11 12  1  0  0  0  0
 11 25  1  0  0  0  0
 11 26  1  0  0  0  0
 12 17  1  0  0  0  0
 12 13  1  0  0  0  0
 12 27  1  0  0  0  0
 13 14  1  0  0  0  0
 13 28  1  0  0  0  0
 13 29  1  0  0  0  0
 14 18  1  0  0  0  0
 14 15  1  0  0  0  0
 14 30  1  0  0  0  0
 15 16  1  0  0  0  0
 15 31  1  0  0  0  0
 15 32  1  0  0  0  0
 16 17  1  0  0  0  0
 16 33  1  0  0  0  0
 16 34  1  0  0  0  0
 17 18  1  0  0  0  0
 17 35  1  0  0  0  0
 18 36  1  0  0  0  0
 18 37  1  0  0  0  0
M  END
> <s_m_source_file>
AV-unprocessed.smi

> <i_m_source_file_index>
926

> <i_lp_mmshare_version>
43012

> <i_f3d_flags>
0

> <s_epik_input>
bjFubltjSF1uMVtDSDJdQyg9TylbTkhdW0NIMl1bQ0gyXVtDQEhdKFtDSDJdW0NASF0yMylbQ0BIXShbQ0gyXTMpW0NIMl1bQ0gyXTI=

> <s_epik_cmdline>
J2VwaWtfcHl0aG9uJywgJy1waCcsICc3LjAnLCAnLXRuJywgJzgnLCAnLW1hJywgJzIwMCcsICctbWV0YWxfYmluZGluZycsICctaW1hZScsICc8aW5maWxlLm1hZT4nLCAnLW9tYWUnLCAnPG91dGZpbGUubWFlPic=

> <r_lp_tautomer_probability>
1

> <r_epik_Ionization_Penalty>
4.22645e-07

> <r_epik_Ionization_Penalty_Charging>
0

> <r_epik_Ionization_Penalty_Neutral>
4.22645e-07

> <r_epik_State_Penalty>
-0

> <r_epik_Charging_Adjusted_Penalty>
0

> <i_epik_Tot_Q>
0

> <i_epik_Tot_abs_Q>
0

> <r_epik_Metal_State_Penalty>
-0

> <b_epik_Metal_Only>
0

> <s_lp_Force_Field>
OPLS_2005

> <r_lp_Energy>
50.9279

> <b_lp_Chiralities_Consistent>
1

> <s_lp_Variant>
AV-unprocessed.smi:926-3

> <Gold.Version>
5.8.1

> <Gold.Id.Protein>
6NUR|6NUR_protein|mol2

> <Gold.PLP.Fitness>
50.5595

> <Gold.PLP.PLP>
-42.7253

> <Gold.PLP.part.hbond>
-3.8068

> <Gold.PLP.part.metal>
0.0000

> <Gold.PLP.part.buried>
-3.3460

> <Gold.PLP.part.nonpolar>
-36.5674

> <Gold.PLP.part.repulsive>
0.4186

> <Gold.PLP.ligand.clash>
0.0000

> <Gold.PLP.ligand.torsion>
0.8637

> <Gold.PLP.Chemscore.Hbond>
2.3440

> <Gold.PLP.Chemscore.CHOScore>
0.8283

> <Gold.PLP.Chemscore.Metal>
0.0000

> <Gold.Chemscore.Hbonds>
donor molecule, donor type, donor heavy atom, donor atom, acceptor molecule, acceptor atom, score
      P1  H  7989  7998       L1     8  0.59
      P1  H  8011  8017       L1     1  0.56
      P1  H 10752 10765       L1     6  1.00
      L1  C     5    21       P1  7948  0.87

> <Gold.PLP.Chemscore.Internal.Correction>
0.0449

> <Gold.Rescore>
     Score         DG    S(hbond)    S(metal)    S(lipo)     H(rot)  DE(clash)    DE(int)     intcor
     17.61     -19.01       2.39        0.00     103.21       2.54       0.39       1.02       ----

> <Gold.Chemscore.Fitness>
17.6080

> <Gold.Chemscore.DG>
-19.0119

> <Gold.Chemscore.ZeroCoef>
-5.4800

> <Gold.Chemscore.Hbond>
2.3856

> <Gold.Chemscore.Metal>
0.0000

> <Gold.Chemscore.Lipo>
103.2116

> <Gold.Chemscore.Internal_Hbond>
0.0000

> <Gold.Chemscore.DEClash>
0.3875

> <Gold.Chemscore.DEInternal>
1.0164

> <Gold.Chemscore.Rot>
2.5436

> <Gold.Chemscore.Internal.Correction>
   9.000000E+99

> <Gold.Chemscore.Hbonds>
donor molecule, donor type, donor heavy atom, donor atom, acceptor molecule, acceptor atom, score
      P1  H  7989  7998       L1     8  0.23
      P1  H  8011  8017       L1     1  0.54
      P1  H 10752 10765       L1     6  0.95

> <Gold.Chemscore.Hbond.Weighted>
-7.9678

> <Gold.Chemscore.Metal.Weighted>
-0.0000

> <Gold.Chemscore.Lipo.Weighted>
-12.0758

> <Gold.Chemscore.Internal_Hbond.Weighted>
0.0000

> <Gold.Chemscore.DEClash.Weighted>
0.3875

> <Gold.Chemscore.DEInternal.Weighted>
1.0164

> <Gold.Chemscore.Rot.Weighted>
6.5117

> <Gold.Chemscore.Internal.Correction.Weighted>
   9.000000E+99

> <Gold.Protein.RotatedTorsions>
[ 6907 6896 6895 6894 ] final    7.77 input  -60.11 | X-H torsion
[ 7974 7965 7964 7962 ] final  128.06 input  175.53 | X-H torsion
[ 8008 7997 7996 7995 ] final   62.86 input   59.86 | X-H torsion
[ 10167 10162 10161 10158 ] final   70.95 input  -65.29 | X-H torsion
[ 10718 10713 10712 10709 ] final   78.92 input   66.30 | X-H torsion
[ 10763 10752 10751 10750 ] final  172.54 input  -60.55 | X-H torsion
[ 11005 11000 10999 10996 ] final  -84.37 input  -57.11 | X-H torsion

> <Gold.Protein.ActiveResidues>
 VAL166  LYS551  ARG553  GLY616  TRP617  ASP618  TYR619  PRO620  LYS621  CYS622 
 ASP623  PHE694  ASN695  SER759  ASP760  ASP761  ALA762  ILE779  LEU786  VAL792 
 PHE793  MET794  SER795  GLU796  ALA797  LYS798  CYS799  TRP800  GLU811  SER814 

> <Gold.Protein.RotatedAtoms>
  151.6952  135.0939  160.0240 H   0  0  0  0  0  0  0  0  0  0  0  0  # atno 6907 bound_to 6896
  152.3754  133.6470  159.6128 H   0  0  0  0  0  0  0  0  0  0  0  0  # atno 6908 bound_to 6896
  150.7705  133.9118  159.3413 H   0  0  0  0  0  0  0  0  0  0  0  0  # atno 6909 bound_to 6896
  145.0437  139.3941  143.5089 H   0  0  0  0  0  0  0  0  0  0  0  0  # atno 7974 bound_to 7965
  155.6211  140.3496  155.4652 H   0  0  0  0  0  0  0  0  0  0  0  0  # atno 8008 bound_to 7997
  156.0079  140.1227  157.0507 H   0  0  0  0  0  0  0  0  0  0  0  0  # atno 8009 bound_to 7997
  154.4270  140.1087  156.5774 H   0  0  0  0  0  0  0  0  0  0  0  0  # atno 8010 bound_to 7997
  140.0514  144.5309  150.7361 H   0  0  0  0  0  0  0  0  0  0  0  0  # atno 10167 bound_to 10162
  157.6760  130.9890  150.1857 H   0  0  0  0  0  0  0  0  0  0  0  0  # atno 10718 bound_to 10713
  154.4275  135.2759  155.1935 H   0  0  0  0  0  0  0  0  0  0  0  0  # atno 10763 bound_to 10752
  154.3855  135.6078  153.5817 H   0  0  0  0  0  0  0  0  0  0  0  0  # atno 10764 bound_to 10752
  152.9835  135.5890  154.4581 H   0  0  0  0  0  0  0  0  0  0  0  0  # atno 10765 bound_to 10752
  141.1651  133.7342  156.8857 H   0  0  0  0  0  0  0  0  0  0  0  0  # atno 11005 bound_to 11000
  146.3512  140.0052  142.8672 LP  0  0  0  0  0  0  0  0  0  0  0  0  # atno 17320 bound_to 7965
  145.1615  140.9675  143.4375 LP  0  0  0  0  0  0  0  0  0  0  0  0  # atno 17321 bound_to 7965
  140.7215  143.2593  151.4263 LP  0  0  0  0  0  0  0  0  0  0  0  0  # atno 17342 bound_to 10162
  139.5951  144.1415  152.2134 LP  0  0  0  0  0  0  0  0  0  0  0  0  # atno 17343 bound_to 10162
  156.2579  130.3707  149.8161 LP  0  0  0  0  0  0  0  0  0  0  0  0  # atno 17370 bound_to 10713
  156.5915  130.8508  151.3409 LP  0  0  0  0  0  0  0  0  0  0  0  0  # atno 17371 bound_to 10713
  140.1683  134.9117  157.2802 LP  0  0  0  0  0  0  0  0  0  0  0  0  # atno 17394 bound_to 11000
  140.2531  134.3659  155.7434 LP  0  0  0  0  0  0  0  0  0  0  0  0  # atno 17395 bound_to 11000

$$$$
