AV-unprocessed.smi:264|AV-procd|sdf|2010|dock8
  -GOLD-   2262021213D 1   1.00000     0.00000
 Structure written by MMmdl.
 52 56  0  0  0  0  0  0  0  0  1 V2000
  152.2418  142.4438  159.4345 C   0  0  0  0  0  0  0  0  0  0  0  0
  151.0904  142.2412  158.4376 C   0  0  1  0  0  0  0  0  0  0  0  0
  151.2812  143.1541  157.3600 O   0  0  0  0  0  0  0  0  0  0  0  0
  150.7227  142.5955  156.1844 C   0  0  0  0  0  0  0  0  0  0  0  0
  151.1331  141.1351  156.2927 C   0  0  0  0  0  0  0  0  0  0  0  0
  150.9666  140.8368  157.7812 C   0  0  2  0  0  0  0  0  0  0  0  0
  149.6390  140.3824  157.9847 O   0  0  0  0  0  0  0  0  0  0  0  0
  151.9360  139.7436  158.3038 C   0  0  0  0  0  0  0  0  0  0  0  0
  151.4522  138.3895  158.0816 N   0  0  0  0  0  0  0  0  0  0  0  0
  151.0742  137.4792  159.0427 C   0  0  0  0  0  0  0  0  0  0  0  0
  150.6832  136.3202  158.5883 N   0  0  0  0  0  0  0  0  0  0  0  0
  150.7949  136.4411  157.2080 C   0  0  0  0  0  0  0  0  0  0  0  0
  150.5376  135.5689  156.1126 C   0  0  0  0  0  0  0  0  0  0  0  0
  150.1058  134.2937  156.2803 N   0  0  0  0  0  0  0  0  0  0  0  0
  149.0526  134.0439  157.2581 C   0  0  0  0  0  0  0  0  0  0  0  0
  148.9477  132.5381  157.5385 C   0  0  0  0  0  0  0  0  0  0  0  0
  148.7738  131.8162  156.3196 O   0  0  0  0  0  0  0  0  0  0  0  0
  149.7886  132.0342  155.3309 C   0  0  1  0  0  0  0  0  0  0  0  0
  151.1070  131.3573  155.6946 C   0  0  0  0  0  0  0  0  0  0  0  0
  150.8414  129.9115  155.3051 C   0  0  0  0  0  0  0  0  0  0  0  0
  150.1171  130.0194  154.0897 O   0  0  0  0  0  0  0  0  0  0  0  0
  149.3718  131.2352  154.0845 C   0  0  0  0  0  0  0  0  0  0  0  0
  149.9143  133.5451  155.0433 C   0  0  0  0  0  0  0  0  0  0  0  0
  150.7447  136.0594  154.8609 N   0  0  0  0  0  0  0  0  0  0  0  0
  151.1839  137.3098  154.6897 C   0  0  0  0  0  0  0  0  0  0  0  0
  151.4741  138.2260  155.6151 N   0  0  0  0  0  0  0  0  0  0  0  0
  151.2624  137.7432  156.8726 C   0  0  0  0  0  0  0  0  0  0  0  0
  152.1475  141.7794  160.2934 H   0  0  0  0  0  0  0  0  0  0  0  0
  152.2444  143.4659  159.8136 H   0  0  0  0  0  0  0  0  0  0  0  0
  153.2115  142.2674  158.9689 H   0  0  0  0  0  0  0  0  0  0  0  0
  150.1562  142.5121  158.9336 H   0  0  0  0  0  0  0  0  0  0  0  0
  149.6369  142.7037  156.2009 H   0  0  0  0  0  0  0  0  0  0  0  0
  151.1079  143.0777  155.2859 H   0  0  0  0  0  0  0  0  0  0  0  0
  150.5561  140.4765  155.6417 H   0  0  0  0  0  0  0  0  0  0  0  0
  152.1822  141.0470  156.0076 H   0  0  0  0  0  0  0  0  0  0  0  0
  149.0719  141.1345  158.0570 H   0  0  0  0  0  0  0  0  0  0  0  0
  152.9074  139.8292  157.8161 H   0  0  0  0  0  0  0  0  0  0  0  0
  152.1138  139.8703  159.3724 H   0  0  0  0  0  0  0  0  0  0  0  0
  151.1025  137.7010  160.0997 H   0  0  0  0  0  0  0  0  0  0  0  0
  149.2618  134.5761  158.1870 H   0  0  0  0  0  0  0  0  0  0  0  0
  148.1030  134.4184  156.8729 H   0  0  0  0  0  0  0  0  0  0  0  0
  149.8262  132.1849  158.0771 H   0  0  0  0  0  0  0  0  0  0  0  0
  148.0927  132.3401  158.1850 H   0  0  0  0  0  0  0  0  0  0  0  0
  151.9143  131.7535  155.0767 H   0  0  0  0  0  0  0  0  0  0  0  0
  151.4098  131.4694  156.7342 H   0  0  0  0  0  0  0  0  0  0  0  0
  151.7558  129.3321  155.1777 H   0  0  0  0  0  0  0  0  0  0  0  0
  150.2206  129.4169  156.0538 H   0  0  0  0  0  0  0  0  0  0  0  0
  148.3002  131.0345  154.0644 H   0  0  0  0  0  0  0  0  0  0  0  0
  149.6209  131.7712  153.1680 H   0  0  0  0  0  0  0  0  0  0  0  0
  149.0013  133.9050  154.5670 H   0  0  0  0  0  0  0  0  0  0  0  0
  150.7216  133.7215  154.3332 H   0  0  0  0  0  0  0  0  0  0  0  0
  151.3241  137.6201  153.6649 H   0  0  0  0  0  0  0  0  0  0  0  0
  1  2  1  0  0  0  0
  1 28  1  0  0  0  0
  1 29  1  0  0  0  0
  1 30  1  0  0  0  0
  2  6  1  0  0  0  0
  2  3  1  0  0  0  0
  2 31  1  0  0  0  0
  3  4  1  0  0  0  0
  4  5  1  0  0  0  0
  4 32  1  0  0  0  0
  4 33  1  0  0  0  0
  5  6  1  0  0  0  0
  5 34  1  0  0  0  0
  5 35  1  0  0  0  0
  6  7  1  0  0  0  0
  6  8  1  0  0  0  0
  7 36  1  0  0  0  0
  8  9  1  0  0  0  0
  8 37  1  0  0  0  0
  8 38  1  0  0  0  0
  9 27  1  0  0  0  0
  9 10  1  0  0  0  0
 10 11  2  0  0  0  0
 10 39  1  0  0  0  0
 11 12  1  0  0  0  0
 12 27  2  0  0  0  0
 12 13  1  0  0  0  0
 13 14  1  0  0  0  0
 13 24  2  0  0  0  0
 14 23  1  0  0  0  0
 14 15  1  0  0  0  0
 15 16  1  0  0  0  0
 15 40  1  0  0  0  0
 15 41  1  0  0  0  0
 16 17  1  0  0  0  0
 16 42  1  0  0  0  0
 16 43  1  0  0  0  0
 17 18  1  0  0  0  0
 18 22  1  0  0  0  0
 18 19  1  0  0  0  0
 18 23  1  0  0  0  0
 19 20  1  0  0  0  0
 19 44  1  0  0  0  0
 19 45  1  0  0  0  0
 20 21  1  0  0  0  0
 20 46  1  0  0  0  0
 20 47  1  0  0  0  0
 21 22  1  0  0  0  0
 22 48  1  0  0  0  0
 22 49  1  0  0  0  0
 23 50  1  0  0  0  0
 23 51  1  0  0  0  0
 24 25  1  0  0  0  0
 25 26  2  0  0  0  0
 25 52  1  0  0  0  0
 26 27  1  0  0  0  0
M  END
> <s_m_source_file>
AV-unprocessed.smi

> <i_m_source_file_index>
264

> <i_lp_mmshare_version>
43012

> <i_f3d_flags>
0

> <s_epik_input>
W0NIMl0xW0NIMl1PW0NAQEhdKFtDSDNdKVtDQEBdMShbT0hdKVtDSDJdbihbY0hdbjIpYyhjMjMpbltjSF1uYzNOKFtDSDJdNClbQ0gyXVtDSDJdT1tDQF00NVtDSDJdW0NIMl1PW0NIMl01

> <s_epik_cmdline>
J2VwaWtfcHl0aG9uJywgJy1waCcsICc3LjAnLCAnLXRuJywgJzgnLCAnLW1hJywgJzIwMCcsICctbWV0YWxfYmluZGluZycsICctaW1hZScsICc8aW5maWxlLm1hZT4nLCAnLW9tYWUnLCAnPG91dGZpbGUubWFlPic=

> <r_lp_tautomer_probability>
1

> <r_epik_Ionization_Penalty>
0.00539389

> <r_epik_Ionization_Penalty_Charging>
0

> <r_epik_Ionization_Penalty_Neutral>
0.00539389

> <r_epik_State_Penalty>
0.00375441

> <r_epik_Charging_Adjusted_Penalty>
0.00375441

> <i_epik_Tot_Q>
0

> <i_epik_Tot_abs_Q>
0

> <r_epik_Metal_State_Penalty>
-0

> <b_epik_Metal_Only>
0

> <s_lp_Force_Field>
OPLS_2005

> <r_lp_Energy>
53.4902

> <b_lp_Chiralities_Consistent>
1

> <s_lp_Variant>
AV-unprocessed.smi:264-4

> <Gold.Version>
5.8.1

> <Gold.Id.Protein>
6NUR|6NUR_protein|mol2

> <Gold.PLP.Fitness>
36.4401

> <Gold.PLP.PLP>
-33.3075

> <Gold.PLP.part.hbond>
-1.2969

> <Gold.PLP.part.metal>
0.0000

> <Gold.PLP.part.buried>
-3.5676

> <Gold.PLP.part.nonpolar>
-28.8032

> <Gold.PLP.part.repulsive>
0.4166

> <Gold.PLP.ligand.clash>
0.0000

> <Gold.PLP.ligand.torsion>
0.6387

> <Gold.PLP.Chemscore.Hbond>
0.8987

> <Gold.PLP.Chemscore.CHOScore>
0.4784

> <Gold.PLP.Chemscore.Metal>
0.0000

> <Gold.Chemscore.Hbonds>
donor molecule, donor type, donor heavy atom, donor atom, acceptor molecule, acceptor atom, score
      P1  H  6896  6907       L1    11  0.88
      L1  C    25    52       P1  7949  0.48

> <Gold.PLP.Chemscore.Internal.Correction>
0.2787

> <Gold.Rescore>
     Score         DG    S(hbond)    S(metal)    S(lipo)     H(rot)  DE(clash)    DE(int)     intcor
     11.28     -12.96       0.92        0.00      83.87       2.11       0.08       1.60       ----

> <Gold.Chemscore.Fitness>
11.2846

> <Gold.Chemscore.DG>
-12.9622

> <Gold.Chemscore.ZeroCoef>
-5.4800

> <Gold.Chemscore.Hbond>
0.9167

> <Gold.Chemscore.Metal>
0.0000

> <Gold.Chemscore.Lipo>
83.8694

> <Gold.Chemscore.Internal_Hbond>
0.0000

> <Gold.Chemscore.DEClash>
0.0820

> <Gold.Chemscore.DEInternal>
1.5956

> <Gold.Chemscore.Rot>
2.1063

> <Gold.Chemscore.Internal.Correction>
   9.000000E+99

> <Gold.Chemscore.Hbonds>
donor molecule, donor type, donor heavy atom, donor atom, acceptor molecule, acceptor atom, score
      P1  H  6896  6907       L1    11  0.76

> <Gold.Chemscore.Hbond.Weighted>
-3.0616

> <Gold.Chemscore.Metal.Weighted>
-0.0000

> <Gold.Chemscore.Lipo.Weighted>
-9.8127

> <Gold.Chemscore.Internal_Hbond.Weighted>
0.0000

> <Gold.Chemscore.DEClash.Weighted>
0.0820

> <Gold.Chemscore.DEInternal.Weighted>
1.5956

> <Gold.Chemscore.Rot.Weighted>
5.3921

> <Gold.Chemscore.Internal.Correction.Weighted>
   9.000000E+99

> <Gold.Protein.RotatedTorsions>
[ 6907 6896 6895 6894 ] final  -41.19 input  -60.11 | X-H torsion
[ 7974 7965 7964 7962 ] final -130.60 input  175.53 | X-H torsion
[ 8008 7997 7996 7995 ] final -175.03 input   59.86 | X-H torsion
[ 10167 10162 10161 10158 ] final -162.54 input  -65.29 | X-H torsion
[ 10718 10713 10712 10709 ] final -167.35 input   66.30 | X-H torsion
[ 10763 10752 10751 10750 ] final  -76.02 input  -60.55 | X-H torsion
[ 11005 11000 10999 10996 ] final   75.79 input  -57.11 | X-H torsion

> <Gold.Protein.ActiveResidues>
 VAL166  LYS551  ARG553  GLY616  TRP617  ASP618  TYR619  PRO620  LYS621  CYS622 
 ASP623  PHE694  ASN695  SER759  ASP760  ASP761  ALA762  ILE779  LEU786  VAL792 
 PHE793  MET794  SER795  GLU796  ALA797  LYS798  CYS799  TRP800  GLU811  SER814 

> <Gold.Protein.RotatedAtoms>
  150.9697  134.9071  159.7779 H   0  0  0  0  0  0  0  0  0  0  0  0  # atno 6907 bound_to 6896
  152.5186  134.3558  159.9277 H   0  0  0  0  0  0  0  0  0  0  0  0  # atno 6908 bound_to 6896
  151.3568  133.3864  159.2720 H   0  0  0  0  0  0  0  0  0  0  0  0  # atno 6909 bound_to 6896
  144.9459  140.7291  143.4817 H   0  0  0  0  0  0  0  0  0  0  0  0  # atno 7974 bound_to 7965
  155.9776  140.1175  157.0756 H   0  0  0  0  0  0  0  0  0  0  0  0  # atno 8008 bound_to 7997
  154.4173  140.1151  156.5458 H   0  0  0  0  0  0  0  0  0  0  0  0  # atno 8009 bound_to 7997
  155.6514  140.3473  155.4752 H   0  0  0  0  0  0  0  0  0  0  0  0  # atno 8010 bound_to 7997
  139.6385  144.0305  152.2073 H   0  0  0  0  0  0  0  0  0  0  0  0  # atno 10167 bound_to 10162
  156.6812  130.9122  151.3057 H   0  0  0  0  0  0  0  0  0  0  0  0  # atno 10718 bound_to 10713
  154.4943  135.5811  153.6483 H   0  0  0  0  0  0  0  0  0  0  0  0  # atno 10763 bound_to 10752
  152.9867  135.6120  154.3084 H   0  0  0  0  0  0  0  0  0  0  0  0  # atno 10764 bound_to 10752
  154.2986  135.2847  155.2601 H   0  0  0  0  0  0  0  0  0  0  0  0  # atno 10765 bound_to 10752
  139.9327  134.7547  156.1315 H   0  0  0  0  0  0  0  0  0  0  0  0  # atno 11005 bound_to 11000
  145.2918  139.1881  143.4736 LP  0  0  0  0  0  0  0  0  0  0  0  0  # atno 17320 bound_to 7965
  146.3303  140.2896  142.8614 LP  0  0  0  0  0  0  0  0  0  0  0  0  # atno 17321 bound_to 7965
  139.9988  144.6308  150.7748 LP  0  0  0  0  0  0  0  0  0  0  0  0  # atno 17342 bound_to 10162
  140.7478  143.2912  151.3326 LP  0  0  0  0  0  0  0  0  0  0  0  0  # atno 17343 bound_to 10162
  157.7043  130.9367  150.0881 LP  0  0  0  0  0  0  0  0  0  0  0  0  # atno 17370 bound_to 10713
  156.1866  130.3652  149.8964 LP  0  0  0  0  0  0  0  0  0  0  0  0  # atno 17371 bound_to 10713
  141.0925  133.6708  156.2572 LP  0  0  0  0  0  0  0  0  0  0  0  0  # atno 17394 bound_to 11000
  140.6158  134.5412  157.5540 LP  0  0  0  0  0  0  0  0  0  0  0  0  # atno 17395 bound_to 11000

$$$$
