AV-unprocessed.smi:1947|AV-procd|sdf|7872|dock5
  -GOLD-   2272010 23D 1   1.00000     0.00000
 Structure written by MMmdl.
 38 39  0  0  0  0  0  0  0  0  2 V2000
  153.0226  141.8506  160.8056 C   0  0  0  0  0  0  0  0  0  0  0  0
  152.1344  142.6341  159.8238 C   0  0  1  0  0  0  0  0  0  0  0  0
  152.7268  144.0304  159.5457 C   0  0  0  0  0  0  0  0  0  0  0  0
  151.8666  144.8278  158.5532 C   0  0  0  0  0  0  0  0  0  0  0  0
  151.6750  144.0531  157.2417 C   0  0  0  0  0  0  0  0  0  0  0  0
  151.0713  142.6658  157.5056 C   0  0  0  0  0  0  0  0  0  0  0  0
  151.9250  141.8589  158.5042 C   0  0  2  0  0  0  0  0  0  0  0  0
  151.2581  140.6448  158.8210 O   0  0  0  0  0  0  0  0  0  0  0  0
  151.8904  139.4750  158.3233 C   0  0  0  0  0  0  0  0  0  0  0  0
  150.8071  138.4949  157.8470 C   0  0  0  0  0  0  0  0  0  0  0  0
  149.7803  138.2887  158.8646 N   0  0  0  0  0  0  0  0  0  0  0  0
  149.3292  137.1054  159.3036 C   0  0  0  0  0  0  0  0  0  0  0  0
  149.7490  136.0606  158.8007 O   0  0  0  0  0  0  0  0  0  0  0  0
  148.4280  137.2058  160.3068 N   0  5  0  0  0  0  0  0  0  0  0  0
  148.0103  136.1007  160.9457 C   0  0  0  0  0  0  0  0  0  0  0  0
  147.9843  134.8945  160.3568 N   0  0  0  0  0  0  0  0  0  0  0  0
  147.5152  133.8898  161.1924 N   0  0  0  0  0  0  0  0  0  0  0  0
  147.1905  134.3686  162.3930 C   0  0  0  0  0  0  0  0  0  0  0  0
  147.4237  136.0901  162.6112 S   0  0  0  0  0  0  0  0  0  0  0  0
  154.0120  141.6663  160.3859 H   0  0  0  0  0  0  0  0  0  0  0  0
  152.5856  140.8829  161.0544 H   0  0  0  0  0  0  0  0  0  0  0  0
  153.1537  142.3978  161.7391 H   0  0  0  0  0  0  0  0  0  0  0  0
  151.1599  142.7713  160.2947 H   0  0  0  0  0  0  0  0  0  0  0  0
  152.8180  144.5888  160.4777 H   0  0  0  0  0  0  0  0  0  0  0  0
  153.7374  143.9290  159.1478 H   0  0  0  0  0  0  0  0  0  0  0  0
  150.8942  145.0400  158.9993 H   0  0  0  0  0  0  0  0  0  0  0  0
  152.3316  145.7929  158.3502 H   0  0  0  0  0  0  0  0  0  0  0  0
  151.0304  144.6170  156.5670 H   0  0  0  0  0  0  0  0  0  0  0  0
  152.6350  143.9447  156.7356 H   0  0  0  0  0  0  0  0  0  0  0  0
  150.0599  142.7795  157.8983 H   0  0  0  0  0  0  0  0  0  0  0  0
  150.9774  142.1259  156.5635 H   0  0  0  0  0  0  0  0  0  0  0  0
  152.9056  141.6583  158.0685 H   0  0  0  0  0  0  0  0  0  0  0  0
  152.5562  139.7284  157.4980 H   0  0  0  0  0  0  0  0  0  0  0  0
  152.4992  139.0073  159.0983 H   0  0  0  0  0  0  0  0  0  0  0  0
  150.3238  138.8853  156.9514 H   0  0  0  0  0  0  0  0  0  0  0  0
  151.2533  137.5387  157.5703 H   0  0  0  0  0  0  0  0  0  0  0  0
  149.4069  139.1164  159.3056 H   0  0  0  0  0  0  0  0  0  0  0  0
  146.8077  133.7048  163.1536 H   0  0  0  0  0  0  0  0  0  0  0  0
  1  2  1  0  0  0  0
  1 20  1  0  0  0  0
  1 21  1  0  0  0  0
  1 22  1  0  0  0  0
  2  7  1  0  0  0  0
  2  3  1  0  0  0  0
  2 23  1  0  0  0  0
  3  4  1  0  0  0  0
  3 24  1  0  0  0  0
  3 25  1  0  0  0  0
  4  5  1  0  0  0  0
  4 26  1  0  0  0  0
  4 27  1  0  0  0  0
  5  6  1  0  0  0  0
  5 28  1  0  0  0  0
  5 29  1  0  0  0  0
  6  7  1  0  0  0  0
  6 30  1  0  0  0  0
  6 31  1  0  0  0  0
  7  8  1  0  0  0  0
  7 32  1  0  0  0  0
  8  9  1  0  0  0  0
  9 10  1  0  0  0  0
  9 33  1  0  0  0  0
  9 34  1  0  0  0  0
 10 11  1  0  0  0  0
 10 35  1  0  0  0  0
 10 36  1  0  0  0  0
 11 12  1  0  0  0  0
 11 37  1  0  0  0  0
 12 13  2  0  0  0  0
 12 14  1  0  0  0  0
 14 15  1  0  0  0  0
 15 19  1  0  0  0  0
 15 16  2  0  0  0  0
 16 17  1  0  0  0  0
 17 18  2  0  0  0  0
 18 19  1  0  0  0  0
 18 38  1  0  0  0  0
M  CHG  1  14  -1
M  END
> <s_m_source_file>
AV-unprocessed.smi

> <i_m_source_file_index>
1947

> <i_lp_mmshare_version>
43012

> <i_f3d_flags>
0

> <s_epik_input>
W0NIM11bQ0BASF0xW0NIMl1bQ0gyXVtDSDJdW0NIMl1bQ0BIXTFPW0NIMl1bQ0gyXVtOSF1DKD1PKVtOSF1jMm5uW2NIXXMy

> <s_epik_cmdline>
J2VwaWtfcHl0aG9uJywgJy1waCcsICc3LjAnLCAnLXRuJywgJzgnLCAnLW1hJywgJzIwMCcsICctbWV0YWxfYmluZGluZycsICctaW1hZScsICc8aW5maWxlLm1hZT4nLCAnLW9tYWUnLCAnPG91dGZpbGUubWFlPic=

> <r_lp_tautomer_probability>
1

> <r_epik_Ionization_Penalty>
3.35961

> <r_epik_Ionization_Penalty_Charging>
3.31977

> <r_epik_Ionization_Penalty_Neutral>
0.0398394

> <r_epik_State_Penalty>
3.31759

> <r_epik_Charging_Adjusted_Penalty>
6.63736

> <i_epik_Tot_Q>
-1

> <i_epik_Tot_abs_Q>
1

> <r_epik_Metal_State_Penalty>
0.484557

> <b_epik_Metal_Only>
1

> <s_lp_Force_Field>
OPLS_2005

> <r_lp_Energy>
7.96077

> <b_lp_Chiralities_Consistent>
1

> <s_lp_Variant>
AV-unprocessed.smi:1947-8

> <Gold.Version>
5.8.1

> <Gold.Id.Protein>
6NUR|6NUR_protein|mol2

> <Gold.PLP.Fitness>
50.5273

> <Gold.PLP.PLP>
-43.8939

> <Gold.PLP.part.hbond>
-3.0000

> <Gold.PLP.part.metal>
0.0000

> <Gold.PLP.part.buried>
-5.2071

> <Gold.PLP.part.nonpolar>
-36.5269

> <Gold.PLP.part.repulsive>
0.2286

> <Gold.PLP.ligand.clash>
0.0000

> <Gold.PLP.ligand.torsion>
1.2246

> <Gold.PLP.Chemscore.Hbond>
2.9992

> <Gold.PLP.Chemscore.CHOScore>
0.0000

> <Gold.PLP.Chemscore.Metal>
0.0000

> <Gold.Chemscore.Hbonds>
donor molecule, donor type, donor heavy atom, donor atom, acceptor molecule, acceptor atom, score
      P1  H  6896  6909       L1    13  1.00
      P1  H  6931  6943       L1    14  1.25
      P1  H  6934  6947       L1    14  0.44

> <Gold.PLP.Chemscore.Internal.Correction>
0.0850

> <Gold.Rescore>
     Score         DG    S(hbond)    S(metal)    S(lipo)     H(rot)  DE(clash)    DE(int)     intcor
     14.98     -17.78       1.37        0.00     107.44       1.90       0.01       2.78       ----

> <Gold.Chemscore.Fitness>
14.9809

> <Gold.Chemscore.DG>
-17.7765

> <Gold.Chemscore.ZeroCoef>
-5.4800

> <Gold.Chemscore.Hbond>
1.3729

> <Gold.Chemscore.Metal>
0.0000

> <Gold.Chemscore.Lipo>
107.4443

> <Gold.Chemscore.Internal_Hbond>
0.0000

> <Gold.Chemscore.DEClash>
0.0110

> <Gold.Chemscore.DEInternal>
2.7846

> <Gold.Chemscore.Rot>
1.8984

> <Gold.Chemscore.Internal.Correction>
   9.000000E+99

> <Gold.Chemscore.Hbonds>
donor molecule, donor type, donor heavy atom, donor atom, acceptor molecule, acceptor atom, score
      P1  H  6896  6909       L1    13  1.00
      P1  H  6931  6943       L1    14  0.12
      P1  H  6934  6947       L1    14  0.18

> <Gold.Chemscore.Hbond.Weighted>
-4.5853

> <Gold.Chemscore.Metal.Weighted>
-0.0000

> <Gold.Chemscore.Lipo.Weighted>
-12.5710

> <Gold.Chemscore.Internal_Hbond.Weighted>
0.0000

> <Gold.Chemscore.DEClash.Weighted>
0.0110

> <Gold.Chemscore.DEInternal.Weighted>
2.7846

> <Gold.Chemscore.Rot.Weighted>
4.8598

> <Gold.Chemscore.Internal.Correction.Weighted>
   9.000000E+99

> <Gold.Protein.RotatedTorsions>
[ 6907 6896 6895 6894 ] final   56.21 input  -60.11 | X-H torsion
[ 7974 7965 7964 7962 ] final   32.90 input  175.53 | X-H torsion
[ 8008 7997 7996 7995 ] final  131.02 input   59.86 | X-H torsion
[ 10167 10162 10161 10158 ] final -102.28 input  -65.29 | X-H torsion
[ 10718 10713 10712 10709 ] final   75.12 input   66.30 | X-H torsion
[ 10763 10752 10751 10750 ] final   72.42 input  -60.55 | X-H torsion
[ 11005 11000 10999 10996 ] final    0.84 input  -57.11 | X-H torsion

> <Gold.Protein.ActiveResidues>
 VAL166  LYS551  ARG553  GLY616  TRP617  ASP618  TYR619  PRO620  LYS621  CYS622 
 ASP623  PHE694  ASN695  SER759  ASP760  ASP761  ALA762  ILE779  LEU786  VAL792 
 PHE793  MET794  SER795  GLU796  ALA797  LYS798  CYS799  TRP800  GLU811  SER814 

> <Gold.Protein.RotatedAtoms>
  152.3614  134.6866  160.0205 H   0  0  0  0  0  0  0  0  0  0  0  0  # atno 6907 bound_to 6896
  151.7188  133.3308  159.3318 H   0  0  0  0  0  0  0  0  0  0  0  0  # atno 6908 bound_to 6896
  150.7607  134.6400  159.6277 H   0  0  0  0  0  0  0  0  0  0  0  0  # atno 6909 bound_to 6896
  146.1456  139.6466  142.9133 H   0  0  0  0  0  0  0  0  0  0  0  0  # atno 7974 bound_to 7965
  156.2964  140.2581  156.2857 H   0  0  0  0  0  0  0  0  0  0  0  0  # atno 8008 bound_to 7997
  154.9559  140.0393  157.2185 H   0  0  0  0  0  0  0  0  0  0  0  0  # atno 8009 bound_to 7997
  154.7992  140.2825  155.5938 H   0  0  0  0  0  0  0  0  0  0  0  0  # atno 8010 bound_to 7997
  140.2323  143.3598  152.0876 H   0  0  0  0  0  0  0  0  0  0  0  0  # atno 10167 bound_to 10162
  157.6621  130.9711  150.1307 H   0  0  0  0  0  0  0  0  0  0  0  0  # atno 10718 bound_to 10713
  153.0458  135.5100  154.7741 H   0  0  0  0  0  0  0  0  0  0  0  0  # atno 10763 bound_to 10752
  154.6642  135.2943  154.9829 H   0  0  0  0  0  0  0  0  0  0  0  0  # atno 10764 bound_to 10752
  154.0669  135.6683  153.4871 H   0  0  0  0  0  0  0  0  0  0  0  0  # atno 10765 bound_to 10752
  140.6221  133.9652  155.8230 H   0  0  0  0  0  0  0  0  0  0  0  0  # atno 11005 bound_to 11000
  145.4945  141.0438  143.2574 LP  0  0  0  0  0  0  0  0  0  0  0  0  # atno 17320 bound_to 7965
  144.7842  139.6461  143.7141 LP  0  0  0  0  0  0  0  0  0  0  0  0  # atno 17321 bound_to 7965
  139.5106  144.6886  151.5820 LP  0  0  0  0  0  0  0  0  0  0  0  0  # atno 17342 bound_to 10162
  140.6176  143.9320  150.6500 LP  0  0  0  0  0  0  0  0  0  0  0  0  # atno 17343 bound_to 10162
  156.2155  130.3670  149.8619 LP  0  0  0  0  0  0  0  0  0  0  0  0  # atno 17370 bound_to 10713
  156.6486  130.8734  151.3527 LP  0  0  0  0  0  0  0  0  0  0  0  0  # atno 17371 bound_to 10713
  141.0735  134.0170  157.3492 LP  0  0  0  0  0  0  0  0  0  0  0  0  # atno 17394 bound_to 11000
  139.9149  135.0195  156.7841 LP  0  0  0  0  0  0  0  0  0  0  0  0  # atno 17395 bound_to 11000

$$$$
