AV-unprocessed.smi:54|AV-procd|sdf|541|dock5
  -GOLD-   2262016433D 1   1.00000     0.00000
 Structure written by MMmdl.
 44 46  0  0  0  0  0  0  0  0  1 V2000
  145.8936  132.0004  149.7208 C   0  0  0  0  0  0  0  0  0  0  0  0
  145.0090  132.0983  150.9744 C   0  0  0  0  0  0  0  0  0  0  0  0
  143.5164  132.0744  150.6079 C   0  0  0  0  0  0  0  0  0  0  0  0
  145.3465  133.3591  151.7785 C   0  0  0  0  0  0  0  0  0  0  0  0
  146.1408  134.2040  151.3639 O   0  0  0  0  0  0  0  0  0  0  0  0
  144.6615  133.4857  153.0528 N   0  0  0  0  0  0  0  0  0  0  0  0
  144.7732  134.4913  153.9517 C   0  0  0  0  0  0  0  0  0  0  0  0
  145.6417  135.4850  153.8271 N   0  0  0  0  0  0  0  0  0  0  0  0
  145.6067  136.4016  154.8411 C   0  0  0  0  0  0  0  0  0  0  0  0
  144.7765  136.3789  155.9420 C   0  0  0  0  0  0  0  0  0  0  0  0
  145.0286  137.4779  156.7554 N   0  0  0  0  0  0  0  0  0  0  0  0
  145.9824  138.1165  156.1373 C   0  0  0  0  0  0  0  0  0  0  0  0
  146.3872  137.5317  154.9600 N   0  0  0  0  0  0  0  0  0  0  0  0
  147.4430  137.9751  153.9935 C   0  0  2  0  0  0  0  0  0  0  0  0
  148.3418  138.7787  154.6984 O   0  0  0  0  0  0  0  0  0  0  0  0
  148.4267  140.0812  154.1217 C   0  0  2  0  0  0  0  0  0  0  0  0
  148.7054  141.1444  155.1989 C   0  0  0  0  0  0  0  0  0  0  0  0
  148.8388  142.4164  154.6015 O   0  0  0  0  0  0  0  0  0  0  0  0
  147.1154  140.2533  153.3412 C   0  0  2  0  0  0  0  0  0  0  0  0
  146.0755  140.7478  154.1691 O   0  0  0  0  0  0  0  0  0  0  0  0
  146.8569  138.8332  152.8569 C   0  0  2  0  0  0  0  0  0  0  0  0
  145.4968  138.5894  152.5414 O   0  0  0  0  0  0  0  0  0  0  0  0
  143.8347  135.3079  156.0941 C   0  0  0  0  0  0  0  0  0  0  0  0
  143.0267  135.1268  157.0023 O   0  0  0  0  0  0  0  0  0  0  0  0
  143.9018  134.3914  155.0366 N   0  0  0  0  0  0  0  0  0  0  0  0
  147.9149  137.0534  153.6514 H   0  0  0  0  0  0  0  0  0  0  0  0
  149.2410  140.0664  153.3948 H   0  0  0  0  0  0  0  0  0  0  0  0
  147.2353  140.9453  152.5070 H   0  0  0  0  0  0  0  0  0  0  0  0
  147.4615  138.6474  151.9682 H   0  0  0  0  0  0  0  0  0  0  0  0
  146.9530  132.0293  149.9789 H   0  0  0  0  0  0  0  0  0  0  0  0
  145.6976  132.8181  149.0259 H   0  0  0  0  0  0  0  0  0  0  0  0
  145.7127  131.0659  149.1889 H   0  0  0  0  0  0  0  0  0  0  0  0
  145.2169  131.2293  151.6005 H   0  0  0  0  0  0  0  0  0  0  0  0
  142.8882  132.1392  151.4972 H   0  0  0  0  0  0  0  0  0  0  0  0
  143.2572  131.1495  150.0924 H   0  0  0  0  0  0  0  0  0  0  0  0
  143.2506  132.9038  149.9508 H   0  0  0  0  0  0  0  0  0  0  0  0
  144.0158  132.7444  153.2811 H   0  0  0  0  0  0  0  0  0  0  0  0
  146.4127  139.0284  156.5245 H   0  0  0  0  0  0  0  0  0  0  0  0
  147.8701  141.1998  155.8976 H   0  0  0  0  0  0  0  0  0  0  0  0
  149.5982  140.9023  155.7761 H   0  0  0  0  0  0  0  0  0  0  0  0
  148.7170  143.0756  155.2675 H   0  0  0  0  0  0  0  0  0  0  0  0
  145.2472  140.5035  153.7846 H   0  0  0  0  0  0  0  0  0  0  0  0
  145.0049  139.3737  152.7324 H   0  0  0  0  0  0  0  0  0  0  0  0
  143.2650  133.6093  155.0775 H   0  0  0  0  0  0  0  0  0  0  0  0
  1  2  1  0  0  0  0
  1 30  1  0  0  0  0
  1 31  1  0  0  0  0
  1 32  1  0  0  0  0
  2  3  1  0  0  0  0
  2  4  1  0  0  0  0
  2 33  1  0  0  0  0
  3 34  1  0  0  0  0
  3 35  1  0  0  0  0
  3 36  1  0  0  0  0
  4  5  2  0  0  0  0
  4  6  1  0  0  0  0
  6 37  1  0  0  0  0
  6  7  1  0  0  0  0
  7 25  1  0  0  0  0
  7  8  2  0  0  0  0
  8  9  1  0  0  0  0
  9 13  1  0  0  0  0
  9 10  2  0  0  0  0
 10 11  1  0  0  0  0
 10 23  1  0  0  0  0
 11 12  2  0  0  0  0
 12 13  1  0  0  0  0
 12 38  1  0  0  0  0
 13 14  1  0  0  0  0
 14 26  1  0  0  0  0
 14 21  1  0  0  0  0
 14 15  1  0  0  0  0
 15 16  1  0  0  0  0
 16 27  1  0  0  0  0
 16 17  1  0  0  0  0
 16 19  1  0  0  0  0
 17 18  1  0  0  0  0
 17 39  1  0  0  0  0
 17 40  1  0  0  0  0
 18 41  1  0  0  0  0
 19 28  1  0  0  0  0
 19 20  1  0  0  0  0
 19 21  1  0  0  0  0
 20 42  1  0  0  0  0
 21 29  1  0  0  0  0
 21 22  1  0  0  0  0
 22 43  1  0  0  0  0
 23 24  2  0  0  0  0
 23 25  1  0  0  0  0
 25 44  1  0  0  0  0
M  END
> <s_m_source_file>
AV-unprocessed.smi

> <i_m_source_file_index>
54

> <i_lp_mmshare_version>
43012

> <i_f3d_flags>
0

> <s_epik_input>
W0NIM11bQ0hdKFtDSDNdKUMoPU8pW05IXWMobjEpW25IXWMoPU8pYyhjMTIpbltjSF1uMltDQEBIXTNPW0NASF0oW0NIMl1bT0hdKVtDQEBIXShbT0hdKVtDQEhdM1tPSF0=

> <s_epik_cmdline>
J2VwaWtfcHl0aG9uJywgJy1waCcsICc3LjAnLCAnLXRuJywgJzgnLCAnLW1hJywgJzIwMCcsICctbWV0YWxfYmluZGluZycsICctaW1hZScsICc8aW5maWxlLm1hZT4nLCAnLW9tYWUnLCAnPG91dGZpbGUubWFlPic=

> <r_lp_tautomer_probability>
0.85571

> <r_epik_Ionization_Penalty>
0.0316551

> <r_epik_Ionization_Penalty_Charging>
0.0316043

> <r_epik_Ionization_Penalty_Neutral>
5.07097e-05

> <r_epik_State_Penalty>
3.15494e-07

> <r_epik_Charging_Adjusted_Penalty>
0.0316047

> <i_epik_Tot_Q>
0

> <i_epik_Tot_abs_Q>
0

> <r_epik_Metal_State_Penalty>
0.421206

> <b_epik_Metal_Only>
0

> <s_epik_Chemistry_Notes>
This compound contains an acetal/aminal-like group ( X-CH(R)-Y where X, Y are N, S, or O) that may be acid/base labile, releasing an aldehyde.

> <s_lp_Force_Field>
OPLS_2005

> <r_lp_Energy>
46.8633

> <b_lp_Chiralities_Consistent>
1

> <s_lp_Variant>
AV-unprocessed.smi:54-13

> <Gold.Version>
5.8.1

> <Gold.Id.Protein>
6NUR|6NUR_protein|mol2

> <Gold.PLP.Fitness>
44.2999

> <Gold.PLP.PLP>
-31.5395

> <Gold.PLP.part.hbond>
-7.5497

> <Gold.PLP.part.metal>
0.0000

> <Gold.PLP.part.buried>
-4.6498

> <Gold.PLP.part.nonpolar>
-21.0539

> <Gold.PLP.part.repulsive>
0.3970

> <Gold.PLP.ligand.clash>
0.0000

> <Gold.PLP.ligand.torsion>
0.7510

> <Gold.PLP.Chemscore.Hbond>
4.6789

> <Gold.PLP.Chemscore.CHOScore>
0.0000

> <Gold.PLP.Chemscore.Metal>
0.0000

> <Gold.Chemscore.Hbonds>
donor molecule, donor type, donor heavy atom, donor atom, acceptor molecule, acceptor atom, score
      L1  H     6    37       P1 10957  0.48
      L1  H    18    41       P1  8028  0.90
      L1  H    20    42       P1 10175  0.99
      L1  H    22    43       P1 10175  1.00
      L1  H    25    44       P1 10957  1.00
      P1  H 11000 11005       L1    24  0.23

> <Gold.PLP.Chemscore.Internal.Correction>
0.2258

> <Gold.Rescore>
     Score         DG    S(hbond)    S(metal)    S(lipo)     H(rot)  DE(clash)    DE(int)     intcor
     14.92     -17.06       4.55        0.00      57.77       4.05       0.03       2.11       ----

> <Gold.Chemscore.Fitness>
14.9160

> <Gold.Chemscore.DG>
-17.0552

> <Gold.Chemscore.ZeroCoef>
-5.4800

> <Gold.Chemscore.Hbond>
4.5456

> <Gold.Chemscore.Metal>
0.0000

> <Gold.Chemscore.Lipo>
57.7692

> <Gold.Chemscore.Internal_Hbond>
0.0000

> <Gold.Chemscore.DEClash>
0.0282

> <Gold.Chemscore.DEInternal>
2.1109

> <Gold.Chemscore.Rot>
4.0493

> <Gold.Chemscore.Internal.Correction>
   9.000000E+99

> <Gold.Chemscore.Hbonds>
donor molecule, donor type, donor heavy atom, donor atom, acceptor molecule, acceptor atom, score
      L1  H     6    37       P1 10957  0.19
      L1  H    18    41       P1  8028  0.88
      L1  H    20    42       P1 10175  0.91
      L1  H    22    43       P1 10175  0.96
      L1  H    25    44       P1 10957  0.98
      P1  H  8011  8017       L1    18  0.01
      P1  H 11000 11005       L1    24  0.22

> <Gold.Chemscore.Hbond.Weighted>
-15.1824

> <Gold.Chemscore.Metal.Weighted>
-0.0000

> <Gold.Chemscore.Lipo.Weighted>
-6.7590

> <Gold.Chemscore.Internal_Hbond.Weighted>
0.0000

> <Gold.Chemscore.DEClash.Weighted>
0.0282

> <Gold.Chemscore.DEInternal.Weighted>
2.1109

> <Gold.Chemscore.Rot.Weighted>
10.3662

> <Gold.Chemscore.Internal.Correction.Weighted>
   9.000000E+99

> <Gold.Protein.RotatedTorsions>
[ 6907 6896 6895 6894 ] final   58.35 input  -60.11 | X-H torsion
[ 7974 7965 7964 7962 ] final   40.25 input  175.53 | X-H torsion
[ 8008 7997 7996 7995 ] final  -43.27 input   59.86 | X-H torsion
[ 10167 10162 10161 10158 ] final -138.40 input  -65.29 | X-H torsion
[ 10718 10713 10712 10709 ] final -106.00 input   66.30 | X-H torsion
[ 10763 10752 10751 10750 ] final  179.61 input  -60.55 | X-H torsion
[ 11005 11000 10999 10996 ] final -105.19 input  -57.11 | X-H torsion

> <Gold.Protein.ActiveResidues>
 VAL166  LYS551  ARG553  GLY616  TRP617  ASP618  TYR619  PRO620  LYS621  CYS622 
 ASP623  PHE694  ASN695  SER759  ASP760  ASP761  ALA762  ILE779  LEU786  VAL792 
 PHE793  MET794  SER795  GLU796  ALA797  LYS798  CYS799  TRP800  GLU811  SER814 

> <Gold.Protein.RotatedAtoms>
  152.3816  134.6582  160.0140 H   0  0  0  0  0  0  0  0  0  0  0  0  # atno 6907 bound_to 6896
  151.6844  133.3306  159.3235 H   0  0  0  0  0  0  0  0  0  0  0  0  # atno 6908 bound_to 6896
  150.7752  134.6689  159.6425 H   0  0  0  0  0  0  0  0  0  0  0  0  # atno 6909 bound_to 6896
  146.0920  139.5555  142.9470 H   0  0  0  0  0  0  0  0  0  0  0  0  # atno 7974 bound_to 7965
  154.3997  140.1452  156.3492 H   0  0  0  0  0  0  0  0  0  0  0  0  # atno 8008 bound_to 7997
  155.8285  140.3467  155.5536 H   0  0  0  0  0  0  0  0  0  0  0  0  # atno 8009 bound_to 7997
  155.8213  140.0898  157.1837 H   0  0  0  0  0  0  0  0  0  0  0  0  # atno 8010 bound_to 7997
  139.8481  143.7234  152.2659 H   0  0  0  0  0  0  0  0  0  0  0  0  # atno 10167 bound_to 10162
  156.0370  130.5591  150.7618 H   0  0  0  0  0  0  0  0  0  0  0  0  # atno 10718 bound_to 10713
  154.5229  135.2795  155.1247 H   0  0  0  0  0  0  0  0  0  0  0  0  # atno 10763 bound_to 10752
  154.2797  135.6288  153.5346 H   0  0  0  0  0  0  0  0  0  0  0  0  # atno 10764 bound_to 10752
  152.9940  135.5648  154.5723 H   0  0  0  0  0  0  0  0  0  0  0  0  # atno 10765 bound_to 10752
  141.1065  133.8787  157.1704 H   0  0  0  0  0  0  0  0  0  0  0  0  # atno 11005 bound_to 11000
  145.6021  141.0353  143.2013 LP  0  0  0  0  0  0  0  0  0  0  0  0  # atno 17320 bound_to 7965
  144.7367  139.7565  143.7326 LP  0  0  0  0  0  0  0  0  0  0  0  0  # atno 17321 bound_to 7965
  139.7492  144.7539  151.0533 LP  0  0  0  0  0  0  0  0  0  0  0  0  # atno 17342 bound_to 10162
  140.7790  143.4880  150.9930 LP  0  0  0  0  0  0  0  0  0  0  0  0  # atno 17343 bound_to 10162
  157.5135  131.0927  151.0168 LP  0  0  0  0  0  0  0  0  0  0  0  0  # atno 17370 bound_to 10713
  157.0517  130.5790  149.5371 LP  0  0  0  0  0  0  0  0  0  0  0  0  # atno 17371 bound_to 10713
  139.9938  135.0054  157.0035 LP  0  0  0  0  0  0  0  0  0  0  0  0  # atno 17394 bound_to 11000
  140.4888  134.1214  155.7229 LP  0  0  0  0  0  0  0  0  0  0  0  0  # atno 17395 bound_to 11000

$$$$
