AV-unprocessed.smi:2771|AV-procd|sdf|10663|dock9
  -GOLD-   2272015113D 1   1.00000     0.00000
 Structure written by MMmdl.
 43 44  0  0  0  0  0  0  0  0  1 V2000
  153.0644  141.0733  160.4068 C   0  0  0  0  0  0  0  0  0  0  0  0
  152.3569  142.2714  159.8095 C   0  0  0  0  0  0  0  0  0  0  0  0
  152.4670  143.5468  160.3975 C   0  0  0  0  0  0  0  0  0  0  0  0
  151.7838  144.6166  159.7923 C   0  0  0  0  0  0  0  0  0  0  0  0
  151.0252  144.3696  158.6319 C   0  0  0  0  0  0  0  0  0  0  0  0
  150.9690  143.0599  158.1042 C   0  0  0  0  0  0  0  0  0  0  0  0
  150.1847  142.9177  156.9287 N   0  0  0  0  0  0  0  0  0  0  0  0
  149.8424  141.7852  156.2893 C   0  0  0  0  0  0  0  0  0  0  0  0
  150.1283  140.6446  156.6544 O   0  0  0  0  0  0  0  0  0  0  0  0
  149.1385  142.0505  155.1806 N   0  0  0  0  0  0  0  0  0  0  0  0
  148.6504  141.0431  154.2451 C   0  0  0  0  0  0  0  0  0  0  0  0
  147.4531  141.5851  153.4361 C   0  0  1  0  0  0  0  0  0  0  0  0
  146.6569  140.4621  153.1041 O   0  0  0  0  0  0  0  0  0  0  0  0
  146.5611  142.5990  154.2037 C   0  0  0  0  0  0  0  0  0  0  0  0
  145.8065  141.9162  155.3727 C   0  0  0  0  0  0  0  0  0  0  0  0
  144.9183  142.9002  156.1498 C   0  0  0  0  0  0  0  0  0  0  0  0
  143.9139  143.5917  155.2200 C   0  0  0  0  0  0  0  0  0  0  0  0
  144.6403  144.2905  154.0636 C   0  0  0  0  0  0  0  0  0  0  0  0
  145.5358  143.3104  153.2868 C   0  0  0  0  0  0  0  0  0  0  0  0
  151.6302  142.0342  158.6964 N   0  0  0  0  0  0  0  0  0  0  0  0
  153.6292  141.3506  161.2973 H   0  0  0  0  0  0  0  0  0  0  0  0
  153.7585  140.6436  159.6839 H   0  0  0  0  0  0  0  0  0  0  0  0
  152.3415  140.3066  160.6869 H   0  0  0  0  0  0  0  0  0  0  0  0
  153.0581  143.7043  161.2877 H   0  0  0  0  0  0  0  0  0  0  0  0
  151.8406  145.6112  160.2093 H   0  0  0  0  0  0  0  0  0  0  0  0
  150.4957  145.1813  158.1544 H   0  0  0  0  0  0  0  0  0  0  0  0
  149.8677  143.7806  156.5126 H   0  0  0  0  0  0  0  0  0  0  0  0
  148.9394  143.0149  154.9579 H   0  0  0  0  0  0  0  0  0  0  0  0
  149.4445  140.7101  153.5739 H   0  0  0  0  0  0  0  0  0  0  0  0
  148.3620  140.1824  154.8464 H   0  0  0  0  0  0  0  0  0  0  0  0
  147.8103  142.0456  152.5137 H   0  0  0  0  0  0  0  0  0  0  0  0
  145.8231  140.7701  152.7839 H   0  0  0  0  0  0  0  0  0  0  0  0
  147.2128  143.3652  154.6273 H   0  0  0  0  0  0  0  0  0  0  0  0
  145.1918  141.1020  154.9863 H   0  0  0  0  0  0  0  0  0  0  0  0
  146.5086  141.4625  156.0723 H   0  0  0  0  0  0  0  0  0  0  0  0
  144.3879  142.3740  156.9439 H   0  0  0  0  0  0  0  0  0  0  0  0
  145.5425  143.6493  156.6388 H   0  0  0  0  0  0  0  0  0  0  0  0
  143.2130  142.8560  154.8238 H   0  0  0  0  0  0  0  0  0  0  0  0
  143.3218  144.3147  155.7817 H   0  0  0  0  0  0  0  0  0  0  0  0
  143.9129  144.7431  153.3892 H   0  0  0  0  0  0  0  0  0  0  0  0
  145.2477  145.1077  154.4549 H   0  0  0  0  0  0  0  0  0  0  0  0
  146.0407  143.8729  152.5033 H   0  0  0  0  0  0  0  0  0  0  0  0
  144.9137  142.5685  152.7845 H   0  0  0  0  0  0  0  0  0  0  0  0
  1  2  1  0  0  0  0
  1 21  1  0  0  0  0
  1 22  1  0  0  0  0
  1 23  1  0  0  0  0
  2 20  1  0  0  0  0
  2  3  2  0  0  0  0
  3  4  1  0  0  0  0
  3 24  1  0  0  0  0
  4  5  2  0  0  0  0
  4 25  1  0  0  0  0
  5  6  1  0  0  0  0
  5 26  1  0  0  0  0
  6  7  1  0  0  0  0
  6 20  2  0  0  0  0
  7  8  1  0  0  0  0
  7 27  1  0  0  0  0
  8  9  2  0  0  0  0
  8 10  1  0  0  0  0
 10 11  1  0  0  0  0
 10 28  1  0  0  0  0
 11 12  1  0  0  0  0
 11 29  1  0  0  0  0
 11 30  1  0  0  0  0
 12 13  1  0  0  0  0
 12 14  1  0  0  0  0
 12 31  1  0  0  0  0
 13 32  1  0  0  0  0
 14 19  1  0  0  0  0
 14 15  1  0  0  0  0
 14 33  1  0  0  0  0
 15 16  1  0  0  0  0
 15 34  1  0  0  0  0
 15 35  1  0  0  0  0
 16 17  1  0  0  0  0
 16 36  1  0  0  0  0
 16 37  1  0  0  0  0
 17 18  1  0  0  0  0
 17 38  1  0  0  0  0
 17 39  1  0  0  0  0
 18 19  1  0  0  0  0
 18 40  1  0  0  0  0
 18 41  1  0  0  0  0
 19 42  1  0  0  0  0
 19 43  1  0  0  0  0
M  END
> <s_m_source_file>
AV-unprocessed.smi

> <i_m_source_file_index>
2771

> <i_lp_mmshare_version>
43012

> <i_f3d_flags>
0

> <s_epik_input>
W0NIM11jMVtjSF1bY0hdW2NIXWMobjEpW05IXUMoPU8pW05IXVtDSDJdW0NASF0oW09IXSlbQ0hdMltDSDJdW0NIMl1bQ0gyXVtDSDJdW0NIMl0y

> <s_epik_cmdline>
J2VwaWtfcHl0aG9uJywgJy1waCcsICc3LjAnLCAnLXRuJywgJzgnLCAnLW1hJywgJzIwMCcsICctbWV0YWxfYmluZGluZycsICctaW1hZScsICc8aW5maWxlLm1hZT4nLCAnLW9tYWUnLCAnPG91dGZpbGUubWFlPic=

> <r_lp_tautomer_probability>
1

> <r_epik_Ionization_Penalty>
8.92802e-05

> <r_epik_Ionization_Penalty_Charging>
0

> <r_epik_Ionization_Penalty_Neutral>
8.92802e-05

> <r_epik_State_Penalty>
-0

> <r_epik_Charging_Adjusted_Penalty>
0

> <i_epik_Tot_Q>
0

> <i_epik_Tot_abs_Q>
0

> <r_epik_Metal_State_Penalty>
-0

> <b_epik_Metal_Only>
0

> <s_lp_Force_Field>
OPLS_2005

> <r_lp_Energy>
17.4783

> <b_lp_Chiralities_Consistent>
1

> <s_lp_Variant>
AV-unprocessed.smi:2771-2

> <Gold.Version>
5.8.1

> <Gold.Id.Protein>
6NUR|6NUR_protein|mol2

> <Gold.PLP.Fitness>
53.3079

> <Gold.PLP.PLP>
-46.3539

> <Gold.PLP.part.hbond>
-3.0000

> <Gold.PLP.part.metal>
0.0000

> <Gold.PLP.part.buried>
-8.1135

> <Gold.PLP.part.nonpolar>
-36.9783

> <Gold.PLP.part.repulsive>
0.2701

> <Gold.PLP.ligand.clash>
0.0000

> <Gold.PLP.ligand.torsion>
0.6193

> <Gold.PLP.Chemscore.Hbond>
2.7258

> <Gold.PLP.Chemscore.CHOScore>
0.0000

> <Gold.PLP.Chemscore.Metal>
0.0000

> <Gold.Chemscore.Hbonds>
donor molecule, donor type, donor heavy atom, donor atom, acceptor molecule, acceptor atom, score
      L1  H     7    27       P1  8028  1.00
      L1  H    10    28       P1  8028  0.90
      L1  H    13    32       P1 10175  0.65

> <Gold.PLP.Chemscore.Internal.Correction>
0.0153

> <Gold.Rescore>
     Score         DG    S(hbond)    S(metal)    S(lipo)     H(rot)  DE(clash)    DE(int)     intcor
     18.34     -20.15       2.58        0.00      94.50       1.95       0.08       1.72       ----

> <Gold.Chemscore.Fitness>
18.3444

> <Gold.Chemscore.DG>
-20.1486

> <Gold.Chemscore.ZeroCoef>
-5.4800

> <Gold.Chemscore.Hbond>
2.5790

> <Gold.Chemscore.Metal>
0.0000

> <Gold.Chemscore.Lipo>
94.4970

> <Gold.Chemscore.Internal_Hbond>
0.0000

> <Gold.Chemscore.DEClash>
0.0795

> <Gold.Chemscore.DEInternal>
1.7247

> <Gold.Chemscore.Rot>
1.9536

> <Gold.Chemscore.Internal.Correction>
   9.000000E+99

> <Gold.Chemscore.Hbonds>
donor molecule, donor type, donor heavy atom, donor atom, acceptor molecule, acceptor atom, score
      L1  H     7    27       P1  8028  0.97
      L1  H    10    28       P1  8028  0.88
      L1  H    13    32       P1 10175  0.24

> <Gold.Chemscore.Hbond.Weighted>
-8.6137

> <Gold.Chemscore.Metal.Weighted>
-0.0000

> <Gold.Chemscore.Lipo.Weighted>
-11.0562

> <Gold.Chemscore.Internal_Hbond.Weighted>
0.0000

> <Gold.Chemscore.DEClash.Weighted>
0.0795

> <Gold.Chemscore.DEInternal.Weighted>
1.7247

> <Gold.Chemscore.Rot.Weighted>
5.0013

> <Gold.Chemscore.Internal.Correction.Weighted>
   9.000000E+99

> <Gold.Protein.RotatedTorsions>
[ 6907 6896 6895 6894 ] final -169.11 input  -60.11 | X-H torsion
[ 7974 7965 7964 7962 ] final  164.99 input  175.53 | X-H torsion
[ 8008 7997 7996 7995 ] final    6.24 input   59.86 | X-H torsion
[ 10167 10162 10161 10158 ] final  165.23 input  -65.29 | X-H torsion
[ 10718 10713 10712 10709 ] final -151.06 input   66.30 | X-H torsion
[ 10763 10752 10751 10750 ] final  -90.96 input  -60.55 | X-H torsion
[ 11005 11000 10999 10996 ] final  151.29 input  -57.11 | X-H torsion

> <Gold.Protein.ActiveResidues>
 VAL166  LYS551  ARG553  GLY616  TRP617  ASP618  TYR619  PRO620  LYS621  CYS622 
 ASP623  PHE694  ASN695  SER759  ASP760  ASP761  ALA762  ILE779  LEU786  VAL792 
 PHE793  MET794  SER795  GLU796  ALA797  LYS798  CYS799  TRP800  GLU811  SER814 

> <Gold.Protein.RotatedAtoms>
  151.4863  133.3535  159.2846 H   0  0  0  0  0  0  0  0  0  0  0  0  # atno 6907 bound_to 6896
  150.8864  134.8264  159.7273 H   0  0  0  0  0  0  0  0  0  0  0  0  # atno 6908 bound_to 6896
  152.4795  134.4768  159.9704 H   0  0  0  0  0  0  0  0  0  0  0  0  # atno 6909 bound_to 6896
  144.7521  139.8406  143.6362 H   0  0  0  0  0  0  0  0  0  0  0  0  # atno 7974 bound_to 7965
  154.7385  140.2744  155.6393 H   0  0  0  0  0  0  0  0  0  0  0  0  # atno 8008 bound_to 7997
  156.2868  140.2701  156.2032 H   0  0  0  0  0  0  0  0  0  0  0  0  # atno 8009 bound_to 7997
  155.0288  140.0371  157.2456 H   0  0  0  0  0  0  0  0  0  0  0  0  # atno 8010 bound_to 7997
  139.4902  144.4154  151.9250 H   0  0  0  0  0  0  0  0  0  0  0  0  # atno 10167 bound_to 10162
  156.4543  130.8183  151.2414 H   0  0  0  0  0  0  0  0  0  0  0  0  # atno 10718 bound_to 10713
  154.6712  135.5285  153.8140 H   0  0  0  0  0  0  0  0  0  0  0  0  # atno 10763 bound_to 10752
  153.0502  135.6529  154.0722 H   0  0  0  0  0  0  0  0  0  0  0  0  # atno 10764 bound_to 10752
  154.0621  135.2961  155.3303 H   0  0  0  0  0  0  0  0  0  0  0  0  # atno 10765 bound_to 10752
  140.1206  134.8866  157.2067 H   0  0  0  0  0  0  0  0  0  0  0  0  # atno 11005 bound_to 11000
  146.1485  139.4562  143.0063 LP  0  0  0  0  0  0  0  0  0  0  0  0  # atno 17320 bound_to 7965
  145.6906  141.0165  143.1557 LP  0  0  0  0  0  0  0  0  0  0  0  0  # atno 17321 bound_to 7965
  140.3596  144.2989  150.5935 LP  0  0  0  0  0  0  0  0  0  0  0  0  # atno 17342 bound_to 10162
  140.5414  143.2223  151.8078 LP  0  0  0  0  0  0  0  0  0  0  0  0  # atno 17343 bound_to 10162
  157.7501  131.0128  150.3397 LP  0  0  0  0  0  0  0  0  0  0  0  0  # atno 17370 bound_to 10713
  156.3783  130.3876  149.7121 LP  0  0  0  0  0  0  0  0  0  0  0  0  # atno 17371 bound_to 10713
  140.2970  134.3175  155.7300 LP  0  0  0  0  0  0  0  0  0  0  0  0  # atno 17394 bound_to 11000
  141.2151  133.7569  156.9585 LP  0  0  0  0  0  0  0  0  0  0  0  0  # atno 17395 bound_to 11000

$$$$
