AV-unprocessed.smi:2178|AV-procd|sdf|8854|dock5
  -GOLD-   2272012 53D 1   1.00000     0.00000
 Structure written by MMmdl.
 47 49  0  0  0  0  0  0  0  0  2 V2000
  151.1140  143.6468  156.8146 C   0  0  0  0  0  0  0  0  0  0  0  0
  151.5622  143.7686  158.2594 C   0  0  0  0  0  0  0  0  0  0  0  0
  151.3854  144.9934  158.9356 C   0  0  0  0  0  0  0  0  0  0  0  0
  151.8121  145.1365  160.2687 C   0  0  0  0  0  0  0  0  0  0  0  0
  152.4232  144.0561  160.9313 C   0  0  0  0  0  0  0  0  0  0  0  0
  152.6023  142.8253  160.2667 C   0  0  0  0  0  0  0  0  0  0  0  0
  153.2694  141.6707  160.9904 C   0  0  0  0  0  0  0  0  0  0  0  0
  152.1584  142.6746  158.9321 C   0  0  0  0  0  0  0  0  0  0  0  0
  152.3350  141.4753  158.2909 O   0  0  0  0  0  0  0  0  0  0  0  0
  151.5755  140.4127  158.8483 C   0  0  0  0  0  0  0  0  0  0  0  0
  150.7934  139.7166  157.7242 C   0  0  2  0  0  0  0  0  0  0  0  0
  151.1663  138.3529  157.6935 O   0  0  0  0  0  0  0  0  0  0  0  0
  151.0759  140.3513  156.3480 C   0  0  0  0  0  0  0  0  0  0  0  0
  150.2721  139.7541  155.2689 N   0  0  0  0  0  0  0  0  0  0  0  0
  150.4556  138.5864  154.5876 C   0  0  0  0  0  0  0  0  0  0  0  0
  151.5562  137.5971  154.7860 C   0  0  0  0  0  0  0  0  0  0  0  0
  152.2002  137.2618  153.5769 O   0  0  0  0  0  0  0  0  0  0  0  0
  149.4370  138.4781  153.6891 N   0  3  0  0  0  0  0  0  0  0  0  0
  148.5961  139.5865  153.7921 C   0  0  0  0  0  0  0  0  0  0  0  0
  147.4415  139.9205  153.0912 C   0  0  0  0  0  0  0  0  0  0  0  0
  146.8173  141.1355  153.4420 C   0  0  0  0  0  0  0  0  0  0  0  0
  147.3423  141.9644  154.4546 C   0  0  0  0  0  0  0  0  0  0  0  0
  148.5126  141.6142  155.1596 C   0  0  0  0  0  0  0  0  0  0  0  0
  149.1251  140.4115  154.8063 C   0  0  0  0  0  0  0  0  0  0  0  0
  151.1308  144.6181  156.3196 H   0  0  0  0  0  0  0  0  0  0  0  0
  150.0969  143.2581  156.7662 H   0  0  0  0  0  0  0  0  0  0  0  0
  151.7674  142.9776  156.2540 H   0  0  0  0  0  0  0  0  0  0  0  0
  150.9249  145.8306  158.4316 H   0  0  0  0  0  0  0  0  0  0  0  0
  151.6765  146.0774  160.7811 H   0  0  0  0  0  0  0  0  0  0  0  0
  152.7550  144.1773  161.9521 H   0  0  0  0  0  0  0  0  0  0  0  0
  154.0327  141.2127  160.3607 H   0  0  0  0  0  0  0  0  0  0  0  0
  152.5331  140.9093  161.2477 H   0  0  0  0  0  0  0  0  0  0  0  0
  153.7498  142.0042  161.9106 H   0  0  0  0  0  0  0  0  0  0  0  0
  152.2672  139.7035  159.3055 H   0  0  0  0  0  0  0  0  0  0  0  0
  150.9078  140.7571  159.6394 H   0  0  0  0  0  0  0  0  0  0  0  0
  149.7248  139.7833  157.9320 H   0  0  0  0  0  0  0  0  0  0  0  0
  150.9105  137.9908  156.8592 H   0  0  0  0  0  0  0  0  0  0  0  0
  150.8326  141.4142  156.3733 H   0  0  0  0  0  0  0  0  0  0  0  0
  152.1338  140.2926  156.0909 H   0  0  0  0  0  0  0  0  0  0  0  0
  152.2920  138.0056  155.4790 H   0  0  0  0  0  0  0  0  0  0  0  0
  151.1558  136.6913  155.2413 H   0  0  0  0  0  0  0  0  0  0  0  0
  151.5456  136.9843  152.9540 H   0  0  0  0  0  0  0  0  0  0  0  0
  147.0381  139.2869  152.3148 H   0  0  0  0  0  0  0  0  0  0  0  0
  145.9186  141.4378  152.9240 H   0  0  0  0  0  0  0  0  0  0  0  0
  146.8374  142.8887  154.6954 H   0  0  0  0  0  0  0  0  0  0  0  0
  148.9059  142.2600  155.9301 H   0  0  0  0  0  0  0  0  0  0  0  0
  149.3269  137.6987  153.0534 H   0  0  0  0  0  0  0  0  0  0  0  0
  1  2  1  0  0  0  0
  1 25  1  0  0  0  0
  1 26  1  0  0  0  0
  1 27  1  0  0  0  0
  2  8  1  0  0  0  0
  2  3  2  0  0  0  0
  3  4  1  0  0  0  0
  3 28  1  0  0  0  0
  4  5  2  0  0  0  0
  4 29  1  0  0  0  0
  5  6  1  0  0  0  0
  5 30  1  0  0  0  0
  6  7  1  0  0  0  0
  6  8  2  0  0  0  0
  7 31  1  0  0  0  0
  7 32  1  0  0  0  0
  7 33  1  0  0  0  0
  8  9  1  0  0  0  0
  9 10  1  0  0  0  0
 10 11  1  0  0  0  0
 10 34  1  0  0  0  0
 10 35  1  0  0  0  0
 11 12  1  0  0  0  0
 11 13  1  0  0  0  0
 11 36  1  0  0  0  0
 12 37  1  0  0  0  0
 13 14  1  0  0  0  0
 13 38  1  0  0  0  0
 13 39  1  0  0  0  0
 14 24  1  0  0  0  0
 14 15  1  0  0  0  0
 15 16  1  0  0  0  0
 15 18  2  0  0  0  0
 16 17  1  0  0  0  0
 16 40  1  0  0  0  0
 16 41  1  0  0  0  0
 17 42  1  0  0  0  0
 18 19  1  0  0  0  0
 18 47  1  0  0  0  0
 19 24  2  0  0  0  0
 19 20  1  0  0  0  0
 20 21  2  0  0  0  0
 20 43  1  0  0  0  0
 21 22  1  0  0  0  0
 21 44  1  0  0  0  0
 22 23  2  0  0  0  0
 22 45  1  0  0  0  0
 23 24  1  0  0  0  0
 23 46  1  0  0  0  0
M  CHG  1  18   1
M  END
> <s_m_source_file>
AV-unprocessed.smi

> <i_m_source_file_index>
2178

> <i_lp_mmshare_version>
43012

> <i_f3d_flags>
0

> <s_epik_input>
W0NIM11jMVtjSF1bY0hdW2NIXWMoW0NIM10pYzFPW0NIMl1bQ0BIXShbT0hdKVtDSDJdbihjKG4yKVtDSDJdW09IXSljKGMyMylbY0hdW2NIXVtjSF1bY0hdMw==

> <s_epik_cmdline>
J2VwaWtfcHl0aG9uJywgJy1waCcsICc3LjAnLCAnLXRuJywgJzgnLCAnLW1hJywgJzIwMCcsICctbWV0YWxfYmluZGluZycsICctaW1hZScsICc8aW5maWxlLm1hZT4nLCAnLW9tYWUnLCAnPG91dGZpbGUubWFlPic=

> <r_lp_tautomer_probability>
1

> <r_epik_Ionization_Penalty>
1.43125

> <r_epik_Ionization_Penalty_Charging>
1.43039

> <r_epik_Ionization_Penalty_Neutral>
0.000858184

> <r_epik_State_Penalty>
1.51493

> <r_epik_Charging_Adjusted_Penalty>
2.94531

> <i_epik_Tot_Q>
1

> <i_epik_Tot_abs_Q>
1

> <r_epik_Metal_State_Penalty>
5.5599

> <b_epik_Metal_Only>
0

> <s_lp_Force_Field>
OPLS_2005

> <r_lp_Energy>
23.8242

> <b_lp_Chiralities_Consistent>
1

> <s_lp_Variant>
AV-unprocessed.smi:2178-3

> <Gold.Version>
5.8.1

> <Gold.Id.Protein>
6NUR|6NUR_protein|mol2

> <Gold.PLP.Fitness>
63.5020

> <Gold.PLP.PLP>
-54.4236

> <Gold.PLP.part.hbond>
-4.0000

> <Gold.PLP.part.metal>
0.0000

> <Gold.PLP.part.buried>
3.2434

> <Gold.PLP.part.nonpolar>
-53.2535

> <Gold.PLP.part.repulsive>
0.0657

> <Gold.PLP.ligand.clash>
0.0000

> <Gold.PLP.ligand.torsion>
1.4870

> <Gold.PLP.Chemscore.Hbond>
3.9680

> <Gold.PLP.Chemscore.CHOScore>
0.0000

> <Gold.PLP.Chemscore.Metal>
0.0000

> <Gold.Chemscore.Hbonds>
donor molecule, donor type, donor heavy atom, donor atom, acceptor molecule, acceptor atom, score
      L1  H    17    42       P1  7949  0.93
      L1  H    18    47       P1  7948  2.00
      P1  H 10752 10765       L1    17  0.99

> <Gold.PLP.Chemscore.Internal.Correction>
0.1483

> <Gold.Rescore>
     Score         DG    S(hbond)    S(metal)    S(lipo)     H(rot)  DE(clash)    DE(int)     intcor
     19.27     -23.43       2.25        0.00     155.95       3.05       1.57       2.58       ----

> <Gold.Chemscore.Fitness>
19.2744

> <Gold.Chemscore.DG>
-23.4290

> <Gold.Chemscore.ZeroCoef>
-5.4800

> <Gold.Chemscore.Hbond>
2.2469

> <Gold.Chemscore.Metal>
0.0000

> <Gold.Chemscore.Lipo>
155.9512

> <Gold.Chemscore.Internal_Hbond>
0.0000

> <Gold.Chemscore.DEClash>
1.5700

> <Gold.Chemscore.DEInternal>
2.5846

> <Gold.Chemscore.Rot>
3.0476

> <Gold.Chemscore.Internal.Correction>
   9.000000E+99

> <Gold.Chemscore.Hbonds>
donor molecule, donor type, donor heavy atom, donor atom, acceptor molecule, acceptor atom, score
      L1  H    17    42       P1  7949  0.86
      L1  H    18    47       P1  7948  0.96
      P1  H 10752 10765       L1    17  0.24

> <Gold.Chemscore.Hbond.Weighted>
-7.5045

> <Gold.Chemscore.Metal.Weighted>
-0.0000

> <Gold.Chemscore.Lipo.Weighted>
-18.2463

> <Gold.Chemscore.Internal_Hbond.Weighted>
0.0000

> <Gold.Chemscore.DEClash.Weighted>
1.5700

> <Gold.Chemscore.DEInternal.Weighted>
2.5846

> <Gold.Chemscore.Rot.Weighted>
7.8018

> <Gold.Chemscore.Internal.Correction.Weighted>
   9.000000E+99

> <Gold.Protein.RotatedTorsions>
[ 6907 6896 6895 6894 ] final  -89.30 input  -60.11 | X-H torsion
[ 7974 7965 7964 7962 ] final  -82.96 input  175.53 | X-H torsion
[ 8008 7997 7996 7995 ] final  149.19 input   59.86 | X-H torsion
[ 10167 10162 10161 10158 ] final  158.80 input  -65.29 | X-H torsion
[ 10718 10713 10712 10709 ] final  -14.25 input   66.30 | X-H torsion
[ 10763 10752 10751 10750 ] final  129.69 input  -60.55 | X-H torsion
[ 11005 11000 10999 10996 ] final -155.61 input  -57.11 | X-H torsion

> <Gold.Protein.ActiveResidues>
 VAL166  LYS551  ARG553  GLY616  TRP617  ASP618  TYR619  PRO620  LYS621  CYS622 
 ASP623  PHE694  ASN695  SER759  ASP760  ASP761  ALA762  ILE779  LEU786  VAL792 
 PHE793  MET794  SER795  GLU796  ALA797  LYS798  CYS799  TRP800  GLU811  SER814 

> <Gold.Protein.RotatedAtoms>
  150.6873  134.2609  159.4548 H   0  0  0  0  0  0  0  0  0  0  0  0  # atno 6907 bound_to 6896
  152.0539  134.9634  160.0584 H   0  0  0  0  0  0  0  0  0  0  0  0  # atno 6908 bound_to 6896
  152.1087  133.4254  159.4658 H   0  0  0  0  0  0  0  0  0  0  0  0  # atno 6909 bound_to 6896
  145.5263  140.9526  143.1627 H   0  0  0  0  0  0  0  0  0  0  0  0  # atno 7974 bound_to 7965
  156.2764  140.2108  156.5818 H   0  0  0  0  0  0  0  0  0  0  0  0  # atno 8008 bound_to 7997
  154.7053  140.0517  157.0521 H   0  0  0  0  0  0  0  0  0  0  0  0  # atno 8009 bound_to 7997
  155.0679  140.3173  155.4642 H   0  0  0  0  0  0  0  0  0  0  0  0  # atno 8010 bound_to 7997
  139.4828  144.4790  151.8470 H   0  0  0  0  0  0  0  0  0  0  0  0  # atno 10167 bound_to 10162
  156.6187  130.4869  149.6173 H   0  0  0  0  0  0  0  0  0  0  0  0  # atno 10718 bound_to 10713
  153.7458  135.3217  155.3312 H   0  0  0  0  0  0  0  0  0  0  0  0  # atno 10763 bound_to 10752
  154.8280  135.4555  154.0981 H   0  0  0  0  0  0  0  0  0  0  0  0  # atno 10764 bound_to 10752
  153.2169  135.6943  153.8128 H   0  0  0  0  0  0  0  0  0  0  0  0  # atno 10765 bound_to 10752
  140.6846  134.4107  157.5224 H   0  0  0  0  0  0  0  0  0  0  0  0  # atno 11005 bound_to 11000
  144.7649  139.6869  143.7219 LP  0  0  0  0  0  0  0  0  0  0  0  0  # atno 17320 bound_to 7965
  146.2073  139.5406  142.9704 LP  0  0  0  0  0  0  0  0  0  0  0  0  # atno 17321 bound_to 7965
  140.4265  144.2174  150.5887 LP  0  0  0  0  0  0  0  0  0  0  0  0  # atno 17342 bound_to 10162
  140.4822  143.2375  151.8939 LP  0  0  0  0  0  0  0  0  0  0  0  0  # atno 17343 bound_to 10162
  156.2330  130.6806  151.1482 LP  0  0  0  0  0  0  0  0  0  0  0  0  # atno 17370 bound_to 10713
  157.7234  131.0666  150.6039 LP  0  0  0  0  0  0  0  0  0  0  0  0  # atno 17371 bound_to 10713
  139.8941  134.8714  156.2191 LP  0  0  0  0  0  0  0  0  0  0  0  0  # atno 17394 bound_to 11000
  141.0290  133.6999  156.1397 LP  0  0  0  0  0  0  0  0  0  0  0  0  # atno 17395 bound_to 11000

$$$$
