AV-unprocessed.smi:890|AV-procd|sdf|4060|dock6
  -GOLD-   22720 1553D 1   1.00000     0.00000
 Structure written by MMmdl.
 53 56  0  0  0  0  0  0  0  0  3 V2000
  150.6297  134.0587  155.7115 O   0  0  0  0  0  0  0  0  0  0  0  0
  150.0107  134.6192  154.8089 C   0  0  0  0  0  0  0  0  0  0  0  0
  149.1875  134.0211  153.9301 N   0  0  0  0  0  0  0  0  0  0  0  0
  148.7980  132.6520  153.8192 C   0  0  0  0  0  0  0  0  0  0  0  0
  149.5196  131.5739  154.3974 C   0  0  0  0  0  0  0  0  0  0  0  0
  149.0539  130.2535  154.2389 C   0  0  0  0  0  0  0  0  0  0  0  0
  147.8742  130.0246  153.5088 C   0  0  0  0  0  0  0  0  0  0  0  0
  147.2077  131.0680  152.9742 N   0  3  0  0  0  0  0  0  0  0  0  0
  147.6118  132.3563  153.0971 C   0  0  0  0  0  0  0  0  0  0  0  0
  146.8401  133.3672  152.4977 N   0  0  0  0  0  0  0  0  0  0  0  0
  145.4658  133.4668  152.9600 C   0  0  0  0  0  0  0  0  0  0  0  0
  144.7588  134.3517  151.9318 C   0  0  0  0  0  0  0  0  0  0  0  0
  145.5921  134.2069  150.6526 C   0  0  0  0  0  0  0  0  0  0  0  0
  146.7741  133.3151  151.0464 C   0  0  0  0  0  0  0  0  0  0  0  0
  150.0842  135.9381  154.5781 N   0  0  0  0  0  0  0  0  0  0  0  0
  150.8616  136.8875  155.3703 C   0  0  2  0  0  0  0  0  0  0  0  0
  150.2271  137.0499  156.7615 C   0  0  0  0  0  0  0  0  0  0  0  0
  150.9794  138.1025  157.5933 C   0  0  0  0  0  0  0  0  0  0  0  0
  151.0248  139.4068  156.8869 N   0  3  1  0  0  0  0  0  0  0  0  0
  151.6438  140.4658  157.7135 C   0  0  0  0  0  0  0  0  0  0  0  0
  150.7412  140.9855  158.8084 C   0  0  0  0  0  0  0  0  0  0  0  0
  150.9823  141.8166  157.5680 C   0  0  0  0  0  0  0  0  0  0  0  0
  151.6685  139.2880  155.5547 C   0  0  0  0  0  0  0  0  0  0  0  0
  150.9366  138.2602  154.6750 C   0  0  0  0  0  0  0  0  0  0  0  0
  148.7769  134.6323  153.2394 H   0  0  0  0  0  0  0  0  0  0  0  0
  150.4226  131.7184  154.9669 H   0  0  0  0  0  0  0  0  0  0  0  0
  149.5965  129.4272  154.6749 H   0  0  0  0  0  0  0  0  0  0  0  0
  147.4455  129.0475  153.3389 H   0  0  0  0  0  0  0  0  0  0  0  0
  144.9971  132.4823  152.9911 H   0  0  0  0  0  0  0  0  0  0  0  0
  145.4160  133.8967  153.9609 H   0  0  0  0  0  0  0  0  0  0  0  0
  143.7189  134.0565  151.7899 H   0  0  0  0  0  0  0  0  0  0  0  0
  144.7665  135.3914  152.2616 H   0  0  0  0  0  0  0  0  0  0  0  0
  145.0189  133.7661  149.8364 H   0  0  0  0  0  0  0  0  0  0  0  0
  145.9418  135.1855  150.3215 H   0  0  0  0  0  0  0  0  0  0  0  0
  147.7051  133.6652  150.5999 H   0  0  0  0  0  0  0  0  0  0  0  0
  146.6019  132.2927  150.7069 H   0  0  0  0  0  0  0  0  0  0  0  0
  149.5480  136.3177  153.8113 H   0  0  0  0  0  0  0  0  0  0  0  0
  151.8735  136.4980  155.5002 H   0  0  0  0  0  0  0  0  0  0  0  0
  149.1819  137.3474  156.6619 H   0  0  0  0  0  0  0  0  0  0  0  0
  150.2282  136.0948  157.2882 H   0  0  0  0  0  0  0  0  0  0  0  0
  150.4851  138.2249  158.5578 H   0  0  0  0  0  0  0  0  0  0  0  0
  151.9961  137.7633  157.7991 H   0  0  0  0  0  0  0  0  0  0  0  0
  152.7178  140.3902  157.8735 H   0  0  0  0  0  0  0  0  0  0  0  0
  149.7575  140.5340  158.9256 H   0  0  0  0  0  0  0  0  0  0  0  0
  151.2122  141.3189  159.7310 H   0  0  0  0  0  0  0  0  0  0  0  0
  151.6113  142.6981  157.6740 H   0  0  0  0  0  0  0  0  0  0  0  0
  150.1592  141.9152  156.8626 H   0  0  0  0  0  0  0  0  0  0  0  0
  151.6644  140.2593  155.0589 H   0  0  0  0  0  0  0  0  0  0  0  0
  152.7140  138.9999  155.6778 H   0  0  0  0  0  0  0  0  0  0  0  0
  151.4480  138.1719  153.7156 H   0  0  0  0  0  0  0  0  0  0  0  0
  149.9307  138.6222  154.4563 H   0  0  0  0  0  0  0  0  0  0  0  0
  150.0680  139.6873  156.7264 H   0  0  0  0  0  0  0  0  0  0  0  0
  146.3537  130.8764  152.4499 H   0  0  0  0  0  0  0  0  0  0  0  0
  1  2  2  0  0  0  0
  2  3  1  0  0  0  0
  2 15  1  0  0  0  0
  3  4  1  0  0  0  0
  3 25  1  0  0  0  0
  4  9  1  0  0  0  0
  4  5  2  0  0  0  0
  5  6  1  0  0  0  0
  5 26  1  0  0  0  0
  6  7  2  0  0  0  0
  6 27  1  0  0  0  0
  7  8  1  0  0  0  0
  7 28  1  0  0  0  0
  8  9  2  0  0  0  0
  8 53  1  0  0  0  0
  9 10  1  0  0  0  0
 10 14  1  0  0  0  0
 10 11  1  0  0  0  0
 11 12  1  0  0  0  0
 11 29  1  0  0  0  0
 11 30  1  0  0  0  0
 12 13  1  0  0  0  0
 12 31  1  0  0  0  0
 12 32  1  0  0  0  0
 13 14  1  0  0  0  0
 13 33  1  0  0  0  0
 13 34  1  0  0  0  0
 14 35  1  0  0  0  0
 14 36  1  0  0  0  0
 15 16  1  0  0  0  0
 15 37  1  0  0  0  0
 16 24  1  0  0  0  0
 16 17  1  0  0  0  0
 16 38  1  0  0  0  0
 17 18  1  0  0  0  0
 17 39  1  0  0  0  0
 17 40  1  0  0  0  0
 18 19  1  0  0  0  0
 18 41  1  0  0  0  0
 18 42  1  0  0  0  0
 19 20  1  0  0  0  0
 19 23  1  0  0  0  0
 19 52  1  0  0  0  0
 20 22  1  0  0  0  0
 20 21  1  0  0  0  0
 20 43  1  0  0  0  0
 21 22  1  0  0  0  0
 21 44  1  0  0  0  0
 21 45  1  0  0  0  0
 22 46  1  0  0  0  0
 22 47  1  0  0  0  0
 23 24  1  0  0  0  0
 23 48  1  0  0  0  0
 23 49  1  0  0  0  0
 24 50  1  0  0  0  0
 24 51  1  0  0  0  0
M  CHG  1   8   1
M  CHG  1  19   1
M  END
> <s_m_source_file>
AV-unprocessed.smi

> <i_m_source_file_index>
890

> <i_lp_mmshare_version>
43012

> <i_f3d_flags>
0

> <s_epik_input>
W0NIMl0xW0NIMl1bQ0hdMU4oW0NIMl1bQ0gyXTIpW0NIMl1bQ0gyXVtDSF0yW05IXUMoPU8pW05IXWMzW2NIXVtjSF1bY0hdbmMzTjRbQ0gyXVtDSDJdW0NIMl1bQ0gyXTQ=

> <s_epik_cmdline>
J2VwaWtfcHl0aG9uJywgJy1waCcsICc3LjAnLCAnLXRuJywgJzgnLCAnLW1hJywgJzIwMCcsICctbWV0YWxfYmluZGluZycsICctaW1hZScsICc8aW5maWxlLm1hZT4nLCAnLW9tYWUnLCAnPG91dGZpbGUubWFlPic=

> <r_lp_tautomer_probability>
0.999994

> <r_epik_Ionization_Penalty>
1.36901

> <r_epik_Ionization_Penalty_Charging>
1.36899

> <r_epik_Ionization_Penalty_Neutral>
1.88098e-05

> <r_epik_State_Penalty>
1.38441

> <r_epik_Charging_Adjusted_Penalty>
2.7534

> <i_epik_Tot_Q>
2

> <i_epik_Tot_abs_Q>
2

> <r_epik_Metal_State_Penalty>
1.45718

> <b_epik_Metal_Only>
0

> <s_lp_Force_Field>
OPLS_2005

> <r_lp_Energy>
65.7128

> <b_lp_Chiralities_Consistent>
1

> <s_lp_Variant>
AV-unprocessed.smi:890-4

> <Gold.Version>
5.8.1

> <Gold.Id.Protein>
6NUR|6NUR_protein|mol2

> <Gold.PLP.Fitness>
43.3919

> <Gold.PLP.PLP>
-38.1289

> <Gold.PLP.part.hbond>
-2.9540

> <Gold.PLP.part.metal>
0.0000

> <Gold.PLP.part.buried>
-3.5037

> <Gold.PLP.part.nonpolar>
-32.0096

> <Gold.PLP.part.repulsive>
0.3104

> <Gold.PLP.ligand.clash>
0.0000

> <Gold.PLP.ligand.torsion>
0.8442

> <Gold.PLP.Chemscore.Hbond>
1.8880

> <Gold.PLP.Chemscore.CHOScore>
0.0000

> <Gold.PLP.Chemscore.Metal>
0.0000

> <Gold.Chemscore.Hbonds>
donor molecule, donor type, donor heavy atom, donor atom, acceptor molecule, acceptor atom, score
      L1  H     3    25       P1  7948  0.84
      L1  H    15    37       P1  7948  0.98

> <Gold.PLP.Chemscore.Internal.Correction>
1.2874

> <Gold.Rescore>
     Score         DG    S(hbond)    S(metal)    S(lipo)     H(rot)  DE(clash)    DE(int)     intcor
     14.27     -16.20       1.20        0.00      86.73       1.35       0.05       1.88       ----

> <Gold.Chemscore.Fitness>
14.2660

> <Gold.Chemscore.DG>
-16.1977

> <Gold.Chemscore.ZeroCoef>
-5.4800

> <Gold.Chemscore.Hbond>
1.2045

> <Gold.Chemscore.Metal>
0.0000

> <Gold.Chemscore.Lipo>
86.7349

> <Gold.Chemscore.Internal_Hbond>
0.0000

> <Gold.Chemscore.DEClash>
0.0473

> <Gold.Chemscore.DEInternal>
1.8844

> <Gold.Chemscore.Rot>
1.3489

> <Gold.Chemscore.Internal.Correction>
   9.000000E+99

> <Gold.Chemscore.Hbonds>
donor molecule, donor type, donor heavy atom, donor atom, acceptor molecule, acceptor atom, score
      L1  H     3    25       P1  7948  0.17
      L1  H    15    37       P1  7948  0.58

> <Gold.Chemscore.Hbond.Weighted>
-4.0230

> <Gold.Chemscore.Metal.Weighted>
-0.0000

> <Gold.Chemscore.Lipo.Weighted>
-10.1480

> <Gold.Chemscore.Internal_Hbond.Weighted>
0.0000

> <Gold.Chemscore.DEClash.Weighted>
0.0473

> <Gold.Chemscore.DEInternal.Weighted>
1.8844

> <Gold.Chemscore.Rot.Weighted>
3.4532

> <Gold.Chemscore.Internal.Correction.Weighted>
   9.000000E+99

> <Gold.Protein.RotatedTorsions>
[ 6907 6896 6895 6894 ] final  -73.98 input  -60.11 | X-H torsion
[ 7974 7965 7964 7962 ] final  116.48 input  175.53 | X-H torsion
[ 8008 7997 7996 7995 ] final  109.41 input   59.86 | X-H torsion
[ 10167 10162 10161 10158 ] final   42.98 input  -65.29 | X-H torsion
[ 10718 10713 10712 10709 ] final  117.10 input   66.30 | X-H torsion
[ 10763 10752 10751 10750 ] final  146.68 input  -60.55 | X-H torsion
[ 11005 11000 10999 10996 ] final -155.01 input  -57.11 | X-H torsion

> <Gold.Protein.ActiveResidues>
 VAL166  LYS551  ARG553  GLY616  TRP617  ASP618  TYR619  PRO620  LYS621  CYS622 
 ASP623  PHE694  ASN695  SER759  ASP760  ASP761  ALA762  ILE779  LEU786  VAL792 
 PHE793  MET794  SER795  GLU796  ALA797  LYS798  CYS799  TRP800  GLU811  SER814 

> <Gold.Protein.RotatedAtoms>
  150.7110  134.4936  159.5527 H   0  0  0  0  0  0  0  0  0  0  0  0  # atno 6907 bound_to 6896
  152.2548  134.8092  160.0449 H   0  0  0  0  0  0  0  0  0  0  0  0  # atno 6908 bound_to 6896
  151.8826  133.3463  159.3808 H   0  0  0  0  0  0  0  0  0  0  0  0  # atno 6909 bound_to 6896
  145.1792  139.3059  143.4427 H   0  0  0  0  0  0  0  0  0  0  0  0  # atno 7974 bound_to 7965
  156.1977  140.3058  155.9461 H   0  0  0  0  0  0  0  0  0  0  0  0  # atno 8008 bound_to 7997
  155.3027  140.0447  157.3047 H   0  0  0  0  0  0  0  0  0  0  0  0  # atno 8009 bound_to 7997
  154.5531  140.2297  155.8463 H   0  0  0  0  0  0  0  0  0  0  0  0  # atno 8010 bound_to 7997
  140.3490  144.2374  150.6147 H   0  0  0  0  0  0  0  0  0  0  0  0  # atno 10167 bound_to 10162
  157.6118  131.1033  150.7567 H   0  0  0  0  0  0  0  0  0  0  0  0  # atno 10718 bound_to 10713
  154.0259  135.2902  155.3375 H   0  0  0  0  0  0  0  0  0  0  0  0  # atno 10763 bound_to 10752
  154.7018  135.5185  153.8541 H   0  0  0  0  0  0  0  0  0  0  0  0  # atno 10764 bound_to 10752
  153.0661  135.6631  154.0476 H   0  0  0  0  0  0  0  0  0  0  0  0  # atno 10765 bound_to 10752
  140.6911  134.4040  157.5219 H   0  0  0  0  0  0  0  0  0  0  0  0  # atno 11005 bound_to 11000
  146.3456  140.1965  142.8589 LP  0  0  0  0  0  0  0  0  0  0  0  0  # atno 17320 bound_to 7965
  145.0154  140.8749  143.5199 LP  0  0  0  0  0  0  0  0  0  0  0  0  # atno 17321 bound_to 7965
  140.5237  143.2259  151.8348 LP  0  0  0  0  0  0  0  0  0  0  0  0  # atno 17342 bound_to 10162
  139.4829  144.4805  151.9312 LP  0  0  0  0  0  0  0  0  0  0  0  0  # atno 17343 bound_to 10162
  156.7943  130.4900  149.5380 LP  0  0  0  0  0  0  0  0  0  0  0  0  # atno 17370 bound_to 10713
  156.1224  130.6119  151.0213 LP  0  0  0  0  0  0  0  0  0  0  0  0  # atno 17371 bound_to 10713
  139.8923  134.8758  156.2277 LP  0  0  0  0  0  0  0  0  0  0  0  0  # atno 17394 bound_to 11000
  141.0240  133.7025  156.1317 LP  0  0  0  0  0  0  0  0  0  0  0  0  # atno 17395 bound_to 11000

$$$$
