AV-unprocessed.smi:719|AV-procd|sdf|3493|dock4
  -GOLD-   22720 0483D 1   1.00000     0.00000
 Structure written by MMmdl.
 41 43  0  0  0  0  0  0  0  0  1 V2000
  154.1645  139.8034  160.4861 C   0  0  0  0  0  0  0  0  0  0  0  0
  153.8905  140.7520  161.6583 C   0  0  0  0  0  0  0  0  0  0  0  0
  153.0861  141.9488  161.2447 C   0  0  0  0  0  0  0  0  0  0  0  0
  152.6265  142.0427  159.9279 N   0  0  0  0  0  0  0  0  0  0  0  0
  151.9296  143.1587  159.7029 C   0  0  0  0  0  0  0  0  0  0  0  0
  151.2698  143.4741  158.3994 C   0  0  0  0  0  0  0  0  0  0  0  0
  149.8656  142.8600  158.2429 C   0  0  0  0  0  0  0  0  0  0  0  0
  149.6610  142.2501  156.9310 N   0  0  0  0  0  0  0  0  0  0  0  0
  148.5134  141.7090  156.4924 C   0  0  0  0  0  0  0  0  0  0  0  0
  147.4880  141.6478  157.1709 O   0  0  0  0  0  0  0  0  0  0  0  0
  148.6039  141.1176  155.1261 C   0  0  2  0  0  0  0  0  0  0  0  0
  147.8581  141.7561  153.9650 C   0  0  2  0  0  0  0  0  0  0  0  0
  146.7398  142.7721  154.0878 C   0  0  0  0  0  0  0  0  0  0  0  0
  145.6652  142.1410  154.9883 C   0  0  0  0  0  0  0  0  0  0  0  0
  145.9445  140.6288  154.9874 C   0  0  0  0  0  0  0  0  0  0  0  0
  147.3771  140.4473  154.5235 C   0  0  2  0  0  0  0  0  0  0  0  0
  151.7891  144.1830  161.1239 S   0  0  0  0  0  0  0  0  0  0  0  0
  152.7292  143.0229  162.0264 C   0  0  0  0  0  0  0  0  0  0  0  0
  153.0502  143.2546  163.4654 C   0  0  0  0  0  0  0  0  0  0  0  0
  154.7513  138.9438  160.8100 H   0  0  0  0  0  0  0  0  0  0  0  0
  154.7206  140.3076  159.6952 H   0  0  0  0  0  0  0  0  0  0  0  0
  153.2351  139.4289  160.0558 H   0  0  0  0  0  0  0  0  0  0  0  0
  153.3682  140.2072  162.4458 H   0  0  0  0  0  0  0  0  0  0  0  0
  154.8386  141.0656  162.0960 H   0  0  0  0  0  0  0  0  0  0  0  0
  151.2084  144.5578  158.2985 H   0  0  0  0  0  0  0  0  0  0  0  0
  151.9147  143.1283  157.5903 H   0  0  0  0  0  0  0  0  0  0  0  0
  149.6875  142.1322  159.0364 H   0  0  0  0  0  0  0  0  0  0  0  0
  149.1133  143.6378  158.3735 H   0  0  0  0  0  0  0  0  0  0  0  0
  150.4566  142.2326  156.3093 H   0  0  0  0  0  0  0  0  0  0  0  0
  149.5509  140.6284  154.9071 H   0  0  0  0  0  0  0  0  0  0  0  0
  148.3839  141.7596  153.0122 H   0  0  0  0  0  0  0  0  0  0  0  0
  147.1121  143.7174  154.4832 H   0  0  0  0  0  0  0  0  0  0  0  0
  146.3319  142.9611  153.0945 H   0  0  0  0  0  0  0  0  0  0  0  0
  145.7630  142.5305  156.0021 H   0  0  0  0  0  0  0  0  0  0  0  0
  144.6549  142.3740  154.6512 H   0  0  0  0  0  0  0  0  0  0  0  0
  145.7888  140.1750  155.9664 H   0  0  0  0  0  0  0  0  0  0  0  0
  145.2854  140.1277  154.2779 H   0  0  0  0  0  0  0  0  0  0  0  0
  147.5668  139.5360  153.9596 H   0  0  0  0  0  0  0  0  0  0  0  0
  154.1173  143.1293  163.6496 H   0  0  0  0  0  0  0  0  0  0  0  0
  152.5124  142.5483  164.0977 H   0  0  0  0  0  0  0  0  0  0  0  0
  152.7724  144.2623  163.7752 H   0  0  0  0  0  0  0  0  0  0  0  0
  1  2  1  0  0  0  0
  1 20  1  0  0  0  0
  1 21  1  0  0  0  0
  1 22  1  0  0  0  0
  2  3  1  0  0  0  0
  2 23  1  0  0  0  0
  2 24  1  0  0  0  0
  3 18  2  0  0  0  0
  3  4  1  0  0  0  0
  4  5  2  0  0  0  0
  5  6  1  0  0  0  0
  5 17  1  0  0  0  0
  6  7  1  0  0  0  0
  6 25  1  0  0  0  0
  6 26  1  0  0  0  0
  7  8  1  0  0  0  0
  7 27  1  0  0  0  0
  7 28  1  0  0  0  0
  8  9  1  0  0  0  0
  8 29  1  0  0  0  0
  9 10  2  0  0  0  0
  9 11  1  0  0  0  0
 11 16  1  0  0  0  0
 11 12  1  0  0  0  0
 11 30  1  0  0  0  0
 12 16  1  0  0  0  0
 12 13  1  0  0  0  0
 12 31  1  0  0  0  0
 13 14  1  0  0  0  0
 13 32  1  0  0  0  0
 13 33  1  0  0  0  0
 14 15  1  0  0  0  0
 14 34  1  0  0  0  0
 14 35  1  0  0  0  0
 15 16  1  0  0  0  0
 15 36  1  0  0  0  0
 15 37  1  0  0  0  0
 16 38  1  0  0  0  0
 17 18  1  0  0  0  0
 18 19  1  0  0  0  0
 19 39  1  0  0  0  0
 19 40  1  0  0  0  0
 19 41  1  0  0  0  0
M  END
> <s_m_source_file>
AV-unprocessed.smi

> <i_m_source_file_index>
719

> <i_lp_mmshare_version>
43012

> <i_f3d_flags>
0

> <s_epik_input>
W0NIM11bQ0gyXWMxbmMoc2MxW0NIM10pW0NIMl1bQ0gyXVtOSF1DKD1PKVtDQEhdMltDQEhdKFtDQEBIXTIzKVtDSDJdW0NIMl1bQ0gyXTM=

> <s_epik_cmdline>
J2VwaWtfcHl0aG9uJywgJy1waCcsICc3LjAnLCAnLXRuJywgJzgnLCAnLW1hJywgJzIwMCcsICctbWV0YWxfYmluZGluZycsICctaW1hZScsICc8aW5maWxlLm1hZT4nLCAnLW9tYWUnLCAnPG91dGZpbGUubWFlPic=

> <r_epik_Ionization_Penalty>
0.00247473

> <r_epik_Ionization_Penalty_Charging>
0

> <r_epik_Ionization_Penalty_Neutral>
0.00247473

> <r_epik_State_Penalty>
0.00171502

> <r_epik_Charging_Adjusted_Penalty>
0.00171502

> <i_epik_Tot_Q>
0

> <i_epik_Tot_abs_Q>
0

> <r_epik_Metal_State_Penalty>
-0

> <b_epik_Metal_Only>
0

> <s_lp_Force_Field>
OPLS_2005

> <r_lp_Energy>
22.4904

> <b_lp_Chiralities_Consistent>
1

> <s_lp_Variant>
AV-unprocessed.smi:719-1

> <Gold.Version>
5.8.1

> <Gold.Id.Protein>
6NUR|6NUR_protein|mol2

> <Gold.PLP.Fitness>
42.0786

> <Gold.PLP.PLP>
-43.5386

> <Gold.PLP.part.hbond>
-1.0000

> <Gold.PLP.part.metal>
0.0000

> <Gold.PLP.part.buried>
-5.3062

> <Gold.PLP.part.nonpolar>
-36.9815

> <Gold.PLP.part.repulsive>
0.1072

> <Gold.PLP.ligand.clash>
0.0000

> <Gold.PLP.ligand.torsion>
0.7904

> <Gold.PLP.Chemscore.Hbond>
0.0000

> <Gold.PLP.Chemscore.CHOScore>
0.0000

> <Gold.PLP.Chemscore.Metal>
0.0000

> <Gold.PLP.Chemscore.Internal.Correction>
0.1208

> <Gold.Rescore>
     Score         DG    S(hbond)    S(metal)    S(lipo)     H(rot)  DE(clash)    DE(int)     intcor
     12.94     -16.31       0.00        0.00     123.64       1.42       0.04       3.33       ----

> <Gold.Chemscore.Fitness>
12.9352

> <Gold.Chemscore.DG>
-16.3078

> <Gold.Chemscore.ZeroCoef>
-5.4800

> <Gold.Chemscore.Hbond>
0.0000

> <Gold.Chemscore.Metal>
0.0000

> <Gold.Chemscore.Lipo>
123.6354

> <Gold.Chemscore.Internal_Hbond>
0.0000

> <Gold.Chemscore.DEClash>
0.0394

> <Gold.Chemscore.DEInternal>
3.3332

> <Gold.Chemscore.Rot>
1.4209

> <Gold.Chemscore.Internal.Correction>
   9.000000E+99

> <Gold.Chemscore.Hbond.Weighted>
-0.0000

> <Gold.Chemscore.Metal.Weighted>
-0.0000

> <Gold.Chemscore.Lipo.Weighted>
-14.4653

> <Gold.Chemscore.Internal_Hbond.Weighted>
0.0000

> <Gold.Chemscore.DEClash.Weighted>
0.0394

> <Gold.Chemscore.DEInternal.Weighted>
3.3332

> <Gold.Chemscore.Rot.Weighted>
3.6376

> <Gold.Chemscore.Internal.Correction.Weighted>
   9.000000E+99

> <Gold.Protein.RotatedTorsions>
[ 6907 6896 6895 6894 ] final   65.73 input  -60.11 | X-H torsion
[ 7974 7965 7964 7962 ] final  -63.92 input  175.53 | X-H torsion
[ 8008 7997 7996 7995 ] final -154.72 input   59.86 | X-H torsion
[ 10167 10162 10161 10158 ] final  108.69 input  -65.29 | X-H torsion
[ 10718 10713 10712 10709 ] final  -80.23 input   66.30 | X-H torsion
[ 10763 10752 10751 10750 ] final -136.42 input  -60.55 | X-H torsion
[ 11005 11000 10999 10996 ] final -128.33 input  -57.11 | X-H torsion

> <Gold.Protein.ActiveResidues>
 VAL166  LYS551  ARG553  GLY616  TRP617  ASP618  TYR619  PRO620  LYS621  CYS622 
 ASP623  PHE694  ASN695  SER759  ASP760  ASP761  ALA762  ILE779  LEU786  VAL792 
 PHE793  MET794  SER795  GLU796  ALA797  LYS798  CYS799  TRP800  GLU811  SER814 

> <Gold.Protein.RotatedAtoms>
  152.4429  134.5553  159.9878 H   0  0  0  0  0  0  0  0  0  0  0  0  # atno 6907 bound_to 6896
  151.5646  133.3392  159.2985 H   0  0  0  0  0  0  0  0  0  0  0  0  # atno 6908 bound_to 6896
  150.8339  134.7638  159.6940 H   0  0  0  0  0  0  0  0  0  0  0  0  # atno 6909 bound_to 6896
  145.7731  140.8802  143.0370 H   0  0  0  0  0  0  0  0  0  0  0  0  # atno 7974 bound_to 7965
  155.6907  140.0755  157.2449 H   0  0  0  0  0  0  0  0  0  0  0  0  # atno 8008 bound_to 7997
  154.4089  140.1665  156.2136 H   0  0  0  0  0  0  0  0  0  0  0  0  # atno 8009 bound_to 7997
  155.9454  140.3381  155.6365 H   0  0  0  0  0  0  0  0  0  0  0  0  # atno 8010 bound_to 7997
  139.6826  144.7116  151.1488 H   0  0  0  0  0  0  0  0  0  0  0  0  # atno 10167 bound_to 10162
  156.0075  130.4568  150.3768 H   0  0  0  0  0  0  0  0  0  0  0  0  # atno 10718 bound_to 10713
  154.8684  135.3673  154.5058 H   0  0  0  0  0  0  0  0  0  0  0  0  # atno 10763 bound_to 10752
  153.5696  135.7021  153.5515 H   0  0  0  0  0  0  0  0  0  0  0  0  # atno 10764 bound_to 10752
  153.3554  135.4061  155.1641 H   0  0  0  0  0  0  0  0  0  0  0  0  # atno 10765 bound_to 10752
  140.9525  134.1046  157.4048 H   0  0  0  0  0  0  0  0  0  0  0  0  # atno 11005 bound_to 11000
  144.6809  139.9883  143.7484 LP  0  0  0  0  0  0  0  0  0  0  0  0  # atno 17320 bound_to 7965
  146.0150  139.3202  143.0847 LP  0  0  0  0  0  0  0  0  0  0  0  0  # atno 17321 bound_to 7965
  140.7657  143.5676  150.9030 LP  0  0  0  0  0  0  0  0  0  0  0  0  # atno 17342 bound_to 10162
  139.9349  143.6450  152.3067 LP  0  0  0  0  0  0  0  0  0  0  0  0  # atno 17343 bound_to 10162
  157.1850  131.0401  151.2729 LP  0  0  0  0  0  0  0  0  0  0  0  0  # atno 17370 bound_to 10713
  157.4112  130.7386  149.6840 LP  0  0  0  0  0  0  0  0  0  0  0  0  # atno 17371 bound_to 10713
  139.8852  135.0070  156.6418 LP  0  0  0  0  0  0  0  0  0  0  0  0  # atno 17394 bound_to 11000
  140.7582  133.8840  155.8398 LP  0  0  0  0  0  0  0  0  0  0  0  0  # atno 17395 bound_to 11000

$$$$
