AV-unprocessed.smi:3345|AV-procd|sdf|12902|dock6
  -GOLD-   2272019313D 1   1.00000     0.00000
 Structure written by MMmdl.
 40 41  0  0  0  0  0  0  0  0  1 V2000
  149.4510  138.6678  158.2953 C   0  0  0  0  0  0  0  0  0  0  0  0
  150.1135  139.8908  157.6480 C   0  0  1  0  0  0  0  0  0  0  0  0
  149.0698  140.8345  157.0119 C   0  0  0  0  0  0  0  0  0  0  0  0
  148.7994  140.6057  155.5905 N   0  0  0  0  0  0  0  0  0  0  0  0
  148.2574  139.2757  155.3235 C   0  0  0  0  0  0  0  0  0  0  0  0
  147.9841  139.0621  153.8248 C   0  0  0  0  0  0  0  0  0  0  0  0
  147.1037  140.0753  153.3498 O   0  0  0  0  0  0  0  0  0  0  0  0
  147.6151  141.3883  153.5545 C   0  0  0  0  0  0  0  0  0  0  0  0
  147.8879  141.6084  155.0527 C   0  0  0  0  0  0  0  0  0  0  0  0
  150.8784  140.6222  158.6551 N   0  0  0  0  0  0  0  0  0  0  0  0
  152.2157  140.7345  158.6984 C   0  0  0  0  0  0  0  0  0  0  0  0
  152.9755  140.0779  157.9853 O   0  0  0  0  0  0  0  0  0  0  0  0
  152.7649  141.7906  159.6688 C   0  0  1  0  0  0  0  0  0  0  0  0
  154.3010  141.7444  159.8031 C   0  0  0  0  0  0  0  0  0  0  0  0
  152.2813  143.1094  159.2744 N   0  0  0  0  0  0  0  0  0  0  0  0
  152.3693  144.2796  159.9112 C   0  0  0  0  0  0  0  0  0  0  0  0
  151.7514  145.2774  159.2952 N   0  0  0  0  0  0  0  0  0  0  0  0
  151.2566  144.6052  158.2140 C   0  0  0  0  0  0  0  0  0  0  0  0
  151.5349  143.3030  158.1582 N   0  0  0  0  0  0  0  0  0  0  0  0
  148.8797  138.0989  157.5613 H   0  0  0  0  0  0  0  0  0  0  0  0
  148.7687  138.9594  159.0946 H   0  0  0  0  0  0  0  0  0  0  0  0
  150.1978  137.9976  158.7223 H   0  0  0  0  0  0  0  0  0  0  0  0
  150.7732  139.5181  156.8635 H   0  0  0  0  0  0  0  0  0  0  0  0
  148.1378  140.7796  157.5763 H   0  0  0  0  0  0  0  0  0  0  0  0
  149.4306  141.8569  157.1352 H   0  0  0  0  0  0  0  0  0  0  0  0
  148.9509  138.5072  155.6622 H   0  0  0  0  0  0  0  0  0  0  0  0
  147.3328  139.1329  155.8847 H   0  0  0  0  0  0  0  0  0  0  0  0
  148.9151  139.0829  153.2567 H   0  0  0  0  0  0  0  0  0  0  0  0
  147.5288  138.0858  153.6575 H   0  0  0  0  0  0  0  0  0  0  0  0
  148.5264  141.5257  152.9710 H   0  0  0  0  0  0  0  0  0  0  0  0
  146.8893  142.1154  153.1903 H   0  0  0  0  0  0  0  0  0  0  0  0
  146.9441  141.5822  155.5996 H   0  0  0  0  0  0  0  0  0  0  0  0
  148.3059  142.6050  155.1983 H   0  0  0  0  0  0  0  0  0  0  0  0
  150.3430  141.1933  159.2924 H   0  0  0  0  0  0  0  0  0  0  0  0
  152.3465  141.5768  160.6538 H   0  0  0  0  0  0  0  0  0  0  0  0
  154.6344  140.7684  160.1573 H   0  0  0  0  0  0  0  0  0  0  0  0
  154.6504  142.4879  160.5199 H   0  0  0  0  0  0  0  0  0  0  0  0
  154.8028  141.9400  158.8544 H   0  0  0  0  0  0  0  0  0  0  0  0
  152.8877  144.4017  160.8508 H   0  0  0  0  0  0  0  0  0  0  0  0
  150.6652  145.0881  157.4501 H   0  0  0  0  0  0  0  0  0  0  0  0
  1  2  1  0  0  0  0
  1 20  1  0  0  0  0
  1 21  1  0  0  0  0
  1 22  1  0  0  0  0
  2  3  1  0  0  0  0
  2 10  1  0  0  0  0
  2 23  1  0  0  0  0
  3  4  1  0  0  0  0
  3 24  1  0  0  0  0
  3 25  1  0  0  0  0
  4  9  1  0  0  0  0
  4  5  1  0  0  0  0
  5  6  1  0  0  0  0
  5 26  1  0  0  0  0
  5 27  1  0  0  0  0
  6  7  1  0  0  0  0
  6 28  1  0  0  0  0
  6 29  1  0  0  0  0
  7  8  1  0  0  0  0
  8  9  1  0  0  0  0
  8 30  1  0  0  0  0
  8 31  1  0  0  0  0
  9 32  1  0  0  0  0
  9 33  1  0  0  0  0
 10 11  1  0  0  0  0
 10 34  1  0  0  0  0
 11 12  2  0  0  0  0
 11 13  1  0  0  0  0
 13 14  1  0  0  0  0
 13 15  1  0  0  0  0
 13 35  1  0  0  0  0
 14 36  1  0  0  0  0
 14 37  1  0  0  0  0
 14 38  1  0  0  0  0
 15 19  1  0  0  0  0
 15 16  1  0  0  0  0
 16 17  2  0  0  0  0
 16 39  1  0  0  0  0
 17 18  1  0  0  0  0
 18 19  2  0  0  0  0
 18 40  1  0  0  0  0
M  END
> <s_m_source_file>
AV-unprocessed.smi

> <i_m_source_file_index>
3345

> <i_lp_mmshare_version>
43012

> <i_f3d_flags>
0

> <s_epik_input>
W0NIMl0xW0NIMl1PW0NIMl1bQ0gyXU4xW0NIMl1bQ0BASF0oW0NIM10pW05IXUMoPU8pW0NASF0oW0NIM10pbjJbY0hdbltjSF1uMg==

> <s_epik_cmdline>
J2VwaWtfcHl0aG9uJywgJy1waCcsICc3LjAnLCAnLXRuJywgJzgnLCAnLW1hJywgJzIwMCcsICctbWV0YWxfYmluZGluZycsICctaW1hZScsICc8aW5maWxlLm1hZT4nLCAnLW9tYWUnLCAnPG91dGZpbGUubWFlPic=

> <r_lp_tautomer_probability>
1

> <r_epik_Ionization_Penalty>
0.211373

> <r_epik_Ionization_Penalty_Charging>
0

> <r_epik_Ionization_Penalty_Neutral>
0.211373

> <r_epik_State_Penalty>
0.201459

> <r_epik_Charging_Adjusted_Penalty>
0.201459

> <i_epik_Tot_Q>
0

> <i_epik_Tot_abs_Q>
0

> <r_epik_Metal_State_Penalty>
0.201458

> <b_epik_Metal_Only>
0

> <s_lp_Force_Field>
OPLS_2005

> <r_lp_Energy>
29.1888

> <b_lp_Chiralities_Consistent>
1

> <s_lp_Variant>
AV-unprocessed.smi:3345-4

> <Gold.Version>
5.8.1

> <Gold.Id.Protein>
6NUR|6NUR_protein|mol2

> <Gold.PLP.Fitness>
36.8942

> <Gold.PLP.PLP>
-31.9999

> <Gold.PLP.part.hbond>
-1.0000

> <Gold.PLP.part.metal>
0.0000

> <Gold.PLP.part.buried>
-5.8475

> <Gold.PLP.part.nonpolar>
-24.7307

> <Gold.PLP.part.repulsive>
0.6060

> <Gold.PLP.ligand.clash>
0.0000

> <Gold.PLP.ligand.torsion>
0.6357

> <Gold.PLP.Chemscore.Hbond>
1.0000

> <Gold.PLP.Chemscore.CHOScore>
1.0000

> <Gold.PLP.Chemscore.Metal>
0.0000

> <Gold.Chemscore.Hbonds>
donor molecule, donor type, donor heavy atom, donor atom, acceptor molecule, acceptor atom, score
      P1  H  7997  8009       L1    12  1.00
      L1  C    18    40       P1  8028  0.93
      L1  C    18    40       P1  8029  0.01

> <Gold.PLP.Chemscore.Internal.Correction>
0.1657

> <Gold.Rescore>
     Score         DG    S(hbond)    S(metal)    S(lipo)     H(rot)  DE(clash)    DE(int)     intcor
      6.17      -8.21       0.96        0.00      51.37       2.54       0.03       2.01       ----

> <Gold.Chemscore.Fitness>
6.1743

> <Gold.Chemscore.DG>
-8.2133

> <Gold.Chemscore.ZeroCoef>
-5.4800

> <Gold.Chemscore.Hbond>
0.9620

> <Gold.Chemscore.Metal>
0.0000

> <Gold.Chemscore.Lipo>
51.3735

> <Gold.Chemscore.Internal_Hbond>
0.0000

> <Gold.Chemscore.DEClash>
0.0279

> <Gold.Chemscore.DEInternal>
2.0111

> <Gold.Chemscore.Rot>
2.5353

> <Gold.Chemscore.Internal.Correction>
   9.000000E+99

> <Gold.Chemscore.Hbonds>
donor molecule, donor type, donor heavy atom, donor atom, acceptor molecule, acceptor atom, score
      P1  H  7997  8009       L1    12  0.94

> <Gold.Chemscore.Hbond.Weighted>
-3.2131

> <Gold.Chemscore.Metal.Weighted>
-0.0000

> <Gold.Chemscore.Lipo.Weighted>
-6.0107

> <Gold.Chemscore.Internal_Hbond.Weighted>
0.0000

> <Gold.Chemscore.DEClash.Weighted>
0.0279

> <Gold.Chemscore.DEInternal.Weighted>
2.0111

> <Gold.Chemscore.Rot.Weighted>
6.4905

> <Gold.Chemscore.Internal.Correction.Weighted>
   9.000000E+99

> <Gold.Protein.RotatedTorsions>
[ 6907 6896 6895 6894 ] final   31.87 input  -60.11 | X-H torsion
[ 7974 7965 7964 7962 ] final  -43.87 input  175.53 | X-H torsion
[ 8008 7997 7996 7995 ] final  153.71 input   59.86 | X-H torsion
[ 10167 10162 10161 10158 ] final   66.02 input  -65.29 | X-H torsion
[ 10718 10713 10712 10709 ] final  -20.99 input   66.30 | X-H torsion
[ 10763 10752 10751 10750 ] final   46.84 input  -60.55 | X-H torsion
[ 11005 11000 10999 10996 ] final  -55.08 input  -57.11 | X-H torsion

> <Gold.Protein.ActiveResidues>
 VAL166  LYS551  ARG553  GLY616  TRP617  ASP618  TYR619  PRO620  LYS621  CYS622 
 ASP623  PHE694  ASN695  SER759  ASP760  ASP761  ALA762  ILE779  LEU786  VAL792 
 PHE793  MET794  SER795  GLU796  ALA797  LYS798  CYS799  TRP800  GLU811  SER814 

> <Gold.Protein.RotatedAtoms>
  152.0665  134.9561  160.0574 H   0  0  0  0  0  0  0  0  0  0  0  0  # atno 6907 bound_to 6896
  152.0904  133.4193  159.4549 H   0  0  0  0  0  0  0  0  0  0  0  0  # atno 6908 bound_to 6896
  150.6837  134.2798  159.4666 H   0  0  0  0  0  0  0  0  0  0  0  0  # atno 6909 bound_to 6896
  145.9976  140.7110  142.9286 H   0  0  0  0  0  0  0  0  0  0  0  0  # atno 7974 bound_to 7965
  156.2568  140.1986  156.6533 H   0  0  0  0  0  0  0  0  0  0  0  0  # atno 8008 bound_to 7997
  154.6520  140.0571  156.9991 H   0  0  0  0  0  0  0  0  0  0  0  0  # atno 8009 bound_to 7997
  155.1404  140.3242  155.4456 H   0  0  0  0  0  0  0  0  0  0  0  0  # atno 8010 bound_to 7997
  140.1049  144.4870  150.7014 H   0  0  0  0  0  0  0  0  0  0  0  0  # atno 10167 bound_to 10162
  156.5243  130.4640  149.6580 H   0  0  0  0  0  0  0  0  0  0  0  0  # atno 10718 bound_to 10713
  152.9806  135.5995  154.3665 H   0  0  0  0  0  0  0  0  0  0  0  0  # atno 10763 bound_to 10752
  154.3342  135.2768  155.2458 H   0  0  0  0  0  0  0  0  0  0  0  0  # atno 10764 bound_to 10752
  154.4568  135.5976  153.6284 H   0  0  0  0  0  0  0  0  0  0  0  0  # atno 10765 bound_to 10752
  141.1057  133.6613  156.4417 H   0  0  0  0  0  0  0  0  0  0  0  0  # atno 11005 bound_to 11000
  144.6909  140.3178  143.7237 LP  0  0  0  0  0  0  0  0  0  0  0  0  # atno 17320 bound_to 7965
  145.7535  139.1801  143.2307 LP  0  0  0  0  0  0  0  0  0  0  0  0  # atno 17321 bound_to 7965
  140.6957  143.2402  151.5006 LP  0  0  0  0  0  0  0  0  0  0  0  0  # atno 17342 bound_to 10162
  139.5651  144.2063  152.1751 LP  0  0  0  0  0  0  0  0  0  0  0  0  # atno 17343 bound_to 10162
  156.3120  130.7234  151.2128 LP  0  0  0  0  0  0  0  0  0  0  0  0  # atno 17370 bound_to 10713
  157.7432  131.0479  150.4966 LP  0  0  0  0  0  0  0  0  0  0  0  0  # atno 17371 bound_to 10713
  140.4908  134.6577  157.5210 LP  0  0  0  0  0  0  0  0  0  0  0  0  # atno 17394 bound_to 11000
  139.9926  134.6961  155.9663 LP  0  0  0  0  0  0  0  0  0  0  0  0  # atno 17395 bound_to 11000

$$$$
