AV-unprocessed.smi:1701|AV-procd|sdf|6827|dock3
  -GOLD-   22720 8 03D 1   1.00000     0.00000
 Structure written by MMmdl.
 55 57  0  0  0  0  0  0  0  0  3 V2000
  151.4624  143.7292  157.9863 C   0  0  0  0  0  0  0  0  0  0  0  0
  150.9898  142.6890  156.9602 C   0  0  0  0  0  0  0  0  0  0  0  0
  150.8928  141.3377  157.5118 N   0  0  0  0  0  0  0  0  0  0  0  0
  151.1831  141.1173  158.9305 C   0  0  0  0  0  0  0  0  0  0  0  0
  152.3381  140.1314  159.1658 C   0  0  0  0  0  0  0  0  0  0  0  0
  150.3415  140.2894  156.7356 C   0  0  0  0  0  0  0  0  0  0  0  0
  150.3640  140.2668  155.3183 C   0  0  0  0  0  0  0  0  0  0  0  0
  149.7901  139.1840  154.6216 C   0  0  0  0  0  0  0  0  0  0  0  0
  149.2028  138.1197  155.3360 C   0  0  0  0  0  0  0  0  0  0  0  0
  148.6238  137.0601  154.5868 N   0  0  0  0  0  0  0  0  0  0  0  0
  147.7900  136.0872  155.0054 C   0  0  0  0  0  0  0  0  0  0  0  0
  147.4008  135.9484  156.1622 O   0  0  0  0  0  0  0  0  0  0  0  0
  147.4242  135.2230  154.0415 N   0  0  0  0  0  0  0  0  0  0  0  0
  146.5376  134.0620  154.1549 C   0  0  2  0  0  0  0  0  0  0  0  0
  147.2484  132.7416  153.8856 C   0  0  0  0  0  0  0  0  0  0  0  0
  146.0934  131.7798  153.5911 C   0  0  0  0  0  0  0  0  0  0  0  0
  144.9827  132.5986  153.0470 N   0  3  2  0  0  0  0  0  0  0  0  0
  144.5086  132.1592  151.7075 C   0  0  0  0  0  0  0  0  0  0  0  0
  143.6462  133.2453  151.0471 C   0  0  0  0  0  0  0  0  0  0  0  0
  144.4471  134.5410  150.8173 C   0  0  0  0  0  0  0  0  0  0  0  0
  145.6560  134.6633  151.7645 C   0  0  0  0  0  0  0  0  0  0  0  0
  145.3675  134.0357  153.1502 C   0  0  2  0  0  0  0  0  0  0  0  0
  149.1964  138.1885  156.7489 C   0  0  0  0  0  0  0  0  0  0  0  0
  149.7564  139.2459  157.3745 N   0  3  0  0  0  0  0  0  0  0  0  0
  151.4636  144.7262  157.5456 H   0  0  0  0  0  0  0  0  0  0  0  0
  152.4773  143.5249  158.3250 H   0  0  0  0  0  0  0  0  0  0  0  0
  150.8137  143.7559  158.8619 H   0  0  0  0  0  0  0  0  0  0  0  0
  150.0364  142.9878  156.5249 H   0  0  0  0  0  0  0  0  0  0  0  0
  151.6897  142.6752  156.1242 H   0  0  0  0  0  0  0  0  0  0  0  0
  151.3950  142.0686  159.4197 H   0  0  0  0  0  0  0  0  0  0  0  0
  150.2866  140.7343  159.4188 H   0  0  0  0  0  0  0  0  0  0  0  0
  152.5216  140.0061  160.2331 H   0  0  0  0  0  0  0  0  0  0  0  0
  153.2658  140.4824  158.7136 H   0  0  0  0  0  0  0  0  0  0  0  0
  152.1197  139.1465  158.7556 H   0  0  0  0  0  0  0  0  0  0  0  0
  150.8038  141.0679  154.7443 H   0  0  0  0  0  0  0  0  0  0  0  0
  149.8054  139.1749  153.5413 H   0  0  0  0  0  0  0  0  0  0  0  0
  148.9124  137.0064  153.6215 H   0  0  0  0  0  0  0  0  0  0  0  0
  147.8327  135.3738  153.1299 H   0  0  0  0  0  0  0  0  0  0  0  0
  146.1367  134.0134  155.1697 H   0  0  0  0  0  0  0  0  0  0  0  0
  147.8890  132.8280  153.0064 H   0  0  0  0  0  0  0  0  0  0  0  0
  147.8676  132.4129  154.7210 H   0  0  0  0  0  0  0  0  0  0  0  0
  146.4011  130.9725  152.9250 H   0  0  0  0  0  0  0  0  0  0  0  0
  145.7459  131.3206  154.5171 H   0  0  0  0  0  0  0  0  0  0  0  0
  145.3594  131.9346  151.0617 H   0  0  0  0  0  0  0  0  0  0  0  0
  143.9428  131.2336  151.8168 H   0  0  0  0  0  0  0  0  0  0  0  0
  143.2377  132.8868  150.1017 H   0  0  0  0  0  0  0  0  0  0  0  0
  142.7889  133.4550  151.6884 H   0  0  0  0  0  0  0  0  0  0  0  0
  144.8004  134.5855  149.7866 H   0  0  0  0  0  0  0  0  0  0  0  0
  143.7829  135.3965  150.9457 H   0  0  0  0  0  0  0  0  0  0  0  0
  146.5176  134.1665  151.3162 H   0  0  0  0  0  0  0  0  0  0  0  0
  145.9277  135.7152  151.8557 H   0  0  0  0  0  0  0  0  0  0  0  0
  144.5225  134.5744  153.5816 H   0  0  0  0  0  0  0  0  0  0  0  0
  148.7585  137.4548  157.4088 H   0  0  0  0  0  0  0  0  0  0  0  0
  144.2054  132.4744  153.6804 H   0  0  0  0  0  0  0  0  0  0  0  0
  149.7331  139.2614  158.3943 H   0  0  0  0  0  0  0  0  0  0  0  0
  1  2  1  0  0  0  0
  1 25  1  0  0  0  0
  1 26  1  0  0  0  0
  1 27  1  0  0  0  0
  2  3  1  0  0  0  0
  2 28  1  0  0  0  0
  2 29  1  0  0  0  0
  3  4  1  0  0  0  0
  3  6  1  0  0  0  0
  4  5  1  0  0  0  0
  4 30  1  0  0  0  0
  4 31  1  0  0  0  0
  5 32  1  0  0  0  0
  5 33  1  0  0  0  0
  5 34  1  0  0  0  0
  6 24  1  0  0  0  0
  6  7  2  0  0  0  0
  7  8  1  0  0  0  0
  7 35  1  0  0  0  0
  8  9  2  0  0  0  0
  8 36  1  0  0  0  0
  9 10  1  0  0  0  0
  9 23  1  0  0  0  0
 10 11  1  0  0  0  0
 10 37  1  0  0  0  0
 11 12  2  0  0  0  0
 11 13  1  0  0  0  0
 13 14  1  0  0  0  0
 13 38  1  0  0  0  0
 14 22  1  0  0  0  0
 14 15  1  0  0  0  0
 14 39  1  0  0  0  0
 15 16  1  0  0  0  0
 15 40  1  0  0  0  0
 15 41  1  0  0  0  0
 16 17  1  0  0  0  0
 16 42  1  0  0  0  0
 16 43  1  0  0  0  0
 17 22  1  0  0  0  0
 17 18  1  0  0  0  0
 17 54  1  0  0  0  0
 18 19  1  0  0  0  0
 18 44  1  0  0  0  0
 18 45  1  0  0  0  0
 19 20  1  0  0  0  0
 19 46  1  0  0  0  0
 19 47  1  0  0  0  0
 20 21  1  0  0  0  0
 20 48  1  0  0  0  0
 20 49  1  0  0  0  0
 21 22  1  0  0  0  0
 21 50  1  0  0  0  0
 21 51  1  0  0  0  0
 22 52  1  0  0  0  0
 23 24  2  0  0  0  0
 23 53  1  0  0  0  0
 24 55  1  0  0  0  0
M  CHG  1  17   1
M  CHG  1  24   1
M  END
> <s_m_source_file>
AV-unprocessed.smi

> <i_m_source_file_index>
1701

> <i_lp_mmshare_version>
43012

> <i_f3d_flags>
0

> <s_epik_input>
W0NIM11bQ0gyXU4oW0NIMl1bQ0gzXSljMVtjSF1bY0hdYyhbY0hdbjEpW05IXUMoPU8pW05IXVtDQEhdKFtDSDJdW0NIMl0yKVtDQEBIXShOMjMpW0NIMl1bQ0gyXVtDSDJdW0NIMl0z

> <s_epik_cmdline>
J2VwaWtfcHl0aG9uJywgJy1waCcsICc3LjAnLCAnLXRuJywgJzgnLCAnLW1hJywgJzIwMCcsICctbWV0YWxfYmluZGluZycsICctaW1hZScsICc8aW5maWxlLm1hZT4nLCAnLW9tYWUnLCAnPG91dGZpbGUubWFlPic=

> <r_lp_tautomer_probability>
0.999994

> <r_epik_Ionization_Penalty>
0.302862

> <r_epik_Ionization_Penalty_Charging>
0.302842

> <r_epik_Ionization_Penalty_Neutral>
1.95166e-05

> <r_epik_State_Penalty>
0.019791

> <r_epik_Charging_Adjusted_Penalty>
0.322633

> <i_epik_Tot_Q>
2

> <i_epik_Tot_abs_Q>
2

> <r_epik_Metal_State_Penalty>
0.0536763

> <b_epik_Metal_Only>
0

> <s_lp_Force_Field>
OPLS_2005

> <r_lp_Energy>
67.6643

> <b_lp_Chiralities_Consistent>
1

> <s_lp_Variant>
AV-unprocessed.smi:1701-7

> <Gold.Version>
5.8.1

> <Gold.Id.Protein>
6NUR|6NUR_protein|mol2

> <Gold.PLP.Fitness>
45.0034

> <Gold.PLP.PLP>
-33.7084

> <Gold.PLP.part.hbond>
-3.0000

> <Gold.PLP.part.metal>
0.0000

> <Gold.PLP.part.buried>
-4.2169

> <Gold.PLP.part.nonpolar>
-28.3149

> <Gold.PLP.part.repulsive>
0.0628

> <Gold.PLP.ligand.clash>
0.0000

> <Gold.PLP.ligand.torsion>
0.3542

> <Gold.PLP.Chemscore.Hbond>
3.9500

> <Gold.PLP.Chemscore.CHOScore>
0.0000

> <Gold.PLP.Chemscore.Metal>
0.0000

> <Gold.Chemscore.Hbonds>
donor molecule, donor type, donor heavy atom, donor atom, acceptor molecule, acceptor atom, score
      L1  H    10    37       P1  7948  1.00
      L1  H    13    38       P1  7948  1.00
      L1  H    17    54       P1 10957  2.00

> <Gold.PLP.Chemscore.Internal.Correction>
0.1535

> <Gold.Rescore>
     Score         DG    S(hbond)    S(metal)    S(lipo)     H(rot)  DE(clash)    DE(int)     intcor
     19.05     -20.76       2.53        0.00      86.80       1.30       0.14       1.57       ----

> <Gold.Chemscore.Fitness>
19.0525

> <Gold.Chemscore.DG>
-20.7644

> <Gold.Chemscore.ZeroCoef>
-5.4800

> <Gold.Chemscore.Hbond>
2.5334

> <Gold.Chemscore.Metal>
0.0000

> <Gold.Chemscore.Lipo>
86.8026

> <Gold.Chemscore.Internal_Hbond>
0.0000

> <Gold.Chemscore.DEClash>
0.1401

> <Gold.Chemscore.DEInternal>
1.5718

> <Gold.Chemscore.Rot>
1.3020

> <Gold.Chemscore.Internal.Correction>
   9.000000E+99

> <Gold.Chemscore.Hbonds>
donor molecule, donor type, donor heavy atom, donor atom, acceptor molecule, acceptor atom, score
      L1  H    10    37       P1  7948  0.98
      L1  H    13    38       P1  7948  0.98
      L1  H    17    54       P1 10957  0.33

> <Gold.Chemscore.Hbond.Weighted>
-8.4615

> <Gold.Chemscore.Metal.Weighted>
-0.0000

> <Gold.Chemscore.Lipo.Weighted>
-10.1559

> <Gold.Chemscore.Internal_Hbond.Weighted>
0.0000

> <Gold.Chemscore.DEClash.Weighted>
0.1401

> <Gold.Chemscore.DEInternal.Weighted>
1.5718

> <Gold.Chemscore.Rot.Weighted>
3.3330

> <Gold.Chemscore.Internal.Correction.Weighted>
   9.000000E+99

> <Gold.Protein.RotatedTorsions>
[ 6907 6896 6895 6894 ] final   67.28 input  -60.11 | X-H torsion
[ 7974 7965 7964 7962 ] final  131.94 input  175.53 | X-H torsion
[ 8008 7997 7996 7995 ] final   66.86 input   59.86 | X-H torsion
[ 10167 10162 10161 10158 ] final -165.19 input  -65.29 | X-H torsion
[ 10718 10713 10712 10709 ] final  -74.57 input   66.30 | X-H torsion
[ 10763 10752 10751 10750 ] final -144.61 input  -60.55 | X-H torsion
[ 11005 11000 10999 10996 ] final -158.24 input  -57.11 | X-H torsion

> <Gold.Protein.ActiveResidues>
 VAL166  LYS551  ARG553  GLY616  TRP617  ASP618  TYR619  PRO620  LYS621  CYS622 
 ASP623  PHE694  ASN695  SER759  ASP760  ASP761  ALA762  ILE779  LEU786  VAL792 
 PHE793  MET794  SER795  GLU796  ALA797  LYS798  CYS799  TRP800  GLU811  SER814 

> <Gold.Protein.RotatedAtoms>
  152.4541  134.5330  159.9816 H   0  0  0  0  0  0  0  0  0  0  0  0  # atno 6907 bound_to 6896
  151.5396  133.3429  159.2941 H   0  0  0  0  0  0  0  0  0  0  0  0  # atno 6908 bound_to 6896
  150.8479  134.7825  159.7048 H   0  0  0  0  0  0  0  0  0  0  0  0  # atno 6909 bound_to 6896
  145.0020  139.4303  143.5287 H   0  0  0  0  0  0  0  0  0  0  0  0  # atno 7974 bound_to 7965
  155.6840  140.3496  155.4866 H   0  0  0  0  0  0  0  0  0  0  0  0  # atno 8008 bound_to 7997
  155.9582  140.1132  157.0941 H   0  0  0  0  0  0  0  0  0  0  0  0  # atno 8009 bound_to 7997
  154.4137  140.1181  156.5130 H   0  0  0  0  0  0  0  0  0  0  0  0  # atno 8010 bound_to 7997
  139.6199  144.0646  152.1923 H   0  0  0  0  0  0  0  0  0  0  0  0  # atno 10167 bound_to 10162
  156.0238  130.4420  150.2912 H   0  0  0  0  0  0  0  0  0  0  0  0  # atno 10718 bound_to 10713
  154.8420  135.3435  154.6374 H   0  0  0  0  0  0  0  0  0  0  0  0  # atno 10763 bound_to 10752
  153.6984  135.6971  153.5074 H   0  0  0  0  0  0  0  0  0  0  0  0  # atno 10764 bound_to 10752
  153.2541  135.4344  155.0782 H   0  0  0  0  0  0  0  0  0  0  0  0  # atno 10765 bound_to 10752
  140.6558  134.4402  157.5235 H   0  0  0  0  0  0  0  0  0  0  0  0  # atno 11005 bound_to 11000
  146.3454  139.9414  142.8740 LP  0  0  0  0  0  0  0  0  0  0  0  0  # atno 17320 bound_to 7965
  145.2140  140.9907  143.4084 LP  0  0  0  0  0  0  0  0  0  0  0  0  # atno 17321 bound_to 7965
  140.0285  144.6099  150.7508 LP  0  0  0  0  0  0  0  0  0  0  0  0  # atno 17342 bound_to 10162
  140.7375  143.2766  151.3723 LP  0  0  0  0  0  0  0  0  0  0  0  0  # atno 17343 bound_to 10162
  157.1015  131.0197  151.3083 LP  0  0  0  0  0  0  0  0  0  0  0  0  # atno 17370 bound_to 10713
  157.4776  130.7746  149.7383 LP  0  0  0  0  0  0  0  0  0  0  0  0  # atno 17371 bound_to 10713
  139.9030  134.8513  156.1818 LP  0  0  0  0  0  0  0  0  0  0  0  0  # atno 17394 bound_to 11000
  141.0503  133.6892  156.1759 LP  0  0  0  0  0  0  0  0  0  0  0  0  # atno 17395 bound_to 11000

$$$$
