AV-unprocessed.smi:527|AV-procd|sdf|2822|dock5
  -GOLD-   2262023303D 1   1.00000     0.00000
 Structure written by MMmdl.
 42 43  0  0  0  0  0  0  0  0  1 V2000
  147.5877  141.4878  153.9931 C   0  0  0  0  0  0  0  0  0  0  0  0
  148.1050  140.0435  154.1163 C   0  0  1  0  0  0  0  0  0  0  0  0
  149.6278  140.0556  154.3641 C   0  0  0  0  0  0  0  0  0  0  0  0
  150.2071  138.6399  154.4837 C   0  0  0  0  0  0  0  0  0  0  0  0
  149.4936  137.8472  155.5877 C   0  0  0  0  0  0  0  0  0  0  0  0
  147.9684  137.8037  155.3664 C   0  0  2  0  0  0  0  0  0  0  0  0
  147.6338  136.9715  154.2092 N   0  0  0  0  0  0  0  0  0  0  0  0
  146.9025  135.8479  154.2409 C   0  0  0  0  0  0  0  0  0  0  0  0
  146.1528  135.5535  155.1745 O   0  0  0  0  0  0  0  0  0  0  0  0
  147.1074  135.1085  153.1341 N   0  0  0  0  0  0  0  0  0  0  0  0
  146.5451  133.9223  152.8229 C   0  0  0  0  0  0  0  0  0  0  0  0
  145.7225  133.3210  153.5164 O   0  0  0  0  0  0  0  0  0  0  0  0
  146.9926  133.3062  151.4968 C   0  0  0  0  0  0  0  0  0  0  0  0
  145.8506  132.9783  150.6642 N   0  0  0  0  0  0  0  0  0  0  0  0
  144.5133  133.2426  150.9318 C   0  0  0  0  0  0  0  0  0  0  0  0
  143.7940  132.7471  149.8678 C   0  0  0  0  0  0  0  0  0  0  0  0
  144.6621  132.1751  148.9407 N   0  0  0  0  0  0  0  0  0  0  0  0
  145.8612  132.3492  149.4805 C   0  0  0  0  0  0  0  0  0  0  0  0
  147.3754  139.2299  155.2221 C   0  0  2  0  0  0  0  0  0  0  0  0
  145.8459  139.1812  155.0295 C   0  0  0  0  0  0  0  0  0  0  0  0
  147.6667  142.0201  154.9414 H   0  0  0  0  0  0  0  0  0  0  0  0
  146.5459  141.5193  153.6753 H   0  0  0  0  0  0  0  0  0  0  0  0
  148.1607  142.0457  153.2521 H   0  0  0  0  0  0  0  0  0  0  0  0
  147.9285  139.5537  153.1575 H   0  0  0  0  0  0  0  0  0  0  0  0
  150.1336  140.5837  153.5549 H   0  0  0  0  0  0  0  0  0  0  0  0
  149.8465  140.6123  155.2765 H   0  0  0  0  0  0  0  0  0  0  0  0
  150.1107  138.1198  153.5299 H   0  0  0  0  0  0  0  0  0  0  0  0
  151.2748  138.6932  154.6980 H   0  0  0  0  0  0  0  0  0  0  0  0
  149.9020  136.8375  155.6459 H   0  0  0  0  0  0  0  0  0  0  0  0
  149.7024  138.3117  156.5521 H   0  0  0  0  0  0  0  0  0  0  0  0
  147.5163  137.3494  156.2503 H   0  0  0  0  0  0  0  0  0  0  0  0
  147.9924  137.2789  153.3171 H   0  0  0  0  0  0  0  0  0  0  0  0
  147.7617  135.4810  152.4621 H   0  0  0  0  0  0  0  0  0  0  0  0
  147.6344  134.0048  150.9585 H   0  0  0  0  0  0  0  0  0  0  0  0
  147.5779  132.4025  151.6738 H   0  0  0  0  0  0  0  0  0  0  0  0
  144.1929  133.7453  151.8328 H   0  0  0  0  0  0  0  0  0  0  0  0
  142.7270  132.7566  149.7005 H   0  0  0  0  0  0  0  0  0  0  0  0
  146.7693  132.0092  149.0045 H   0  0  0  0  0  0  0  0  0  0  0  0
  147.5536  139.7407  156.1698 H   0  0  0  0  0  0  0  0  0  0  0  0
  145.5747  138.7994  154.0449 H   0  0  0  0  0  0  0  0  0  0  0  0
  145.3952  140.1672  155.1394 H   0  0  0  0  0  0  0  0  0  0  0  0
  145.3800  138.5363  155.7751 H   0  0  0  0  0  0  0  0  0  0  0  0
  1  2  1  0  0  0  0
  1 21  1  0  0  0  0
  1 22  1  0  0  0  0
  1 23  1  0  0  0  0
  2 19  1  0  0  0  0
  2  3  1  0  0  0  0
  2 24  1  0  0  0  0
  3  4  1  0  0  0  0
  3 25  1  0  0  0  0
  3 26  1  0  0  0  0
  4  5  1  0  0  0  0
  4 27  1  0  0  0  0
  4 28  1  0  0  0  0
  5  6  1  0  0  0  0
  5 29  1  0  0  0  0
  5 30  1  0  0  0  0
  6  7  1  0  0  0  0
  6 19  1  0  0  0  0
  6 31  1  0  0  0  0
  7  8  1  0  0  0  0
  7 32  1  0  0  0  0
  8  9  2  0  0  0  0
  8 10  1  0  0  0  0
 10 11  1  0  0  0  0
 10 33  1  0  0  0  0
 11 12  2  0  0  0  0
 11 13  1  0  0  0  0
 13 14  1  0  0  0  0
 13 34  1  0  0  0  0
 13 35  1  0  0  0  0
 14 18  1  0  0  0  0
 14 15  1  0  0  0  0
 15 16  2  0  0  0  0
 15 36  1  0  0  0  0
 16 17  1  0  0  0  0
 16 37  1  0  0  0  0
 17 18  2  0  0  0  0
 18 38  1  0  0  0  0
 19 20  1  0  0  0  0
 19 39  1  0  0  0  0
 20 40  1  0  0  0  0
 20 41  1  0  0  0  0
 20 42  1  0  0  0  0
M  END
> <s_m_source_file>
AV-unprocessed.smi

> <i_m_source_file_index>
527

> <i_lp_mmshare_version>
43012

> <i_f3d_flags>
0

> <s_epik_input>
W0NIM11bQ0BASF0xW0NIMl1bQ0gyXVtDSDJdW0NASF0oW0NASF0xW0NIM10pW05IXUMoPU8pW05IXUMoPU8pW0NIMl1uMltjSF1bY0hdbltjSF0y

> <s_epik_cmdline>
J2VwaWtfcHl0aG9uJywgJy1waCcsICc3LjAnLCAnLXRuJywgJzgnLCAnLW1hJywgJzIwMCcsICctbWV0YWxfYmluZGluZycsICctaW1hZScsICc8aW5maWxlLm1hZT4nLCAnLW9tYWUnLCAnPG91dGZpbGUubWFlPic=

> <r_lp_tautomer_probability>
1

> <r_epik_Ionization_Penalty>
0.172132

> <r_epik_Ionization_Penalty_Charging>
0.172105

> <r_epik_Ionization_Penalty_Neutral>
2.71747e-05

> <r_epik_State_Penalty>
0.161503

> <r_epik_Charging_Adjusted_Penalty>
0.333607

> <i_epik_Tot_Q>
0

> <i_epik_Tot_abs_Q>
0

> <r_epik_Metal_State_Penalty>
0.124763

> <b_epik_Metal_Only>
0

> <s_lp_Force_Field>
OPLS_2005

> <r_lp_Energy>
14.576

> <b_lp_Chiralities_Consistent>
1

> <s_lp_Variant>
AV-unprocessed.smi:527-8

> <Gold.Version>
5.8.1

> <Gold.Id.Protein>
6NUR|6NUR_protein|mol2

> <Gold.PLP.Fitness>
42.4376

> <Gold.PLP.PLP>
-31.3764

> <Gold.PLP.part.hbond>
-2.9036

> <Gold.PLP.part.metal>
0.0000

> <Gold.PLP.part.buried>
-3.5819

> <Gold.PLP.part.nonpolar>
-25.0572

> <Gold.PLP.part.repulsive>
0.3228

> <Gold.PLP.ligand.clash>
0.0000

> <Gold.PLP.ligand.torsion>
0.1461

> <Gold.PLP.Chemscore.Hbond>
1.7729

> <Gold.PLP.Chemscore.CHOScore>
1.9993

> <Gold.PLP.Chemscore.Metal>
0.0000

> <Gold.Chemscore.Hbonds>
donor molecule, donor type, donor heavy atom, donor atom, acceptor molecule, acceptor atom, score
      L1  H     7    32       P1  7948  0.60
      L1  H    10    33       P1  7948  0.94
      L1  C    16    37       P1 10186  1.00
      L1  C    18    38       P1 10747  0.39

> <Gold.PLP.Chemscore.Internal.Correction>
0.0371

> <Gold.Rescore>
     Score         DG    S(hbond)    S(metal)    S(lipo)     H(rot)  DE(clash)    DE(int)     intcor
     11.95     -14.85       2.05        0.00      58.04       1.66       0.06       2.85       ----

> <Gold.Chemscore.Fitness>
11.9498

> <Gold.Chemscore.DG>
-14.8512

> <Gold.Chemscore.ZeroCoef>
-5.4800

> <Gold.Chemscore.Hbond>
2.0473

> <Gold.Chemscore.Metal>
0.0000

> <Gold.Chemscore.Lipo>
58.0362

> <Gold.Chemscore.Internal_Hbond>
0.0000

> <Gold.Chemscore.DEClash>
0.0560

> <Gold.Chemscore.DEInternal>
2.8454

> <Gold.Chemscore.Rot>
1.6629

> <Gold.Chemscore.Internal.Correction>
   9.000000E+99

> <Gold.Chemscore.Hbonds>
donor molecule, donor type, donor heavy atom, donor atom, acceptor molecule, acceptor atom, score
      L1  H     7    32       P1  7948  0.58
      L1  H    10    33       P1  7948  0.90

> <Gold.Chemscore.Hbond.Weighted>
-6.8379

> <Gold.Chemscore.Metal.Weighted>
-0.0000

> <Gold.Chemscore.Lipo.Weighted>
-6.7902

> <Gold.Chemscore.Internal_Hbond.Weighted>
0.0000

> <Gold.Chemscore.DEClash.Weighted>
0.0560

> <Gold.Chemscore.DEInternal.Weighted>
2.8454

> <Gold.Chemscore.Rot.Weighted>
4.2569

> <Gold.Chemscore.Internal.Correction.Weighted>
   9.000000E+99

> <Gold.Protein.RotatedTorsions>
[ 6907 6896 6895 6894 ] final  -20.24 input  -60.11 | X-H torsion
[ 7974 7965 7964 7962 ] final   60.89 input  175.53 | X-H torsion
[ 8008 7997 7996 7995 ] final -154.52 input   59.86 | X-H torsion
[ 10167 10162 10161 10158 ] final  -61.70 input  -65.29 | X-H torsion
[ 10718 10713 10712 10709 ] final  133.51 input   66.30 | X-H torsion
[ 10763 10752 10751 10750 ] final   62.69 input  -60.55 | X-H torsion
[ 11005 11000 10999 10996 ] final   67.39 input  -57.11 | X-H torsion

> <Gold.Protein.ActiveResidues>
 VAL166  LYS551  ARG553  GLY616  TRP617  ASP618  TYR619  PRO620  LYS621  CYS622 
 ASP623  PHE694  ASN695  SER759  ASP760  ASP761  ALA762  ILE779  LEU786  VAL792 
 PHE793  MET794  SER795  GLU796  ALA797  LYS798  CYS799  TRP800  GLU811  SER814 

> <Gold.Protein.RotatedAtoms>
  151.2512  135.0622  159.9062 H   0  0  0  0  0  0  0  0  0  0  0  0  # atno 6907 bound_to 6896
  152.5380  134.0330  159.8044 H   0  0  0  0  0  0  0  0  0  0  0  0  # atno 6908 bound_to 6896
  151.0539  133.5551  159.2671 H   0  0  0  0  0  0  0  0  0  0  0  0  # atno 6909 bound_to 6896
  145.8910  139.3511  143.0649 H   0  0  0  0  0  0  0  0  0  0  0  0  # atno 7974 bound_to 7965
  155.6877  140.0751  157.2460 H   0  0  0  0  0  0  0  0  0  0  0  0  # atno 8008 bound_to 7997
  154.4094  140.1670  156.2104 H   0  0  0  0  0  0  0  0  0  0  0  0  # atno 8009 bound_to 7997
  155.9479  140.3379  155.6386 H   0  0  0  0  0  0  0  0  0  0  0  0  # atno 8010 bound_to 7997
  140.5988  143.2357  151.5975 H   0  0  0  0  0  0  0  0  0  0  0  0  # atno 10167 bound_to 10162
  157.4766  131.1083  150.9735 H   0  0  0  0  0  0  0  0  0  0  0  0  # atno 10718 bound_to 10713
  152.9991  135.5456  154.6233 H   0  0  0  0  0  0  0  0  0  0  0  0  # atno 10763 bound_to 10752
  154.5528  135.2828  155.0995 H   0  0  0  0  0  0  0  0  0  0  0  0  # atno 10764 bound_to 10752
  154.2228  135.6447  153.5203 H   0  0  0  0  0  0  0  0  0  0  0  0  # atno 10765 bound_to 10752
  139.9774  134.6800  156.0328 H   0  0  0  0  0  0  0  0  0  0  0  0  # atno 11005 bound_to 11000
  145.8908  140.9304  143.0553 LP  0  0  0  0  0  0  0  0  0  0  0  0  # atno 17320 bound_to 7965
  144.6730  140.0904  143.7465 LP  0  0  0  0  0  0  0  0  0  0  0  0  # atno 17321 bound_to 7965
  139.5277  144.3010  152.1073 LP  0  0  0  0  0  0  0  0  0  0  0  0  # atno 17342 bound_to 10162
  140.2187  144.4488  150.6352 LP  0  0  0  0  0  0  0  0  0  0  0  0  # atno 17343 bound_to 10162
  157.0483  130.5776  149.5366 LP  0  0  0  0  0  0  0  0  0  0  0  0  # atno 17370 bound_to 10713
  156.0100  130.5190  150.7957 LP  0  0  0  0  0  0  0  0  0  0  0  0  # atno 17371 bound_to 10713
  141.1449  133.6558  156.3839 LP  0  0  0  0  0  0  0  0  0  0  0  0  # atno 17394 bound_to 11000
  140.5167  134.6343  157.5304 LP  0  0  0  0  0  0  0  0  0  0  0  0  # atno 17395 bound_to 11000

$$$$
