AV-unprocessed.smi:2019|AV-procd|sdf|8171|dock9
  -GOLD-   2272010423D 1   1.00000     0.00000
 Structure written by MMmdl.
 36 37  0  0  0  0  0  0  0  0  1 V2000
  151.3373  141.0571  157.5383 O   0  0  0  0  0  0  0  0  0  0  0  0
  150.9825  142.1997  157.2458 C   0  0  0  0  0  0  0  0  0  0  0  0
  151.7104  143.4213  157.8235 C   0  0  0  0  0  0  0  0  0  0  0  0
  152.2637  143.1843  159.1672 N   0  0  0  0  0  0  0  0  0  0  0  0
  153.2080  142.1467  159.2995 C   0  0  0  0  0  0  0  0  0  0  0  0
  153.7730  141.8470  160.4798 C   0  0  0  0  0  0  0  0  0  0  0  0
  153.3899  142.6217  161.6363 C   0  0  0  0  0  0  0  0  0  0  0  0
  152.4854  143.6144  161.5215 C   0  0  0  0  0  0  0  0  0  0  0  0
  151.8639  143.9443  160.2336 C   0  0  0  0  0  0  0  0  0  0  0  0
  151.0366  144.8491  160.1200 O   0  0  0  0  0  0  0  0  0  0  0  0
  149.9684  142.4622  156.4060 N   0  0  0  0  0  0  0  0  0  0  0  0
  149.1214  141.4596  155.7558 C   0  0  2  0  0  0  0  0  0  0  0  0
  148.3972  140.6679  156.8692 C   0  0  0  0  0  0  0  0  0  0  0  0
  147.1091  139.9708  156.3980 C   0  0  0  0  0  0  0  0  0  0  0  0
  147.3171  138.8565  155.3608 C   0  0  0  0  0  0  0  0  0  0  0  0
  147.9229  139.3505  154.0360 C   0  0  0  0  0  0  0  0  0  0  0  0
  149.3582  139.5783  154.1406 N   0  0  0  0  0  0  0  0  0  0  0  0
  149.9769  140.4846  154.9126 C   0  0  0  0  0  0  0  0  0  0  0  0
  151.2065  140.5328  154.9496 O   0  0  0  0  0  0  0  0  0  0  0  0
  152.5004  143.7045  157.1268 H   0  0  0  0  0  0  0  0  0  0  0  0
  151.0303  144.2752  157.8464 H   0  0  0  0  0  0  0  0  0  0  0  0
  153.4348  141.6110  158.3892 H   0  0  0  0  0  0  0  0  0  0  0  0
  154.4921  141.0454  160.5626 H   0  0  0  0  0  0  0  0  0  0  0  0
  153.8297  142.4028  162.5983 H   0  0  0  0  0  0  0  0  0  0  0  0
  152.2098  144.1826  162.3978 H   0  0  0  0  0  0  0  0  0  0  0  0
  149.7436  143.4299  156.2260 H   0  0  0  0  0  0  0  0  0  0  0  0
  148.3927  141.9659  155.1200 H   0  0  0  0  0  0  0  0  0  0  0  0
  149.0690  139.9449  157.3359 H   0  0  0  0  0  0  0  0  0  0  0  0
  148.1121  141.3559  157.6666 H   0  0  0  0  0  0  0  0  0  0  0  0
  146.6080  139.5443  157.2676 H   0  0  0  0  0  0  0  0  0  0  0  0
  146.4207  140.7156  155.9962 H   0  0  0  0  0  0  0  0  0  0  0  0
  147.9304  138.0583  155.7815 H   0  0  0  0  0  0  0  0  0  0  0  0
  146.3468  138.4064  155.1492 H   0  0  0  0  0  0  0  0  0  0  0  0
  147.7743  138.5900  153.2690 H   0  0  0  0  0  0  0  0  0  0  0  0
  147.4167  140.2488  153.6797 H   0  0  0  0  0  0  0  0  0  0  0  0
  149.9468  138.9659  153.5942 H   0  0  0  0  0  0  0  0  0  0  0  0
  1  2  2  0  0  0  0
  2  3  1  0  0  0  0
  2 11  1  0  0  0  0
  3  4  1  0  0  0  0
  3 20  1  0  0  0  0
  3 21  1  0  0  0  0
  4  9  1  0  0  0  0
  4  5  1  0  0  0  0
  5  6  2  0  0  0  0
  5 22  1  0  0  0  0
  6  7  1  0  0  0  0
  6 23  1  0  0  0  0
  7  8  2  0  0  0  0
  7 24  1  0  0  0  0
  8  9  1  0  0  0  0
  8 25  1  0  0  0  0
  9 10  2  0  0  0  0
 11 12  1  0  0  0  0
 11 26  1  0  0  0  0
 12 18  1  0  0  0  0
 12 13  1  0  0  0  0
 12 27  1  0  0  0  0
 13 14  1  0  0  0  0
 13 28  1  0  0  0  0
 13 29  1  0  0  0  0
 14 15  1  0  0  0  0
 14 30  1  0  0  0  0
 14 31  1  0  0  0  0
 15 16  1  0  0  0  0
 15 32  1  0  0  0  0
 15 33  1  0  0  0  0
 16 17  1  0  0  0  0
 16 34  1  0  0  0  0
 16 35  1  0  0  0  0
 17 18  1  0  0  0  0
 17 36  1  0  0  0  0
 18 19  2  0  0  0  0
M  END
> <s_m_source_file>
AV-unprocessed.smi

> <i_m_source_file_index>
2019

> <i_lp_mmshare_version>
43012

> <i_f3d_flags>
0

> <s_epik_input>
Tz1jMVtjSF1bY0hdW2NIXVtjSF1uMVtDSDJdQyg9TylbTkhdW0NAQEhdMltDSDJdW0NIMl1bQ0gyXVtDSDJdW05IXUMyPU8=

> <s_epik_cmdline>
J2VwaWtfcHl0aG9uJywgJy1waCcsICc3LjAnLCAnLXRuJywgJzgnLCAnLW1hJywgJzIwMCcsICctbWV0YWxfYmluZGluZycsICctaW1hZScsICc8aW5maWxlLm1hZT4nLCAnLW9tYWUnLCAnPG91dGZpbGUubWFlPic=

> <r_lp_tautomer_probability>
1

> <r_epik_Ionization_Penalty>
3.70786e-07

> <r_epik_Ionization_Penalty_Charging>
3.17464e-07

> <r_epik_Ionization_Penalty_Neutral>
5.33217e-08

> <r_epik_State_Penalty>
-0

> <r_epik_Charging_Adjusted_Penalty>
3.17464e-07

> <i_epik_Tot_Q>
0

> <i_epik_Tot_abs_Q>
0

> <r_epik_Metal_State_Penalty>
-0

> <b_epik_Metal_Only>
0

> <s_lp_Force_Field>
OPLS_2005

> <r_lp_Energy>
20.44

> <b_lp_Chiralities_Consistent>
1

> <s_lp_Variant>
AV-unprocessed.smi:2019-1

> <Gold.Version>
5.8.1

> <Gold.Id.Protein>
6NUR|6NUR_protein|mol2

> <Gold.PLP.Fitness>
44.5457

> <Gold.PLP.PLP>
-39.2997

> <Gold.PLP.part.hbond>
-2.7610

> <Gold.PLP.part.metal>
0.0000

> <Gold.PLP.part.buried>
-5.3110

> <Gold.PLP.part.nonpolar>
-31.8997

> <Gold.PLP.part.repulsive>
0.4015

> <Gold.PLP.ligand.clash>
0.0000

> <Gold.PLP.ligand.torsion>
0.3775

> <Gold.PLP.Chemscore.Hbond>
2.0000

> <Gold.PLP.Chemscore.CHOScore>
0.0000

> <Gold.PLP.Chemscore.Metal>
0.0000

> <Gold.Chemscore.Hbonds>
donor molecule, donor type, donor heavy atom, donor atom, acceptor molecule, acceptor atom, score
      L1  H    11    26       P1  8028  1.00
      P1  H  7989  7998       L1    19  0.98

> <Gold.PLP.Chemscore.Internal.Correction>
0.0010

> <Gold.Rescore>
     Score         DG    S(hbond)    S(metal)    S(lipo)     H(rot)  DE(clash)    DE(int)     intcor
      9.95     -16.05       1.95        0.00      69.69       1.59       0.04       6.07       ----

> <Gold.Chemscore.Fitness>
9.9475

> <Gold.Chemscore.DG>
-16.0529

> <Gold.Chemscore.ZeroCoef>
-5.4800

> <Gold.Chemscore.Hbond>
1.9461

> <Gold.Chemscore.Metal>
0.0000

> <Gold.Chemscore.Lipo>
69.6879

> <Gold.Chemscore.Internal_Hbond>
0.0000

> <Gold.Chemscore.DEClash>
0.0354

> <Gold.Chemscore.DEInternal>
6.0701

> <Gold.Chemscore.Rot>
1.5939

> <Gold.Chemscore.Internal.Correction>
   9.000000E+99

> <Gold.Chemscore.Hbonds>
donor molecule, donor type, donor heavy atom, donor atom, acceptor molecule, acceptor atom, score
      L1  H    11    26       P1  8028  0.99
      P1  H  7989  7998       L1    19  0.44

> <Gold.Chemscore.Hbond.Weighted>
-6.4999

> <Gold.Chemscore.Metal.Weighted>
-0.0000

> <Gold.Chemscore.Lipo.Weighted>
-8.1535

> <Gold.Chemscore.Internal_Hbond.Weighted>
0.0000

> <Gold.Chemscore.DEClash.Weighted>
0.0354

> <Gold.Chemscore.DEInternal.Weighted>
6.0701

> <Gold.Chemscore.Rot.Weighted>
4.0804

> <Gold.Chemscore.Internal.Correction.Weighted>
   9.000000E+99

> <Gold.Protein.RotatedTorsions>
[ 6907 6896 6895 6894 ] final   39.61 input  -60.11 | X-H torsion
[ 7974 7965 7964 7962 ] final -160.99 input  175.53 | X-H torsion
[ 8008 7997 7996 7995 ] final  108.45 input   59.86 | X-H torsion
[ 10167 10162 10161 10158 ] final  140.91 input  -65.29 | X-H torsion
[ 10718 10713 10712 10709 ] final -116.76 input   66.30 | X-H torsion
[ 10763 10752 10751 10750 ] final   47.81 input  -60.55 | X-H torsion
[ 11005 11000 10999 10996 ] final  128.60 input  -57.11 | X-H torsion

> <Gold.Protein.ActiveResidues>
 VAL166  LYS551  ARG553  GLY616  TRP617  ASP618  TYR619  PRO620  LYS621  CYS622 
 ASP623  PHE694  ASN695  SER759  ASP760  ASP761  ALA762  ILE779  LEU786  VAL792 
 PHE793  MET794  SER795  GLU796  ALA797  LYS798  CYS799  TRP800  GLU811  SER814 

> <Gold.Protein.RotatedAtoms>
  152.1718  134.8828  160.0533 H   0  0  0  0  0  0  0  0  0  0  0  0  # atno 6907 bound_to 6896
  151.9785  133.3744  159.4106 H   0  0  0  0  0  0  0  0  0  0  0  0  # atno 6908 bound_to 6896
  150.6903  134.3987  159.5153 H   0  0  0  0  0  0  0  0  0  0  0  0  # atno 6909 bound_to 6896
  144.7407  140.3462  143.6125 H   0  0  0  0  0  0  0  0  0  0  0  0  # atno 7974 bound_to 7965
  156.1904  140.3076  155.9321 H   0  0  0  0  0  0  0  0  0  0  0  0  # atno 8008 bound_to 7997
  155.3186  140.0454  157.3055 H   0  0  0  0  0  0  0  0  0  0  0  0  # atno 8009 bound_to 7997
  154.5445  140.2272  155.8595 H   0  0  0  0  0  0  0  0  0  0  0  0  # atno 8010 bound_to 7997
  139.5035  144.6205  151.6063 H   0  0  0  0  0  0  0  0  0  0  0  0  # atno 10167 bound_to 10162
  156.0986  130.6153  150.9077 H   0  0  0  0  0  0  0  0  0  0  0  0  # atno 10718 bound_to 10713
  152.9797  135.5964  154.3823 H   0  0  0  0  0  0  0  0  0  0  0  0  # atno 10763 bound_to 10752
  154.3486  135.2767  155.2386 H   0  0  0  0  0  0  0  0  0  0  0  0  # atno 10764 bound_to 10752
  154.4435  135.6007  153.6200 H   0  0  0  0  0  0  0  0  0  0  0  0  # atno 10765 bound_to 10752
  139.9569  134.9611  156.9026 H   0  0  0  0  0  0  0  0  0  0  0  0  # atno 11005 bound_to 11000
  145.7323  139.1740  143.2423 LP  0  0  0  0  0  0  0  0  0  0  0  0  # atno 17320 bound_to 7965
  146.1197  140.7325  142.9463 LP  0  0  0  0  0  0  0  0  0  0  0  0  # atno 17321 bound_to 7965
  140.5905  143.9788  150.6322 LP  0  0  0  0  0  0  0  0  0  0  0  0  # atno 17342 bound_to 10162
  140.2967  143.3288  152.1011 LP  0  0  0  0  0  0  0  0  0  0  0  0  # atno 17343 bound_to 10162
  157.6152  131.0934  150.8723 LP  0  0  0  0  0  0  0  0  0  0  0  0  # atno 17370 bound_to 10713
  156.8856  130.5194  149.5288 LP  0  0  0  0  0  0  0  0  0  0  0  0  # atno 17371 bound_to 10713
  140.5588  134.0555  155.7392 LP  0  0  0  0  0  0  0  0  0  0  0  0  # atno 17394 bound_to 11000
  141.1242  133.9411  157.2669 LP  0  0  0  0  0  0  0  0  0  0  0  0  # atno 17395 bound_to 11000

$$$$
