AV-unprocessed.smi:1779|AV-procd|sdf|7181|dock6
  -GOLD-   22720 8423D 1   1.00000     0.00000
 Structure written by MMmdl.
 47 48  0  0  0  0  0  0  0  0  2 V2000
  151.1692  142.5802  157.1606 C   0  0  0  0  0  0  0  0  0  0  0  0
  150.8230  141.4853  156.1951 C   0  0  0  0  0  0  0  0  0  0  0  0
  149.6954  141.4035  155.3270 C   0  0  0  0  0  0  0  0  0  0  0  0
  149.8934  140.2097  154.6885 C   0  0  0  0  0  0  0  0  0  0  0  0
  149.1311  139.6153  153.7326 N   0  0  0  0  0  0  0  0  0  0  0  0
  147.8433  139.2363  153.8031 C   0  0  0  0  0  0  0  0  0  0  0  0
  147.1144  139.3596  154.7875 O   0  0  0  0  0  0  0  0  0  0  0  0
  147.4396  138.6779  152.6531 N   0  0  0  0  0  0  0  0  0  0  0  0
  146.1010  138.1588  152.3891 C   0  0  0  0  0  0  0  0  0  0  0  0
  146.1302  136.9290  151.4601 C   0  0  2  0  0  0  0  0  0  0  0  0
  146.1849  137.3975  150.1277 O   0  0  0  0  0  0  0  0  0  0  0  0
  144.8985  136.0097  151.6108 C   0  0  0  0  0  0  0  0  0  0  0  0
  145.0492  134.7328  150.8669 N   0  3  0  0  0  0  0  0  0  0  0  0
  143.9510  133.7750  151.1596 C   0  0  0  0  0  0  0  0  0  0  0  0
  144.0529  132.5227  150.2719 C   0  0  0  0  0  0  0  0  0  0  0  0
  145.4216  131.8474  150.4274 C   0  0  0  0  0  0  0  0  0  0  0  0
  146.5391  132.8619  150.1530 C   0  0  0  0  0  0  0  0  0  0  0  0
  146.3859  134.1042  151.0462 C   0  0  0  0  0  0  0  0  0  0  0  0
  151.0590  139.6435  155.1542 N   0  0  0  0  0  0  0  0  0  0  0  0
  151.6896  138.3926  154.7805 C   0  0  0  0  0  0  0  0  0  0  0  0
  151.6291  140.4350  156.0881 N   0  0  0  0  0  0  0  0  0  0  0  0
  150.4603  143.4055  157.0918 H   0  0  0  0  0  0  0  0  0  0  0  0
  152.1636  142.9806  156.9609 H   0  0  0  0  0  0  0  0  0  0  0  0
  151.1553  142.2158  158.1881 H   0  0  0  0  0  0  0  0  0  0  0  0
  148.8918  142.1142  155.2061 H   0  0  0  0  0  0  0  0  0  0  0  0
  149.6063  139.4218  152.8633 H   0  0  0  0  0  0  0  0  0  0  0  0
  148.1045  138.6196  151.8953 H   0  0  0  0  0  0  0  0  0  0  0  0
  145.5682  137.9368  153.3156 H   0  0  0  0  0  0  0  0  0  0  0  0
  145.5461  138.9655  151.9083 H   0  0  0  0  0  0  0  0  0  0  0  0
  147.0499  136.3758  151.6485 H   0  0  0  0  0  0  0  0  0  0  0  0
  145.3051  137.5796  149.8332 H   0  0  0  0  0  0  0  0  0  0  0  0
  144.7051  135.7787  152.6584 H   0  0  0  0  0  0  0  0  0  0  0  0
  144.0199  136.5498  151.2540 H   0  0  0  0  0  0  0  0  0  0  0  0
  143.9818  133.4944  152.2138 H   0  0  0  0  0  0  0  0  0  0  0  0
  142.9869  134.2552  150.9865 H   0  0  0  0  0  0  0  0  0  0  0  0
  143.2594  131.8193  150.5269 H   0  0  0  0  0  0  0  0  0  0  0  0
  143.8976  132.7997  149.2282 H   0  0  0  0  0  0  0  0  0  0  0  0
  145.5241  131.4484  151.4374 H   0  0  0  0  0  0  0  0  0  0  0  0
  145.5049  131.0000  149.7462 H   0  0  0  0  0  0  0  0  0  0  0  0
  147.5121  132.3991  150.3209 H   0  0  0  0  0  0  0  0  0  0  0  0
  146.5151  133.1603  149.1038 H   0  0  0  0  0  0  0  0  0  0  0  0
  147.1762  134.8130  150.8020 H   0  0  0  0  0  0  0  0  0  0  0  0
  146.5231  133.8304  152.0936 H   0  0  0  0  0  0  0  0  0  0  0  0
  150.9647  137.5807  154.8473 H   0  0  0  0  0  0  0  0  0  0  0  0
  152.5274  138.1716  155.4435 H   0  0  0  0  0  0  0  0  0  0  0  0
  152.0563  138.4614  153.7560 H   0  0  0  0  0  0  0  0  0  0  0  0
  144.9622  134.9677  149.8880 H   0  0  0  0  0  0  0  0  0  0  0  0
  1  2  1  0  0  0  0
  1 22  1  0  0  0  0
  1 23  1  0  0  0  0
  1 24  1  0  0  0  0
  2 21  2  0  0  0  0
  2  3  1  0  0  0  0
  3  4  2  0  0  0  0
  3 25  1  0  0  0  0
  4  5  1  0  0  0  0
  4 19  1  0  0  0  0
  5  6  1  0  0  0  0
  5 26  1  0  0  0  0
  6  7  2  0  0  0  0
  6  8  1  0  0  0  0
  8  9  1  0  0  0  0
  8 27  1  0  0  0  0
  9 10  1  0  0  0  0
  9 28  1  0  0  0  0
  9 29  1  0  0  0  0
 10 11  1  0  0  0  0
 10 12  1  0  0  0  0
 10 30  1  0  0  0  0
 11 31  1  0  0  0  0
 12 13  1  0  0  0  0
 12 32  1  0  0  0  0
 12 33  1  0  0  0  0
 13 18  1  0  0  0  0
 13 14  1  0  0  0  0
 13 47  1  0  0  0  0
 14 15  1  0  0  0  0
 14 34  1  0  0  0  0
 14 35  1  0  0  0  0
 15 16  1  0  0  0  0
 15 36  1  0  0  0  0
 15 37  1  0  0  0  0
 16 17  1  0  0  0  0
 16 38  1  0  0  0  0
 16 39  1  0  0  0  0
 17 18  1  0  0  0  0
 17 40  1  0  0  0  0
 17 41  1  0  0  0  0
 18 42  1  0  0  0  0
 18 43  1  0  0  0  0
 19 20  1  0  0  0  0
 19 21  1  0  0  0  0
 20 44  1  0  0  0  0
 20 45  1  0  0  0  0
 20 46  1  0  0  0  0
M  CHG  1  13   1
M  END
> <s_m_source_file>
AV-unprocessed.smi

> <i_m_source_file_index>
1779

> <i_lp_mmshare_version>
43012

> <i_f3d_flags>
0

> <s_epik_input>
W0NIM11jMVtjSF1jKG4objEpW0NIM10pW05IXUMoPU8pW05IXVtDSDJdW0NASF0oW09IXSlbQ0gyXU4yW0NIMl1bQ0gyXVtDSDJdW0NIMl1bQ0gyXTI=

> <s_epik_cmdline>
J2VwaWtfcHl0aG9uJywgJy1waCcsICc3LjAnLCAnLXRuJywgJzgnLCAnLW1hJywgJzIwMCcsICctbWV0YWxfYmluZGluZycsICctaW1hZScsICc8aW5maWxlLm1hZT4nLCAnLW9tYWUnLCAnPG91dGZpbGUubWFlPic=

> <r_lp_tautomer_probability>
1

> <r_epik_Ionization_Penalty>
0.00528203

> <r_epik_Ionization_Penalty_Charging>
0.00519125

> <r_epik_Ionization_Penalty_Neutral>
9.07781e-05

> <r_epik_State_Penalty>
0.0037836

> <r_epik_Charging_Adjusted_Penalty>
0.00897485

> <i_epik_Tot_Q>
1

> <i_epik_Tot_abs_Q>
1

> <r_epik_Metal_State_Penalty>
-0

> <b_epik_Metal_Only>
0

> <s_lp_Force_Field>
OPLS_2005

> <r_lp_Energy>
18.32

> <b_lp_Chiralities_Consistent>
1

> <s_lp_Variant>
AV-unprocessed.smi:1779-1

> <Gold.Version>
5.8.1

> <Gold.Id.Protein>
6NUR|6NUR_protein|mol2

> <Gold.PLP.Fitness>
50.7263

> <Gold.PLP.PLP>
-44.3792

> <Gold.PLP.part.hbond>
-5.0000

> <Gold.PLP.part.metal>
0.0000

> <Gold.PLP.part.buried>
-1.7068

> <Gold.PLP.part.nonpolar>
-37.4030

> <Gold.PLP.part.repulsive>
0.2885

> <Gold.PLP.ligand.clash>
0.0000

> <Gold.PLP.ligand.torsion>
1.1013

> <Gold.PLP.Chemscore.Hbond>
2.8339

> <Gold.PLP.Chemscore.CHOScore>
0.0000

> <Gold.PLP.Chemscore.Metal>
0.0000

> <Gold.Chemscore.Hbonds>
donor molecule, donor type, donor heavy atom, donor atom, acceptor molecule, acceptor atom, score
      L1  H     5    26       P1  7957  0.78
      L1  H     8    27       P1  7957  0.45
      L1  H    11    31       P1 10171  1.00
      P1  H  7954  7966       L1    11  0.68

> <Gold.PLP.Chemscore.Internal.Correction>
0.0481

> <Gold.Rescore>
     Score         DG    S(hbond)    S(metal)    S(lipo)     H(rot)  DE(clash)    DE(int)     intcor
     19.29     -21.76       3.45        0.00      92.09       2.36       1.56       0.91       ----

> <Gold.Chemscore.Fitness>
19.2896

> <Gold.Chemscore.DG>
-21.7564

> <Gold.Chemscore.ZeroCoef>
-5.4800

> <Gold.Chemscore.Hbond>
3.4536

> <Gold.Chemscore.Metal>
0.0000

> <Gold.Chemscore.Lipo>
92.0935

> <Gold.Chemscore.Internal_Hbond>
0.0000

> <Gold.Chemscore.DEClash>
1.5586

> <Gold.Chemscore.DEInternal>
0.9082

> <Gold.Chemscore.Rot>
2.3569

> <Gold.Chemscore.Internal.Correction>
   9.000000E+99

> <Gold.Chemscore.Hbonds>
donor molecule, donor type, donor heavy atom, donor atom, acceptor molecule, acceptor atom, score
      L1  H     5    26       P1  7957  0.78
      L1  H     8    27       P1  7957  0.36
      L1  H    11    31       P1 10171  0.96
      P1  H  7954  7966       L1    11  0.28

> <Gold.Chemscore.Hbond.Weighted>
-11.5351

> <Gold.Chemscore.Metal.Weighted>
-0.0000

> <Gold.Chemscore.Lipo.Weighted>
-10.7749

> <Gold.Chemscore.Internal_Hbond.Weighted>
0.0000

> <Gold.Chemscore.DEClash.Weighted>
1.5586

> <Gold.Chemscore.DEInternal.Weighted>
0.9082

> <Gold.Chemscore.Rot.Weighted>
6.0337

> <Gold.Chemscore.Internal.Correction.Weighted>
   9.000000E+99

> <Gold.Protein.RotatedTorsions>
[ 6907 6896 6895 6894 ] final  140.59 input  -60.11 | X-H torsion
[ 7974 7965 7964 7962 ] final  143.02 input  175.53 | X-H torsion
[ 8008 7997 7996 7995 ] final -131.28 input   59.86 | X-H torsion
[ 10167 10162 10161 10158 ] final  -45.48 input  -65.29 | X-H torsion
[ 10718 10713 10712 10709 ] final  -95.62 input   66.30 | X-H torsion
[ 10763 10752 10751 10750 ] final -160.46 input  -60.55 | X-H torsion
[ 11005 11000 10999 10996 ] final -136.65 input  -57.11 | X-H torsion

> <Gold.Protein.ActiveResidues>
 VAL166  LYS551  ARG553  GLY616  TRP617  ASP618  TYR619  PRO620  LYS621  CYS622 
 ASP623  PHE694  ASN695  SER759  ASP760  ASP761  ALA762  ILE779  LEU786  VAL792 
 PHE793  MET794  SER795  GLU796  ALA797  LYS798  CYS799  TRP800  GLU811  SER814 

> <Gold.Protein.RotatedAtoms>
  152.2412  133.5137  159.5270 H   0  0  0  0  0  0  0  0  0  0  0  0  # atno 6907 bound_to 6896
  150.7065  134.1086  159.4001 H   0  0  0  0  0  0  0  0  0  0  0  0  # atno 6908 bound_to 6896
  151.9007  135.0379  160.0557 H   0  0  0  0  0  0  0  0  0  0  0  0  # atno 6909 bound_to 6896
  144.8956  139.5495  143.5777 H   0  0  0  0  0  0  0  0  0  0  0  0  # atno 7974 bound_to 7965
  155.3098  140.0457  157.3034 H   0  0  0  0  0  0  0  0  0  0  0  0  # atno 8008 bound_to 7997
  154.5439  140.2296  155.8561 H   0  0  0  0  0  0  0  0  0  0  0  0  # atno 8009 bound_to 7997
  156.1906  140.3051  155.9332 H   0  0  0  0  0  0  0  0  0  0  0  0  # atno 8010 bound_to 7997
  140.6856  143.2877  151.3645 H   0  0  0  0  0  0  0  0  0  0  0  0  # atno 10167 bound_to 10162
  156.0047  130.5117  150.6104 H   0  0  0  0  0  0  0  0  0  0  0  0  # atno 10718 bound_to 10713
  154.7388  135.3063  154.8764 H   0  0  0  0  0  0  0  0  0  0  0  0  # atno 10763 bound_to 10752
  153.9585  135.6755  153.4749 H   0  0  0  0  0  0  0  0  0  0  0  0  # atno 10764 bound_to 10752
  153.0988  135.4922  154.8753 H   0  0  0  0  0  0  0  0  0  0  0  0  # atno 10765 bound_to 10752
  140.8785  134.1961  157.4606 H   0  0  0  0  0  0  0  0  0  0  0  0  # atno 11005 bound_to 11000
  146.3079  139.7645  142.9042 LP  0  0  0  0  0  0  0  0  0  0  0  0  # atno 17320 bound_to 7965
  145.3705  141.0342  143.3234 LP  0  0  0  0  0  0  0  0  0  0  0  0  # atno 17321 bound_to 7965
  139.6212  144.0903  152.2393 LP  0  0  0  0  0  0  0  0  0  0  0  0  # atno 17342 bound_to 10162
  140.0348  144.6053  150.7458 LP  0  0  0  0  0  0  0  0  0  0  0  0  # atno 17343 bound_to 10162
  157.3937  131.0799  151.1370 LP  0  0  0  0  0  0  0  0  0  0  0  0  # atno 17370 bound_to 10713
  157.2054  130.6413  149.5754 LP  0  0  0  0  0  0  0  0  0  0  0  0  # atno 17371 bound_to 10713
  139.8717  134.9806  156.5084 LP  0  0  0  0  0  0  0  0  0  0  0  0  # atno 17394 bound_to 11000
  140.8489  133.8147  155.9149 LP  0  0  0  0  0  0  0  0  0  0  0  0  # atno 17395 bound_to 11000

$$$$
