AV-unprocessed.smi:1509|AV-procd|sdf|6093|dock3
  -GOLD-   22720 6223D 1   1.00000     0.00000
 Structure written by MMmdl.
 42 43  0  0  0  0  0  0  0  0  2 V2000
  146.6708  131.6187  152.3993 C   0  0  0  0  0  0  0  0  0  0  0  0
  146.0898  132.4599  151.2542 C   0  0  1  0  0  0  0  0  0  0  0  0
  144.6307  132.0739  150.9587 C   0  0  0  0  0  0  0  0  0  0  0  0
  144.0660  132.9496  149.8331 C   0  0  0  0  0  0  0  0  0  0  0  0
  144.2185  134.4419  150.1678 C   0  0  0  0  0  0  0  0  0  0  0  0
  145.6379  134.7853  150.4407 N   0  3  1  0  0  0  0  0  0  0  0  0
  145.8384  136.2440  150.6323 C   0  0  0  0  0  0  0  0  0  0  0  0
  145.3274  136.7287  151.9996 C   0  0  0  0  0  0  0  0  0  0  0  0
  146.0733  137.9809  152.4896 C   0  0  0  0  0  0  0  0  0  0  0  0
  147.1637  137.6375  153.3946 N   0  0  0  0  0  0  0  0  0  0  0  0
  147.1133  137.7367  154.7330 C   0  0  0  0  0  0  0  0  0  0  0  0
  146.1306  138.1597  155.3412 O   0  0  0  0  0  0  0  0  0  0  0  0
  148.3628  137.3085  155.5066 C   0  0  0  0  0  0  0  0  0  0  0  0
  149.4723  138.2171  155.2810 N   0  0  0  0  0  0  0  0  0  0  0  0
  150.0404  138.6427  154.1508 C   0  0  0  0  0  0  0  0  0  0  0  0
  151.0456  139.4707  154.3904 N   0  0  0  0  0  0  0  0  0  0  0  0
  151.0714  139.5421  155.7736 N   0  0  0  0  0  0  0  0  0  0  0  0
  150.1397  138.8008  156.3076 N   0  0  0  0  0  0  0  0  0  0  0  0
  146.1927  133.9690  151.5541 C   0  0  0  0  0  0  0  0  0  0  0  0
  146.1238  131.7812  153.3287 H   0  0  0  0  0  0  0  0  0  0  0  0
  147.7163  131.8697  152.5808 H   0  0  0  0  0  0  0  0  0  0  0  0
  146.6239  130.5543  152.1678 H   0  0  0  0  0  0  0  0  0  0  0  0
  146.6820  132.2525  150.3615 H   0  0  0  0  0  0  0  0  0  0  0  0
  144.5663  131.0219  150.6785 H   0  0  0  0  0  0  0  0  0  0  0  0
  144.0236  132.1953  151.8569 H   0  0  0  0  0  0  0  0  0  0  0  0
  144.5856  132.7281  148.8999 H   0  0  0  0  0  0  0  0  0  0  0  0
  143.0152  132.7103  149.6665 H   0  0  0  0  0  0  0  0  0  0  0  0
  143.8496  135.0331  149.3287 H   0  0  0  0  0  0  0  0  0  0  0  0
  143.6061  134.7007  151.0331 H   0  0  0  0  0  0  0  0  0  0  0  0
  146.9040  136.4714  150.5756 H   0  0  0  0  0  0  0  0  0  0  0  0
  145.3635  136.7958  149.8195 H   0  0  0  0  0  0  0  0  0  0  0  0
  144.2615  136.9503  151.9519 H   0  0  0  0  0  0  0  0  0  0  0  0
  145.4432  135.9252  152.7284 H   0  0  0  0  0  0  0  0  0  0  0  0
  146.4573  138.5555  151.6447 H   0  0  0  0  0  0  0  0  0  0  0  0
  145.3858  138.6377  153.0229 H   0  0  0  0  0  0  0  0  0  0  0  0
  148.0107  137.2816  152.9750 H   0  0  0  0  0  0  0  0  0  0  0  0
  148.1409  137.2779  156.5740 H   0  0  0  0  0  0  0  0  0  0  0  0
  148.6633  136.3021  155.2106 H   0  0  0  0  0  0  0  0  0  0  0  0
  149.7236  138.3450  153.1620 H   0  0  0  0  0  0  0  0  0  0  0  0
  145.6612  134.2068  152.4772 H   0  0  0  0  0  0  0  0  0  0  0  0
  147.2383  134.2269  151.7202 H   0  0  0  0  0  0  0  0  0  0  0  0
  146.1497  134.5340  149.6066 H   0  0  0  0  0  0  0  0  0  0  0  0
  1  2  1  0  0  0  0
  1 20  1  0  0  0  0
  1 21  1  0  0  0  0
  1 22  1  0  0  0  0
  2 19  1  0  0  0  0
  2  3  1  0  0  0  0
  2 23  1  0  0  0  0
  3  4  1  0  0  0  0
  3 24  1  0  0  0  0
  3 25  1  0  0  0  0
  4  5  1  0  0  0  0
  4 26  1  0  0  0  0
  4 27  1  0  0  0  0
  5  6  1  0  0  0  0
  5 28  1  0  0  0  0
  5 29  1  0  0  0  0
  6  7  1  0  0  0  0
  6 19  1  0  0  0  0
  6 42  1  0  0  0  0
  7  8  1  0  0  0  0
  7 30  1  0  0  0  0
  7 31  1  0  0  0  0
  8  9  1  0  0  0  0
  8 32  1  0  0  0  0
  8 33  1  0  0  0  0
  9 10  1  0  0  0  0
  9 34  1  0  0  0  0
  9 35  1  0  0  0  0
 10 11  1  0  0  0  0
 10 36  1  0  0  0  0
 11 12  2  0  0  0  0
 11 13  1  0  0  0  0
 13 14  1  0  0  0  0
 13 37  1  0  0  0  0
 13 38  1  0  0  0  0
 14 18  1  0  0  0  0
 14 15  1  0  0  0  0
 15 16  2  0  0  0  0
 15 39  1  0  0  0  0
 16 17  1  0  0  0  0
 17 18  2  0  0  0  0
 19 40  1  0  0  0  0
 19 41  1  0  0  0  0
M  CHG  1   6   1
M  END
> <s_m_source_file>
AV-unprocessed.smi

> <i_m_source_file_index>
1509

> <i_lp_mmshare_version>
43012

> <i_f3d_flags>
0

> <s_epik_input>
W0NIM11bQ0BASF0xW0NIMl1bQ0gyXVtDSDJdTihbQ0gyXTEpW0NIMl1bQ0gyXVtDSDJdW05IXUMoPU8pW0NIMl1uMltjSF1ubm4y

> <s_epik_cmdline>
J2VwaWtfcHl0aG9uJywgJy1waCcsICc3LjAnLCAnLXRuJywgJzgnLCAnLW1hJywgJzIwMCcsICctbWV0YWxfYmluZGluZycsICctaW1hZScsICc8aW5maWxlLm1hZT4nLCAnLW9tYWUnLCAnPG91dGZpbGUubWFlPic=

> <r_lp_tautomer_probability>
1

> <r_epik_Ionization_Penalty>
0.00044216

> <r_epik_Ionization_Penalty_Charging>
0.000440775

> <r_epik_Ionization_Penalty_Neutral>
1.38512e-06

> <r_epik_State_Penalty>
0.000271914

> <r_epik_Charging_Adjusted_Penalty>
0.000712689

> <i_epik_Tot_Q>
1

> <i_epik_Tot_abs_Q>
1

> <r_epik_Metal_State_Penalty>
-0

> <b_epik_Metal_Only>
0

> <s_lp_Force_Field>
OPLS_2005

> <r_lp_Energy>
20.7135

> <b_lp_Chiralities_Consistent>
1

> <s_lp_Variant>
AV-unprocessed.smi:1509-4

> <Gold.Version>
5.8.1

> <Gold.Id.Protein>
6NUR|6NUR_protein|mol2

> <Gold.PLP.Fitness>
40.2507

> <Gold.PLP.PLP>
-27.8969

> <Gold.PLP.part.hbond>
-3.0000

> <Gold.PLP.part.metal>
0.0000

> <Gold.PLP.part.buried>
-1.5238

> <Gold.PLP.part.nonpolar>
-23.1205

> <Gold.PLP.part.repulsive>
0.2847

> <Gold.PLP.ligand.clash>
0.0000

> <Gold.PLP.ligand.torsion>
0.7108

> <Gold.PLP.Chemscore.Hbond>
2.8480

> <Gold.PLP.Chemscore.CHOScore>
1.7292

> <Gold.PLP.Chemscore.Metal>
0.0000

> <Gold.Chemscore.Hbonds>
donor molecule, donor type, donor heavy atom, donor atom, acceptor molecule, acceptor atom, score
      L1  H     6    42       P1  7921  0.83
      L1  H    10    36       P1  7948  1.00
      P1  H  7989  7998       L1    16  1.00
      L1  C    15    39       P1  7948  0.94
      L1  C    15    39       P1  7957  0.69

> <Gold.PLP.Chemscore.Internal.Correction>
0.0438

> <Gold.Rescore>
     Score         DG    S(hbond)    S(metal)    S(lipo)     H(rot)  DE(clash)    DE(int)     intcor
     13.42     -14.28       2.55        0.00      67.51       2.97       0.13       0.73       ----

> <Gold.Chemscore.Fitness>
13.4158

> <Gold.Chemscore.DG>
-14.2830

> <Gold.Chemscore.ZeroCoef>
-5.4800

> <Gold.Chemscore.Hbond>
2.5454

> <Gold.Chemscore.Metal>
0.0000

> <Gold.Chemscore.Lipo>
67.5145

> <Gold.Chemscore.Internal_Hbond>
0.0000

> <Gold.Chemscore.DEClash>
0.1346

> <Gold.Chemscore.DEInternal>
0.7326

> <Gold.Chemscore.Rot>
2.9680

> <Gold.Chemscore.Internal.Correction>
   9.000000E+99

> <Gold.Chemscore.Hbonds>
donor molecule, donor type, donor heavy atom, donor atom, acceptor molecule, acceptor atom, score
      L1  H     6    42       P1  7921  0.28
      L1  H    10    36       P1  7948  0.98
      P1  H  7989  7998       L1    16  0.96

> <Gold.Chemscore.Hbond.Weighted>
-8.5017

> <Gold.Chemscore.Metal.Weighted>
-0.0000

> <Gold.Chemscore.Lipo.Weighted>
-7.8992

> <Gold.Chemscore.Internal_Hbond.Weighted>
0.0000

> <Gold.Chemscore.DEClash.Weighted>
0.1346

> <Gold.Chemscore.DEInternal.Weighted>
0.7326

> <Gold.Chemscore.Rot.Weighted>
7.5980

> <Gold.Chemscore.Internal.Correction.Weighted>
   9.000000E+99

> <Gold.Protein.RotatedTorsions>
[ 6907 6896 6895 6894 ] final   80.03 input  -60.11 | X-H torsion
[ 7974 7965 7964 7962 ] final  136.40 input  175.53 | X-H torsion
[ 8008 7997 7996 7995 ] final  -43.47 input   59.86 | X-H torsion
[ 10167 10162 10161 10158 ] final  128.78 input  -65.29 | X-H torsion
[ 10718 10713 10712 10709 ] final  176.96 input   66.30 | X-H torsion
[ 10763 10752 10751 10750 ] final   61.97 input  -60.55 | X-H torsion
[ 11005 11000 10999 10996 ] final  122.69 input  -57.11 | X-H torsion

> <Gold.Protein.ActiveResidues>
 VAL166  LYS551  ARG553  GLY616  TRP617  ASP618  TYR619  PRO620  LYS621  CYS622 
 ASP623  PHE694  ASN695  SER759  ASP760  ASP761  ALA762  ILE779  LEU786  VAL792 
 PHE793  MET794  SER795  GLU796  ALA797  LYS798  CYS799  TRP800  GLU811  SER814 

> <Gold.Protein.RotatedAtoms>
  152.5220  134.3420  159.9220 H   0  0  0  0  0  0  0  0  0  0  0  0  # atno 6907 bound_to 6896
  151.3369  133.3971  159.2675 H   0  0  0  0  0  0  0  0  0  0  0  0  # atno 6908 bound_to 6896
  150.9835  134.9203  159.7916 H   0  0  0  0  0  0  0  0  0  0  0  0  # atno 6909 bound_to 6896
  144.9569  139.4755  143.5499 H   0  0  0  0  0  0  0  0  0  0  0  0  # atno 7974 bound_to 7965
  154.3997  140.1447  156.3524 H   0  0  0  0  0  0  0  0  0  0  0  0  # atno 8008 bound_to 7997
  155.8256  140.3468  155.5520 H   0  0  0  0  0  0  0  0  0  0  0  0  # atno 8009 bound_to 7997
  155.8242  140.0902  157.1822 H   0  0  0  0  0  0  0  0  0  0  0  0  # atno 8010 bound_to 7997
  139.5510  144.6813  151.4324 H   0  0  0  0  0  0  0  0  0  0  0  0  # atno 10167 bound_to 10162
  156.9124  130.9914  151.3018 H   0  0  0  0  0  0  0  0  0  0  0  0  # atno 10718 bound_to 10713
  152.9967  135.5482  154.6118 H   0  0  0  0  0  0  0  0  0  0  0  0  # atno 10763 bound_to 10752
  154.5437  135.2821  155.1074 H   0  0  0  0  0  0  0  0  0  0  0  0  # atno 10764 bound_to 10752
  154.2342  135.6428  153.5238 H   0  0  0  0  0  0  0  0  0  0  0  0  # atno 10765 bound_to 10752
  139.9279  134.9641  156.8147 H   0  0  0  0  0  0  0  0  0  0  0  0  # atno 11005 bound_to 11000
  146.3340  139.8692  142.8843 LP  0  0  0  0  0  0  0  0  0  0  0  0  # atno 17320 bound_to 7965
  145.2759  141.0123  143.3745 LP  0  0  0  0  0  0  0  0  0  0  0  0  # atno 17321 bound_to 7965
  140.6772  143.8163  150.7074 LP  0  0  0  0  0  0  0  0  0  0  0  0  # atno 17342 bound_to 10162
  140.1605  143.4279  152.2070 LP  0  0  0  0  0  0  0  0  0  0  0  0  # atno 17343 bound_to 10162
  157.5959  130.8477  149.8729 LP  0  0  0  0  0  0  0  0  0  0  0  0  # atno 17370 bound_to 10713
  156.0530  130.3714  150.1157 LP  0  0  0  0  0  0  0  0  0  0  0  0  # atno 17371 bound_to 10713
  140.6283  133.9929  155.7650 LP  0  0  0  0  0  0  0  0  0  0  0  0  # atno 17394 bound_to 11000
  141.0849  134.0005  157.3328 LP  0  0  0  0  0  0  0  0  0  0  0  0  # atno 17395 bound_to 11000

$$$$
