AV-unprocessed.smi:1278|AV-procd|sdf|5349|dock7
  -GOLD-   22720 4483D 1   1.00000     0.00000
 Structure written by MMmdl.
 39 40  0  0  0  0  0  0  0  0  2 V2000
  146.4969  132.4280  151.3989 C   0  0  0  0  0  0  0  0  0  0  0  0
  145.2008  132.9462  152.0470 C   0  0  2  0  0  0  0  0  0  0  0  0
  144.0900  133.2294  151.0187 C   0  0  0  0  0  0  0  0  0  0  0  0
  144.3787  134.5121  150.2264 C   0  0  0  0  0  0  0  0  0  0  0  0
  144.6380  135.6971  151.1702 C   0  0  0  0  0  0  0  0  0  0  0  0
  145.7417  135.3966  152.1186 N   0  3  1  0  0  0  0  0  0  0  0  0
  146.1157  136.5772  152.9374 C   0  0  0  0  0  0  0  0  0  0  0  0
  146.1635  137.8753  152.1083 C   0  0  0  0  0  0  0  0  0  0  0  0
  147.3309  138.6826  152.4439 N   0  0  0  0  0  0  0  0  0  0  0  0
  147.6462  139.0971  153.6796 C   0  0  0  0  0  0  0  0  0  0  0  0
  146.9748  138.8237  154.6751 O   0  0  0  0  0  0  0  0  0  0  0  0
  148.7730  139.8307  153.6768 N   0  0  0  0  0  0  0  0  0  0  0  0
  149.4244  140.4427  154.7800 C   0  0  0  0  0  0  0  0  0  0  0  0
  150.7500  140.4516  154.9636 N   0  0  0  0  0  0  0  0  0  0  0  0
  151.1125  141.1236  156.1340 C   0  0  0  0  0  0  0  0  0  0  0  0
  150.0428  141.6252  156.8327 C   0  0  0  0  0  0  0  0  0  0  0  0
  148.5283  141.2706  156.0451 S   0  0  0  0  0  0  0  0  0  0  0  0
  145.4479  134.1855  152.9323 C   0  0  0  0  0  0  0  0  0  0  0  0
  146.9498  133.1699  150.7413 H   0  0  0  0  0  0  0  0  0  0  0  0
  146.3079  131.5321  150.8071 H   0  0  0  0  0  0  0  0  0  0  0  0
  147.2349  132.1677  152.1579 H   0  0  0  0  0  0  0  0  0  0  0  0
  144.8430  132.1466  152.6972 H   0  0  0  0  0  0  0  0  0  0  0  0
  143.9687  132.3837  150.3406 H   0  0  0  0  0  0  0  0  0  0  0  0
  143.1382  133.3406  151.5403 H   0  0  0  0  0  0  0  0  0  0  0  0
  145.2411  134.3636  149.5758 H   0  0  0  0  0  0  0  0  0  0  0  0
  143.5380  134.7384  149.5700 H   0  0  0  0  0  0  0  0  0  0  0  0
  144.8893  136.5755  150.5744 H   0  0  0  0  0  0  0  0  0  0  0  0
  143.7329  135.9406  151.7290 H   0  0  0  0  0  0  0  0  0  0  0  0
  145.3774  136.7051  153.7303 H   0  0  0  0  0  0  0  0  0  0  0  0
  147.0705  136.3971  153.4339 H   0  0  0  0  0  0  0  0  0  0  0  0
  146.2199  137.6555  151.0429 H   0  0  0  0  0  0  0  0  0  0  0  0
  145.2526  138.4581  152.2574 H   0  0  0  0  0  0  0  0  0  0  0  0
  147.9353  138.9526  151.6815 H   0  0  0  0  0  0  0  0  0  0  0  0
  149.2173  139.9707  152.7814 H   0  0  0  0  0  0  0  0  0  0  0  0
  152.1580  141.1976  156.3946 H   0  0  0  0  0  0  0  0  0  0  0  0
  150.0541  142.1793  157.7595 H   0  0  0  0  0  0  0  0  0  0  0  0
  144.5687  134.3777  153.5496 H   0  0  0  0  0  0  0  0  0  0  0  0
  146.2663  133.9756  153.6200 H   0  0  0  0  0  0  0  0  0  0  0  0
  146.5473  135.1808  151.5486 H   0  0  0  0  0  0  0  0  0  0  0  0
  1  2  1  0  0  0  0
  1 19  1  0  0  0  0
  1 20  1  0  0  0  0
  1 21  1  0  0  0  0
  2 18  1  0  0  0  0
  2  3  1  0  0  0  0
  2 22  1  0  0  0  0
  3  4  1  0  0  0  0
  3 23  1  0  0  0  0
  3 24  1  0  0  0  0
  4  5  1  0  0  0  0
  4 25  1  0  0  0  0
  4 26  1  0  0  0  0
  5  6  1  0  0  0  0
  5 27  1  0  0  0  0
  5 28  1  0  0  0  0
  6  7  1  0  0  0  0
  6 18  1  0  0  0  0
  6 39  1  0  0  0  0
  7  8  1  0  0  0  0
  7 29  1  0  0  0  0
  7 30  1  0  0  0  0
  8  9  1  0  0  0  0
  8 31  1  0  0  0  0
  8 32  1  0  0  0  0
  9 10  1  0  0  0  0
  9 33  1  0  0  0  0
 10 11  2  0  0  0  0
 10 12  1  0  0  0  0
 12 13  1  0  0  0  0
 12 34  1  0  0  0  0
 13 17  1  0  0  0  0
 13 14  2  0  0  0  0
 14 15  1  0  0  0  0
 15 16  2  0  0  0  0
 15 35  1  0  0  0  0
 16 17  1  0  0  0  0
 16 36  1  0  0  0  0
 18 37  1  0  0  0  0
 18 38  1  0  0  0  0
M  CHG  1   6   1
M  END
> <s_m_source_file>
AV-unprocessed.smi

> <i_m_source_file_index>
1278

> <i_lp_mmshare_version>
43012

> <i_f3d_flags>
0

> <s_epik_input>
W0NIM11bQ0BASF0xW0NIMl1bQ0gyXVtDSDJdTihbQ0gyXTEpW0NIMl1bQ0gyXVtOSF1DKD1PKVtOSF1jMm5bY0hdW2NIXXMy

> <s_epik_cmdline>
J2VwaWtfcHl0aG9uJywgJy1waCcsICc3LjAnLCAnLXRuJywgJzgnLCAnLW1hJywgJzIwMCcsICctbWV0YWxfYmluZGluZycsICctaW1hZScsICc8aW5maWxlLm1hZT4nLCAnLW9tYWUnLCAnPG91dGZpbGUubWFlPic=

> <r_lp_tautomer_probability>
0.999

> <r_epik_Ionization_Penalty>
0.00222194

> <r_epik_Ionization_Penalty_Charging>
0.00208169

> <r_epik_Ionization_Penalty_Neutral>
0.000140251

> <r_epik_State_Penalty>
0.00142585

> <r_epik_Charging_Adjusted_Penalty>
0.00350754

> <i_epik_Tot_Q>
1

> <i_epik_Tot_abs_Q>
1

> <r_epik_Metal_State_Penalty>
0.0570424

> <b_epik_Metal_Only>
0

> <s_lp_Force_Field>
OPLS_2005

> <r_lp_Energy>
16.5942

> <b_lp_Chiralities_Consistent>
1

> <s_lp_Variant>
AV-unprocessed.smi:1278-3

> <Gold.Version>
5.8.1

> <Gold.Id.Protein>
6NUR|6NUR_protein|mol2

> <Gold.PLP.Fitness>
38.1313

> <Gold.PLP.PLP>
-30.9811

> <Gold.PLP.part.hbond>
-4.0956

> <Gold.PLP.part.metal>
0.0000

> <Gold.PLP.part.buried>
-0.9248

> <Gold.PLP.part.nonpolar>
-25.1726

> <Gold.PLP.part.repulsive>
0.3749

> <Gold.PLP.ligand.clash>
0.0000

> <Gold.PLP.ligand.torsion>
0.7553

> <Gold.PLP.Chemscore.Hbond>
2.8800

> <Gold.PLP.Chemscore.CHOScore>
0.0000

> <Gold.PLP.Chemscore.Metal>
0.0000

> <Gold.Chemscore.Hbonds>
donor molecule, donor type, donor heavy atom, donor atom, acceptor molecule, acceptor atom, score
      L1  H     9    33       P1  7957  0.93
      L1  H    12    34       P1  7957  1.00
      P1  H  7989  7998       L1    14  1.00

> <Gold.PLP.Chemscore.Internal.Correction>
0.0207

> <Gold.Rescore>
     Score         DG    S(hbond)    S(metal)    S(lipo)     H(rot)  DE(clash)    DE(int)     intcor
     15.99     -18.00       2.77        0.00      62.91       1.60       0.11       1.89       ----

> <Gold.Chemscore.Fitness>
15.9896

> <Gold.Chemscore.DG>
-17.9962

> <Gold.Chemscore.ZeroCoef>
-5.4800

> <Gold.Chemscore.Hbond>
2.7701

> <Gold.Chemscore.Metal>
0.0000

> <Gold.Chemscore.Lipo>
62.9095

> <Gold.Chemscore.Internal_Hbond>
0.0000

> <Gold.Chemscore.DEClash>
0.1139

> <Gold.Chemscore.DEInternal>
1.8926

> <Gold.Chemscore.Rot>
1.6001

> <Gold.Chemscore.Internal.Correction>
   9.000000E+99

> <Gold.Chemscore.Hbonds>
donor molecule, donor type, donor heavy atom, donor atom, acceptor molecule, acceptor atom, score
      L1  H     9    33       P1  7957  0.77
      L1  H    12    34       P1  7957  1.00
      P1  H  7989  7998       L1    14  0.78

> <Gold.Chemscore.Hbond.Weighted>
-9.2520

> <Gold.Chemscore.Metal.Weighted>
-0.0000

> <Gold.Chemscore.Lipo.Weighted>
-7.3604

> <Gold.Chemscore.Internal_Hbond.Weighted>
0.0000

> <Gold.Chemscore.DEClash.Weighted>
0.1139

> <Gold.Chemscore.DEInternal.Weighted>
1.8926

> <Gold.Chemscore.Rot.Weighted>
4.0963

> <Gold.Chemscore.Internal.Correction.Weighted>
   9.000000E+99

> <Gold.Protein.RotatedTorsions>
[ 6907 6896 6895 6894 ] final -119.02 input  -60.11 | X-H torsion
[ 7974 7965 7964 7962 ] final -159.25 input  175.53 | X-H torsion
[ 8008 7997 7996 7995 ] final  -13.16 input   59.86 | X-H torsion
[ 10167 10162 10161 10158 ] final  -83.39 input  -65.29 | X-H torsion
[ 10718 10713 10712 10709 ] final -164.44 input   66.30 | X-H torsion
[ 10763 10752 10751 10750 ] final -117.31 input  -60.55 | X-H torsion
[ 11005 11000 10999 10996 ] final -147.87 input  -57.11 | X-H torsion

> <Gold.Protein.ActiveResidues>
 VAL166  LYS551  ARG553  GLY616  TRP617  ASP618  TYR619  PRO620  LYS621  CYS622 
 ASP623  PHE694  ASN695  SER759  ASP760  ASP761  ALA762  ILE779  LEU786  VAL792 
 PHE793  MET794  SER795  GLU796  ALA797  LYS798  CYS799  TRP800  GLU811  SER814 

> <Gold.Protein.RotatedAtoms>
  150.8269  133.8156  159.3114 H   0  0  0  0  0  0  0  0  0  0  0  0  # atno 6907 bound_to 6896
  151.5898  135.1052  160.0046 H   0  0  0  0  0  0  0  0  0  0  0  0  # atno 6908 bound_to 6896
  152.4353  133.7309  159.6643 H   0  0  0  0  0  0  0  0  0  0  0  0  # atno 6909 bound_to 6896
  144.7473  140.3712  143.6075 H   0  0  0  0  0  0  0  0  0  0  0  0  # atno 7974 bound_to 7965
  154.5316  140.2257  155.8795 H   0  0  0  0  0  0  0  0  0  0  0  0  # atno 8008 bound_to 7997
  156.1769  140.3109  155.9040 H   0  0  0  0  0  0  0  0  0  0  0  0  # atno 8009 bound_to 7997
  155.3440  140.0452  157.3036 H   0  0  0  0  0  0  0  0  0  0  0  0  # atno 8010 bound_to 7997
  140.4231  143.2577  151.8862 H   0  0  0  0  0  0  0  0  0  0  0  0  # atno 10167 bound_to 10162
  156.6390  130.8961  151.2992 H   0  0  0  0  0  0  0  0  0  0  0  0  # atno 10718 bound_to 10713
  154.8550  135.4314  154.1959 H   0  0  0  0  0  0  0  0  0  0  0  0  # atno 10763 bound_to 10752
  153.3017  135.6969  153.7203 H   0  0  0  0  0  0  0  0  0  0  0  0  # atno 10764 bound_to 10752
  153.6331  135.3481  155.3022 H   0  0  0  0  0  0  0  0  0  0  0  0  # atno 10765 bound_to 10752
  140.7671  134.3231  157.5085 H   0  0  0  0  0  0  0  0  0  0  0  0  # atno 11005 bound_to 11000
  145.7076  139.1676  143.2557 LP  0  0  0  0  0  0  0  0  0  0  0  0  # atno 17320 bound_to 7965
  146.1371  140.7108  142.9385 LP  0  0  0  0  0  0  0  0  0  0  0  0  # atno 17321 bound_to 7965
  139.4783  144.5416  151.8520 LP  0  0  0  0  0  0  0  0  0  0  0  0  # atno 17342 bound_to 10162
  140.4511  144.1853  150.5897 LP  0  0  0  0  0  0  0  0  0  0  0  0  # atno 17343 bound_to 10162
  157.7177  130.9518  150.1316 LP  0  0  0  0  0  0  0  0  0  0  0  0  # atno 17370 bound_to 10713
  156.2174  130.3671  149.8597 LP  0  0  0  0  0  0  0  0  0  0  0  0  # atno 17371 bound_to 10713
  139.8761  134.9238  156.3334 LP  0  0  0  0  0  0  0  0  0  0  0  0  # atno 17394 bound_to 11000
  140.9608  133.7389  156.0399 LP  0  0  0  0  0  0  0  0  0  0  0  0  # atno 17395 bound_to 11000

$$$$
