AV-unprocessed.smi:3348|AV-procd|sdf|12916|dock3
  -GOLD-   2272019333D 1   1.00000     0.00000
 Structure written by MMmdl.
 47 48  0  0  0  0  0  0  0  0  2 V2000
  143.8129  136.7841  152.9358 C   0  0  0  0  0  0  0  0  0  0  0  0
  145.0481  136.2261  152.2104 C   0  0  1  0  0  0  0  0  0  0  0  0
  144.6647  135.6789  150.8200 C   0  0  0  0  0  0  0  0  0  0  0  0
  144.8508  134.2418  150.7046 N   0  0  0  0  0  0  0  0  0  0  0  0
  143.9010  133.2733  150.4548 C   0  0  0  0  0  0  0  0  0  0  0  0
  144.5410  132.0672  150.4502 C   0  0  0  0  0  0  0  0  0  0  0  0
  145.8965  132.4023  150.7227 C   0  0  0  0  0  0  0  0  0  0  0  0
  146.0775  133.7038  150.8788 N   0  0  0  0  0  0  0  0  0  0  0  0
  146.0991  137.2609  152.0791 N   0  3  0  0  0  0  0  0  0  0  0  0
  146.5348  137.8830  153.3464 C   0  0  0  0  0  0  0  0  0  0  0  0
  147.6098  138.9433  153.0900 C   0  0  0  0  0  0  0  0  0  0  0  0
  148.0918  139.4089  154.3420 O   0  0  0  0  0  0  0  0  0  0  0  0
  149.4475  139.8417  154.3335 C   0  0  2  0  0  0  0  0  0  0  0  0
  150.3748  138.6677  153.9506 C   0  0  0  0  0  0  0  0  0  0  0  0
  151.8558  139.0586  154.0609 C   0  0  0  0  0  0  0  0  0  0  0  0
  152.1859  139.5784  155.4665 C   0  0  0  0  0  0  0  0  0  0  0  0
  151.2722  140.7529  155.8473 C   0  0  0  0  0  0  0  0  0  0  0  0
  149.7810  140.3736  155.7462 C   0  0  1  0  0  0  0  0  0  0  0  0
  148.8912  141.5668  156.1325 C   0  0  0  0  0  0  0  0  0  0  0  0
  143.0292  136.0295  153.0064 H   0  0  0  0  0  0  0  0  0  0  0  0
  143.3977  137.6438  152.4089 H   0  0  0  0  0  0  0  0  0  0  0  0
  144.0485  137.0976  153.9527 H   0  0  0  0  0  0  0  0  0  0  0  0
  145.4474  135.4011  152.8023 H   0  0  0  0  0  0  0  0  0  0  0  0
  143.6183  135.8996  150.6039 H   0  0  0  0  0  0  0  0  0  0  0  0
  145.2531  136.1688  150.0428 H   0  0  0  0  0  0  0  0  0  0  0  0
  142.8605  133.5193  150.3004 H   0  0  0  0  0  0  0  0  0  0  0  0
  144.1063  131.0929  150.2830 H   0  0  0  0  0  0  0  0  0  0  0  0
  146.7477  131.7434  150.8126 H   0  0  0  0  0  0  0  0  0  0  0  0
  146.9101  136.8173  151.6718 H   0  0  0  0  0  0  0  0  0  0  0  0
  145.6872  138.3285  153.8673 H   0  0  0  0  0  0  0  0  0  0  0  0
  146.9422  137.1076  153.9965 H   0  0  0  0  0  0  0  0  0  0  0  0
  148.4227  138.5023  152.5134 H   0  0  0  0  0  0  0  0  0  0  0  0
  147.1970  139.7637  152.5007 H   0  0  0  0  0  0  0  0  0  0  0  0
  149.5759  140.6578  153.6195 H   0  0  0  0  0  0  0  0  0  0  0  0
  150.1753  137.8163  154.6026 H   0  0  0  0  0  0  0  0  0  0  0  0
  150.1733  138.3315  152.9341 H   0  0  0  0  0  0  0  0  0  0  0  0
  152.4862  138.2010  153.8236 H   0  0  0  0  0  0  0  0  0  0  0  0
  152.0873  139.8273  153.3225 H   0  0  0  0  0  0  0  0  0  0  0  0
  152.0695  138.7728  156.1926 H   0  0  0  0  0  0  0  0  0  0  0  0
  153.2304  139.8884  155.5128 H   0  0  0  0  0  0  0  0  0  0  0  0
  151.5067  141.0804  156.8609 H   0  0  0  0  0  0  0  0  0  0  0  0
  151.4823  141.6009  155.1940 H   0  0  0  0  0  0  0  0  0  0  0  0
  149.5915  139.5732  156.4632 H   0  0  0  0  0  0  0  0  0  0  0  0
  149.0208  142.3988  155.4400 H   0  0  0  0  0  0  0  0  0  0  0  0
  149.1328  141.9267  157.1331 H   0  0  0  0  0  0  0  0  0  0  0  0
  147.8359  141.2935  156.1322 H   0  0  0  0  0  0  0  0  0  0  0  0
  145.7772  137.9809  151.4480 H   0  0  0  0  0  0  0  0  0  0  0  0
  1  2  1  0  0  0  0
  1 20  1  0  0  0  0
  1 21  1  0  0  0  0
  1 22  1  0  0  0  0
  2  3  1  0  0  0  0
  2  9  1  0  0  0  0
  2 23  1  0  0  0  0
  3  4  1  0  0  0  0
  3 24  1  0  0  0  0
  3 25  1  0  0  0  0
  4  8  1  0  0  0  0
  4  5  1  0  0  0  0
  5  6  2  0  0  0  0
  5 26  1  0  0  0  0
  6  7  1  0  0  0  0
  6 27  1  0  0  0  0
  7  8  2  0  0  0  0
  7 28  1  0  0  0  0
  9 10  1  0  0  0  0
  9 29  1  0  0  0  0
  9 47  1  0  0  0  0
 10 11  1  0  0  0  0
 10 30  1  0  0  0  0
 10 31  1  0  0  0  0
 11 12  1  0  0  0  0
 11 32  1  0  0  0  0
 11 33  1  0  0  0  0
 12 13  1  0  0  0  0
 13 18  1  0  0  0  0
 13 14  1  0  0  0  0
 13 34  1  0  0  0  0
 14 15  1  0  0  0  0
 14 35  1  0  0  0  0
 14 36  1  0  0  0  0
 15 16  1  0  0  0  0
 15 37  1  0  0  0  0
 15 38  1  0  0  0  0
 16 17  1  0  0  0  0
 16 39  1  0  0  0  0
 16 40  1  0  0  0  0
 17 18  1  0  0  0  0
 17 41  1  0  0  0  0
 17 42  1  0  0  0  0
 18 19  1  0  0  0  0
 18 43  1  0  0  0  0
 19 44  1  0  0  0  0
 19 45  1  0  0  0  0
 19 46  1  0  0  0  0
M  CHG  1   9   1
M  END
> <s_m_source_file>
AV-unprocessed.smi

> <i_m_source_file_index>
3348

> <i_lp_mmshare_version>
43012

> <i_f3d_flags>
0

> <s_epik_input>
bjFbY0hdW2NIXVtjSF1uMVtDSDJdW0NAQEhdKFtDSDNdKVtOSF1bQ0gyXVtDSDJdT1tDQEBIXTJbQ0gyXVtDSDJdW0NIMl1bQ0gyXVtDQEhdMltDSDNd

> <s_epik_cmdline>
J2VwaWtfcHl0aG9uJywgJy1waCcsICc3LjAnLCAnLXRuJywgJzgnLCAnLW1hJywgJzIwMCcsICctbWV0YWxfYmluZGluZycsICctaW1hZScsICc8aW5maWxlLm1hZT4nLCAnLW9tYWUnLCAnPG91dGZpbGUubWFlPic=

> <r_lp_tautomer_probability>
1

> <r_epik_Ionization_Penalty>
0.00925088

> <r_epik_Ionization_Penalty_Charging>
0.00924645

> <r_epik_Ionization_Penalty_Neutral>
4.42413e-06

> <r_epik_State_Penalty>
0.0070118

> <r_epik_Charging_Adjusted_Penalty>
0.0162583

> <i_epik_Tot_Q>
1

> <i_epik_Tot_abs_Q>
1

> <r_epik_Metal_State_Penalty>
0.00701222

> <b_epik_Metal_Only>
0

> <s_lp_Force_Field>
OPLS_2005

> <r_lp_Energy>
16.0091

> <b_lp_Chiralities_Consistent>
1

> <s_lp_Variant>
AV-unprocessed.smi:3348-2

> <Gold.Version>
5.8.1

> <Gold.Id.Protein>
6NUR|6NUR_protein|mol2

> <Gold.PLP.Fitness>
46.3726

> <Gold.PLP.PLP>
-36.0135

> <Gold.PLP.part.hbond>
-1.0000

> <Gold.PLP.part.metal>
0.0000

> <Gold.PLP.part.buried>
-2.2526

> <Gold.PLP.part.nonpolar>
-33.4081

> <Gold.PLP.part.repulsive>
0.3548

> <Gold.PLP.ligand.clash>
0.0000

> <Gold.PLP.ligand.torsion>
0.9462

> <Gold.PLP.Chemscore.Hbond>
2.0000

> <Gold.PLP.Chemscore.CHOScore>
2.0000

> <Gold.PLP.Chemscore.Metal>
0.0000

> <Gold.Chemscore.Hbonds>
donor molecule, donor type, donor heavy atom, donor atom, acceptor molecule, acceptor atom, score
      L1  H     9    29       P1  7948  1.61
      L1  C     5    26       P1 10186  1.00
      L1  C     7    28       P1 10747  1.00

> <Gold.PLP.Chemscore.Internal.Correction>
0.2516

> <Gold.Rescore>
     Score         DG    S(hbond)    S(metal)    S(lipo)     H(rot)  DE(clash)    DE(int)     intcor
     14.51     -15.59       0.98        0.00      98.04       1.82       0.16       0.92       ----

> <Gold.Chemscore.Fitness>
14.5062

> <Gold.Chemscore.DG>
-15.5889

> <Gold.Chemscore.ZeroCoef>
-5.4800

> <Gold.Chemscore.Hbond>
0.9843

> <Gold.Chemscore.Metal>
0.0000

> <Gold.Chemscore.Lipo>
98.0434

> <Gold.Chemscore.Internal_Hbond>
0.0000

> <Gold.Chemscore.DEClash>
0.1599

> <Gold.Chemscore.DEInternal>
0.9228

> <Gold.Chemscore.Rot>
1.8163

> <Gold.Chemscore.Internal.Correction>
   9.000000E+99

> <Gold.Chemscore.Hbonds>
donor molecule, donor type, donor heavy atom, donor atom, acceptor molecule, acceptor atom, score
      L1  H     9    29       P1  7948  0.76

> <Gold.Chemscore.Hbond.Weighted>
-3.2875

> <Gold.Chemscore.Metal.Weighted>
-0.0000

> <Gold.Chemscore.Lipo.Weighted>
-11.4711

> <Gold.Chemscore.Internal_Hbond.Weighted>
0.0000

> <Gold.Chemscore.DEClash.Weighted>
0.1599

> <Gold.Chemscore.DEInternal.Weighted>
0.9228

> <Gold.Chemscore.Rot.Weighted>
4.6497

> <Gold.Chemscore.Internal.Correction.Weighted>
   9.000000E+99

> <Gold.Protein.RotatedTorsions>
[ 6907 6896 6895 6894 ] final -166.73 input  -60.11 | X-H torsion
[ 7974 7965 7964 7962 ] final  165.83 input  175.53 | X-H torsion
[ 8008 7997 7996 7995 ] final  170.74 input   59.86 | X-H torsion
[ 10167 10162 10161 10158 ] final -147.22 input  -65.29 | X-H torsion
[ 10718 10713 10712 10709 ] final  109.66 input   66.30 | X-H torsion
[ 10763 10752 10751 10750 ] final  141.97 input  -60.55 | X-H torsion
[ 11005 11000 10999 10996 ] final  -34.81 input  -57.11 | X-H torsion

> <Gold.Protein.ActiveResidues>
 VAL166  LYS551  ARG553  GLY616  TRP617  ASP618  TYR619  PRO620  LYS621  CYS622 
 ASP623  PHE694  ASN695  SER759  ASP760  ASP761  ALA762  ILE779  LEU786  VAL792 
 PHE793  MET794  SER795  GLU796  ALA797  LYS798  CYS799  TRP800  GLU811  SER814 

> <Gold.Protein.RotatedAtoms>
  151.4483  133.3624  159.2791 H   0  0  0  0  0  0  0  0  0  0  0  0  # atno 6907 bound_to 6896
  150.9109  134.8527  159.7435 H   0  0  0  0  0  0  0  0  0  0  0  0  # atno 6908 bound_to 6896
  152.4931  134.4412  159.9596 H   0  0  0  0  0  0  0  0  0  0  0  0  # atno 6909 bound_to 6896
  144.7486  139.8527  143.6373 H   0  0  0  0  0  0  0  0  0  0  0  0  # atno 7974 bound_to 7965
  156.1337  140.1530  156.9027 H   0  0  0  0  0  0  0  0  0  0  0  0  # atno 8008 bound_to 7997
  154.4930  140.0846  156.7674 H   0  0  0  0  0  0  0  0  0  0  0  0  # atno 8009 bound_to 7997
  155.4209  140.3423  155.4273 H   0  0  0  0  0  0  0  0  0  0  0  0  # atno 8010 bound_to 7997
  139.7642  143.8333  152.2613 H   0  0  0  0  0  0  0  0  0  0  0  0  # atno 10167 bound_to 10162
  157.6531  131.0918  150.6486 H   0  0  0  0  0  0  0  0  0  0  0  0  # atno 10718 bound_to 10713
  153.9480  135.2973  155.3440 H   0  0  0  0  0  0  0  0  0  0  0  0  # atno 10763 bound_to 10752
  154.7442  135.5011  153.9177 H   0  0  0  0  0  0  0  0  0  0  0  0  # atno 10764 bound_to 10752
  153.1008  135.6734  153.9784 H   0  0  0  0  0  0  0  0  0  0  0  0  # atno 10765 bound_to 10752
  140.9746  133.7090  156.1581 H   0  0  0  0  0  0  0  0  0  0  0  0  # atno 11005 bound_to 11000
  146.1404  139.4460  143.0112 LP  0  0  0  0  0  0  0  0  0  0  0  0  # atno 17320 bound_to 7965
  145.7027  141.0131  143.1496 LP  0  0  0  0  0  0  0  0  0  0  0  0  # atno 17321 bound_to 7965
  139.8348  144.7237  150.9405 LP  0  0  0  0  0  0  0  0  0  0  0  0  # atno 17342 bound_to 10162
  140.7809  143.4037  151.1106 LP  0  0  0  0  0  0  0  0  0  0  0  0  # atno 17343 bound_to 10162
  156.6795  130.4563  149.5632 LP  0  0  0  0  0  0  0  0  0  0  0  0  # atno 17370 bound_to 10713
  156.1939  130.6577  151.1092 LP  0  0  0  0  0  0  0  0  0  0  0  0  # atno 17371 bound_to 10713
  140.7278  134.4288  157.5569 LP  0  0  0  0  0  0  0  0  0  0  0  0  # atno 17394 bound_to 11000
  139.8925  134.8752  156.2266 LP  0  0  0  0  0  0  0  0  0  0  0  0  # atno 17395 bound_to 11000

$$$$
