AV-unprocessed.smi:3009|AV-procd|sdf|11450|dock5
  -GOLD-   2272016383D 1   1.00000     0.00000
 Structure written by MMmdl.
 44 45  0  0  0  0  0  0  0  0  2 V2000
  151.0636  142.5877  157.2364 C   0  0  0  0  0  0  0  0  0  0  0  0
  150.5522  141.2020  156.8141 C   0  0  0  0  0  0  0  0  0  0  0  0
  151.6541  140.1453  157.0004 C   0  0  0  0  0  0  0  0  0  0  0  0
  150.0257  141.2390  155.3626 C   0  0  0  0  0  0  0  0  0  0  0  0
  148.6186  141.7142  155.2580 N   0  3  2  0  0  0  0  0  0  0  0  0
  147.7756  141.3208  156.4130 C   0  0  0  0  0  0  0  0  0  0  0  0
  147.3425  139.8480  156.3064 C   0  0  0  0  0  0  0  0  0  0  0  0
  146.6613  139.6461  155.0751 O   0  0  0  0  0  0  0  0  0  0  0  0
  147.4845  139.9013  153.9406 C   0  0  1  0  0  0  0  0  0  0  0  0
  146.6813  139.5906  152.6648 C   0  0  0  0  0  0  0  0  0  0  0  0
  146.6879  138.1654  152.3515 N   0  0  0  0  0  0  0  0  0  0  0  0
  145.6718  137.3195  152.5707 C   0  0  0  0  0  0  0  0  0  0  0  0
  144.6017  137.6564  153.0773 O   0  0  0  0  0  0  0  0  0  0  0  0
  145.9792  136.0758  152.1680 N   0  0  0  0  0  0  0  0  0  0  0  0
  145.1579  134.9219  152.2306 C   0  0  0  0  0  0  0  0  0  0  0  0
  144.7486  134.1594  151.1032 C   0  0  0  0  0  0  0  0  0  0  0  0
  143.9853  133.1371  151.4619 N   0  0  0  0  0  0  0  0  0  0  0  0
  143.9030  133.2402  152.8077 N   0  0  0  0  0  0  0  0  0  0  0  0
  144.6018  134.3113  153.3196 C   0  0  0  0  0  0  0  0  0  0  0  0
  147.9334  141.3794  153.9823 C   0  0  0  0  0  0  0  0  0  0  0  0
  143.3716  132.5794  153.3568 H   0  0  0  0  0  0  0  0  0  0  0  0
  151.9005  142.9092  156.6152 H   0  0  0  0  0  0  0  0  0  0  0  0
  151.4017  142.5831  158.2730 H   0  0  0  0  0  0  0  0  0  0  0  0
  150.2790  143.3404  157.1522 H   0  0  0  0  0  0  0  0  0  0  0  0
  149.7334  140.9545  157.4886 H   0  0  0  0  0  0  0  0  0  0  0  0
  152.5103  140.3460  156.3556 H   0  0  0  0  0  0  0  0  0  0  0  0
  151.2916  139.1432  156.7706 H   0  0  0  0  0  0  0  0  0  0  0  0
  152.0115  140.1311  158.0304 H   0  0  0  0  0  0  0  0  0  0  0  0
  150.6744  141.8544  154.7396 H   0  0  0  0  0  0  0  0  0  0  0  0
  150.0935  140.2292  154.9550 H   0  0  0  0  0  0  0  0  0  0  0  0
  148.2945  141.5079  157.3537 H   0  0  0  0  0  0  0  0  0  0  0  0
  146.8888  141.9560  156.4226 H   0  0  0  0  0  0  0  0  0  0  0  0
  148.1970  139.1742  156.3822 H   0  0  0  0  0  0  0  0  0  0  0  0
  146.6681  139.5971  157.1252 H   0  0  0  0  0  0  0  0  0  0  0  0
  148.3555  139.2450  153.9686 H   0  0  0  0  0  0  0  0  0  0  0  0
  145.6602  139.9671  152.7476 H   0  0  0  0  0  0  0  0  0  0  0  0
  147.1299  140.1065  151.8155 H   0  0  0  0  0  0  0  0  0  0  0  0
  147.5271  137.7973  151.9280 H   0  0  0  0  0  0  0  0  0  0  0  0
  146.8955  135.9405  151.7664 H   0  0  0  0  0  0  0  0  0  0  0  0
  144.9753  134.3109  150.0579 H   0  0  0  0  0  0  0  0  0  0  0  0
  144.6338  134.5285  154.3768 H   0  0  0  0  0  0  0  0  0  0  0  0
  147.0567  142.0229  153.8957 H   0  0  0  0  0  0  0  0  0  0  0  0
  148.5620  141.6148  153.1249 H   0  0  0  0  0  0  0  0  0  0  0  0
  148.6812  142.7217  155.2952 H   0  0  0  0  0  0  0  0  0  0  0  0
  1  2  1  0  0  0  0
  1 22  1  0  0  0  0
  1 23  1  0  0  0  0
  1 24  1  0  0  0  0
  2  3  1  0  0  0  0
  2  4  1  0  0  0  0
  2 25  1  0  0  0  0
  3 26  1  0  0  0  0
  3 27  1  0  0  0  0
  3 28  1  0  0  0  0
  4  5  1  0  0  0  0
  4 29  1  0  0  0  0
  4 30  1  0  0  0  0
  5 20  1  0  0  0  0
  5  6  1  0  0  0  0
  5 44  1  0  0  0  0
  6  7  1  0  0  0  0
  6 31  1  0  0  0  0
  6 32  1  0  0  0  0
  7  8  1  0  0  0  0
  7 33  1  0  0  0  0
  7 34  1  0  0  0  0
  8  9  1  0  0  0  0
  9 10  1  0  0  0  0
  9 20  1  0  0  0  0
  9 35  1  0  0  0  0
 10 11  1  0  0  0  0
 10 36  1  0  0  0  0
 10 37  1  0  0  0  0
 11 12  1  0  0  0  0
 11 38  1  0  0  0  0
 12 13  2  0  0  0  0
 12 14  1  0  0  0  0
 14 15  1  0  0  0  0
 14 39  1  0  0  0  0
 15 19  2  0  0  0  0
 15 16  1  0  0  0  0
 16 17  2  0  0  0  0
 16 40  1  0  0  0  0
 17 18  1  0  0  0  0
 18 21  1  0  0  0  0
 18 19  1  0  0  0  0
 19 41  1  0  0  0  0
 20 42  1  0  0  0  0
 20 43  1  0  0  0  0
M  CHG  1   5   1
M  END
> <s_m_source_file>
AV-unprocessed.smi

> <i_m_source_file_index>
3009

> <i_lp_mmshare_version>
43012

> <i_f3d_flags>
0

> <s_epik_input>
W0NIM11bQ0hdKFtDSDNdKVtDSDJdTjFbQ0gyXVtDSDJdT1tDQEhdKFtDSDJdMSlbQ0gyXVtOSF1DKD1PKVtOSF1jMltjSF1uW25IXVtjSF0y

> <s_epik_cmdline>
J2VwaWtfcHl0aG9uJywgJy1waCcsICc3LjAnLCAnLXRuJywgJzgnLCAnLW1hJywgJzIwMCcsICctbWV0YWxfYmluZGluZycsICctaW1hZScsICc8aW5maWxlLm1hZT4nLCAnLW9tYWUnLCAnPG91dGZpbGUubWFlPic=

> <r_lp_tautomer_probability>
0.5

> <r_epik_Ionization_Penalty>
0.0974064

> <r_epik_Ionization_Penalty_Charging>
0.0973651

> <r_epik_Ionization_Penalty_Neutral>
4.13573e-05

> <r_epik_State_Penalty>
0.0874853

> <r_epik_Charging_Adjusted_Penalty>
0.18485

> <i_epik_Tot_Q>
1

> <i_epik_Tot_abs_Q>
1

> <r_epik_Metal_State_Penalty>
0.0874855

> <b_epik_Metal_Only>
0

> <s_lp_Force_Field>
OPLS_2005

> <r_lp_Energy>
22.9615

> <b_lp_Chiralities_Consistent>
1

> <s_lp_Variant>
AV-unprocessed.smi:3009-2

> <Gold.Version>
5.8.1

> <Gold.Id.Protein>
6NUR|6NUR_protein|mol2

> <Gold.PLP.Fitness>
42.8426

> <Gold.PLP.PLP>
-27.9829

> <Gold.PLP.part.hbond>
-4.0000

> <Gold.PLP.part.metal>
0.0000

> <Gold.PLP.part.buried>
-3.7610

> <Gold.PLP.part.nonpolar>
-21.9220

> <Gold.PLP.part.repulsive>
1.6555

> <Gold.PLP.ligand.clash>
0.0000

> <Gold.PLP.ligand.torsion>
1.4197

> <Gold.PLP.Chemscore.Hbond>
4.8712

> <Gold.PLP.Chemscore.CHOScore>
1.0000

> <Gold.PLP.Chemscore.Metal>
0.0000

> <Gold.Chemscore.Hbonds>
donor molecule, donor type, donor heavy atom, donor atom, acceptor molecule, acceptor atom, score
      L1  H     5    44       P1  8028  2.00
      L1  H    11    38       P1  7948  0.82
      L1  H    14    39       P1  7948  0.96
      L1  H    18    21       P1 10957  1.00
      L1  C    16    40       P1  7921  0.49

> <Gold.PLP.Chemscore.Internal.Correction>
0.0854

> <Gold.Rescore>
     Score         DG    S(hbond)    S(metal)    S(lipo)     H(rot)  DE(clash)    DE(int)     intcor
     18.68     -21.13       3.93        0.00      60.92       1.80       1.06       1.38       ----

> <Gold.Chemscore.Fitness>
18.6823

> <Gold.Chemscore.DG>
-21.1285

> <Gold.Chemscore.ZeroCoef>
-5.4800

> <Gold.Chemscore.Hbond>
3.9280

> <Gold.Chemscore.Metal>
0.0000

> <Gold.Chemscore.Lipo>
60.9190

> <Gold.Chemscore.Internal_Hbond>
0.0000

> <Gold.Chemscore.DEClash>
1.0626

> <Gold.Chemscore.DEInternal>
1.3836

> <Gold.Chemscore.Rot>
1.7963

> <Gold.Chemscore.Internal.Correction>
   9.000000E+99

> <Gold.Chemscore.Hbonds>
donor molecule, donor type, donor heavy atom, donor atom, acceptor molecule, acceptor atom, score
      L1  H     5    44       P1  8028  0.93
      L1  H    11    38       P1  7948  0.77
      L1  H    14    39       P1  7948  0.86
      L1  H    18    21       P1 10957  0.30

> <Gold.Chemscore.Hbond.Weighted>
-13.1195

> <Gold.Chemscore.Metal.Weighted>
-0.0000

> <Gold.Chemscore.Lipo.Weighted>
-7.1275

> <Gold.Chemscore.Internal_Hbond.Weighted>
0.0000

> <Gold.Chemscore.DEClash.Weighted>
1.0626

> <Gold.Chemscore.DEInternal.Weighted>
1.3836

> <Gold.Chemscore.Rot.Weighted>
4.5985

> <Gold.Chemscore.Internal.Correction.Weighted>
   9.000000E+99

> <Gold.Protein.RotatedTorsions>
[ 6907 6896 6895 6894 ] final -155.66 input  -60.11 | X-H torsion
[ 7974 7965 7964 7962 ] final  157.96 input  175.53 | X-H torsion
[ 8008 7997 7996 7995 ] final  -37.41 input   59.86 | X-H torsion
[ 10167 10162 10161 10158 ] final   21.65 input  -65.29 | X-H torsion
[ 10718 10713 10712 10709 ] final  -68.22 input   66.30 | X-H torsion
[ 10763 10752 10751 10750 ] final  -31.12 input  -60.55 | X-H torsion
[ 11005 11000 10999 10996 ] final  -42.10 input  -57.11 | X-H torsion

> <Gold.Protein.ActiveResidues>
 VAL166  LYS551  ARG553  GLY616  TRP617  ASP618  TYR619  PRO620  LYS621  CYS622 
 ASP623  PHE694  ASN695  SER759  ASP760  ASP761  ALA762  ILE779  LEU786  VAL792 
 PHE793  MET794  SER795  GLU796  ALA797  LYS798  CYS799  TRP800  GLU811  SER814 

> <Gold.Protein.RotatedAtoms>
  151.2759  133.4233  159.2623 H   0  0  0  0  0  0  0  0  0  0  0  0  # atno 6907 bound_to 6896
  151.0404  134.9603  159.8169 H   0  0  0  0  0  0  0  0  0  0  0  0  # atno 6908 bound_to 6896
  152.5364  134.2717  159.9026 H   0  0  0  0  0  0  0  0  0  0  0  0  # atno 6909 bound_to 6896
  144.7873  139.7412  143.6235 H   0  0  0  0  0  0  0  0  0  0  0  0  # atno 7974 bound_to 7965
  154.4054  140.1605  156.2533 H   0  0  0  0  0  0  0  0  0  0  0  0  # atno 8008 bound_to 7997
  155.9100  140.3428  155.6069 H   0  0  0  0  0  0  0  0  0  0  0  0  # atno 8009 bound_to 7997
  155.7347  140.0785  157.2264 H   0  0  0  0  0  0  0  0  0  0  0  0  # atno 8010 bound_to 7997
  140.5410  143.9677  150.6519 H   0  0  0  0  0  0  0  0  0  0  0  0  # atno 10167 bound_to 10162
  156.0516  130.4291  150.1969 H   0  0  0  0  0  0  0  0  0  0  0  0  # atno 10718 bound_to 10713
  153.7922  135.6897  153.4869 H   0  0  0  0  0  0  0  0  0  0  0  0  # atno 10763 bound_to 10752
  153.1742  135.4531  154.9941 H   0  0  0  0  0  0  0  0  0  0  0  0  # atno 10764 bound_to 10752
  154.8040  135.3349  154.7417 H   0  0  0  0  0  0  0  0  0  0  0  0  # atno 10765 bound_to 10752
  141.0292  133.6827  156.2549 H   0  0  0  0  0  0  0  0  0  0  0  0  # atno 11005 bound_to 11000
  146.2110  139.5467  142.9681 LP  0  0  0  0  0  0  0  0  0  0  0  0  # atno 17320 bound_to 7965
  145.5887  141.0372  143.2082 LP  0  0  0  0  0  0  0  0  0  0  0  0  # atno 17321 bound_to 7965
  140.3078  143.3218  152.0909 LP  0  0  0  0  0  0  0  0  0  0  0  0  # atno 17342 bound_to 10162
  139.4989  144.6656  151.6364 LP  0  0  0  0  0  0  0  0  0  0  0  0  # atno 17343 bound_to 10162
  157.0051  130.9934  151.3380 LP  0  0  0  0  0  0  0  0  0  0  0  0  # atno 17370 bound_to 10713
  157.5448  130.8143  149.8073 LP  0  0  0  0  0  0  0  0  0  0  0  0  # atno 17371 bound_to 10713
  140.6436  134.5140  157.5572 LP  0  0  0  0  0  0  0  0  0  0  0  0  # atno 17394 bound_to 11000
  139.9196  134.8175  156.1252 LP  0  0  0  0  0  0  0  0  0  0  0  0  # atno 17395 bound_to 11000

$$$$
