AV-unprocessed.smi:1513|AV-procd|sdf|6108|dock1
  -GOLD-   22720 6243D 1   1.00000     0.00000
 Structure written by MMmdl.
 34 35  0  0  0  0  0  0  0  0  1 V2000
  152.1155  136.1250  158.0231 N   0  0  0  0  0  0  0  0  0  0  0  0
  153.7940  136.4862  158.0913 S   0  0  0  0  0  0  0  0  0  0  0  0
  154.4088  135.6948  159.1675 O   0  0  0  0  0  0  0  0  0  0  0  0
  154.3359  136.4799  156.7242 O   0  0  0  0  0  0  0  0  0  0  0  0
  153.6853  138.1198  158.6216 N   0  0  0  0  0  0  0  0  0  0  0  0
  152.3733  138.7491  158.7611 C   0  0  0  0  0  0  0  0  0  0  0  0
  152.4659  140.2624  158.8799 C   0  0  0  0  0  0  0  0  0  0  0  0
  153.1614  140.8392  159.9634 C   0  0  0  0  0  0  0  0  0  0  0  0
  153.2300  142.2409  160.0650 C   0  0  0  0  0  0  0  0  0  0  0  0
  152.5960  143.0140  159.0747 C   0  0  0  0  0  0  0  0  0  0  0  0
  151.9266  142.4771  158.0331 N   0  0  0  0  0  0  0  0  0  0  0  0
  151.8593  141.1274  157.9328 C   0  0  0  0  0  0  0  0  0  0  0  0
  151.1692  140.5921  156.8332 N   0  0  0  0  0  0  0  0  0  0  0  0
  150.3374  141.5342  156.0957 C   0  0  0  0  0  0  0  0  0  0  0  0
  149.5047  140.7773  155.0476 C   0  0  0  0  0  0  0  0  0  0  0  0
  150.3743  140.0402  154.1923 O   0  0  0  0  0  0  0  0  0  0  0  0
  151.1401  139.0738  154.9075 C   0  0  0  0  0  0  0  0  0  0  0  0
  152.0080  139.7765  155.9662 C   0  0  0  0  0  0  0  0  0  0  0  0
  151.8387  135.7416  157.1195 H   0  0  0  0  0  0  0  0  0  0  0  0
  151.5379  136.9081  158.3284 H   0  0  0  0  0  0  0  0  0  0  0  0
  154.3514  138.3633  159.3541 H   0  0  0  0  0  0  0  0  0  0  0  0
  151.7551  138.4674  157.9082 H   0  0  0  0  0  0  0  0  0  0  0  0
  151.8740  138.3560  159.6474 H   0  0  0  0  0  0  0  0  0  0  0  0
  153.6348  140.2184  160.7097 H   0  0  0  0  0  0  0  0  0  0  0  0
  153.7550  142.7116  160.8831 H   0  0  0  0  0  0  0  0  0  0  0  0
  152.6275  144.0926  159.1195 H   0  0  0  0  0  0  0  0  0  0  0  0
  149.6812  142.0665  156.7854 H   0  0  0  0  0  0  0  0  0  0  0  0
  150.9652  142.2775  155.6023 H   0  0  0  0  0  0  0  0  0  0  0  0
  148.7922  140.1046  155.5280 H   0  0  0  0  0  0  0  0  0  0  0  0
  148.9260  141.4794  154.4477 H   0  0  0  0  0  0  0  0  0  0  0  0
  150.4773  138.3425  155.3719 H   0  0  0  0  0  0  0  0  0  0  0  0
  151.7711  138.5292  154.2052 H   0  0  0  0  0  0  0  0  0  0  0  0
  152.7514  140.4098  155.4799 H   0  0  0  0  0  0  0  0  0  0  0  0
  152.5495  139.0374  156.5577 H   0  0  0  0  0  0  0  0  0  0  0  0
  1  2  1  0  0  0  0
  1 19  1  0  0  0  0
  1 20  1  0  0  0  0
  2  3  2  0  0  0  0
  2  4  2  0  0  0  0
  2  5  1  0  0  0  0
  5  6  1  0  0  0  0
  5 21  1  0  0  0  0
  6  7  1  0  0  0  0
  6 22  1  0  0  0  0
  6 23  1  0  0  0  0
  7 12  1  0  0  0  0
  7  8  2  0  0  0  0
  8  9  1  0  0  0  0
  8 24  1  0  0  0  0
  9 10  2  0  0  0  0
  9 25  1  0  0  0  0
 10 11  1  0  0  0  0
 10 26  1  0  0  0  0
 11 12  2  0  0  0  0
 12 13  1  0  0  0  0
 13 18  1  0  0  0  0
 13 14  1  0  0  0  0
 14 15  1  0  0  0  0
 14 27  1  0  0  0  0
 14 28  1  0  0  0  0
 15 16  1  0  0  0  0
 15 29  1  0  0  0  0
 15 30  1  0  0  0  0
 16 17  1  0  0  0  0
 17 18  1  0  0  0  0
 17 31  1  0  0  0  0
 17 32  1  0  0  0  0
 18 33  1  0  0  0  0
 18 34  1  0  0  0  0
M  END
> <s_m_source_file>
AV-unprocessed.smi

> <i_m_source_file_index>
1513

> <i_lp_mmshare_version>
43012

> <i_f3d_flags>
0

> <s_epik_input>
W05IMl1TKD1PKSg9TylbTkhdW0NIMl1jMVtjSF1bY0hdW2NIXW5jMU4yW0NIMl1bQ0gyXU9bQ0gyXVtDSDJdMg==

> <s_epik_cmdline>
J2VwaWtfcHl0aG9uJywgJy1waCcsICc3LjAnLCAnLXRuJywgJzgnLCAnLW1hJywgJzIwMCcsICctbWV0YWxfYmluZGluZycsICctaW1hZScsICc8aW5maWxlLm1hZT4nLCAnLW9tYWUnLCAnPG91dGZpbGUubWFlPic=

> <r_lp_tautomer_probability>
1

> <r_epik_Ionization_Penalty>
0.193648

> <r_epik_Ionization_Penalty_Charging>
0

> <r_epik_Ionization_Penalty_Neutral>
0.193648

> <r_epik_State_Penalty>
0.187016

> <r_epik_Charging_Adjusted_Penalty>
0.187016

> <i_epik_Tot_Q>
0

> <i_epik_Tot_abs_Q>
0

> <r_epik_Metal_State_Penalty>
0.77957

> <b_epik_Metal_Only>
0

> <s_lp_Force_Field>
OPLS_2005

> <r_lp_Energy>
22.2983

> <b_lp_Chiralities_Consistent>
1

> <s_lp_Variant>
AV-unprocessed.smi:1513-1

> <Gold.Version>
5.8.1

> <Gold.Id.Protein>
6NUR|6NUR_protein|mol2

> <Gold.PLP.Fitness>
41.5587

> <Gold.PLP.PLP>
-33.2032

> <Gold.PLP.part.hbond>
-3.9103

> <Gold.PLP.part.metal>
0.0000

> <Gold.PLP.part.buried>
-4.0810

> <Gold.PLP.part.nonpolar>
-25.9723

> <Gold.PLP.part.repulsive>
0.6053

> <Gold.PLP.ligand.clash>
0.4346

> <Gold.PLP.ligand.torsion>
0.2889

> <Gold.PLP.Chemscore.Hbond>
3.0312

> <Gold.PLP.Chemscore.CHOScore>
0.0000

> <Gold.PLP.Chemscore.Metal>
0.0000

> <Gold.Chemscore.Hbonds>
donor molecule, donor type, donor heavy atom, donor atom, acceptor molecule, acceptor atom, score
      P1  H  6896  6907       L1     3  0.21
      P1  H  7989  7998       L1    16  0.95
      P1  H 10752 10765       L1     4  0.93

> <Gold.PLP.Chemscore.Internal.Correction>
0.2744

> <Gold.Rescore>
     Score         DG    S(hbond)    S(metal)    S(lipo)     H(rot)  DE(clash)    DE(int)     intcor
     14.37     -15.77       2.55        0.00      69.23       2.47       0.00       1.41       ----

> <Gold.Chemscore.Fitness>
14.3652

> <Gold.Chemscore.DG>
-15.7709

> <Gold.Chemscore.ZeroCoef>
-5.4800

> <Gold.Chemscore.Hbond>
2.5467

> <Gold.Chemscore.Metal>
0.0000

> <Gold.Chemscore.Lipo>
69.2350

> <Gold.Chemscore.Internal_Hbond>
0.0000

> <Gold.Chemscore.DEClash>
0.0000

> <Gold.Chemscore.DEInternal>
1.4057

> <Gold.Chemscore.Rot>
2.4671

> <Gold.Chemscore.Internal.Correction>
   9.000000E+99

> <Gold.Chemscore.Hbonds>
donor molecule, donor type, donor heavy atom, donor atom, acceptor molecule, acceptor atom, score
      P1  H  6896  6907       L1     3  0.05
      P1  H  7989  7998       L1    16  0.20
      P1  H 10752 10765       L1     4  0.91

> <Gold.Chemscore.Hbond.Weighted>
-8.5061

> <Gold.Chemscore.Metal.Weighted>
-0.0000

> <Gold.Chemscore.Lipo.Weighted>
-8.1005

> <Gold.Chemscore.Internal_Hbond.Weighted>
0.0000

> <Gold.Chemscore.DEClash.Weighted>
0.0000

> <Gold.Chemscore.DEInternal.Weighted>
1.4057

> <Gold.Chemscore.Rot.Weighted>
6.3157

> <Gold.Chemscore.Internal.Correction.Weighted>
   9.000000E+99

> <Gold.Protein.RotatedTorsions>
[ 6907 6896 6895 6894 ] final   70.30 input  -60.11 | X-H torsion
[ 7974 7965 7964 7962 ] final  -32.07 input  175.53 | X-H torsion
[ 8008 7997 7996 7995 ] final   47.79 input   59.86 | X-H torsion
[ 10167 10162 10161 10158 ] final  -82.46 input  -65.29 | X-H torsion
[ 10718 10713 10712 10709 ] final -122.36 input   66.30 | X-H torsion
[ 10763 10752 10751 10750 ] final  -98.55 input  -60.55 | X-H torsion
[ 11005 11000 10999 10996 ] final   24.69 input  -57.11 | X-H torsion

> <Gold.Protein.ActiveResidues>
 VAL166  LYS551  ARG553  GLY616  TRP617  ASP618  TYR619  PRO620  LYS621  CYS622 
 ASP623  PHE694  ASN695  SER759  ASP760  ASP761  ALA762  ILE779  LEU786  VAL792 
 PHE793  MET794  SER795  GLU796  ALA797  LYS798  CYS799  TRP800  GLU811  SER814 

> <Gold.Protein.RotatedAtoms>
  152.4741  134.4888  159.9688 H   0  0  0  0  0  0  0  0  0  0  0  0  # atno 6907 bound_to 6896
  151.4908  133.3519  159.2861 H   0  0  0  0  0  0  0  0  0  0  0  0  # atno 6908 bound_to 6896
  150.8768  134.8180  159.7257 H   0  0  0  0  0  0  0  0  0  0  0  0  # atno 6909 bound_to 6896
  146.1018  140.5746  142.8817 H   0  0  0  0  0  0  0  0  0  0  0  0  # atno 7974 bound_to 7965
  155.3750  140.3425  155.4244 H   0  0  0  0  0  0  0  0  0  0  0  0  # atno 8008 bound_to 7997
  156.1642  140.1610  156.8594 H   0  0  0  0  0  0  0  0  0  0  0  0  # atno 8009 bound_to 7997
  154.5169  140.0776  156.8079 H   0  0  0  0  0  0  0  0  0  0  0  0  # atno 8010 bound_to 7997
  140.4317  143.2546  151.8750 H   0  0  0  0  0  0  0  0  0  0  0  0  # atno 10167 bound_to 10162
  156.1413  130.6467  150.9774 H   0  0  0  0  0  0  0  0  0  0  0  0  # atno 10718 bound_to 10713
  154.7424  135.5005  153.9145 H   0  0  0  0  0  0  0  0  0  0  0  0  # atno 10763 bound_to 10752
  153.1056  135.6696  153.9600 H   0  0  0  0  0  0  0  0  0  0  0  0  # atno 10764 bound_to 10752
  153.9373  135.3071  155.3423 H   0  0  0  0  0  0  0  0  0  0  0  0  # atno 10765 bound_to 10752
  140.3559  134.2178  155.7676 H   0  0  0  0  0  0  0  0  0  0  0  0  # atno 11005 bound_to 11000
  144.7439  140.5016  143.6849 LP  0  0  0  0  0  0  0  0  0  0  0  0  # atno 17320 bound_to 7965
  145.5838  139.1490  143.3220 LP  0  0  0  0  0  0  0  0  0  0  0  0  # atno 17321 bound_to 7965
  139.4785  144.5327  151.8643 LP  0  0  0  0  0  0  0  0  0  0  0  0  # atno 17342 bound_to 10162
  140.4419  144.1974  150.5892 LP  0  0  0  0  0  0  0  0  0  0  0  0  # atno 17343 bound_to 10162
  157.6578  131.0886  150.7908 LP  0  0  0  0  0  0  0  0  0  0  0  0  # atno 17370 bound_to 10713
  156.7984  130.4913  149.5373 LP  0  0  0  0  0  0  0  0  0  0  0  0  # atno 17371 bound_to 10713
  141.1998  133.8002  157.0517 LP  0  0  0  0  0  0  0  0  0  0  0  0  # atno 17394 bound_to 11000
  140.0665  134.9726  157.1395 LP  0  0  0  0  0  0  0  0  0  0  0  0  # atno 17395 bound_to 11000

$$$$
