AV-unprocessed.smi:48|AV-procd|sdf|451|dock6
  -GOLD-   2262016323D 1   1.00000     0.00000
 Structure written by MMmdl.
 30 32  0  0  0  0  0  0  0  0  1 V2000
  148.9927  141.0717  153.1684 O   0  0  0  0  0  0  0  0  0  0  0  0
  148.8075  139.7589  153.6534 C   0  0  0  0  0  0  0  0  0  0  0  0
  150.1400  139.1925  154.1676 C   0  0  1  0  0  0  0  0  0  0  0  0
  150.8624  140.2092  154.8473 O   0  0  0  0  0  0  0  0  0  0  0  0
  151.7447  139.6315  155.7569 C   0  0  1  0  0  0  0  0  0  0  0  0
  151.7218  140.4715  156.9962 N   0  0  0  0  0  0  0  0  0  0  0  0
  150.8844  141.4881  157.2861 C   0  0  0  0  0  0  0  0  0  0  0  0
  151.0436  142.0984  158.4598 N   0  0  0  0  0  0  0  0  0  0  0  0
  152.1054  141.3900  158.9983 C   0  0  0  0  0  0  0  0  0  0  0  0
  152.8050  141.4933  160.2252 C   0  0  0  0  0  0  0  0  0  0  0  0
  152.3756  142.6868  161.3952 Cl  0  0  0  0  0  0  0  0  0  0  0  0
  153.8225  140.6313  160.4624 N   0  0  0  0  0  0  0  0  0  0  0  0
  154.1342  139.7143  159.5381 C   0  0  0  0  0  0  0  0  0  0  0  0
  153.5695  139.4982  158.3447 N   0  0  0  0  0  0  0  0  0  0  0  0
  152.5437  140.3692  158.1076 C   0  0  0  0  0  0  0  0  0  0  0  0
  151.2867  138.1756  156.0009 C   0  0  1  0  0  0  0  0  0  0  0  0
  151.1011  137.8321  157.3629 O   0  0  0  0  0  0  0  0  0  0  0  0
  149.9696  138.1112  155.2386 C   0  0  2  0  0  0  0  0  0  0  0  0
  149.8028  136.8422  154.6389 O   0  0  0  0  0  0  0  0  0  0  0  0
  150.7534  138.8098  153.3489 H   0  0  0  0  0  0  0  0  0  0  0  0
  152.7706  139.6978  155.3918 H   0  0  0  0  0  0  0  0  0  0  0  0
  152.0318  137.5167  155.5520 H   0  0  0  0  0  0  0  0  0  0  0  0
  149.1258  138.3464  155.8894 H   0  0  0  0  0  0  0  0  0  0  0  0
  149.2531  141.0228  152.2613 H   0  0  0  0  0  0  0  0  0  0  0  0
  148.0436  139.7441  154.4314 H   0  0  0  0  0  0  0  0  0  0  0  0
  148.4381  139.1542  152.8246 H   0  0  0  0  0  0  0  0  0  0  0  0
  150.1155  141.8006  156.5946 H   0  0  0  0  0  0  0  0  0  0  0  0
  154.9540  139.0582  159.7905 H   0  0  0  0  0  0  0  0  0  0  0  0
  150.2814  138.1993  157.6566 H   0  0  0  0  0  0  0  0  0  0  0  0
  149.5398  136.9704  153.7401 H   0  0  0  0  0  0  0  0  0  0  0  0
  1  2  1  0  0  0  0
  1 24  1  0  0  0  0
  2  3  1  0  0  0  0
  2 25  1  0  0  0  0
  2 26  1  0  0  0  0
  3 20  1  0  0  0  0
  3 18  1  0  0  0  0
  3  4  1  0  0  0  0
  4  5  1  0  0  0  0
  5 21  1  0  0  0  0
  5  6  1  0  0  0  0
  5 16  1  0  0  0  0
  6 15  1  0  0  0  0
  6  7  1  0  0  0  0
  7  8  2  0  0  0  0
  7 27  1  0  0  0  0
  8  9  1  0  0  0  0
  9 15  2  0  0  0  0
  9 10  1  0  0  0  0
 10 11  1  0  0  0  0
 10 12  2  0  0  0  0
 12 13  1  0  0  0  0
 13 14  2  0  0  0  0
 13 28  1  0  0  0  0
 14 15  1  0  0  0  0
 16 22  1  0  0  0  0
 16 17  1  0  0  0  0
 16 18  1  0  0  0  0
 17 29  1  0  0  0  0
 18 23  1  0  0  0  0
 18 19  1  0  0  0  0
 19 30  1  0  0  0  0
M  END
> <s_m_source_file>
AV-unprocessed.smi

> <i_m_source_file_index>
48

> <i_lp_mmshare_version>
43012

> <i_f3d_flags>
0

> <s_epik_input>
W09IXVtDSDJdW0NASF0xT1tDQEhdKFtDQEhdKFtPSF0pW0NAQEhdMVtPSF0pbihbY0hdbjIpYyhjMjMpbltjSF1uYzNDbA==

> <s_epik_cmdline>
J2VwaWtfcHl0aG9uJywgJy1waCcsICc3LjAnLCAnLXRuJywgJzgnLCAnLW1hJywgJzIwMCcsICctbWV0YWxfYmluZGluZycsICctaW1hZScsICc8aW5maWxlLm1hZT4nLCAnLW9tYWUnLCAnPG91dGZpbGUubWFlPic=

> <r_lp_tautomer_probability>
1

> <r_epik_Ionization_Penalty>
3.45505e-06

> <r_epik_Ionization_Penalty_Charging>
0

> <r_epik_Ionization_Penalty_Neutral>
3.45505e-06

> <r_epik_State_Penalty>
-0

> <r_epik_Charging_Adjusted_Penalty>
0

> <i_epik_Tot_Q>
0

> <i_epik_Tot_abs_Q>
0

> <r_epik_Metal_State_Penalty>
-0

> <b_epik_Metal_Only>
0

> <s_epik_Chemistry_Notes>
This compound contains an acetal/aminal-like group ( X-CH(R)-Y where X, Y are N, S, or O) that may be acid/base labile, releasing an aldehyde.

> <s_lp_Force_Field>
OPLS_2005

> <r_lp_Energy>
37.1345

> <b_lp_Chiralities_Consistent>
1

> <s_lp_Variant>
AV-unprocessed.smi:48-5

> <Gold.Version>
5.8.1

> <Gold.Id.Protein>
6NUR|6NUR_protein|mol2

> <Gold.PLP.Fitness>
40.8070

> <Gold.PLP.PLP>
-30.8539

> <Gold.PLP.part.hbond>
-5.2898

> <Gold.PLP.part.metal>
0.0000

> <Gold.PLP.part.buried>
-0.9300

> <Gold.PLP.part.nonpolar>
-24.5255

> <Gold.PLP.part.repulsive>
0.0866

> <Gold.PLP.ligand.clash>
0.0000

> <Gold.PLP.ligand.torsion>
0.3912

> <Gold.PLP.Chemscore.Hbond>
3.5753

> <Gold.PLP.Chemscore.CHOScore>
0.0000

> <Gold.PLP.Chemscore.Metal>
0.0000

> <Gold.Chemscore.Hbonds>
donor molecule, donor type, donor heavy atom, donor atom, acceptor molecule, acceptor atom, score
      L1  H     1    24       P1  7957  0.82
      L1  H    19    30       P1  7948  0.89
      P1  H  7989  7998       L1     4  0.90
      P1  H  7997  8009       L1    14  0.94

> <Gold.PLP.Chemscore.Internal.Correction>
0.0097

> <Gold.Rescore>
     Score         DG    S(hbond)    S(metal)    S(lipo)     H(rot)  DE(clash)    DE(int)     intcor
      6.60      -8.20       1.85        0.00      53.58       3.80       0.15       1.45       ----

> <Gold.Chemscore.Fitness>
6.5954

> <Gold.Chemscore.DG>
-8.1969

> <Gold.Chemscore.ZeroCoef>
-5.4800

> <Gold.Chemscore.Hbond>
1.8504

> <Gold.Chemscore.Metal>
0.0000

> <Gold.Chemscore.Lipo>
53.5819

> <Gold.Chemscore.Internal_Hbond>
0.0000

> <Gold.Chemscore.DEClash>
0.1483

> <Gold.Chemscore.DEInternal>
1.4532

> <Gold.Chemscore.Rot>
3.8017

> <Gold.Chemscore.Internal.Correction>
   9.000000E+99

> <Gold.Chemscore.Hbonds>
donor molecule, donor type, donor heavy atom, donor atom, acceptor molecule, acceptor atom, score
      L1  H     1    24       P1  7957  0.77
      L1  H    19    30       P1  7948  0.73
      P1  H  7989  7998       L1     4  0.15
      P1  H  7997  8009       L1    14  0.12

> <Gold.Chemscore.Hbond.Weighted>
-6.1802

> <Gold.Chemscore.Metal.Weighted>
-0.0000

> <Gold.Chemscore.Lipo.Weighted>
-6.2691

> <Gold.Chemscore.Internal_Hbond.Weighted>
0.0000

> <Gold.Chemscore.DEClash.Weighted>
0.1483

> <Gold.Chemscore.DEInternal.Weighted>
1.4532

> <Gold.Chemscore.Rot.Weighted>
9.7324

> <Gold.Chemscore.Internal.Correction.Weighted>
   9.000000E+99

> <Gold.Protein.RotatedTorsions>
[ 6907 6896 6895 6894 ] final -170.78 input  -60.11 | X-H torsion
[ 7974 7965 7964 7962 ] final  -66.70 input  175.53 | X-H torsion
[ 8008 7997 7996 7995 ] final  127.91 input   59.86 | X-H torsion
[ 10167 10162 10161 10158 ] final  114.44 input  -65.29 | X-H torsion
[ 10718 10713 10712 10709 ] final  -80.85 input   66.30 | X-H torsion
[ 10763 10752 10751 10750 ] final  103.01 input  -60.55 | X-H torsion
[ 11005 11000 10999 10996 ] final -126.43 input  -57.11 | X-H torsion

> <Gold.Protein.ActiveResidues>
 VAL166  LYS551  ARG553  GLY616  TRP617  ASP618  TYR619  PRO620  LYS621  CYS622 
 ASP623  PHE694  ASN695  SER759  ASP760  ASP761  ALA762  ILE779  LEU786  VAL792 
 PHE793  MET794  SER795  GLU796  ALA797  LYS798  CYS799  TRP800  GLU811  SER814 

> <Gold.Protein.RotatedAtoms>
  151.5133  133.3480  159.2888 H   0  0  0  0  0  0  0  0  0  0  0  0  # atno 6907 bound_to 6896
  150.8698  134.8072  159.7157 H   0  0  0  0  0  0  0  0  0  0  0  0  # atno 6908 bound_to 6896
  152.4690  134.5015  159.9778 H   0  0  0  0  0  0  0  0  0  0  0  0  # atno 6909 bound_to 6896
  145.7385  140.8964  143.0542 H   0  0  0  0  0  0  0  0  0  0  0  0  # atno 7974 bound_to 7965
  156.2902  140.2657  156.2350 H   0  0  0  0  0  0  0  0  0  0  0  0  # atno 8008 bound_to 7997
  155.0034  140.0387  157.2388 H   0  0  0  0  0  0  0  0  0  0  0  0  # atno 8009 bound_to 7997
  154.7581  140.2755  155.6241 H   0  0  0  0  0  0  0  0  0  0  0  0  # atno 8010 bound_to 7997
  139.6388  144.7122  151.2279 H   0  0  0  0  0  0  0  0  0  0  0  0  # atno 10167 bound_to 10162
  156.0062  130.4586  150.3863 H   0  0  0  0  0  0  0  0  0  0  0  0  # atno 10718 bound_to 10713
  153.3471  135.3991  155.1617 H   0  0  0  0  0  0  0  0  0  0  0  0  # atno 10763 bound_to 10752
  154.8655  135.3647  154.5271 H   0  0  0  0  0  0  0  0  0  0  0  0  # atno 10764 bound_to 10752
  153.5720  135.7078  153.5560 H   0  0  0  0  0  0  0  0  0  0  0  0  # atno 10765 bound_to 10752
  140.9682  134.0842  157.3898 H   0  0  0  0  0  0  0  0  0  0  0  0  # atno 11005 bound_to 11000
  144.6876  139.9428  143.7475 LP  0  0  0  0  0  0  0  0  0  0  0  0  # atno 17320 bound_to 7965
  146.0470  139.3475  143.0662 LP  0  0  0  0  0  0  0  0  0  0  0  0  # atno 17321 bound_to 7965
  140.7480  143.6348  150.8389 LP  0  0  0  0  0  0  0  0  0  0  0  0  # atno 17342 bound_to 10162
  139.9983  143.5772  152.2885 LP  0  0  0  0  0  0  0  0  0  0  0  0  # atno 17343 bound_to 10162
  157.1940  131.0422  151.2685 LP  0  0  0  0  0  0  0  0  0  0  0  0  # atno 17370 bound_to 10713
  157.4035  130.7346  149.6785 LP  0  0  0  0  0  0  0  0  0  0  0  0  # atno 17371 bound_to 10713
  139.8902  135.0110  156.6723 LP  0  0  0  0  0  0  0  0  0  0  0  0  # atno 17394 bound_to 11000
  140.7368  133.9011  155.8250 LP  0  0  0  0  0  0  0  0  0  0  0  0  # atno 17395 bound_to 11000

$$$$
