AV-unprocessed.smi:1641|AV-procd|sdf|6568|dock5
  -GOLD-   22720 7253D 1   1.00000     0.00000
 Structure written by MMmdl.
 41 42  0  0  0  0  0  0  0  0  3 V2000
  147.4634  135.2268  162.6878 C   0  0  0  0  0  0  0  0  0  0  0  0
  147.6966  135.8395  161.3493 C   0  0  0  0  0  0  0  0  0  0  0  0
  147.8494  137.1541  161.1713 N   0  0  0  0  0  0  0  0  0  0  0  0
  148.0510  137.4813  159.8381 N   0  0  0  0  0  0  0  0  0  0  0  0
  148.0362  136.4138  159.0270 C   0  0  0  0  0  0  0  0  0  0  0  0
  148.2116  136.5126  157.6989 N   0  5  0  0  0  0  0  0  0  0  0  0
  148.9913  135.6169  157.0532 C   0  0  0  0  0  0  0  0  0  0  0  0
  149.8209  134.8635  157.5680 O   0  0  0  0  0  0  0  0  0  0  0  0
  148.8051  135.5978  155.7258 N   0  0  0  0  0  0  0  0  0  0  0  0
  149.5186  134.7490  154.7791 C   0  0  0  0  0  0  0  0  0  0  0  0
  148.6490  133.5619  154.3214 C   0  0  0  0  0  0  0  0  0  0  0  0
  147.6609  133.9490  153.2848 N   0  3  1  0  0  0  0  0  0  0  0  0
  147.3075  132.8190  152.3947 C   0  0  0  0  0  0  0  0  0  0  0  0
  146.3641  133.2892  151.2732 C   0  0  1  0  0  0  0  0  0  0  0  0
  145.9021  132.1274  150.3867 C   0  0  0  0  0  0  0  0  0  0  0  0
  145.2052  133.8893  151.8459 O   0  0  0  0  0  0  0  0  0  0  0  0
  145.4673  134.9924  152.7132 C   0  0  2  0  0  0  0  0  0  0  0  0
  145.9326  136.2417  151.9434 C   0  0  0  0  0  0  0  0  0  0  0  0
  146.4314  134.5686  153.8386 C   0  0  0  0  0  0  0  0  0  0  0  0
  147.7878  134.8888  159.8765 S   0  0  0  0  0  0  0  0  0  0  0  0
  146.3998  135.2469  162.9256 H   0  0  0  0  0  0  0  0  0  0  0  0
  148.0070  135.7763  163.4570 H   0  0  0  0  0  0  0  0  0  0  0  0
  147.8045  134.1915  162.6932 H   0  0  0  0  0  0  0  0  0  0  0  0
  148.1127  136.2275  155.3469 H   0  0  0  0  0  0  0  0  0  0  0  0
  149.8476  135.3575  153.9365 H   0  0  0  0  0  0  0  0  0  0  0  0
  150.4210  134.3816  155.2683 H   0  0  0  0  0  0  0  0  0  0  0  0
  149.3115  132.7962  153.9154 H   0  0  0  0  0  0  0  0  0  0  0  0
  148.1296  133.1032  155.1642 H   0  0  0  0  0  0  0  0  0  0  0  0
  148.2131  132.3983  151.9562 H   0  0  0  0  0  0  0  0  0  0  0  0
  146.8377  132.0275  152.9813 H   0  0  0  0  0  0  0  0  0  0  0  0
  146.8790  134.0123  150.6402 H   0  0  0  0  0  0  0  0  0  0  0  0
  146.7501  131.6317  149.9133 H   0  0  0  0  0  0  0  0  0  0  0  0
  145.2409  132.4809  149.5953 H   0  0  0  0  0  0  0  0  0  0  0  0
  145.3580  131.3805  150.9654 H   0  0  0  0  0  0  0  0  0  0  0  0
  144.5123  135.2460  153.1741 H   0  0  0  0  0  0  0  0  0  0  0  0
  145.9943  137.1037  152.6082 H   0  0  0  0  0  0  0  0  0  0  0  0
  145.2314  136.4908  151.1467 H   0  0  0  0  0  0  0  0  0  0  0  0
  146.9169  136.1100  151.4947 H   0  0  0  0  0  0  0  0  0  0  0  0
  145.9355  133.8495  154.4926 H   0  0  0  0  0  0  0  0  0  0  0  0
  146.6733  135.4344  154.4539 H   0  0  0  0  0  0  0  0  0  0  0  0
  148.1097  134.6420  152.7032 H   0  0  0  0  0  0  0  0  0  0  0  0
  1  2  1  0  0  0  0
  1 21  1  0  0  0  0
  1 22  1  0  0  0  0
  1 23  1  0  0  0  0
  2 20  1  0  0  0  0
  2  3  2  0  0  0  0
  3  4  1  0  0  0  0
  4  5  2  0  0  0  0
  5  6  1  0  0  0  0
  5 20  1  0  0  0  0
  6  7  1  0  0  0  0
  7  8  2  0  0  0  0
  7  9  1  0  0  0  0
  9 10  1  0  0  0  0
  9 24  1  0  0  0  0
 10 11  1  0  0  0  0
 10 25  1  0  0  0  0
 10 26  1  0  0  0  0
 11 12  1  0  0  0  0
 11 27  1  0  0  0  0
 11 28  1  0  0  0  0
 12 19  1  0  0  0  0
 12 13  1  0  0  0  0
 12 41  1  0  0  0  0
 13 14  1  0  0  0  0
 13 29  1  0  0  0  0
 13 30  1  0  0  0  0
 14 15  1  0  0  0  0
 14 16  1  0  0  0  0
 14 31  1  0  0  0  0
 15 32  1  0  0  0  0
 15 33  1  0  0  0  0
 15 34  1  0  0  0  0
 16 17  1  0  0  0  0
 17 18  1  0  0  0  0
 17 19  1  0  0  0  0
 17 35  1  0  0  0  0
 18 36  1  0  0  0  0
 18 37  1  0  0  0  0
 18 38  1  0  0  0  0
 19 39  1  0  0  0  0
 19 40  1  0  0  0  0
M  CHG  1   6  -1
M  CHG  1  12   1
M  END
> <s_m_source_file>
AV-unprocessed.smi

> <i_m_source_file_index>
1641

> <i_lp_mmshare_version>
43012

> <i_f3d_flags>
0

> <s_epik_input>
W0NIM11jMW5uYyhzMSlbTkhdQyg9TylbTkhdW0NIMl1bQ0gyXU4yW0NIMl1bQ0BASF0oW0NIM10pT1tDQEBIXShbQ0gzXSlbQ0gyXTI=

> <s_epik_cmdline>
J2VwaWtfcHl0aG9uJywgJy1waCcsICc3LjAnLCAnLXRuJywgJzgnLCAnLW1hJywgJzIwMCcsICctbWV0YWxfYmluZGluZycsICctaW1hZScsICc8aW5maWxlLm1hZT4nLCAnLW9tYWUnLCAnPG91dGZpbGUubWFlPic=

> <r_lp_tautomer_probability>
1

> <r_epik_Ionization_Penalty>
3.5343

> <r_epik_Ionization_Penalty_Charging>
3.42778

> <r_epik_Ionization_Penalty_Neutral>
0.106519

> <r_epik_State_Penalty>
3.62118

> <r_epik_Charging_Adjusted_Penalty>
7.04896

> <i_epik_Tot_Q>
0

> <i_epik_Tot_abs_Q>
2

> <r_epik_Metal_State_Penalty>
1.13984

> <b_epik_Metal_Only>
1

> <s_lp_Force_Field>
OPLS_2005

> <r_lp_Energy>
9.90371

> <b_lp_Chiralities_Consistent>
1

> <s_lp_Variant>
AV-unprocessed.smi:1641-13

> <Gold.Version>
5.8.1

> <Gold.Id.Protein>
6NUR|6NUR_protein|mol2

> <Gold.PLP.Fitness>
39.9889

> <Gold.PLP.PLP>
-30.3675

> <Gold.PLP.part.hbond>
-5.9283

> <Gold.PLP.part.metal>
0.0000

> <Gold.PLP.part.buried>
-2.0031

> <Gold.PLP.part.nonpolar>
-22.9987

> <Gold.PLP.part.repulsive>
0.0951

> <Gold.PLP.ligand.clash>
0.0000

> <Gold.PLP.ligand.torsion>
0.8727

> <Gold.PLP.Chemscore.Hbond>
3.7626

> <Gold.PLP.Chemscore.CHOScore>
0.0000

> <Gold.PLP.Chemscore.Metal>
0.0000

> <Gold.Chemscore.Hbonds>
donor molecule, donor type, donor heavy atom, donor atom, acceptor molecule, acceptor atom, score
      L1  H    12    41       P1  7948  2.00
      P1  H  6896  6908       L1     8  0.77
      P1  H  6931  6943       L1     3  0.94

> <Gold.PLP.Chemscore.Internal.Correction>
0.0788

> <Gold.Rescore>
     Score         DG    S(hbond)    S(metal)    S(lipo)     H(rot)  DE(clash)    DE(int)     intcor
     15.87     -16.90       2.53        0.00      60.49       1.61       0.21       0.82       ----

> <Gold.Chemscore.Fitness>
15.8694

> <Gold.Chemscore.DG>
-16.8951

> <Gold.Chemscore.ZeroCoef>
-5.4800

> <Gold.Chemscore.Hbond>
2.5304

> <Gold.Chemscore.Metal>
0.0000

> <Gold.Chemscore.Lipo>
60.4909

> <Gold.Chemscore.Internal_Hbond>
0.0000

> <Gold.Chemscore.DEClash>
0.2092

> <Gold.Chemscore.DEInternal>
0.8165

> <Gold.Chemscore.Rot>
1.6070

> <Gold.Chemscore.Internal.Correction>
   9.000000E+99

> <Gold.Chemscore.Hbonds>
donor molecule, donor type, donor heavy atom, donor atom, acceptor molecule, acceptor atom, score
      L1  H    12    41       P1  7948  0.60
      P1  H  6896  6908       L1     8  0.74
      P1  H  6931  6943       L1     3  0.20

> <Gold.Chemscore.Hbond.Weighted>
-8.4516

> <Gold.Chemscore.Metal.Weighted>
-0.0000

> <Gold.Chemscore.Lipo.Weighted>
-7.0774

> <Gold.Chemscore.Internal_Hbond.Weighted>
0.0000

> <Gold.Chemscore.DEClash.Weighted>
0.2092

> <Gold.Chemscore.DEInternal.Weighted>
0.8165

> <Gold.Chemscore.Rot.Weighted>
4.1139

> <Gold.Chemscore.Internal.Correction.Weighted>
   9.000000E+99

> <Gold.Protein.RotatedTorsions>
[ 6907 6896 6895 6894 ] final  147.60 input  -60.11 | X-H torsion
[ 7974 7965 7964 7962 ] final -174.78 input  175.53 | X-H torsion
[ 8008 7997 7996 7995 ] final  -46.01 input   59.86 | X-H torsion
[ 10167 10162 10161 10158 ] final  100.98 input  -65.29 | X-H torsion
[ 10718 10713 10712 10709 ] final  147.29 input   66.30 | X-H torsion
[ 10763 10752 10751 10750 ] final  168.64 input  -60.55 | X-H torsion
[ 11005 11000 10999 10996 ] final -139.05 input  -57.11 | X-H torsion

> <Gold.Protein.ActiveResidues>
 VAL166  LYS551  ARG553  GLY616  TRP617  ASP618  TYR619  PRO620  LYS621  CYS622 
 ASP623  PHE694  ASN695  SER759  ASP760  ASP761  ALA762  ILE779  LEU786  VAL792 
 PHE793  MET794  SER795  GLU796  ALA797  LYS798  CYS799  TRP800  GLU811  SER814 

> <Gold.Protein.RotatedAtoms>
  152.1526  133.4531  159.4820 H   0  0  0  0  0  0  0  0  0  0  0  0  # atno 6907 bound_to 6896
  150.6897  134.2170  159.4391 H   0  0  0  0  0  0  0  0  0  0  0  0  # atno 6908 bound_to 6896
  152.0068  134.9898  160.0617 H   0  0  0  0  0  0  0  0  0  0  0  0  # atno 6909 bound_to 6896
  144.7130  140.1419  143.6391 H   0  0  0  0  0  0  0  0  0  0  0  0  # atno 7974 bound_to 7965
  154.4004  140.1382  156.3940 H   0  0  0  0  0  0  0  0  0  0  0  0  # atno 8008 bound_to 7997
  155.7887  140.3479  155.5317 H   0  0  0  0  0  0  0  0  0  0  0  0  # atno 8009 bound_to 7997
  155.8601  140.0955  157.1609 H   0  0  0  0  0  0  0  0  0  0  0  0  # atno 8010 bound_to 7997
  139.7478  144.6993  151.0477 H   0  0  0  0  0  0  0  0  0  0  0  0  # atno 10167 bound_to 10162
  157.3228  131.0907  151.1227 H   0  0  0  0  0  0  0  0  0  0  0  0  # atno 10718 bound_to 10713
  154.3716  135.2753  155.2263 H   0  0  0  0  0  0  0  0  0  0  0  0  # atno 10763 bound_to 10752
  154.4408  135.5954  153.6132 H   0  0  0  0  0  0  0  0  0  0  0  0  # atno 10764 bound_to 10752
  152.9838  135.6018  154.3948 H   0  0  0  0  0  0  0  0  0  0  0  0  # atno 10765 bound_to 10752
  140.8557  134.2230  157.4735 H   0  0  0  0  0  0  0  0  0  0  0  0  # atno 11005 bound_to 11000
  145.9194  139.2536  143.1390 LP  0  0  0  0  0  0  0  0  0  0  0  0  # atno 17320 bound_to 7965
  145.9636  140.8816  143.0198 LP  0  0  0  0  0  0  0  0  0  0  0  0  # atno 17321 bound_to 7965
  140.7794  143.4845  150.9974 LP  0  0  0  0  0  0  0  0  0  0  0  0  # atno 17342 bound_to 10162
  139.8533  143.7409  152.3177 LP  0  0  0  0  0  0  0  0  0  0  0  0  # atno 17343 bound_to 10162
  157.2505  130.6612  149.5929 LP  0  0  0  0  0  0  0  0  0  0  0  0  # atno 17370 bound_to 10713
  155.9687  130.4540  150.5832 LP  0  0  0  0  0  0  0  0  0  0  0  0  # atno 17371 bound_to 10713
  139.8705  134.9705  156.4704 LP  0  0  0  0  0  0  0  0  0  0  0  0  # atno 17394 bound_to 11000
  140.8739  133.7967  155.9394 LP  0  0  0  0  0  0  0  0  0  0  0  0  # atno 17395 bound_to 11000

$$$$
