AV-unprocessed.smi:919|AV-procd|sdf|4164|dock1
  -GOLD-   22720 2 73D 1   1.00000     0.00000
 Structure written by MMmdl.
 43 45  0  0  0  0  0  0  0  0  1 V2000
  147.3850  142.4926  154.1677 C   0  0  0  0  0  0  0  0  0  0  0  0
  148.4583  141.4559  154.3350 C   0  0  0  0  0  0  0  0  0  0  0  0
  149.6212  141.8101  154.8555 N   0  0  0  0  0  0  0  0  0  0  0  0
  150.3960  140.6467  154.8923 O   0  0  0  0  0  0  0  0  0  0  0  0
  149.6593  139.6250  154.3868 C   0  0  0  0  0  0  0  0  0  0  0  0
  150.3094  138.2835  154.3428 C   0  0  0  0  0  0  0  0  0  0  0  0
  148.4218  140.0687  154.0110 C   0  0  0  0  0  0  0  0  0  0  0  0
  147.2923  139.2767  153.4103 C   0  0  0  0  0  0  0  0  0  0  0  0
  146.9671  138.0366  154.2572 C   0  0  0  0  0  0  0  0  0  0  0  0
  147.0840  136.8098  153.4789 N   0  0  0  0  0  0  0  0  0  0  0  0
  146.1657  135.8290  153.4464 C   0  0  0  0  0  0  0  0  0  0  0  0
  145.1179  135.8599  154.0893 O   0  0  0  0  0  0  0  0  0  0  0  0
  146.4738  134.7969  152.6415 N   0  0  0  0  0  0  0  0  0  0  0  0
  145.6894  133.5859  152.3900 C   0  0  2  0  0  0  0  0  0  0  0  0
  146.5047  132.4612  151.7081 C   0  0  0  0  0  0  0  0  0  0  0  0
  145.7088  132.1946  150.4172 C   0  0  1  0  0  0  0  0  0  0  0  0
  144.3600  131.5368  150.7682 C   0  0  0  0  0  0  0  0  0  0  0  0
  143.5649  132.6989  151.3959 C   0  0  0  0  0  0  0  0  0  0  0  0
  144.5773  133.8585  151.3534 C   0  0  2  0  0  0  0  0  0  0  0  0
  145.2803  133.6012  150.0234 C   0  0  0  0  0  0  0  0  0  0  0  0
  146.5068  142.0831  153.6690 H   0  0  0  0  0  0  0  0  0  0  0  0
  147.7408  143.3338  153.5721 H   0  0  0  0  0  0  0  0  0  0  0  0
  147.0634  142.8808  155.1343 H   0  0  0  0  0  0  0  0  0  0  0  0
  149.6307  137.5137  154.7108 H   0  0  0  0  0  0  0  0  0  0  0  0
  151.2094  138.2611  154.9576 H   0  0  0  0  0  0  0  0  0  0  0  0
  150.5901  138.0255  153.3216 H   0  0  0  0  0  0  0  0  0  0  0  0
  146.3983  139.8933  153.3119 H   0  0  0  0  0  0  0  0  0  0  0  0
  147.5457  138.9678  152.3955 H   0  0  0  0  0  0  0  0  0  0  0  0
  147.6218  137.9876  155.1292 H   0  0  0  0  0  0  0  0  0  0  0  0
  145.9477  138.1018  154.6384 H   0  0  0  0  0  0  0  0  0  0  0  0
  147.9150  136.7017  152.9159 H   0  0  0  0  0  0  0  0  0  0  0  0
  147.3435  134.8680  152.1330 H   0  0  0  0  0  0  0  0  0  0  0  0
  145.2506  133.2452  153.3296 H   0  0  0  0  0  0  0  0  0  0  0  0
  147.5176  132.7879  151.4669 H   0  0  0  0  0  0  0  0  0  0  0  0
  146.5855  131.5720  152.3342 H   0  0  0  0  0  0  0  0  0  0  0  0
  146.2756  131.6555  149.6578 H   0  0  0  0  0  0  0  0  0  0  0  0
  143.8594  131.1714  149.8705 H   0  0  0  0  0  0  0  0  0  0  0  0
  144.4773  130.6953  151.4521 H   0  0  0  0  0  0  0  0  0  0  0  0
  142.6859  132.9303  150.7926 H   0  0  0  0  0  0  0  0  0  0  0  0
  143.2250  132.4755  152.4079 H   0  0  0  0  0  0  0  0  0  0  0  0
  144.1109  134.8402  151.4474 H   0  0  0  0  0  0  0  0  0  0  0  0
  146.1196  134.2736  149.8375 H   0  0  0  0  0  0  0  0  0  0  0  0
  144.6064  133.6249  149.1650 H   0  0  0  0  0  0  0  0  0  0  0  0
  1  2  1  0  0  0  0
  1 21  1  0  0  0  0
  1 22  1  0  0  0  0
  1 23  1  0  0  0  0
  2  7  1  0  0  0  0
  2  3  2  0  0  0  0
  3  4  1  0  0  0  0
  4  5  1  0  0  0  0
  5  6  1  0  0  0  0
  5  7  2  0  0  0  0
  6 24  1  0  0  0  0
  6 25  1  0  0  0  0
  6 26  1  0  0  0  0
  7  8  1  0  0  0  0
  8  9  1  0  0  0  0
  8 27  1  0  0  0  0
  8 28  1  0  0  0  0
  9 10  1  0  0  0  0
  9 29  1  0  0  0  0
  9 30  1  0  0  0  0
 10 11  1  0  0  0  0
 10 31  1  0  0  0  0
 11 12  2  0  0  0  0
 11 13  1  0  0  0  0
 13 14  1  0  0  0  0
 13 32  1  0  0  0  0
 14 19  1  0  0  0  0
 14 15  1  0  0  0  0
 14 33  1  0  0  0  0
 15 16  1  0  0  0  0
 15 34  1  0  0  0  0
 15 35  1  0  0  0  0
 16 20  1  0  0  0  0
 16 17  1  0  0  0  0
 16 36  1  0  0  0  0
 17 18  1  0  0  0  0
 17 37  1  0  0  0  0
 17 38  1  0  0  0  0
 18 19  1  0  0  0  0
 18 39  1  0  0  0  0
 18 40  1  0  0  0  0
 19 20  1  0  0  0  0
 19 41  1  0  0  0  0
 20 42  1  0  0  0  0
 20 43  1  0  0  0  0
M  END
> <s_m_source_file>
AV-unprocessed.smi

> <i_m_source_file_index>
919

> <i_lp_mmshare_version>
43012

> <i_f3d_flags>
0

> <s_epik_input>
W0NIM11jMW5vYyhbQ0gzXSljMVtDSDJdW0NIMl1bTkhdQyg9TylbTkhdW0NASF0oW0NIMl1bQ0BASF0yMylbQ0BASF0oW0NIMl0zKVtDSDJdW0NIMl0y

> <s_epik_cmdline>
J2VwaWtfcHl0aG9uJywgJy1waCcsICc3LjAnLCAnLXRuJywgJzgnLCAnLW1hJywgJzIwMCcsICctbWV0YWxfYmluZGluZycsICctaW1hZScsICc8aW5maWxlLm1hZT4nLCAnLW9tYWUnLCAnPG91dGZpbGUubWFlPic=

> <r_lp_tautomer_probability>
1

> <r_epik_Ionization_Penalty>
6.40771e-05

> <r_epik_Ionization_Penalty_Charging>
0

> <r_epik_Ionization_Penalty_Neutral>
6.40771e-05

> <r_epik_State_Penalty>
-0

> <r_epik_Charging_Adjusted_Penalty>
0

> <i_epik_Tot_Q>
0

> <i_epik_Tot_abs_Q>
0

> <r_epik_Metal_State_Penalty>
-0

> <b_epik_Metal_Only>
0

> <s_lp_Force_Field>
OPLS_2005

> <r_lp_Energy>
47.5349

> <b_lp_Chiralities_Consistent>
1

> <s_lp_Variant>
AV-unprocessed.smi:919-1

> <Gold.Version>
5.8.1

> <Gold.Id.Protein>
6NUR|6NUR_protein|mol2

> <Gold.PLP.Fitness>
41.0142

> <Gold.PLP.PLP>
-34.5116

> <Gold.PLP.part.hbond>
-4.0107

> <Gold.PLP.part.metal>
0.0000

> <Gold.PLP.part.buried>
0.8646

> <Gold.PLP.part.nonpolar>
-30.8766

> <Gold.PLP.part.repulsive>
0.4193

> <Gold.PLP.ligand.clash>
0.0000

> <Gold.PLP.ligand.torsion>
0.7302

> <Gold.PLP.Chemscore.Hbond>
2.6446

> <Gold.PLP.Chemscore.CHOScore>
0.0000

> <Gold.PLP.Chemscore.Metal>
0.0000

> <Gold.Chemscore.Hbonds>
donor molecule, donor type, donor heavy atom, donor atom, acceptor molecule, acceptor atom, score
      L1  H    10    31       P1  7948  1.00
      L1  H    13    32       P1  7948  0.70
      P1  H  7989  7998       L1     4  0.91

> <Gold.PLP.Chemscore.Internal.Correction>
0.0293

> <Gold.Rescore>
     Score         DG    S(hbond)    S(metal)    S(lipo)     H(rot)  DE(clash)    DE(int)     intcor
     16.98     -19.28       1.92        0.00      96.33       1.52       1.53       0.77       ----

> <Gold.Chemscore.Fitness>
16.9806

> <Gold.Chemscore.DG>
-19.2830

> <Gold.Chemscore.ZeroCoef>
-5.4800

> <Gold.Chemscore.Hbond>
1.9201

> <Gold.Chemscore.Metal>
0.0000

> <Gold.Chemscore.Lipo>
96.3343

> <Gold.Chemscore.Internal_Hbond>
0.0000

> <Gold.Chemscore.DEClash>
1.5333

> <Gold.Chemscore.DEInternal>
0.7691

> <Gold.Chemscore.Rot>
1.5161

> <Gold.Chemscore.Internal.Correction>
   9.000000E+99

> <Gold.Chemscore.Hbonds>
donor molecule, donor type, donor heavy atom, donor atom, acceptor molecule, acceptor atom, score
      L1  H    10    31       P1  7948  0.95
      L1  H    13    32       P1  7948  0.63
      P1  H  7989  7998       L1     4  0.09

> <Gold.Chemscore.Hbond.Weighted>
-6.4132

> <Gold.Chemscore.Metal.Weighted>
-0.0000

> <Gold.Chemscore.Lipo.Weighted>
-11.2711

> <Gold.Chemscore.Internal_Hbond.Weighted>
0.0000

> <Gold.Chemscore.DEClash.Weighted>
1.5333

> <Gold.Chemscore.DEInternal.Weighted>
0.7691

> <Gold.Chemscore.Rot.Weighted>
3.8813

> <Gold.Chemscore.Internal.Correction.Weighted>
   9.000000E+99

> <Gold.Protein.RotatedTorsions>
[ 6907 6896 6895 6894 ] final  -94.20 input  -60.11 | X-H torsion
[ 7974 7965 7964 7962 ] final  -21.68 input  175.53 | X-H torsion
[ 8008 7997 7996 7995 ] final  -38.91 input   59.86 | X-H torsion
[ 10167 10162 10161 10158 ] final -156.17 input  -65.29 | X-H torsion
[ 10718 10713 10712 10709 ] final   45.49 input   66.30 | X-H torsion
[ 10763 10752 10751 10750 ] final  -70.29 input  -60.55 | X-H torsion
[ 11005 11000 10999 10996 ] final    8.94 input  -57.11 | X-H torsion

> <Gold.Protein.ActiveResidues>
 VAL166  LYS551  ARG553  GLY616  TRP617  ASP618  TYR619  PRO620  LYS621  CYS622 
 ASP623  PHE694  ASN695  SER759  ASP760  ASP761  ALA762  ILE779  LEU786  VAL792 
 PHE793  MET794  SER795  GLU796  ALA797  LYS798  CYS799  TRP800  GLU811  SER814 

> <Gold.Protein.RotatedAtoms>
  150.6937  134.1849  159.4262 H   0  0  0  0  0  0  0  0  0  0  0  0  # atno 6907 bound_to 6896
  151.9822  135.0020  160.0567 H   0  0  0  0  0  0  0  0  0  0  0  0  # atno 6908 bound_to 6896
  152.1745  133.4630  159.4963 H   0  0  0  0  0  0  0  0  0  0  0  0  # atno 6909 bound_to 6896
  146.1719  140.4374  142.8529 H   0  0  0  0  0  0  0  0  0  0  0  0  # atno 7974 bound_to 7965
  154.4030  140.1565  156.2778 H   0  0  0  0  0  0  0  0  0  0  0  0  # atno 8008 bound_to 7997
  155.8897  140.3439  155.5925 H   0  0  0  0  0  0  0  0  0  0  0  0  # atno 8009 bound_to 7997
  155.7573  140.0813  157.2163 H   0  0  0  0  0  0  0  0  0  0  0  0  # atno 8010 bound_to 7997
  139.6872  143.9482  152.2367 H   0  0  0  0  0  0  0  0  0  0  0  0  # atno 10167 bound_to 10162
  157.4381  130.8065  149.7668 H   0  0  0  0  0  0  0  0  0  0  0  0  # atno 10718 bound_to 10713
  154.4155  135.5999  153.5978 H   0  0  0  0  0  0  0  0  0  0  0  0  # atno 10763 bound_to 10752
  152.9792  135.5939  154.4018 H   0  0  0  0  0  0  0  0  0  0  0  0  # atno 10764 bound_to 10752
  154.3836  135.2841  155.2175 H   0  0  0  0  0  0  0  0  0  0  0  0  # atno 10765 bound_to 10752
  140.5314  134.0463  155.7874 H   0  0  0  0  0  0  0  0  0  0  0  0  # atno 11005 bound_to 11000
  144.8176  140.6495  143.6374 LP  0  0  0  0  0  0  0  0  0  0  0  0  # atno 17320 bound_to 7965
  145.4316  139.1548  143.4019 LP  0  0  0  0  0  0  0  0  0  0  0  0  # atno 17321 bound_to 7965
  139.9288  144.6754  150.8384 LP  0  0  0  0  0  0  0  0  0  0  0  0  # atno 17342 bound_to 10162
  140.7671  143.3323  151.2383 LP  0  0  0  0  0  0  0  0  0  0  0  0  # atno 17343 bound_to 10162
  155.9938  130.3922  150.2884 LP  0  0  0  0  0  0  0  0  0  0  0  0  # atno 17370 bound_to 10713
  157.1047  131.0205  151.3072 LP  0  0  0  0  0  0  0  0  0  0  0  0  # atno 17371 bound_to 10713
  141.1279  133.9351  157.2597 LP  0  0  0  0  0  0  0  0  0  0  0  0  # atno 17394 bound_to 11000
  139.9552  135.0167  156.9108 LP  0  0  0  0  0  0  0  0  0  0  0  0  # atno 17395 bound_to 11000

$$$$
