AV-unprocessed.smi:72|AV-procd|sdf|704|dock4
  -GOLD-   2262017 23D 1   1.00000     0.00000
 Structure written by MMmdl.
 30 31  0  0  0  0  0  0  0  0  2 V2000
  146.0476  139.1880  152.9485 N   0  0  0  0  0  0  0  0  0  0  0  0
  147.1733  139.4470  153.7023 C   0  0  0  0  0  0  0  0  0  0  0  0
  148.2354  138.5682  153.5940 N   0  3  0  0  0  0  0  0  0  0  0  0
  149.4027  138.6851  154.2411 C   0  0  0  0  0  0  0  0  0  0  0  0
  149.5990  139.7255  155.0293 N   0  0  0  0  0  0  0  0  0  0  0  0
  150.8914  139.9186  155.7923 C   0  0  1  0  0  0  0  0  0  0  0  0
  150.6597  139.6442  157.1367 O   0  0  0  0  0  0  0  0  0  0  0  0
  150.8785  138.2593  157.3711 C   0  0  2  0  0  0  0  0  0  0  0  0
  151.0562  138.0029  158.8746 C   0  0  0  0  0  0  0  0  0  0  0  0
  151.7715  136.8019  159.0709 O   0  0  0  0  0  0  0  0  0  0  0  0
  152.1379  137.9931  156.5430 C   0  0  1  0  0  0  0  0  0  0  0  0
  152.1693  136.6415  156.1312 O   0  0  0  0  0  0  0  0  0  0  0  0
  151.9768  138.9178  155.3358 C   0  0  2  0  0  0  0  0  0  0  0  0
  153.1960  139.5713  155.0486 O   0  0  0  0  0  0  0  0  0  0  0  0
  148.5383  140.6419  155.2563 C   0  0  0  0  0  0  0  0  0  0  0  0
  148.6753  141.5666  156.0560 O   0  0  0  0  0  0  0  0  0  0  0  0
  147.3559  140.4371  154.5309 N   0  0  0  0  0  0  0  0  0  0  0  0
  151.1458  140.9705  155.6491 H   0  0  0  0  0  0  0  0  0  0  0  0
  150.0465  137.6755  156.9715 H   0  0  0  0  0  0  0  0  0  0  0  0
  153.0322  138.2412  157.1179 H   0  0  0  0  0  0  0  0  0  0  0  0
  151.6447  138.3697  154.4527 H   0  0  0  0  0  0  0  0  0  0  0  0
  145.2219  139.7700  152.9707 H   0  0  0  0  0  0  0  0  0  0  0  0
  145.9566  138.4025  152.3202 H   0  0  0  0  0  0  0  0  0  0  0  0
  150.1469  137.9111  154.1074 H   0  0  0  0  0  0  0  0  0  0  0  0
  151.6359  138.8082  159.3270 H   0  0  0  0  0  0  0  0  0  0  0  0
  150.0958  137.9644  159.3895 H   0  0  0  0  0  0  0  0  0  0  0  0
  152.6840  137.0132  159.1997 H   0  0  0  0  0  0  0  0  0  0  0  0
  151.6388  136.1343  156.7271 H   0  0  0  0  0  0  0  0  0  0  0  0
  153.3870  139.4673  154.1289 H   0  0  0  0  0  0  0  0  0  0  0  0
  148.1170  137.7737  152.9817 H   0  0  0  0  0  0  0  0  0  0  0  0
  1  2  1  0  0  0  0
  1 22  1  0  0  0  0
  1 23  1  0  0  0  0
  2 17  2  0  0  0  0
  2  3  1  0  0  0  0
  3  4  2  0  0  0  0
  3 30  1  0  0  0  0
  4  5  1  0  0  0  0
  4 24  1  0  0  0  0
  5  6  1  0  0  0  0
  5 15  1  0  0  0  0
  6 18  1  0  0  0  0
  6 13  1  0  0  0  0
  6  7  1  0  0  0  0
  7  8  1  0  0  0  0
  8 19  1  0  0  0  0
  8  9  1  0  0  0  0
  8 11  1  0  0  0  0
  9 10  1  0  0  0  0
  9 25  1  0  0  0  0
  9 26  1  0  0  0  0
 10 27  1  0  0  0  0
 11 20  1  0  0  0  0
 11 12  1  0  0  0  0
 11 13  1  0  0  0  0
 12 28  1  0  0  0  0
 13 21  1  0  0  0  0
 13 14  1  0  0  0  0
 14 29  1  0  0  0  0
 15 16  2  0  0  0  0
 15 17  1  0  0  0  0
M  CHG  1   3   1
M  END
> <s_m_source_file>
AV-unprocessed.smi

> <i_m_source_file_index>
72

> <i_lp_mmshare_version>
43012

> <i_f3d_flags>
0

> <s_epik_input>
W05IMl1jMW5bY0hdbihjKD1PKW4xKVtDQEBIXTJPW0NASF0oW0NIMl1bT0hdKVtDQEBIXShbT0hdKVtDQEhdMltPSF0=

> <s_epik_cmdline>
J2VwaWtfcHl0aG9uJywgJy1waCcsICc3LjAnLCAnLXRuJywgJzgnLCAnLW1hJywgJzIwMCcsICctbWV0YWxfYmluZGluZycsICctaW1hZScsICc8aW5maWxlLm1hZT4nLCAnLW9tYWUnLCAnPG91dGZpbGUubWFlPic=

> <r_lp_tautomer_probability>
4.77166e-05

> <r_epik_Ionization_Penalty>
0.104979

> <r_epik_Ionization_Penalty_Charging>
0.0999619

> <r_epik_Ionization_Penalty_Neutral>
0.00501745

> <r_epik_State_Penalty>
2.51541

> <r_epik_Charging_Adjusted_Penalty>
2.61537

> <i_epik_Tot_Q>
1

> <i_epik_Tot_abs_Q>
1

> <r_epik_Metal_State_Penalty>
3.53763

> <b_epik_Metal_Only>
0

> <s_epik_Chemistry_Notes>
This compound contains an acetal/aminal-like group ( X-CH(R)-Y where X, Y are N, S, or O) that may be acid/base labile, releasing an aldehyde.

> <s_lp_Force_Field>
OPLS_2005

> <r_lp_Energy>
25.3677

> <b_lp_Chiralities_Consistent>
1

> <s_lp_Variant>
AV-unprocessed.smi:72-42

> <Gold.Version>
5.8.1

> <Gold.Id.Protein>
6NUR|6NUR_protein|mol2

> <Gold.PLP.Fitness>
42.9036

> <Gold.PLP.PLP>
-25.6556

> <Gold.PLP.part.hbond>
-6.3664

> <Gold.PLP.part.metal>
0.0000

> <Gold.PLP.part.buried>
-4.2908

> <Gold.PLP.part.nonpolar>
-16.3471

> <Gold.PLP.part.repulsive>
0.9901

> <Gold.PLP.ligand.clash>
0.0000

> <Gold.PLP.ligand.torsion>
0.3636

> <Gold.PLP.Chemscore.Hbond>
5.9760

> <Gold.PLP.Chemscore.CHOScore>
0.0000

> <Gold.PLP.Chemscore.Metal>
0.0000

> <Gold.Chemscore.Hbonds>
donor molecule, donor type, donor heavy atom, donor atom, acceptor molecule, acceptor atom, score
      L1  H     1    22       P1 10175  1.00
      L1  H     3    30       P1  7948  1.78
      P1  H  6896  6907       L1    10  0.98
      P1  H  7997  8009       L1    14  1.00
      P1  H 10752 10765       L1    12  1.00

> <Gold.PLP.Chemscore.Internal.Correction>
0.0472

> <Gold.Rescore>
     Score         DG    S(hbond)    S(metal)    S(lipo)     H(rot)  DE(clash)    DE(int)     intcor
      9.82     -11.36       4.12        0.00      21.96       4.08       0.03       1.51       ----

> <Gold.Chemscore.Fitness>
9.8191

> <Gold.Chemscore.DG>
-11.3572

> <Gold.Chemscore.ZeroCoef>
-5.4800

> <Gold.Chemscore.Hbond>
4.1163

> <Gold.Chemscore.Metal>
0.0000

> <Gold.Chemscore.Lipo>
21.9604

> <Gold.Chemscore.Internal_Hbond>
0.0000

> <Gold.Chemscore.DEClash>
0.0272

> <Gold.Chemscore.DEInternal>
1.5110

> <Gold.Chemscore.Rot>
4.0783

> <Gold.Chemscore.Internal.Correction>
   9.000000E+99

> <Gold.Chemscore.Hbonds>
donor molecule, donor type, donor heavy atom, donor atom, acceptor molecule, acceptor atom, score
      L1  H     1    22       P1 10175  0.99
      L1  H     3    30       P1  7948  0.81
      P1  H  6896  6907       L1    10  0.37
      P1  H  7997  8009       L1    14  0.60
      P1  H 10752 10765       L1    12  0.63

> <Gold.Chemscore.Hbond.Weighted>
-13.7483

> <Gold.Chemscore.Metal.Weighted>
-0.0000

> <Gold.Chemscore.Lipo.Weighted>
-2.5694

> <Gold.Chemscore.Internal_Hbond.Weighted>
0.0000

> <Gold.Chemscore.DEClash.Weighted>
0.0272

> <Gold.Chemscore.DEInternal.Weighted>
1.5110

> <Gold.Chemscore.Rot.Weighted>
10.4404

> <Gold.Chemscore.Internal.Correction.Weighted>
   9.000000E+99

> <Gold.Protein.RotatedTorsions>
[ 6907 6896 6895 6894 ] final    0.82 input  -60.11 | X-H torsion
[ 7974 7965 7964 7962 ] final  -50.11 input  175.53 | X-H torsion
[ 8008 7997 7996 7995 ] final -125.24 input   59.86 | X-H torsion
[ 10167 10162 10161 10158 ] final  -25.89 input  -65.29 | X-H torsion
[ 10718 10713 10712 10709 ] final   26.78 input   66.30 | X-H torsion
[ 10763 10752 10751 10750 ] final -138.42 input  -60.55 | X-H torsion
[ 11005 11000 10999 10996 ] final   80.12 input  -57.11 | X-H torsion

> <Gold.Protein.ActiveResidues>
 VAL166  LYS551  ARG553  GLY616  TRP617  ASP618  TYR619  PRO620  LYS621  CYS622 
 ASP623  PHE694  ASN695  SER759  ASP760  ASP761  ALA762  ILE779  LEU786  VAL792 
 PHE793  MET794  SER795  GLU796  ALA797  LYS798  CYS799  TRP800  GLU811  SER814 

> <Gold.Protein.RotatedAtoms>
  151.5827  135.1057  160.0020 H   0  0  0  0  0  0  0  0  0  0  0  0  # atno 6907 bound_to 6896
  152.4346  133.7334  159.6611 H   0  0  0  0  0  0  0  0  0  0  0  0  # atno 6908 bound_to 6896
  150.8242  133.8130  159.3149 H   0  0  0  0  0  0  0  0  0  0  0  0  # atno 6909 bound_to 6896
  145.9334  140.7729  142.9588 H   0  0  0  0  0  0  0  0  0  0  0  0  # atno 7974 bound_to 7965
  155.2100  140.0418  157.2932 H   0  0  0  0  0  0  0  0  0  0  0  0  # atno 8008 bound_to 7997
  154.6018  140.2454  155.7754 H   0  0  0  0  0  0  0  0  0  0  0  0  # atno 8009 bound_to 7997
  156.2325  140.2933  156.0236 H   0  0  0  0  0  0  0  0  0  0  0  0  # atno 8010 bound_to 7997
  140.7285  143.4226  151.0927 H   0  0  0  0  0  0  0  0  0  0  0  0  # atno 10167 bound_to 10162
  157.2115  130.6936  149.6230 H   0  0  0  0  0  0  0  0  0  0  0  0  # atno 10718 bound_to 10713
  154.8637  135.3612  154.5382 H   0  0  0  0  0  0  0  0  0  0  0  0  # atno 10763 bound_to 10752
  153.6005  135.7013  153.5391 H   0  0  0  0  0  0  0  0  0  0  0  0  # atno 10764 bound_to 10752
  153.3295  135.4128  155.1445 H   0  0  0  0  0  0  0  0  0  0  0  0  # atno 10765 bound_to 10752
  139.9146  134.7896  156.1868 H   0  0  0  0  0  0  0  0  0  0  0  0  # atno 11005 bound_to 11000
  144.6768  140.2164  143.7371 LP  0  0  0  0  0  0  0  0  0  0  0  0  # atno 17320 bound_to 7965
  145.8396  139.2123  143.1835 LP  0  0  0  0  0  0  0  0  0  0  0  0  # atno 17321 bound_to 7965
  139.7873  143.8269  152.3147 LP  0  0  0  0  0  0  0  0  0  0  0  0  # atno 17342 bound_to 10162
  139.8240  144.7283  150.9535 LP  0  0  0  0  0  0  0  0  0  0  0  0  # atno 17343 bound_to 10162
  155.9690  130.4550  150.5870 LP  0  0  0  0  0  0  0  0  0  0  0  0  # atno 17370 bound_to 10713
  157.3668  131.0759  151.1591 LP  0  0  0  0  0  0  0  0  0  0  0  0  # atno 17371 bound_to 10713
  141.0609  133.6842  156.1950 LP  0  0  0  0  0  0  0  0  0  0  0  0  # atno 17394 bound_to 11000
  140.6663  134.4915  157.5585 LP  0  0  0  0  0  0  0  0  0  0  0  0  # atno 17395 bound_to 11000

$$$$
