AV-unprocessed.smi:644|AV-procd|sdf|3157|dock1
  -GOLD-   22720 0 83D 1   1.00000     0.00000
 Structure written by MMmdl.
 38 40  0  0  0  0  0  0  0  0  2 V2000
  152.4773  144.1183  161.5395 C   0  0  0  0  0  0  0  0  0  0  0  0
  152.2649  143.2107  160.3398 C   0  0  0  0  0  0  0  0  0  0  0  0
  151.4893  143.6909  159.2602 C   0  0  0  0  0  0  0  0  0  0  0  0
  151.3127  142.8374  158.1776 C   0  0  0  0  0  0  0  0  0  0  0  0
  150.6163  143.0103  156.9793 N   0  3  0  0  0  0  0  0  0  0  0  0
  150.7311  141.8850  156.2210 C   0  0  0  0  0  0  0  0  0  0  0  0
  151.4904  140.9971  156.9181 N   0  0  0  0  0  0  0  0  0  0  0  0
  151.9239  139.6407  156.5585 C   0  0  0  0  0  0  0  0  0  0  0  0
  152.0378  139.4327  155.0358 C   0  0  2  0  0  0  0  0  0  0  0  0
  150.7524  139.1926  154.4952 O   0  0  0  0  0  0  0  0  0  0  0  0
  152.9610  138.2549  154.6866 C   0  0  0  0  0  0  0  0  0  0  0  0
  154.6254  138.4601  155.3930 S   0  0  0  0  0  0  0  0  0  0  0  0
  155.6111  137.9758  154.0119 C   0  0  0  0  0  0  0  0  0  0  0  0
  155.8949  136.7108  153.6697 N   0  0  0  0  0  0  0  0  0  0  0  0
  156.6919  136.6361  152.5355 N   0  0  0  0  0  0  0  0  0  0  0  0
  156.9817  137.8499  152.0613 C   0  0  0  0  0  0  0  0  0  0  0  0
  156.3107  139.1992  152.9580 S   0  0  0  0  0  0  0  0  0  0  0  0
  151.8760  141.5473  158.1444 C   0  0  0  0  0  0  0  0  0  0  0  0
  152.6427  141.0580  159.1988 C   0  0  0  0  0  0  0  0  0  0  0  0
  152.8338  141.9109  160.3095 C   0  0  0  0  0  0  0  0  0  0  0  0
  153.6643  141.4050  161.4766 C   0  0  0  0  0  0  0  0  0  0  0  0
  151.9959  145.0864  161.3977 H   0  0  0  0  0  0  0  0  0  0  0  0
  153.5403  144.2968  161.7030 H   0  0  0  0  0  0  0  0  0  0  0  0
  152.0586  143.6666  162.4392 H   0  0  0  0  0  0  0  0  0  0  0  0
  151.0527  144.6789  159.2764 H   0  0  0  0  0  0  0  0  0  0  0  0
  150.3027  141.7266  155.2417 H   0  0  0  0  0  0  0  0  0  0  0  0
  152.8738  139.4379  157.0546 H   0  0  0  0  0  0  0  0  0  0  0  0
  151.1988  138.9441  156.9819 H   0  0  0  0  0  0  0  0  0  0  0  0
  152.4306  140.3412  154.5776 H   0  0  0  0  0  0  0  0  0  0  0  0
  150.4937  139.9509  153.9934 H   0  0  0  0  0  0  0  0  0  0  0  0
  152.5358  137.3292  155.0764 H   0  0  0  0  0  0  0  0  0  0  0  0
  153.0364  138.1448  153.6038 H   0  0  0  0  0  0  0  0  0  0  0  0
  157.5957  137.9511  151.1786 H   0  0  0  0  0  0  0  0  0  0  0  0
  153.0758  140.0690  159.1732 H   0  0  0  0  0  0  0  0  0  0  0  0
  154.0222  140.3900  161.3014 H   0  0  0  0  0  0  0  0  0  0  0  0
  153.0722  141.3957  162.3922 H   0  0  0  0  0  0  0  0  0  0  0  0
  154.5350  142.0427  161.6326 H   0  0  0  0  0  0  0  0  0  0  0  0
  150.1019  143.8346  156.6960 H   0  0  0  0  0  0  0  0  0  0  0  0
  1  2  1  0  0  0  0
  1 22  1  0  0  0  0
  1 23  1  0  0  0  0
  1 24  1  0  0  0  0
  2 20  1  0  0  0  0
  2  3  2  0  0  0  0
  3  4  1  0  0  0  0
  3 25  1  0  0  0  0
  4 18  2  0  0  0  0
  4  5  1  0  0  0  0
  5  6  2  0  0  0  0
  5 38  1  0  0  0  0
  6  7  1  0  0  0  0
  6 26  1  0  0  0  0
  7  8  1  0  0  0  0
  7 18  1  0  0  0  0
  8  9  1  0  0  0  0
  8 27  1  0  0  0  0
  8 28  1  0  0  0  0
  9 10  1  0  0  0  0
  9 11  1  0  0  0  0
  9 29  1  0  0  0  0
 10 30  1  0  0  0  0
 11 12  1  0  0  0  0
 11 31  1  0  0  0  0
 11 32  1  0  0  0  0
 12 13  1  0  0  0  0
 13 17  1  0  0  0  0
 13 14  2  0  0  0  0
 14 15  1  0  0  0  0
 15 16  2  0  0  0  0
 16 17  1  0  0  0  0
 16 33  1  0  0  0  0
 18 19  1  0  0  0  0
 19 20  2  0  0  0  0
 19 34  1  0  0  0  0
 20 21  1  0  0  0  0
 21 35  1  0  0  0  0
 21 36  1  0  0  0  0
 21 37  1  0  0  0  0
M  CHG  1   5   1
M  END
> <s_m_source_file>
AV-unprocessed.smi

> <i_m_source_file_index>
644

> <i_lp_mmshare_version>
43012

> <i_f3d_flags>
0

> <s_epik_input>
W0NIM11jKFtjSF0xKWMoW0NIM10pW2NIXWMoYzEyKW4oW2NIXW4yKVtDSDJdW0NASF0oW09IXSlbQ0gyXVNjM25uW2NIXXMz

> <s_epik_cmdline>
J2VwaWtfcHl0aG9uJywgJy1waCcsICc3LjAnLCAnLXRuJywgJzgnLCAnLW1hJywgJzIwMCcsICctbWV0YWxfYmluZGluZycsICctaW1hZScsICc8aW5maWxlLm1hZT4nLCAnLW9tYWUnLCAnPG91dGZpbGUubWFlPic=

> <r_lp_tautomer_probability>
1

> <r_epik_Ionization_Penalty>
1.07492

> <r_epik_Ionization_Penalty_Charging>
1.07491

> <r_epik_Ionization_Penalty_Neutral>
3.80549e-06

> <r_epik_State_Penalty>
1.12982

> <r_epik_Charging_Adjusted_Penalty>
2.20473

> <i_epik_Tot_Q>
1

> <i_epik_Tot_abs_Q>
1

> <r_epik_Metal_State_Penalty>
1.2206

> <b_epik_Metal_Only>
0

> <s_lp_Force_Field>
OPLS_2005

> <r_lp_Energy>
11.8761

> <b_lp_Chiralities_Consistent>
1

> <s_lp_Variant>
AV-unprocessed.smi:644-3

> <Gold.Version>
5.8.1

> <Gold.Id.Protein>
6NUR|6NUR_protein|mol2

> <Gold.PLP.Fitness>
52.5715

> <Gold.PLP.PLP>
-43.4839

> <Gold.PLP.part.hbond>
-2.9606

> <Gold.PLP.part.metal>
0.0000

> <Gold.PLP.part.buried>
2.0130

> <Gold.PLP.part.nonpolar>
-42.0120

> <Gold.PLP.part.repulsive>
0.1256

> <Gold.PLP.ligand.clash>
0.0000

> <Gold.PLP.ligand.torsion>
1.1990

> <Gold.PLP.Chemscore.Hbond>
2.9920

> <Gold.PLP.Chemscore.CHOScore>
0.7948

> <Gold.PLP.Chemscore.Metal>
0.0000

> <Gold.Chemscore.Hbonds>
donor molecule, donor type, donor heavy atom, donor atom, acceptor molecule, acceptor atom, score
      L1  H     5    38       P1  8028  2.00
      P1  H 10752 10763       L1    14  0.96
      L1  C    16    33       P1 10674  0.89

> <Gold.PLP.Chemscore.Internal.Correction>
0.1251

> <Gold.Rescore>
     Score         DG    S(hbond)    S(metal)    S(lipo)     H(rot)  DE(clash)    DE(int)     intcor
     19.20     -22.69       1.81        0.00     150.96       2.53       2.38       1.11       ----

> <Gold.Chemscore.Fitness>
19.2048

> <Gold.Chemscore.DG>
-22.6944

> <Gold.Chemscore.ZeroCoef>
-5.4800

> <Gold.Chemscore.Hbond>
1.8062

> <Gold.Chemscore.Metal>
0.0000

> <Gold.Chemscore.Lipo>
150.9583

> <Gold.Chemscore.Internal_Hbond>
0.0000

> <Gold.Chemscore.DEClash>
2.3752

> <Gold.Chemscore.DEInternal>
1.1145

> <Gold.Chemscore.Rot>
2.5315

> <Gold.Chemscore.Internal.Correction>
   9.000000E+99

> <Gold.Chemscore.Hbonds>
donor molecule, donor type, donor heavy atom, donor atom, acceptor molecule, acceptor atom, score
      L1  H     5    38       P1  8028  0.97
      P1  H 10752 10763       L1    14  0.89

> <Gold.Chemscore.Hbond.Weighted>
-6.0328

> <Gold.Chemscore.Metal.Weighted>
-0.0000

> <Gold.Chemscore.Lipo.Weighted>
-17.6621

> <Gold.Chemscore.Internal_Hbond.Weighted>
0.0000

> <Gold.Chemscore.DEClash.Weighted>
2.3752

> <Gold.Chemscore.DEInternal.Weighted>
1.1145

> <Gold.Chemscore.Rot.Weighted>
6.4805

> <Gold.Chemscore.Internal.Correction.Weighted>
   9.000000E+99

> <Gold.Protein.RotatedTorsions>
[ 6907 6896 6895 6894 ] final   92.43 input  -60.11 | X-H torsion
[ 7974 7965 7964 7962 ] final -128.20 input  175.53 | X-H torsion
[ 8008 7997 7996 7995 ] final  145.35 input   59.86 | X-H torsion
[ 10167 10162 10161 10158 ] final  -27.90 input  -65.29 | X-H torsion
[ 10718 10713 10712 10709 ] final   98.53 input   66.30 | X-H torsion
[ 10763 10752 10751 10750 ] final -112.09 input  -60.55 | X-H torsion
[ 11005 11000 10999 10996 ] final  109.58 input  -57.11 | X-H torsion

> <Gold.Protein.ActiveResidues>
 VAL166  LYS551  ARG553  GLY616  TRP617  ASP618  TYR619  PRO620  LYS621  CYS622 
 ASP623  PHE694  ASN695  SER759  ASP760  ASP761  ALA762  ILE779  LEU786  VAL792 
 PHE793  MET794  SER795  GLU796  ALA797  LYS798  CYS799  TRP800  GLU811  SER814 

> <Gold.Protein.RotatedAtoms>
  152.5452  134.1503  159.8515 H   0  0  0  0  0  0  0  0  0  0  0  0  # atno 6907 bound_to 6896
  151.1531  133.4887  159.2602 H   0  0  0  0  0  0  0  0  0  0  0  0  # atno 6908 bound_to 6896
  151.1451  135.0210  159.8698 H   0  0  0  0  0  0  0  0  0  0  0  0  # atno 6909 bound_to 6896
  144.9694  140.7530  143.4679 H   0  0  0  0  0  0  0  0  0  0  0  0  # atno 7974 bound_to 7965
  156.2885  140.2211  156.5200 H   0  0  0  0  0  0  0  0  0  0  0  0  # atno 8008 bound_to 7997
  154.7536  140.0478  157.0936 H   0  0  0  0  0  0  0  0  0  0  0  0  # atno 8009 bound_to 7997
  155.0078  140.3109  155.4845 H   0  0  0  0  0  0  0  0  0  0  0  0  # atno 8010 bound_to 7997
  140.7274  143.4055  151.1193 H   0  0  0  0  0  0  0  0  0  0  0  0  # atno 10167 bound_to 10162
  157.6894  131.0643  150.4810 H   0  0  0  0  0  0  0  0  0  0  0  0  # atno 10718 bound_to 10713
  154.8332  135.4503  154.1140 H   0  0  0  0  0  0  0  0  0  0  0  0  # atno 10763 bound_to 10752
  153.2394  135.6914  153.7806 H   0  0  0  0  0  0  0  0  0  0  0  0  # atno 10764 bound_to 10752
  153.7159  135.3349  155.3232 H   0  0  0  0  0  0  0  0  0  0  0  0  # atno 10765 bound_to 10752
  139.8865  134.9462  156.6148 H   0  0  0  0  0  0  0  0  0  0  0  0  # atno 11005 bound_to 11000
  145.2581  139.2004  143.4907 LP  0  0  0  0  0  0  0  0  0  0  0  0  # atno 17320 bound_to 7965
  146.3377  140.2506  142.8598 LP  0  0  0  0  0  0  0  0  0  0  0  0  # atno 17321 bound_to 7965
  139.7681  143.8535  152.3115 LP  0  0  0  0  0  0  0  0  0  0  0  0  # atno 17342 bound_to 10162
  139.8444  144.7194  150.9291 LP  0  0  0  0  0  0  0  0  0  0  0  0  # atno 17343 bound_to 10162
  156.5142  130.4146  149.6285 LP  0  0  0  0  0  0  0  0  0  0  0  0  # atno 17370 bound_to 10713
  156.3213  130.7282  151.2194 LP  0  0  0  0  0  0  0  0  0  0  0  0  # atno 17371 bound_to 10713
  140.7784  133.8680  155.8548 LP  0  0  0  0  0  0  0  0  0  0  0  0  # atno 17394 bound_to 11000
  140.9781  134.1441  157.4518 LP  0  0  0  0  0  0  0  0  0  0  0  0  # atno 17395 bound_to 11000

$$$$
