AV-unprocessed.smi:1622|AV-procd|sdf|6499|dock9
  -GOLD-   22720 7163D 1   1.00000     0.00000
 Structure written by MMmdl.
 40 41  0  0  0  0  0  0  0  0  3 V2000
  152.2896  144.0687  159.2913 C   0  0  0  0  0  0  0  0  0  0  0  0
  151.7622  143.5785  157.9336 C   0  0  0  0  0  0  0  0  0  0  0  0
  150.8040  142.3584  158.0127 C   0  0  2  0  0  0  0  0  0  0  0  0
  151.5652  141.0205  158.1871 C   0  0  0  0  0  0  0  0  0  0  0  0
  152.4702  141.0564  159.3294 N   0  0  0  0  0  0  0  0  0  0  0  0
  153.5374  140.2657  159.4981 C   0  0  0  0  0  0  0  0  0  0  0  0
  153.8094  139.4113  158.6517 O   0  0  0  0  0  0  0  0  0  0  0  0
  154.2233  140.5180  160.6351 N   0  5  0  0  0  0  0  0  0  0  0  0
  154.4004  139.5436  161.5428 C   0  0  0  0  0  0  0  0  0  0  0  0
  155.1639  139.7062  162.6326 N   0  0  0  0  0  0  0  0  0  0  0  0
  155.2149  138.5754  163.4350 N   0  0  0  0  0  0  0  0  0  0  0  0
  154.4946  137.5696  162.9329 C   0  0  0  0  0  0  0  0  0  0  0  0
  154.3868  136.2435  163.6043 C   0  0  0  0  0  0  0  0  0  0  0  0
  153.6888  137.9351  161.4167 S   0  0  0  0  0  0  0  0  0  0  0  0
  149.8801  142.3185  156.8412 N   0  3  0  0  0  0  0  0  0  0  0  0
  150.4168  141.6886  155.6152 C   0  0  0  0  0  0  0  0  0  0  0  0
  149.1897  141.3470  154.7780 C   0  0  0  0  0  0  0  0  0  0  0  0
  148.1676  140.9207  155.8252 C   0  0  0  0  0  0  0  0  0  0  0  0
  148.5573  141.6921  157.0939 C   0  0  0  0  0  0  0  0  0  0  0  0
  152.9788  144.9023  159.1551 H   0  0  0  0  0  0  0  0  0  0  0  0
  152.8261  143.2815  159.8207 H   0  0  0  0  0  0  0  0  0  0  0  0
  151.4816  144.4185  159.9338 H   0  0  0  0  0  0  0  0  0  0  0  0
  151.2593  144.4086  157.4369 H   0  0  0  0  0  0  0  0  0  0  0  0
  152.6116  143.3517  157.2901 H   0  0  0  0  0  0  0  0  0  0  0  0
  150.1833  142.4913  158.9005 H   0  0  0  0  0  0  0  0  0  0  0  0
  150.8721  140.1964  158.3578 H   0  0  0  0  0  0  0  0  0  0  0  0
  152.1181  140.7821  157.2770 H   0  0  0  0  0  0  0  0  0  0  0  0
  152.2805  141.7395  160.0481 H   0  0  0  0  0  0  0  0  0  0  0  0
  155.3651  135.7640  163.6438 H   0  0  0  0  0  0  0  0  0  0  0  0
  153.7015  135.5952  163.0579 H   0  0  0  0  0  0  0  0  0  0  0  0
  154.0140  136.3675  164.6213 H   0  0  0  0  0  0  0  0  0  0  0  0
  151.1015  142.3484  155.0816 H   0  0  0  0  0  0  0  0  0  0  0  0
  150.9528  140.7738  155.8744 H   0  0  0  0  0  0  0  0  0  0  0  0
  148.8374  142.2377  154.2562 H   0  0  0  0  0  0  0  0  0  0  0  0
  149.3843  140.5739  154.0340 H   0  0  0  0  0  0  0  0  0  0  0  0
  147.1428  141.1196  155.5107 H   0  0  0  0  0  0  0  0  0  0  0  0
  148.2552  139.8488  156.0068 H   0  0  0  0  0  0  0  0  0  0  0  0
  148.5912  141.0055  157.9409 H   0  0  0  0  0  0  0  0  0  0  0  0
  147.8297  142.4706  157.3258 H   0  0  0  0  0  0  0  0  0  0  0  0
  149.6893  143.2781  156.5901 H   0  0  0  0  0  0  0  0  0  0  0  0
  1  2  1  0  0  0  0
  1 20  1  0  0  0  0
  1 21  1  0  0  0  0
  1 22  1  0  0  0  0
  2  3  1  0  0  0  0
  2 23  1  0  0  0  0
  2 24  1  0  0  0  0
  3  4  1  0  0  0  0
  3 15  1  0  0  0  0
  3 25  1  0  0  0  0
  4  5  1  0  0  0  0
  4 26  1  0  0  0  0
  4 27  1  0  0  0  0
  5  6  1  0  0  0  0
  5 28  1  0  0  0  0
  6  7  2  0  0  0  0
  6  8  1  0  0  0  0
  8  9  1  0  0  0  0
  9 14  1  0  0  0  0
  9 10  2  0  0  0  0
 10 11  1  0  0  0  0
 11 12  2  0  0  0  0
 12 13  1  0  0  0  0
 12 14  1  0  0  0  0
 13 29  1  0  0  0  0
 13 30  1  0  0  0  0
 13 31  1  0  0  0  0
 15 19  1  0  0  0  0
 15 16  1  0  0  0  0
 15 40  1  0  0  0  0
 16 17  1  0  0  0  0
 16 32  1  0  0  0  0
 16 33  1  0  0  0  0
 17 18  1  0  0  0  0
 17 34  1  0  0  0  0
 17 35  1  0  0  0  0
 18 19  1  0  0  0  0
 18 36  1  0  0  0  0
 18 37  1  0  0  0  0
 19 38  1  0  0  0  0
 19 39  1  0  0  0  0
M  CHG  1   8  -1
M  CHG  1  15   1
M  END
> <s_m_source_file>
AV-unprocessed.smi

> <i_m_source_file_index>
1622

> <i_lp_mmshare_version>
43012

> <i_f3d_flags>
0

> <s_epik_input>
W0NIMl0xW0NIMl1bQ0gyXVtDSDJdTjFbQ0BIXShbQ0gyXVtDSDNdKVtDSDJdW05IXUMoPU8pW05IXWMybm5jKHMyKVtDSDNd

> <s_epik_cmdline>
J2VwaWtfcHl0aG9uJywgJy1waCcsICc3LjAnLCAnLXRuJywgJzgnLCAnLW1hJywgJzIwMCcsICctbWV0YWxfYmluZGluZycsICctaW1hZScsICc8aW5maWxlLm1hZT4nLCAnLW9tYWUnLCAnPG91dGZpbGUubWFlPic=

> <r_lp_tautomer_probability>
1

> <r_epik_Ionization_Penalty>
4.34497

> <r_epik_Ionization_Penalty_Charging>
4.23453

> <r_epik_Ionization_Penalty_Neutral>
0.110433

> <r_epik_State_Penalty>
4.23293

> <r_epik_Charging_Adjusted_Penalty>
8.46746

> <i_epik_Tot_Q>
0

> <i_epik_Tot_abs_Q>
2

> <r_epik_Metal_State_Penalty>
0.701092

> <b_epik_Metal_Only>
1

> <s_lp_Force_Field>
OPLS_2005

> <r_lp_Energy>
26.4527

> <b_lp_Chiralities_Consistent>
1

> <s_lp_Variant>
AV-unprocessed.smi:1622-3

> <Gold.Version>
5.8.1

> <Gold.Id.Protein>
6NUR|6NUR_protein|mol2

> <Gold.PLP.Fitness>
40.2406

> <Gold.PLP.PLP>
-33.8615

> <Gold.PLP.part.hbond>
-2.0000

> <Gold.PLP.part.metal>
0.0000

> <Gold.PLP.part.buried>
-5.3930

> <Gold.PLP.part.nonpolar>
-26.2878

> <Gold.PLP.part.repulsive>
0.1492

> <Gold.PLP.ligand.clash>
0.0000

> <Gold.PLP.ligand.torsion>
1.4518

> <Gold.PLP.Chemscore.Hbond>
3.0000

> <Gold.PLP.Chemscore.CHOScore>
0.0000

> <Gold.PLP.Chemscore.Metal>
0.0000

> <Gold.Chemscore.Hbonds>
donor molecule, donor type, donor heavy atom, donor atom, acceptor molecule, acceptor atom, score
      L1  H    15    40       P1  8028  2.00
      P1  H  7997  8009       L1     7  0.99

> <Gold.PLP.Chemscore.Internal.Correction>
0.2826

> <Gold.Rescore>
     Score         DG    S(hbond)    S(metal)    S(lipo)     H(rot)  DE(clash)    DE(int)     intcor
     15.50     -17.21       1.98        0.00      81.64       1.73       0.13       1.58       ----

> <Gold.Chemscore.Fitness>
15.5009

> <Gold.Chemscore.DG>
-17.2118

> <Gold.Chemscore.ZeroCoef>
-5.4800

> <Gold.Chemscore.Hbond>
1.9824

> <Gold.Chemscore.Metal>
0.0000

> <Gold.Chemscore.Lipo>
81.6375

> <Gold.Chemscore.Internal_Hbond>
0.0000

> <Gold.Chemscore.DEClash>
0.1274

> <Gold.Chemscore.DEInternal>
1.5834

> <Gold.Chemscore.Rot>
1.7348

> <Gold.Chemscore.Internal.Correction>
   9.000000E+99

> <Gold.Chemscore.Hbonds>
donor molecule, donor type, donor heavy atom, donor atom, acceptor molecule, acceptor atom, score
      L1  H    15    40       P1  8028  0.99
      P1  H  7997  8009       L1     7  0.88

> <Gold.Chemscore.Hbond.Weighted>
-6.6213

> <Gold.Chemscore.Metal.Weighted>
-0.0000

> <Gold.Chemscore.Lipo.Weighted>
-9.5516

> <Gold.Chemscore.Internal_Hbond.Weighted>
0.0000

> <Gold.Chemscore.DEClash.Weighted>
0.1274

> <Gold.Chemscore.DEInternal.Weighted>
1.5834

> <Gold.Chemscore.Rot.Weighted>
4.4411

> <Gold.Chemscore.Internal.Correction.Weighted>
   9.000000E+99

> <Gold.Protein.RotatedTorsions>
[ 6907 6896 6895 6894 ] final  -40.02 input  -60.11 | X-H torsion
[ 7974 7965 7964 7962 ] final  161.94 input  175.53 | X-H torsion
[ 8008 7997 7996 7995 ] final  159.91 input   59.86 | X-H torsion
[ 10167 10162 10161 10158 ] final  -40.93 input  -65.29 | X-H torsion
[ 10718 10713 10712 10709 ] final  -22.42 input   66.30 | X-H torsion
[ 10763 10752 10751 10750 ] final -109.40 input  -60.55 | X-H torsion
[ 11005 11000 10999 10996 ] final -168.94 input  -57.11 | X-H torsion

> <Gold.Protein.ActiveResidues>
 VAL166  LYS551  ARG553  GLY616  TRP617  ASP618  TYR619  PRO620  LYS621  CYS622 
 ASP623  PHE694  ASN695  SER759  ASP760  ASP761  ALA762  ILE779  LEU786  VAL792 
 PHE793  MET794  SER795  GLU796  ALA797  LYS798  CYS799  TRP800  GLU811  SER814 

> <Gold.Protein.RotatedAtoms>
  150.9834  134.9184  159.7857 H   0  0  0  0  0  0  0  0  0  0  0  0  # atno 6907 bound_to 6896
  152.5229  134.3379  159.9216 H   0  0  0  0  0  0  0  0  0  0  0  0  # atno 6908 bound_to 6896
  151.3386  133.3930  159.2703 H   0  0  0  0  0  0  0  0  0  0  0  0  # atno 6909 bound_to 6896
  144.7661  139.7969  143.6315 H   0  0  0  0  0  0  0  0  0  0  0  0  # atno 7974 bound_to 7965
  156.2207  140.1818  156.7483 H   0  0  0  0  0  0  0  0  0  0  0  0  # atno 8008 bound_to 7997
  154.5861  140.0658  156.9202 H   0  0  0  0  0  0  0  0  0  0  0  0  # atno 8009 bound_to 7997
  155.2417  140.3322  155.4294 H   0  0  0  0  0  0  0  0  0  0  0  0  # atno 8010 bound_to 7997
  140.7019  143.3124  151.2994 H   0  0  0  0  0  0  0  0  0  0  0  0  # atno 10167 bound_to 10162
  156.5048  130.4596  149.6681 H   0  0  0  0  0  0  0  0  0  0  0  0  # atno 10718 bound_to 10713
  154.8191  135.4602  154.0727 H   0  0  0  0  0  0  0  0  0  0  0  0  # atno 10763 bound_to 10752
  153.2095  135.6880  153.8138 H   0  0  0  0  0  0  0  0  0  0  0  0  # atno 10764 bound_to 10752
  153.7594  135.3286  155.3311 H   0  0  0  0  0  0  0  0  0  0  0  0  # atno 10765 bound_to 10752
  140.5363  134.5566  157.5088 H   0  0  0  0  0  0  0  0  0  0  0  0  # atno 11005 bound_to 11000
  146.1769  139.4943  142.9891 LP  0  0  0  0  0  0  0  0  0  0  0  0  # atno 17320 bound_to 7965
  145.6467  141.0272  143.1782 LP  0  0  0  0  0  0  0  0  0  0  0  0  # atno 17321 bound_to 7965
  139.6552  144.0290  152.2654 LP  0  0  0  0  0  0  0  0  0  0  0  0  # atno 17342 bound_to 10162
  139.9839  144.6409  150.7875 LP  0  0  0  0  0  0  0  0  0  0  0  0  # atno 17343 bound_to 10162
  156.3298  130.7325  151.2252 LP  0  0  0  0  0  0  0  0  0  0  0  0  # atno 17370 bound_to 10713
  157.7458  131.0433  150.4737 LP  0  0  0  0  0  0  0  0  0  0  0  0  # atno 17371 bound_to 10713
  139.9527  134.7588  156.0411 LP  0  0  0  0  0  0  0  0  0  0  0  0  # atno 17394 bound_to 11000
  141.1252  133.6601  156.3319 LP  0  0  0  0  0  0  0  0  0  0  0  0  # atno 17395 bound_to 11000

$$$$
