AV-unprocessed.smi:3338|AV-procd|sdf|12872|dock9
  -GOLD-   2272019273D 1   1.00000     0.00000
 Structure written by MMmdl.
 44 45  0  0  0  0  0  0  0  0  2 V2000
  153.5516  142.3643  160.7531 C   0  0  0  0  0  0  0  0  0  0  0  0
  152.3710  142.6917  159.8281 C   0  0  1  0  0  0  0  0  0  0  0  0
  152.6581  143.9332  158.9674 C   0  0  0  0  0  0  0  0  0  0  0  0
  151.4701  144.2224  158.0416 C   0  0  0  0  0  0  0  0  0  0  0  0
  151.1229  142.9901  157.1914 C   0  0  0  0  0  0  0  0  0  0  0  0
  150.8484  141.8076  158.0486 N   0  3  1  0  0  0  0  0  0  0  0  0
  150.3770  140.6421  157.2587 C   0  0  0  0  0  0  0  0  0  0  0  0
  150.6571  139.3000  157.9624 C   0  0  0  0  0  0  0  0  0  0  0  0
  149.4229  138.5791  158.2492 N   0  0  0  0  0  0  0  0  0  0  0  0
  149.3555  137.3756  158.8420 C   0  0  0  0  0  0  0  0  0  0  0  0
  150.3540  136.7674  159.2299 O   0  0  0  0  0  0  0  0  0  0  0  0
  147.9475  136.7832  159.0299 C   0  0  2  0  0  0  0  0  0  0  0  0
  146.8238  137.7525  158.6090 C   0  0  0  0  0  0  0  0  0  0  0  0
  147.7641  136.3070  160.3967 N   0  0  0  0  0  0  0  0  0  0  0  0
  147.5797  135.0085  160.8268 C   0  0  0  0  0  0  0  0  0  0  0  0
  147.4778  135.0372  162.1881 C   0  0  0  0  0  0  0  0  0  0  0  0
  147.6200  136.4157  162.5087 C   0  0  0  0  0  0  0  0  0  0  0  0
  147.7959  137.1717  161.4376 N   0  0  0  0  0  0  0  0  0  0  0  0
  152.0053  141.4929  158.9298 C   0  0  0  0  0  0  0  0  0  0  0  0
  154.4523  142.1356  160.1827 H   0  0  0  0  0  0  0  0  0  0  0  0
  153.3296  141.5035  161.3846 H   0  0  0  0  0  0  0  0  0  0  0  0
  153.7782  143.2040  161.4109 H   0  0  0  0  0  0  0  0  0  0  0  0
  151.5108  142.9117  160.4622 H   0  0  0  0  0  0  0  0  0  0  0  0
  152.8537  144.7986  159.6016 H   0  0  0  0  0  0  0  0  0  0  0  0
  153.5574  143.7737  158.3704 H   0  0  0  0  0  0  0  0  0  0  0  0
  150.6034  144.5142  158.6364 H   0  0  0  0  0  0  0  0  0  0  0  0
  151.7003  145.0691  157.3943 H   0  0  0  0  0  0  0  0  0  0  0  0
  150.2484  143.2160  156.5798 H   0  0  0  0  0  0  0  0  0  0  0  0
  151.9400  142.7626  156.5050 H   0  0  0  0  0  0  0  0  0  0  0  0
  149.3001  140.7313  157.1084 H   0  0  0  0  0  0  0  0  0  0  0  0
  150.8278  140.6613  156.2653 H   0  0  0  0  0  0  0  0  0  0  0  0
  151.2689  138.6513  157.3369 H   0  0  0  0  0  0  0  0  0  0  0  0
  151.2178  139.4603  158.8850 H   0  0  0  0  0  0  0  0  0  0  0  0
  148.5588  139.0130  157.9572 H   0  0  0  0  0  0  0  0  0  0  0  0
  147.8833  135.9128  158.3750 H   0  0  0  0  0  0  0  0  0  0  0  0
  146.9344  138.0575  157.5678 H   0  0  0  0  0  0  0  0  0  0  0  0
  146.8142  138.6565  159.2192 H   0  0  0  0  0  0  0  0  0  0  0  0
  145.8465  137.2789  158.7062 H   0  0  0  0  0  0  0  0  0  0  0  0
  147.5364  134.1795  160.1357 H   0  0  0  0  0  0  0  0  0  0  0  0
  147.3265  134.2007  162.8541 H   0  0  0  0  0  0  0  0  0  0  0  0
  147.6040  136.8862  163.4809 H   0  0  0  0  0  0  0  0  0  0  0  0
  152.8608  141.2042  158.3165 H   0  0  0  0  0  0  0  0  0  0  0  0
  151.7720  140.6388  159.5642 H   0  0  0  0  0  0  0  0  0  0  0  0
  150.0818  142.0720  158.6508 H   0  0  0  0  0  0  0  0  0  0  0  0
  1  2  1  0  0  0  0
  1 20  1  0  0  0  0
  1 21  1  0  0  0  0
  1 22  1  0  0  0  0
  2 19  1  0  0  0  0
  2  3  1  0  0  0  0
  2 23  1  0  0  0  0
  3  4  1  0  0  0  0
  3 24  1  0  0  0  0
  3 25  1  0  0  0  0
  4  5  1  0  0  0  0
  4 26  1  0  0  0  0
  4 27  1  0  0  0  0
  5  6  1  0  0  0  0
  5 28  1  0  0  0  0
  5 29  1  0  0  0  0
  6  7  1  0  0  0  0
  6 19  1  0  0  0  0
  6 44  1  0  0  0  0
  7  8  1  0  0  0  0
  7 30  1  0  0  0  0
  7 31  1  0  0  0  0
  8  9  1  0  0  0  0
  8 32  1  0  0  0  0
  8 33  1  0  0  0  0
  9 10  1  0  0  0  0
  9 34  1  0  0  0  0
 10 11  2  0  0  0  0
 10 12  1  0  0  0  0
 12 13  1  0  0  0  0
 12 14  1  0  0  0  0
 12 35  1  0  0  0  0
 13 36  1  0  0  0  0
 13 37  1  0  0  0  0
 13 38  1  0  0  0  0
 14 18  1  0  0  0  0
 14 15  1  0  0  0  0
 15 16  2  0  0  0  0
 15 39  1  0  0  0  0
 16 17  1  0  0  0  0
 16 40  1  0  0  0  0
 17 18  2  0  0  0  0
 17 41  1  0  0  0  0
 19 42  1  0  0  0  0
 19 43  1  0  0  0  0
M  CHG  1   6   1
M  END
> <s_m_source_file>
AV-unprocessed.smi

> <i_m_source_file_index>
3338

> <i_lp_mmshare_version>
43012

> <i_f3d_flags>
0

> <s_epik_input>
W0NIM11bQ0BASF0xW0NIMl1bQ0gyXVtDSDJdTihbQ0gyXTEpW0NIMl1bQ0gyXVtOSF1DKD1PKVtDQEhdKFtDSDNdKW4yW2NIXVtjSF1bY0hdbjI=

> <s_epik_cmdline>
J2VwaWtfcHl0aG9uJywgJy1waCcsICc3LjAnLCAnLXRuJywgJzgnLCAnLW1hJywgJzIwMCcsICctbWV0YWxfYmluZGluZycsICctaW1hZScsICc8aW5maWxlLm1hZT4nLCAnLW9tYWUnLCAnPG91dGZpbGUubWFlPic=

> <r_lp_tautomer_probability>
1

> <r_epik_Ionization_Penalty>
0.00225707

> <r_epik_Ionization_Penalty_Charging>
0.00223709

> <r_epik_Ionization_Penalty_Neutral>
1.99775e-05

> <r_epik_State_Penalty>
0.00153978

> <r_epik_Charging_Adjusted_Penalty>
0.00377687

> <i_epik_Tot_Q>
1

> <i_epik_Tot_abs_Q>
1

> <r_epik_Metal_State_Penalty>
-0

> <b_epik_Metal_Only>
0

> <s_lp_Force_Field>
OPLS_2005

> <r_lp_Energy>
19.9397

> <b_lp_Chiralities_Consistent>
1

> <s_lp_Variant>
AV-unprocessed.smi:3338-4

> <Gold.Version>
5.8.1

> <Gold.Id.Protein>
6NUR|6NUR_protein|mol2

> <Gold.PLP.Fitness>
49.1562

> <Gold.PLP.PLP>
-42.5367

> <Gold.PLP.part.hbond>
-3.0000

> <Gold.PLP.part.metal>
0.0000

> <Gold.PLP.part.buried>
-5.3913

> <Gold.PLP.part.nonpolar>
-34.1081

> <Gold.PLP.part.repulsive>
0.2318

> <Gold.PLP.ligand.clash>
0.0007

> <Gold.PLP.ligand.torsion>
0.8975

> <Gold.PLP.Chemscore.Hbond>
2.7680

> <Gold.PLP.Chemscore.CHOScore>
0.0000

> <Gold.PLP.Chemscore.Metal>
0.0000

> <Gold.Chemscore.Hbonds>
donor molecule, donor type, donor heavy atom, donor atom, acceptor molecule, acceptor atom, score
      P1  H  6896  6908       L1    11  1.00
      P1  H  6931  6943       L1    18  1.00
      P1  H  6934  6947       L1    18  0.75

> <Gold.PLP.Chemscore.Internal.Correction>
0.1111

> <Gold.Rescore>
     Score         DG    S(hbond)    S(metal)    S(lipo)     H(rot)  DE(clash)    DE(int)     intcor
     20.68     -21.61       2.53        0.00     103.96       1.76       0.03       0.90       ----

> <Gold.Chemscore.Fitness>
20.6780

> <Gold.Chemscore.DG>
-21.6087

> <Gold.Chemscore.ZeroCoef>
-5.4800

> <Gold.Chemscore.Hbond>
2.5338

> <Gold.Chemscore.Metal>
0.0000

> <Gold.Chemscore.Lipo>
103.9642

> <Gold.Chemscore.Internal_Hbond>
0.0000

> <Gold.Chemscore.DEClash>
0.0282

> <Gold.Chemscore.DEInternal>
0.9025

> <Gold.Chemscore.Rot>
1.7570

> <Gold.Chemscore.Internal.Correction>
   9.000000E+99

> <Gold.Chemscore.Hbonds>
donor molecule, donor type, donor heavy atom, donor atom, acceptor molecule, acceptor atom, score
      P1  H  6896  6908       L1    11  0.99
      P1  H  6931  6943       L1    18  0.43
      P1  H  6934  6947       L1    18  0.60

> <Gold.Chemscore.Hbond.Weighted>
-8.4628

> <Gold.Chemscore.Metal.Weighted>
-0.0000

> <Gold.Chemscore.Lipo.Weighted>
-12.1638

> <Gold.Chemscore.Internal_Hbond.Weighted>
0.0000

> <Gold.Chemscore.DEClash.Weighted>
0.0282

> <Gold.Chemscore.DEInternal.Weighted>
0.9025

> <Gold.Chemscore.Rot.Weighted>
4.4979

> <Gold.Chemscore.Internal.Correction.Weighted>
   9.000000E+99

> <Gold.Protein.RotatedTorsions>
[ 6907 6896 6895 6894 ] final -147.64 input  -60.11 | X-H torsion
[ 7974 7965 7964 7962 ] final  -53.69 input  175.53 | X-H torsion
[ 8008 7997 7996 7995 ] final   81.98 input   59.86 | X-H torsion
[ 10167 10162 10161 10158 ] final    2.38 input  -65.29 | X-H torsion
[ 10718 10713 10712 10709 ] final  108.66 input   66.30 | X-H torsion
[ 10763 10752 10751 10750 ] final  -36.49 input  -60.55 | X-H torsion
[ 11005 11000 10999 10996 ] final  133.10 input  -57.11 | X-H torsion

> <Gold.Protein.ActiveResidues>
 VAL166  LYS551  ARG553  GLY616  TRP617  ASP618  TYR619  PRO620  LYS621  CYS622 
 ASP623  PHE694  ASN695  SER759  ASP760  ASP761  ALA762  ILE779  LEU786  VAL792 
 PHE793  MET794  SER795  GLU796  ALA797  LYS798  CYS799  TRP800  GLU811  SER814 

> <Gold.Protein.RotatedAtoms>
  151.1585  133.4860  159.2594 H   0  0  0  0  0  0  0  0  0  0  0  0  # atno 6907 bound_to 6896
  151.1479  135.0212  159.8665 H   0  0  0  0  0  0  0  0  0  0  0  0  # atno 6908 bound_to 6896
  152.5463  134.1472  159.8556 H   0  0  0  0  0  0  0  0  0  0  0  0  # atno 6909 bound_to 6896
  145.8940  140.8048  142.9777 H   0  0  0  0  0  0  0  0  0  0  0  0  # atno 7974 bound_to 7965
  155.9044  140.3431  155.6051 H   0  0  0  0  0  0  0  0  0  0  0  0  # atno 8008 bound_to 7997
  155.7462  140.0814  157.2241 H   0  0  0  0  0  0  0  0  0  0  0  0  # atno 8009 bound_to 7997
  154.4047  140.1561  156.2659 H   0  0  0  0  0  0  0  0  0  0  0  0  # atno 8010 bound_to 7997
  140.6638  143.7234  150.7788 H   0  0  0  0  0  0  0  0  0  0  0  0  # atno 10167 bound_to 10162
  157.6576  131.0898  150.6338 H   0  0  0  0  0  0  0  0  0  0  0  0  # atno 10718 bound_to 10713
  153.8806  135.6822  153.4767 H   0  0  0  0  0  0  0  0  0  0  0  0  # atno 10763 bound_to 10752
  153.1236  135.4729  154.9233 H   0  0  0  0  0  0  0  0  0  0  0  0  # atno 10764 bound_to 10752
  154.7670  135.3227  154.8217 H   0  0  0  0  0  0  0  0  0  0  0  0  # atno 10765 bound_to 10752
  139.9831  134.9541  156.9677 H   0  0  0  0  0  0  0  0  0  0  0  0  # atno 11005 bound_to 11000
  144.6732  140.1573  143.7425 LP  0  0  0  0  0  0  0  0  0  0  0  0  # atno 17320 bound_to 7965
  145.8874  139.2356  143.1570 LP  0  0  0  0  0  0  0  0  0  0  0  0  # atno 17321 bound_to 7965
  140.0908  143.4880  152.2480 LP  0  0  0  0  0  0  0  0  0  0  0  0  # atno 17342 bound_to 10162
  139.5880  144.7539  151.3472 LP  0  0  0  0  0  0  0  0  0  0  0  0  # atno 17343 bound_to 10162
  156.6643  130.4521  149.5677 LP  0  0  0  0  0  0  0  0  0  0  0  0  # atno 17370 bound_to 10713
  156.2044  130.6640  151.1202 LP  0  0  0  0  0  0  0  0  0  0  0  0  # atno 17371 bound_to 10713
  140.5057  134.1052  155.7259 LP  0  0  0  0  0  0  0  0  0  0  0  0  # atno 17394 bound_to 11000
  141.1500  133.8986  157.2121 LP  0  0  0  0  0  0  0  0  0  0  0  0  # atno 17395 bound_to 11000

$$$$
