AV-unprocessed.smi:249|AV-procd|sdf|1912|dock5
  -GOLD-   2262021 03D 1   1.00000     0.00000
 Structure written by MMmdl.
 64 67  0  0  0  0  0  0  0  0  2 V2000
  146.7226  128.2715  152.2040 C   0  0  0  0  0  0  0  0  0  0  0  0
  145.8970  129.5418  151.9404 C   0  0  0  0  0  0  0  0  0  0  0  0
  146.7156  130.7889  151.9246 N   0  3  2  0  0  0  0  0  0  0  0  0
  147.4102  131.0088  153.2254 C   0  0  0  0  0  0  0  0  0  0  0  0
  148.3303  132.2385  153.1901 C   0  0  0  0  0  0  0  0  0  0  0  0
  147.5515  133.5196  152.8267 C   0  0  2  0  0  0  0  0  0  0  0  0
  146.5799  133.9375  153.8512 N   0  0  0  0  0  0  0  0  0  0  0  0
  145.5139  134.8461  153.4407 C   0  0  0  0  0  0  0  0  0  0  0  0
  147.0823  134.3115  155.0498 C   0  0  0  0  0  0  0  0  0  0  0  0
  147.9460  135.3562  155.0573 N   0  0  0  0  0  0  0  0  0  0  0  0
  148.4705  135.7795  156.2114 C   0  0  0  0  0  0  0  0  0  0  0  0
  148.2699  135.3056  157.4429 N   0  0  0  0  0  0  0  0  0  0  0  0
  147.4134  134.2440  157.4352 C   0  0  0  0  0  0  0  0  0  0  0  0
  146.7775  133.6853  156.2913 C   0  0  0  0  0  0  0  0  0  0  0  0
  145.9709  132.6191  156.6695 N   0  0  0  0  0  0  0  0  0  0  0  0
  146.1136  132.5569  157.9654 C   0  0  0  0  0  0  0  0  0  0  0  0
  146.9775  133.4829  158.5063 N   0  0  0  0  0  0  0  0  0  0  0  0
  147.3065  133.6404  159.9125 C   0  0  0  0  0  0  0  0  0  0  0  0
  146.1019  133.9731  160.8324 C   0  0  1  0  0  0  0  0  0  0  0  0
  145.6684  132.6929  161.5839 C   0  0  0  0  0  0  0  0  0  0  0  0
  144.4583  132.8870  162.2881 O   0  0  0  0  0  0  0  0  0  0  0  0
  146.3314  135.1740  161.7962 C   0  0  1  0  0  0  0  0  0  0  0  0
  147.4254  134.9973  162.8382 C   0  0  0  0  0  0  0  0  0  0  0  0
  147.7307  136.4322  163.2541 C   0  0  0  0  0  0  0  0  0  0  0  0
  147.4647  137.2339  162.1108 O   0  0  0  0  0  0  0  0  0  0  0  0
  146.8376  136.4467  161.1057 C   0  0  0  0  0  0  0  0  0  0  0  0
  146.8828  133.2496  151.4659 C   0  0  0  0  0  0  0  0  0  0  0  0
  145.9598  132.0080  151.4851 C   0  0  1  0  0  0  0  0  0  0  0  0
  145.3176  131.8529  150.0907 C   0  0  0  0  0  0  0  0  0  0  0  0
  146.1110  127.3824  152.0481 H   0  0  0  0  0  0  0  0  0  0  0  0
  147.0939  128.2208  153.2268 H   0  0  0  0  0  0  0  0  0  0  0  0
  147.5746  128.2055  151.5266 H   0  0  0  0  0  0  0  0  0  0  0  0
  145.4202  129.3876  150.9756 H   0  0  0  0  0  0  0  0  0  0  0  0
  145.0935  129.6330  152.6726 H   0  0  0  0  0  0  0  0  0  0  0  0
  146.6714  131.1105  154.0216 H   0  0  0  0  0  0  0  0  0  0  0  0
  148.0257  130.1479  153.4803 H   0  0  0  0  0  0  0  0  0  0  0  0
  148.8550  132.3408  154.1401 H   0  0  0  0  0  0  0  0  0  0  0  0
  149.1130  132.0732  152.4485 H   0  0  0  0  0  0  0  0  0  0  0  0
  148.2628  134.3354  152.6950 H   0  0  0  0  0  0  0  0  0  0  0  0
  145.0114  135.3049  154.2942 H   0  0  0  0  0  0  0  0  0  0  0  0
  144.7561  134.3071  152.8723 H   0  0  0  0  0  0  0  0  0  0  0  0
  145.9100  135.6451  152.8129 H   0  0  0  0  0  0  0  0  0  0  0  0
  149.1471  136.6182  156.1385 H   0  0  0  0  0  0  0  0  0  0  0  0
  145.5982  131.8205  158.5650 H   0  0  0  0  0  0  0  0  0  0  0  0
  147.7743  132.7094  160.2352 H   0  0  0  0  0  0  0  0  0  0  0  0
  148.0712  134.4128  160.0044 H   0  0  0  0  0  0  0  0  0  0  0  0
  145.2595  134.2330  160.1912 H   0  0  0  0  0  0  0  0  0  0  0  0
  145.5457  131.8551  160.8977 H   0  0  0  0  0  0  0  0  0  0  0  0
  146.4389  132.3906  162.2938 H   0  0  0  0  0  0  0  0  0  0  0  0
  144.6621  133.0591  163.1947 H   0  0  0  0  0  0  0  0  0  0  0  0
  145.3988  135.4098  162.3116 H   0  0  0  0  0  0  0  0  0  0  0  0
  147.1233  134.3956  163.6933 H   0  0  0  0  0  0  0  0  0  0  0  0
  148.3096  134.5400  162.3913 H   0  0  0  0  0  0  0  0  0  0  0  0
  147.0627  136.7452  164.0573 H   0  0  0  0  0  0  0  0  0  0  0  0
  148.7573  136.5557  163.5995 H   0  0  0  0  0  0  0  0  0  0  0  0
  147.5865  136.2038  160.3505 H   0  0  0  0  0  0  0  0  0  0  0  0
  146.0381  137.0060  160.6195 H   0  0  0  0  0  0  0  0  0  0  0  0
  146.3314  134.1290  151.1324 H   0  0  0  0  0  0  0  0  0  0  0  0
  147.6608  133.1005  150.7154 H   0  0  0  0  0  0  0  0  0  0  0  0
  145.1584  132.1846  152.2046 H   0  0  0  0  0  0  0  0  0  0  0  0
  144.9214  132.8053  149.7368 H   0  0  0  0  0  0  0  0  0  0  0  0
  144.4745  131.1631  150.0945 H   0  0  0  0  0  0  0  0  0  0  0  0
  146.0425  131.5065  149.3533 H   0  0  0  0  0  0  0  0  0  0  0  0
  147.4381  130.6456  151.2334 H   0  0  0  0  0  0  0  0  0  0  0  0
  1  2  1  0  0  0  0
  1 30  1  0  0  0  0
  1 31  1  0  0  0  0
  1 32  1  0  0  0  0
  2  3  1  0  0  0  0
  2 33  1  0  0  0  0
  2 34  1  0  0  0  0
  3 28  1  0  0  0  0
  3  4  1  0  0  0  0
  3 64  1  0  0  0  0
  4  5  1  0  0  0  0
  4 35  1  0  0  0  0
  4 36  1  0  0  0  0
  5  6  1  0  0  0  0
  5 37  1  0  0  0  0
  5 38  1  0  0  0  0
  6  7  1  0  0  0  0
  6 27  1  0  0  0  0
  6 39  1  0  0  0  0
  7  8  1  0  0  0  0
  7  9  1  0  0  0  0
  8 40  1  0  0  0  0
  8 41  1  0  0  0  0
  8 42  1  0  0  0  0
  9 14  1  0  0  0  0
  9 10  2  0  0  0  0
 10 11  1  0  0  0  0
 11 12  2  0  0  0  0
 11 43  1  0  0  0  0
 12 13  1  0  0  0  0
 13 17  1  0  0  0  0
 13 14  2  0  0  0  0
 14 15  1  0  0  0  0
 15 16  2  0  0  0  0
 16 17  1  0  0  0  0
 16 44  1  0  0  0  0
 17 18  1  0  0  0  0
 18 19  1  0  0  0  0
 18 45  1  0  0  0  0
 18 46  1  0  0  0  0
 19 20  1  0  0  0  0
 19 22  1  0  0  0  0
 19 47  1  0  0  0  0
 20 21  1  0  0  0  0
 20 48  1  0  0  0  0
 20 49  1  0  0  0  0
 21 50  1  0  0  0  0
 22 26  1  0  0  0  0
 22 23  1  0  0  0  0
 22 51  1  0  0  0  0
 23 24  1  0  0  0  0
 23 52  1  0  0  0  0
 23 53  1  0  0  0  0
 24 25  1  0  0  0  0
 24 54  1  0  0  0  0
 24 55  1  0  0  0  0
 25 26  1  0  0  0  0
 26 56  1  0  0  0  0
 26 57  1  0  0  0  0
 27 28  1  0  0  0  0
 27 58  1  0  0  0  0
 27 59  1  0  0  0  0
 28 29  1  0  0  0  0
 28 60  1  0  0  0  0
 29 61  1  0  0  0  0
 29 62  1  0  0  0  0
 29 63  1  0  0  0  0
M  CHG  1   3   1
M  END
> <s_m_source_file>
AV-unprocessed.smi

> <i_m_source_file_index>
249

> <i_lp_mmshare_version>
43012

> <i_f3d_flags>
0

> <s_epik_input>
W0NIM11bQ0gyXU4xW0NIMl1bQ0gyXVtDQEhdKFtDSDJdW0NASF0xW0NIM10pTihbQ0gzXSljKG5bY0hdbjIpYyhjMjMpbltjSF1uM1tDSDJdW0NASF0oW0NIMl1bT0hdKVtDQEBIXTRbQ0gyXVtDSDJdT1tDSDJdNA==

> <s_epik_cmdline>
J2VwaWtfcHl0aG9uJywgJy1waCcsICc3LjAnLCAnLXRuJywgJzgnLCAnLW1hJywgJzIwMCcsICctbWV0YWxfYmluZGluZycsICctaW1hZScsICc8aW5maWxlLm1hZT4nLCAnLW9tYWUnLCAnPG91dGZpbGUubWFlPic=

> <r_lp_tautomer_probability>
1

> <r_epik_Ionization_Penalty>
0.00294688

> <r_epik_Ionization_Penalty_Charging>
0.00169971

> <r_epik_Ionization_Penalty_Neutral>
0.00124717

> <r_epik_State_Penalty>
-0

> <r_epik_Charging_Adjusted_Penalty>
0.00169971

> <i_epik_Tot_Q>
1

> <i_epik_Tot_abs_Q>
1

> <r_epik_Metal_State_Penalty>
-0

> <b_epik_Metal_Only>
0

> <s_lp_Force_Field>
OPLS_2005

> <r_lp_Energy>
57.4157

> <b_lp_Chiralities_Consistent>
1

> <s_lp_Variant>
AV-unprocessed.smi:249-15

> <Gold.Version>
5.8.1

> <Gold.Id.Protein>
6NUR|6NUR_protein|mol2

> <Gold.PLP.Fitness>
47.5548

> <Gold.PLP.PLP>
-42.3206

> <Gold.PLP.part.hbond>
-3.9064

> <Gold.PLP.part.metal>
0.0000

> <Gold.PLP.part.buried>
-4.9034

> <Gold.PLP.part.nonpolar>
-33.6858

> <Gold.PLP.part.repulsive>
0.2627

> <Gold.PLP.ligand.clash>
0.0000

> <Gold.PLP.ligand.torsion>
1.1489

> <Gold.PLP.Chemscore.Hbond>
2.2914

> <Gold.PLP.Chemscore.CHOScore>
0.0000

> <Gold.PLP.Chemscore.Metal>
0.0000

> <Gold.Chemscore.Hbonds>
donor molecule, donor type, donor heavy atom, donor atom, acceptor molecule, acceptor atom, score
      L1  H     3    64       P1 10747  1.00
      P1  H  6931  6943       L1    25  0.88
      P1  H  6934  6947       L1    25  0.27

> <Gold.PLP.Chemscore.Internal.Correction>
0.6578

> <Gold.Rescore>
     Score         DG    S(hbond)    S(metal)    S(lipo)     H(rot)  DE(clash)    DE(int)     intcor
     15.81     -17.12       1.90        0.00     108.55       2.90       0.15       1.15       ----

> <Gold.Chemscore.Fitness>
15.8128

> <Gold.Chemscore.DG>
-17.1169

> <Gold.Chemscore.ZeroCoef>
-5.4800

> <Gold.Chemscore.Hbond>
1.9048

> <Gold.Chemscore.Metal>
0.0000

> <Gold.Chemscore.Lipo>
108.5502

> <Gold.Chemscore.Internal_Hbond>
0.0000

> <Gold.Chemscore.DEClash>
0.1511

> <Gold.Chemscore.DEInternal>
1.1530

> <Gold.Chemscore.Rot>
2.9006

> <Gold.Chemscore.Internal.Correction>
   9.000000E+99

> <Gold.Chemscore.Hbonds>
donor molecule, donor type, donor heavy atom, donor atom, acceptor molecule, acceptor atom, score
      L1  H     3    64       P1 10747  1.00
      P1  H  6931  6943       L1    25  0.34
      P1  H  6934  6947       L1    25  0.02

> <Gold.Chemscore.Hbond.Weighted>
-6.3621

> <Gold.Chemscore.Metal.Weighted>
-0.0000

> <Gold.Chemscore.Lipo.Weighted>
-12.7004

> <Gold.Chemscore.Internal_Hbond.Weighted>
0.0000

> <Gold.Chemscore.DEClash.Weighted>
0.1511

> <Gold.Chemscore.DEInternal.Weighted>
1.1530

> <Gold.Chemscore.Rot.Weighted>
7.4256

> <Gold.Chemscore.Internal.Correction.Weighted>
   9.000000E+99

> <Gold.Protein.RotatedTorsions>
[ 6907 6896 6895 6894 ] final  -99.83 input  -60.11 | X-H torsion
[ 7974 7965 7964 7962 ] final   34.27 input  175.53 | X-H torsion
[ 8008 7997 7996 7995 ] final  -76.42 input   59.86 | X-H torsion
[ 10167 10162 10161 10158 ] final  115.66 input  -65.29 | X-H torsion
[ 10718 10713 10712 10709 ] final   16.78 input   66.30 | X-H torsion
[ 10763 10752 10751 10750 ] final   99.11 input  -60.55 | X-H torsion
[ 11005 11000 10999 10996 ] final -108.13 input  -57.11 | X-H torsion

> <Gold.Protein.ActiveResidues>
 VAL166  LYS551  ARG553  GLY616  TRP617  ASP618  TYR619  PRO620  LYS621  CYS622 
 ASP623  PHE694  ASN695  SER759  ASP760  ASP761  ALA762  ILE779  LEU786  VAL792 
 PHE793  MET794  SER795  GLU796  ALA797  LYS798  CYS799  TRP800  GLU811  SER814 

> <Gold.Protein.RotatedAtoms>
  150.7094  134.0980  159.3955 H   0  0  0  0  0  0  0  0  0  0  0  0  # atno 6907 bound_to 6896
  151.8967  135.0393  160.0512 H   0  0  0  0  0  0  0  0  0  0  0  0  # atno 6908 bound_to 6896
  152.2448  133.5130  159.5327 H   0  0  0  0  0  0  0  0  0  0  0  0  # atno 6909 bound_to 6896
  146.1364  139.6290  142.9192 H   0  0  0  0  0  0  0  0  0  0  0  0  # atno 7974 bound_to 7965
  154.5504  140.0727  156.8658 H   0  0  0  0  0  0  0  0  0  0  0  0  # atno 8008 bound_to 7997
  155.3005  140.3384  155.4230 H   0  0  0  0  0  0  0  0  0  0  0  0  # atno 8009 bound_to 7997
  156.1956  140.1702  156.7991 H   0  0  0  0  0  0  0  0  0  0  0  0  # atno 8010 bound_to 7997
  139.6301  144.7114  151.2449 H   0  0  0  0  0  0  0  0  0  0  0  0  # atno 10167 bound_to 10162
  157.0727  130.6355  149.5809 H   0  0  0  0  0  0  0  0  0  0  0  0  # atno 10718 bound_to 10713
  153.2973  135.4125  155.1221 H   0  0  0  0  0  0  0  0  0  0  0  0  # atno 10763 bound_to 10752
  154.8539  135.3533  154.5900 H   0  0  0  0  0  0  0  0  0  0  0  0  # atno 10764 bound_to 10752
  153.6324  135.7060  153.5329 H   0  0  0  0  0  0  0  0  0  0  0  0  # atno 10765 bound_to 10752
  141.0918  133.9042  157.2058 H   0  0  0  0  0  0  0  0  0  0  0  0  # atno 11005 bound_to 11000
  145.5146  141.0434  143.2469 LP  0  0  0  0  0  0  0  0  0  0  0  0  # atno 17320 bound_to 7965
  144.7744  139.6662  143.7181 LP  0  0  0  0  0  0  0  0  0  0  0  0  # atno 17321 bound_to 7965
  140.7434  143.6495  150.8261 LP  0  0  0  0  0  0  0  0  0  0  0  0  # atno 17342 bound_to 10162
  140.0119  143.5634  152.2835 LP  0  0  0  0  0  0  0  0  0  0  0  0  # atno 17343 bound_to 10162
  155.9946  130.5010  150.7425 LP  0  0  0  0  0  0  0  0  0  0  0  0  # atno 17370 bound_to 10713
  157.4864  131.0907  151.0477 LP  0  0  0  0  0  0  0  0  0  0  0  0  # atno 17371 bound_to 10713
  139.9745  135.0118  156.9597 LP  0  0  0  0  0  0  0  0  0  0  0  0  # atno 17394 bound_to 11000
  140.5234  134.0885  155.7297 LP  0  0  0  0  0  0  0  0  0  0  0  0  # atno 17395 bound_to 11000

$$$$
