AV-unprocessed.smi:40|AV-procd|sdf|375|dock2
  -GOLD-   2262016223D 1   1.00000     0.00000
 Structure written by MMmdl.
 47 48  0  0  0  0  0  0  0  0  1 V2000
  152.2636  144.5880  158.9798 C   0  0  0  0  0  0  0  0  0  0  0  0
  153.2688  143.5637  159.5178 C   0  0  0  0  0  0  0  0  0  0  0  0
  152.6349  142.1868  159.7610 C   0  0  0  0  0  0  0  0  0  0  0  0
  153.6833  141.0804  159.9557 C   0  0  0  0  0  0  0  0  0  0  0  0
  153.0664  139.6724  159.9937 C   0  0  0  0  0  0  0  0  0  0  0  0
  152.6597  139.2548  158.6971 O   0  0  0  0  0  0  0  0  0  0  0  0
  152.2377  137.9904  158.4741 C   0  0  0  0  0  0  0  0  0  0  0  0
  152.2216  137.1023  159.3259 O   0  0  0  0  0  0  0  0  0  0  0  0
  151.8525  137.8115  157.0891 N   0  0  0  0  0  0  0  0  0  0  0  0
  151.3863  136.6761  156.5261 C   0  0  0  0  0  0  0  0  0  0  0  0
  151.7700  135.5300  157.0579 N   0  0  0  0  0  0  0  0  0  0  0  0
  151.3810  134.3045  156.5853 C   0  0  0  0  0  0  0  0  0  0  0  0
  151.7689  133.2709  157.1276 O   0  0  0  0  0  0  0  0  0  0  0  0
  150.5157  134.2853  155.4660 N   0  0  0  0  0  0  0  0  0  0  0  0
  150.0690  132.9633  154.8822 C   0  0  2  0  0  0  0  0  0  0  0  0
  149.4898  133.2213  153.6407 O   0  0  0  0  0  0  0  0  0  0  0  0
  148.3748  132.3630  153.4632 C   0  0  2  0  0  0  0  0  0  0  0  0
  147.4104  132.9603  152.4325 C   0  0  0  0  0  0  0  0  0  0  0  0
  147.7873  132.2315  154.8701 C   0  0  1  0  0  0  0  0  0  0  0  0
  147.0703  131.0192  154.9904 O   0  0  0  0  0  0  0  0  0  0  0  0
  149.0277  132.2248  155.7571 C   0  0  2  0  0  0  0  0  0  0  0  0
  148.7619  132.8404  157.0050 O   0  0  0  0  0  0  0  0  0  0  0  0
  150.0857  135.4790  154.9067 C   0  0  0  0  0  0  0  0  0  0  0  0
  150.4834  136.6755  155.3888 C   0  0  0  0  0  0  0  0  0  0  0  0
  150.0351  137.8154  154.8347 F   0  0  0  0  0  0  0  0  0  0  0  0
  150.9641  132.3642  154.7122 H   0  0  0  0  0  0  0  0  0  0  0  0
  148.7495  131.3980  153.1162 H   0  0  0  0  0  0  0  0  0  0  0  0
  147.1475  133.0862  155.0967 H   0  0  0  0  0  0  0  0  0  0  0  0
  149.3925  131.2092  155.9192 H   0  0  0  0  0  0  0  0  0  0  0  0
  152.7416  145.5550  158.8214 H   0  0  0  0  0  0  0  0  0  0  0  0
  151.4391  144.7349  159.6778 H   0  0  0  0  0  0  0  0  0  0  0  0
  151.8434  144.2647  158.0269 H   0  0  0  0  0  0  0  0  0  0  0  0
  154.0946  143.4672  158.8121 H   0  0  0  0  0  0  0  0  0  0  0  0
  153.6989  143.9380  160.4475 H   0  0  0  0  0  0  0  0  0  0  0  0
  151.9905  142.2336  160.6396 H   0  0  0  0  0  0  0  0  0  0  0  0
  151.9896  141.9344  158.9186 H   0  0  0  0  0  0  0  0  0  0  0  0
  154.4340  141.1364  159.1665 H   0  0  0  0  0  0  0  0  0  0  0  0
  154.2146  141.2533  160.8921 H   0  0  0  0  0  0  0  0  0  0  0  0
  153.7694  138.9581  160.4247 H   0  0  0  0  0  0  0  0  0  0  0  0
  152.1913  139.6723  160.6438 H   0  0  0  0  0  0  0  0  0  0  0  0
  151.8735  138.6510  156.5290 H   0  0  0  0  0  0  0  0  0  0  0  0
  146.5391  132.3193  152.2954 H   0  0  0  0  0  0  0  0  0  0  0  0
  147.8974  133.0730  151.4637 H   0  0  0  0  0  0  0  0  0  0  0  0
  147.0575  133.9437  152.7441 H   0  0  0  0  0  0  0  0  0  0  0  0
  147.6680  130.3005  154.8514 H   0  0  0  0  0  0  0  0  0  0  0  0
  148.1627  133.5570  156.8631 H   0  0  0  0  0  0  0  0  0  0  0  0
  149.4063  135.4614  154.0664 H   0  0  0  0  0  0  0  0  0  0  0  0
  1  2  1  0  0  0  0
  1 30  1  0  0  0  0
  1 31  1  0  0  0  0
  1 32  1  0  0  0  0
  2  3  1  0  0  0  0
  2 33  1  0  0  0  0
  2 34  1  0  0  0  0
  3  4  1  0  0  0  0
  3 35  1  0  0  0  0
  3 36  1  0  0  0  0
  4  5  1  0  0  0  0
  4 37  1  0  0  0  0
  4 38  1  0  0  0  0
  5  6  1  0  0  0  0
  5 39  1  0  0  0  0
  5 40  1  0  0  0  0
  6  7  1  0  0  0  0
  7  8  2  0  0  0  0
  7  9  1  0  0  0  0
  9 10  1  0  0  0  0
  9 41  1  0  0  0  0
 10 24  1  0  0  0  0
 10 11  2  0  0  0  0
 11 12  1  0  0  0  0
 12 13  2  0  0  0  0
 12 14  1  0  0  0  0
 14 15  1  0  0  0  0
 14 23  1  0  0  0  0
 15 26  1  0  0  0  0
 15 21  1  0  0  0  0
 15 16  1  0  0  0  0
 16 17  1  0  0  0  0
 17 27  1  0  0  0  0
 17 18  1  0  0  0  0
 17 19  1  0  0  0  0
 18 42  1  0  0  0  0
 18 43  1  0  0  0  0
 18 44  1  0  0  0  0
 19 28  1  0  0  0  0
 19 20  1  0  0  0  0
 19 21  1  0  0  0  0
 20 45  1  0  0  0  0
 21 29  1  0  0  0  0
 21 22  1  0  0  0  0
 22 46  1  0  0  0  0
 23 24  2  0  0  0  0
 23 47  1  0  0  0  0
 24 25  1  0  0  0  0
M  END
> <s_m_source_file>
AV-unprocessed.smi

> <i_m_source_file_index>
40

> <i_lp_mmshare_version>
43012

> <i_f3d_flags>
0

> <s_epik_input>
W0NIM11bQ0gyXVtDSDJdW0NIMl1bQ0gyXU9DKD1PKVtOSF1jMW5jKD1PKW4oW2NIXWMxRilbQ0BASF0yT1tDQEhdKFtDSDNdKVtDQEBIXShbT0hdKVtDQEhdMltPSF0=

> <s_epik_cmdline>
J2VwaWtfcHl0aG9uJywgJy1waCcsICc3LjAnLCAnLXRuJywgJzgnLCAnLW1hJywgJzIwMCcsICctbWV0YWxfYmluZGluZycsICctaW1hZScsICc8aW5maWxlLm1hZT4nLCAnLW9tYWUnLCAnPG91dGZpbGUubWFlPic=

> <r_lp_tautomer_probability>
1

> <r_epik_Ionization_Penalty>
2.29506e-06

> <r_epik_Ionization_Penalty_Charging>
8.26867e-09

> <r_epik_Ionization_Penalty_Neutral>
2.2868e-06

> <r_epik_State_Penalty>
-0

> <r_epik_Charging_Adjusted_Penalty>
8.26867e-09

> <i_epik_Tot_Q>
0

> <i_epik_Tot_abs_Q>
0

> <r_epik_Metal_State_Penalty>
-0

> <b_epik_Metal_Only>
0

> <s_epik_Chemistry_Notes>
This compound has an ester and may undergo hydrolysis at high or low pH. This compound contains an acetal/aminal-like group ( X-CH(R)-Y where X, Y are N, S, or O) that may be acid/base labile, releasing an aldehyde.

> <s_lp_Force_Field>
OPLS_2005

> <r_lp_Energy>
38.1616

> <b_lp_Chiralities_Consistent>
1

> <s_lp_Variant>
AV-unprocessed.smi:40-9

> <Gold.Version>
5.8.1

> <Gold.Id.Protein>
6NUR|6NUR_protein|mol2

> <Gold.PLP.Fitness>
43.8314

> <Gold.PLP.PLP>
-38.7110

> <Gold.PLP.part.hbond>
-2.4111

> <Gold.PLP.part.metal>
0.0000

> <Gold.PLP.part.buried>
-5.1903

> <Gold.PLP.part.nonpolar>
-32.0947

> <Gold.PLP.part.repulsive>
0.2809

> <Gold.PLP.ligand.clash>
0.0000

> <Gold.PLP.ligand.torsion>
0.6066

> <Gold.PLP.Chemscore.Hbond>
1.0068

> <Gold.PLP.Chemscore.CHOScore>
1.0000

> <Gold.PLP.Chemscore.Metal>
0.0000

> <Gold.Chemscore.Hbonds>
donor molecule, donor type, donor heavy atom, donor atom, acceptor molecule, acceptor atom, score
      P1  H  6896  6909       L1     8  0.76
      L1  C    23    47       P1  7948  1.00

> <Gold.PLP.Chemscore.Internal.Correction>
0.3132

> <Gold.Rescore>
     Score         DG    S(hbond)    S(metal)    S(lipo)     H(rot)  DE(clash)    DE(int)     intcor
      6.73      -8.94       0.99        0.00      82.20       3.70       0.03       2.18       ----

> <Gold.Chemscore.Fitness>
6.7320

> <Gold.Chemscore.DG>
-8.9370

> <Gold.Chemscore.ZeroCoef>
-5.4800

> <Gold.Chemscore.Hbond>
0.9883

> <Gold.Chemscore.Metal>
0.0000

> <Gold.Chemscore.Lipo>
82.1968

> <Gold.Chemscore.Internal_Hbond>
0.0000

> <Gold.Chemscore.DEClash>
0.0270

> <Gold.Chemscore.DEInternal>
2.1781

> <Gold.Chemscore.Rot>
3.6957

> <Gold.Chemscore.Internal.Correction>
   9.000000E+99

> <Gold.Chemscore.Hbonds>
donor molecule, donor type, donor heavy atom, donor atom, acceptor molecule, acceptor atom, score
      P1  H  6896  6909       L1     8  0.76

> <Gold.Chemscore.Hbond.Weighted>
-3.3010

> <Gold.Chemscore.Metal.Weighted>
-0.0000

> <Gold.Chemscore.Lipo.Weighted>
-9.6170

> <Gold.Chemscore.Internal_Hbond.Weighted>
0.0000

> <Gold.Chemscore.DEClash.Weighted>
0.0270

> <Gold.Chemscore.DEInternal.Weighted>
2.1781

> <Gold.Chemscore.Rot.Weighted>
9.4610

> <Gold.Chemscore.Internal.Correction.Weighted>
   9.000000E+99

> <Gold.Protein.RotatedTorsions>
[ 6907 6896 6895 6894 ] final  130.47 input  -60.11 | X-H torsion
[ 7974 7965 7964 7962 ] final  144.52 input  175.53 | X-H torsion
[ 8008 7997 7996 7995 ] final  165.96 input   59.86 | X-H torsion
[ 10167 10162 10161 10158 ] final   97.80 input  -65.29 | X-H torsion
[ 10718 10713 10712 10709 ] final  127.40 input   66.30 | X-H torsion
[ 10763 10752 10751 10750 ] final  106.30 input  -60.55 | X-H torsion
[ 11005 11000 10999 10996 ] final -160.22 input  -57.11 | X-H torsion

> <Gold.Protein.ActiveResidues>
 VAL166  LYS551  ARG553  GLY616  TRP617  ASP618  TYR619  PRO620  LYS621  CYS622 
 ASP623  PHE694  ASN695  SER759  ASP760  ASP761  ALA762  ILE779  LEU786  VAL792 
 PHE793  MET794  SER795  GLU796  ALA797  LYS798  CYS799  TRP800  GLU811  SER814 

> <Gold.Protein.RotatedAtoms>
  152.3523  133.6194  159.5953 H   0  0  0  0  0  0  0  0  0  0  0  0  # atno 6907 bound_to 6896
  150.7545  133.9555  159.3508 H   0  0  0  0  0  0  0  0  0  0  0  0  # atno 6908 bound_to 6896
  151.7405  135.0856  160.0366 H   0  0  0  0  0  0  0  0  0  0  0  0  # atno 6909 bound_to 6896
  144.8829  139.5672  143.5834 H   0  0  0  0  0  0  0  0  0  0  0  0  # atno 7974 bound_to 7965
  156.1758  140.1656  156.8365 H   0  0  0  0  0  0  0  0  0  0  0  0  # atno 8008 bound_to 7997
  154.5305  140.0758  156.8370 H   0  0  0  0  0  0  0  0  0  0  0  0  # atno 8009 bound_to 7997
  155.3416  140.3385  155.4241 H   0  0  0  0  0  0  0  0  0  0  0  0  # atno 8010 bound_to 7997
  139.7767  144.6903  151.0079 H   0  0  0  0  0  0  0  0  0  0  0  0  # atno 10167 bound_to 10162
  157.5336  131.1098  150.8970 H   0  0  0  0  0  0  0  0  0  0  0  0  # atno 10718 bound_to 10713
  153.3911  135.3881  155.1924 H   0  0  0  0  0  0  0  0  0  0  0  0  # atno 10763 bound_to 10752
  154.8719  135.3748  154.4736 H   0  0  0  0  0  0  0  0  0  0  0  0  # atno 10764 bound_to 10752
  153.5223  135.7086  153.5787 H   0  0  0  0  0  0  0  0  0  0  0  0  # atno 10765 bound_to 10752
  140.6339  134.4622  157.5231 H   0  0  0  0  0  0  0  0  0  0  0  0  # atno 11005 bound_to 11000
  146.3006  139.7414  142.9094 LP  0  0  0  0  0  0  0  0  0  0  0  0  # atno 17320 bound_to 7965
  145.3921  141.0374  143.3118 LP  0  0  0  0  0  0  0  0  0  0  0  0  # atno 17321 bound_to 7965
  140.7816  143.4528  151.0388 LP  0  0  0  0  0  0  0  0  0  0  0  0  # atno 17342 bound_to 10162
  139.8210  143.7820  152.3177 LP  0  0  0  0  0  0  0  0  0  0  0  0  # atno 17343 bound_to 10162
  156.9544  130.5432  149.5283 LP  0  0  0  0  0  0  0  0  0  0  0  0  # atno 17370 bound_to 10713
  156.0441  130.5520  150.8841 LP  0  0  0  0  0  0  0  0  0  0  0  0  # atno 17371 bound_to 10713
  139.9105  134.8354  156.1544 LP  0  0  0  0  0  0  0  0  0  0  0  0  # atno 17394 bound_to 11000
  141.0656  133.6821  156.2037 LP  0  0  0  0  0  0  0  0  0  0  0  0  # atno 17395 bound_to 11000

$$$$
