AV-unprocessed.smi:3034|AV-procd|sdf|11579|dock10
  -GOLD-   2272016553D 1   1.00000     0.00000
 Structure written by MMmdl.
 31 31  0  0  0  0  0  0  0  0  2 V2000
  147.0516  139.8641  152.7223 C   0  0  0  0  0  0  0  0  0  0  0  0
  147.4304  138.7594  153.7145 C   0  0  0  0  0  0  0  0  0  0  0  0
  147.9085  139.3251  155.0571 C   0  0  0  0  0  0  0  0  0  0  0  0
  149.3629  140.4467  154.8378 S   0  0  0  0  0  0  0  0  0  0  0  0
  150.4504  139.6109  154.3012 O   0  0  0  0  0  0  0  0  0  0  0  0
  148.8821  141.5303  153.9674 O   0  0  0  0  0  0  0  0  0  0  0  0
  149.6311  140.9859  156.3494 N   0  5  0  0  0  0  0  0  0  0  0  0
  150.5183  140.2767  157.2654 C   0  0  0  0  0  0  0  0  0  0  0  0
  151.8863  141.0006  157.3761 C   0  0  2  0  0  0  0  0  0  0  0  0
  152.7915  140.1333  158.0328 O   0  0  0  0  0  0  0  0  0  0  0  0
  151.8301  142.3796  158.0429 C   0  0  0  0  0  0  0  0  0  0  0  0
  152.6841  142.6793  159.1296 C   0  0  0  0  0  0  0  0  0  0  0  0
  152.6169  143.9589  159.7126 C   0  0  0  0  0  0  0  0  0  0  0  0
  151.6954  144.8909  159.1995 C   0  0  0  0  0  0  0  0  0  0  0  0
  150.8751  144.4978  158.1243 C   0  0  0  0  0  0  0  0  0  0  0  0
  150.9305  143.2735  157.5586 N   0  0  0  0  0  0  0  0  0  0  0  0
  146.7162  139.4392  151.7761 H   0  0  0  0  0  0  0  0  0  0  0  0
  147.9027  140.5133  152.5138 H   0  0  0  0  0  0  0  0  0  0  0  0
  146.2451  140.4843  153.1143 H   0  0  0  0  0  0  0  0  0  0  0  0
  146.5705  138.1089  153.8780 H   0  0  0  0  0  0  0  0  0  0  0  0
  148.2117  138.1358  153.2791 H   0  0  0  0  0  0  0  0  0  0  0  0
  147.1125  139.8942  155.5360 H   0  0  0  0  0  0  0  0  0  0  0  0
  148.1932  138.5139  155.7265 H   0  0  0  0  0  0  0  0  0  0  0  0
  150.0902  140.1756  158.2635 H   0  0  0  0  0  0  0  0  0  0  0  0
  150.6832  139.2565  156.9163 H   0  0  0  0  0  0  0  0  0  0  0  0
  152.2855  141.1348  156.3696 H   0  0  0  0  0  0  0  0  0  0  0  0
  152.4473  139.9425  158.8913 H   0  0  0  0  0  0  0  0  0  0  0  0
  153.3891  141.9482  159.4971 H   0  0  0  0  0  0  0  0  0  0  0  0
  153.2634  144.2217  160.5365 H   0  0  0  0  0  0  0  0  0  0  0  0
  151.6188  145.8826  159.6197 H   0  0  0  0  0  0  0  0  0  0  0  0
  150.1545  145.1856  157.7070 H   0  0  0  0  0  0  0  0  0  0  0  0
  1  2  1  0  0  0  0
  1 17  1  0  0  0  0
  1 18  1  0  0  0  0
  1 19  1  0  0  0  0
  2  3  1  0  0  0  0
  2 20  1  0  0  0  0
  2 21  1  0  0  0  0
  3  4  1  0  0  0  0
  3 22  1  0  0  0  0
  3 23  1  0  0  0  0
  4  5  2  0  0  0  0
  4  6  2  0  0  0  0
  4  7  1  0  0  0  0
  7  8  1  0  0  0  0
  8  9  1  0  0  0  0
  8 24  1  0  0  0  0
  8 25  1  0  0  0  0
  9 10  1  0  0  0  0
  9 11  1  0  0  0  0
  9 26  1  0  0  0  0
 10 27  1  0  0  0  0
 11 16  1  0  0  0  0
 11 12  2  0  0  0  0
 12 13  1  0  0  0  0
 12 28  1  0  0  0  0
 13 14  2  0  0  0  0
 13 29  1  0  0  0  0
 14 15  1  0  0  0  0
 14 30  1  0  0  0  0
 15 16  2  0  0  0  0
 15 31  1  0  0  0  0
M  CHG  1   7  -1
M  END
> <s_m_source_file>
AV-unprocessed.smi

> <i_m_source_file_index>
3034

> <i_lp_mmshare_version>
43012

> <i_f3d_flags>
0

> <s_epik_input>
W0NIM11bQ0gyXVtDSDJdUyg9TykoPU8pW05IXVtDSDJdW0NASF0oW09IXSljMVtjSF1bY0hdW2NIXVtjSF1uMQ==

> <s_epik_cmdline>
J2VwaWtfcHl0aG9uJywgJy1waCcsICc3LjAnLCAnLXRuJywgJzgnLCAnLW1hJywgJzIwMCcsICctbWV0YWxfYmluZGluZycsICctaW1hZScsICc8aW5maWxlLm1hZT4nLCAnLW9tYWUnLCAnPG91dGZpbGUubWFlPic=

> <r_epik_Ionization_Penalty>
6.18156

> <r_epik_Ionization_Penalty_Charging>
6.17474

> <r_epik_Ionization_Penalty_Neutral>
0.0068235

> <r_epik_State_Penalty>
6.17598

> <r_epik_Charging_Adjusted_Penalty>
12.3507

> <i_epik_Tot_Q>
-1

> <i_epik_Tot_abs_Q>
1

> <r_epik_Metal_State_Penalty>
2.11803

> <b_epik_Metal_Only>
1

> <s_lp_Force_Field>
OPLS_2005

> <r_lp_Energy>
-0.388479

> <b_lp_Chiralities_Consistent>
1

> <s_lp_Variant>
AV-unprocessed.smi:3034-3

> <Gold.Version>
5.8.1

> <Gold.Id.Protein>
6NUR|6NUR_protein|mol2

> <Gold.PLP.Fitness>
39.9618

> <Gold.PLP.PLP>
-30.3217

> <Gold.PLP.part.hbond>
-3.0000

> <Gold.PLP.part.metal>
0.0000

> <Gold.PLP.part.buried>
-4.2946

> <Gold.PLP.part.nonpolar>
-23.7055

> <Gold.PLP.part.repulsive>
0.5556

> <Gold.PLP.ligand.clash>
0.0000

> <Gold.PLP.ligand.torsion>
0.7365

> <Gold.PLP.Chemscore.Hbond>
2.4800

> <Gold.PLP.Chemscore.CHOScore>
0.8729

> <Gold.PLP.Chemscore.Metal>
0.0000

> <Gold.Chemscore.Hbonds>
donor molecule, donor type, donor heavy atom, donor atom, acceptor molecule, acceptor atom, score
      P1  H  7989  7998       L1     5  1.00
      P1  H  7997  8010       L1    10  0.93
      P1  H  8011  8017       L1     6  0.61
      L1  C    15    31       P1  8028  0.35
      L1  C    15    31       P1  8029  0.40

> <Gold.PLP.Chemscore.Internal.Correction>
1.0543

> <Gold.Rescore>
     Score         DG    S(hbond)    S(metal)    S(lipo)     H(rot)  DE(clash)    DE(int)     intcor
     14.74     -16.94       2.23        0.00      84.21       2.29       0.22       1.97       ----

> <Gold.Chemscore.Fitness>
14.7425

> <Gold.Chemscore.DG>
-16.9356

> <Gold.Chemscore.ZeroCoef>
-5.4800

> <Gold.Chemscore.Hbond>
2.2347

> <Gold.Chemscore.Metal>
0.0000

> <Gold.Chemscore.Lipo>
84.2116

> <Gold.Chemscore.Internal_Hbond>
0.0000

> <Gold.Chemscore.DEClash>
0.2204

> <Gold.Chemscore.DEInternal>
1.9727

> <Gold.Chemscore.Rot>
2.2895

> <Gold.Chemscore.Internal.Correction>
   9.000000E+99

> <Gold.Chemscore.Hbonds>
donor molecule, donor type, donor heavy atom, donor atom, acceptor molecule, acceptor atom, score
      P1  H  7989  7998       L1     5  0.45
      P1  H  7997  8010       L1    10  0.42
      P1  H  8011  8017       L1     6  0.59

> <Gold.Chemscore.Hbond.Weighted>
-7.4640

> <Gold.Chemscore.Metal.Weighted>
-0.0000

> <Gold.Chemscore.Lipo.Weighted>
-9.8528

> <Gold.Chemscore.Internal_Hbond.Weighted>
0.0000

> <Gold.Chemscore.DEClash.Weighted>
0.2204

> <Gold.Chemscore.DEInternal.Weighted>
1.9727

> <Gold.Chemscore.Rot.Weighted>
5.8612

> <Gold.Chemscore.Internal.Correction.Weighted>
   9.000000E+99

> <Gold.Protein.RotatedTorsions>
[ 6907 6896 6895 6894 ] final  162.44 input  -60.11 | X-H torsion
[ 7974 7965 7964 7962 ] final  135.23 input  175.53 | X-H torsion
[ 8008 7997 7996 7995 ] final   49.54 input   59.86 | X-H torsion
[ 10167 10162 10161 10158 ] final -171.44 input  -65.29 | X-H torsion
[ 10718 10713 10712 10709 ] final  149.87 input   66.30 | X-H torsion
[ 10763 10752 10751 10750 ] final   71.10 input  -60.55 | X-H torsion
[ 11005 11000 10999 10996 ] final  -45.45 input  -57.11 | X-H torsion

> <Gold.Protein.ActiveResidues>
 VAL166  LYS551  ARG553  GLY616  TRP617  ASP618  TYR619  PRO620  LYS621  CYS622 
 ASP623  PHE694  ASN695  SER759  ASP760  ASP761  ALA762  ILE779  LEU786  VAL792 
 PHE793  MET794  SER795  GLU796  ALA797  LYS798  CYS799  TRP800  GLU811  SER814 

> <Gold.Protein.RotatedAtoms>
  151.9404  133.3636  159.3962 H   0  0  0  0  0  0  0  0  0  0  0  0  # atno 6907 bound_to 6896
  150.6999  134.4445  159.5317 H   0  0  0  0  0  0  0  0  0  0  0  0  # atno 6908 bound_to 6896
  152.2101  134.8509  160.0549 H   0  0  0  0  0  0  0  0  0  0  0  0  # atno 6909 bound_to 6896
  144.9684  139.4633  143.5445 H   0  0  0  0  0  0  0  0  0  0  0  0  # atno 7974 bound_to 7965
  155.4039  140.3439  155.4259 H   0  0  0  0  0  0  0  0  0  0  0  0  # atno 8008 bound_to 7997
  156.1488  140.1564  156.8836 H   0  0  0  0  0  0  0  0  0  0  0  0  # atno 8009 bound_to 7997
  154.5034  140.0809  156.7825 H   0  0  0  0  0  0  0  0  0  0  0  0  # atno 8010 bound_to 7997
  139.5802  144.1441  152.1505 H   0  0  0  0  0  0  0  0  0  0  0  0  # atno 10167 bound_to 10162
  157.2906  131.0852  151.1464 H   0  0  0  0  0  0  0  0  0  0  0  0  # atno 10718 bound_to 10713
  153.0379  135.5149  154.7541 H   0  0  0  0  0  0  0  0  0  0  0  0  # atno 10763 bound_to 10752
  154.6503  135.2924  154.9998 H   0  0  0  0  0  0  0  0  0  0  0  0  # atno 10764 bound_to 10752
  154.0884  135.6654  153.4901 H   0  0  0  0  0  0  0  0  0  0  0  0  # atno 10765 bound_to 10752
  141.0516  133.6741  156.3015 H   0  0  0  0  0  0  0  0  0  0  0  0  # atno 11005 bound_to 11000
  146.3374  139.8880  142.8813 LP  0  0  0  0  0  0  0  0  0  0  0  0  # atno 17320 bound_to 7965
  145.2596  141.0072  143.3834 LP  0  0  0  0  0  0  0  0  0  0  0  0  # atno 17321 bound_to 7965
  140.0992  144.5554  150.7000 LP  0  0  0  0  0  0  0  0  0  0  0  0  # atno 17342 bound_to 10162
  140.7081  143.2483  151.4665 LP  0  0  0  0  0  0  0  0  0  0  0  0  # atno 17343 bound_to 10162
  157.2862  130.6774  149.6091 LP  0  0  0  0  0  0  0  0  0  0  0  0  # atno 17370 bound_to 10713
  155.9667  130.4434  150.5422 LP  0  0  0  0  0  0  0  0  0  0  0  0  # atno 17371 bound_to 10713
  140.6044  134.5522  157.5523 LP  0  0  0  0  0  0  0  0  0  0  0  0  # atno 17394 bound_to 11000
  139.9355  134.7883  156.0814 LP  0  0  0  0  0  0  0  0  0  0  0  0  # atno 17395 bound_to 11000

$$$$
