AV-unprocessed.smi:2302|AV-procd|sdf|9236|dock4
  -GOLD-   2272012453D 1   1.00000     0.00000
 Structure written by MMmdl.
 40 41  0  0  0  0  0  0  0  0  2 V2000
  153.5686  141.0298  159.9760 C   0  0  0  0  0  0  0  0  0  0  0  0
  152.8135  142.2301  159.4453 C   0  0  0  0  0  0  0  0  0  0  0  0
  152.9494  143.4966  160.0472 C   0  0  0  0  0  0  0  0  0  0  0  0
  152.2223  144.5703  159.5029 C   0  0  0  0  0  0  0  0  0  0  0  0
  151.3954  144.3354  158.3875 C   0  0  0  0  0  0  0  0  0  0  0  0
  151.3146  143.0337  157.8440 C   0  0  0  0  0  0  0  0  0  0  0  0
  150.4540  142.9021  156.7217 N   0  0  0  0  0  0  0  0  0  0  0  0
  150.1657  141.7908  156.0219 C   0  0  0  0  0  0  0  0  0  0  0  0
  150.6148  140.6668  156.2490 O   0  0  0  0  0  0  0  0  0  0  0  0
  149.3076  142.0516  155.0253 N   0  0  0  0  0  0  0  0  0  0  0  0
  148.7998  141.0631  154.0801 C   0  0  0  0  0  0  0  0  0  0  0  0
  147.2906  140.8172  154.2571 C   0  0  2  0  0  0  0  0  0  0  0  0
  146.5284  142.1228  154.5564 C   0  0  0  0  0  0  0  0  0  0  0  0
  145.0933  141.8427  154.7904 N   0  3  2  0  0  0  0  0  0  0  0  0
  144.3058  143.0697  155.0357 C   0  0  0  0  0  0  0  0  0  0  0  0
  144.9203  140.8296  155.8562 C   0  0  0  0  0  0  0  0  0  0  0  0
  145.7377  139.5684  155.5312 C   0  0  0  0  0  0  0  0  0  0  0  0
  147.1038  139.9211  155.3492 O   0  0  0  0  0  0  0  0  0  0  0  0
  152.0193  142.0042  158.3765 N   0  0  0  0  0  0  0  0  0  0  0  0
  154.1791  141.2960  160.8392 H   0  0  0  0  0  0  0  0  0  0  0  0
  154.2261  140.6257  159.2057 H   0  0  0  0  0  0  0  0  0  0  0  0
  152.8723  140.2477  160.2796 H   0  0  0  0  0  0  0  0  0  0  0  0
  153.5928  143.6449  160.9019 H   0  0  0  0  0  0  0  0  0  0  0  0
  152.2973  145.5581  159.9327 H   0  0  0  0  0  0  0  0  0  0  0  0
  150.8313  145.1504  157.9575 H   0  0  0  0  0  0  0  0  0  0  0  0
  150.0079  143.7540  156.4158 H   0  0  0  0  0  0  0  0  0  0  0  0
  148.9846  143.0013  154.9090 H   0  0  0  0  0  0  0  0  0  0  0  0
  149.0057  141.4165  153.0694 H   0  0  0  0  0  0  0  0  0  0  0  0
  149.3528  140.1298  154.1994 H   0  0  0  0  0  0  0  0  0  0  0  0
  146.8872  140.3687  153.3472 H   0  0  0  0  0  0  0  0  0  0  0  0
  146.9522  142.6145  155.4336 H   0  0  0  0  0  0  0  0  0  0  0  0
  146.6320  142.8142  153.7190 H   0  0  0  0  0  0  0  0  0  0  0  0
  144.6397  143.5754  155.9428 H   0  0  0  0  0  0  0  0  0  0  0  0
  143.2472  142.8324  155.1457 H   0  0  0  0  0  0  0  0  0  0  0  0
  144.4063  143.7636  154.2004 H   0  0  0  0  0  0  0  0  0  0  0  0
  145.2409  141.2450  156.8132 H   0  0  0  0  0  0  0  0  0  0  0  0
  143.8645  140.5735  155.9543 H   0  0  0  0  0  0  0  0  0  0  0  0
  145.6637  138.8511  156.3486 H   0  0  0  0  0  0  0  0  0  0  0  0
  145.3549  139.0731  154.6373 H   0  0  0  0  0  0  0  0  0  0  0  0
  144.7350  141.4327  153.9394 H   0  0  0  0  0  0  0  0  0  0  0  0
  1  2  1  0  0  0  0
  1 20  1  0  0  0  0
  1 21  1  0  0  0  0
  1 22  1  0  0  0  0
  2 19  1  0  0  0  0
  2  3  2  0  0  0  0
  3  4  1  0  0  0  0
  3 23  1  0  0  0  0
  4  5  2  0  0  0  0
  4 24  1  0  0  0  0
  5  6  1  0  0  0  0
  5 25  1  0  0  0  0
  6  7  1  0  0  0  0
  6 19  2  0  0  0  0
  7  8  1  0  0  0  0
  7 26  1  0  0  0  0
  8  9  2  0  0  0  0
  8 10  1  0  0  0  0
 10 11  1  0  0  0  0
 10 27  1  0  0  0  0
 11 12  1  0  0  0  0
 11 28  1  0  0  0  0
 11 29  1  0  0  0  0
 12 18  1  0  0  0  0
 12 13  1  0  0  0  0
 12 30  1  0  0  0  0
 13 14  1  0  0  0  0
 13 31  1  0  0  0  0
 13 32  1  0  0  0  0
 14 15  1  0  0  0  0
 14 16  1  0  0  0  0
 14 40  1  0  0  0  0
 15 33  1  0  0  0  0
 15 34  1  0  0  0  0
 15 35  1  0  0  0  0
 16 17  1  0  0  0  0
 16 36  1  0  0  0  0
 16 37  1  0  0  0  0
 17 18  1  0  0  0  0
 17 38  1  0  0  0  0
 17 39  1  0  0  0  0
M  CHG  1  14   1
M  END
> <s_m_source_file>
AV-unprocessed.smi

> <i_m_source_file_index>
2302

> <i_lp_mmshare_version>
43012

> <i_f3d_flags>
0

> <s_epik_input>
W0NIM11jMVtjSF1bY0hdW2NIXWMobjEpW05IXUMoPU8pW05IXVtDSDJdW0NAQEhdMltDSDJdTihbQ0gzXSlbQ0gyXVtDSDJdTzI=

> <s_epik_cmdline>
J2VwaWtfcHl0aG9uJywgJy1waCcsICc3LjAnLCAnLXRuJywgJzgnLCAnLW1hJywgJzIwMCcsICctbWV0YWxfYmluZGluZycsICctaW1hZScsICc8aW5maWxlLm1hZT4nLCAnLW9tYWUnLCAnPG91dGZpbGUubWFlPic=

> <r_epik_Ionization_Penalty>
0.204647

> <r_epik_Ionization_Penalty_Charging>
0.204578

> <r_epik_Ionization_Penalty_Neutral>
6.91954e-05

> <r_epik_State_Penalty>
0.194513

> <r_epik_Charging_Adjusted_Penalty>
0.399091

> <i_epik_Tot_Q>
1

> <i_epik_Tot_abs_Q>
1

> <r_epik_Metal_State_Penalty>
0.194515

> <b_epik_Metal_Only>
0

> <s_lp_Force_Field>
OPLS_2005

> <r_lp_Energy>
15.472

> <b_lp_Chiralities_Consistent>
1

> <s_lp_Variant>
AV-unprocessed.smi:2302-1

> <Gold.Version>
5.8.1

> <Gold.Id.Protein>
6NUR|6NUR_protein|mol2

> <Gold.PLP.Fitness>
49.9121

> <Gold.PLP.PLP>
-38.5304

> <Gold.PLP.part.hbond>
-3.0000

> <Gold.PLP.part.metal>
0.0000

> <Gold.PLP.part.buried>
-5.7815

> <Gold.PLP.part.nonpolar>
-31.6493

> <Gold.PLP.part.repulsive>
0.3133

> <Gold.PLP.ligand.clash>
0.0000

> <Gold.PLP.ligand.torsion>
0.2259

> <Gold.PLP.Chemscore.Hbond>
3.9440

> <Gold.PLP.Chemscore.CHOScore>
0.0000

> <Gold.PLP.Chemscore.Metal>
0.0000

> <Gold.Chemscore.Hbonds>
donor molecule, donor type, donor heavy atom, donor atom, acceptor molecule, acceptor atom, score
      L1  H     7    26       P1  8028  1.00
      L1  H    10    27       P1  8028  0.94
      L1  H    14    40       P1 10175  2.00

> <Gold.PLP.Chemscore.Internal.Correction>
0.0014

> <Gold.Rescore>
     Score         DG    S(hbond)    S(metal)    S(lipo)     H(rot)  DE(clash)    DE(int)     intcor
     19.67     -21.13       2.78        0.00      82.35       1.27       0.04       1.43       ----

> <Gold.Chemscore.Fitness>
19.6663

> <Gold.Chemscore.DG>
-21.1320

> <Gold.Chemscore.ZeroCoef>
-5.4800

> <Gold.Chemscore.Hbond>
2.7776

> <Gold.Chemscore.Metal>
0.0000

> <Gold.Chemscore.Lipo>
82.3521

> <Gold.Chemscore.Internal_Hbond>
0.0000

> <Gold.Chemscore.DEClash>
0.0398

> <Gold.Chemscore.DEInternal>
1.4258

> <Gold.Chemscore.Rot>
1.2736

> <Gold.Chemscore.Internal.Correction>
   9.000000E+99

> <Gold.Chemscore.Hbonds>
donor molecule, donor type, donor heavy atom, donor atom, acceptor molecule, acceptor atom, score
      L1  H     7    26       P1  8028  0.99
      L1  H    10    27       P1  8028  0.92
      L1  H    14    40       P1 10175  0.28

> <Gold.Chemscore.Hbond.Weighted>
-9.2771

> <Gold.Chemscore.Metal.Weighted>
-0.0000

> <Gold.Chemscore.Lipo.Weighted>
-9.6352

> <Gold.Chemscore.Internal_Hbond.Weighted>
0.0000

> <Gold.Chemscore.DEClash.Weighted>
0.0398

> <Gold.Chemscore.DEInternal.Weighted>
1.4258

> <Gold.Chemscore.Rot.Weighted>
3.2603

> <Gold.Chemscore.Internal.Correction.Weighted>
   9.000000E+99

> <Gold.Protein.RotatedTorsions>
[ 6907 6896 6895 6894 ] final  -24.03 input  -60.11 | X-H torsion
[ 7974 7965 7964 7962 ] final  -91.80 input  175.53 | X-H torsion
[ 8008 7997 7996 7995 ] final   33.95 input   59.86 | X-H torsion
[ 10167 10162 10161 10158 ] final  120.39 input  -65.29 | X-H torsion
[ 10718 10713 10712 10709 ] final  141.62 input   66.30 | X-H torsion
[ 10763 10752 10751 10750 ] final  -45.02 input  -60.55 | X-H torsion
[ 11005 11000 10999 10996 ] final  -68.66 input  -57.11 | X-H torsion

> <Gold.Protein.ActiveResidues>
 VAL166  LYS551  ARG553  GLY616  TRP617  ASP618  TYR619  PRO620  LYS621  CYS622 
 ASP623  PHE694  ASN695  SER759  ASP760  ASP761  ALA762  ILE779  LEU786  VAL792 
 PHE793  MET794  SER795  GLU796  ALA797  LYS798  CYS799  TRP800  GLU811  SER814 

> <Gold.Protein.RotatedAtoms>
  151.1954  135.0420  159.8849 H   0  0  0  0  0  0  0  0  0  0  0  0  # atno 6907 bound_to 6896
  152.5436  134.0909  159.8286 H   0  0  0  0  0  0  0  0  0  0  0  0  # atno 6908 bound_to 6896
  151.1043  133.5173  159.2640 H   0  0  0  0  0  0  0  0  0  0  0  0  # atno 6909 bound_to 6896
  145.4083  140.9543  143.2248 H   0  0  0  0  0  0  0  0  0  0  0  0  # atno 7974 bound_to 7965
  155.1468  140.3271  155.4440 H   0  0  0  0  0  0  0  0  0  0  0  0  # atno 8008 bound_to 7997
  156.2587  140.1984  156.6532 H   0  0  0  0  0  0  0  0  0  0  0  0  # atno 8009 bound_to 7997
  154.6502  140.0559  156.9933 H   0  0  0  0  0  0  0  0  0  0  0  0  # atno 8010 bound_to 7997
  139.5985  144.7049  151.3118 H   0  0  0  0  0  0  0  0  0  0  0  0  # atno 10167 bound_to 10162
  157.3900  131.1003  151.0656 H   0  0  0  0  0  0  0  0  0  0  0  0  # atno 10718 bound_to 10713
  154.0216  135.6668  153.4773 H   0  0  0  0  0  0  0  0  0  0  0  0  # atno 10763 bound_to 10752
  153.0577  135.5046  154.8017 H   0  0  0  0  0  0  0  0  0  0  0  0  # atno 10764 bound_to 10752
  154.6933  135.3065  154.9412 H   0  0  0  0  0  0  0  0  0  0  0  0  # atno 10765 bound_to 10752
  141.1537  133.6746  156.6479 H   0  0  0  0  0  0  0  0  0  0  0  0  # atno 11005 bound_to 11000
  144.8326  139.5603  143.6937 LP  0  0  0  0  0  0  0  0  0  0  0  0  # atno 17320 bound_to 7965
  146.2717  139.6653  142.9291 LP  0  0  0  0  0  0  0  0  0  0  0  0  # atno 17321 bound_to 7965
  140.7231  143.7080  150.7792 LP  0  0  0  0  0  0  0  0  0  0  0  0  # atno 17342 bound_to 10162
  140.0651  143.5116  152.2608 LP  0  0  0  0  0  0  0  0  0  0  0  0  # atno 17343 bound_to 10162
  157.1693  130.6260  149.5635 LP  0  0  0  0  0  0  0  0  0  0  0  0  # atno 17370 bound_to 10713
  155.9796  130.4790  150.6723 LP  0  0  0  0  0  0  0  0  0  0  0  0  # atno 17371 bound_to 10713
  140.3343  134.7903  157.4349 LP  0  0  0  0  0  0  0  0  0  0  0  0  # atno 17394 bound_to 11000
  140.0991  134.5497  155.8370 LP  0  0  0  0  0  0  0  0  0  0  0  0  # atno 17395 bound_to 11000

$$$$
