AV-unprocessed.smi:1054|AV-procd|sdf|4623|dock4
  -GOLD-   22720 3123D 1   1.00000     0.00000
 Structure written by MMmdl.
 35 36  0  0  0  0  0  0  0  0  1 V2000
  150.4321  137.6202  159.6412 O   0  0  0  0  0  0  0  0  0  0  0  0
  149.7959  136.9413  158.8350 C   0  0  0  0  0  0  0  0  0  0  0  0
  148.7880  136.1090  159.1500 N   0  0  0  0  0  0  0  0  0  0  0  0
  148.2467  135.8286  160.4330 C   0  0  0  0  0  0  0  0  0  0  0  0
  147.6772  134.5427  160.5731 C   0  0  0  0  0  0  0  0  0  0  0  0
  147.1127  134.1652  161.8069 C   0  0  0  0  0  0  0  0  0  0  0  0
  147.1321  135.0847  162.8706 C   0  0  0  0  0  0  0  0  0  0  0  0
  147.7191  136.3437  162.6480 C   0  0  0  0  0  0  0  0  0  0  0  0
  148.2604  136.7078  161.4661 N   0  0  0  0  0  0  0  0  0  0  0  0
  150.0249  136.9361  157.5105 N   0  0  0  0  0  0  0  0  0  0  0  0
  151.0450  137.6788  156.7545 C   0  0  0  0  0  0  0  0  0  0  0  0
  152.4695  137.2420  157.1996 C   0  0  0  0  0  0  0  0  0  0  0  0
  152.7593  135.9114  156.8183 O   0  0  0  0  0  0  0  0  0  0  0  0
  150.7940  137.3837  155.2547 C   0  0  0  0  0  0  0  0  0  0  0  0
  151.5682  138.3294  154.3206 C   0  0  0  0  0  0  0  0  0  0  0  0
  151.2341  139.6788  154.6135 O   0  0  0  0  0  0  0  0  0  0  0  0
  151.6007  140.0568  155.9333 C   0  0  0  0  0  0  0  0  0  0  0  0
  150.8400  139.2026  156.9636 C   0  0  0  0  0  0  0  0  0  0  0  0
  148.3595  135.6150  158.3818 H   0  0  0  0  0  0  0  0  0  0  0  0
  147.6707  133.8486  159.7452 H   0  0  0  0  0  0  0  0  0  0  0  0
  146.6723  133.1873  161.9335 H   0  0  0  0  0  0  0  0  0  0  0  0
  146.7085  134.8321  163.8315 H   0  0  0  0  0  0  0  0  0  0  0  0
  147.7551  137.0783  163.4389 H   0  0  0  0  0  0  0  0  0  0  0  0
  149.4365  136.3328  156.9550 H   0  0  0  0  0  0  0  0  0  0  0  0
  153.2322  137.8839  156.7607 H   0  0  0  0  0  0  0  0  0  0  0  0
  152.5929  137.3274  158.2791 H   0  0  0  0  0  0  0  0  0  0  0  0
  152.3349  135.3264  157.4270 H   0  0  0  0  0  0  0  0  0  0  0  0
  151.0314  136.3472  155.0132 H   0  0  0  0  0  0  0  0  0  0  0  0
  149.7308  137.5003  155.0376 H   0  0  0  0  0  0  0  0  0  0  0  0
  152.6451  138.1784  154.4032 H   0  0  0  0  0  0  0  0  0  0  0  0
  151.3028  138.1241  153.2835 H   0  0  0  0  0  0  0  0  0  0  0  0
  152.6798  139.9689  156.0634 H   0  0  0  0  0  0  0  0  0  0  0  0
  151.3561  141.1098  156.0737 H   0  0  0  0  0  0  0  0  0  0  0  0
  149.7784  139.4410  156.8796 H   0  0  0  0  0  0  0  0  0  0  0  0
  151.1390  139.5031  157.9678 H   0  0  0  0  0  0  0  0  0  0  0  0
  1  2  2  0  0  0  0
  2  3  1  0  0  0  0
  2 10  1  0  0  0  0
  3  4  1  0  0  0  0
  3 19  1  0  0  0  0
  4  9  1  0  0  0  0
  4  5  2  0  0  0  0
  5  6  1  0  0  0  0
  5 20  1  0  0  0  0
  6  7  2  0  0  0  0
  6 21  1  0  0  0  0
  7  8  1  0  0  0  0
  7 22  1  0  0  0  0
  8  9  2  0  0  0  0
  8 23  1  0  0  0  0
 10 11  1  0  0  0  0
 10 24  1  0  0  0  0
 11 18  1  0  0  0  0
 11 12  1  0  0  0  0
 11 14  1  0  0  0  0
 12 13  1  0  0  0  0
 12 25  1  0  0  0  0
 12 26  1  0  0  0  0
 13 27  1  0  0  0  0
 14 15  1  0  0  0  0
 14 28  1  0  0  0  0
 14 29  1  0  0  0  0
 15 16  1  0  0  0  0
 15 30  1  0  0  0  0
 15 31  1  0  0  0  0
 16 17  1  0  0  0  0
 17 18  1  0  0  0  0
 17 32  1  0  0  0  0
 17 33  1  0  0  0  0
 18 34  1  0  0  0  0
 18 35  1  0  0  0  0
M  END
> <s_m_source_file>
AV-unprocessed.smi

> <i_m_source_file_index>
1054

> <i_lp_mmshare_version>
43012

> <i_f3d_flags>
0

> <s_epik_input>
W0NIMl0xW0NIMl1PW0NIMl1bQ0gyXUMxKFtDSDJdW09IXSlbTkhdQyg9TylbTkhdYzJbY0hdW2NIXVtjSF1bY0hdbjI=

> <s_epik_cmdline>
J2VwaWtfcHl0aG9uJywgJy1waCcsICc3LjAnLCAnLXRuJywgJzgnLCAnLW1hJywgJzIwMCcsICctbWV0YWxfYmluZGluZycsICctaW1hZScsICc8aW5maWxlLm1hZT4nLCAnLW9tYWUnLCAnPG91dGZpbGUubWFlPic=

> <r_lp_tautomer_probability>
1

> <r_epik_Ionization_Penalty>
4.33411e-05

> <r_epik_Ionization_Penalty_Charging>
0

> <r_epik_Ionization_Penalty_Neutral>
4.33411e-05

> <r_epik_State_Penalty>
-0

> <r_epik_Charging_Adjusted_Penalty>
0

> <i_epik_Tot_Q>
0

> <i_epik_Tot_abs_Q>
0

> <r_epik_Metal_State_Penalty>
-0

> <b_epik_Metal_Only>
0

> <s_lp_Force_Field>
OPLS_2005

> <r_lp_Energy>
17.545

> <b_lp_Chiralities_Consistent>
1

> <s_lp_Variant>
AV-unprocessed.smi:1054-1

> <Gold.Version>
5.8.1

> <Gold.Id.Protein>
6NUR|6NUR_protein|mol2

> <Gold.PLP.Fitness>
41.1095

> <Gold.PLP.PLP>
-32.5790

> <Gold.PLP.part.hbond>
-4.0000

> <Gold.PLP.part.metal>
0.0000

> <Gold.PLP.part.buried>
-6.1033

> <Gold.PLP.part.nonpolar>
-23.4065

> <Gold.PLP.part.repulsive>
0.2835

> <Gold.PLP.ligand.clash>
0.0000

> <Gold.PLP.ligand.torsion>
0.2407

> <Gold.PLP.Chemscore.Hbond>
3.0000

> <Gold.PLP.Chemscore.CHOScore>
0.0000

> <Gold.PLP.Chemscore.Metal>
0.0000

> <Gold.Chemscore.Hbonds>
donor molecule, donor type, donor heavy atom, donor atom, acceptor molecule, acceptor atom, score
      P1  H  6931  6943       L1     9  1.00
      P1  H  7989  7998       L1    16  1.00
      P1  H 10752 10763       L1    13  1.00

> <Gold.PLP.Chemscore.Internal.Correction>
0.0120

> <Gold.Rescore>
     Score         DG    S(hbond)    S(metal)    S(lipo)     H(rot)  DE(clash)    DE(int)     intcor
     16.11     -17.28       2.61        0.00      67.36       1.88       0.01       1.16       ----

> <Gold.Chemscore.Fitness>
16.1113

> <Gold.Chemscore.DG>
-17.2764

> <Gold.Chemscore.ZeroCoef>
-5.4800

> <Gold.Chemscore.Hbond>
2.6107

> <Gold.Chemscore.Metal>
0.0000

> <Gold.Chemscore.Lipo>
67.3634

> <Gold.Chemscore.Internal_Hbond>
0.0000

> <Gold.Chemscore.DEClash>
0.0089

> <Gold.Chemscore.DEInternal>
1.1562

> <Gold.Chemscore.Rot>
1.8769

> <Gold.Chemscore.Internal.Correction>
   9.000000E+99

> <Gold.Chemscore.Hbonds>
donor molecule, donor type, donor heavy atom, donor atom, acceptor molecule, acceptor atom, score
      P1  H  6931  6943       L1     9  0.30
      P1  H  7989  7998       L1    16  0.79
      P1  H 10752 10763       L1    13  0.99

> <Gold.Chemscore.Hbond.Weighted>
-8.7197

> <Gold.Chemscore.Metal.Weighted>
-0.0000

> <Gold.Chemscore.Lipo.Weighted>
-7.8815

> <Gold.Chemscore.Internal_Hbond.Weighted>
0.0000

> <Gold.Chemscore.DEClash.Weighted>
0.0089

> <Gold.Chemscore.DEInternal.Weighted>
1.1562

> <Gold.Chemscore.Rot.Weighted>
4.8048

> <Gold.Chemscore.Internal.Correction.Weighted>
   9.000000E+99

> <Gold.Protein.RotatedTorsions>
[ 6907 6896 6895 6894 ] final   58.34 input  -60.11 | X-H torsion
[ 7974 7965 7964 7962 ] final  -89.11 input  175.53 | X-H torsion
[ 8008 7997 7996 7995 ] final   42.42 input   59.86 | X-H torsion
[ 10167 10162 10161 10158 ] final  -57.18 input  -65.29 | X-H torsion
[ 10718 10713 10712 10709 ] final   10.90 input   66.30 | X-H torsion
[ 10763 10752 10751 10750 ] final  114.15 input  -60.55 | X-H torsion
[ 11005 11000 10999 10996 ] final -132.45 input  -57.11 | X-H torsion

> <Gold.Protein.ActiveResidues>
 VAL166  LYS551  ARG553  GLY616  TRP617  ASP618  TYR619  PRO620  LYS621  CYS622 
 ASP623  PHE694  ASN695  SER759  ASP760  ASP761  ALA762  ILE779  LEU786  VAL792 
 PHE793  MET794  SER795  GLU796  ALA797  LYS798  CYS799  TRP800  GLU811  SER814 

> <Gold.Protein.RotatedAtoms>
  152.3815  134.6582  160.0140 H   0  0  0  0  0  0  0  0  0  0  0  0  # atno 6907 bound_to 6896
  151.6844  133.3306  159.3235 H   0  0  0  0  0  0  0  0  0  0  0  0  # atno 6908 bound_to 6896
  150.7751  134.6689  159.6425 H   0  0  0  0  0  0  0  0  0  0  0  0  # atno 6909 bound_to 6896
  145.4441  140.9559  143.2058 H   0  0  0  0  0  0  0  0  0  0  0  0  # atno 7974 bound_to 7965
  155.2859  140.3375  155.4255 H   0  0  0  0  0  0  0  0  0  0  0  0  # atno 8008 bound_to 7997
  156.2068  140.1754  156.7822 H   0  0  0  0  0  0  0  0  0  0  0  0  # atno 8009 bound_to 7997
  154.5632  140.0683  156.8835 H   0  0  0  0  0  0  0  0  0  0  0  0  # atno 8010 bound_to 7997
  140.6273  143.2444  151.5330 H   0  0  0  0  0  0  0  0  0  0  0  0  # atno 10167 bound_to 10162
  156.9878  130.6030  149.5683 H   0  0  0  0  0  0  0  0  0  0  0  0  # atno 10718 bound_to 10713
  153.5030  135.3634  155.2549 H   0  0  0  0  0  0  0  0  0  0  0  0  # atno 10763 bound_to 10752
  154.8746  135.4004  154.3456 H   0  0  0  0  0  0  0  0  0  0  0  0  # atno 10764 bound_to 10752
  153.4095  135.7077  153.6435 H   0  0  0  0  0  0  0  0  0  0  0  0  # atno 10765 bound_to 10752
  140.9169  134.1494  157.4345 H   0  0  0  0  0  0  0  0  0  0  0  0  # atno 11005 bound_to 11000
  144.8103  139.5975  143.7032 LP  0  0  0  0  0  0  0  0  0  0  0  0  # atno 17320 bound_to 7965
  146.2540  139.6262  142.9407 LP  0  0  0  0  0  0  0  0  0  0  0  0  # atno 17321 bound_to 7965
  139.5492  144.2441  152.1499 LP  0  0  0  0  0  0  0  0  0  0  0  0  # atno 17342 bound_to 10162
  140.1675  144.4967  150.6598 LP  0  0  0  0  0  0  0  0  0  0  0  0  # atno 17343 bound_to 10162
  156.0219  130.5314  150.8299 LP  0  0  0  0  0  0  0  0  0  0  0  0  # atno 17370 bound_to 10713
  157.5480  131.0943  150.9735 LP  0  0  0  0  0  0  0  0  0  0  0  0  # atno 17371 bound_to 10713
  139.8768  134.9957  156.5757 LP  0  0  0  0  0  0  0  0  0  0  0  0  # atno 17394 bound_to 11000
  140.8038  133.8484  155.8749 LP  0  0  0  0  0  0  0  0  0  0  0  0  # atno 17395 bound_to 11000

$$$$
