AV-unprocessed.smi:1552|AV-procd|sdf|6235|dock7
  -GOLD-   22720 6413D 1   1.00000     0.00000
 Structure written by MMmdl.
 50 51  0  0  0  0  0  0  0  0  2 V2000
  148.9993  141.3239  155.7732 C   0  0  0  0  0  0  0  0  0  0  0  0
  149.6381  140.1743  156.4614 N   0  3  0  0  0  0  0  0  0  0  0  0
  150.7628  139.6295  155.6663 C   0  0  0  0  0  0  0  0  0  0  0  0
  149.9907  140.3764  157.9028 C   0  0  1  0  0  0  0  0  0  0  0  0
  150.1814  139.0518  158.6865 C   0  0  0  0  0  0  0  0  0  0  0  0
  148.9501  138.2714  158.7300 N   0  0  0  0  0  0  0  0  0  0  0  0
  148.7552  137.0725  159.3041 C   0  0  0  0  0  0  0  0  0  0  0  0
  149.6731  136.5164  159.9032 O   0  0  0  0  0  0  0  0  0  0  0  0
  147.3728  136.3941  159.2486 C   0  0  0  0  0  0  0  0  0  0  0  0
  146.8087  136.2166  160.5933 N   0  0  0  0  0  0  0  0  0  0  0  0
  146.4095  134.9538  161.0082 C   0  0  0  0  0  0  0  0  0  0  0  0
  145.8932  134.6982  162.2334 C   0  0  0  0  0  0  0  0  0  0  0  0
  145.7287  135.7745  163.2041 C   0  0  0  0  0  0  0  0  0  0  0  0
  145.2696  135.6439  164.3365 O   0  0  0  0  0  0  0  0  0  0  0  0
  146.1444  137.0295  162.7518 N   0  0  0  0  0  0  0  0  0  0  0  0
  146.6793  137.2996  161.4911 C   0  0  0  0  0  0  0  0  0  0  0  0
  147.0191  138.4453  161.1988 O   0  0  0  0  0  0  0  0  0  0  0  0
  151.1550  141.3960  158.0742 C   0  0  0  0  0  0  0  0  0  0  0  0
  151.7529  141.3731  159.4987 C   0  0  0  0  0  0  0  0  0  0  0  0
  152.9842  142.2881  159.6083 C   0  0  0  0  0  0  0  0  0  0  0  0
  152.6556  143.7254  159.1749 C   0  0  0  0  0  0  0  0  0  0  0  0
  152.0570  143.7554  157.7603 C   0  0  0  0  0  0  0  0  0  0  0  0
  150.8211  142.8473  157.6606 C   0  0  0  0  0  0  0  0  0  0  0  0
  146.0529  137.8060  163.3907 H   0  0  0  0  0  0  0  0  0  0  0  0
  149.7123  142.1304  155.5984 H   0  0  0  0  0  0  0  0  0  0  0  0
  148.1623  141.7283  156.3394 H   0  0  0  0  0  0  0  0  0  0  0  0
  148.6119  141.0108  154.8031 H   0  0  0  0  0  0  0  0  0  0  0  0
  151.5948  140.3340  155.6321 H   0  0  0  0  0  0  0  0  0  0  0  0
  150.4484  139.4220  154.6429 H   0  0  0  0  0  0  0  0  0  0  0  0
  151.1222  138.6922  156.0928 H   0  0  0  0  0  0  0  0  0  0  0  0
  149.1329  140.8638  158.3703 H   0  0  0  0  0  0  0  0  0  0  0  0
  150.9589  138.4460  158.2193 H   0  0  0  0  0  0  0  0  0  0  0  0
  150.5004  139.2620  159.7070 H   0  0  0  0  0  0  0  0  0  0  0  0
  148.1396  138.7025  158.3088 H   0  0  0  0  0  0  0  0  0  0  0  0
  146.7226  137.0129  158.6282 H   0  0  0  0  0  0  0  0  0  0  0  0
  147.3845  135.4332  158.7365 H   0  0  0  0  0  0  0  0  0  0  0  0
  146.5172  134.1261  160.3215 H   0  0  0  0  0  0  0  0  0  0  0  0
  145.6012  133.6919  162.4971 H   0  0  0  0  0  0  0  0  0  0  0  0
  151.9591  141.0663  157.4151 H   0  0  0  0  0  0  0  0  0  0  0  0
  151.0057  141.6914  160.2266 H   0  0  0  0  0  0  0  0  0  0  0  0
  152.0353  140.3558  159.7714 H   0  0  0  0  0  0  0  0  0  0  0  0
  153.3594  142.2859  160.6319 H   0  0  0  0  0  0  0  0  0  0  0  0
  153.7883  141.8946  158.9849 H   0  0  0  0  0  0  0  0  0  0  0  0
  151.9510  144.1685  159.8798 H   0  0  0  0  0  0  0  0  0  0  0  0
  153.5559  144.3397  159.2110 H   0  0  0  0  0  0  0  0  0  0  0  0
  151.7893  144.7781  157.4925 H   0  0  0  0  0  0  0  0  0  0  0  0
  152.8078  143.4340  157.0372 H   0  0  0  0  0  0  0  0  0  0  0  0
  150.4382  142.8798  156.6408 H   0  0  0  0  0  0  0  0  0  0  0  0
  150.0418  143.2526  158.3053 H   0  0  0  0  0  0  0  0  0  0  0  0
  148.9450  139.4393  156.4652 H   0  0  0  0  0  0  0  0  0  0  0  0
  1  2  1  0  0  0  0
  1 25  1  0  0  0  0
  1 26  1  0  0  0  0
  1 27  1  0  0  0  0
  2  3  1  0  0  0  0
  2  4  1  0  0  0  0
  2 50  1  0  0  0  0
  3 28  1  0  0  0  0
  3 29  1  0  0  0  0
  3 30  1  0  0  0  0
  4  5  1  0  0  0  0
  4 18  1  0  0  0  0
  4 31  1  0  0  0  0
  5  6  1  0  0  0  0
  5 32  1  0  0  0  0
  5 33  1  0  0  0  0
  6  7  1  0  0  0  0
  6 34  1  0  0  0  0
  7  8  2  0  0  0  0
  7  9  1  0  0  0  0
  9 10  1  0  0  0  0
  9 35  1  0  0  0  0
  9 36  1  0  0  0  0
 10 16  1  0  0  0  0
 10 11  1  0  0  0  0
 11 12  2  0  0  0  0
 11 37  1  0  0  0  0
 12 13  1  0  0  0  0
 12 38  1  0  0  0  0
 13 14  2  0  0  0  0
 13 15  1  0  0  0  0
 15 24  1  0  0  0  0
 15 16  1  0  0  0  0
 16 17  2  0  0  0  0
 18 23  1  0  0  0  0
 18 19  1  0  0  0  0
 18 39  1  0  0  0  0
 19 20  1  0  0  0  0
 19 40  1  0  0  0  0
 19 41  1  0  0  0  0
 20 21  1  0  0  0  0
 20 42  1  0  0  0  0
 20 43  1  0  0  0  0
 21 22  1  0  0  0  0
 21 44  1  0  0  0  0
 21 45  1  0  0  0  0
 22 23  1  0  0  0  0
 22 46  1  0  0  0  0
 22 47  1  0  0  0  0
 23 48  1  0  0  0  0
 23 49  1  0  0  0  0
M  CHG  1   2   1
M  END
> <s_m_source_file>
AV-unprocessed.smi

> <i_m_source_file_index>
1552

> <i_lp_mmshare_version>
43012

> <i_f3d_flags>
0

> <s_epik_input>
W0NIMl0xW0NIMl1bQ0gyXVtDSDJdW0NIMl1bQ0hdMVtDQEhdKE4oW0NIM10pW0NIM10pW0NIMl1bTkhdQyg9TylbQ0gyXW4yW2NIXVtjSF1jKD1PKVtuSF1jMj1P

> <s_epik_cmdline>
J2VwaWtfcHl0aG9uJywgJy1waCcsICc3LjAnLCAnLXRuJywgJzgnLCAnLW1hJywgJzIwMCcsICctbWV0YWxfYmluZGluZycsICctaW1hZScsICc8aW5maWxlLm1hZT4nLCAnLW9tYWUnLCAnPG91dGZpbGUubWFlPic=

> <r_lp_tautomer_probability>
1

> <r_epik_Ionization_Penalty>
0.00705217

> <r_epik_Ionization_Penalty_Charging>
0.00705209

> <r_epik_Ionization_Penalty_Neutral>
7.66101e-08

> <r_epik_State_Penalty>
-0

> <r_epik_Charging_Adjusted_Penalty>
0.00705209

> <i_epik_Tot_Q>
1

> <i_epik_Tot_abs_Q>
1

> <r_epik_Metal_State_Penalty>
0.375122

> <b_epik_Metal_Only>
0

> <s_lp_Force_Field>
OPLS_2005

> <r_lp_Energy>
31.5593

> <b_lp_Chiralities_Consistent>
1

> <s_lp_Variant>
AV-unprocessed.smi:1552-2

> <Gold.Version>
5.8.1

> <Gold.Id.Protein>
6NUR|6NUR_protein|mol2

> <Gold.PLP.Fitness>
46.3117

> <Gold.PLP.PLP>
-39.2482

> <Gold.PLP.part.hbond>
-3.4449

> <Gold.PLP.part.metal>
0.0000

> <Gold.PLP.part.buried>
-3.6937

> <Gold.PLP.part.nonpolar>
-33.7176

> <Gold.PLP.part.repulsive>
0.2875

> <Gold.PLP.ligand.clash>
0.0000

> <Gold.PLP.ligand.torsion>
0.4722

> <Gold.PLP.Chemscore.Hbond>
2.5288

> <Gold.PLP.Chemscore.CHOScore>
0.0000

> <Gold.PLP.Chemscore.Metal>
0.0000

> <Gold.Chemscore.Hbonds>
donor molecule, donor type, donor heavy atom, donor atom, acceptor molecule, acceptor atom, score
      P1  H  6896  6907       L1     8  0.96
      P1  H  6931  6943       L1    17  0.12

> <Gold.PLP.Chemscore.Internal.Correction>
0.4216

> <Gold.Rescore>
     Score         DG    S(hbond)    S(metal)    S(lipo)     H(rot)  DE(clash)    DE(int)     intcor
     15.01     -17.19       2.44        0.00      84.98       2.50       0.13       2.05       ----

> <Gold.Chemscore.Fitness>
15.0141

> <Gold.Chemscore.DG>
-17.1899

> <Gold.Chemscore.ZeroCoef>
-5.4800

> <Gold.Chemscore.Hbond>
2.4429

> <Gold.Chemscore.Metal>
0.0000

> <Gold.Chemscore.Lipo>
84.9755

> <Gold.Chemscore.Internal_Hbond>
0.0000

> <Gold.Chemscore.DEClash>
0.1268

> <Gold.Chemscore.DEInternal>
2.0490

> <Gold.Chemscore.Rot>
2.4968

> <Gold.Chemscore.Internal.Correction>
   9.000000E+99

> <Gold.Chemscore.Hbonds>
donor molecule, donor type, donor heavy atom, donor atom, acceptor molecule, acceptor atom, score
      P1  H  6896  6907       L1     8  0.88
      P1  H  6931  6943       L1    17  0.02

> <Gold.Chemscore.Hbond.Weighted>
-8.1594

> <Gold.Chemscore.Metal.Weighted>
-0.0000

> <Gold.Chemscore.Lipo.Weighted>
-9.9421

> <Gold.Chemscore.Internal_Hbond.Weighted>
0.0000

> <Gold.Chemscore.DEClash.Weighted>
0.1268

> <Gold.Chemscore.DEInternal.Weighted>
2.0490

> <Gold.Chemscore.Rot.Weighted>
6.3917

> <Gold.Chemscore.Internal.Correction.Weighted>
   9.000000E+99

> <Gold.Protein.RotatedTorsions>
[ 6907 6896 6895 6894 ] final  -24.05 input  -60.11 | X-H torsion
[ 7974 7965 7964 7962 ] final -154.36 input  175.53 | X-H torsion
[ 8008 7997 7996 7995 ] final  -41.25 input   59.86 | X-H torsion
[ 10167 10162 10161 10158 ] final   76.64 input  -65.29 | X-H torsion
[ 10718 10713 10712 10709 ] final  -39.40 input   66.30 | X-H torsion
[ 10763 10752 10751 10750 ] final -122.77 input  -60.55 | X-H torsion
[ 11005 11000 10999 10996 ] final   76.29 input  -57.11 | X-H torsion

> <Gold.Protein.ActiveResidues>
 VAL166  LYS551  ARG553  GLY616  TRP617  ASP618  TYR619  PRO620  LYS621  CYS622 
 ASP623  PHE694  ASN695  SER759  ASP760  ASP761  ALA762  ILE779  LEU786  VAL792 
 PHE793  MET794  SER795  GLU796  ALA797  LYS798  CYS799  TRP800  GLU811  SER814 

> <Gold.Protein.RotatedAtoms>
  151.1951  135.0419  159.8848 H   0  0  0  0  0  0  0  0  0  0  0  0  # atno 6907 bound_to 6896
  152.5437  134.0912  159.8288 H   0  0  0  0  0  0  0  0  0  0  0  0  # atno 6908 bound_to 6896
  151.1046  133.5171  159.2640 H   0  0  0  0  0  0  0  0  0  0  0  0  # atno 6909 bound_to 6896
  144.7693  140.4399  143.5918 H   0  0  0  0  0  0  0  0  0  0  0  0  # atno 7974 bound_to 7965
  154.4005  140.1504  156.3159 H   0  0  0  0  0  0  0  0  0  0  0  0  # atno 8008 bound_to 7997
  155.8573  140.3455  155.5711 H   0  0  0  0  0  0  0  0  0  0  0  0  # atno 8009 bound_to 7997
  155.7919  140.0858  157.1995 H   0  0  0  0  0  0  0  0  0  0  0  0  # atno 8010 bound_to 7997
  139.9901  144.5763  150.7825 H   0  0  0  0  0  0  0  0  0  0  0  0  # atno 10167 bound_to 10162
  156.2929  130.4230  149.8221 H   0  0  0  0  0  0  0  0  0  0  0  0  # atno 10718 bound_to 10713
  154.8696  135.4121  154.2836 H   0  0  0  0  0  0  0  0  0  0  0  0  # atno 10763 bound_to 10752
  153.3724  135.7008  153.6633 H   0  0  0  0  0  0  0  0  0  0  0  0  # atno 10764 bound_to 10752
  153.5489  135.3633  155.2723 H   0  0  0  0  0  0  0  0  0  0  0  0  # atno 10765 bound_to 10752
  139.9305  134.7588  156.1377 H   0  0  0  0  0  0  0  0  0  0  0  0  # atno 11005 bound_to 11000
  145.6372  139.1544  143.2936 LP  0  0  0  0  0  0  0  0  0  0  0  0  # atno 17320 bound_to 7965
  146.1827  140.6471  142.9181 LP  0  0  0  0  0  0  0  0  0  0  0  0  # atno 17321 bound_to 7965
  140.7458  143.2880  151.3408 LP  0  0  0  0  0  0  0  0  0  0  0  0  # atno 17342 bound_to 10162
  139.6346  144.0655  152.2505 LP  0  0  0  0  0  0  0  0  0  0  0  0  # atno 17343 bound_to 10162
  156.5627  130.8390  151.3333 LP  0  0  0  0  0  0  0  0  0  0  0  0  # atno 17370 bound_to 10713
  157.7347  130.9751  150.2044 LP  0  0  0  0  0  0  0  0  0  0  0  0  # atno 17371 bound_to 10713
  141.0890  133.6722  156.2500 LP  0  0  0  0  0  0  0  0  0  0  0  0  # atno 17394 bound_to 11000
  140.6215  134.5356  157.5548 LP  0  0  0  0  0  0  0  0  0  0  0  0  # atno 17395 bound_to 11000

$$$$
