AV-unprocessed.smi:1605|AV-procd|sdf|6457|dock9
  -GOLD-   22720 7113D 1   1.00000     0.00000
 Structure written by MMmdl.
 52 54  0  0  0  0  0  0  0  0  3 V2000
  143.8872  132.6414  151.2673 C   0  0  0  0  0  0  0  0  0  0  0  0
  144.5652  133.2476  152.3569 O   0  0  0  0  0  0  0  0  0  0  0  0
  145.9573  133.4525  152.1438 C   0  0  2  0  0  0  0  0  0  0  0  0
  146.4886  134.3220  153.2937 C   0  0  0  0  0  0  0  0  0  0  0  0
  145.9195  135.7509  153.2361 C   0  0  0  0  0  0  0  0  0  0  0  0
  146.1999  136.3922  151.9259 N   0  3  2  0  0  0  0  0  0  0  0  0
  145.7750  137.8156  151.8919 C   0  0  0  0  0  0  0  0  0  0  0  0
  146.4661  138.6652  152.9769 C   0  0  2  0  0  0  0  0  0  0  0  0
  145.5181  138.9712  153.9810 O   0  0  0  0  0  0  0  0  0  0  0  0
  147.0437  139.9719  152.3985 C   0  0  0  0  0  0  0  0  0  0  0  0
  147.6171  140.8479  153.4314 N   0  0  0  0  0  0  0  0  0  0  0  0
  147.2182  142.0840  153.8382 C   0  0  0  0  0  0  0  0  0  0  0  0
  148.0672  142.4869  154.8234 N   0  3  0  0  0  0  0  0  0  0  0  0
  149.0212  141.4932  155.0525 C   0  0  0  0  0  0  0  0  0  0  0  0
  150.0840  141.4419  155.9465 C   0  0  0  0  0  0  0  0  0  0  0  0
  150.8804  140.2747  155.9358 C   0  0  0  0  0  0  0  0  0  0  0  0
  152.0513  140.1868  156.9000 C   0  0  0  0  0  0  0  0  0  0  0  0
  150.5967  139.2060  155.0466 C   0  0  0  0  0  0  0  0  0  0  0  0
  151.4548  137.9522  155.0487 C   0  0  0  0  0  0  0  0  0  0  0  0
  149.5136  139.2796  154.1415 C   0  0  0  0  0  0  0  0  0  0  0  0
  148.7374  140.4364  154.1651 C   0  0  0  0  0  0  0  0  0  0  0  0
  145.6567  135.5901  150.7971 C   0  0  0  0  0  0  0  0  0  0  0  0
  146.2282  134.1621  150.8035 C   0  0  0  0  0  0  0  0  0  0  0  0
  142.8417  132.4870  151.5335 H   0  0  0  0  0  0  0  0  0  0  0  0
  144.3160  131.6679  151.0274 H   0  0  0  0  0  0  0  0  0  0  0  0
  143.9115  133.2651  150.3743 H   0  0  0  0  0  0  0  0  0  0  0  0
  146.4757  132.4925  152.1697 H   0  0  0  0  0  0  0  0  0  0  0  0
  146.2466  133.8617  154.2521 H   0  0  0  0  0  0  0  0  0  0  0  0
  147.5773  134.3655  153.2420 H   0  0  0  0  0  0  0  0  0  0  0  0
  144.8429  135.7382  153.4134 H   0  0  0  0  0  0  0  0  0  0  0  0
  146.3649  136.3415  154.0375 H   0  0  0  0  0  0  0  0  0  0  0  0
  145.9712  138.2246  150.8994 H   0  0  0  0  0  0  0  0  0  0  0  0
  144.6955  137.8850  152.0375 H   0  0  0  0  0  0  0  0  0  0  0  0
  147.2794  138.1061  153.4388 H   0  0  0  0  0  0  0  0  0  0  0  0
  144.7144  139.2420  153.5630 H   0  0  0  0  0  0  0  0  0  0  0  0
  147.8457  139.7416  151.6960 H   0  0  0  0  0  0  0  0  0  0  0  0
  146.2932  140.5224  151.8309 H   0  0  0  0  0  0  0  0  0  0  0  0
  146.3798  142.6448  153.4506 H   0  0  0  0  0  0  0  0  0  0  0  0
  150.2934  142.2589  156.6218 H   0  0  0  0  0  0  0  0  0  0  0  0
  151.9121  139.3600  157.5966 H   0  0  0  0  0  0  0  0  0  0  0  0
  152.1567  141.1013  157.4841 H   0  0  0  0  0  0  0  0  0  0  0  0
  152.9844  140.0301  156.3586 H   0  0  0  0  0  0  0  0  0  0  0  0
  151.0918  137.2187  154.3282 H   0  0  0  0  0  0  0  0  0  0  0  0
  151.4447  137.4830  156.0329 H   0  0  0  0  0  0  0  0  0  0  0  0
  152.4859  138.1924  154.7887 H   0  0  0  0  0  0  0  0  0  0  0  0
  149.3051  138.4663  153.4623 H   0  0  0  0  0  0  0  0  0  0  0  0
  144.5679  135.5572  150.8625 H   0  0  0  0  0  0  0  0  0  0  0  0
  145.8986  136.0616  149.8453 H   0  0  0  0  0  0  0  0  0  0  0  0
  147.3046  134.2079  150.6333 H   0  0  0  0  0  0  0  0  0  0  0  0
  145.8206  133.5920  149.9694 H   0  0  0  0  0  0  0  0  0  0  0  0
  147.2057  136.3985  151.8286 H   0  0  0  0  0  0  0  0  0  0  0  0
  147.9973  143.3747  155.3046 H   0  0  0  0  0  0  0  0  0  0  0  0
  1  2  1  0  0  0  0
  1 24  1  0  0  0  0
  1 25  1  0  0  0  0
  1 26  1  0  0  0  0
  2  3  1  0  0  0  0
  3 23  1  0  0  0  0
  3  4  1  0  0  0  0
  3 27  1  0  0  0  0
  4  5  1  0  0  0  0
  4 28  1  0  0  0  0
  4 29  1  0  0  0  0
  5  6  1  0  0  0  0
  5 30  1  0  0  0  0
  5 31  1  0  0  0  0
  6  7  1  0  0  0  0
  6 22  1  0  0  0  0
  6 51  1  0  0  0  0
  7  8  1  0  0  0  0
  7 32  1  0  0  0  0
  7 33  1  0  0  0  0
  8  9  1  0  0  0  0
  8 10  1  0  0  0  0
  8 34  1  0  0  0  0
  9 35  1  0  0  0  0
 10 11  1  0  0  0  0
 10 36  1  0  0  0  0
 10 37  1  0  0  0  0
 11 21  1  0  0  0  0
 11 12  1  0  0  0  0
 12 13  2  0  0  0  0
 12 38  1  0  0  0  0
 13 14  1  0  0  0  0
 13 52  1  0  0  0  0
 14 21  2  0  0  0  0
 14 15  1  0  0  0  0
 15 16  2  0  0  0  0
 15 39  1  0  0  0  0
 16 17  1  0  0  0  0
 16 18  1  0  0  0  0
 17 40  1  0  0  0  0
 17 41  1  0  0  0  0
 17 42  1  0  0  0  0
 18 19  1  0  0  0  0
 18 20  2  0  0  0  0
 19 43  1  0  0  0  0
 19 44  1  0  0  0  0
 19 45  1  0  0  0  0
 20 21  1  0  0  0  0
 20 46  1  0  0  0  0
 22 23  1  0  0  0  0
 22 47  1  0  0  0  0
 22 48  1  0  0  0  0
 23 49  1  0  0  0  0
 23 50  1  0  0  0  0
M  CHG  1   6   1
M  CHG  1  13   1
M  END
> <s_m_source_file>
AV-unprocessed.smi

> <i_m_source_file_index>
1605

> <i_lp_mmshare_version>
43012

> <i_f3d_flags>
0

> <s_epik_input>
W0NIM11PW0NIXTFbQ0gyXVtDSDJdTihbQ0gyXVtDSDJdMSlbQ0gyXVtDQEhdKFtPSF0pW0NIMl1uKFtjSF1uMiljKGMyMylbY0hdYyhbQ0gzXSljKFtjSF0zKVtDSDNd

> <s_epik_cmdline>
J2VwaWtfcHl0aG9uJywgJy1waCcsICc3LjAnLCAnLXRuJywgJzgnLCAnLW1hJywgJzIwMCcsICctbWV0YWxfYmluZGluZycsICctaW1hZScsICc8aW5maWxlLm1hZT4nLCAnLW9tYWUnLCAnPG91dGZpbGUubWFlPic=

> <r_epik_Ionization_Penalty>
1.19848

> <r_epik_Ionization_Penalty_Charging>
1.19848

> <r_epik_Ionization_Penalty_Neutral>
1.67134e-06

> <r_epik_State_Penalty>
1.2782

> <r_epik_Charging_Adjusted_Penalty>
2.47668

> <i_epik_Tot_Q>
2

> <i_epik_Tot_abs_Q>
2

> <r_epik_Metal_State_Penalty>
5.29544

> <b_epik_Metal_Only>
0

> <s_lp_Force_Field>
OPLS_2005

> <r_lp_Energy>
31.9375

> <b_lp_Chiralities_Consistent>
1

> <s_lp_Variant>
AV-unprocessed.smi:1605-7

> <Gold.Version>
5.8.1

> <Gold.Id.Protein>
6NUR|6NUR_protein|mol2

> <Gold.PLP.Fitness>
57.4393

> <Gold.PLP.PLP>
-43.8987

> <Gold.PLP.part.hbond>
-2.9752

> <Gold.PLP.part.metal>
0.0000

> <Gold.PLP.part.buried>
3.2065

> <Gold.PLP.part.nonpolar>
-43.4403

> <Gold.PLP.part.repulsive>
0.3643

> <Gold.PLP.ligand.clash>
0.0000

> <Gold.PLP.ligand.torsion>
0.7642

> <Gold.PLP.Chemscore.Hbond>
5.0000

> <Gold.PLP.Chemscore.CHOScore>
0.0000

> <Gold.PLP.Chemscore.Metal>
0.0000

> <Gold.Chemscore.Hbonds>
donor molecule, donor type, donor heavy atom, donor atom, acceptor molecule, acceptor atom, score
      L1  H     6    51       P1  7948  2.00
      L1  H     9    35       P1 10175  1.00
      L1  H    13    52       P1  8028  1.70

> <Gold.PLP.Chemscore.Internal.Correction>
0.0691

> <Gold.Rescore>
     Score         DG    S(hbond)    S(metal)    S(lipo)     H(rot)  DE(clash)    DE(int)     intcor
     18.73     -21.78       2.79        0.00     109.65       2.28       2.26       0.78       ----

> <Gold.Chemscore.Fitness>
18.7334

> <Gold.Chemscore.DG>
-21.7766

> <Gold.Chemscore.ZeroCoef>
-5.4800

> <Gold.Chemscore.Hbond>
2.7886

> <Gold.Chemscore.Metal>
0.0000

> <Gold.Chemscore.Lipo>
109.6530

> <Gold.Chemscore.Internal_Hbond>
0.0000

> <Gold.Chemscore.DEClash>
2.2631

> <Gold.Chemscore.DEInternal>
0.7801

> <Gold.Chemscore.Rot>
2.2839

> <Gold.Chemscore.Internal.Correction>
   9.000000E+99

> <Gold.Chemscore.Hbonds>
donor molecule, donor type, donor heavy atom, donor atom, acceptor molecule, acceptor atom, score
      L1  H     6    51       P1  7948  1.00
      L1  H     9    35       P1 10175  0.96
      L1  H    13    52       P1  8028  0.58

> <Gold.Chemscore.Hbond.Weighted>
-9.3141

> <Gold.Chemscore.Metal.Weighted>
-0.0000

> <Gold.Chemscore.Lipo.Weighted>
-12.8294

> <Gold.Chemscore.Internal_Hbond.Weighted>
0.0000

> <Gold.Chemscore.DEClash.Weighted>
2.2631

> <Gold.Chemscore.DEInternal.Weighted>
0.7801

> <Gold.Chemscore.Rot.Weighted>
5.8469

> <Gold.Chemscore.Internal.Correction.Weighted>
   9.000000E+99

> <Gold.Protein.RotatedTorsions>
[ 6907 6896 6895 6894 ] final -132.31 input  -60.11 | X-H torsion
[ 7974 7965 7964 7962 ] final   -6.42 input  175.53 | X-H torsion
[ 8008 7997 7996 7995 ] final -144.32 input   59.86 | X-H torsion
[ 10167 10162 10161 10158 ] final -167.80 input  -65.29 | X-H torsion
[ 10718 10713 10712 10709 ] final  117.82 input   66.30 | X-H torsion
[ 10763 10752 10751 10750 ] final   77.21 input  -60.55 | X-H torsion
[ 11005 11000 10999 10996 ] final  -12.53 input  -57.11 | X-H torsion

> <Gold.Protein.ActiveResidues>
 VAL166  LYS551  ARG553  GLY616  TRP617  ASP618  TYR619  PRO620  LYS621  CYS622 
 ASP623  PHE694  ASN695  SER759  ASP760  ASP761  ALA762  ILE779  LEU786  VAL792 
 PHE793  MET794  SER795  GLU796  ALA797  LYS798  CYS799  TRP800  GLU811  SER814 

> <Gold.Protein.RotatedAtoms>
  150.9610  133.6445  159.2754 H   0  0  0  0  0  0  0  0  0  0  0  0  # atno 6907 bound_to 6896
  151.3768  135.0931  159.9493 H   0  0  0  0  0  0  0  0  0  0  0  0  # atno 6908 bound_to 6896
  152.5147  133.9153  159.7562 H   0  0  0  0  0  0  0  0  0  0  0  0  # atno 6909 bound_to 6896
  146.2331  140.2168  142.8336 H   0  0  0  0  0  0  0  0  0  0  0  0  # atno 7974 bound_to 7965
  155.5250  140.0594  157.2900 H   0  0  0  0  0  0  0  0  0  0  0  0  # atno 8008 bound_to 7997
  154.4504  140.1946  156.0482 H   0  0  0  0  0  0  0  0  0  0  0  0  # atno 8009 bound_to 7997
  156.0692  140.3262  155.7559 H   0  0  0  0  0  0  0  0  0  0  0  0  # atno 8010 bound_to 7997
  139.6026  144.0980  152.1759 H   0  0  0  0  0  0  0  0  0  0  0  0  # atno 10167 bound_to 10162
  157.6071  131.1041  150.7669 H   0  0  0  0  0  0  0  0  0  0  0  0  # atno 10718 bound_to 10713
  153.0782  135.4922  154.8448 H   0  0  0  0  0  0  0  0  0  0  0  0  # atno 10763 bound_to 10752
  154.7115  135.3021  154.9191 H   0  0  0  0  0  0  0  0  0  0  0  0  # atno 10764 bound_to 10752
  153.9883  135.6781  153.4806 H   0  0  0  0  0  0  0  0  0  0  0  0  # atno 10765 bound_to 10752
  140.7667  133.8472  155.9171 H   0  0  0  0  0  0  0  0  0  0  0  0  # atno 11005 bound_to 11000
  144.9663  140.8325  143.5482 LP  0  0  0  0  0  0  0  0  0  0  0  0  # atno 17320 bound_to 7965
  145.2144  139.2189  143.5126 LP  0  0  0  0  0  0  0  0  0  0  0  0  # atno 17321 bound_to 7965
  140.0579  144.5880  150.7285 LP  0  0  0  0  0  0  0  0  0  0  0  0  # atno 17342 bound_to 10162
  140.7261  143.2637  151.4116 LP  0  0  0  0  0  0  0  0  0  0  0  0  # atno 17343 bound_to 10162
  156.8055  130.4935  149.5363 LP  0  0  0  0  0  0  0  0  0  0  0  0  # atno 17370 bound_to 10713
  156.1161  130.6076  151.0122 LP  0  0  0  0  0  0  0  0  0  0  0  0  # atno 17371 bound_to 10713
  140.9613  134.1652  157.4652 LP  0  0  0  0  0  0  0  0  0  0  0  0  # atno 17394 bound_to 11000
  139.8762  134.9945  156.5699 LP  0  0  0  0  0  0  0  0  0  0  0  0  # atno 17395 bound_to 11000

$$$$
