AV-unprocessed.smi:2528|AV-procd|sdf|9953|dock7
  -GOLD-   2272013593D 1   1.00000     0.00000
 Structure written by MMmdl.
 44 46  0  0  0  0  0  0  0  0  2 V2000
  153.1969  140.0709  158.3157 O   0  0  0  0  0  0  0  0  0  0  0  0
  152.3004  140.5135  157.5966 C   0  0  0  0  0  0  0  0  0  0  0  0
  151.8617  139.8830  156.4975 N   0  0  0  0  0  0  0  0  0  0  0  0
  152.3627  138.5994  156.0176 C   0  0  0  0  0  0  0  0  0  0  0  0
  151.2443  137.5475  155.9103 C   0  0  1  0  0  0  0  0  0  0  0  0
  150.6175  137.5221  154.4987 C   0  0  0  0  0  0  0  0  0  0  0  0
  149.6198  136.4328  154.3655 N   0  3  2  0  0  0  0  0  0  0  0  0
  148.3147  136.7445  155.0101 C   0  0  0  0  0  0  0  0  0  0  0  0
  147.2973  135.6164  154.7874 C   0  0  0  0  0  0  0  0  0  0  0  0
  147.8467  134.2830  155.3063 C   0  0  0  0  0  0  0  0  0  0  0  0
  149.1885  133.9742  154.6285 C   0  0  0  0  0  0  0  0  0  0  0  0
  150.2048  135.1266  154.7773 C   0  0  2  0  0  0  0  0  0  0  0  0
  150.8314  135.2288  156.1839 C   0  0  0  0  0  0  0  0  0  0  0  0
  151.8040  136.2674  156.1903 O   0  0  0  0  0  0  0  0  0  0  0  0
  151.6397  141.6675  157.7951 N   0  0  0  0  0  0  0  0  0  0  0  0
  151.8115  142.6068  158.8468 C   0  0  0  0  0  0  0  0  0  0  0  0
  151.6256  143.9586  158.4787 C   0  0  0  0  0  0  0  0  0  0  0  0
  151.7718  144.9677  159.4504 C   0  0  0  0  0  0  0  0  0  0  0  0
  152.1013  144.5983  160.7668 C   0  0  0  0  0  0  0  0  0  0  0  0
  152.2709  143.2304  161.0490 C   0  0  0  0  0  0  0  0  0  0  0  0
  152.1315  142.2616  160.1193 N   0  0  0  0  0  0  0  0  0  0  0  0
  151.1249  140.3154  155.9596 H   0  0  0  0  0  0  0  0  0  0  0  0
  152.8455  138.7396  155.0489 H   0  0  0  0  0  0  0  0  0  0  0  0
  153.1386  138.2547  156.7017 H   0  0  0  0  0  0  0  0  0  0  0  0
  150.4744  137.7733  156.6491 H   0  0  0  0  0  0  0  0  0  0  0  0
  150.1580  138.4822  154.2605 H   0  0  0  0  0  0  0  0  0  0  0  0
  151.3995  137.3614  153.7552 H   0  0  0  0  0  0  0  0  0  0  0  0
  148.4433  136.9101  156.0796 H   0  0  0  0  0  0  0  0  0  0  0  0
  147.9219  137.6738  154.5960 H   0  0  0  0  0  0  0  0  0  0  0  0
  146.3606  135.8548  155.2922 H   0  0  0  0  0  0  0  0  0  0  0  0
  147.0650  135.5324  153.7249 H   0  0  0  0  0  0  0  0  0  0  0  0
  147.9725  134.3275  156.3887 H   0  0  0  0  0  0  0  0  0  0  0  0
  147.1342  133.4814  155.1094 H   0  0  0  0  0  0  0  0  0  0  0  0
  149.6057  133.0482  155.0258 H   0  0  0  0  0  0  0  0  0  0  0  0
  149.0110  133.7930  153.5674 H   0  0  0  0  0  0  0  0  0  0  0  0
  151.0215  134.9166  154.0847 H   0  0  0  0  0  0  0  0  0  0  0  0
  150.0807  135.4125  156.9535 H   0  0  0  0  0  0  0  0  0  0  0  0
  151.3258  134.2926  156.4434 H   0  0  0  0  0  0  0  0  0  0  0  0
  150.9242  141.8970  157.1212 H   0  0  0  0  0  0  0  0  0  0  0  0
  151.3711  144.2247  157.4630 H   0  0  0  0  0  0  0  0  0  0  0  0
  151.6329  146.0064  159.1893 H   0  0  0  0  0  0  0  0  0  0  0  0
  152.2217  145.3431  161.5396 H   0  0  0  0  0  0  0  0  0  0  0  0
  152.5259  142.9044  162.0467 H   0  0  0  0  0  0  0  0  0  0  0  0
  149.4164  136.3532  153.3792 H   0  0  0  0  0  0  0  0  0  0  0  0
  1  2  2  0  0  0  0
  2  3  1  0  0  0  0
  2 15  1  0  0  0  0
  3  4  1  0  0  0  0
  3 22  1  0  0  0  0
  4  5  1  0  0  0  0
  4 23  1  0  0  0  0
  4 24  1  0  0  0  0
  5 14  1  0  0  0  0
  5  6  1  0  0  0  0
  5 25  1  0  0  0  0
  6  7  1  0  0  0  0
  6 26  1  0  0  0  0
  6 27  1  0  0  0  0
  7 12  1  0  0  0  0
  7  8  1  0  0  0  0
  7 44  1  0  0  0  0
  8  9  1  0  0  0  0
  8 28  1  0  0  0  0
  8 29  1  0  0  0  0
  9 10  1  0  0  0  0
  9 30  1  0  0  0  0
  9 31  1  0  0  0  0
 10 11  1  0  0  0  0
 10 32  1  0  0  0  0
 10 33  1  0  0  0  0
 11 12  1  0  0  0  0
 11 34  1  0  0  0  0
 11 35  1  0  0  0  0
 12 13  1  0  0  0  0
 12 36  1  0  0  0  0
 13 14  1  0  0  0  0
 13 37  1  0  0  0  0
 13 38  1  0  0  0  0
 15 16  1  0  0  0  0
 15 39  1  0  0  0  0
 16 21  1  0  0  0  0
 16 17  2  0  0  0  0
 17 18  1  0  0  0  0
 17 40  1  0  0  0  0
 18 19  2  0  0  0  0
 18 41  1  0  0  0  0
 19 20  1  0  0  0  0
 19 42  1  0  0  0  0
 20 21  2  0  0  0  0
 20 43  1  0  0  0  0
M  CHG  1   7   1
M  END
> <s_m_source_file>
AV-unprocessed.smi

> <i_m_source_file_index>
2528

> <i_lp_mmshare_version>
43012

> <i_f3d_flags>
0

> <s_epik_input>
bjFbY0hdW2NIXVtjSF1bY0hdYzFbTkhdQyg9TylbTkhdW0NIMl1bQ0BIXShbQ0gyXTIpT1tDSDJdW0NAQEhdKE4yMylbQ0gyXVtDSDJdW0NIMl1bQ0gyXTM=

> <s_epik_cmdline>
J2VwaWtfcHl0aG9uJywgJy1waCcsICc3LjAnLCAnLXRuJywgJzgnLCAnLW1hJywgJzIwMCcsICctbWV0YWxfYmluZGluZycsICctaW1hZScsICc8aW5maWxlLm1hZT4nLCAnLW9tYWUnLCAnPG91dGZpbGUubWFlPic=

> <r_epik_Ionization_Penalty>
0.0932337

> <r_epik_Ionization_Penalty_Charging>
0.0931942

> <r_epik_Ionization_Penalty_Neutral>
3.9565e-05

> <r_epik_State_Penalty>
0.0834605

> <r_epik_Charging_Adjusted_Penalty>
0.176655

> <i_epik_Tot_Q>
1

> <i_epik_Tot_abs_Q>
1

> <r_epik_Metal_State_Penalty>
0.0834607

> <b_epik_Metal_Only>
0

> <s_lp_Force_Field>
OPLS_2005

> <r_lp_Energy>
28.0088

> <b_lp_Chiralities_Consistent>
1

> <s_lp_Variant>
AV-unprocessed.smi:2528-6

> <Gold.Version>
5.8.1

> <Gold.Id.Protein>
6NUR|6NUR_protein|mol2

> <Gold.PLP.Fitness>
44.6914

> <Gold.PLP.PLP>
-35.1901

> <Gold.PLP.part.hbond>
-3.1755

> <Gold.PLP.part.metal>
0.0000

> <Gold.PLP.part.buried>
-3.7296

> <Gold.PLP.part.nonpolar>
-28.1025

> <Gold.PLP.part.repulsive>
0.2438

> <Gold.PLP.ligand.clash>
0.0000

> <Gold.PLP.ligand.torsion>
0.6706

> <Gold.PLP.Chemscore.Hbond>
3.6136

> <Gold.PLP.Chemscore.CHOScore>
0.0000

> <Gold.PLP.Chemscore.Metal>
0.0000

> <Gold.Chemscore.Hbonds>
donor molecule, donor type, donor heavy atom, donor atom, acceptor molecule, acceptor atom, score
      L1  H     7    44       P1  7948  2.00
      P1  H  7997  8009       L1     1  0.67
      P1  H 10752 10764       L1    14  1.00

> <Gold.PLP.Chemscore.Internal.Correction>
0.0017

> <Gold.Rescore>
     Score         DG    S(hbond)    S(metal)    S(lipo)     H(rot)  DE(clash)    DE(int)     intcor
     17.54     -19.09       1.97        0.00      88.23       1.29       0.04       1.51       ----

> <Gold.Chemscore.Fitness>
17.5361

> <Gold.Chemscore.DG>
-19.0882

> <Gold.Chemscore.ZeroCoef>
-5.4800

> <Gold.Chemscore.Hbond>
1.9700

> <Gold.Chemscore.Metal>
0.0000

> <Gold.Chemscore.Lipo>
88.2337

> <Gold.Chemscore.Internal_Hbond>
0.0000

> <Gold.Chemscore.DEClash>
0.0373

> <Gold.Chemscore.DEInternal>
1.5148

> <Gold.Chemscore.Rot>
1.2870

> <Gold.Chemscore.Internal.Correction>
   9.000000E+99

> <Gold.Chemscore.Hbonds>
donor molecule, donor type, donor heavy atom, donor atom, acceptor molecule, acceptor atom, score
      L1  H     7    44       P1  7948  0.67
      P1  H  7997  8009       L1     1  0.43
      P1  H 10752 10764       L1    14  0.25

> <Gold.Chemscore.Hbond.Weighted>
-6.5797

> <Gold.Chemscore.Metal.Weighted>
-0.0000

> <Gold.Chemscore.Lipo.Weighted>
-10.3233

> <Gold.Chemscore.Internal_Hbond.Weighted>
0.0000

> <Gold.Chemscore.DEClash.Weighted>
0.0373

> <Gold.Chemscore.DEInternal.Weighted>
1.5148

> <Gold.Chemscore.Rot.Weighted>
3.2948

> <Gold.Chemscore.Internal.Correction.Weighted>
   9.000000E+99

> <Gold.Protein.RotatedTorsions>
[ 6907 6896 6895 6894 ] final  -82.37 input  -60.11 | X-H torsion
[ 7974 7965 7964 7962 ] final  -17.45 input  175.53 | X-H torsion
[ 8008 7997 7996 7995 ] final  127.65 input   59.86 | X-H torsion
[ 10167 10162 10161 10158 ] final  108.04 input  -65.29 | X-H torsion
[ 10718 10713 10712 10709 ] final  168.68 input   66.30 | X-H torsion
[ 10763 10752 10751 10750 ] final  -31.75 input  -60.55 | X-H torsion
[ 11005 11000 10999 10996 ] final -123.63 input  -57.11 | X-H torsion

> <Gold.Protein.ActiveResidues>
 VAL166  LYS551  ARG553  GLY616  TRP617  ASP618  TYR619  PRO620  LYS621  CYS622 
 ASP623  PHE694  ASN695  SER759  ASP760  ASP761  ALA762  ILE779  LEU786  VAL792 
 PHE793  MET794  SER795  GLU796  ALA797  LYS798  CYS799  TRP800  GLU811  SER814 

> <Gold.Protein.RotatedAtoms>
  150.6898  134.3675  159.4977 H   0  0  0  0  0  0  0  0  0  0  0  0  # atno 6907 bound_to 6896
  152.1496  134.8996  160.0558 H   0  0  0  0  0  0  0  0  0  0  0  0  # atno 6908 bound_to 6896
  152.0099  133.3822  159.4252 H   0  0  0  0  0  0  0  0  0  0  0  0  # atno 6909 bound_to 6896
  146.1940  140.3780  142.8447 H   0  0  0  0  0  0  0  0  0  0  0  0  # atno 7974 bound_to 7965
  156.2896  140.2664  156.2308 H   0  0  0  0  0  0  0  0  0  0  0  0  # atno 8008 bound_to 7997
  155.0074  140.0387  157.2403 H   0  0  0  0  0  0  0  0  0  0  0  0  # atno 8009 bound_to 7997
  154.7548  140.2749  155.6268 H   0  0  0  0  0  0  0  0  0  0  0  0  # atno 8010 bound_to 7997
  139.6878  144.7111  151.1401 H   0  0  0  0  0  0  0  0  0  0  0  0  # atno 10167 bound_to 10162
  157.0336  131.0266  151.2736 H   0  0  0  0  0  0  0  0  0  0  0  0  # atno 10718 bound_to 10713
  153.8025  135.6889  153.4853 H   0  0  0  0  0  0  0  0  0  0  0  0  # atno 10763 bound_to 10752
  153.1679  135.4554  154.9861 H   0  0  0  0  0  0  0  0  0  0  0  0  # atno 10764 bound_to 10752
  154.8001  135.3334  154.7512 H   0  0  0  0  0  0  0  0  0  0  0  0  # atno 10765 bound_to 10752
  140.9904  134.0547  157.3661 H   0  0  0  0  0  0  0  0  0  0  0  0  # atno 11005 bound_to 11000
  144.8544  140.7048  143.6148 LP  0  0  0  0  0  0  0  0  0  0  0  0  # atno 17320 bound_to 7965
  145.3701  139.1660  143.4336 LP  0  0  0  0  0  0  0  0  0  0  0  0  # atno 17321 bound_to 7965
  140.7673  143.5603  150.9106 LP  0  0  0  0  0  0  0  0  0  0  0  0  # atno 17342 bound_to 10162
  139.9279  143.6528  152.3083 LP  0  0  0  0  0  0  0  0  0  0  0  0  # atno 17343 bound_to 10162
  157.5158  130.7967  149.7755 LP  0  0  0  0  0  0  0  0  0  0  0  0  # atno 17370 bound_to 10713
  156.0061  130.3855  150.2426 LP  0  0  0  0  0  0  0  0  0  0  0  0  # atno 17371 bound_to 10713
  139.8989  135.0156  156.7172 LP  0  0  0  0  0  0  0  0  0  0  0  0  # atno 17394 bound_to 11000
  140.7049  133.9273  155.8048 LP  0  0  0  0  0  0  0  0  0  0  0  0  # atno 17395 bound_to 11000

$$$$
