AV-unprocessed.smi:1225|AV-procd|sdf|5139|dock5
  -GOLD-   22720 4203D 1   1.00000     0.00000
 Structure written by MMmdl.
 49 51  0  0  0  0  0  0  0  0  2 V2000
  147.7055  133.9458  162.6806 C   0  0  0  0  0  0  0  0  0  0  0  0
  147.9679  134.5581  161.3475 C   0  0  0  0  0  0  0  0  0  0  0  0
  148.2651  133.8511  160.2549 N   0  0  0  0  0  0  0  0  0  0  0  0
  148.4663  134.6606  159.1346 C   0  0  0  0  0  0  0  0  0  0  0  0
  148.3147  136.0023  159.3843 C   0  0  0  0  0  0  0  0  0  0  0  0
  148.4616  137.1305  158.4132 C   0  0  0  0  0  0  0  0  0  0  0  0
  149.8146  137.2760  157.8735 N   0  0  0  0  0  0  0  0  0  0  0  0
  150.7245  137.8185  158.8819 C   0  0  0  0  0  0  0  0  0  0  0  0
  149.7939  138.1004  156.6604 C   0  0  0  0  0  0  0  0  0  0  0  0
  151.1481  138.3464  155.9575 C   0  0  1  0  0  0  0  0  0  0  0  0
  150.9557  138.6980  154.6013 O   0  0  0  0  0  0  0  0  0  0  0  0
  152.0644  139.3585  156.6784 C   0  0  0  0  0  0  0  0  0  0  0  0
  151.4506  140.6863  156.8106 N   0  0  0  0  0  0  0  0  0  0  0  0
  150.5903  141.3390  155.9827 C   0  0  0  0  0  0  0  0  0  0  0  0
  150.3153  142.5472  156.5479 N   0  3  0  0  0  0  0  0  0  0  0  0
  151.0071  142.6652  157.7555 C   0  0  0  0  0  0  0  0  0  0  0  0
  151.0514  143.6989  158.6836 C   0  0  0  0  0  0  0  0  0  0  0  0
  151.8623  143.5065  159.8251 C   0  0  0  0  0  0  0  0  0  0  0  0
  151.9369  144.6190  160.8571 C   0  0  0  0  0  0  0  0  0  0  0  0
  152.5947  142.3044  160.0067 C   0  0  0  0  0  0  0  0  0  0  0  0
  153.4625  142.1079  161.2383 C   0  0  0  0  0  0  0  0  0  0  0  0
  152.5363  141.2649  159.0510 C   0  0  0  0  0  0  0  0  0  0  0  0
  151.7345  141.4725  157.9317 C   0  0  0  0  0  0  0  0  0  0  0  0
  147.9198  136.2929  161.0597 S   0  0  0  0  0  0  0  0  0  0  0  0
  147.6365  132.8606  162.5986 H   0  0  0  0  0  0  0  0  0  0  0  0
  146.7678  134.3252  163.0870 H   0  0  0  0  0  0  0  0  0  0  0  0
  148.5128  134.1942  163.3694 H   0  0  0  0  0  0  0  0  0  0  0  0
  148.7131  134.1959  158.1914 H   0  0  0  0  0  0  0  0  0  0  0  0
  147.7611  136.9575  157.5952 H   0  0  0  0  0  0  0  0  0  0  0  0
  148.1484  138.0643  158.8825 H   0  0  0  0  0  0  0  0  0  0  0  0
  151.7496  137.8479  158.5159 H   0  0  0  0  0  0  0  0  0  0  0  0
  150.7344  137.2008  159.7801 H   0  0  0  0  0  0  0  0  0  0  0  0
  150.4350  138.8296  159.1705 H   0  0  0  0  0  0  0  0  0  0  0  0
  149.1635  137.5974  155.9260 H   0  0  0  0  0  0  0  0  0  0  0  0
  149.2986  139.0519  156.8602 H   0  0  0  0  0  0  0  0  0  0  0  0
  151.6619  137.3853  155.9275 H   0  0  0  0  0  0  0  0  0  0  0  0
  150.5953  139.5705  154.5671 H   0  0  0  0  0  0  0  0  0  0  0  0
  152.3028  139.0141  157.6853 H   0  0  0  0  0  0  0  0  0  0  0  0
  153.0152  139.4667  156.1550 H   0  0  0  0  0  0  0  0  0  0  0  0
  150.2004  140.9674  155.0456 H   0  0  0  0  0  0  0  0  0  0  0  0
  150.4911  144.6110  158.5387 H   0  0  0  0  0  0  0  0  0  0  0  0
  152.9588  144.9886  160.9470 H   0  0  0  0  0  0  0  0  0  0  0  0
  151.6105  144.2602  161.8337 H   0  0  0  0  0  0  0  0  0  0  0  0
  151.3007  145.4612  160.5826 H   0  0  0  0  0  0  0  0  0  0  0  0
  153.9699  141.1428  161.2194 H   0  0  0  0  0  0  0  0  0  0  0  0
  152.8565  142.1475  162.1438 H   0  0  0  0  0  0  0  0  0  0  0  0
  154.2261  142.8837  161.2973 H   0  0  0  0  0  0  0  0  0  0  0  0
  153.0938  140.3501  159.1877 H   0  0  0  0  0  0  0  0  0  0  0  0
  149.6996  143.2377  156.1376 H   0  0  0  0  0  0  0  0  0  0  0  0
  1  2  1  0  0  0  0
  1 25  1  0  0  0  0
  1 26  1  0  0  0  0
  1 27  1  0  0  0  0
  2 24  1  0  0  0  0
  2  3  2  0  0  0  0
  3  4  1  0  0  0  0
  4  5  2  0  0  0  0
  4 28  1  0  0  0  0
  5  6  1  0  0  0  0
  5 24  1  0  0  0  0
  6  7  1  0  0  0  0
  6 29  1  0  0  0  0
  6 30  1  0  0  0  0
  7  8  1  0  0  0  0
  7  9  1  0  0  0  0
  8 31  1  0  0  0  0
  8 32  1  0  0  0  0
  8 33  1  0  0  0  0
  9 10  1  0  0  0  0
  9 34  1  0  0  0  0
  9 35  1  0  0  0  0
 10 11  1  0  0  0  0
 10 12  1  0  0  0  0
 10 36  1  0  0  0  0
 11 37  1  0  0  0  0
 12 13  1  0  0  0  0
 12 38  1  0  0  0  0
 12 39  1  0  0  0  0
 13 23  1  0  0  0  0
 13 14  1  0  0  0  0
 14 15  2  0  0  0  0
 14 40  1  0  0  0  0
 15 16  1  0  0  0  0
 15 49  1  0  0  0  0
 16 23  2  0  0  0  0
 16 17  1  0  0  0  0
 17 18  2  0  0  0  0
 17 41  1  0  0  0  0
 18 19  1  0  0  0  0
 18 20  1  0  0  0  0
 19 42  1  0  0  0  0
 19 43  1  0  0  0  0
 19 44  1  0  0  0  0
 20 21  1  0  0  0  0
 20 22  2  0  0  0  0
 21 45  1  0  0  0  0
 21 46  1  0  0  0  0
 21 47  1  0  0  0  0
 22 23  1  0  0  0  0
 22 48  1  0  0  0  0
M  CHG  1  15   1
M  END
> <s_m_source_file>
AV-unprocessed.smi

> <i_m_source_file_index>
1225

> <i_lp_mmshare_version>
43012

> <i_f3d_flags>
0

> <s_epik_input>
W0NIM11jMW5bY0hdYyhzMSlbQ0gyXU4oW0NIM10pW0NIMl1bQ0BIXShbT0hdKVtDSDJdbihbY0hdbjIpYyhjMjMpW2NIXWMoW0NIM10pYyhbY0hdMylbQ0gzXQ==

> <s_epik_cmdline>
J2VwaWtfcHl0aG9uJywgJy1waCcsICc3LjAnLCAnLXRuJywgJzgnLCAnLW1hJywgJzIwMCcsICctbWV0YWxfYmluZGluZycsICctaW1hZScsICc8aW5maWxlLm1hZT4nLCAnLW9tYWUnLCAnPG91dGZpbGUubWFlPic=

> <r_epik_Ionization_Penalty>
1.25968

> <r_epik_Ionization_Penalty_Charging>
1.21782

> <r_epik_Ionization_Penalty_Neutral>
0.0418565

> <r_epik_State_Penalty>
1.29962

> <r_epik_Charging_Adjusted_Penalty>
2.51745

> <i_epik_Tot_Q>
1

> <i_epik_Tot_abs_Q>
1

> <r_epik_Metal_State_Penalty>
1.36802

> <b_epik_Metal_Only>
0

> <s_lp_Force_Field>
OPLS_2005

> <r_lp_Energy>
27.2567

> <b_lp_Chiralities_Consistent>
1

> <s_lp_Variant>
AV-unprocessed.smi:1225-4

> <Gold.Version>
5.8.1

> <Gold.Id.Protein>
6NUR|6NUR_protein|mol2

> <Gold.PLP.Fitness>
52.7108

> <Gold.PLP.PLP>
-47.7981

> <Gold.PLP.part.hbond>
-1.0000

> <Gold.PLP.part.metal>
0.0000

> <Gold.PLP.part.buried>
-6.9795

> <Gold.PLP.part.nonpolar>
-40.2187

> <Gold.PLP.part.repulsive>
0.0846

> <Gold.PLP.ligand.clash>
0.0000

> <Gold.PLP.ligand.torsion>
0.6734

> <Gold.PLP.Chemscore.Hbond>
2.0000

> <Gold.PLP.Chemscore.CHOScore>
0.0000

> <Gold.PLP.Chemscore.Metal>
0.0000

> <Gold.Chemscore.Hbonds>
donor molecule, donor type, donor heavy atom, donor atom, acceptor molecule, acceptor atom, score
      L1  H    15    49       P1  8028  2.00

> <Gold.PLP.Chemscore.Internal.Correction>
0.2595

> <Gold.Rescore>
     Score         DG    S(hbond)    S(metal)    S(lipo)     H(rot)  DE(clash)    DE(int)     intcor
     17.10     -18.25       1.00        0.00     132.32       2.36       0.24       0.91       ----

> <Gold.Chemscore.Fitness>
17.0991

> <Gold.Chemscore.DG>
-18.2457

> <Gold.Chemscore.ZeroCoef>
-5.4800

> <Gold.Chemscore.Hbond>
0.9994

> <Gold.Chemscore.Metal>
0.0000

> <Gold.Chemscore.Lipo>
132.3216

> <Gold.Chemscore.Internal_Hbond>
0.0000

> <Gold.Chemscore.DEClash>
0.2357

> <Gold.Chemscore.DEInternal>
0.9108

> <Gold.Chemscore.Rot>
2.3649

> <Gold.Chemscore.Internal.Correction>
   9.000000E+99

> <Gold.Chemscore.Hbonds>
donor molecule, donor type, donor heavy atom, donor atom, acceptor molecule, acceptor atom, score
      L1  H    15    49       P1  8028  1.00

> <Gold.Chemscore.Hbond.Weighted>
-3.3380

> <Gold.Chemscore.Metal.Weighted>
-0.0000

> <Gold.Chemscore.Lipo.Weighted>
-15.4816

> <Gold.Chemscore.Internal_Hbond.Weighted>
0.0000

> <Gold.Chemscore.DEClash.Weighted>
0.2357

> <Gold.Chemscore.DEInternal.Weighted>
0.9108

> <Gold.Chemscore.Rot.Weighted>
6.0540

> <Gold.Chemscore.Internal.Correction.Weighted>
   9.000000E+99

> <Gold.Protein.RotatedTorsions>
[ 6907 6896 6895 6894 ] final   46.03 input  -60.11 | X-H torsion
[ 7974 7965 7964 7962 ] final  141.61 input  175.53 | X-H torsion
[ 8008 7997 7996 7995 ] final   80.26 input   59.86 | X-H torsion
[ 10167 10162 10161 10158 ] final  -86.98 input  -65.29 | X-H torsion
[ 10718 10713 10712 10709 ] final  -95.25 input   66.30 | X-H torsion
[ 10763 10752 10751 10750 ] final   23.74 input  -60.55 | X-H torsion
[ 11005 11000 10999 10996 ] final  170.22 input  -57.11 | X-H torsion

> <Gold.Protein.ActiveResidues>
 VAL166  LYS551  ARG553  GLY616  TRP617  ASP618  TYR619  PRO620  LYS621  CYS622 
 ASP623  PHE694  ASN695  SER759  ASP760  ASP761  ALA762  ILE779  LEU786  VAL792 
 PHE793  MET794  SER795  GLU796  ALA797  LYS798  CYS799  TRP800  GLU811  SER814 

> <Gold.Protein.RotatedAtoms>
  152.2516  134.8127  160.0444 H   0  0  0  0  0  0  0  0  0  0  0  0  # atno 6907 bound_to 6896
  151.8805  133.3489  159.3773 H   0  0  0  0  0  0  0  0  0  0  0  0  # atno 6908 bound_to 6896
  150.7086  134.4949  159.5578 H   0  0  0  0  0  0  0  0  0  0  0  0  # atno 6909 bound_to 6896
  144.9081  139.5330  143.5721 H   0  0  0  0  0  0  0  0  0  0  0  0  # atno 7974 bound_to 7965
  155.8810  140.3444  155.5888 H   0  0  0  0  0  0  0  0  0  0  0  0  # atno 8008 bound_to 7997
  155.7720  140.0846  157.2122 H   0  0  0  0  0  0  0  0  0  0  0  0  # atno 8009 bound_to 7997
  154.4024  140.1516  156.2940 H   0  0  0  0  0  0  0  0  0  0  0  0  # atno 8010 bound_to 7997
  140.3889  143.2714  151.9290 H   0  0  0  0  0  0  0  0  0  0  0  0  # atno 10167 bound_to 10162
  156.0040  130.5101  150.6048 H   0  0  0  0  0  0  0  0  0  0  0  0  # atno 10718 bound_to 10713
  153.0815  135.6620  154.0035 H   0  0  0  0  0  0  0  0  0  0  0  0  # atno 10763 bound_to 10752
  153.9655  135.2970  155.3432 H   0  0  0  0  0  0  0  0  0  0  0  0  # atno 10764 bound_to 10752
  154.7216  135.5162  153.8892 H   0  0  0  0  0  0  0  0  0  0  0  0  # atno 10765 bound_to 10752
  140.3061  134.7555  157.3954 H   0  0  0  0  0  0  0  0  0  0  0  0  # atno 11005 bound_to 11000
  146.3144  139.7866  142.8995 LP  0  0  0  0  0  0  0  0  0  0  0  0  # atno 17320 bound_to 7965
  145.3501  141.0305  143.3343 LP  0  0  0  0  0  0  0  0  0  0  0  0  # atno 17321 bound_to 7965
  139.4790  144.5747  151.8031 LP  0  0  0  0  0  0  0  0  0  0  0  0  # atno 17342 bound_to 10162
  140.4860  144.1380  150.5941 LP  0  0  0  0  0  0  0  0  0  0  0  0  # atno 17343 bound_to 10162
  157.3891  131.0793  151.1410 LP  0  0  0  0  0  0  0  0  0  0  0  0  # atno 17370 bound_to 10713
  157.2107  130.6437  149.5773 LP  0  0  0  0  0  0  0  0  0  0  0  0  # atno 17371 bound_to 10713
  140.1066  134.5401  155.8304 LP  0  0  0  0  0  0  0  0  0  0  0  0  # atno 17394 bound_to 11000
  141.2118  133.6711  156.6610 LP  0  0  0  0  0  0  0  0  0  0  0  0  # atno 17395 bound_to 11000

$$$$
