AV-unprocessed.smi:2069|AV-procd|sdf|8436|dock10
  -GOLD-   2272011133D 1   1.00000     0.00000
 Structure written by MMmdl.
 37 38  0  0  0  0  0  0  0  0  2 V2000
  150.5174  138.9703  153.6642 C   0  0  0  0  0  0  0  0  0  0  0  0
  151.4092  139.0894  154.8521 C   0  0  0  0  0  0  0  0  0  0  0  0
  152.3602  140.0216  154.9493 N   0  0  0  0  0  0  0  0  0  0  0  0
  153.0569  139.9343  156.1456 N   0  0  0  0  0  0  0  0  0  0  0  0
  152.6187  138.9466  156.9392 C   0  0  0  0  0  0  0  0  0  0  0  0
  153.1657  138.6937  158.1396 N   0  5  0  0  0  0  0  0  0  0  0  0
  153.9142  139.6373  158.7552 C   0  0  0  0  0  0  0  0  0  0  0  0
  155.0236  140.0397  158.3974 O   0  0  0  0  0  0  0  0  0  0  0  0
  153.3412  140.1472  159.8534 N   0  0  0  0  0  0  0  0  0  0  0  0
  153.9242  141.1702  160.7156 C   0  0  0  0  0  0  0  0  0  0  0  0
  152.8684  142.1980  161.2078 C   0  0  1  0  0  0  0  0  0  0  0  0
  153.2612  142.6713  162.6308 C   0  0  0  0  0  0  0  0  0  0  0  0
  152.6600  143.3256  160.2687 N   0  0  0  0  0  0  0  0  0  0  0  0
  152.3078  142.8806  158.9153 C   0  0  0  0  0  0  0  0  0  0  0  0
  152.0581  144.0500  157.9470 C   0  0  0  0  0  0  0  0  0  0  0  0
  151.0394  144.8944  158.4647 O   0  0  0  0  0  0  0  0  0  0  0  0
  151.3766  145.4120  159.7441 C   0  0  0  0  0  0  0  0  0  0  0  0
  151.6173  144.2518  160.7252 C   0  0  0  0  0  0  0  0  0  0  0  0
  151.2927  138.0184  156.2383 S   0  0  0  0  0  0  0  0  0  0  0  0
  149.7624  139.7562  153.6861 H   0  0  0  0  0  0  0  0  0  0  0  0
  150.0161  138.0023  153.6617 H   0  0  0  0  0  0  0  0  0  0  0  0
  151.0976  139.0647  152.7459 H   0  0  0  0  0  0  0  0  0  0  0  0
  152.4330  139.7916  160.1137 H   0  0  0  0  0  0  0  0  0  0  0  0
  154.4116  140.7008  161.5718 H   0  0  0  0  0  0  0  0  0  0  0  0
  154.7032  141.6446  160.1213 H   0  0  0  0  0  0  0  0  0  0  0  0
  151.9232  141.6607  161.3007 H   0  0  0  0  0  0  0  0  0  0  0  0
  153.4685  141.8411  163.3052 H   0  0  0  0  0  0  0  0  0  0  0  0
  152.4648  143.2354  163.1140 H   0  0  0  0  0  0  0  0  0  0  0  0
  154.1524  143.2990  162.6041 H   0  0  0  0  0  0  0  0  0  0  0  0
  153.1085  142.2825  158.4850 H   0  0  0  0  0  0  0  0  0  0  0  0
  151.4212  142.2459  158.9534 H   0  0  0  0  0  0  0  0  0  0  0  0
  152.9729  144.6236  157.7904 H   0  0  0  0  0  0  0  0  0  0  0  0
  151.7459  143.6741  156.9726 H   0  0  0  0  0  0  0  0  0  0  0  0
  152.2624  146.0448  159.6686 H   0  0  0  0  0  0  0  0  0  0  0  0
  150.5617  146.0437  160.0977 H   0  0  0  0  0  0  0  0  0  0  0  0
  150.6832  143.7096  160.8809 H   0  0  0  0  0  0  0  0  0  0  0  0
  151.8892  144.6953  161.6812 H   0  0  0  0  0  0  0  0  0  0  0  0
  1  2  1  0  0  0  0
  1 20  1  0  0  0  0
  1 21  1  0  0  0  0
  1 22  1  0  0  0  0
  2 19  1  0  0  0  0
  2  3  2  0  0  0  0
  3  4  1  0  0  0  0
  4  5  2  0  0  0  0
  5  6  1  0  0  0  0
  5 19  1  0  0  0  0
  6  7  1  0  0  0  0
  7  8  2  0  0  0  0
  7  9  1  0  0  0  0
  9 10  1  0  0  0  0
  9 23  1  0  0  0  0
 10 11  1  0  0  0  0
 10 24  1  0  0  0  0
 10 25  1  0  0  0  0
 11 12  1  0  0  0  0
 11 13  1  0  0  0  0
 11 26  1  0  0  0  0
 12 27  1  0  0  0  0
 12 28  1  0  0  0  0
 12 29  1  0  0  0  0
 13 18  1  0  0  0  0
 13 14  1  0  0  0  0
 14 15  1  0  0  0  0
 14 30  1  0  0  0  0
 14 31  1  0  0  0  0
 15 16  1  0  0  0  0
 15 32  1  0  0  0  0
 15 33  1  0  0  0  0
 16 17  1  0  0  0  0
 17 18  1  0  0  0  0
 17 34  1  0  0  0  0
 17 35  1  0  0  0  0
 18 36  1  0  0  0  0
 18 37  1  0  0  0  0
M  CHG  1   6  -1
M  END
> <s_m_source_file>
AV-unprocessed.smi

> <i_m_source_file_index>
2069

> <i_lp_mmshare_version>
43012

> <i_f3d_flags>
0

> <s_epik_input>
W0NIM11jMW5uYyhzMSlbTkhdQyg9TylbTkhdW0NIMl1bQ0BIXShbQ0gzXSlOMltDSDJdW0NIMl1PW0NIMl1bQ0gyXTI=

> <s_epik_cmdline>
J2VwaWtfcHl0aG9uJywgJy1waCcsICc3LjAnLCAnLXRuJywgJzgnLCAnLW1hJywgJzIwMCcsICctbWV0YWxfYmluZGluZycsICctaW1hZScsICc8aW5maWxlLm1hZT4nLCAnLW9tYWUnLCAnPG91dGZpbGUubWFlPic=

> <r_lp_tautomer_probability>
1

> <r_epik_Ionization_Penalty>
3.82002

> <r_epik_Ionization_Penalty_Charging>
3.36369

> <r_epik_Ionization_Penalty_Neutral>
0.456339

> <r_epik_State_Penalty>
3.571

> <r_epik_Charging_Adjusted_Penalty>
6.93469

> <i_epik_Tot_Q>
-1

> <i_epik_Tot_abs_Q>
1

> <r_epik_Metal_State_Penalty>
0.710436

> <b_epik_Metal_Only>
1

> <s_lp_Force_Field>
OPLS_2005

> <r_lp_Energy>
26.7527

> <b_lp_Chiralities_Consistent>
1

> <s_lp_Variant>
AV-unprocessed.smi:2069-6

> <Gold.Version>
5.8.1

> <Gold.Id.Protein>
6NUR|6NUR_protein|mol2

> <Gold.PLP.Fitness>
42.3322

> <Gold.PLP.PLP>
-38.9796

> <Gold.PLP.part.hbond>
-2.9115

> <Gold.PLP.part.metal>
0.0000

> <Gold.PLP.part.buried>
-3.7234

> <Gold.PLP.part.nonpolar>
-32.8831

> <Gold.PLP.part.repulsive>
0.2745

> <Gold.PLP.ligand.clash>
0.0000

> <Gold.PLP.ligand.torsion>
1.2511

> <Gold.PLP.Chemscore.Hbond>
1.9440

> <Gold.PLP.Chemscore.CHOScore>
0.0000

> <Gold.PLP.Chemscore.Metal>
0.0000

> <Gold.Chemscore.Hbonds>
donor molecule, donor type, donor heavy atom, donor atom, acceptor molecule, acceptor atom, score
      P1  H  7989  7998       L1     3  0.32
      P1  H  7997  8009       L1     8  0.11

> <Gold.PLP.Chemscore.Internal.Correction>
0.0228

> <Gold.Rescore>
     Score         DG    S(hbond)    S(metal)    S(lipo)     H(rot)  DE(clash)    DE(int)     intcor
     14.00     -17.78       1.76        0.00      89.39       1.57       1.47       2.32       ----

> <Gold.Chemscore.Fitness>
13.9988

> <Gold.Chemscore.DG>
-17.7820

> <Gold.Chemscore.ZeroCoef>
-5.4800

> <Gold.Chemscore.Hbond>
1.7575

> <Gold.Chemscore.Metal>
0.0000

> <Gold.Chemscore.Lipo>
89.3949

> <Gold.Chemscore.Internal_Hbond>
0.0000

> <Gold.Chemscore.DEClash>
1.4665

> <Gold.Chemscore.DEInternal>
2.3167

> <Gold.Chemscore.Rot>
1.5732

> <Gold.Chemscore.Internal.Correction>
   9.000000E+99

> <Gold.Chemscore.Hbonds>
donor molecule, donor type, donor heavy atom, donor atom, acceptor molecule, acceptor atom, score
      P1  H  7989  7998       L1     3  0.01
      P1  H  7997  8009       L1     8  0.02
      P1  H  7997  8010       L1     4  0.01

> <Gold.Chemscore.Hbond.Weighted>
-5.8702

> <Gold.Chemscore.Metal.Weighted>
-0.0000

> <Gold.Chemscore.Lipo.Weighted>
-10.4592

> <Gold.Chemscore.Internal_Hbond.Weighted>
0.0000

> <Gold.Chemscore.DEClash.Weighted>
1.4665

> <Gold.Chemscore.DEInternal.Weighted>
2.3167

> <Gold.Chemscore.Rot.Weighted>
4.0274

> <Gold.Chemscore.Internal.Correction.Weighted>
   9.000000E+99

> <Gold.Protein.RotatedTorsions>
[ 6907 6896 6895 6894 ] final  -68.58 input  -60.11 | X-H torsion
[ 7974 7965 7964 7962 ] final  103.30 input  175.53 | X-H torsion
[ 8008 7997 7996 7995 ] final  142.59 input   59.86 | X-H torsion
[ 10167 10162 10161 10158 ] final  -65.07 input  -65.29 | X-H torsion
[ 10718 10713 10712 10709 ] final  114.41 input   66.30 | X-H torsion
[ 10763 10752 10751 10750 ] final -144.09 input  -60.55 | X-H torsion
[ 11005 11000 10999 10996 ] final    3.82 input  -57.11 | X-H torsion

> <Gold.Protein.ActiveResidues>
 VAL166  LYS551  ARG553  GLY616  TRP617  ASP618  TYR619  PRO620  LYS621  CYS622 
 ASP623  PHE694  ASN695  SER759  ASP760  ASP761  ALA762  ILE779  LEU786  VAL792 
 PHE793  MET794  SER795  GLU796  ALA797  LYS798  CYS799  TRP800  GLU811  SER814 

> <Gold.Protein.RotatedAtoms>
  150.7349  134.5719  159.5894 H   0  0  0  0  0  0  0  0  0  0  0  0  # atno 6907 bound_to 6896
  152.3155  134.7442  160.0335 H   0  0  0  0  0  0  0  0  0  0  0  0  # atno 6908 bound_to 6896
  151.7975  133.3330  159.3554 H   0  0  0  0  0  0  0  0  0  0  0  0  # atno 6909 bound_to 6896
  145.3478  139.2446  143.3574 H   0  0  0  0  0  0  0  0  0  0  0  0  # atno 7974 bound_to 7965
  156.2946  140.2285  156.4753 H   0  0  0  0  0  0  0  0  0  0  0  0  # atno 8008 bound_to 7997
  154.7900  140.0455  157.1214 H   0  0  0  0  0  0  0  0  0  0  0  0  # atno 8009 bound_to 7997
  154.9656  140.3060  155.5014 H   0  0  0  0  0  0  0  0  0  0  0  0  # atno 8010 bound_to 7997
  140.5756  143.2321  151.6450 H   0  0  0  0  0  0  0  0  0  0  0  0  # atno 10167 bound_to 10162
  157.6283  131.0998  150.7182 H   0  0  0  0  0  0  0  0  0  0  0  0  # atno 10718 bound_to 10713
  154.8442  135.3450  154.6292 H   0  0  0  0  0  0  0  0  0  0  0  0  # atno 10763 bound_to 10752
  153.6901  135.6975  153.5097 H   0  0  0  0  0  0  0  0  0  0  0  0  # atno 10764 bound_to 10752
  153.2601  135.4325  155.0841 H   0  0  0  0  0  0  0  0  0  0  0  0  # atno 10765 bound_to 10752
  140.5888  133.9944  155.8079 H   0  0  0  0  0  0  0  0  0  0  0  0  # atno 11005 bound_to 11000
  146.2981  140.4088  142.8714 LP  0  0  0  0  0  0  0  0  0  0  0  0  # atno 17320 bound_to 7965
  144.8741  140.7312  143.6028 LP  0  0  0  0  0  0  0  0  0  0  0  0  # atno 17321 bound_to 7965
  139.5141  144.3423  152.0729 LP  0  0  0  0  0  0  0  0  0  0  0  0  # atno 17342 bound_to 10162
  140.2566  144.4112  150.6201 LP  0  0  0  0  0  0  0  0  0  0  0  0  # atno 17343 bound_to 10162
  156.7526  130.4773  149.5453 LP  0  0  0  0  0  0  0  0  0  0  0  0  # atno 17370 bound_to 10713
  156.1469  130.6283  151.0543 LP  0  0  0  0  0  0  0  0  0  0  0  0  # atno 17371 bound_to 10713
  141.0948  133.9860  157.3177 LP  0  0  0  0  0  0  0  0  0  0  0  0  # atno 17394 bound_to 11000
  139.9283  135.0201  156.8313 LP  0  0  0  0  0  0  0  0  0  0  0  0  # atno 17395 bound_to 11000

$$$$
