AV-unprocessed.smi:3095|AV-procd|sdf|11795|dock7
  -GOLD-   2272017173D 1   1.00000     0.00000
 Structure written by MMmdl.
 24 25  0  0  0  0  0  0  0  0  1 V2000
  151.9623  144.9770  159.2330 C   0  0  0  0  0  0  0  0  0  0  0  0
  152.2102  143.5012  159.2357 C   0  0  0  0  0  0  0  0  0  0  0  0
  152.8304  142.7699  160.2177 C   0  0  0  0  0  0  0  0  0  0  0  0
  152.9041  141.0763  159.8168 S   0  0  0  0  0  0  0  0  0  0  0  0
  152.0912  141.4297  158.2960 C   0  0  0  0  0  0  0  0  0  0  0  0
  151.7247  140.3676  157.3088 C   0  0  1  0  0  0  0  0  0  0  0  0
  151.1610  140.9553  156.0007 C   0  0  0  0  0  0  0  0  0  0  0  0
  150.8893  139.8861  155.0414 N   0  0  0  0  0  0  0  0  0  0  0  0
  152.0804  139.0704  154.8090 C   0  0  0  0  0  0  0  0  0  0  0  0
  152.6307  138.5330  156.1427 C   0  0  0  0  0  0  0  0  0  0  0  0
  152.9042  139.6200  157.0209 O   0  0  0  0  0  0  0  0  0  0  0  0
  151.7869  142.7242  158.1537 N   0  0  0  0  0  0  0  0  0  0  0  0
  152.2851  145.4373  160.1672 H   0  0  0  0  0  0  0  0  0  0  0  0
  150.9024  145.1981  159.1062 H   0  0  0  0  0  0  0  0  0  0  0  0
  152.5022  145.4650  158.4211 H   0  0  0  0  0  0  0  0  0  0  0  0
  153.2444  143.1222  161.1509 H   0  0  0  0  0  0  0  0  0  0  0  0
  150.9865  139.7137  157.7766 H   0  0  0  0  0  0  0  0  0  0  0  0
  150.2491  141.5175  156.2029 H   0  0  0  0  0  0  0  0  0  0  0  0
  151.8767  141.6599  155.5747 H   0  0  0  0  0  0  0  0  0  0  0  0
  150.5761  140.2883  154.1636 H   0  0  0  0  0  0  0  0  0  0  0  0
  151.8428  138.2428  154.1404 H   0  0  0  0  0  0  0  0  0  0  0  0
  152.8465  139.6658  154.3110 H   0  0  0  0  0  0  0  0  0  0  0  0
  151.9255  137.8409  156.6062 H   0  0  0  0  0  0  0  0  0  0  0  0
  153.5533  137.9785  155.9708 H   0  0  0  0  0  0  0  0  0  0  0  0
  1  2  1  0  0  0  0
  1 13  1  0  0  0  0
  1 14  1  0  0  0  0
  1 15  1  0  0  0  0
  2 12  1  0  0  0  0
  2  3  2  0  0  0  0
  3  4  1  0  0  0  0
  3 16  1  0  0  0  0
  4  5  1  0  0  0  0
  5  6  1  0  0  0  0
  5 12  2  0  0  0  0
  6 11  1  0  0  0  0
  6  7  1  0  0  0  0
  6 17  1  0  0  0  0
  7  8  1  0  0  0  0
  7 18  1  0  0  0  0
  7 19  1  0  0  0  0
  8  9  1  0  0  0  0
  8 20  1  0  0  0  0
  9 10  1  0  0  0  0
  9 21  1  0  0  0  0
  9 22  1  0  0  0  0
 10 11  1  0  0  0  0
 10 23  1  0  0  0  0
 10 24  1  0  0  0  0
M  END
> <s_m_source_file>
AV-unprocessed.smi

> <i_m_source_file_index>
3095

> <i_lp_mmshare_version>
43012

> <i_f3d_flags>
0

> <s_epik_input>
W0NIM11jMVtjSF1zYyhuMSlbQ0BASF0yW0NIMl1bTkhdW0NIMl1bQ0gyXU8y

> <s_epik_cmdline>
J2VwaWtfcHl0aG9uJywgJy1waCcsICc3LjAnLCAnLXRuJywgJzgnLCAnLW1hJywgJzIwMCcsICctbWV0YWxfYmluZGluZycsICctaW1hZScsICc8aW5maWxlLm1hZT4nLCAnLW9tYWUnLCAnPG91dGZpbGUubWFlPic=

> <r_epik_Ionization_Penalty>
0.982843

> <r_epik_Ionization_Penalty_Charging>
0

> <r_epik_Ionization_Penalty_Neutral>
0.982843

> <r_epik_State_Penalty>
2.16535

> <r_epik_Charging_Adjusted_Penalty>
2.16535

> <i_epik_Tot_Q>
0

> <i_epik_Tot_abs_Q>
0

> <r_epik_Metal_State_Penalty>
2.16288

> <b_epik_Metal_Only>
0

> <s_lp_Force_Field>
OPLS_2005

> <r_lp_Energy>
7.28811

> <b_lp_Chiralities_Consistent>
1

> <s_lp_Variant>
AV-unprocessed.smi:3095-4

> <Gold.Version>
5.8.1

> <Gold.Id.Protein>
6NUR|6NUR_protein|mol2

> <Gold.PLP.Fitness>
32.9502

> <Gold.PLP.PLP>
-30.1909

> <Gold.PLP.part.hbond>
-2.0000

> <Gold.PLP.part.metal>
0.0000

> <Gold.PLP.part.buried>
-2.3657

> <Gold.PLP.part.nonpolar>
-24.5249

> <Gold.PLP.part.repulsive>
0.0344

> <Gold.PLP.ligand.clash>
0.0000

> <Gold.PLP.ligand.torsion>
0.1259

> <Gold.PLP.Chemscore.Hbond>
1.0000

> <Gold.PLP.Chemscore.CHOScore>
0.0000

> <Gold.PLP.Chemscore.Metal>
0.0000

> <Gold.Chemscore.Hbonds>
donor molecule, donor type, donor heavy atom, donor atom, acceptor molecule, acceptor atom, score
      P1  H  7997  8009       L1    11  1.00

> <Gold.PLP.Chemscore.Internal.Correction>
0.0110

> <Gold.Rescore>
     Score         DG    S(hbond)    S(metal)    S(lipo)     H(rot)  DE(clash)    DE(int)     intcor
     15.61     -16.01       0.98        0.00      83.89       1.00       0.01       0.40       ----

> <Gold.Chemscore.Fitness>
15.6052

> <Gold.Chemscore.DG>
-16.0116

> <Gold.Chemscore.ZeroCoef>
-5.4800

> <Gold.Chemscore.Hbond>
0.9808

> <Gold.Chemscore.Metal>
0.0000

> <Gold.Chemscore.Lipo>
83.8948

> <Gold.Chemscore.Internal_Hbond>
0.0000

> <Gold.Chemscore.DEClash>
0.0068

> <Gold.Chemscore.DEInternal>
0.3995

> <Gold.Chemscore.Rot>
1.0000

> <Gold.Chemscore.Internal.Correction>
   9.000000E+99

> <Gold.Chemscore.Hbonds>
donor molecule, donor type, donor heavy atom, donor atom, acceptor molecule, acceptor atom, score
      P1  H  7997  8009       L1    11  0.54

> <Gold.Chemscore.Hbond.Weighted>
-3.2759

> <Gold.Chemscore.Metal.Weighted>
-0.0000

> <Gold.Chemscore.Lipo.Weighted>
-9.8157

> <Gold.Chemscore.Internal_Hbond.Weighted>
0.0000

> <Gold.Chemscore.DEClash.Weighted>
0.0068

> <Gold.Chemscore.DEInternal.Weighted>
0.3995

> <Gold.Chemscore.Rot.Weighted>
2.5600

> <Gold.Chemscore.Internal.Correction.Weighted>
   9.000000E+99

> <Gold.Protein.RotatedTorsions>
[ 6907 6896 6895 6894 ] final   82.43 input  -60.11 | X-H torsion
[ 7974 7965 7964 7962 ] final  127.58 input  175.53 | X-H torsion
[ 8008 7997 7996 7995 ] final  176.55 input   59.86 | X-H torsion
[ 10167 10162 10161 10158 ] final -172.83 input  -65.29 | X-H torsion
[ 10718 10713 10712 10709 ] final  -54.48 input   66.30 | X-H torsion
[ 10763 10752 10751 10750 ] final   78.70 input  -60.55 | X-H torsion
[ 11005 11000 10999 10996 ] final   93.30 input  -57.11 | X-H torsion

> <Gold.Protein.ActiveResidues>
 VAL166  LYS551  ARG553  GLY616  TRP617  ASP618  TYR619  PRO620  LYS621  CYS622 
 ASP623  PHE694  ASN695  SER759  ASP760  ASP761  ALA762  ILE779  LEU786  VAL792 
 PHE793  MET794  SER795  GLU796  ALA797  LYS798  CYS799  TRP800  GLU811  SER814 

> <Gold.Protein.RotatedAtoms>
  152.5299  134.3051  159.9092 H   0  0  0  0  0  0  0  0  0  0  0  0  # atno 6907 bound_to 6896
  151.3001  133.4120  159.2647 H   0  0  0  0  0  0  0  0  0  0  0  0  # atno 6908 bound_to 6896
  151.0126  134.9425  159.8073 H   0  0  0  0  0  0  0  0  0  0  0  0  # atno 6909 bound_to 6896
  145.0490  139.3899  143.5063 H   0  0  0  0  0  0  0  0  0  0  0  0  # atno 7974 bound_to 7965
  156.0752  140.1381  156.9780 H   0  0  0  0  0  0  0  0  0  0  0  0  # atno 8008 bound_to 7997
  154.4554  140.0963  156.6792 H   0  0  0  0  0  0  0  0  0  0  0  0  # atno 8009 bound_to 7997
  155.5164  140.3455  155.4400 H   0  0  0  0  0  0  0  0  0  0  0  0  # atno 8010 bound_to 7997
  139.5722  144.1615  152.1400 H   0  0  0  0  0  0  0  0  0  0  0  0  # atno 10167 bound_to 10162
  156.1448  130.4153  150.0043 H   0  0  0  0  0  0  0  0  0  0  0  0  # atno 10718 bound_to 10713
  153.0894  135.4867  154.8661 H   0  0  0  0  0  0  0  0  0  0  0  0  # atno 10763 bound_to 10752
  154.7251  135.3048  154.8986 H   0  0  0  0  0  0  0  0  0  0  0  0  # atno 10764 bound_to 10752
  153.9639  135.6809  153.4799 H   0  0  0  0  0  0  0  0  0  0  0  0  # atno 10765 bound_to 10752
  139.8812  134.8782  156.3698 H   0  0  0  0  0  0  0  0  0  0  0  0  # atno 11005 bound_to 11000
  146.3516  140.0130  142.8665 LP  0  0  0  0  0  0  0  0  0  0  0  0  # atno 17320 bound_to 7965
  145.1551  140.9644  143.4410 LP  0  0  0  0  0  0  0  0  0  0  0  0  # atno 17321 bound_to 7965
  140.1150  144.5423  150.6900 LP  0  0  0  0  0  0  0  0  0  0  0  0  # atno 17342 bound_to 10162
  140.7006  143.2432  151.4875 LP  0  0  0  0  0  0  0  0  0  0  0  0  # atno 17343 bound_to 10162
  156.7918  130.9259  151.3646 LP  0  0  0  0  0  0  0  0  0  0  0  0  # atno 17370 bound_to 10713
  157.6607  130.8963  149.9823 LP  0  0  0  0  0  0  0  0  0  0  0  0  # atno 17371 bound_to 10713
  140.9472  133.7475  156.0224 LP  0  0  0  0  0  0  0  0  0  0  0  0  # atno 17394 bound_to 11000
  140.8149  134.3356  157.5400 LP  0  0  0  0  0  0  0  0  0  0  0  0  # atno 17395 bound_to 11000

$$$$
