AV-unprocessed.smi:92|AV-procd|sdf|847|dock4
  -GOLD-   2262017283D 1   1.00000     0.00000
 Structure written by MMmdl.
 61 64  0  0  0  0  0  0  0  0  2 V2000
  152.3805  143.6634  159.0705 C   0  0  0  0  0  0  0  0  0  0  0  0
  151.7244  144.1671  157.7767 C   0  0  0  0  0  0  0  0  0  0  0  0
  150.5880  143.3157  157.3409 N   0  3  2  0  0  0  0  0  0  0  0  0
  149.7419  142.8443  158.4688 C   0  0  0  0  0  0  0  0  0  0  0  0
  148.5213  142.0412  157.9773 C   0  0  0  0  0  0  0  0  0  0  0  0
  148.8515  140.9259  156.9633 C   0  0  2  0  0  0  0  0  0  0  0  0
  149.2225  139.6451  157.5924 N   0  0  0  0  0  0  0  0  0  0  0  0
  150.4766  139.4264  158.3109 C   0  0  0  0  0  0  0  0  0  0  0  0
  148.5727  138.5344  157.1578 C   0  0  0  0  0  0  0  0  0  0  0  0
  147.2145  138.5032  157.2034 N   0  0  0  0  0  0  0  0  0  0  0  0
  146.5517  137.4142  156.8044 C   0  0  0  0  0  0  0  0  0  0  0  0
  147.0415  136.2688  156.3280 N   0  0  0  0  0  0  0  0  0  0  0  0
  148.4038  136.2968  156.2622 C   0  0  0  0  0  0  0  0  0  0  0  0
  149.2397  137.3813  156.6535 C   0  0  0  0  0  0  0  0  0  0  0  0
  150.5725  137.0537  156.4354 N   0  0  0  0  0  0  0  0  0  0  0  0
  150.5284  135.8416  155.9540 C   0  0  0  0  0  0  0  0  0  0  0  0
  149.2664  135.3082  155.8142 N   0  0  0  0  0  0  0  0  0  0  0  0
  148.9450  133.9988  155.3172 C   0  0  0  0  0  0  0  0  0  0  0  0
  149.2714  133.5814  153.8798 C   0  0  0  0  0  0  0  0  0  0  0  0
  147.9934  132.7097  153.8548 C   0  0  0  0  0  0  0  0  0  0  0  0
  147.1695  132.7341  152.5520 C   0  0  0  0  0  0  0  0  0  0  0  0
  147.0400  134.0357  152.0152 O   0  0  0  0  0  0  0  0  0  0  0  0
  148.2379  131.2317  154.2128 C   0  0  0  0  0  0  0  0  0  0  0  0
  148.6674  130.4864  153.0912 O   0  0  0  0  0  0  0  0  0  0  0  0
  147.4979  133.5994  155.0195 C   0  0  0  0  0  0  0  0  0  0  0  0
  149.8302  141.4401  155.8781 C   0  0  2  0  0  0  0  0  0  0  0  0
  150.2513  140.3662  154.8608 C   0  0  0  0  0  0  0  0  0  0  0  0
  151.0338  142.1919  156.4781 C   0  0  0  0  0  0  0  0  0  0  0  0
  153.1380  144.3685  159.4135 H   0  0  0  0  0  0  0  0  0  0  0  0
  152.8754  142.7024  158.9334 H   0  0  0  0  0  0  0  0  0  0  0  0
  151.6459  143.5554  159.8690 H   0  0  0  0  0  0  0  0  0  0  0  0
  151.3629  145.1790  157.9644 H   0  0  0  0  0  0  0  0  0  0  0  0
  152.4619  144.2476  156.9766 H   0  0  0  0  0  0  0  0  0  0  0  0
  150.3449  142.2667  159.1658 H   0  0  0  0  0  0  0  0  0  0  0  0
  149.3750  143.6988  159.0358 H   0  0  0  0  0  0  0  0  0  0  0  0
  147.9670  141.6340  158.8237 H   0  0  0  0  0  0  0  0  0  0  0  0
  147.8408  142.7418  157.4917 H   0  0  0  0  0  0  0  0  0  0  0  0
  147.9215  140.7490  156.4238 H   0  0  0  0  0  0  0  0  0  0  0  0
  150.4227  138.5186  158.9137 H   0  0  0  0  0  0  0  0  0  0  0  0
  150.7010  140.2384  158.9952 H   0  0  0  0  0  0  0  0  0  0  0  0
  151.3097  139.3170  157.6171 H   0  0  0  0  0  0  0  0  0  0  0  0
  145.4754  137.4672  156.8780 H   0  0  0  0  0  0  0  0  0  0  0  0
  151.4246  135.3010  155.6862 H   0  0  0  0  0  0  0  0  0  0  0  0
  149.3878  133.2862  156.0156 H   0  0  0  0  0  0  0  0  0  0  0  0
  149.2490  134.4165  153.1794 H   0  0  0  0  0  0  0  0  0  0  0  0
  150.2038  133.0251  153.7779 H   0  0  0  0  0  0  0  0  0  0  0  0
  147.6280  132.1024  151.7903 H   0  0  0  0  0  0  0  0  0  0  0  0
  146.1634  132.3479  152.7169 H   0  0  0  0  0  0  0  0  0  0  0  0
  147.8590  134.4924  152.1325 H   0  0  0  0  0  0  0  0  0  0  0  0
  148.9849  131.1382  155.0020 H   0  0  0  0  0  0  0  0  0  0  0  0
  147.3312  130.7628  154.5960 H   0  0  0  0  0  0  0  0  0  0  0  0
  148.6626  131.0520  152.3339 H   0  0  0  0  0  0  0  0  0  0  0  0
  147.0082  133.0629  155.8325 H   0  0  0  0  0  0  0  0  0  0  0  0
  146.8866  134.4422  154.6949 H   0  0  0  0  0  0  0  0  0  0  0  0
  149.2733  142.1831  155.3047 H   0  0  0  0  0  0  0  0  0  0  0  0
  150.8852  139.6041  155.3128 H   0  0  0  0  0  0  0  0  0  0  0  0
  150.8110  140.8081  154.0363 H   0  0  0  0  0  0  0  0  0  0  0  0
  149.3807  139.8658  154.4350 H   0  0  0  0  0  0  0  0  0  0  0  0
  151.6389  142.5883  155.6617 H   0  0  0  0  0  0  0  0  0  0  0  0
  151.6815  141.5241  157.0447 H   0  0  0  0  0  0  0  0  0  0  0  0
  150.0032  143.8981  156.7587 H   0  0  0  0  0  0  0  0  0  0  0  0
  1  2  1  0  0  0  0
  1 29  1  0  0  0  0
  1 30  1  0  0  0  0
  1 31  1  0  0  0  0
  2  3  1  0  0  0  0
  2 32  1  0  0  0  0
  2 33  1  0  0  0  0
  3 28  1  0  0  0  0
  3  4  1  0  0  0  0
  3 61  1  0  0  0  0
  4  5  1  0  0  0  0
  4 34  1  0  0  0  0
  4 35  1  0  0  0  0
  5  6  1  0  0  0  0
  5 36  1  0  0  0  0
  5 37  1  0  0  0  0
  6  7  1  0  0  0  0
  6 26  1  0  0  0  0
  6 38  1  0  0  0  0
  7  8  1  0  0  0  0
  7  9  1  0  0  0  0
  8 39  1  0  0  0  0
  8 40  1  0  0  0  0
  8 41  1  0  0  0  0
  9 14  1  0  0  0  0
  9 10  2  0  0  0  0
 10 11  1  0  0  0  0
 11 12  2  0  0  0  0
 11 42  1  0  0  0  0
 12 13  1  0  0  0  0
 13 17  1  0  0  0  0
 13 14  2  0  0  0  0
 14 15  1  0  0  0  0
 15 16  2  0  0  0  0
 16 17  1  0  0  0  0
 16 43  1  0  0  0  0
 17 18  1  0  0  0  0
 18 25  1  0  0  0  0
 18 19  1  0  0  0  0
 18 44  1  0  0  0  0
 19 20  1  0  0  0  0
 19 45  1  0  0  0  0
 19 46  1  0  0  0  0
 20 21  1  0  0  0  0
 20 23  1  0  0  0  0
 20 25  1  0  0  0  0
 21 22  1  0  0  0  0
 21 47  1  0  0  0  0
 21 48  1  0  0  0  0
 22 49  1  0  0  0  0
 23 24  1  0  0  0  0
 23 50  1  0  0  0  0
 23 51  1  0  0  0  0
 24 52  1  0  0  0  0
 25 53  1  0  0  0  0
 25 54  1  0  0  0  0
 26 27  1  0  0  0  0
 26 28  1  0  0  0  0
 26 55  1  0  0  0  0
 27 56  1  0  0  0  0
 27 57  1  0  0  0  0
 27 58  1  0  0  0  0
 28 59  1  0  0  0  0
 28 60  1  0  0  0  0
M  CHG  1   3   1
M  END
> <s_m_source_file>
AV-unprocessed.smi

> <i_m_source_file_index>
92

> <i_lp_mmshare_version>
43012

> <i_f3d_flags>
0

> <s_epik_input>
W0NIM11bQ0gyXU4xW0NIMl1bQ0gyXVtDQEhdKFtDQEBIXShbQ0gzXSlbQ0gyXTEpTihbQ0gzXSljKG5bY0hdbjIpYyhjMjMpbltjSF1uM1tDSF0oW0NIMl00KVtDSDJdQzQoW0NIMl1bT0hdKVtDSDJdW09IXQ==

> <s_epik_cmdline>
J2VwaWtfcHl0aG9uJywgJy1waCcsICc3LjAnLCAnLXRuJywgJzgnLCAnLW1hJywgJzIwMCcsICctbWV0YWxfYmluZGluZycsICctaW1hZScsICc8aW5maWxlLm1hZT4nLCAnLW9tYWUnLCAnPG91dGZpbGUubWFlPic=

> <r_lp_tautomer_probability>
1

> <r_epik_Ionization_Penalty>
0.00235514

> <r_epik_Ionization_Penalty_Charging>
0.00137877

> <r_epik_Ionization_Penalty_Neutral>
0.000976366

> <r_epik_State_Penalty>
-0

> <r_epik_Charging_Adjusted_Penalty>
0.00137877

> <i_epik_Tot_Q>
1

> <i_epik_Tot_abs_Q>
1

> <r_epik_Metal_State_Penalty>
-0

> <b_epik_Metal_Only>
0

> <s_lp_Force_Field>
OPLS_2005

> <r_lp_Energy>
59.507

> <b_lp_Chiralities_Consistent>
1

> <s_lp_Variant>
AV-unprocessed.smi:92-7

> <Gold.Version>
5.8.1

> <Gold.Id.Protein>
6NUR|6NUR_protein|mol2

> <Gold.PLP.Fitness>
46.0735

> <Gold.PLP.PLP>
-37.2424

> <Gold.PLP.part.hbond>
-3.0000

> <Gold.PLP.part.metal>
0.0000

> <Gold.PLP.part.buried>
-2.7820

> <Gold.PLP.part.nonpolar>
-31.3607

> <Gold.PLP.part.repulsive>
0.0091

> <Gold.PLP.ligand.clash>
0.0000

> <Gold.PLP.ligand.torsion>
1.6315

> <Gold.PLP.Chemscore.Hbond>
3.6960

> <Gold.PLP.Chemscore.CHOScore>
0.0000

> <Gold.PLP.Chemscore.Metal>
0.0000

> <Gold.Chemscore.Hbonds>
donor molecule, donor type, donor heavy atom, donor atom, acceptor molecule, acceptor atom, score
      L1  H     3    61       P1  8028  2.00
      L1  H    22    49       P1  7948  0.96
      L1  H    24    52       P1 10747  0.66

> <Gold.PLP.Chemscore.Internal.Correction>
1.0062

> <Gold.Rescore>
     Score         DG    S(hbond)    S(metal)    S(lipo)     H(rot)  DE(clash)    DE(int)     intcor
     10.08     -13.77       1.80        0.00      90.02       3.22       0.27       3.42       ----

> <Gold.Chemscore.Fitness>
10.0833

> <Gold.Chemscore.DG>
-13.7712

> <Gold.Chemscore.ZeroCoef>
-5.4800

> <Gold.Chemscore.Hbond>
1.7985

> <Gold.Chemscore.Metal>
0.0000

> <Gold.Chemscore.Lipo>
90.0215

> <Gold.Chemscore.Internal_Hbond>
0.0000

> <Gold.Chemscore.DEClash>
0.2668

> <Gold.Chemscore.DEInternal>
3.4211

> <Gold.Chemscore.Rot>
3.2219

> <Gold.Chemscore.Internal.Correction>
   9.000000E+99

> <Gold.Chemscore.Hbonds>
donor molecule, donor type, donor heavy atom, donor atom, acceptor molecule, acceptor atom, score
      L1  H     3    61       P1  8028  1.00
      L1  H    22    49       P1  7948  0.30
      L1  H    24    52       P1 10747  0.53

> <Gold.Chemscore.Hbond.Weighted>
-6.0069

> <Gold.Chemscore.Metal.Weighted>
-0.0000

> <Gold.Chemscore.Lipo.Weighted>
-10.5325

> <Gold.Chemscore.Internal_Hbond.Weighted>
0.0000

> <Gold.Chemscore.DEClash.Weighted>
0.2668

> <Gold.Chemscore.DEInternal.Weighted>
3.4211

> <Gold.Chemscore.Rot.Weighted>
8.2482

> <Gold.Chemscore.Internal.Correction.Weighted>
   9.000000E+99

> <Gold.Protein.RotatedTorsions>
[ 6907 6896 6895 6894 ] final    1.99 input  -60.11 | X-H torsion
[ 7974 7965 7964 7962 ] final -176.43 input  175.53 | X-H torsion
[ 8008 7997 7996 7995 ] final  104.22 input   59.86 | X-H torsion
[ 10167 10162 10161 10158 ] final -141.60 input  -65.29 | X-H torsion
[ 10718 10713 10712 10709 ] final -148.74 input   66.30 | X-H torsion
[ 10763 10752 10751 10750 ] final   49.15 input  -60.55 | X-H torsion
[ 11005 11000 10999 10996 ] final   22.92 input  -57.11 | X-H torsion

> <Gold.Protein.ActiveResidues>
 VAL166  LYS551  ARG553  GLY616  TRP617  ASP618  TYR619  PRO620  LYS621  CYS622 
 ASP623  PHE694  ASN695  SER759  ASP760  ASP761  ALA762  ILE779  LEU786  VAL792 
 PHE793  MET794  SER795  GLU796  ALA797  LYS798  CYS799  TRP800  GLU811  SER814 

> <Gold.Protein.RotatedAtoms>
  151.6017  135.1047  160.0061 H   0  0  0  0  0  0  0  0  0  0  0  0  # atno 6907 bound_to 6896
  152.4254  133.7183  159.6529 H   0  0  0  0  0  0  0  0  0  0  0  0  # atno 6908 bound_to 6896
  150.8143  133.8293  159.3190 H   0  0  0  0  0  0  0  0  0  0  0  0  # atno 6909 bound_to 6896
  144.7127  140.1171  143.6407 H   0  0  0  0  0  0  0  0  0  0  0  0  # atno 7974 bound_to 7965
  156.1554  140.3151  155.8716 H   0  0  0  0  0  0  0  0  0  0  0  0  # atno 8008 bound_to 7997
  155.3889  140.0492  157.3058 H   0  0  0  0  0  0  0  0  0  0  0  0  # atno 8009 bound_to 7997
  154.5096  140.2159  155.9194 H   0  0  0  0  0  0  0  0  0  0  0  0  # atno 8010 bound_to 7997
  139.8169  143.7627  152.2665 H   0  0  0  0  0  0  0  0  0  0  0  0  # atno 10167 bound_to 10162
  156.4242  130.8043  151.2268 H   0  0  0  0  0  0  0  0  0  0  0  0  # atno 10718 bound_to 10713
  152.9788  135.5921  154.4042 H   0  0  0  0  0  0  0  0  0  0  0  0  # atno 10763 bound_to 10752
  154.3684  135.2767  155.2282 H   0  0  0  0  0  0  0  0  0  0  0  0  # atno 10764 bound_to 10752
  154.4248  135.6050  153.6087 H   0  0  0  0  0  0  0  0  0  0  0  0  # atno 10765 bound_to 10752
  140.3753  134.1979  155.7665 H   0  0  0  0  0  0  0  0  0  0  0  0  # atno 11005 bound_to 11000
  145.9404  139.2665  143.1272 LP  0  0  0  0  0  0  0  0  0  0  0  0  # atno 17320 bound_to 7965
  145.9430  140.8965  143.0298 LP  0  0  0  0  0  0  0  0  0  0  0  0  # atno 17321 bound_to 7965
  139.7793  144.7450  151.0111 LP  0  0  0  0  0  0  0  0  0  0  0  0  # atno 17342 bound_to 10162
  140.7815  143.4559  151.0346 LP  0  0  0  0  0  0  0  0  0  0  0  0  # atno 17343 bound_to 10162
  157.7508  131.0219  150.3768 LP  0  0  0  0  0  0  0  0  0  0  0  0  # atno 17370 bound_to 10713
  156.4091  130.3930  149.6904 LP  0  0  0  0  0  0  0  0  0  0  0  0  # atno 17371 bound_to 10713
  141.1941  133.8135  157.0770 LP  0  0  0  0  0  0  0  0  0  0  0  0  # atno 17394 bound_to 11000
  140.0520  134.9800  157.1154 LP  0  0  0  0  0  0  0  0  0  0  0  0  # atno 17395 bound_to 11000

$$$$
