AV-unprocessed.smi:240|AV-procd|sdf|1831|dock2
  -GOLD-   2262020433D 1   1.00000     0.00000
 Structure written by MMmdl.
 55 59  0  0  0  0  0  0  0  0  1 V2000
  150.2151  140.2870  154.1119 O   0  0  0  0  0  0  0  0  0  0  0  0
  149.4846  141.3322  154.7204 C   0  0  1  0  0  0  0  0  0  0  0  0
  148.0358  141.3563  154.2349 C   0  0  0  0  0  0  0  0  0  0  0  0
  147.2820  142.1256  155.3243 C   0  0  0  0  0  0  0  0  0  0  0  0
  148.0963  141.9526  156.6171 C   0  0  0  0  0  0  0  0  0  0  0  0
  149.3459  141.1350  156.2363 C   0  0  2  0  0  0  0  0  0  0  0  0
  150.6278  141.4076  157.0809 C   0  0  1  0  0  0  0  0  0  0  0  0
  150.3998  142.3826  158.2644 C   0  0  0  0  0  0  0  0  0  0  0  0
  151.6167  142.5943  158.9709 O   0  0  0  0  0  0  0  0  0  0  0  0
  152.1177  141.3905  159.5355 C   0  0  0  0  0  0  0  0  0  0  0  0
  152.4330  140.4047  158.4035 C   0  0  0  0  0  0  0  0  0  0  0  0
  151.2480  140.1740  157.5853 N   0  0  0  0  0  0  0  0  0  0  0  0
  151.4761  139.1842  156.6923 C   0  0  0  0  0  0  0  0  0  0  0  0
  152.4326  139.4091  155.7583 N   0  0  0  0  0  0  0  0  0  0  0  0
  152.7119  138.4705  154.8490 C   0  0  0  0  0  0  0  0  0  0  0  0
  152.1586  137.2655  154.6958 N   0  0  0  0  0  0  0  0  0  0  0  0
  151.1855  137.0427  155.6257 C   0  0  0  0  0  0  0  0  0  0  0  0
  150.7826  137.9406  156.6535 C   0  0  0  0  0  0  0  0  0  0  0  0
  149.7665  137.3687  157.4096 N   0  0  0  0  0  0  0  0  0  0  0  0
  149.5850  136.1969  156.8650 C   0  0  0  0  0  0  0  0  0  0  0  0
  150.3861  135.9230  155.7791 N   0  0  0  0  0  0  0  0  0  0  0  0
  150.3923  134.7063  154.9807 C   0  0  0  0  0  0  0  0  0  0  0  0
  148.9784  134.1548  154.6784 C   0  0  1  0  0  0  0  0  0  0  0  0
  148.1400  135.2208  154.2662 O   0  0  0  0  0  0  0  0  0  0  0  0
  148.9803  133.0969  153.5814 C   0  0  0  0  0  0  0  0  0  0  0  0
  147.7894  132.2239  153.9523 C   0  0  0  0  0  0  0  0  0  0  0  0
  147.8753  132.1601  155.3654 O   0  0  0  0  0  0  0  0  0  0  0  0
  148.3001  133.4274  155.8586 C   0  0  0  0  0  0  0  0  0  0  0  0
  149.6042  139.6587  153.7582 H   0  0  0  0  0  0  0  0  0  0  0  0
  149.9494  142.2878  154.4814 H   0  0  0  0  0  0  0  0  0  0  0  0
  147.9285  141.8091  153.2488 H   0  0  0  0  0  0  0  0  0  0  0  0
  147.6440  140.3393  154.1766 H   0  0  0  0  0  0  0  0  0  0  0  0
  147.2317  143.1834  155.0634 H   0  0  0  0  0  0  0  0  0  0  0  0
  146.2577  141.7675  155.4330 H   0  0  0  0  0  0  0  0  0  0  0  0
  148.3522  142.9321  157.0180 H   0  0  0  0  0  0  0  0  0  0  0  0
  147.5182  141.4382  157.3857 H   0  0  0  0  0  0  0  0  0  0  0  0
  149.0690  140.0871  156.3631 H   0  0  0  0  0  0  0  0  0  0  0  0
  151.3523  141.8895  156.4246 H   0  0  0  0  0  0  0  0  0  0  0  0
  150.0622  143.3550  157.9101 H   0  0  0  0  0  0  0  0  0  0  0  0
  149.6423  142.0158  158.9571 H   0  0  0  0  0  0  0  0  0  0  0  0
  153.0210  141.6120  160.1041 H   0  0  0  0  0  0  0  0  0  0  0  0
  151.3940  140.9678  160.2344 H   0  0  0  0  0  0  0  0  0  0  0  0
  153.2357  140.8013  157.7797 H   0  0  0  0  0  0  0  0  0  0  0  0
  152.7875  139.4628  158.8248 H   0  0  0  0  0  0  0  0  0  0  0  0
  153.4908  138.7202  154.1437 H   0  0  0  0  0  0  0  0  0  0  0  0
  148.8528  135.4983  157.2426 H   0  0  0  0  0  0  0  0  0  0  0  0
  150.9224  134.9106  154.0496 H   0  0  0  0  0  0  0  0  0  0  0  0
  150.9832  133.9572  155.5095 H   0  0  0  0  0  0  0  0  0  0  0  0
  148.3293  135.4192  153.3621 H   0  0  0  0  0  0  0  0  0  0  0  0
  148.9144  133.5084  152.5732 H   0  0  0  0  0  0  0  0  0  0  0  0
  149.8898  132.4969  153.6352 H   0  0  0  0  0  0  0  0  0  0  0  0
  146.8498  132.6967  153.6622 H   0  0  0  0  0  0  0  0  0  0  0  0
  147.8332  131.2328  153.5004 H   0  0  0  0  0  0  0  0  0  0  0  0
  148.9849  133.2514  156.6876 H   0  0  0  0  0  0  0  0  0  0  0  0
  147.4465  133.9820  156.2518 H   0  0  0  0  0  0  0  0  0  0  0  0
  1  2  1  0  0  0  0
  1 29  1  0  0  0  0
  2  6  1  0  0  0  0
  2  3  1  0  0  0  0
  2 30  1  0  0  0  0
  3  4  1  0  0  0  0
  3 31  1  0  0  0  0
  3 32  1  0  0  0  0
  4  5  1  0  0  0  0
  4 33  1  0  0  0  0
  4 34  1  0  0  0  0
  5  6  1  0  0  0  0
  5 35  1  0  0  0  0
  5 36  1  0  0  0  0
  6  7  1  0  0  0  0
  6 37  1  0  0  0  0
  7 12  1  0  0  0  0
  7  8  1  0  0  0  0
  7 38  1  0  0  0  0
  8  9  1  0  0  0  0
  8 39  1  0  0  0  0
  8 40  1  0  0  0  0
  9 10  1  0  0  0  0
 10 11  1  0  0  0  0
 10 41  1  0  0  0  0
 10 42  1  0  0  0  0
 11 12  1  0  0  0  0
 11 43  1  0  0  0  0
 11 44  1  0  0  0  0
 12 13  1  0  0  0  0
 13 18  1  0  0  0  0
 13 14  2  0  0  0  0
 14 15  1  0  0  0  0
 15 16  2  0  0  0  0
 15 45  1  0  0  0  0
 16 17  1  0  0  0  0
 17 21  1  0  0  0  0
 17 18  2  0  0  0  0
 18 19  1  0  0  0  0
 19 20  2  0  0  0  0
 20 21  1  0  0  0  0
 20 46  1  0  0  0  0
 21 22  1  0  0  0  0
 22 23  1  0  0  0  0
 22 47  1  0  0  0  0
 22 48  1  0  0  0  0
 23 28  1  0  0  0  0
 23 24  1  0  0  0  0
 23 25  1  0  0  0  0
 24 49  1  0  0  0  0
 25 26  1  0  0  0  0
 25 50  1  0  0  0  0
 25 51  1  0  0  0  0
 26 27  1  0  0  0  0
 26 52  1  0  0  0  0
 26 53  1  0  0  0  0
 27 28  1  0  0  0  0
 28 54  1  0  0  0  0
 28 55  1  0  0  0  0
M  END
> <s_m_source_file>
AV-unprocessed.smi

> <i_m_source_file_index>
240

> <i_lp_mmshare_version>
43012

> <i_f3d_flags>
0

> <s_epik_input>
W09IXVtDQEBIXTFbQ0gyXVtDSDJdW0NIMl1bQ0BIXTFbQ0BASF0yW0NIMl1PW0NIMl1bQ0gyXU4yYyhuW2NIXW4zKWMoYzM0KW5bY0hdbjRbQ0gyXVtDQEBdNShbT0hdKVtDSDJdW0NIMl1PW0NIMl01

> <s_epik_cmdline>
J2VwaWtfcHl0aG9uJywgJy1waCcsICc3LjAnLCAnLXRuJywgJzgnLCAnLW1hJywgJzIwMCcsICctbWV0YWxfYmluZGluZycsICctaW1hZScsICc8aW5maWxlLm1hZT4nLCAnLW9tYWUnLCAnPG91dGZpbGUubWFlPic=

> <r_lp_tautomer_probability>
1

> <r_epik_Ionization_Penalty>
0.000130618

> <r_epik_Ionization_Penalty_Charging>
0

> <r_epik_Ionization_Penalty_Neutral>
0.000130618

> <r_epik_State_Penalty>
-0

> <r_epik_Charging_Adjusted_Penalty>
0

> <i_epik_Tot_Q>
0

> <i_epik_Tot_abs_Q>
0

> <r_epik_Metal_State_Penalty>
-0

> <b_epik_Metal_Only>
0

> <s_lp_Force_Field>
OPLS_2005

> <r_lp_Energy>
62.0257

> <b_lp_Chiralities_Consistent>
1

> <s_lp_Variant>
AV-unprocessed.smi:240-8

> <Gold.Version>
5.8.1

> <Gold.Id.Protein>
6NUR|6NUR_protein|mol2

> <Gold.PLP.Fitness>
47.7438

> <Gold.PLP.PLP>
-40.9317

> <Gold.PLP.part.hbond>
-4.8447

> <Gold.PLP.part.metal>
0.0000

> <Gold.PLP.part.buried>
-5.9204

> <Gold.PLP.part.nonpolar>
-30.6939

> <Gold.PLP.part.repulsive>
0.1220

> <Gold.PLP.ligand.clash>
0.0000

> <Gold.PLP.ligand.torsion>
1.9233

> <Gold.PLP.Chemscore.Hbond>
3.4783

> <Gold.PLP.Chemscore.CHOScore>
0.0000

> <Gold.PLP.Chemscore.Metal>
0.0000

> <Gold.Chemscore.Hbonds>
donor molecule, donor type, donor heavy atom, donor atom, acceptor molecule, acceptor atom, score
      L1  H    24    49       P1  7948  1.00
      P1  H  7989  7998       L1     1  0.93
      P1  H  7997  8009       L1    14  0.84
      P1  H 10752 10764       L1    16  0.64

> <Gold.PLP.Chemscore.Internal.Correction>
0.2239

> <Gold.Rescore>
     Score         DG    S(hbond)    S(metal)    S(lipo)     H(rot)  DE(clash)    DE(int)     intcor
     15.47     -17.38       3.09        0.00      79.13       3.00       0.05       1.85       ----

> <Gold.Chemscore.Fitness>
15.4728

> <Gold.Chemscore.DG>
-17.3759

> <Gold.Chemscore.ZeroCoef>
-5.4800

> <Gold.Chemscore.Hbond>
3.0920

> <Gold.Chemscore.Metal>
0.0000

> <Gold.Chemscore.Lipo>
79.1315

> <Gold.Chemscore.Internal_Hbond>
0.0000

> <Gold.Chemscore.DEClash>
0.0504

> <Gold.Chemscore.DEInternal>
1.8527

> <Gold.Chemscore.Rot>
3.0039

> <Gold.Chemscore.Internal.Correction>
   9.000000E+99

> <Gold.Chemscore.Hbonds>
donor molecule, donor type, donor heavy atom, donor atom, acceptor molecule, acceptor atom, score
      L1  H    24    49       P1  7948  0.99
      P1  H  7989  7998       L1     1  0.66
      P1  H  7997  8009       L1    14  0.28
      P1  H 10752 10764       L1    16  0.58

> <Gold.Chemscore.Hbond.Weighted>
-10.3274

> <Gold.Chemscore.Metal.Weighted>
-0.0000

> <Gold.Chemscore.Lipo.Weighted>
-9.2584

> <Gold.Chemscore.Internal_Hbond.Weighted>
0.0000

> <Gold.Chemscore.DEClash.Weighted>
0.0504

> <Gold.Chemscore.DEInternal.Weighted>
1.8527

> <Gold.Chemscore.Rot.Weighted>
7.6899

> <Gold.Chemscore.Internal.Correction.Weighted>
   9.000000E+99

> <Gold.Protein.RotatedTorsions>
[ 6907 6896 6895 6894 ] final    7.20 input  -60.11 | X-H torsion
[ 7974 7965 7964 7962 ] final   63.60 input  175.53 | X-H torsion
[ 8008 7997 7996 7995 ] final -155.76 input   59.86 | X-H torsion
[ 10167 10162 10161 10158 ] final  157.37 input  -65.29 | X-H torsion
[ 10718 10713 10712 10709 ] final   85.98 input   66.30 | X-H torsion
[ 10763 10752 10751 10750 ] final  -93.98 input  -60.55 | X-H torsion
[ 11005 11000 10999 10996 ] final   99.06 input  -57.11 | X-H torsion

> <Gold.Protein.ActiveResidues>
 VAL166  LYS551  ARG553  GLY616  TRP617  ASP618  TYR619  PRO620  LYS621  CYS622 
 ASP623  PHE694  ASN695  SER759  ASP760  ASP761  ALA762  ILE779  LEU786  VAL792 
 PHE793  MET794  SER795  GLU796  ALA797  LYS798  CYS799  TRP800  GLU811  SER814 

> <Gold.Protein.RotatedAtoms>
  151.6860  135.0954  160.0224 H   0  0  0  0  0  0  0  0  0  0  0  0  # atno 6907 bound_to 6896
  152.3807  133.6538  159.6167 H   0  0  0  0  0  0  0  0  0  0  0  0  # atno 6908 bound_to 6896
  150.7744  133.9035  159.3389 H   0  0  0  0  0  0  0  0  0  0  0  0  # atno 6909 bound_to 6896
  145.8599  139.3308  143.0825 H   0  0  0  0  0  0  0  0  0  0  0  0  # atno 7974 bound_to 7965
  155.7068  140.0773  157.2388 H   0  0  0  0  0  0  0  0  0  0  0  0  # atno 8008 bound_to 7997
  154.4064  140.1637  156.2305 H   0  0  0  0  0  0  0  0  0  0  0  0  # atno 8009 bound_to 7997
  155.9319  140.3390  155.6259 H   0  0  0  0  0  0  0  0  0  0  0  0  # atno 8010 bound_to 7997
  139.4823  144.4924  151.8289 H   0  0  0  0  0  0  0  0  0  0  0  0  # atno 10167 bound_to 10162
  157.6922  131.0197  150.2904 H   0  0  0  0  0  0  0  0  0  0  0  0  # atno 10718 bound_to 10713
  154.7011  135.5174  153.8528 H   0  0  0  0  0  0  0  0  0  0  0  0  # atno 10763 bound_to 10752
  153.0704  135.6599  154.0268 H   0  0  0  0  0  0  0  0  0  0  0  0  # atno 10764 bound_to 10752
  154.0127  135.3000  155.3370 H   0  0  0  0  0  0  0  0  0  0  0  0  # atno 10765 bound_to 10752
  139.8771  134.9078  156.4548 H   0  0  0  0  0  0  0  0  0  0  0  0  # atno 11005 bound_to 11000
  145.9260  140.9082  143.0381 LP  0  0  0  0  0  0  0  0  0  0  0  0  # atno 17320 bound_to 7965
  144.6727  140.1353  143.7441 LP  0  0  0  0  0  0  0  0  0  0  0  0  # atno 17321 bound_to 7965
  140.4409  144.1987  150.5891 LP  0  0  0  0  0  0  0  0  0  0  0  0  # atno 17342 bound_to 10162
  140.4684  143.2422  151.9123 LP  0  0  0  0  0  0  0  0  0  0  0  0  # atno 17343 bound_to 10162
  156.3436  130.3819  149.7388 LP  0  0  0  0  0  0  0  0  0  0  0  0  # atno 17370 bound_to 10713
  156.4889  130.8075  151.3086 LP  0  0  0  0  0  0  0  0  0  0  0  0  # atno 17371 bound_to 10713
  140.8906  133.7851  155.9567 LP  0  0  0  0  0  0  0  0  0  0  0  0  # atno 17394 bound_to 11000
  140.8758  134.2671  157.5169 LP  0  0  0  0  0  0  0  0  0  0  0  0  # atno 17395 bound_to 11000

$$$$
