AV-unprocessed.smi:1622|AV-procd|sdf|6498|dock2
  -GOLD-   22720 7163D 1   1.00000     0.00000
 Structure written by MMmdl.
 41 42  0  0  0  0  0  0  0  0  2 V2000
  146.2037  142.7261  157.8808 C   0  0  0  0  0  0  0  0  0  0  0  0
  146.6348  142.0013  156.5968 C   0  0  0  0  0  0  0  0  0  0  0  0
  145.5832  142.0341  155.4545 C   0  0  1  0  0  0  0  0  0  0  0  0
  145.3022  143.4798  154.9561 C   0  0  0  0  0  0  0  0  0  0  0  0
  143.9425  143.6612  154.4488 N   0  0  0  0  0  0  0  0  0  0  0  0
  143.1037  144.6467  154.7985 C   0  0  0  0  0  0  0  0  0  0  0  0
  143.3961  145.5348  155.5978 O   0  0  0  0  0  0  0  0  0  0  0  0
  141.9282  144.5318  154.1602 N   0  0  0  0  0  0  0  0  0  0  0  0
  140.7913  145.3708  154.2706 C   0  0  0  0  0  0  0  0  0  0  0  0
  139.7325  145.0972  153.5034 N   0  0  0  0  0  0  0  0  0  0  0  0
  138.6927  145.9923  153.7169 N   0  0  0  0  0  0  0  0  0  0  0  0
  138.9956  146.9162  154.6377 C   0  0  0  0  0  0  0  0  0  0  0  0
  138.0434  147.9857  155.0511 C   0  0  0  0  0  0  0  0  0  0  0  0
  140.6052  146.7673  155.3316 S   0  0  0  0  0  0  0  0  0  0  0  0
  145.9755  141.1473  154.3165 N   0  3  0  0  0  0  0  0  0  0  0  0
  147.1535  141.5719  153.5287 C   0  0  0  0  0  0  0  0  0  0  0  0
  147.6144  140.3160  152.7987 C   0  0  0  0  0  0  0  0  0  0  0  0
  147.3694  139.2134  153.8215 C   0  0  0  0  0  0  0  0  0  0  0  0
  146.2027  139.7240  154.6780 C   0  0  0  0  0  0  0  0  0  0  0  0
  146.9349  142.5660  158.6734 H   0  0  0  0  0  0  0  0  0  0  0  0
  145.2432  142.3556  158.2397 H   0  0  0  0  0  0  0  0  0  0  0  0
  146.1194  143.8023  157.7389 H   0  0  0  0  0  0  0  0  0  0  0  0
  147.5866  142.4034  156.2494 H   0  0  0  0  0  0  0  0  0  0  0  0
  146.8374  140.9719  156.8895 H   0  0  0  0  0  0  0  0  0  0  0  0
  144.6530  141.6378  155.8650 H   0  0  0  0  0  0  0  0  0  0  0  0
  145.4244  144.1820  155.7805 H   0  0  0  0  0  0  0  0  0  0  0  0
  146.0388  143.8001  154.2195 H   0  0  0  0  0  0  0  0  0  0  0  0
  143.6068  142.9692  153.7946 H   0  0  0  0  0  0  0  0  0  0  0  0
  141.8291  143.7524  153.5265 H   0  0  0  0  0  0  0  0  0  0  0  0
  137.2919  148.1498  154.2782 H   0  0  0  0  0  0  0  0  0  0  0  0
  138.5788  148.9200  155.2201 H   0  0  0  0  0  0  0  0  0  0  0  0
  137.5403  147.6980  155.9743 H   0  0  0  0  0  0  0  0  0  0  0  0
  146.9133  142.3756  152.8321 H   0  0  0  0  0  0  0  0  0  0  0  0
  147.9408  141.9200  154.1997 H   0  0  0  0  0  0  0  0  0  0  0  0
  146.9922  140.1501  151.9181 H   0  0  0  0  0  0  0  0  0  0  0  0
  148.6533  140.3713  152.4721 H   0  0  0  0  0  0  0  0  0  0  0  0
  147.1557  138.2523  153.3520 H   0  0  0  0  0  0  0  0  0  0  0  0
  148.2554  139.0870  154.4456 H   0  0  0  0  0  0  0  0  0  0  0  0
  146.4520  139.6117  155.7341 H   0  0  0  0  0  0  0  0  0  0  0  0
  145.2923  139.1542  154.4891 H   0  0  0  0  0  0  0  0  0  0  0  0
  145.2019  141.1481  153.6670 H   0  0  0  0  0  0  0  0  0  0  0  0
  1  2  1  0  0  0  0
  1 20  1  0  0  0  0
  1 21  1  0  0  0  0
  1 22  1  0  0  0  0
  2  3  1  0  0  0  0
  2 23  1  0  0  0  0
  2 24  1  0  0  0  0
  3  4  1  0  0  0  0
  3 15  1  0  0  0  0
  3 25  1  0  0  0  0
  4  5  1  0  0  0  0
  4 26  1  0  0  0  0
  4 27  1  0  0  0  0
  5  6  1  0  0  0  0
  5 28  1  0  0  0  0
  6  7  2  0  0  0  0
  6  8  1  0  0  0  0
  8  9  1  0  0  0  0
  8 29  1  0  0  0  0
  9 14  1  0  0  0  0
  9 10  2  0  0  0  0
 10 11  1  0  0  0  0
 11 12  2  0  0  0  0
 12 13  1  0  0  0  0
 12 14  1  0  0  0  0
 13 30  1  0  0  0  0
 13 31  1  0  0  0  0
 13 32  1  0  0  0  0
 15 19  1  0  0  0  0
 15 16  1  0  0  0  0
 15 41  1  0  0  0  0
 16 17  1  0  0  0  0
 16 33  1  0  0  0  0
 16 34  1  0  0  0  0
 17 18  1  0  0  0  0
 17 35  1  0  0  0  0
 17 36  1  0  0  0  0
 18 19  1  0  0  0  0
 18 37  1  0  0  0  0
 18 38  1  0  0  0  0
 19 39  1  0  0  0  0
 19 40  1  0  0  0  0
M  CHG  1  15   1
M  END
> <s_m_source_file>
AV-unprocessed.smi

> <i_m_source_file_index>
1622

> <i_lp_mmshare_version>
43012

> <i_f3d_flags>
0

> <s_epik_input>
W0NIMl0xW0NIMl1bQ0gyXVtDSDJdTjFbQ0BIXShbQ0gyXVtDSDNdKVtDSDJdW05IXUMoPU8pW05IXWMybm5jKHMyKVtDSDNd

> <s_epik_cmdline>
J2VwaWtfcHl0aG9uJywgJy1waCcsICc3LjAnLCAnLXRuJywgJzgnLCAnLW1hJywgJzIwMCcsICctbWV0YWxfYmluZGluZycsICctaW1hZScsICc8aW5maWxlLm1hZT4nLCAnLW9tYWUnLCAnPG91dGZpbGUubWFlPic=

> <r_lp_tautomer_probability>
1

> <r_epik_Ionization_Penalty>
0.00164835

> <r_epik_Ionization_Penalty_Charging>
0.00115997

> <r_epik_Ionization_Penalty_Neutral>
0.00048838

> <r_epik_State_Penalty>
-0

> <r_epik_Charging_Adjusted_Penalty>
0.00115997

> <i_epik_Tot_Q>
1

> <i_epik_Tot_abs_Q>
1

> <r_epik_Metal_State_Penalty>
0.216651

> <b_epik_Metal_Only>
0

> <s_lp_Force_Field>
OPLS_2005

> <r_lp_Energy>
37.4677

> <b_lp_Chiralities_Consistent>
1

> <s_lp_Variant>
AV-unprocessed.smi:1622-2

> <Gold.Version>
5.8.1

> <Gold.Id.Protein>
6NUR|6NUR_protein|mol2

> <Gold.PLP.Fitness>
42.1858

> <Gold.PLP.PLP>
-27.8709

> <Gold.PLP.part.hbond>
-3.8154

> <Gold.PLP.part.metal>
0.0000

> <Gold.PLP.part.buried>
-3.5073

> <Gold.PLP.part.nonpolar>
-20.5096

> <Gold.PLP.part.repulsive>
0.2563

> <Gold.PLP.ligand.clash>
0.0000

> <Gold.PLP.ligand.torsion>
0.4117

> <Gold.PLP.Chemscore.Hbond>
4.9913

> <Gold.PLP.Chemscore.CHOScore>
0.0000

> <Gold.PLP.Chemscore.Metal>
0.0000

> <Gold.Chemscore.Hbonds>
donor molecule, donor type, donor heavy atom, donor atom, acceptor molecule, acceptor atom, score
      L1  H     5    28       P1 10174  1.00
      L1  H     8    29       P1 10174  0.99
      L1  H    15    41       P1 10175  2.00
      P1  H 10162 10167       L1    10  1.00

> <Gold.PLP.Chemscore.Internal.Correction>
0.1646

> <Gold.Rescore>
     Score         DG    S(hbond)    S(metal)    S(lipo)     H(rot)  DE(clash)    DE(int)     intcor
     14.51     -15.63       2.86        0.00      43.90       1.77       0.01       1.11       ----

> <Gold.Chemscore.Fitness>
14.5136

> <Gold.Chemscore.DG>
-15.6337

> <Gold.Chemscore.ZeroCoef>
-5.4800

> <Gold.Chemscore.Hbond>
2.8618

> <Gold.Chemscore.Metal>
0.0000

> <Gold.Chemscore.Lipo>
43.9008

> <Gold.Chemscore.Internal_Hbond>
0.0000

> <Gold.Chemscore.DEClash>
0.0052

> <Gold.Chemscore.DEInternal>
1.1149

> <Gold.Chemscore.Rot>
1.7738

> <Gold.Chemscore.Internal.Correction>
   9.000000E+99

> <Gold.Chemscore.Hbonds>
donor molecule, donor type, donor heavy atom, donor atom, acceptor molecule, acceptor atom, score
      L1  H     5    28       P1 10174  0.24
      L1  H     8    29       P1 10174  0.87
      L1  H    15    41       P1 10175  0.51
      P1  H 10162 10167       L1    10  0.86

> <Gold.Chemscore.Hbond.Weighted>
-9.5584

> <Gold.Chemscore.Metal.Weighted>
-0.0000

> <Gold.Chemscore.Lipo.Weighted>
-5.1364

> <Gold.Chemscore.Internal_Hbond.Weighted>
0.0000

> <Gold.Chemscore.DEClash.Weighted>
0.0052

> <Gold.Chemscore.DEInternal.Weighted>
1.1149

> <Gold.Chemscore.Rot.Weighted>
4.5411

> <Gold.Chemscore.Internal.Correction.Weighted>
   9.000000E+99

> <Gold.Protein.RotatedTorsions>
[ 6907 6896 6895 6894 ] final  115.07 input  -60.11 | X-H torsion
[ 7974 7965 7964 7962 ] final  -23.88 input  175.53 | X-H torsion
[ 8008 7997 7996 7995 ] final  -70.75 input   59.86 | X-H torsion
[ 10167 10162 10161 10158 ] final -171.17 input  -65.29 | X-H torsion
[ 10718 10713 10712 10709 ] final   87.70 input   66.30 | X-H torsion
[ 10763 10752 10751 10750 ] final -170.90 input  -60.55 | X-H torsion
[ 11005 11000 10999 10996 ] final  -85.11 input  -57.11 | X-H torsion

> <Gold.Protein.ActiveResidues>
 VAL166  LYS551  ARG553  GLY616  TRP617  ASP618  TYR619  PRO620  LYS621  CYS622 
 ASP623  PHE694  ASN695  SER759  ASP760  ASP761  ALA762  ILE779  LEU786  VAL792 
 PHE793  MET794  SER795  GLU796  ALA797  LYS798  CYS799  TRP800  GLU811  SER814 

> <Gold.Protein.RotatedAtoms>
  152.4764  133.8149  159.7022 H   0  0  0  0  0  0  0  0  0  0  0  0  # atno 6907 bound_to 6896
  150.8784  133.7397  159.2946 H   0  0  0  0  0  0  0  0  0  0  0  0  # atno 6908 bound_to 6896
  151.4909  135.1061  159.9855 H   0  0  0  0  0  0  0  0  0  0  0  0  # atno 6909 bound_to 6896
  146.1589  140.4676  142.8580 H   0  0  0  0  0  0  0  0  0  0  0  0  # atno 7974 bound_to 7965
  154.5035  140.0828  156.7847 H   0  0  0  0  0  0  0  0  0  0  0  0  # atno 8008 bound_to 7997
  155.3947  140.3434  155.4235 H   0  0  0  0  0  0  0  0  0  0  0  0  # atno 8009 bound_to 7997
  156.1487  140.1551  156.8793 H   0  0  0  0  0  0  0  0  0  0  0  0  # atno 8010 bound_to 7997
  139.5818  144.1407  152.1524 H   0  0  0  0  0  0  0  0  0  0  0  0  # atno 10167 bound_to 10162
  157.6942  131.0266  150.3163 H   0  0  0  0  0  0  0  0  0  0  0  0  # atno 10718 bound_to 10713
  154.6365  135.2893  155.0155 H   0  0  0  0  0  0  0  0  0  0  0  0  # atno 10763 bound_to 10752
  154.1297  135.6535  153.4923 H   0  0  0  0  0  0  0  0  0  0  0  0  # atno 10764 bound_to 10752
  153.0305  135.5307  154.7214 H   0  0  0  0  0  0  0  0  0  0  0  0  # atno 10765 bound_to 10752
  141.1644  133.7382  156.8967 H   0  0  0  0  0  0  0  0  0  0  0  0  # atno 11005 bound_to 11000
  144.8000  140.6195  143.6484 LP  0  0  0  0  0  0  0  0  0  0  0  0  # atno 17320 bound_to 7965
  145.4639  139.1510  143.3851 LP  0  0  0  0  0  0  0  0  0  0  0  0  # atno 17321 bound_to 7965
  140.0961  144.5579  150.7021 LP  0  0  0  0  0  0  0  0  0  0  0  0  # atno 17342 bound_to 10162
  140.7095  143.2494  151.4624 LP  0  0  0  0  0  0  0  0  0  0  0  0  # atno 17343 bound_to 10162
  156.3657  130.3854  149.7215 LP  0  0  0  0  0  0  0  0  0  0  0  0  # atno 17370 bound_to 10713
  156.4647  130.7968  151.2988 LP  0  0  0  0  0  0  0  0  0  0  0  0  # atno 17371 bound_to 10713
  140.1611  134.9165  157.2716 LP  0  0  0  0  0  0  0  0  0  0  0  0  # atno 17394 bound_to 11000
  140.2610  134.3571  155.7406 LP  0  0  0  0  0  0  0  0  0  0  0  0  # atno 17395 bound_to 11000

$$$$
