AV-unprocessed.smi:1679|AV-procd|sdf|6734|dock4
  -GOLD-   22720 7483D 1   1.00000     0.00000
 Structure written by MMmdl.
 44 45  0  0  0  0  0  0  0  0  2 V2000
  151.7721  144.4216  158.0175 C   0  0  0  0  0  0  0  0  0  0  0  0
  152.4854  143.9584  159.2963 C   0  0  1  0  0  0  0  0  0  0  0  0
  151.8080  144.5131  160.5645 C   0  0  0  0  0  0  0  0  0  0  0  0
  152.5728  144.1054  161.8334 C   0  0  0  0  0  0  0  0  0  0  0  0
  152.7252  142.5796  161.9232 C   0  0  0  0  0  0  0  0  0  0  0  0
  153.3864  142.0075  160.6576 C   0  0  0  0  0  0  0  0  0  0  0  0
  152.6361  142.4204  159.3773 C   0  0  1  0  0  0  0  0  0  0  0  0
  151.3560  141.7966  159.4072 O   0  0  0  0  0  0  0  0  0  0  0  0
  151.3382  140.4702  158.9024 C   0  0  0  0  0  0  0  0  0  0  0  0
  151.5597  140.5009  157.3820 C   0  0  0  0  0  0  0  0  0  0  0  0
  151.6488  139.1626  156.8065 N   0  0  0  0  0  0  0  0  0  0  0  0
  151.4549  138.8588  155.5143 C   0  0  0  0  0  0  0  0  0  0  0  0
  151.1825  139.6990  154.6563 O   0  0  0  0  0  0  0  0  0  0  0  0
  151.6277  137.3863  155.1233 C   0  0  0  0  0  0  0  0  0  0  0  0
  150.7479  136.5040  155.9048 N   0  0  0  0  0  0  0  0  0  0  0  0
  149.6027  135.9908  155.2706 C   0  0  0  0  0  0  0  0  0  0  0  0
  148.7291  135.1953  155.9168 C   0  0  0  0  0  0  0  0  0  0  0  0
  148.9953  134.8683  157.3122 C   0  0  0  0  0  0  0  0  0  0  0  0
  148.2073  134.1457  157.9191 O   0  0  0  0  0  0  0  0  0  0  0  0
  150.1217  135.3876  157.8821 N   0  5  0  0  0  0  0  0  0  0  0  0
  151.0014  136.1945  157.2118 C   0  0  0  0  0  0  0  0  0  0  0  0
  152.0118  136.6523  157.7458 O   0  0  0  0  0  0  0  0  0  0  0  0
  150.7449  144.0618  157.9828 H   0  0  0  0  0  0  0  0  0  0  0  0
  152.2835  144.0570  157.1267 H   0  0  0  0  0  0  0  0  0  0  0  0
  151.7394  145.5099  157.9582 H   0  0  0  0  0  0  0  0  0  0  0  0
  153.4916  144.3786  159.2585 H   0  0  0  0  0  0  0  0  0  0  0  0
  151.7431  145.6002  160.5095 H   0  0  0  0  0  0  0  0  0  0  0  0
  150.7829  144.1465  160.6268 H   0  0  0  0  0  0  0  0  0  0  0  0
  153.5581  144.5729  161.8318 H   0  0  0  0  0  0  0  0  0  0  0  0
  152.0538  144.4798  162.7160 H   0  0  0  0  0  0  0  0  0  0  0  0
  153.3151  142.3166  162.8014 H   0  0  0  0  0  0  0  0  0  0  0  0
  151.7445  142.1234  162.0632 H   0  0  0  0  0  0  0  0  0  0  0  0
  154.4170  142.3600  160.6007 H   0  0  0  0  0  0  0  0  0  0  0  0
  153.4385  140.9205  160.7244 H   0  0  0  0  0  0  0  0  0  0  0  0
  153.2179  142.0708  158.5219 H   0  0  0  0  0  0  0  0  0  0  0  0
  152.0982  139.8583  159.3888 H   0  0  0  0  0  0  0  0  0  0  0  0
  150.3722  140.0137  159.1221 H   0  0  0  0  0  0  0  0  0  0  0  0
  150.7530  141.0526  156.8974 H   0  0  0  0  0  0  0  0  0  0  0  0
  152.4821  141.0351  157.1531 H   0  0  0  0  0  0  0  0  0  0  0  0
  151.8612  138.4066  157.4413 H   0  0  0  0  0  0  0  0  0  0  0  0
  151.4043  137.2886  154.0602 H   0  0  0  0  0  0  0  0  0  0  0  0
  152.6727  137.0856  155.2207 H   0  0  0  0  0  0  0  0  0  0  0  0
  149.4771  136.2884  154.2400 H   0  0  0  0  0  0  0  0  0  0  0  0
  147.8520  134.8121  155.4166 H   0  0  0  0  0  0  0  0  0  0  0  0
  1  2  1  0  0  0  0
  1 23  1  0  0  0  0
  1 24  1  0  0  0  0
  1 25  1  0  0  0  0
  2  7  1  0  0  0  0
  2  3  1  0  0  0  0
  2 26  1  0  0  0  0
  3  4  1  0  0  0  0
  3 27  1  0  0  0  0
  3 28  1  0  0  0  0
  4  5  1  0  0  0  0
  4 29  1  0  0  0  0
  4 30  1  0  0  0  0
  5  6  1  0  0  0  0
  5 31  1  0  0  0  0
  5 32  1  0  0  0  0
  6  7  1  0  0  0  0
  6 33  1  0  0  0  0
  6 34  1  0  0  0  0
  7  8  1  0  0  0  0
  7 35  1  0  0  0  0
  8  9  1  0  0  0  0
  9 10  1  0  0  0  0
  9 36  1  0  0  0  0
  9 37  1  0  0  0  0
 10 11  1  0  0  0  0
 10 38  1  0  0  0  0
 10 39  1  0  0  0  0
 11 12  1  0  0  0  0
 11 40  1  0  0  0  0
 12 13  2  0  0  0  0
 12 14  1  0  0  0  0
 14 15  1  0  0  0  0
 14 41  1  0  0  0  0
 14 42  1  0  0  0  0
 15 21  1  0  0  0  0
 15 16  1  0  0  0  0
 16 17  2  0  0  0  0
 16 43  1  0  0  0  0
 17 18  1  0  0  0  0
 17 44  1  0  0  0  0
 18 19  2  0  0  0  0
 18 20  1  0  0  0  0
 20 21  1  0  0  0  0
 21 22  2  0  0  0  0
M  CHG  1  20  -1
M  END
> <s_m_source_file>
AV-unprocessed.smi

> <i_m_source_file_index>
1679

> <i_lp_mmshare_version>
43012

> <i_f3d_flags>
0

> <s_epik_input>
W0NIM11bQ0BASF0xW0NIMl1bQ0gyXVtDSDJdW0NIMl1bQ0BIXTFPW0NIMl1bQ0gyXVtOSF1DKD1PKVtDSDJdbjJbY0hdW2NIXWMoPU8pW25IXWMyPU8=

> <s_epik_cmdline>
J2VwaWtfcHl0aG9uJywgJy1waCcsICc3LjAnLCAnLXRuJywgJzgnLCAnLW1hJywgJzIwMCcsICctbWV0YWxfYmluZGluZycsICctaW1hZScsICc8aW5maWxlLm1hZT4nLCAnLW9tYWUnLCAnPG91dGZpbGUubWFlPic=

> <r_lp_tautomer_probability>
0.999537

> <r_epik_Ionization_Penalty>
3.07454

> <r_epik_Ionization_Penalty_Charging>
2.80088e-08

> <r_epik_Ionization_Penalty_Neutral>
3.07454

> <r_epik_State_Penalty>
3.07357

> <r_epik_Charging_Adjusted_Penalty>
3.07357

> <i_epik_Tot_Q>
-1

> <i_epik_Tot_abs_Q>
1

> <r_epik_Metal_State_Penalty>
0.45948

> <b_epik_Metal_Only>
1

> <s_lp_Force_Field>
OPLS_2005

> <r_lp_Energy>
19.3996

> <b_lp_Chiralities_Consistent>
1

> <s_lp_Variant>
AV-unprocessed.smi:1679-6

> <Gold.Version>
5.8.1

> <Gold.Id.Protein>
6NUR|6NUR_protein|mol2

> <Gold.PLP.Fitness>
54.3415

> <Gold.PLP.PLP>
-44.2324

> <Gold.PLP.part.hbond>
-2.6052

> <Gold.PLP.part.metal>
0.0000

> <Gold.PLP.part.buried>
-6.3829

> <Gold.PLP.part.nonpolar>
-35.5451

> <Gold.PLP.part.repulsive>
0.1475

> <Gold.PLP.ligand.clash>
0.0000

> <Gold.PLP.ligand.torsion>
0.6783

> <Gold.PLP.Chemscore.Hbond>
2.7920

> <Gold.PLP.Chemscore.CHOScore>
1.0000

> <Gold.PLP.Chemscore.Metal>
0.0000

> <Gold.Chemscore.Hbonds>
donor molecule, donor type, donor heavy atom, donor atom, acceptor molecule, acceptor atom, score
      P1  H  6896  6907       L1    20  1.60
      P1  H  7989  7998       L1    13  1.00
      L1  C    16    43       P1  7948  1.00

> <Gold.PLP.Chemscore.Internal.Correction>
0.0898

> <Gold.Rescore>
     Score         DG    S(hbond)    S(metal)    S(lipo)     H(rot)  DE(clash)    DE(int)     intcor
     15.58     -17.72       1.77        0.00     107.63       2.45       0.00       2.14       ----

> <Gold.Chemscore.Fitness>
15.5762

> <Gold.Chemscore.DG>
-17.7222

> <Gold.Chemscore.ZeroCoef>
-5.4800

> <Gold.Chemscore.Hbond>
1.7721

> <Gold.Chemscore.Metal>
0.0000

> <Gold.Chemscore.Lipo>
107.6299

> <Gold.Chemscore.Internal_Hbond>
0.0000

> <Gold.Chemscore.DEClash>
0.0038

> <Gold.Chemscore.DEInternal>
2.1422

> <Gold.Chemscore.Rot>
2.4490

> <Gold.Chemscore.Internal.Correction>
   9.000000E+99

> <Gold.Chemscore.Hbonds>
donor molecule, donor type, donor heavy atom, donor atom, acceptor molecule, acceptor atom, score
      P1  H  6896  6907       L1    20  0.68
      P1  H  7989  7998       L1    13  1.00

> <Gold.Chemscore.Hbond.Weighted>
-5.9189

> <Gold.Chemscore.Metal.Weighted>
-0.0000

> <Gold.Chemscore.Lipo.Weighted>
-12.5927

> <Gold.Chemscore.Internal_Hbond.Weighted>
0.0000

> <Gold.Chemscore.DEClash.Weighted>
0.0038

> <Gold.Chemscore.DEInternal.Weighted>
2.1422

> <Gold.Chemscore.Rot.Weighted>
6.2694

> <Gold.Chemscore.Internal.Correction.Weighted>
   9.000000E+99

> <Gold.Protein.RotatedTorsions>
[ 6907 6896 6895 6894 ] final  -76.20 input  -60.11 | X-H torsion
[ 7974 7965 7964 7962 ] final   36.71 input  175.53 | X-H torsion
[ 8008 7997 7996 7995 ] final -170.47 input   59.86 | X-H torsion
[ 10167 10162 10161 10158 ] final  133.27 input  -65.29 | X-H torsion
[ 10718 10713 10712 10709 ] final  -13.61 input   66.30 | X-H torsion
[ 10763 10752 10751 10750 ] final   99.94 input  -60.55 | X-H torsion
[ 11005 11000 10999 10996 ] final  160.55 input  -57.11 | X-H torsion

> <Gold.Protein.ActiveResidues>
 VAL166  LYS551  ARG553  GLY616  TRP617  ASP618  TYR619  PRO620  LYS621  CYS622 
 ASP623  PHE694  ASN695  SER759  ASP760  ASP761  ALA762  ILE779  LEU786  VAL792 
 PHE793  MET794  SER795  GLU796  ALA797  LYS798  CYS799  TRP800  GLU811  SER814 

> <Gold.Protein.RotatedAtoms>
  150.7035  134.4607  159.5379 H   0  0  0  0  0  0  0  0  0  0  0  0  # atno 6907 bound_to 6896
  152.2282  134.8344  160.0486 H   0  0  0  0  0  0  0  0  0  0  0  0  # atno 6908 bound_to 6896
  151.9170  133.3540  159.3920 H   0  0  0  0  0  0  0  0  0  0  0  0  # atno 6909 bound_to 6896
  146.1191  139.5983  142.9301 H   0  0  0  0  0  0  0  0  0  0  0  0  # atno 7974 bound_to 7965
  155.9188  140.1070  157.1223 H   0  0  0  0  0  0  0  0  0  0  0  0  # atno 8008 bound_to 7997
  154.4051  140.1260  156.4717 H   0  0  0  0  0  0  0  0  0  0  0  0  # atno 8009 bound_to 7997
  155.7221  140.3469  155.5023 H   0  0  0  0  0  0  0  0  0  0  0  0  # atno 8010 bound_to 7997
  139.5304  144.6624  151.4971 H   0  0  0  0  0  0  0  0  0  0  0  0  # atno 10167 bound_to 10162
  156.6279  130.4893  149.6140 H   0  0  0  0  0  0  0  0  0  0  0  0  # atno 10718 bound_to 10713
  153.3077  135.4096  155.1308 H   0  0  0  0  0  0  0  0  0  0  0  0  # atno 10763 bound_to 10752
  154.8567  135.3557  154.5766 H   0  0  0  0  0  0  0  0  0  0  0  0  # atno 10764 bound_to 10752
  153.6194  135.7065  153.5375 H   0  0  0  0  0  0  0  0  0  0  0  0  # atno 10765 bound_to 10752
  140.2071  134.8295  157.3081 H   0  0  0  0  0  0  0  0  0  0  0  0  # atno 11005 bound_to 11000
  145.5504  141.0414  143.2281 LP  0  0  0  0  0  0  0  0  0  0  0  0  # atno 17320 bound_to 7965
  144.7580  139.7026  143.7246 LP  0  0  0  0  0  0  0  0  0  0  0  0  # atno 17321 bound_to 7965
  140.6478  143.8758  150.6755 LP  0  0  0  0  0  0  0  0  0  0  0  0  # atno 17342 bound_to 10162
  140.2113  143.3881  152.1716 LP  0  0  0  0  0  0  0  0  0  0  0  0  # atno 17343 bound_to 10162
  156.2259  130.6765  151.1415 LP  0  0  0  0  0  0  0  0  0  0  0  0  # atno 17370 bound_to 10713
  157.7209  131.0682  150.6140 LP  0  0  0  0  0  0  0  0  0  0  0  0  # atno 17371 bound_to 10713
  140.1991  134.4277  155.7672 LP  0  0  0  0  0  0  0  0  0  0  0  0  # atno 17394 bound_to 11000
  141.2227  133.7063  156.8154 LP  0  0  0  0  0  0  0  0  0  0  0  0  # atno 17395 bound_to 11000

$$$$
