AV-unprocessed.smi:1844|AV-procd|sdf|7509|dock4
  -GOLD-   22720 9213D 1   1.00000     0.00000
 Structure written by MMmdl.
 45 46  0  0  0  0  0  0  0  0  1 V2000
  146.9747  133.8764  151.2211 C   0  0  0  0  0  0  0  0  0  0  0  0
  147.8796  133.7389  152.3521 N   0  0  0  0  0  0  0  0  0  0  0  0
  148.0189  132.6211  153.0839 C   0  0  0  0  0  0  0  0  0  0  0  0
  147.3686  131.6034  152.8404 O   0  0  0  0  0  0  0  0  0  0  0  0
  148.9949  132.7418  154.1697 C   0  0  0  0  0  0  0  0  0  0  0  0
  149.9402  131.6897  154.5120 C   0  0  0  0  0  0  0  0  0  0  0  0
  150.8345  131.8677  155.5041 C   0  0  0  0  0  0  0  0  0  0  0  0
  150.8961  133.1132  156.2739 C   0  0  0  0  0  0  0  0  0  0  0  0
  151.7300  133.2917  157.1616 O   0  0  0  0  0  0  0  0  0  0  0  0
  149.9775  134.0678  155.9336 N   0  0  0  0  0  0  0  0  0  0  0  0
  149.9620  135.3791  156.6092 C   0  0  0  0  0  0  0  0  0  0  0  0
  150.9734  136.3927  156.0453 C   0  0  0  0  0  0  0  0  0  0  0  0
  151.6483  136.0895  155.0625 O   0  0  0  0  0  0  0  0  0  0  0  0
  151.0710  137.5826  156.6605 N   0  0  0  0  0  0  0  0  0  0  0  0
  151.9467  138.6901  156.2889 C   0  0  1  0  0  0  0  0  0  0  0  0
  151.7470  139.0671  154.8051 C   0  0  0  0  0  0  0  0  0  0  0  0
  150.3633  139.6900  154.5487 C   0  0  0  0  0  0  0  0  0  0  0  0
  150.1236  140.9017  155.4617 C   0  0  0  0  0  0  0  0  0  0  0  0
  150.3062  140.5338  156.9430 C   0  0  0  0  0  0  0  0  0  0  0  0
  151.6935  139.9107  157.2089 C   0  0  1  0  0  0  0  0  0  0  0  0
  151.8840  139.5824  158.7003 C   0  0  0  0  0  0  0  0  0  0  0  0
  149.0479  133.8777  154.8924 C   0  0  0  0  0  0  0  0  0  0  0  0
  147.0589  134.8775  150.7982 H   0  0  0  0  0  0  0  0  0  0  0  0
  145.9400  133.7228  151.5304 H   0  0  0  0  0  0  0  0  0  0  0  0
  147.2161  133.1546  150.4401 H   0  0  0  0  0  0  0  0  0  0  0  0
  148.4371  134.5442  152.5968 H   0  0  0  0  0  0  0  0  0  0  0  0
  149.9475  130.7471  153.9845 H   0  0  0  0  0  0  0  0  0  0  0  0
  151.5260  131.0723  155.7398 H   0  0  0  0  0  0  0  0  0  0  0  0
  148.9669  135.8211  156.5407 H   0  0  0  0  0  0  0  0  0  0  0  0
  150.1448  135.2636  157.6787 H   0  0  0  0  0  0  0  0  0  0  0  0
  150.4768  137.7380  157.4620 H   0  0  0  0  0  0  0  0  0  0  0  0
  152.9808  138.3698  156.4279 H   0  0  0  0  0  0  0  0  0  0  0  0
  152.5186  139.7795  154.5105 H   0  0  0  0  0  0  0  0  0  0  0  0
  151.8859  138.1934  154.1673 H   0  0  0  0  0  0  0  0  0  0  0  0
  150.2807  139.9909  153.5039 H   0  0  0  0  0  0  0  0  0  0  0  0
  149.5844  138.9445  154.7154 H   0  0  0  0  0  0  0  0  0  0  0  0
  150.8176  141.7003  155.1965 H   0  0  0  0  0  0  0  0  0  0  0  0
  149.1208  141.2972  155.2976 H   0  0  0  0  0  0  0  0  0  0  0  0
  150.1766  141.4263  157.5560 H   0  0  0  0  0  0  0  0  0  0  0  0
  149.5203  139.8400  157.2451 H   0  0  0  0  0  0  0  0  0  0  0  0
  152.4412  140.6636  156.9549 H   0  0  0  0  0  0  0  0  0  0  0  0
  151.1364  138.8738  159.0590 H   0  0  0  0  0  0  0  0  0  0  0  0
  151.8013  140.4819  159.3108 H   0  0  0  0  0  0  0  0  0  0  0  0
  152.8682  139.1505  158.8836 H   0  0  0  0  0  0  0  0  0  0  0  0
  148.4005  134.7257  154.7161 H   0  0  0  0  0  0  0  0  0  0  0  0
  1  2  1  0  0  0  0
  1 23  1  0  0  0  0
  1 24  1  0  0  0  0
  1 25  1  0  0  0  0
  2  3  1  0  0  0  0
  2 26  1  0  0  0  0
  3  4  2  0  0  0  0
  3  5  1  0  0  0  0
  5 22  2  0  0  0  0
  5  6  1  0  0  0  0
  6  7  2  0  0  0  0
  6 27  1  0  0  0  0
  7  8  1  0  0  0  0
  7 28  1  0  0  0  0
  8  9  2  0  0  0  0
  8 10  1  0  0  0  0
 10 11  1  0  0  0  0
 10 22  1  0  0  0  0
 11 12  1  0  0  0  0
 11 29  1  0  0  0  0
 11 30  1  0  0  0  0
 12 13  2  0  0  0  0
 12 14  1  0  0  0  0
 14 15  1  0  0  0  0
 14 31  1  0  0  0  0
 15 20  1  0  0  0  0
 15 16  1  0  0  0  0
 15 32  1  0  0  0  0
 16 17  1  0  0  0  0
 16 33  1  0  0  0  0
 16 34  1  0  0  0  0
 17 18  1  0  0  0  0
 17 35  1  0  0  0  0
 17 36  1  0  0  0  0
 18 19  1  0  0  0  0
 18 37  1  0  0  0  0
 18 38  1  0  0  0  0
 19 20  1  0  0  0  0
 19 39  1  0  0  0  0
 19 40  1  0  0  0  0
 20 21  1  0  0  0  0
 20 41  1  0  0  0  0
 21 42  1  0  0  0  0
 21 43  1  0  0  0  0
 21 44  1  0  0  0  0
 22 45  1  0  0  0  0
M  END
> <s_m_source_file>
AV-unprocessed.smi

> <i_m_source_file_index>
1844

> <i_lp_mmshare_version>
43012

> <i_f3d_flags>
0

> <s_epik_input>
W0NIM11bTkhdQyg9TyljMVtjSF1bY0hdYyg9TyluKFtjSF0xKVtDSDJdQyg9TylbTkhdW0NAQEhdMltDSDJdW0NIMl1bQ0gyXVtDSDJdW0NASF0yW0NIM10=

> <s_epik_cmdline>
J2VwaWtfcHl0aG9uJywgJy1waCcsICc3LjAnLCAnLXRuJywgJzgnLCAnLW1hJywgJzIwMCcsICctbWV0YWxfYmluZGluZycsICctaW1hZScsICc8aW5maWxlLm1hZT4nLCAnLW9tYWUnLCAnPG91dGZpbGUubWFlPic=

> <r_lp_tautomer_probability>
1

> <r_epik_Ionization_Penalty>
3.66612e-07

> <r_epik_Ionization_Penalty_Charging>
5.18929e-08

> <r_epik_Ionization_Penalty_Neutral>
3.14719e-07

> <r_epik_State_Penalty>
-0

> <r_epik_Charging_Adjusted_Penalty>
5.18929e-08

> <i_epik_Tot_Q>
0

> <i_epik_Tot_abs_Q>
0

> <r_epik_Metal_State_Penalty>
-0

> <b_epik_Metal_Only>
0

> <s_lp_Force_Field>
OPLS_2005

> <r_lp_Energy>
21.2081

> <b_lp_Chiralities_Consistent>
1

> <s_lp_Variant>
AV-unprocessed.smi:1844-2

> <Gold.Version>
5.8.1

> <Gold.Id.Protein>
6NUR|6NUR_protein|mol2

> <Gold.PLP.Fitness>
40.6730

> <Gold.PLP.PLP>
-35.7904

> <Gold.PLP.part.hbond>
-2.9773

> <Gold.PLP.part.metal>
0.0000

> <Gold.PLP.part.buried>
-2.2141

> <Gold.PLP.part.nonpolar>
-30.9746

> <Gold.PLP.part.repulsive>
0.2684

> <Gold.PLP.ligand.clash>
0.0000

> <Gold.PLP.ligand.torsion>
1.0230

> <Gold.PLP.Chemscore.Hbond>
2.3057

> <Gold.PLP.Chemscore.CHOScore>
0.0000

> <Gold.PLP.Chemscore.Metal>
0.0000

> <Gold.Chemscore.Hbonds>
donor molecule, donor type, donor heavy atom, donor atom, acceptor molecule, acceptor atom, score
      L1  H     2    26       P1  7948  0.65
      P1  H  6896  6907       L1     9  0.48
      P1  H 10752 10763       L1    13  0.93

> <Gold.PLP.Chemscore.Internal.Correction>
0.0115

> <Gold.Rescore>
     Score         DG    S(hbond)    S(metal)    S(lipo)     H(rot)  DE(clash)    DE(int)     intcor
     15.53     -16.61       2.03        0.00      69.74       1.49       0.01       1.06       ----

> <Gold.Chemscore.Fitness>
15.5338

> <Gold.Chemscore.DG>
-16.6092

> <Gold.Chemscore.ZeroCoef>
-5.4800

> <Gold.Chemscore.Hbond>
2.0330

> <Gold.Chemscore.Metal>
0.0000

> <Gold.Chemscore.Lipo>
69.7378

> <Gold.Chemscore.Internal_Hbond>
0.0000

> <Gold.Chemscore.DEClash>
0.0109

> <Gold.Chemscore.DEInternal>
1.0645

> <Gold.Chemscore.Rot>
1.4923

> <Gold.Chemscore.Internal.Correction>
   9.000000E+99

> <Gold.Chemscore.Hbonds>
donor molecule, donor type, donor heavy atom, donor atom, acceptor molecule, acceptor atom, score
      L1  H     2    26       P1  7948  0.11
      P1  H  6896  6907       L1     9  0.46
      P1  H 10752 10763       L1    13  0.88

> <Gold.Chemscore.Hbond.Weighted>
-6.7903

> <Gold.Chemscore.Metal.Weighted>
-0.0000

> <Gold.Chemscore.Lipo.Weighted>
-8.1593

> <Gold.Chemscore.Internal_Hbond.Weighted>
0.0000

> <Gold.Chemscore.DEClash.Weighted>
0.0109

> <Gold.Chemscore.DEInternal.Weighted>
1.0645

> <Gold.Chemscore.Rot.Weighted>
3.8204

> <Gold.Chemscore.Internal.Correction.Weighted>
   9.000000E+99

> <Gold.Protein.RotatedTorsions>
[ 6907 6896 6895 6894 ] final  174.68 input  -60.11 | X-H torsion
[ 7974 7965 7964 7962 ] final   66.06 input  175.53 | X-H torsion
[ 8008 7997 7996 7995 ] final -114.53 input   59.86 | X-H torsion
[ 10167 10162 10161 10158 ] final  -34.59 input  -65.29 | X-H torsion
[ 10718 10713 10712 10709 ] final  -97.37 input   66.30 | X-H torsion
[ 10763 10752 10751 10750 ] final   48.13 input  -60.55 | X-H torsion
[ 11005 11000 10999 10996 ] final  156.43 input  -57.11 | X-H torsion

> <Gold.Protein.ActiveResidues>
 VAL166  LYS551  ARG553  GLY616  TRP617  ASP618  TYR619  PRO620  LYS621  CYS622 
 ASP623  PHE694  ASN695  SER759  ASP760  ASP761  ALA762  ILE779  LEU786  VAL792 
 PHE793  MET794  SER795  GLU796  ALA797  LYS798  CYS799  TRP800  GLU811  SER814 

> <Gold.Protein.RotatedAtoms>
  151.7484  133.3326  159.3384 H   0  0  0  0  0  0  0  0  0  0  0  0  # atno 6907 bound_to 6896
  150.7545  134.6215  159.6148 H   0  0  0  0  0  0  0  0  0  0  0  0  # atno 6908 bound_to 6896
  152.3485  134.7041  160.0295 H   0  0  0  0  0  0  0  0  0  0  0  0  # atno 6909 bound_to 6896
  145.8311  139.3139  143.0987 H   0  0  0  0  0  0  0  0  0  0  0  0  # atno 7974 bound_to 7965
  155.0378  140.0392  157.2498 H   0  0  0  0  0  0  0  0  0  0  0  0  # atno 8008 bound_to 7997
  154.7242  140.2718  155.6490 H   0  0  0  0  0  0  0  0  0  0  0  0  # atno 8009 bound_to 7997
  156.2824  140.2697  156.1923 H   0  0  0  0  0  0  0  0  0  0  0  0  # atno 8010 bound_to 7997
  140.7182  143.3537  151.2103 H   0  0  0  0  0  0  0  0  0  0  0  0  # atno 10167 bound_to 10162
  156.0082  130.5191  150.6364 H   0  0  0  0  0  0  0  0  0  0  0  0  # atno 10718 bound_to 10713
  152.9794  135.5954  154.3875 H   0  0  0  0  0  0  0  0  0  0  0  0  # atno 10763 bound_to 10752
  154.3534  135.2767  155.2361 H   0  0  0  0  0  0  0  0  0  0  0  0  # atno 10764 bound_to 10752
  154.4391  135.6017  153.6172 H   0  0  0  0  0  0  0  0  0  0  0  0  # atno 10765 bound_to 10752
  140.1674  134.8567  157.2648 H   0  0  0  0  0  0  0  0  0  0  0  0  # atno 11005 bound_to 11000
  145.9570  140.8865  143.0230 LP  0  0  0  0  0  0  0  0  0  0  0  0  # atno 17320 bound_to 7965
  144.6740  140.1759  143.7410 LP  0  0  0  0  0  0  0  0  0  0  0  0  # atno 17321 bound_to 7965
  139.7073  143.9433  152.2932 LP  0  0  0  0  0  0  0  0  0  0  0  0  # atno 17342 bound_to 10162
  139.9147  144.6836  150.8525 LP  0  0  0  0  0  0  0  0  0  0  0  0  # atno 17343 bound_to 10162
  157.4153  131.0829  151.1183 LP  0  0  0  0  0  0  0  0  0  0  0  0  # atno 17370 bound_to 10713
  157.1802  130.6306  149.5669 LP  0  0  0  0  0  0  0  0  0  0  0  0  # atno 17371 bound_to 10713
  140.2418  134.3787  155.7477 LP  0  0  0  0  0  0  0  0  0  0  0  0  # atno 17394 bound_to 11000
  141.2215  133.7269  156.8800 LP  0  0  0  0  0  0  0  0  0  0  0  0  # atno 17395 bound_to 11000

$$$$
