AV-unprocessed.smi:1535|AV-procd|sdf|6174|dock7
  -GOLD-   22720 6323D 1   1.00000     0.00000
 Structure written by MMmdl.
 47 48  0  0  0  0  0  0  0  0  2 V2000
  152.6071  143.4393  161.3881 C   0  0  0  0  0  0  0  0  0  0  0  0
  152.3616  142.7037  160.0817 C   0  0  0  0  0  0  0  0  0  0  0  0
  151.4378  143.2498  159.1632 C   0  0  0  0  0  0  0  0  0  0  0  0
  151.2353  142.5543  157.9773 C   0  0  0  0  0  0  0  0  0  0  0  0
  150.4096  142.8361  156.8881 N   0  3  0  0  0  0  0  0  0  0  0  0
  150.5529  141.8642  155.9466 C   0  0  0  0  0  0  0  0  0  0  0  0
  151.4445  140.9525  156.4248 N   0  0  0  0  0  0  0  0  0  0  0  0
  151.9712  139.7339  155.7850 C   0  0  0  0  0  0  0  0  0  0  0  0
  150.8689  138.8691  155.1428 C   0  0  2  0  0  0  0  0  0  0  0  0
  150.3375  139.5646  154.0307 O   0  0  0  0  0  0  0  0  0  0  0  0
  149.7362  138.5692  156.1436 C   0  0  0  0  0  0  0  0  0  0  0  0
  149.9970  137.5547  157.1735 N   0  0  0  0  0  0  0  0  0  0  0  0
  150.8492  136.5148  156.6093 C   0  0  0  0  0  0  0  0  0  0  0  0
  148.7762  136.9634  157.7323 C   0  0  0  0  0  0  0  0  0  0  0  0
  148.9963  136.0627  158.9641 C   0  0  2  0  0  0  0  0  0  0  0  0
  148.4634  134.6423  158.7316 C   0  0  0  0  0  0  0  0  0  0  0  0
  148.3755  136.6578  160.1576 C   0  0  0  0  0  0  0  0  0  0  0  0
  147.8867  137.1270  161.0954 N   0  0  0  0  0  0  0  0  0  0  0  0
  151.9110  141.3520  157.6854 C   0  0  0  0  0  0  0  0  0  0  0  0
  152.8280  140.8036  158.5817 C   0  0  0  0  0  0  0  0  0  0  0  0
  153.0478  141.4959  159.7941 C   0  0  0  0  0  0  0  0  0  0  0  0
  154.0371  140.9154  160.7906 C   0  0  0  0  0  0  0  0  0  0  0  0
  152.0006  144.3426  161.4575 H   0  0  0  0  0  0  0  0  0  0  0  0
  153.6536  143.7339  161.4709 H   0  0  0  0  0  0  0  0  0  0  0  0
  152.3571  142.8039  162.2380 H   0  0  0  0  0  0  0  0  0  0  0  0
  150.9125  144.1701  159.3738 H   0  0  0  0  0  0  0  0  0  0  0  0
  150.0465  141.8237  154.9930 H   0  0  0  0  0  0  0  0  0  0  0  0
  152.6904  140.0531  155.0297 H   0  0  0  0  0  0  0  0  0  0  0  0
  152.5197  139.1389  156.5134 H   0  0  0  0  0  0  0  0  0  0  0  0
  151.3234  137.9389  154.8057 H   0  0  0  0  0  0  0  0  0  0  0  0
  149.6299  139.0545  153.6671 H   0  0  0  0  0  0  0  0  0  0  0  0
  149.4527  139.5028  156.6324 H   0  0  0  0  0  0  0  0  0  0  0  0
  148.8599  138.2655  155.5688 H   0  0  0  0  0  0  0  0  0  0  0  0
  151.1189  135.7799  157.3686 H   0  0  0  0  0  0  0  0  0  0  0  0
  151.7771  136.9385  156.2239 H   0  0  0  0  0  0  0  0  0  0  0  0
  150.3482  135.9927  155.7927 H   0  0  0  0  0  0  0  0  0  0  0  0
  148.0650  137.7554  157.9729 H   0  0  0  0  0  0  0  0  0  0  0  0
  148.2740  136.3551  156.9781 H   0  0  0  0  0  0  0  0  0  0  0  0
  150.0537  135.9839  159.2023 H   0  0  0  0  0  0  0  0  0  0  0  0
  148.6226  134.0176  159.6109 H   0  0  0  0  0  0  0  0  0  0  0  0
  148.9693  134.1644  157.8921 H   0  0  0  0  0  0  0  0  0  0  0  0
  147.3941  134.6496  158.5178 H   0  0  0  0  0  0  0  0  0  0  0  0
  153.3561  139.8853  158.3743 H   0  0  0  0  0  0  0  0  0  0  0  0
  154.4957  140.0011  160.4122 H   0  0  0  0  0  0  0  0  0  0  0  0
  153.5365  140.6732  161.7283 H   0  0  0  0  0  0  0  0  0  0  0  0
  154.8367  141.6270  160.9978 H   0  0  0  0  0  0  0  0  0  0  0  0
  149.7967  143.6352  156.7891 H   0  0  0  0  0  0  0  0  0  0  0  0
  1  2  1  0  0  0  0
  1 23  1  0  0  0  0
  1 24  1  0  0  0  0
  1 25  1  0  0  0  0
  2 21  1  0  0  0  0
  2  3  2  0  0  0  0
  3  4  1  0  0  0  0
  3 26  1  0  0  0  0
  4 19  2  0  0  0  0
  4  5  1  0  0  0  0
  5  6  2  0  0  0  0
  5 47  1  0  0  0  0
  6  7  1  0  0  0  0
  6 27  1  0  0  0  0
  7  8  1  0  0  0  0
  7 19  1  0  0  0  0
  8  9  1  0  0  0  0
  8 28  1  0  0  0  0
  8 29  1  0  0  0  0
  9 10  1  0  0  0  0
  9 11  1  0  0  0  0
  9 30  1  0  0  0  0
 10 31  1  0  0  0  0
 11 12  1  0  0  0  0
 11 32  1  0  0  0  0
 11 33  1  0  0  0  0
 12 13  1  0  0  0  0
 12 14  1  0  0  0  0
 13 34  1  0  0  0  0
 13 35  1  0  0  0  0
 13 36  1  0  0  0  0
 14 15  1  0  0  0  0
 14 37  1  0  0  0  0
 14 38  1  0  0  0  0
 15 16  1  0  0  0  0
 15 17  1  0  0  0  0
 15 39  1  0  0  0  0
 16 40  1  0  0  0  0
 16 41  1  0  0  0  0
 16 42  1  0  0  0  0
 17 18  3  0  0  0  0
 19 20  1  0  0  0  0
 20 21  2  0  0  0  0
 20 43  1  0  0  0  0
 21 22  1  0  0  0  0
 22 44  1  0  0  0  0
 22 45  1  0  0  0  0
 22 46  1  0  0  0  0
M  CHG  1   5   1
M  END
> <s_m_source_file>
AV-unprocessed.smi

> <i_m_source_file_index>
1535

> <i_lp_mmshare_version>
43012

> <i_f3d_flags>
0

> <s_epik_input>
W0NIM11jKFtjSF0xKWMoW0NIM10pW2NIXWMoYzEyKW4oW2NIXW4yKVtDSDJdW0NASF0oW09IXSlbQ0gyXU4oW0NIM10pW0NIMl1bQ0BIXShbQ0gzXSlDI04=

> <s_epik_cmdline>
J2VwaWtfcHl0aG9uJywgJy1waCcsICc3LjAnLCAnLXRuJywgJzgnLCAnLW1hJywgJzIwMCcsICctbWV0YWxfYmluZGluZycsICctaW1hZScsICc8aW5maWxlLm1hZT4nLCAnLW9tYWUnLCAnPG91dGZpbGUubWFlPic=

> <r_epik_Ionization_Penalty>
1.22846

> <r_epik_Ionization_Penalty_Charging>
1.21333

> <r_epik_Ionization_Penalty_Neutral>
0.0151341

> <r_epik_State_Penalty>
1.27012

> <r_epik_Charging_Adjusted_Penalty>
2.48344

> <i_epik_Tot_Q>
1

> <i_epik_Tot_abs_Q>
1

> <r_epik_Metal_State_Penalty>
5.28751

> <b_epik_Metal_Only>
0

> <s_lp_Force_Field>
OPLS_2005

> <r_lp_Energy>
32.9236

> <b_lp_Chiralities_Consistent>
1

> <s_lp_Variant>
AV-unprocessed.smi:1535-5

> <Gold.Version>
5.8.1

> <Gold.Id.Protein>
6NUR|6NUR_protein|mol2

> <Gold.PLP.Fitness>
54.5830

> <Gold.PLP.PLP>
-42.8034

> <Gold.PLP.part.hbond>
-5.0000

> <Gold.PLP.part.metal>
0.0000

> <Gold.PLP.part.buried>
-5.3054

> <Gold.PLP.part.nonpolar>
-31.3451

> <Gold.PLP.part.repulsive>
0.0324

> <Gold.PLP.ligand.clash>
0.0000

> <Gold.PLP.ligand.torsion>
1.3683

> <Gold.PLP.Chemscore.Hbond>
4.7920

> <Gold.PLP.Chemscore.CHOScore>
0.0000

> <Gold.PLP.Chemscore.Metal>
0.0000

> <Gold.Chemscore.Hbonds>
donor molecule, donor type, donor heavy atom, donor atom, acceptor molecule, acceptor atom, score
      L1  H     5    47       P1  8028  1.92
      P1  H  6931  6943       L1    18  0.99
      P1  H  6934  6947       L1    18  0.78
      P1  H  7989  7998       L1    10  1.00

> <Gold.PLP.Chemscore.Internal.Correction>
0.1403

> <Gold.Rescore>
     Score         DG    S(hbond)    S(metal)    S(lipo)     H(rot)  DE(clash)    DE(int)     intcor
     20.32     -23.33       3.60        0.00     106.42       2.59       0.35       2.66       ----

> <Gold.Chemscore.Fitness>
20.3180

> <Gold.Chemscore.DG>
-23.3286

> <Gold.Chemscore.ZeroCoef>
-5.4800

> <Gold.Chemscore.Hbond>
3.6024

> <Gold.Chemscore.Metal>
0.0000

> <Gold.Chemscore.Lipo>
106.4247

> <Gold.Chemscore.Internal_Hbond>
0.0000

> <Gold.Chemscore.DEClash>
0.3533

> <Gold.Chemscore.DEInternal>
2.6573

> <Gold.Chemscore.Rot>
2.5918

> <Gold.Chemscore.Internal.Correction>
   9.000000E+99

> <Gold.Chemscore.Hbonds>
donor molecule, donor type, donor heavy atom, donor atom, acceptor molecule, acceptor atom, score
      L1  H     5    47       P1  8028  0.92
      P1  H  6931  6943       L1    18  0.69
      P1  H  6934  6947       L1    18  0.69
      P1  H  7989  7998       L1    10  0.64

> <Gold.Chemscore.Hbond.Weighted>
-12.0320

> <Gold.Chemscore.Metal.Weighted>
-0.0000

> <Gold.Chemscore.Lipo.Weighted>
-12.4517

> <Gold.Chemscore.Internal_Hbond.Weighted>
0.0000

> <Gold.Chemscore.DEClash.Weighted>
0.3533

> <Gold.Chemscore.DEInternal.Weighted>
2.6573

> <Gold.Chemscore.Rot.Weighted>
6.6351

> <Gold.Chemscore.Internal.Correction.Weighted>
   9.000000E+99

> <Gold.Protein.RotatedTorsions>
[ 6907 6896 6895 6894 ] final  148.41 input  -60.11 | X-H torsion
[ 7974 7965 7964 7962 ] final  -22.66 input  175.53 | X-H torsion
[ 8008 7997 7996 7995 ] final  124.16 input   59.86 | X-H torsion
[ 10167 10162 10161 10158 ] final   17.59 input  -65.29 | X-H torsion
[ 10718 10713 10712 10709 ] final  -59.28 input   66.30 | X-H torsion
[ 10763 10752 10751 10750 ] final -157.98 input  -60.55 | X-H torsion
[ 11005 11000 10999 10996 ] final  -25.38 input  -57.11 | X-H torsion

> <Gold.Protein.ActiveResidues>
 VAL166  LYS551  ARG553  GLY616  TRP617  ASP618  TYR619  PRO620  LYS621  CYS622 
 ASP623  PHE694  ASN695  SER759  ASP760  ASP761  ALA762  ILE779  LEU786  VAL792 
 PHE793  MET794  SER795  GLU796  ALA797  LYS798  CYS799  TRP800  GLU811  SER814 

> <Gold.Protein.RotatedAtoms>
  152.1419  133.4469  159.4770 H   0  0  0  0  0  0  0  0  0  0  0  0  # atno 6907 bound_to 6896
  150.6887  134.2295  159.4438 H   0  0  0  0  0  0  0  0  0  0  0  0  # atno 6908 bound_to 6896
  152.0186  134.9835  160.0620 H   0  0  0  0  0  0  0  0  0  0  0  0  # atno 6909 bound_to 6896
  146.1662  140.4510  142.8551 H   0  0  0  0  0  0  0  0  0  0  0  0  # atno 7974 bound_to 7965
  156.2791  140.2746  156.1743 H   0  0  0  0  0  0  0  0  0  0  0  0  # atno 8008 bound_to 7997
  155.0622  140.0386  157.2598 H   0  0  0  0  0  0  0  0  0  0  0  0  # atno 8009 bound_to 7997
  154.7108  140.2668  155.6637 H   0  0  0  0  0  0  0  0  0  0  0  0  # atno 8010 bound_to 7997
  140.5715  143.9153  150.6716 H   0  0  0  0  0  0  0  0  0  0  0  0  # atno 10167 bound_to 10162
  156.1073  130.4179  150.0694 H   0  0  0  0  0  0  0  0  0  0  0  0  # atno 10718 bound_to 10713
  154.7593  135.3113  154.8409 H   0  0  0  0  0  0  0  0  0  0  0  0  # atno 10763 bound_to 10752
  153.9174  135.6799  153.4753 H   0  0  0  0  0  0  0  0  0  0  0  0  # atno 10764 bound_to 10752
  153.1193  135.4830  154.9099 H   0  0  0  0  0  0  0  0  0  0  0  0  # atno 10765 bound_to 10752
  140.8933  133.7574  156.0448 H   0  0  0  0  0  0  0  0  0  0  0  0  # atno 11005 bound_to 11000
  144.8096  140.6362  143.6424 LP  0  0  0  0  0  0  0  0  0  0  0  0  # atno 17320 bound_to 7965
  145.4460  139.1529  143.3944 LP  0  0  0  0  0  0  0  0  0  0  0  0  # atno 17321 bound_to 7965
  140.2629  143.3511  152.1307 LP  0  0  0  0  0  0  0  0  0  0  0  0  # atno 17342 bound_to 10162
  139.5120  144.6909  151.5761 LP  0  0  0  0  0  0  0  0  0  0  0  0  # atno 17343 bound_to 10162
  156.8666  130.9510  151.3613 LP  0  0  0  0  0  0  0  0  0  0  0  0  # atno 17370 bound_to 10713
  157.6251  130.8685  149.9175 LP  0  0  0  0  0  0  0  0  0  0  0  0  # atno 17371 bound_to 10713
  140.8320  134.3166  157.5345 LP  0  0  0  0  0  0  0  0  0  0  0  0  # atno 17394 bound_to 11000
  139.8732  134.9369  156.3672 LP  0  0  0  0  0  0  0  0  0  0  0  0  # atno 17395 bound_to 11000

$$$$
