AV-unprocessed.smi:2777|AV-procd|sdf|10708|dock4
  -GOLD-   2272015143D 1   1.00000     0.00000
 Structure written by MMmdl.
 31 32  0  0  0  0  0  0  0  0  1 V2000
  153.2775  137.2171  157.0876 C   0  0  0  0  0  0  0  0  0  0  0  0
  152.2508  138.0818  156.4757 N   0  0  0  0  0  0  0  0  0  0  0  0
  152.2317  139.4082  156.8194 C   0  0  0  0  0  0  0  0  0  0  0  0
  153.0165  139.9434  157.6028 O   0  0  0  0  0  0  0  0  0  0  0  0
  151.1713  140.1774  156.1597 C   0  0  0  0  0  0  0  0  0  0  0  0
  150.2970  139.6242  155.2845 C   0  0  0  0  0  0  0  0  0  0  0  0
  149.3987  140.5677  154.7994 N   0  0  0  0  0  0  0  0  0  0  0  0
  149.7917  141.6749  155.4299 C   0  0  0  0  0  0  0  0  0  0  0  0
  150.8441  141.5298  156.2608 N   0  0  0  0  0  0  0  0  0  0  0  0
  151.4551  142.5834  157.0573 C   0  0  0  0  0  0  0  0  0  0  0  0
  150.6894  142.8585  158.3680 C   0  0  2  0  0  0  0  0  0  0  0  0
  149.4055  143.3813  158.0832 O   0  0  0  0  0  0  0  0  0  0  0  0
  151.4362  143.8316  159.2998 C   0  0  0  0  0  0  0  0  0  0  0  0
  152.5025  143.2326  159.8306 F   0  0  0  0  0  0  0  0  0  0  0  0
  151.8621  144.8802  158.5956 F   0  0  0  0  0  0  0  0  0  0  0  0
  150.6374  144.2687  160.2742 F   0  0  0  0  0  0  0  0  0  0  0  0
  150.4063  138.2418  154.9949 N   0  0  0  0  0  0  0  0  0  0  0  0
  149.4444  137.6808  154.0418 C   0  0  0  0  0  0  0  0  0  0  0  0
  151.3776  137.4731  155.5897 C   0  0  0  0  0  0  0  0  0  0  0  0
  151.4690  136.2683  155.3386 O   0  0  0  0  0  0  0  0  0  0  0  0
  153.9498  137.7216  157.7824 H   0  0  0  0  0  0  0  0  0  0  0  0
  153.9078  136.7708  156.3166 H   0  0  0  0  0  0  0  0  0  0  0  0
  152.8076  136.4065  157.6468 H   0  0  0  0  0  0  0  0  0  0  0  0
  149.2983  142.6244  155.2823 H   0  0  0  0  0  0  0  0  0  0  0  0
  152.4768  142.2787  157.2869 H   0  0  0  0  0  0  0  0  0  0  0  0
  151.5449  143.4877  156.4571 H   0  0  0  0  0  0  0  0  0  0  0  0
  150.5434  141.9144  158.8947 H   0  0  0  0  0  0  0  0  0  0  0  0
  149.3515  143.5586  157.1568 H   0  0  0  0  0  0  0  0  0  0  0  0
  149.5627  136.6129  153.8566 H   0  0  0  0  0  0  0  0  0  0  0  0
  149.5356  138.1882  153.0808 H   0  0  0  0  0  0  0  0  0  0  0  0
  148.4280  137.8351  154.4057 H   0  0  0  0  0  0  0  0  0  0  0  0
  1  2  1  0  0  0  0
  1 21  1  0  0  0  0
  1 22  1  0  0  0  0
  1 23  1  0  0  0  0
  2 19  1  0  0  0  0
  2  3  1  0  0  0  0
  3  4  2  0  0  0  0
  3  5  1  0  0  0  0
  5  9  1  0  0  0  0
  5  6  2  0  0  0  0
  6  7  1  0  0  0  0
  6 17  1  0  0  0  0
  7  8  2  0  0  0  0
  8  9  1  0  0  0  0
  8 24  1  0  0  0  0
  9 10  1  0  0  0  0
 10 11  1  0  0  0  0
 10 25  1  0  0  0  0
 10 26  1  0  0  0  0
 11 12  1  0  0  0  0
 11 13  1  0  0  0  0
 11 27  1  0  0  0  0
 12 28  1  0  0  0  0
 13 14  1  0  0  0  0
 13 15  1  0  0  0  0
 13 16  1  0  0  0  0
 17 18  1  0  0  0  0
 17 19  1  0  0  0  0
 18 29  1  0  0  0  0
 18 30  1  0  0  0  0
 18 31  1  0  0  0  0
 19 20  2  0  0  0  0
M  END
> <s_m_source_file>
AV-unprocessed.smi

> <i_m_source_file_index>
2777

> <i_lp_mmshare_version>
43012

> <i_f3d_flags>
0

> <s_epik_input>
Tz1jMW4oW0NIM10pYyg9TyluKFtDSDNdKWMoYzEyKW5bY0hdbjJbQ0gyXVtDQEhdKFtPSF0pQyhGKShGKUY=

> <s_epik_cmdline>
J2VwaWtfcHl0aG9uJywgJy1waCcsICc3LjAnLCAnLXRuJywgJzgnLCAnLW1hJywgJzIwMCcsICctbWV0YWxfYmluZGluZycsICctaW1hZScsICc8aW5maWxlLm1hZT4nLCAnLW9tYWUnLCAnPG91dGZpbGUubWFlPic=

> <r_epik_Ionization_Penalty>
0.000551612

> <r_epik_Ionization_Penalty_Charging>
2.619e-09

> <r_epik_Ionization_Penalty_Neutral>
0.00055161

> <r_epik_State_Penalty>
0.000345115

> <r_epik_Charging_Adjusted_Penalty>
0.000345118

> <i_epik_Tot_Q>
0

> <i_epik_Tot_abs_Q>
0

> <r_epik_Metal_State_Penalty>
-0

> <b_epik_Metal_Only>
0

> <s_lp_Force_Field>
OPLS_2005

> <r_lp_Energy>
33.5503

> <b_lp_Chiralities_Consistent>
1

> <s_lp_Variant>
AV-unprocessed.smi:2777-1

> <Gold.Version>
5.8.1

> <Gold.Id.Protein>
6NUR|6NUR_protein|mol2

> <Gold.PLP.Fitness>
45.4614

> <Gold.PLP.PLP>
-34.7017

> <Gold.PLP.part.hbond>
-4.0222

> <Gold.PLP.part.metal>
0.0000

> <Gold.PLP.part.buried>
0.6338

> <Gold.PLP.part.nonpolar>
-31.5266

> <Gold.PLP.part.repulsive>
0.2225

> <Gold.PLP.ligand.clash>
0.0000

> <Gold.PLP.ligand.torsion>
0.6275

> <Gold.PLP.Chemscore.Hbond>
3.0000

> <Gold.PLP.Chemscore.CHOScore>
1.0000

> <Gold.PLP.Chemscore.Metal>
0.0000

> <Gold.Chemscore.Hbonds>
donor molecule, donor type, donor heavy atom, donor atom, acceptor molecule, acceptor atom, score
      L1  H    12    28       P1  8028  1.00
      P1  H  7997  8008       L1     4  1.00
      P1  H 10752 10764       L1    20  1.00
      L1  C     8    24       P1  8028  1.00

> <Gold.PLP.Chemscore.Internal.Correction>
0.0148

> <Gold.Rescore>
     Score         DG    S(hbond)    S(metal)    S(lipo)     H(rot)  DE(clash)    DE(int)     intcor
     10.18     -13.79       2.53        0.00      46.79       2.20       3.13       0.48       ----

> <Gold.Chemscore.Fitness>
10.1790

> <Gold.Chemscore.DG>
-13.7928

> <Gold.Chemscore.ZeroCoef>
-5.4800

> <Gold.Chemscore.Hbond>
2.5336

> <Gold.Chemscore.Metal>
0.0000

> <Gold.Chemscore.Lipo>
46.7898

> <Gold.Chemscore.Internal_Hbond>
0.0000

> <Gold.Chemscore.DEClash>
3.1301

> <Gold.Chemscore.DEInternal>
0.4837

> <Gold.Chemscore.Rot>
2.1969

> <Gold.Chemscore.Internal.Correction>
   9.000000E+99

> <Gold.Chemscore.Hbonds>
donor molecule, donor type, donor heavy atom, donor atom, acceptor molecule, acceptor atom, score
      L1  H    12    28       P1  8028  0.73
      P1  H  7997  8008       L1     4  0.44
      P1  H 10752 10764       L1    20  0.99

> <Gold.Chemscore.Hbond.Weighted>
-8.4623

> <Gold.Chemscore.Metal.Weighted>
-0.0000

> <Gold.Chemscore.Lipo.Weighted>
-5.4744

> <Gold.Chemscore.Internal_Hbond.Weighted>
0.0000

> <Gold.Chemscore.DEClash.Weighted>
3.1301

> <Gold.Chemscore.DEInternal.Weighted>
0.4837

> <Gold.Chemscore.Rot.Weighted>
5.6239

> <Gold.Chemscore.Internal.Correction.Weighted>
   9.000000E+99

> <Gold.Protein.RotatedTorsions>
[ 6907 6896 6895 6894 ] final   45.07 input  -60.11 | X-H torsion
[ 7974 7965 7964 7962 ] final -174.05 input  175.53 | X-H torsion
[ 8008 7997 7996 7995 ] final  -65.23 input   59.86 | X-H torsion
[ 10167 10162 10161 10158 ] final  129.13 input  -65.29 | X-H torsion
[ 10718 10713 10712 10709 ] final  -92.57 input   66.30 | X-H torsion
[ 10763 10752 10751 10750 ] final  -55.95 input  -60.55 | X-H torsion
[ 11005 11000 10999 10996 ] final -110.51 input  -57.11 | X-H torsion

> <Gold.Protein.ActiveResidues>
 VAL166  LYS551  ARG553  GLY616  TRP617  ASP618  TYR619  PRO620  LYS621  CYS622 
 ASP623  PHE694  ASN695  SER759  ASP760  ASP761  ALA762  ILE779  LEU786  VAL792 
 PHE793  MET794  SER795  GLU796  ALA797  LYS798  CYS799  TRP800  GLU811  SER814 

> <Gold.Protein.RotatedAtoms>
  152.2402  134.8236  160.0461 H   0  0  0  0  0  0  0  0  0  0  0  0  # atno 6907 bound_to 6896
  151.8953  133.3520  159.3820 H   0  0  0  0  0  0  0  0  0  0  0  0  # atno 6908 bound_to 6896
  150.7051  134.4808  159.5514 H   0  0  0  0  0  0  0  0  0  0  0  0  # atno 6909 bound_to 6896
  144.7134  140.1530  143.6382 H   0  0  0  0  0  0  0  0  0  0  0  0  # atno 7974 bound_to 7965
  154.4659  140.0937  156.7018 H   0  0  0  0  0  0  0  0  0  0  0  0  # atno 8008 bound_to 7997
  155.4860  140.3469  155.4329 H   0  0  0  0  0  0  0  0  0  0  0  0  # atno 8009 bound_to 7997
  156.0955  140.1408  156.9525 H   0  0  0  0  0  0  0  0  0  0  0  0  # atno 8010 bound_to 7997
  139.5493  144.6800  151.4374 H   0  0  0  0  0  0  0  0  0  0  0  0  # atno 10167 bound_to 10162
  156.0004  130.4992  150.5646 H   0  0  0  0  0  0  0  0  0  0  0  0  # atno 10718 bound_to 10713
  154.1989  135.6414  153.5081 H   0  0  0  0  0  0  0  0  0  0  0  0  # atno 10763 bound_to 10752
  153.0017  135.5446  154.6336 H   0  0  0  0  0  0  0  0  0  0  0  0  # atno 10764 bound_to 10752
  154.5744  135.2919  155.0768 H   0  0  0  0  0  0  0  0  0  0  0  0  # atno 10765 bound_to 10752
  141.0787  133.9257  157.2334 H   0  0  0  0  0  0  0  0  0  0  0  0  # atno 11005 bound_to 11000
  145.9099  139.2481  143.1443 LP  0  0  0  0  0  0  0  0  0  0  0  0  # atno 17320 bound_to 7965
  145.9726  140.8747  143.0154 LP  0  0  0  0  0  0  0  0  0  0  0  0  # atno 17321 bound_to 7965
  140.6751  143.8208  150.7048 LP  0  0  0  0  0  0  0  0  0  0  0  0  # atno 17342 bound_to 10162
  140.1644  143.4248  152.2044 LP  0  0  0  0  0  0  0  0  0  0  0  0  # atno 17343 bound_to 10162
  157.3550  131.0740  151.1683 LP  0  0  0  0  0  0  0  0  0  0  0  0  # atno 17370 bound_to 10713
  157.2486  130.6603  149.5921 LP  0  0  0  0  0  0  0  0  0  0  0  0  # atno 17371 bound_to 10713
  139.9600  135.0156  156.9235 LP  0  0  0  0  0  0  0  0  0  0  0  0  # atno 17394 bound_to 11000
  140.5516  134.0622  155.7371 LP  0  0  0  0  0  0  0  0  0  0  0  0  # atno 17395 bound_to 11000

$$$$
