AV-unprocessed.smi:1128|AV-procd|sdf|4845|dock2
  -GOLD-   22720 3413D 1   1.00000     0.00000
 Structure written by MMmdl.
 37 38  0  0  0  0  0  0  0  0  2 V2000
  151.2285  138.3404  158.3142 O   0  0  0  0  0  0  0  0  0  0  0  0
  150.1412  138.9152  158.2716 C   0  0  0  0  0  0  0  0  0  0  0  0
  150.0064  140.2017  157.9200 N   0  0  0  0  0  0  0  0  0  0  0  0
  151.1012  141.0888  157.5406 C   0  0  0  0  0  0  0  0  0  0  0  0
  151.2826  142.2614  158.5272 C   0  0  1  0  0  0  0  0  0  0  0  0
  152.2932  141.9338  159.6522 C   0  0  0  0  0  0  0  0  0  0  0  0
  152.7013  143.1595  160.4499 C   0  0  0  0  0  0  0  0  0  0  0  0
  152.4646  144.4189  160.0463 C   0  0  0  0  0  0  0  0  0  0  0  0
  151.7694  144.7587  158.7415 C   0  0  0  0  0  0  0  0  0  0  0  0
  151.6936  143.5500  157.7902 C   0  0  0  0  0  0  0  0  0  0  0  0
  148.9451  138.3771  158.5716 N   0  0  0  0  0  0  0  0  0  0  0  0
  148.6203  137.0726  158.9837 C   0  0  0  0  0  0  0  0  0  0  0  0
  147.9832  136.7525  160.1446 C   0  0  0  0  0  0  0  0  0  0  0  0
  147.6788  135.3755  160.5138 C   0  0  0  0  0  0  0  0  0  0  0  0
  147.0441  134.9774  161.8345 C   0  0  0  0  0  0  0  0  0  0  0  0
  145.8121  135.4753  161.9442 F   0  0  0  0  0  0  0  0  0  0  0  0
  146.9732  133.6512  161.9506 F   0  0  0  0  0  0  0  0  0  0  0  0
  147.7724  135.4451  162.8472 F   0  0  0  0  0  0  0  0  0  0  0  0
  148.1302  134.4687  159.5747 C   0  0  0  0  0  0  0  0  0  0  0  0
  148.7571  134.7008  158.4009 N   0  5  0  0  0  0  0  0  0  0  0  0
  149.0333  135.9921  158.0638 C   0  0  0  0  0  0  0  0  0  0  0  0
  149.6151  136.2728  157.0152 O   0  0  0  0  0  0  0  0  0  0  0  0
  149.0780  140.5978  157.9174 H   0  0  0  0  0  0  0  0  0  0  0  0
  152.0145  140.4950  157.4972 H   0  0  0  0  0  0  0  0  0  0  0  0
  150.9335  141.4646  156.5298 H   0  0  0  0  0  0  0  0  0  0  0  0
  150.3163  142.4573  158.9951 H   0  0  0  0  0  0  0  0  0  0  0  0
  151.8665  141.2000  160.3368 H   0  0  0  0  0  0  0  0  0  0  0  0
  153.1981  141.4901  159.2357 H   0  0  0  0  0  0  0  0  0  0  0  0
  153.2152  142.9832  161.3834 H   0  0  0  0  0  0  0  0  0  0  0  0
  152.7658  145.2489  160.6688 H   0  0  0  0  0  0  0  0  0  0  0  0
  150.7670  145.1176  158.9765 H   0  0  0  0  0  0  0  0  0  0  0  0
  152.2958  145.5808  158.2557 H   0  0  0  0  0  0  0  0  0  0  0  0
  152.6662  143.3983  157.3201 H   0  0  0  0  0  0  0  0  0  0  0  0
  150.9939  143.7680  156.9826 H   0  0  0  0  0  0  0  0  0  0  0  0
  148.1524  139.0005  158.5243 H   0  0  0  0  0  0  0  0  0  0  0  0
  147.6845  137.5146  160.8443 H   0  0  0  0  0  0  0  0  0  0  0  0
  147.9676  133.3937  159.8037 H   0  0  0  0  0  0  0  0  0  0  0  0
  1  2  2  0  0  0  0
  2  3  1  0  0  0  0
  2 11  1  0  0  0  0
  3  4  1  0  0  0  0
  3 23  1  0  0  0  0
  4  5  1  0  0  0  0
  4 24  1  0  0  0  0
  4 25  1  0  0  0  0
  5 10  1  0  0  0  0
  5  6  1  0  0  0  0
  5 26  1  0  0  0  0
  6  7  1  0  0  0  0
  6 27  1  0  0  0  0
  6 28  1  0  0  0  0
  7  8  2  0  0  0  0
  7 29  1  0  0  0  0
  8  9  1  0  0  0  0
  8 30  1  0  0  0  0
  9 10  1  0  0  0  0
  9 31  1  0  0  0  0
  9 32  1  0  0  0  0
 10 33  1  0  0  0  0
 10 34  1  0  0  0  0
 11 12  1  0  0  0  0
 11 35  1  0  0  0  0
 12 21  1  0  0  0  0
 12 13  2  0  0  0  0
 13 14  1  0  0  0  0
 13 36  1  0  0  0  0
 14 15  1  0  0  0  0
 14 19  2  0  0  0  0
 15 16  1  0  0  0  0
 15 17  1  0  0  0  0
 15 18  1  0  0  0  0
 19 20  1  0  0  0  0
 19 37  1  0  0  0  0
 20 21  1  0  0  0  0
 21 22  2  0  0  0  0
M  CHG  1  20  -1
M  END
> <s_m_source_file>
AV-unprocessed.smi

> <i_m_source_file_index>
1128

> <i_lp_mmshare_version>
43012

> <i_f3d_flags>
0

> <s_epik_input>
Tz1jMVtuSF1bY0hdYyhDKEYpKEYpRilbY0hdYzFbTkhdQyg9TylbTkhdW0NIMl1bQ0BASF0yW0NIMl1bQ0hdPVtDSF1bQ0gyXVtDSDJdMg==

> <s_epik_cmdline>
J2VwaWtfcHl0aG9uJywgJy1waCcsICc3LjAnLCAnLXRuJywgJzgnLCAnLW1hJywgJzIwMCcsICctbWV0YWxfYmluZGluZycsICctaW1hZScsICc8aW5maWxlLm1hZT4nLCAnLW9tYWUnLCAnPG91dGZpbGUubWFlPic=

> <r_lp_tautomer_probability>
1

> <r_epik_Ionization_Penalty>
3.16664

> <r_epik_Ionization_Penalty_Charging>
0.172425

> <r_epik_Ionization_Penalty_Neutral>
2.99422

> <r_epik_State_Penalty>
2.99038

> <r_epik_Charging_Adjusted_Penalty>
3.16281

> <i_epik_Tot_Q>
-1

> <i_epik_Tot_abs_Q>
1

> <r_epik_Metal_State_Penalty>
0.453031

> <b_epik_Metal_Only>
1

> <s_lp_Force_Field>
OPLS_2005

> <r_lp_Energy>
22.2299

> <b_lp_Chiralities_Consistent>
1

> <s_lp_Variant>
AV-unprocessed.smi:1128-4

> <Gold.Version>
5.8.1

> <Gold.Id.Protein>
6NUR|6NUR_protein|mol2

> <Gold.PLP.Fitness>
47.8925

> <Gold.PLP.PLP>
-43.9374

> <Gold.PLP.part.hbond>
-1.0000

> <Gold.PLP.part.metal>
0.0000

> <Gold.PLP.part.buried>
-4.9172

> <Gold.PLP.part.nonpolar>
-39.0326

> <Gold.PLP.part.repulsive>
0.3516

> <Gold.PLP.ligand.clash>
0.0000

> <Gold.PLP.ligand.torsion>
1.0302

> <Gold.PLP.Chemscore.Hbond>
1.9840

> <Gold.PLP.Chemscore.CHOScore>
0.0000

> <Gold.PLP.Chemscore.Metal>
0.0000

> <Gold.Chemscore.Hbonds>
donor molecule, donor type, donor heavy atom, donor atom, acceptor molecule, acceptor atom, score
      P1  H  6896  6908       L1    20  0.44

> <Gold.PLP.Chemscore.Internal.Correction>
0.0635

> <Gold.Rescore>
     Score         DG    S(hbond)    S(metal)    S(lipo)     H(rot)  DE(clash)    DE(int)     intcor
     11.32     -14.96       0.28        0.00     101.46       1.29       0.15       3.48       ----

> <Gold.Chemscore.Fitness>
11.3233

> <Gold.Chemscore.DG>
-14.9625

> <Gold.Chemscore.ZeroCoef>
-5.4800

> <Gold.Chemscore.Hbond>
0.2771

> <Gold.Chemscore.Metal>
0.0000

> <Gold.Chemscore.Lipo>
101.4554

> <Gold.Chemscore.Internal_Hbond>
0.0000

> <Gold.Chemscore.DEClash>
0.1544

> <Gold.Chemscore.DEInternal>
3.4848

> <Gold.Chemscore.Rot>
1.2943

> <Gold.Chemscore.Internal.Correction>
   9.000000E+99

> <Gold.Chemscore.Hbond.Weighted>
-0.9255

> <Gold.Chemscore.Metal.Weighted>
-0.0000

> <Gold.Chemscore.Lipo.Weighted>
-11.8703

> <Gold.Chemscore.Internal_Hbond.Weighted>
0.0000

> <Gold.Chemscore.DEClash.Weighted>
0.1544

> <Gold.Chemscore.DEInternal.Weighted>
3.4848

> <Gold.Chemscore.Rot.Weighted>
3.3133

> <Gold.Chemscore.Internal.Correction.Weighted>
   9.000000E+99

> <Gold.Protein.RotatedTorsions>
[ 6907 6896 6895 6894 ] final  134.55 input  -60.11 | X-H torsion
[ 7974 7965 7964 7962 ] final   48.49 input  175.53 | X-H torsion
[ 8008 7997 7996 7995 ] final  -17.61 input   59.86 | X-H torsion
[ 10167 10162 10161 10158 ] final    4.90 input  -65.29 | X-H torsion
[ 10718 10713 10712 10709 ] final  -11.13 input   66.30 | X-H torsion
[ 10763 10752 10751 10750 ] final    7.36 input  -60.55 | X-H torsion
[ 11005 11000 10999 10996 ] final   75.01 input  -57.11 | X-H torsion

> <Gold.Protein.ActiveResidues>
 VAL166  LYS551  ARG553  GLY616  TRP617  ASP618  TYR619  PRO620  LYS621  CYS622 
 ASP623  PHE694  ASN695  SER759  ASP760  ASP761  ALA762  ILE779  LEU786  VAL792 
 PHE793  MET794  SER795  GLU796  ALA797  LYS798  CYS799  TRP800  GLU811  SER814 

> <Gold.Protein.RotatedAtoms>
  152.3101  133.5743  159.5674 H   0  0  0  0  0  0  0  0  0  0  0  0  # atno 6907 bound_to 6896
  150.7318  134.0165  159.3696 H   0  0  0  0  0  0  0  0  0  0  0  0  # atno 6908 bound_to 6896
  151.8059  135.0696  160.0457 H   0  0  0  0  0  0  0  0  0  0  0  0  # atno 6909 bound_to 6896
  146.0199  139.4639  142.9904 H   0  0  0  0  0  0  0  0  0  0  0  0  # atno 7974 bound_to 7965
  154.4966  140.2138  155.9435 H   0  0  0  0  0  0  0  0  0  0  0  0  # atno 8008 bound_to 7997
  156.1378  140.3185  155.8415 H   0  0  0  0  0  0  0  0  0  0  0  0  # atno 8009 bound_to 7997
  155.4177  140.0495  157.3018 H   0  0  0  0  0  0  0  0  0  0  0  0  # atno 8010 bound_to 7997
  140.6510  143.7544  150.7576 H   0  0  0  0  0  0  0  0  0  0  0  0  # atno 10167 bound_to 10162
  156.6634  130.4988  149.6023 H   0  0  0  0  0  0  0  0  0  0  0  0  # atno 10718 bound_to 10713
  153.2371  135.6899  153.7824 H   0  0  0  0  0  0  0  0  0  0  0  0  # atno 10763 bound_to 10752
  153.6967  135.3304  155.3216 H   0  0  0  0  0  0  0  0  0  0  0  0  # atno 10764 bound_to 10752
  154.8339  135.4558  154.1279 H   0  0  0  0  0  0  0  0  0  0  0  0  # atno 10765 bound_to 10752
  139.9364  134.7481  156.1218 H   0  0  0  0  0  0  0  0  0  0  0  0  # atno 11005 bound_to 11000
  145.7210  141.0075  143.1402 LP  0  0  0  0  0  0  0  0  0  0  0  0  # atno 17320 bound_to 7965
  144.6986  139.8870  143.7451 LP  0  0  0  0  0  0  0  0  0  0  0  0  # atno 17321 bound_to 7965
  140.1194  143.4625  152.2322 LP  0  0  0  0  0  0  0  0  0  0  0  0  # atno 17342 bound_to 10162
  139.5726  144.7470  151.3851 LP  0  0  0  0  0  0  0  0  0  0  0  0  # atno 17343 bound_to 10162
  156.1993  130.6610  151.1149 LP  0  0  0  0  0  0  0  0  0  0  0  0  # atno 17370 bound_to 10713
  157.7102  131.0738  150.6528 LP  0  0  0  0  0  0  0  0  0  0  0  0  # atno 17371 bound_to 10713
  141.0979  133.6688  156.2687 LP  0  0  0  0  0  0  0  0  0  0  0  0  # atno 17394 bound_to 11000
  140.6065  134.5501  157.5526 LP  0  0  0  0  0  0  0  0  0  0  0  0  # atno 17395 bound_to 11000

$$$$
