AV-unprocessed.smi:2976|AV-procd|sdf|11365|dock2
  -GOLD-   2272016283D 1   1.00000     0.00000
 Structure written by MMmdl.
 40 41  0  0  0  0  0  0  0  0  1 V2000
  151.9202  140.3409  157.1200 C   0  0  0  0  0  0  0  0  0  0  0  0
  151.0960  139.9846  155.8715 C   0  0  2  0  0  0  0  0  0  0  0  0
  150.0818  141.0914  155.5191 C   0  0  0  0  0  0  0  0  0  0  0  0
  149.3375  140.7762  154.2122 C   0  0  0  0  0  0  0  0  0  0  0  0
  148.6700  139.3933  154.2610 C   0  0  0  0  0  0  0  0  0  0  0  0
  149.6887  138.2916  154.6122 C   0  0  2  0  0  0  0  0  0  0  0  0
  149.0267  136.9886  154.6143 N   0  0  0  0  0  0  0  0  0  0  0  0
  149.6278  135.8110  154.8427 C   0  0  0  0  0  0  0  0  0  0  0  0
  150.8312  135.7051  155.0850 O   0  0  0  0  0  0  0  0  0  0  0  0
  148.7138  134.5769  154.8025 C   0  0  0  0  0  0  0  0  0  0  0  0
  149.4277  133.3070  155.0029 N   0  0  0  0  0  0  0  0  0  0  0  0
  149.2426  132.3911  153.9822 N   0  0  0  0  0  0  0  0  0  0  0  0
  149.8000  131.2322  154.0609 C   0  0  0  0  0  0  0  0  0  0  0  0
  150.6245  130.8485  155.1853 C   0  0  0  0  0  0  0  0  0  0  0  0
  151.3452  129.2783  155.2358 Cl  0  0  0  0  0  0  0  0  0  0  0  0
  150.8053  131.7562  156.1773 C   0  0  0  0  0  0  0  0  0  0  0  0
  151.7782  131.3700  157.5551 Cl  0  0  0  0  0  0  0  0  0  0  0  0
  150.1861  133.0879  156.1211 C   0  0  0  0  0  0  0  0  0  0  0  0
  150.3275  133.9396  156.9995 O   0  0  0  0  0  0  0  0  0  0  0  0
  150.4166  138.5916  155.9524 C   0  0  2  0  0  0  0  0  0  0  0  0
  149.5085  138.4180  157.1922 C   0  0  0  0  0  0  0  0  0  0  0  0
  151.2856  140.5208  157.9876 H   0  0  0  0  0  0  0  0  0  0  0  0
  152.5043  141.2462  156.9526 H   0  0  0  0  0  0  0  0  0  0  0  0
  152.6188  139.5428  157.3720 H   0  0  0  0  0  0  0  0  0  0  0  0
  151.8090  139.9359  155.0467 H   0  0  0  0  0  0  0  0  0  0  0  0
  149.3644  141.2180  156.3304 H   0  0  0  0  0  0  0  0  0  0  0  0
  150.5964  142.0475  155.4179 H   0  0  0  0  0  0  0  0  0  0  0  0
  148.5887  141.5442  154.0160 H   0  0  0  0  0  0  0  0  0  0  0  0
  150.0393  140.8104  153.3778 H   0  0  0  0  0  0  0  0  0  0  0  0
  147.8584  139.4040  154.9891 H   0  0  0  0  0  0  0  0  0  0  0  0
  148.2098  139.1804  153.2952 H   0  0  0  0  0  0  0  0  0  0  0  0
  150.4355  138.2797  153.8155 H   0  0  0  0  0  0  0  0  0  0  0  0
  148.0345  136.9841  154.4273 H   0  0  0  0  0  0  0  0  0  0  0  0
  147.9460  134.6984  155.5687 H   0  0  0  0  0  0  0  0  0  0  0  0
  148.1762  134.5610  153.8525 H   0  0  0  0  0  0  0  0  0  0  0  0
  149.6793  130.4781  153.2831 H   0  0  0  0  0  0  0  0  0  0  0  0
  151.2167  137.8572  156.0571 H   0  0  0  0  0  0  0  0  0  0  0  0
  148.6839  139.1296  157.2002 H   0  0  0  0  0  0  0  0  0  0  0  0
  150.0672  138.5514  158.1179 H   0  0  0  0  0  0  0  0  0  0  0  0
  149.0783  137.4176  157.2369 H   0  0  0  0  0  0  0  0  0  0  0  0
  1  2  1  0  0  0  0
  1 22  1  0  0  0  0
  1 23  1  0  0  0  0
  1 24  1  0  0  0  0
  2 20  1  0  0  0  0
  2  3  1  0  0  0  0
  2 25  1  0  0  0  0
  3  4  1  0  0  0  0
  3 26  1  0  0  0  0
  3 27  1  0  0  0  0
  4  5  1  0  0  0  0
  4 28  1  0  0  0  0
  4 29  1  0  0  0  0
  5  6  1  0  0  0  0
  5 30  1  0  0  0  0
  5 31  1  0  0  0  0
  6  7  1  0  0  0  0
  6 20  1  0  0  0  0
  6 32  1  0  0  0  0
  7  8  1  0  0  0  0
  7 33  1  0  0  0  0
  8  9  2  0  0  0  0
  8 10  1  0  0  0  0
 10 11  1  0  0  0  0
 10 34  1  0  0  0  0
 10 35  1  0  0  0  0
 11 18  1  0  0  0  0
 11 12  1  0  0  0  0
 12 13  2  0  0  0  0
 13 14  1  0  0  0  0
 13 36  1  0  0  0  0
 14 15  1  0  0  0  0
 14 16  2  0  0  0  0
 16 17  1  0  0  0  0
 16 18  1  0  0  0  0
 18 19  2  0  0  0  0
 20 21  1  0  0  0  0
 20 37  1  0  0  0  0
 21 38  1  0  0  0  0
 21 39  1  0  0  0  0
 21 40  1  0  0  0  0
M  END
> <s_m_source_file>
AV-unprocessed.smi

> <i_m_source_file_index>
2976

> <i_lp_mmshare_version>
43012

> <i_f3d_flags>
0

> <s_epik_input>
W0NIM11bQ0BASF0xW0NIMl1bQ0gyXVtDSDJdW0NASF0oW0NASF0xW0NIM10pW05IXUMoPU8pW0NIMl1uMm5bY0hdYyhDbCljKENsKWMyPU8=

> <s_epik_cmdline>
J2VwaWtfcHl0aG9uJywgJy1waCcsICc3LjAnLCAnLXRuJywgJzgnLCAnLW1hJywgJzIwMCcsICctbWV0YWxfYmluZGluZycsICctaW1hZScsICc8aW5maWxlLm1hZT4nLCAnLW9tYWUnLCAnPG91dGZpbGUubWFlPic=

> <r_lp_tautomer_probability>
1

> <r_epik_Ionization_Penalty>
1.90777e-08

> <r_epik_Ionization_Penalty_Charging>
3.07942e-11

> <r_epik_Ionization_Penalty_Neutral>
1.90469e-08

> <r_epik_State_Penalty>
-0

> <r_epik_Charging_Adjusted_Penalty>
3.07942e-11

> <i_epik_Tot_Q>
0

> <i_epik_Tot_abs_Q>
0

> <r_epik_Metal_State_Penalty>
-0

> <b_epik_Metal_Only>
0

> <s_lp_Force_Field>
OPLS_2005

> <r_lp_Energy>
28.3124

> <b_lp_Chiralities_Consistent>
1

> <s_lp_Variant>
AV-unprocessed.smi:2976-7

> <Gold.Version>
5.8.1

> <Gold.Id.Protein>
6NUR|6NUR_protein|mol2

> <Gold.PLP.Fitness>
36.0041

> <Gold.PLP.PLP>
-31.3307

> <Gold.PLP.part.hbond>
-3.0000

> <Gold.PLP.part.metal>
0.0000

> <Gold.PLP.part.buried>
-2.9162

> <Gold.PLP.part.nonpolar>
-25.8634

> <Gold.PLP.part.repulsive>
0.1817

> <Gold.PLP.ligand.clash>
0.0000

> <Gold.PLP.ligand.torsion>
0.0282

> <Gold.PLP.Chemscore.Hbond>
1.5720

> <Gold.PLP.Chemscore.CHOScore>
0.0000

> <Gold.PLP.Chemscore.Metal>
0.0000

> <Gold.Chemscore.Hbonds>
donor molecule, donor type, donor heavy atom, donor atom, acceptor molecule, acceptor atom, score
      P1  H  6896  6907       L1    19  0.22
      P1  H 10752 10764       L1     9  0.62

> <Gold.PLP.Chemscore.Internal.Correction>
0.0139

> <Gold.Rescore>
     Score         DG    S(hbond)    S(metal)    S(lipo)     H(rot)  DE(clash)    DE(int)     intcor
     14.64     -16.33       1.87        0.00      71.78       1.49       0.41       1.28       ----

> <Gold.Chemscore.Fitness>
14.6391

> <Gold.Chemscore.DG>
-16.3305

> <Gold.Chemscore.ZeroCoef>
-5.4800

> <Gold.Chemscore.Hbond>
1.8737

> <Gold.Chemscore.Metal>
0.0000

> <Gold.Chemscore.Lipo>
71.7785

> <Gold.Chemscore.Internal_Hbond>
0.0000

> <Gold.Chemscore.DEClash>
0.4089

> <Gold.Chemscore.DEInternal>
1.2825

> <Gold.Chemscore.Rot>
1.4866

> <Gold.Chemscore.Internal.Correction>
   9.000000E+99

> <Gold.Chemscore.Hbonds>
donor molecule, donor type, donor heavy atom, donor atom, acceptor molecule, acceptor atom, score
      P1  H  6896  6907       L1    19  0.22
      P1  H 10752 10764       L1     9  0.59

> <Gold.Chemscore.Hbond.Weighted>
-6.2581

> <Gold.Chemscore.Metal.Weighted>
-0.0000

> <Gold.Chemscore.Lipo.Weighted>
-8.3981

> <Gold.Chemscore.Internal_Hbond.Weighted>
0.0000

> <Gold.Chemscore.DEClash.Weighted>
0.4089

> <Gold.Chemscore.DEInternal.Weighted>
1.2825

> <Gold.Chemscore.Rot.Weighted>
3.8057

> <Gold.Chemscore.Internal.Correction.Weighted>
   9.000000E+99

> <Gold.Protein.RotatedTorsions>
[ 6907 6896 6895 6894 ] final -133.79 input  -60.11 | X-H torsion
[ 7974 7965 7964 7962 ] final  150.28 input  175.53 | X-H torsion
[ 8008 7997 7996 7995 ] final   74.81 input   59.86 | X-H torsion
[ 10167 10162 10161 10158 ] final -114.50 input  -65.29 | X-H torsion
[ 10718 10713 10712 10709 ] final   95.53 input   66.30 | X-H torsion
[ 10763 10752 10751 10750 ] final  -44.51 input  -60.55 | X-H torsion
[ 11005 11000 10999 10996 ] final -118.28 input  -57.11 | X-H torsion

> <Gold.Protein.ActiveResidues>
 VAL166  LYS551  ARG553  GLY616  TRP617  ASP618  TYR619  PRO620  LYS621  CYS622 
 ASP623  PHE694  ASN695  SER759  ASP760  ASP761  ALA762  ILE779  LEU786  VAL792 
 PHE793  MET794  SER795  GLU796  ALA797  LYS798  CYS799  TRP800  GLU811  SER814 

> <Gold.Protein.RotatedAtoms>
  150.9782  133.6272  159.2726 H   0  0  0  0  0  0  0  0  0  0  0  0  # atno 6907 bound_to 6896
  151.3537  135.0888  159.9421 H   0  0  0  0  0  0  0  0  0  0  0  0  # atno 6908 bound_to 6896
  152.5206  133.9370  159.7662 H   0  0  0  0  0  0  0  0  0  0  0  0  # atno 6909 bound_to 6896
  144.8376  139.6388  143.6031 H   0  0  0  0  0  0  0  0  0  0  0  0  # atno 7974 bound_to 7965
  155.8037  140.3475  155.5418 H   0  0  0  0  0  0  0  0  0  0  0  0  # atno 8008 bound_to 7997
  155.8511  140.0956  157.1694 H   0  0  0  0  0  0  0  0  0  0  0  0  # atno 8009 bound_to 7997
  154.4008  140.1376  156.3833 H   0  0  0  0  0  0  0  0  0  0  0  0  # atno 8010 bound_to 7997
  140.1003  143.4619  152.1816 H   0  0  0  0  0  0  0  0  0  0  0  0  # atno 10167 bound_to 10162
  157.6937  131.0548  150.4352 H   0  0  0  0  0  0  0  0  0  0  0  0  # atno 10718 bound_to 10713
  154.0133  135.6678  153.4767 H   0  0  0  0  0  0  0  0  0  0  0  0  # atno 10763 bound_to 10752
  153.0611  135.5027  154.8092 H   0  0  0  0  0  0  0  0  0  0  0  0  # atno 10764 bound_to 10752
  154.6982  135.3074  154.9344 H   0  0  0  0  0  0  0  0  0  0  0  0  # atno 10765 bound_to 10752
  141.0297  134.0000  157.3162 H   0  0  0  0  0  0  0  0  0  0  0  0  # atno 11005 bound_to 11000
  146.2672  139.6549  142.9321 LP  0  0  0  0  0  0  0  0  0  0  0  0  # atno 17320 bound_to 7965
  145.4763  141.0437  143.2671 LP  0  0  0  0  0  0  0  0  0  0  0  0  # atno 17321 bound_to 7965
  139.5675  144.7443  151.3982 LP  0  0  0  0  0  0  0  0  0  0  0  0  # atno 17342 bound_to 10162
  140.6981  143.7699  150.7359 LP  0  0  0  0  0  0  0  0  0  0  0  0  # atno 17343 bound_to 10162
  156.4715  130.4054  149.6515 LP  0  0  0  0  0  0  0  0  0  0  0  0  # atno 17370 bound_to 10713
  156.3593  130.7473  151.2443 LP  0  0  0  0  0  0  0  0  0  0  0  0  # atno 17371 bound_to 10713
  139.9199  135.0200  156.8026 LP  0  0  0  0  0  0  0  0  0  0  0  0  # atno 17394 bound_to 11000
  140.6429  133.9802  155.7716 LP  0  0  0  0  0  0  0  0  0  0  0  0  # atno 17395 bound_to 11000

$$$$
