AV-unprocessed.smi:2482|AV-procd|sdf|9775|dock9
  -GOLD-   2272013413D 1   1.00000     0.00000
 Structure written by MMmdl.
 35 36  0  0  0  0  0  0  0  0  2 V2000
  151.9169  144.1924  161.1835 C   0  0  0  0  0  0  0  0  0  0  0  0
  152.3523  142.8898  160.5386 C   0  0  0  0  0  0  0  0  0  0  0  0
  153.2941  142.1912  161.2094 N   0  0  0  0  0  0  0  0  0  0  0  0
  153.7135  141.0227  160.6827 C   0  0  0  0  0  0  0  0  0  0  0  0
  153.2249  140.4997  159.4702 C   0  0  0  0  0  0  0  0  0  0  0  0
  152.2493  141.2365  158.7568 C   0  0  0  0  0  0  0  0  0  0  0  0
  151.6705  140.7946  157.5350 N   0  0  0  0  0  0  0  0  0  0  0  0
  152.0427  139.7747  156.7389 C   0  0  0  0  0  0  0  0  0  0  0  0
  152.9864  139.0196  156.9723 O   0  0  0  0  0  0  0  0  0  0  0  0
  151.2011  139.5788  155.4678 C   0  0  2  0  0  0  0  0  0  0  0  0
  150.0128  140.5653  155.3787 C   0  0  0  0  0  0  0  0  0  0  0  0
  149.1923  140.2872  154.1775 N   0  3  2  0  0  0  0  0  0  0  0  0
  148.0637  141.2302  154.0274 C   0  0  0  0  0  0  0  0  0  0  0  0
  148.7613  138.8717  154.1466 C   0  0  0  0  0  0  0  0  0  0  0  0
  149.9800  137.9430  154.2622 C   0  0  0  0  0  0  0  0  0  0  0  0
  150.6955  138.2442  155.4537 O   0  0  0  0  0  0  0  0  0  0  0  0
  151.7942  142.4547  159.3136 C   0  0  0  0  0  0  0  0  0  0  0  0
  150.5842  143.3979  158.5090 Cl  0  0  0  0  0  0  0  0  0  0  0  0
  152.1137  145.0303  160.5143 H   0  0  0  0  0  0  0  0  0  0  0  0
  152.4498  144.3758  162.1175 H   0  0  0  0  0  0  0  0  0  0  0  0
  150.8493  144.1692  161.4039 H   0  0  0  0  0  0  0  0  0  0  0  0
  154.4578  140.4829  161.2490 H   0  0  0  0  0  0  0  0  0  0  0  0
  153.5958  139.5474  159.1250 H   0  0  0  0  0  0  0  0  0  0  0  0
  150.9285  141.3797  157.1781 H   0  0  0  0  0  0  0  0  0  0  0  0
  151.8644  139.7204  154.6127 H   0  0  0  0  0  0  0  0  0  0  0  0
  149.3874  140.4884  156.2705 H   0  0  0  0  0  0  0  0  0  0  0  0
  150.3773  141.5925  155.3290 H   0  0  0  0  0  0  0  0  0  0  0  0
  147.3670  141.1447  154.8623 H   0  0  0  0  0  0  0  0  0  0  0  0
  147.5183  141.0334  153.1041 H   0  0  0  0  0  0  0  0  0  0  0  0
  148.4254  142.2582  153.9876 H   0  0  0  0  0  0  0  0  0  0  0  0
  148.0664  138.6803  154.9661 H   0  0  0  0  0  0  0  0  0  0  0  0
  148.2272  138.6692  153.2176 H   0  0  0  0  0  0  0  0  0  0  0  0
  149.6580  136.9022  154.2970 H   0  0  0  0  0  0  0  0  0  0  0  0
  150.6339  138.0458  153.3947 H   0  0  0  0  0  0  0  0  0  0  0  0
  149.7930  140.4247  153.3769 H   0  0  0  0  0  0  0  0  0  0  0  0
  1  2  1  0  0  0  0
  1 19  1  0  0  0  0
  1 20  1  0  0  0  0
  1 21  1  0  0  0  0
  2 17  1  0  0  0  0
  2  3  2  0  0  0  0
  3  4  1  0  0  0  0
  4  5  2  0  0  0  0
  4 22  1  0  0  0  0
  5  6  1  0  0  0  0
  5 23  1  0  0  0  0
  6  7  1  0  0  0  0
  6 17  2  0  0  0  0
  7  8  1  0  0  0  0
  7 24  1  0  0  0  0
  8  9  2  0  0  0  0
  8 10  1  0  0  0  0
 10 16  1  0  0  0  0
 10 11  1  0  0  0  0
 10 25  1  0  0  0  0
 11 12  1  0  0  0  0
 11 26  1  0  0  0  0
 11 27  1  0  0  0  0
 12 13  1  0  0  0  0
 12 14  1  0  0  0  0
 12 35  1  0  0  0  0
 13 28  1  0  0  0  0
 13 29  1  0  0  0  0
 13 30  1  0  0  0  0
 14 15  1  0  0  0  0
 14 31  1  0  0  0  0
 14 32  1  0  0  0  0
 15 16  1  0  0  0  0
 15 33  1  0  0  0  0
 15 34  1  0  0  0  0
 17 18  1  0  0  0  0
M  CHG  1  12   1
M  END
> <s_m_source_file>
AV-unprocessed.smi

> <i_m_source_file_index>
2482

> <i_lp_mmshare_version>
43012

> <i_f3d_flags>
0

> <s_epik_input>
W0NIM11jMW5bY0hdW2NIXWMoYzFDbClbTkhdQyg9TylbQ0BASF0yW0NIMl1OKFtDSDNdKVtDSDJdW0NIMl1PMg==

> <s_epik_cmdline>
J2VwaWtfcHl0aG9uJywgJy1waCcsICc3LjAnLCAnLXRuJywgJzgnLCAnLW1hJywgJzIwMCcsICctbWV0YWxfYmluZGluZycsICctaW1hZScsICc8aW5maWxlLm1hZT4nLCAnLW9tYWUnLCAnPG91dGZpbGUubWFlPic=

> <r_epik_Ionization_Penalty>
0.314226

> <r_epik_Ionization_Penalty_Charging>
0.314023

> <r_epik_Ionization_Penalty_Neutral>
0.00020299

> <r_epik_State_Penalty>
0.308208

> <r_epik_Charging_Adjusted_Penalty>
0.62223

> <i_epik_Tot_Q>
1

> <i_epik_Tot_abs_Q>
1

> <r_epik_Metal_State_Penalty>
0.314444

> <b_epik_Metal_Only>
0

> <s_lp_Force_Field>
OPLS_2005

> <r_lp_Energy>
22.3098

> <b_lp_Chiralities_Consistent>
1

> <s_lp_Variant>
AV-unprocessed.smi:2482-1

> <Gold.Version>
5.8.1

> <Gold.Id.Protein>
6NUR|6NUR_protein|mol2

> <Gold.PLP.Fitness>
39.9864

> <Gold.PLP.PLP>
-36.5848

> <Gold.PLP.part.hbond>
-2.0000

> <Gold.PLP.part.metal>
0.0000

> <Gold.PLP.part.buried>
-2.6948

> <Gold.PLP.part.nonpolar>
-31.6061

> <Gold.PLP.part.repulsive>
0.3165

> <Gold.PLP.ligand.clash>
0.7436

> <Gold.PLP.ligand.torsion>
0.0506

> <Gold.PLP.Chemscore.Hbond>
1.4150

> <Gold.PLP.Chemscore.CHOScore>
0.0000

> <Gold.PLP.Chemscore.Metal>
0.0000

> <Gold.Chemscore.Hbonds>
donor molecule, donor type, donor heavy atom, donor atom, acceptor molecule, acceptor atom, score
      L1  H    12    35       P1  7957  0.31
      P1  H  7997  8010       L1     9  1.00

> <Gold.PLP.Chemscore.Internal.Correction>
0.0014

> <Gold.Rescore>
     Score         DG    S(hbond)    S(metal)    S(lipo)     H(rot)  DE(clash)    DE(int)     intcor
     18.20     -19.70       1.47        0.00     101.50       1.00       0.17       1.33       ----

> <Gold.Chemscore.Fitness>
18.1994

> <Gold.Chemscore.DG>
-19.7017

> <Gold.Chemscore.ZeroCoef>
-5.4800

> <Gold.Chemscore.Hbond>
1.4690

> <Gold.Chemscore.Metal>
0.0000

> <Gold.Chemscore.Lipo>
101.4988

> <Gold.Chemscore.Internal_Hbond>
0.0000

> <Gold.Chemscore.DEClash>
0.1701

> <Gold.Chemscore.DEInternal>
1.3322

> <Gold.Chemscore.Rot>
1.0000

> <Gold.Chemscore.Internal.Correction>
   9.000000E+99

> <Gold.Chemscore.Hbonds>
donor molecule, donor type, donor heavy atom, donor atom, acceptor molecule, acceptor atom, score
      L1  H    12    35       P1  7957  0.31
      P1  H  7997  8010       L1     9  0.35

> <Gold.Chemscore.Hbond.Weighted>
-4.9063

> <Gold.Chemscore.Metal.Weighted>
-0.0000

> <Gold.Chemscore.Lipo.Weighted>
-11.8754

> <Gold.Chemscore.Internal_Hbond.Weighted>
0.0000

> <Gold.Chemscore.DEClash.Weighted>
0.1701

> <Gold.Chemscore.DEInternal.Weighted>
1.3322

> <Gold.Chemscore.Rot.Weighted>
2.5600

> <Gold.Chemscore.Internal.Correction.Weighted>
   9.000000E+99

> <Gold.Protein.RotatedTorsions>
[ 6907 6896 6895 6894 ] final   41.03 input  -60.11 | X-H torsion
[ 7974 7965 7964 7962 ] final  114.36 input  175.53 | X-H torsion
[ 8008 7997 7996 7995 ] final   59.15 input   59.86 | X-H torsion
[ 10167 10162 10161 10158 ] final  -31.27 input  -65.29 | X-H torsion
[ 10718 10713 10712 10709 ] final  134.73 input   66.30 | X-H torsion
[ 10763 10752 10751 10750 ] final  -56.47 input  -60.55 | X-H torsion
[ 11005 11000 10999 10996 ] final  158.89 input  -57.11 | X-H torsion

> <Gold.Protein.ActiveResidues>
 VAL166  LYS551  ARG553  GLY616  TRP617  ASP618  TYR619  PRO620  LYS621  CYS622 
 ASP623  PHE694  ASN695  SER759  ASP760  ASP761  ALA762  ILE779  LEU786  VAL792 
 PHE793  MET794  SER795  GLU796  ALA797  LYS798  CYS799  TRP800  GLU811  SER814 

> <Gold.Protein.RotatedAtoms>
  152.1900  134.8680  160.0518 H   0  0  0  0  0  0  0  0  0  0  0  0  # atno 6907 bound_to 6896
  151.9572  133.3679  159.4030 H   0  0  0  0  0  0  0  0  0  0  0  0  # atno 6908 bound_to 6896
  150.6933  134.4202  159.5245 H   0  0  0  0  0  0  0  0  0  0  0  0  # atno 6909 bound_to 6896
  145.2054  139.2932  143.4296 H   0  0  0  0  0  0  0  0  0  0  0  0  # atno 7974 bound_to 7965
  155.5615  140.3488  155.4492 H   0  0  0  0  0  0  0  0  0  0  0  0  # atno 8008 bound_to 7997
  156.0511  140.1318  157.0075 H   0  0  0  0  0  0  0  0  0  0  0  0  # atno 8009 bound_to 7997
  154.4434  140.1004  156.6362 H   0  0  0  0  0  0  0  0  0  0  0  0  # atno 8010 bound_to 7997
  140.7238  143.3783  151.1647 H   0  0  0  0  0  0  0  0  0  0  0  0  # atno 10167 bound_to 10162
  157.4643  131.1075  150.9882 H   0  0  0  0  0  0  0  0  0  0  0  0  # atno 10718 bound_to 10713
  154.2072  135.6401  153.5104 H   0  0  0  0  0  0  0  0  0  0  0  0  # atno 10763 bound_to 10752
  152.9998  135.5465  154.6253 H   0  0  0  0  0  0  0  0  0  0  0  0  # atno 10764 bound_to 10752
  154.5681  135.2914  155.0828 H   0  0  0  0  0  0  0  0  0  0  0  0  # atno 10765 bound_to 10752
  140.1908  134.8408  157.2910 H   0  0  0  0  0  0  0  0  0  0  0  0  # atno 11005 bound_to 11000
  146.3409  140.2312  142.8593 LP  0  0  0  0  0  0  0  0  0  0  0  0  # atno 17320 bound_to 7965
  144.9907  140.8544  143.5341 LP  0  0  0  0  0  0  0  0  0  0  0  0  # atno 17321 bound_to 7965
  139.7368  143.8987  152.3037 LP  0  0  0  0  0  0  0  0  0  0  0  0  # atno 17342 bound_to 10162
  139.8794  144.7026  150.8895 LP  0  0  0  0  0  0  0  0  0  0  0  0  # atno 17343 bound_to 10162
  157.0668  130.5848  149.5395 LP  0  0  0  0  0  0  0  0  0  0  0  0  # atno 17370 bound_to 10713
  156.0043  130.5127  150.7774 LP  0  0  0  0  0  0  0  0  0  0  0  0  # atno 17371 bound_to 10713
  140.2161  134.4079  155.7588 LP  0  0  0  0  0  0  0  0  0  0  0  0  # atno 17394 bound_to 11000
  141.2226  133.7142  156.8416 LP  0  0  0  0  0  0  0  0  0  0  0  0  # atno 17395 bound_to 11000

$$$$
