AV-unprocessed.smi:2141|AV-procd|sdf|8718|dock2
  -GOLD-   2272011483D 1   1.00000     0.00000
 Structure written by MMmdl.
 42 43  0  0  0  0  0  0  0  0  1 V2000
  143.9980  134.6485  152.6175 C   0  0  0  0  0  0  0  0  0  0  0  0
  145.2874  135.0447  151.3654 S   0  0  0  0  0  0  0  0  0  0  0  0
  146.1217  133.8519  151.1546 O   0  0  0  0  0  0  0  0  0  0  0  0
  144.6329  135.7038  150.2253 O   0  0  0  0  0  0  0  0  0  0  0  0
  146.2601  136.2338  152.1545 N   0  0  0  0  0  0  0  0  0  0  0  0
  145.7167  137.5546  152.4904 C   0  0  0  0  0  0  0  0  0  0  0  0
  146.6588  138.7006  152.0678 C   0  0  0  0  0  0  0  0  0  0  0  0
  147.2642  139.4556  153.2539 C   0  0  0  0  0  0  0  0  0  0  0  0
  146.5194  140.0008  154.0678 O   0  0  0  0  0  0  0  0  0  0  0  0
  148.6076  139.4543  153.3230 N   0  0  0  0  0  0  0  0  0  0  0  0
  149.4326  139.9782  154.3530 C   0  0  0  0  0  0  0  0  0  0  0  0
  150.6383  139.3818  154.7880 C   0  0  0  0  0  0  0  0  0  0  0  0
  151.3682  139.9980  155.8225 C   0  0  0  0  0  0  0  0  0  0  0  0
  150.8746  141.1896  156.4042 C   0  0  0  0  0  0  0  0  0  0  0  0
  151.5967  141.8282  157.4350 N   0  0  0  0  0  0  0  0  0  0  0  0
  151.7703  141.0545  158.6617 C   0  0  0  0  0  0  0  0  0  0  0  0
  152.8216  141.7175  159.5688 C   0  0  0  0  0  0  0  0  0  0  0  0
  152.4634  143.0736  159.8134 O   0  0  0  0  0  0  0  0  0  0  0  0
  152.4118  143.8329  158.6104 C   0  0  0  0  0  0  0  0  0  0  0  0
  151.3405  143.2471  157.6754 C   0  0  0  0  0  0  0  0  0  0  0  0
  149.7115  141.7507  155.9916 N   0  0  0  0  0  0  0  0  0  0  0  0
  149.0130  141.1550  155.0032 C   0  0  0  0  0  0  0  0  0  0  0  0
  143.3078  133.9141  152.2034 H   0  0  0  0  0  0  0  0  0  0  0  0
  143.4467  135.5525  152.8755 H   0  0  0  0  0  0  0  0  0  0  0  0
  144.4638  134.2364  153.5117 H   0  0  0  0  0  0  0  0  0  0  0  0
  147.2417  136.2236  151.8770 H   0  0  0  0  0  0  0  0  0  0  0  0
  144.7403  137.6801  152.0209 H   0  0  0  0  0  0  0  0  0  0  0  0
  145.5476  137.5939  153.5664 H   0  0  0  0  0  0  0  0  0  0  0  0
  147.4603  138.3055  151.4422 H   0  0  0  0  0  0  0  0  0  0  0  0
  146.1141  139.4124  151.4459 H   0  0  0  0  0  0  0  0  0  0  0  0
  149.0857  138.9133  152.6169 H   0  0  0  0  0  0  0  0  0  0  0  0
  151.0127  138.4663  154.3567 H   0  0  0  0  0  0  0  0  0  0  0  0
  152.3004  139.5592  156.1453 H   0  0  0  0  0  0  0  0  0  0  0  0
  150.8123  140.9997  159.1804 H   0  0  0  0  0  0  0  0  0  0  0  0
  152.0763  140.0302  158.4535 H   0  0  0  0  0  0  0  0  0  0  0  0
  152.8815  141.1897  160.5207 H   0  0  0  0  0  0  0  0  0  0  0  0
  153.8128  141.6685  159.1151 H   0  0  0  0  0  0  0  0  0  0  0  0
  152.1730  144.8685  158.8528 H   0  0  0  0  0  0  0  0  0  0  0  0
  153.3900  143.8366  158.1269 H   0  0  0  0  0  0  0  0  0  0  0  0
  151.3439  143.7965  156.7330 H   0  0  0  0  0  0  0  0  0  0  0  0
  150.3514  143.3658  158.1199 H   0  0  0  0  0  0  0  0  0  0  0  0
  148.0938  141.6438  154.7144 H   0  0  0  0  0  0  0  0  0  0  0  0
  1  2  1  0  0  0  0
  1 23  1  0  0  0  0
  1 24  1  0  0  0  0
  1 25  1  0  0  0  0
  2  3  2  0  0  0  0
  2  4  2  0  0  0  0
  2  5  1  0  0  0  0
  5  6  1  0  0  0  0
  5 26  1  0  0  0  0
  6  7  1  0  0  0  0
  6 27  1  0  0  0  0
  6 28  1  0  0  0  0
  7  8  1  0  0  0  0
  7 29  1  0  0  0  0
  7 30  1  0  0  0  0
  8  9  2  0  0  0  0
  8 10  1  0  0  0  0
 10 11  1  0  0  0  0
 10 31  1  0  0  0  0
 11 22  1  0  0  0  0
 11 12  2  0  0  0  0
 12 13  1  0  0  0  0
 12 32  1  0  0  0  0
 13 14  2  0  0  0  0
 13 33  1  0  0  0  0
 14 15  1  0  0  0  0
 14 21  1  0  0  0  0
 15 20  1  0  0  0  0
 15 16  1  0  0  0  0
 16 17  1  0  0  0  0
 16 34  1  0  0  0  0
 16 35  1  0  0  0  0
 17 18  1  0  0  0  0
 17 36  1  0  0  0  0
 17 37  1  0  0  0  0
 18 19  1  0  0  0  0
 19 20  1  0  0  0  0
 19 38  1  0  0  0  0
 19 39  1  0  0  0  0
 20 40  1  0  0  0  0
 20 41  1  0  0  0  0
 21 22  2  0  0  0  0
 22 42  1  0  0  0  0
M  END
> <s_m_source_file>
AV-unprocessed.smi

> <i_m_source_file_index>
2141

> <i_lp_mmshare_version>
43012

> <i_f3d_flags>
0

> <s_epik_input>
W0NIM11TKD1PKSg9TylbTkhdW0NIMl1bQ0gyXUMoPU8pW05IXWMxW2NIXVtjSF1jKG5bY0hdMSlOMltDSDJdW0NIMl1PW0NIMl1bQ0gyXTI=

> <s_epik_cmdline>
J2VwaWtfcHl0aG9uJywgJy1waCcsICc3LjAnLCAnLXRuJywgJzgnLCAnLW1hJywgJzIwMCcsICctbWV0YWxfYmluZGluZycsICctaW1hZScsICc8aW5maWxlLm1hZT4nLCAnLW9tYWUnLCAnPG91dGZpbGUubWFlPic=

> <r_lp_tautomer_probability>
1

> <r_epik_Ionization_Penalty>
0.000610192

> <r_epik_Ionization_Penalty_Charging>
0

> <r_epik_Ionization_Penalty_Neutral>
0.000610192

> <r_epik_State_Penalty>
0.000370803

> <r_epik_Charging_Adjusted_Penalty>
0.000370803

> <i_epik_Tot_Q>
0

> <i_epik_Tot_abs_Q>
0

> <r_epik_Metal_State_Penalty>
0.0170256

> <b_epik_Metal_Only>
0

> <s_lp_Force_Field>
OPLS_2005

> <r_lp_Energy>
9.95274

> <b_lp_Chiralities_Consistent>
1

> <s_lp_Variant>
AV-unprocessed.smi:2141-1

> <Gold.Version>
5.8.1

> <Gold.Id.Protein>
6NUR|6NUR_protein|mol2

> <Gold.PLP.Fitness>
43.4779

> <Gold.PLP.PLP>
-41.3321

> <Gold.PLP.part.hbond>
-1.7111

> <Gold.PLP.part.metal>
0.0000

> <Gold.PLP.part.buried>
-5.7459

> <Gold.PLP.part.nonpolar>
-36.0658

> <Gold.PLP.part.repulsive>
2.1232

> <Gold.PLP.ligand.clash>
0.0000

> <Gold.PLP.ligand.torsion>
1.5232

> <Gold.PLP.Chemscore.Hbond>
1.2720

> <Gold.PLP.Chemscore.CHOScore>
0.0000

> <Gold.PLP.Chemscore.Metal>
0.0000

> <Gold.Chemscore.Hbonds>
donor molecule, donor type, donor heavy atom, donor atom, acceptor molecule, acceptor atom, score
      L1  H     5    26       P1  7948  1.00
      L1  H    10    31       P1  7957  0.22

> <Gold.PLP.Chemscore.Internal.Correction>
1.3762

> <Gold.Rescore>
     Score         DG    S(hbond)    S(metal)    S(lipo)     H(rot)  DE(clash)    DE(int)     intcor
     12.21     -15.17       1.40        0.00      86.55       1.99       0.18       2.79       ----

> <Gold.Chemscore.Fitness>
12.2061

> <Gold.Chemscore.DG>
-15.1671

> <Gold.Chemscore.ZeroCoef>
-5.4800

> <Gold.Chemscore.Hbond>
1.3958

> <Gold.Chemscore.Metal>
0.0000

> <Gold.Chemscore.Lipo>
86.5474

> <Gold.Chemscore.Internal_Hbond>
0.0000

> <Gold.Chemscore.DEClash>
0.1760

> <Gold.Chemscore.DEInternal>
2.7851

> <Gold.Chemscore.Rot>
1.9925

> <Gold.Chemscore.Internal.Correction>
   9.000000E+99

> <Gold.Chemscore.Hbonds>
donor molecule, donor type, donor heavy atom, donor atom, acceptor molecule, acceptor atom, score
      L1  H     5    26       P1  7948  1.00
      L1  H    10    31       P1  7957  0.22

> <Gold.Chemscore.Hbond.Weighted>
-4.6619

> <Gold.Chemscore.Metal.Weighted>
-0.0000

> <Gold.Chemscore.Lipo.Weighted>
-10.1260

> <Gold.Chemscore.Internal_Hbond.Weighted>
0.0000

> <Gold.Chemscore.DEClash.Weighted>
0.1760

> <Gold.Chemscore.DEInternal.Weighted>
2.7851

> <Gold.Chemscore.Rot.Weighted>
5.1008

> <Gold.Chemscore.Internal.Correction.Weighted>
   9.000000E+99

> <Gold.Protein.RotatedTorsions>
[ 6907 6896 6895 6894 ] final  -33.33 input  -60.11 | X-H torsion
[ 7974 7965 7964 7962 ] final   20.50 input  175.53 | X-H torsion
[ 8008 7997 7996 7995 ] final  -87.97 input   59.86 | X-H torsion
[ 10167 10162 10161 10158 ] final -134.43 input  -65.29 | X-H torsion
[ 10718 10713 10712 10709 ] final   41.16 input   66.30 | X-H torsion
[ 10763 10752 10751 10750 ] final -141.37 input  -60.55 | X-H torsion
[ 11005 11000 10999 10996 ] final  149.43 input  -57.11 | X-H torsion

> <Gold.Protein.ActiveResidues>
 VAL166  LYS551  ARG553  GLY616  TRP617  ASP618  TYR619  PRO620  LYS621  CYS622 
 ASP623  PHE694  ASN695  SER759  ASP760  ASP761  ALA762  ILE779  LEU786  VAL792 
 PHE793  MET794  SER795  GLU796  ALA797  LYS798  CYS799  TRP800  GLU811  SER814 

> <Gold.Protein.RotatedAtoms>
  151.0671  134.9774  159.8289 H   0  0  0  0  0  0  0  0  0  0  0  0  # atno 6907 bound_to 6896
  152.5403  134.2346  159.8848 H   0  0  0  0  0  0  0  0  0  0  0  0  # atno 6908 bound_to 6896
  151.2368  133.4377  159.2639 H   0  0  0  0  0  0  0  0  0  0  0  0  # atno 6909 bound_to 6896
  146.2109  139.8161  142.8690 H   0  0  0  0  0  0  0  0  0  0  0  0  # atno 7974 bound_to 7965
  154.6694  140.0559  157.0149 H   0  0  0  0  0  0  0  0  0  0  0  0  # atno 8008 bound_to 7997
  155.1111  140.3238  155.4503 H   0  0  0  0  0  0  0  0  0  0  0  0  # atno 8009 bound_to 7997
  156.2651  140.2014  156.6235 H   0  0  0  0  0  0  0  0  0  0  0  0  # atno 8010 bound_to 7997
  139.8881  143.6756  152.2616 H   0  0  0  0  0  0  0  0  0  0  0  0  # atno 10167 bound_to 10162
  157.3905  130.7803  149.7265 H   0  0  0  0  0  0  0  0  0  0  0  0  # atno 10718 bound_to 10713
  154.8547  135.3526  154.5857 H   0  0  0  0  0  0  0  0  0  0  0  0  # atno 10763 bound_to 10752
  153.6467  135.6996  153.5227 H   0  0  0  0  0  0  0  0  0  0  0  0  # atno 10764 bound_to 10752
  153.2927  135.4230  155.1140 H   0  0  0  0  0  0  0  0  0  0  0  0  # atno 10765 bound_to 10752
  140.1044  134.8963  157.1844 H   0  0  0  0  0  0  0  0  0  0  0  0  # atno 11005 bound_to 11000
  145.3145  141.0228  143.3535 LP  0  0  0  0  0  0  0  0  0  0  0  0  # atno 17320 bound_to 7965
  144.8911  139.4773  143.6677 LP  0  0  0  0  0  0  0  0  0  0  0  0  # atno 17321 bound_to 7965
  139.7134  144.7616  151.1074 LP  0  0  0  0  0  0  0  0  0  0  0  0  # atno 17342 bound_to 10162
  140.7732  143.5300  150.9434 LP  0  0  0  0  0  0  0  0  0  0  0  0  # atno 17343 bound_to 10162
  155.9797  130.4037  150.3572 LP  0  0  0  0  0  0  0  0  0  0  0  0  # atno 17370 bound_to 10713
  157.1687  131.0363  151.2806 LP  0  0  0  0  0  0  0  0  0  0  0  0  # atno 17371 bound_to 10713
  140.3176  134.2953  155.7253 LP  0  0  0  0  0  0  0  0  0  0  0  0  # atno 17394 bound_to 11000
  141.2114  133.7689  156.9865 LP  0  0  0  0  0  0  0  0  0  0  0  0  # atno 17395 bound_to 11000

$$$$
