AV-unprocessed.smi:1574|AV-procd|sdf|6336|dock6
  -GOLD-   22720 6553D 1   1.00000     0.00000
 Structure written by MMmdl.
 40 41  0  0  0  0  0  0  0  0  1 V2000
  151.2906  145.3745  158.6341 C   0  0  0  0  0  0  0  0  0  0  0  0
  152.2214  144.5058  159.4938 C   0  0  1  0  0  0  0  0  0  0  0  0
  151.6712  144.3284  160.9231 C   0  0  0  0  0  0  0  0  0  0  0  0
  152.6263  143.5009  161.7976 C   0  0  0  0  0  0  0  0  0  0  0  0
  152.9353  142.1404  161.1552 C   0  0  0  0  0  0  0  0  0  0  0  0
  153.4843  142.3089  159.7282 C   0  0  0  0  0  0  0  0  0  0  0  0
  152.5353  143.1373  158.8430 C   0  0  1  0  0  0  0  0  0  0  0  0
  151.3366  142.3893  158.6831 O   0  0  0  0  0  0  0  0  0  0  0  0
  151.4606  141.2316  157.8727 C   0  0  0  0  0  0  0  0  0  0  0  0
  151.0221  141.5715  156.4414 C   0  0  0  0  0  0  0  0  0  0  0  0
  150.5901  140.3803  155.7180 N   0  0  0  0  0  0  0  0  0  0  0  0
  151.4070  139.4592  155.1829 C   0  0  0  0  0  0  0  0  0  0  0  0
  152.6350  139.5274  155.2287 O   0  0  0  0  0  0  0  0  0  0  0  0
  150.7369  138.2767  154.4849 C   0  0  0  0  0  0  0  0  0  0  0  0
  150.6007  137.1545  155.3930 N   0  0  0  0  0  0  0  0  0  0  0  0
  149.9646  135.9892  155.2572 C   0  0  0  0  0  0  0  0  0  0  0  0
  150.0773  135.2414  156.3445 N   0  0  0  0  0  0  0  0  0  0  0  0
  150.8411  136.0288  157.1900 N   0  0  0  0  0  0  0  0  0  0  0  0
  151.1545  137.1654  156.6311 N   0  0  0  0  0  0  0  0  0  0  0  0
  150.3002  144.9282  158.5414 H   0  0  0  0  0  0  0  0  0  0  0  0
  151.6939  145.5089  157.6302 H   0  0  0  0  0  0  0  0  0  0  0  0
  151.1651  146.3643  159.0735 H   0  0  0  0  0  0  0  0  0  0  0  0
  153.1660  145.0458  159.5745 H   0  0  0  0  0  0  0  0  0  0  0  0
  151.5104  145.3035  161.3839 H   0  0  0  0  0  0  0  0  0  0  0  0
  150.6955  143.8422  160.8879 H   0  0  0  0  0  0  0  0  0  0  0  0
  153.5549  144.0530  161.9474 H   0  0  0  0  0  0  0  0  0  0  0  0
  152.1904  143.3538  162.7862 H   0  0  0  0  0  0  0  0  0  0  0  0
  153.6541  141.5951  161.7674 H   0  0  0  0  0  0  0  0  0  0  0  0
  152.0288  141.5337  161.1318 H   0  0  0  0  0  0  0  0  0  0  0  0
  154.4572  142.7997  159.7725 H   0  0  0  0  0  0  0  0  0  0  0  0
  153.6554  141.3309  159.2774 H   0  0  0  0  0  0  0  0  0  0  0  0
  153.0251  143.2970  157.8801 H   0  0  0  0  0  0  0  0  0  0  0  0
  152.4858  140.8586  157.8724 H   0  0  0  0  0  0  0  0  0  0  0  0
  150.8269  140.4424  158.2795 H   0  0  0  0  0  0  0  0  0  0  0  0
  150.1765  142.2585  156.4768 H   0  0  0  0  0  0  0  0  0  0  0  0
  151.8188  142.0896  155.9048 H   0  0  0  0  0  0  0  0  0  0  0  0
  149.5945  140.2414  155.6242 H   0  0  0  0  0  0  0  0  0  0  0  0
  149.7454  138.5666  154.1348 H   0  0  0  0  0  0  0  0  0  0  0  0
  151.3118  137.9713  153.6090 H   0  0  0  0  0  0  0  0  0  0  0  0
  149.4212  135.6943  154.3717 H   0  0  0  0  0  0  0  0  0  0  0  0
  1  2  1  0  0  0  0
  1 20  1  0  0  0  0
  1 21  1  0  0  0  0
  1 22  1  0  0  0  0
  2  7  1  0  0  0  0
  2  3  1  0  0  0  0
  2 23  1  0  0  0  0
  3  4  1  0  0  0  0
  3 24  1  0  0  0  0
  3 25  1  0  0  0  0
  4  5  1  0  0  0  0
  4 26  1  0  0  0  0
  4 27  1  0  0  0  0
  5  6  1  0  0  0  0
  5 28  1  0  0  0  0
  5 29  1  0  0  0  0
  6  7  1  0  0  0  0
  6 30  1  0  0  0  0
  6 31  1  0  0  0  0
  7  8  1  0  0  0  0
  7 32  1  0  0  0  0
  8  9  1  0  0  0  0
  9 10  1  0  0  0  0
  9 33  1  0  0  0  0
  9 34  1  0  0  0  0
 10 11  1  0  0  0  0
 10 35  1  0  0  0  0
 10 36  1  0  0  0  0
 11 12  1  0  0  0  0
 11 37  1  0  0  0  0
 12 13  2  0  0  0  0
 12 14  1  0  0  0  0
 14 15  1  0  0  0  0
 14 38  1  0  0  0  0
 14 39  1  0  0  0  0
 15 19  1  0  0  0  0
 15 16  1  0  0  0  0
 16 17  2  0  0  0  0
 16 40  1  0  0  0  0
 17 18  1  0  0  0  0
 18 19  2  0  0  0  0
M  END
> <s_m_source_file>
AV-unprocessed.smi

> <i_m_source_file_index>
1574

> <i_lp_mmshare_version>
43012

> <i_f3d_flags>
0

> <s_epik_input>
W0NIM11bQ0BASF0xW0NIMl1bQ0gyXVtDSDJdW0NIMl1bQ0BIXTFPW0NIMl1bQ0gyXVtOSF1DKD1PKVtDSDJdbjJbY0hdbm5uMg==

> <s_epik_cmdline>
J2VwaWtfcHl0aG9uJywgJy1waCcsICc3LjAnLCAnLXRuJywgJzgnLCAnLW1hJywgJzIwMCcsICctbWV0YWxfYmluZGluZycsICctaW1hZScsICc8aW5maWxlLm1hZT4nLCAnLW9tYWUnLCAnPG91dGZpbGUubWFlPic=

> <r_lp_tautomer_probability>
1

> <r_epik_Ionization_Penalty>
1.44269e-06

> <r_epik_Ionization_Penalty_Charging>
0

> <r_epik_Ionization_Penalty_Neutral>
1.44269e-06

> <r_epik_State_Penalty>
-0

> <r_epik_Charging_Adjusted_Penalty>
0

> <i_epik_Tot_Q>
0

> <i_epik_Tot_abs_Q>
0

> <r_epik_Metal_State_Penalty>
-0

> <b_epik_Metal_Only>
0

> <s_lp_Force_Field>
OPLS_2005

> <r_lp_Energy>
13.6049

> <b_lp_Chiralities_Consistent>
1

> <s_lp_Variant>
AV-unprocessed.smi:1574-2

> <Gold.Version>
5.8.1

> <Gold.Id.Protein>
6NUR|6NUR_protein|mol2

> <Gold.PLP.Fitness>
49.1521

> <Gold.PLP.PLP>
-45.0645

> <Gold.PLP.part.hbond>
-1.9156

> <Gold.PLP.part.metal>
0.0000

> <Gold.PLP.part.buried>
-5.8089

> <Gold.PLP.part.nonpolar>
-37.3147

> <Gold.PLP.part.repulsive>
0.1577

> <Gold.PLP.ligand.clash>
0.0000

> <Gold.PLP.ligand.torsion>
0.9591

> <Gold.PLP.Chemscore.Hbond>
1.0000

> <Gold.PLP.Chemscore.CHOScore>
0.9827

> <Gold.PLP.Chemscore.Metal>
0.0000

> <Gold.Chemscore.Hbonds>
donor molecule, donor type, donor heavy atom, donor atom, acceptor molecule, acceptor atom, score
      P1  H  7997  8009       L1    13  0.93
      L1  C    16    40       P1  7948  0.88

> <Gold.PLP.Chemscore.Internal.Correction>
0.0577

> <Gold.Rescore>
     Score         DG    S(hbond)    S(metal)    S(lipo)     H(rot)  DE(clash)    DE(int)     intcor
     12.95     -13.80       1.00        0.00     106.10       2.90       0.03       0.82       ----

> <Gold.Chemscore.Fitness>
12.9494

> <Gold.Chemscore.DG>
-13.7974

> <Gold.Chemscore.ZeroCoef>
-5.4800

> <Gold.Chemscore.Hbond>
1.0000

> <Gold.Chemscore.Metal>
0.0000

> <Gold.Chemscore.Lipo>
106.1028

> <Gold.Chemscore.Internal_Hbond>
0.0000

> <Gold.Chemscore.DEClash>
0.0285

> <Gold.Chemscore.DEInternal>
0.8194

> <Gold.Chemscore.Rot>
2.9050

> <Gold.Chemscore.Internal.Correction>
   9.000000E+99

> <Gold.Chemscore.Hbonds>
donor molecule, donor type, donor heavy atom, donor atom, acceptor molecule, acceptor atom, score
      P1  H  7997  8009       L1    13  0.88

> <Gold.Chemscore.Hbond.Weighted>
-3.3400

> <Gold.Chemscore.Metal.Weighted>
-0.0000

> <Gold.Chemscore.Lipo.Weighted>
-12.4140

> <Gold.Chemscore.Internal_Hbond.Weighted>
0.0000

> <Gold.Chemscore.DEClash.Weighted>
0.0285

> <Gold.Chemscore.DEInternal.Weighted>
0.8194

> <Gold.Chemscore.Rot.Weighted>
7.4367

> <Gold.Chemscore.Internal.Correction.Weighted>
   9.000000E+99

> <Gold.Protein.RotatedTorsions>
[ 6907 6896 6895 6894 ] final    6.68 input  -60.11 | X-H torsion
[ 7974 7965 7964 7962 ] final -168.60 input  175.53 | X-H torsion
[ 8008 7997 7996 7995 ] final -130.82 input   59.86 | X-H torsion
[ 10167 10162 10161 10158 ] final  103.26 input  -65.29 | X-H torsion
[ 10718 10713 10712 10709 ] final  -95.19 input   66.30 | X-H torsion
[ 10763 10752 10751 10750 ] final  -53.24 input  -60.55 | X-H torsion
[ 11005 11000 10999 10996 ] final  173.38 input  -57.11 | X-H torsion

> <Gold.Protein.ActiveResidues>
 VAL166  LYS551  ARG553  GLY616  TRP617  ASP618  TYR619  PRO620  LYS621  CYS622 
 ASP623  PHE694  ASN695  SER759  ASP760  ASP761  ALA762  ILE779  LEU786  VAL792 
 PHE793  MET794  SER795  GLU796  ALA797  LYS798  CYS799  TRP800  GLU811  SER814 

> <Gold.Protein.RotatedAtoms>
  151.6776  135.0966  160.0209 H   0  0  0  0  0  0  0  0  0  0  0  0  # atno 6907 bound_to 6896
  152.3854  133.6600  159.6203 H   0  0  0  0  0  0  0  0  0  0  0  0  # atno 6908 bound_to 6896
  150.7781  133.8960  159.3368 H   0  0  0  0  0  0  0  0  0  0  0  0  # atno 6909 bound_to 6896
  144.7200  140.2345  143.6299 H   0  0  0  0  0  0  0  0  0  0  0  0  # atno 7974 bound_to 7965
  155.3020  140.0453  157.3030 H   0  0  0  0  0  0  0  0  0  0  0  0  # atno 8008 bound_to 7997
  154.5481  140.2309  155.8497 H   0  0  0  0  0  0  0  0  0  0  0  0  # atno 8009 bound_to 7997
  156.1942  140.3042  155.9401 H   0  0  0  0  0  0  0  0  0  0  0  0  # atno 8010 bound_to 7997
  139.7278  144.7043  151.0770 H   0  0  0  0  0  0  0  0  0  0  0  0  # atno 10167 bound_to 10162
  156.0039  130.5099  150.6040 H   0  0  0  0  0  0  0  0  0  0  0  0  # atno 10718 bound_to 10713
  154.1557  135.6483  153.4974 H   0  0  0  0  0  0  0  0  0  0  0  0  # atno 10763 bound_to 10752
  153.0125  135.5348  154.6763 H   0  0  0  0  0  0  0  0  0  0  0  0  # atno 10764 bound_to 10752
  154.6062  135.2949  155.0453 H   0  0  0  0  0  0  0  0  0  0  0  0  # atno 10765 bound_to 10752
  140.3398  134.7286  157.4194 H   0  0  0  0  0  0  0  0  0  0  0  0  # atno 11005 bound_to 11000
  145.8378  139.2116  143.1845 LP  0  0  0  0  0  0  0  0  0  0  0  0  # atno 17320 bound_to 7965
  146.0373  140.8199  142.9846 LP  0  0  0  0  0  0  0  0  0  0  0  0  # atno 17321 bound_to 7965
  140.7766  143.5082  150.9685 LP  0  0  0  0  0  0  0  0  0  0  0  0  # atno 17342 bound_to 10162
  139.8770  143.7120  152.3161 LP  0  0  0  0  0  0  0  0  0  0  0  0  # atno 17343 bound_to 10162
  157.3884  131.0792  151.1416 LP  0  0  0  0  0  0  0  0  0  0  0  0  # atno 17370 bound_to 10713
  157.2115  130.6440  149.5776 LP  0  0  0  0  0  0  0  0  0  0  0  0  # atno 17371 bound_to 10713
  140.0790  134.5757  155.8560 LP  0  0  0  0  0  0  0  0  0  0  0  0  # atno 17394 bound_to 11000
  141.2041  133.6637  156.6103 LP  0  0  0  0  0  0  0  0  0  0  0  0  # atno 17395 bound_to 11000

$$$$
