AV-unprocessed.smi:286|AV-procd|sdf|2174|dock1
  -GOLD-   2262021533D 1   1.00000     0.00000
 Structure written by MMmdl.
 46 48  0  0  0  0  0  0  0  0  1 V2000
  152.3994  139.3412  156.1186 O   0  0  0  0  0  0  0  0  0  0  0  0
  151.2559  139.3990  155.6629 C   0  0  0  0  0  0  0  0  0  0  0  0
  150.5908  138.2709  155.0229 C   0  0  0  0  0  0  0  0  0  0  0  0
  151.2138  137.0819  154.9577 F   0  0  0  0  0  0  0  0  0  0  0  0
  149.3490  138.3944  154.5074 C   0  0  0  0  0  0  0  0  0  0  0  0
  148.6338  139.5811  154.5233 N   0  0  0  0  0  0  0  0  0  0  0  0
  147.2076  139.6578  154.0162 C   0  0  1  0  0  0  0  0  0  0  0  0
  147.0533  140.3902  152.6718 C   0  0  0  0  0  0  0  0  0  0  0  0
  146.8276  139.2460  151.7029 C   0  0  0  0  0  0  0  0  0  0  0  0
  146.1092  138.2328  152.5855 C   0  0  0  0  0  0  0  0  0  0  0  0
  146.7524  138.3483  153.8483 O   0  0  0  0  0  0  0  0  0  0  0  0
  149.1706  140.7023  155.1973 C   0  0  0  0  0  0  0  0  0  0  0  0
  148.5202  141.7443  155.3023 O   0  0  0  0  0  0  0  0  0  0  0  0
  150.4781  140.5809  155.7288 N   0  0  0  0  0  0  0  0  0  0  0  0
  151.0812  141.7406  156.3714 C   0  0  0  0  0  0  0  0  0  0  0  0
  150.3841  142.1734  157.6849 C   0  0  2  0  0  0  0  0  0  0  0  0
  149.2776  142.9885  157.3533 O   0  0  0  0  0  0  0  0  0  0  0  0
  151.2937  142.8874  158.7174 C   0  0  0  0  0  0  0  0  0  0  0  0
  152.0681  141.8804  159.5951 C   0  0  0  0  0  0  0  0  0  0  0  0
  153.0329  142.5938  160.5568 C   0  0  0  0  0  0  0  0  0  0  0  0
  152.2950  143.6197  161.4305 C   0  0  0  0  0  0  0  0  0  0  0  0
  151.5147  144.6235  160.5680 C   0  0  0  0  0  0  0  0  0  0  0  0
  150.5482  143.9039  159.6139 C   0  0  0  0  0  0  0  0  0  0  0  0
  148.9102  137.5107  154.0726 H   0  0  0  0  0  0  0  0  0  0  0  0
  146.6366  140.1722  154.7906 H   0  0  0  0  0  0  0  0  0  0  0  0
  146.1566  141.0092  152.7254 H   0  0  0  0  0  0  0  0  0  0  0  0
  147.8935  141.0411  152.4314 H   0  0  0  0  0  0  0  0  0  0  0  0
  146.2449  139.5359  150.8283 H   0  0  0  0  0  0  0  0  0  0  0  0
  147.7772  138.8360  151.3586 H   0  0  0  0  0  0  0  0  0  0  0  0
  145.0563  138.4971  152.6947 H   0  0  0  0  0  0  0  0  0  0  0  0
  146.1692  137.2161  152.1970 H   0  0  0  0  0  0  0  0  0  0  0  0
  152.1461  141.5557  156.5106 H   0  0  0  0  0  0  0  0  0  0  0  0
  151.0477  142.5443  155.6330 H   0  0  0  0  0  0  0  0  0  0  0  0
  149.9681  141.2835  158.1576 H   0  0  0  0  0  0  0  0  0  0  0  0
  149.4527  143.4081  156.5250 H   0  0  0  0  0  0  0  0  0  0  0  0
  152.0473  143.4378  158.1542 H   0  0  0  0  0  0  0  0  0  0  0  0
  151.3691  141.2720  160.1703 H   0  0  0  0  0  0  0  0  0  0  0  0
  152.6310  141.1905  158.9657 H   0  0  0  0  0  0  0  0  0  0  0  0
  153.5367  141.8614  161.1884 H   0  0  0  0  0  0  0  0  0  0  0  0
  153.8137  143.0960  159.9843 H   0  0  0  0  0  0  0  0  0  0  0  0
  151.6073  143.1019  162.1006 H   0  0  0  0  0  0  0  0  0  0  0  0
  153.0062  144.1485  162.0656 H   0  0  0  0  0  0  0  0  0  0  0  0
  150.9610  145.3112  161.2079 H   0  0  0  0  0  0  0  0  0  0  0  0
  152.2121  145.2319  159.9907 H   0  0  0  0  0  0  0  0  0  0  0  0
  150.0268  144.6450  159.0107 H   0  0  0  0  0  0  0  0  0  0  0  0
  149.7821  143.3953  160.2000 H   0  0  0  0  0  0  0  0  0  0  0  0
  1  2  2  0  0  0  0
  2 14  1  0  0  0  0
  2  3  1  0  0  0  0
  3  4  1  0  0  0  0
  3  5  2  0  0  0  0
  5  6  1  0  0  0  0
  5 24  1  0  0  0  0
  6  7  1  0  0  0  0
  6 12  1  0  0  0  0
  7 11  1  0  0  0  0
  7  8  1  0  0  0  0
  7 25  1  0  0  0  0
  8  9  1  0  0  0  0
  8 26  1  0  0  0  0
  8 27  1  0  0  0  0
  9 10  1  0  0  0  0
  9 28  1  0  0  0  0
  9 29  1  0  0  0  0
 10 11  1  0  0  0  0
 10 30  1  0  0  0  0
 10 31  1  0  0  0  0
 12 13  2  0  0  0  0
 12 14  1  0  0  0  0
 14 15  1  0  0  0  0
 15 16  1  0  0  0  0
 15 32  1  0  0  0  0
 15 33  1  0  0  0  0
 16 17  1  0  0  0  0
 16 18  1  0  0  0  0
 16 34  1  0  0  0  0
 17 35  1  0  0  0  0
 18 23  1  0  0  0  0
 18 19  1  0  0  0  0
 18 36  1  0  0  0  0
 19 20  1  0  0  0  0
 19 37  1  0  0  0  0
 19 38  1  0  0  0  0
 20 21  1  0  0  0  0
 20 39  1  0  0  0  0
 20 40  1  0  0  0  0
 21 22  1  0  0  0  0
 21 41  1  0  0  0  0
 21 42  1  0  0  0  0
 22 23  1  0  0  0  0
 22 43  1  0  0  0  0
 22 44  1  0  0  0  0
 23 45  1  0  0  0  0
 23 46  1  0  0  0  0
M  END
> <s_m_source_file>
AV-unprocessed.smi

> <i_m_source_file_index>
286

> <i_lp_mmshare_version>
43012

> <i_f3d_flags>
0

> <s_epik_input>
TzFbQ0gyXVtDSDJdW0NIMl1bQ0BIXTFuKFtjSF1jKEYpYzI9TyljKD1PKW4yW0NIMl1bQ0BIXShbT0hdKVtDSF0zW0NIMl1bQ0gyXVtDSDJdW0NIMl1bQ0gyXTM=

> <s_epik_cmdline>
J2VwaWtfcHl0aG9uJywgJy1waCcsICc3LjAnLCAnLXRuJywgJzgnLCAnLW1hJywgJzIwMCcsICctbWV0YWxfYmluZGluZycsICctaW1hZScsICc8aW5maWxlLm1hZT4nLCAnLW9tYWUnLCAnPG91dGZpbGUubWFlPic=

> <r_lp_tautomer_probability>
1

> <r_epik_Ionization_Penalty>
3.15564e-07

> <r_epik_Ionization_Penalty_Charging>
2.06416e-08

> <r_epik_Ionization_Penalty_Neutral>
2.94923e-07

> <r_epik_State_Penalty>
-0

> <r_epik_Charging_Adjusted_Penalty>
2.06416e-08

> <i_epik_Tot_Q>
0

> <i_epik_Tot_abs_Q>
0

> <r_epik_Metal_State_Penalty>
-0

> <b_epik_Metal_Only>
0

> <s_epik_Chemistry_Notes>
This compound contains an acetal/aminal-like group ( X-CH(R)-Y where X, Y are N, S, or O) that may be acid/base labile, releasing an aldehyde.

> <s_lp_Force_Field>
OPLS_2005

> <r_lp_Energy>
39.3884

> <b_lp_Chiralities_Consistent>
1

> <s_lp_Variant>
AV-unprocessed.smi:286-2

> <Gold.Version>
5.8.1

> <Gold.Id.Protein>
6NUR|6NUR_protein|mol2

> <Gold.PLP.Fitness>
53.6723

> <Gold.PLP.PLP>
-47.4694

> <Gold.PLP.part.hbond>
-2.2084

> <Gold.PLP.part.metal>
0.0000

> <Gold.PLP.part.buried>
-1.0223

> <Gold.PLP.part.nonpolar>
-46.0414

> <Gold.PLP.part.repulsive>
1.3125

> <Gold.PLP.ligand.clash>
0.0000

> <Gold.PLP.ligand.torsion>
1.4622

> <Gold.PLP.Chemscore.Hbond>
2.0000

> <Gold.PLP.Chemscore.CHOScore>
1.0000

> <Gold.PLP.Chemscore.Metal>
0.0000

> <Gold.Chemscore.Hbonds>
donor molecule, donor type, donor heavy atom, donor atom, acceptor molecule, acceptor atom, score
      L1  H    17    35       P1  8028  0.75
      P1  H  7997  8009       L1     1  0.83
      L1  C     5    24       P1  7948  0.98

> <Gold.PLP.Chemscore.Internal.Correction>
0.1273

> <Gold.Rescore>
     Score         DG    S(hbond)    S(metal)    S(lipo)     H(rot)  DE(clash)    DE(int)     intcor
     17.25     -19.59       1.93        0.00     115.13       2.28       0.18       2.16       ----

> <Gold.Chemscore.Fitness>
17.2502

> <Gold.Chemscore.DG>
-19.5873

> <Gold.Chemscore.ZeroCoef>
-5.4800

> <Gold.Chemscore.Hbond>
1.9350

> <Gold.Chemscore.Metal>
0.0000

> <Gold.Chemscore.Lipo>
115.1277

> <Gold.Chemscore.Internal_Hbond>
0.0000

> <Gold.Chemscore.DEClash>
0.1783

> <Gold.Chemscore.DEInternal>
2.1587

> <Gold.Chemscore.Rot>
2.2756

> <Gold.Chemscore.Internal.Correction>
   9.000000E+99

> <Gold.Chemscore.Hbonds>
donor molecule, donor type, donor heavy atom, donor atom, acceptor molecule, acceptor atom, score
      L1  H    17    35       P1  8028  0.74
      P1  H  7997  8009       L1     1  0.82

> <Gold.Chemscore.Hbond.Weighted>
-6.4627

> <Gold.Chemscore.Metal.Weighted>
-0.0000

> <Gold.Chemscore.Lipo.Weighted>
-13.4699

> <Gold.Chemscore.Internal_Hbond.Weighted>
0.0000

> <Gold.Chemscore.DEClash.Weighted>
0.1783

> <Gold.Chemscore.DEInternal.Weighted>
2.1587

> <Gold.Chemscore.Rot.Weighted>
5.8254

> <Gold.Chemscore.Internal.Correction.Weighted>
   9.000000E+99

> <Gold.Protein.RotatedTorsions>
[ 6907 6896 6895 6894 ] final  100.15 input  -60.11 | X-H torsion
[ 7974 7965 7964 7962 ] final -111.77 input  175.53 | X-H torsion
[ 8008 7997 7996 7995 ] final -158.81 input   59.86 | X-H torsion
[ 10167 10162 10161 10158 ] final  -38.35 input  -65.29 | X-H torsion
[ 10718 10713 10712 10709 ] final  171.66 input   66.30 | X-H torsion
[ 10763 10752 10751 10750 ] final  -36.81 input  -60.55 | X-H torsion
[ 11005 11000 10999 10996 ] final   95.54 input  -57.11 | X-H torsion

> <Gold.Protein.ActiveResidues>
 VAL166  LYS551  ARG553  GLY616  TRP617  ASP618  TYR619  PRO620  LYS621  CYS622 
 ASP623  PHE694  ASN695  SER759  ASP760  ASP761  ALA762  ILE779  LEU786  VAL792 
 PHE793  MET794  SER795  GLU796  ALA797  LYS798  CYS799  TRP800  GLU811  SER814 

> <Gold.Protein.RotatedAtoms>
  152.5378  134.0320  159.8028 H   0  0  0  0  0  0  0  0  0  0  0  0  # atno 6907 bound_to 6896
  151.0490  133.5633  159.2651 H   0  0  0  0  0  0  0  0  0  0  0  0  # atno 6908 bound_to 6896
  151.2574  135.0650  159.9139 H   0  0  0  0  0  0  0  0  0  0  0  0  # atno 6909 bound_to 6896
  145.1521  140.8834  143.3640 H   0  0  0  0  0  0  0  0  0  0  0  0  # atno 7974 bound_to 7965
  155.7531  140.0829  157.2191 H   0  0  0  0  0  0  0  0  0  0  0  0  # atno 8008 bound_to 7997
  154.4010  140.1556  156.2803 H   0  0  0  0  0  0  0  0  0  0  0  0  # atno 8009 bound_to 7997
  155.8911  140.3415  155.5960 H   0  0  0  0  0  0  0  0  0  0  0  0  # atno 8010 bound_to 7997
  140.7094  143.3283  151.2628 H   0  0  0  0  0  0  0  0  0  0  0  0  # atno 10167 bound_to 10162
  156.9903  131.0146  151.2858 H   0  0  0  0  0  0  0  0  0  0  0  0  # atno 10718 bound_to 10713
  153.8860  135.6817  153.4763 H   0  0  0  0  0  0  0  0  0  0  0  0  # atno 10763 bound_to 10752
  153.1207  135.4741  154.9189 H   0  0  0  0  0  0  0  0  0  0  0  0  # atno 10764 bound_to 10752
  154.7646  135.3220  154.8264 H   0  0  0  0  0  0  0  0  0  0  0  0  # atno 10765 bound_to 10752
  139.8788  134.8904  156.4026 H   0  0  0  0  0  0  0  0  0  0  0  0  # atno 11005 bound_to 11000
  145.0420  139.3252  143.5972 LP  0  0  0  0  0  0  0  0  0  0  0  0  # atno 17320 bound_to 7965
  146.3493  139.9797  142.8697 LP  0  0  0  0  0  0  0  0  0  0  0  0  # atno 17321 bound_to 7965
  139.6758  143.9941  152.2780 LP  0  0  0  0  0  0  0  0  0  0  0  0  # atno 17342 bound_to 10162
  139.9554  144.6593  150.8131 LP  0  0  0  0  0  0  0  0  0  0  0  0  # atno 17343 bound_to 10162
  157.5463  130.8153  149.8090 LP  0  0  0  0  0  0  0  0  0  0  0  0  # atno 17370 bound_to 10713
  156.0209  130.3796  150.1964 LP  0  0  0  0  0  0  0  0  0  0  0  0  # atno 17371 bound_to 10713
  140.9256  133.7614  155.9961 LP  0  0  0  0  0  0  0  0  0  0  0  0  # atno 17394 bound_to 11000
  140.8389  134.3090  157.5321 LP  0  0  0  0  0  0  0  0  0  0  0  0  # atno 17395 bound_to 11000

$$$$
