AV-unprocessed.smi:1658|AV-procd|sdf|6649|dock2
  -GOLD-   22720 7353D 1   1.00000     0.00000
 Structure written by MMmdl.
 47 48  0  0  0  0  0  0  0  0  2 V2000
  136.0940  142.0385  154.4258 C   0  0  0  0  0  0  0  0  0  0  0  0
  136.4865  140.7209  154.7947 O   0  0  0  0  0  0  0  0  0  0  0  0
  137.7398  140.2814  154.4202 C   0  0  0  0  0  0  0  0  0  0  0  0
  138.0470  138.9145  154.5695 C   0  0  0  0  0  0  0  0  0  0  0  0
  139.3253  138.4619  154.1925 C   0  0  0  0  0  0  0  0  0  0  0  0
  140.2548  139.3829  153.6689 C   0  0  0  0  0  0  0  0  0  0  0  0
  141.5462  138.9037  153.3207 N   0  0  0  0  0  0  0  0  0  0  0  0
  142.0123  137.6445  153.3748 C   0  0  0  0  0  0  0  0  0  0  0  0
  141.3976  136.6759  153.8206 O   0  0  0  0  0  0  0  0  0  0  0  0
  143.2594  137.5695  152.8880 N   0  0  0  0  0  0  0  0  0  0  0  0
  144.0738  136.3566  152.8022 C   0  0  0  0  0  0  0  0  0  0  0  0
  145.6050  136.6183  152.6459 C   0  0  0  0  0  0  0  0  0  0  0  0
  145.8789  137.6087  151.4872 C   0  0  0  0  0  0  0  0  0  0  0  0
  146.1083  137.2753  153.9592 C   0  0  0  0  0  0  0  0  0  0  0  0
  146.2968  135.2973  152.4032 N   0  3  0  0  0  0  0  0  0  0  0  0
  146.4030  134.4024  153.5924 C   0  0  0  0  0  0  0  0  0  0  0  0
  147.2824  133.1816  153.2806 C   0  0  0  0  0  0  0  0  0  0  0  0
  146.7262  132.4688  152.1860 O   0  0  0  0  0  0  0  0  0  0  0  0
  146.6938  133.2629  151.0097 C   0  0  0  0  0  0  0  0  0  0  0  0
  145.8150  134.5062  151.2335 C   0  0  0  0  0  0  0  0  0  0  0  0
  139.8543  140.7375  153.5671 C   0  0  0  0  0  0  0  0  0  0  0  0
  138.6305  141.1784  153.9294 N   0  0  0  0  0  0  0  0  0  0  0  0
  135.0895  142.2335  154.8007 H   0  0  0  0  0  0  0  0  0  0  0  0
  136.0723  142.1597  153.3419 H   0  0  0  0  0  0  0  0  0  0  0  0
  136.7583  142.7889  154.8570 H   0  0  0  0  0  0  0  0  0  0  0  0
  137.3164  138.2264  154.9686 H   0  0  0  0  0  0  0  0  0  0  0  0
  139.5847  137.4189  154.3027 H   0  0  0  0  0  0  0  0  0  0  0  0
  142.2031  139.6101  153.0228 H   0  0  0  0  0  0  0  0  0  0  0  0
  143.6830  138.4212  152.5494 H   0  0  0  0  0  0  0  0  0  0  0  0
  143.8956  135.7869  153.7150 H   0  0  0  0  0  0  0  0  0  0  0  0
  143.6822  135.7411  151.9937 H   0  0  0  0  0  0  0  0  0  0  0  0
  145.4960  138.6038  151.7142 H   0  0  0  0  0  0  0  0  0  0  0  0
  145.4036  137.2942  150.5578 H   0  0  0  0  0  0  0  0  0  0  0  0
  146.9453  137.7228  151.2939 H   0  0  0  0  0  0  0  0  0  0  0  0
  145.5488  138.1768  154.2087 H   0  0  0  0  0  0  0  0  0  0  0  0
  147.1476  137.5961  153.8881 H   0  0  0  0  0  0  0  0  0  0  0  0
  146.0198  136.5947  154.8067 H   0  0  0  0  0  0  0  0  0  0  0  0
  146.8322  134.9161  154.4493 H   0  0  0  0  0  0  0  0  0  0  0  0
  145.4136  134.0554  153.8918 H   0  0  0  0  0  0  0  0  0  0  0  0
  148.3079  133.4818  153.0593 H   0  0  0  0  0  0  0  0  0  0  0  0
  147.3242  132.5189  154.1453 H   0  0  0  0  0  0  0  0  0  0  0  0
  147.7070  133.5497  150.7231 H   0  0  0  0  0  0  0  0  0  0  0  0
  146.2916  132.6638  150.1925 H   0  0  0  0  0  0  0  0  0  0  0  0
  144.7786  134.2046  151.3873 H   0  0  0  0  0  0  0  0  0  0  0  0
  145.8525  135.0850  150.3123 H   0  0  0  0  0  0  0  0  0  0  0  0
  140.5229  141.5059  153.2116 H   0  0  0  0  0  0  0  0  0  0  0  0
  147.2469  135.5474  152.1682 H   0  0  0  0  0  0  0  0  0  0  0  0
  1  2  1  0  0  0  0
  1 23  1  0  0  0  0
  1 24  1  0  0  0  0
  1 25  1  0  0  0  0
  2  3  1  0  0  0  0
  3 22  1  0  0  0  0
  3  4  2  0  0  0  0
  4  5  1  0  0  0  0
  4 26  1  0  0  0  0
  5  6  2  0  0  0  0
  5 27  1  0  0  0  0
  6  7  1  0  0  0  0
  6 21  1  0  0  0  0
  7  8  1  0  0  0  0
  7 28  1  0  0  0  0
  8  9  2  0  0  0  0
  8 10  1  0  0  0  0
 10 11  1  0  0  0  0
 10 29  1  0  0  0  0
 11 12  1  0  0  0  0
 11 30  1  0  0  0  0
 11 31  1  0  0  0  0
 12 13  1  0  0  0  0
 12 14  1  0  0  0  0
 12 15  1  0  0  0  0
 13 32  1  0  0  0  0
 13 33  1  0  0  0  0
 13 34  1  0  0  0  0
 14 35  1  0  0  0  0
 14 36  1  0  0  0  0
 14 37  1  0  0  0  0
 15 20  1  0  0  0  0
 15 16  1  0  0  0  0
 15 47  1  0  0  0  0
 16 17  1  0  0  0  0
 16 38  1  0  0  0  0
 16 39  1  0  0  0  0
 17 18  1  0  0  0  0
 17 40  1  0  0  0  0
 17 41  1  0  0  0  0
 18 19  1  0  0  0  0
 19 20  1  0  0  0  0
 19 42  1  0  0  0  0
 19 43  1  0  0  0  0
 20 44  1  0  0  0  0
 20 45  1  0  0  0  0
 21 22  2  0  0  0  0
 21 46  1  0  0  0  0
M  CHG  1  15   1
M  END
> <s_m_source_file>
AV-unprocessed.smi

> <i_m_source_file_index>
1658

> <i_lp_mmshare_version>
43012

> <i_f3d_flags>
0

> <s_epik_input>
W0NIM11PYzFbY0hdW2NIXWMoW2NIXW4xKVtOSF1DKD1PKVtOSF1bQ0gyXUMoW0NIM10pKFtDSDNdKU4yW0NIMl1bQ0gyXU9bQ0gyXVtDSDJdMg==

> <s_epik_cmdline>
J2VwaWtfcHl0aG9uJywgJy1waCcsICc3LjAnLCAnLXRuJywgJzgnLCAnLW1hJywgJzIwMCcsICctbWV0YWxfYmluZGluZycsICctaW1hZScsICc8aW5maWxlLm1hZT4nLCAnLW9tYWUnLCAnPG91dGZpbGUubWFlPic=

> <r_lp_tautomer_probability>
1

> <r_epik_Ionization_Penalty>
0.602608

> <r_epik_Ionization_Penalty_Charging>
0.602531

> <r_epik_Ionization_Penalty_Neutral>
7.74737e-05

> <r_epik_State_Penalty>
0.617039

> <r_epik_Charging_Adjusted_Penalty>
1.21957

> <i_epik_Tot_Q>
1

> <i_epik_Tot_abs_Q>
1

> <r_epik_Metal_State_Penalty>
0.617043

> <b_epik_Metal_Only>
0

> <s_lp_Force_Field>
OPLS_2005

> <r_lp_Energy>
28.7753

> <b_lp_Chiralities_Consistent>
1

> <s_lp_Variant>
AV-unprocessed.smi:1658-2

> <Gold.Version>
5.8.1

> <Gold.Id.Protein>
6NUR|6NUR_protein|mol2

> <Gold.PLP.Fitness>
41.8122

> <Gold.PLP.PLP>
-27.3425

> <Gold.PLP.part.hbond>
-4.5472

> <Gold.PLP.part.metal>
0.0000

> <Gold.PLP.part.buried>
1.5918

> <Gold.PLP.part.nonpolar>
-25.6854

> <Gold.PLP.part.repulsive>
0.4347

> <Gold.PLP.ligand.clash>
0.0000

> <Gold.PLP.ligand.torsion>
0.4674

> <Gold.PLP.Chemscore.Hbond>
3.9920

> <Gold.PLP.Chemscore.CHOScore>
1.0906

> <Gold.PLP.Chemscore.Metal>
0.0000

> <Gold.Chemscore.Hbonds>
donor molecule, donor type, donor heavy atom, donor atom, acceptor molecule, acceptor atom, score
      L1  H     7    28       P1 10175  1.00
      L1  H    10    29       P1 10175  0.96
      L1  H    15    47       P1  7948  2.00
      L1  C    21    46       P1 10160  0.23
      L1  C    21    46       P1 10174  1.00

> <Gold.PLP.Chemscore.Internal.Correction>
0.1566

> <Gold.Rescore>
     Score         DG    S(hbond)    S(metal)    S(lipo)     H(rot)  DE(clash)    DE(int)     intcor
     15.31     -18.71       2.86        0.00      69.79       1.76       1.41       2.00       ----

> <Gold.Chemscore.Fitness>
15.3075

> <Gold.Chemscore.DG>
-18.7126

> <Gold.Chemscore.ZeroCoef>
-5.4800

> <Gold.Chemscore.Hbond>
2.8642

> <Gold.Chemscore.Metal>
0.0000

> <Gold.Chemscore.Lipo>
69.7925

> <Gold.Chemscore.Internal_Hbond>
0.0000

> <Gold.Chemscore.DEClash>
1.4050

> <Gold.Chemscore.DEInternal>
2.0000

> <Gold.Chemscore.Rot>
1.7577

> <Gold.Chemscore.Internal.Correction>
   9.000000E+99

> <Gold.Chemscore.Hbonds>
donor molecule, donor type, donor heavy atom, donor atom, acceptor molecule, acceptor atom, score
      L1  H     7    28       P1 10175  0.85
      L1  H    10    29       P1 10175  0.88
      L1  H    15    47       P1  7948  1.00

> <Gold.Chemscore.Hbond.Weighted>
-9.5666

> <Gold.Chemscore.Metal.Weighted>
-0.0000

> <Gold.Chemscore.Lipo.Weighted>
-8.1657

> <Gold.Chemscore.Internal_Hbond.Weighted>
0.0000

> <Gold.Chemscore.DEClash.Weighted>
1.4050

> <Gold.Chemscore.DEInternal.Weighted>
2.0000

> <Gold.Chemscore.Rot.Weighted>
4.4997

> <Gold.Chemscore.Internal.Correction.Weighted>
   9.000000E+99

> <Gold.Protein.RotatedTorsions>
[ 6907 6896 6895 6894 ] final  -51.41 input  -60.11 | X-H torsion
[ 7974 7965 7964 7962 ] final  157.92 input  175.53 | X-H torsion
[ 8008 7997 7996 7995 ] final -165.14 input   59.86 | X-H torsion
[ 10167 10162 10161 10158 ] final -171.56 input  -65.29 | X-H torsion
[ 10718 10713 10712 10709 ] final  -25.56 input   66.30 | X-H torsion
[ 10763 10752 10751 10750 ] final -110.72 input  -60.55 | X-H torsion
[ 11005 11000 10999 10996 ] final -176.04 input  -57.11 | X-H torsion

> <Gold.Protein.ActiveResidues>
 VAL166  LYS551  ARG553  GLY616  TRP617  ASP618  TYR619  PRO620  LYS621  CYS622 
 ASP623  PHE694  ASN695  SER759  ASP760  ASP761  ALA762  ILE779  LEU786  VAL792 
 PHE793  MET794  SER795  GLU796  ALA797  LYS798  CYS799  TRP800  GLU811  SER814 

> <Gold.Protein.RotatedAtoms>
  150.8614  134.7967  159.7085 H   0  0  0  0  0  0  0  0  0  0  0  0  # atno 6907 bound_to 6896
  152.4650  134.5093  159.9759 H   0  0  0  0  0  0  0  0  0  0  0  0  # atno 6908 bound_to 6896
  151.5196  133.3430  159.2935 H   0  0  0  0  0  0  0  0  0  0  0  0  # atno 6909 bound_to 6896
  144.7875  139.7407  143.6235 H   0  0  0  0  0  0  0  0  0  0  0  0  # atno 7974 bound_to 7965
  155.8456  140.0955  157.1707 H   0  0  0  0  0  0  0  0  0  0  0  0  # atno 8008 bound_to 7997
  154.3983  140.1393  156.3843 H   0  0  0  0  0  0  0  0  0  0  0  0  # atno 8009 bound_to 7997
  155.8017  140.3452  155.5409 H   0  0  0  0  0  0  0  0  0  0  0  0  # atno 8010 bound_to 7997
  139.5795  144.1456  152.1496 H   0  0  0  0  0  0  0  0  0  0  0  0  # atno 10167 bound_to 10162
  156.4628  130.4507  149.6918 H   0  0  0  0  0  0  0  0  0  0  0  0  # atno 10718 bound_to 10713
  154.8263  135.4553  154.0929 H   0  0  0  0  0  0  0  0  0  0  0  0  # atno 10763 bound_to 10752
  153.2240  135.6897  153.7973 H   0  0  0  0  0  0  0  0  0  0  0  0  # atno 10764 bound_to 10752
  153.7380  135.3317  155.3275 H   0  0  0  0  0  0  0  0  0  0  0  0  # atno 10765 bound_to 10752
  140.4566  134.6294  157.4824 H   0  0  0  0  0  0  0  0  0  0  0  0  # atno 11005 bound_to 11000
  146.2113  139.5472  142.9679 LP  0  0  0  0  0  0  0  0  0  0  0  0  # atno 17320 bound_to 7965
  145.5882  141.0373  143.2085 LP  0  0  0  0  0  0  0  0  0  0  0  0  # atno 17321 bound_to 7965
  140.1006  144.5543  150.6992 LP  0  0  0  0  0  0  0  0  0  0  0  0  # atno 17342 bound_to 10162
  140.7075  143.2479  151.4683 LP  0  0  0  0  0  0  0  0  0  0  0  0  # atno 17343 bound_to 10162
  156.3699  130.7525  151.2507 LP  0  0  0  0  0  0  0  0  0  0  0  0  # atno 17370 bound_to 10713
  157.7497  131.0326  150.4234 LP  0  0  0  0  0  0  0  0  0  0  0  0  # atno 17371 bound_to 10713
  139.9972  134.6892  155.9589 LP  0  0  0  0  0  0  0  0  0  0  0  0  # atno 17394 bound_to 11000
  141.1640  133.6537  156.4417 LP  0  0  0  0  0  0  0  0  0  0  0  0  # atno 17395 bound_to 11000

$$$$
