AV-unprocessed.smi:249|AV-procd|sdf|1921|dock1
  -GOLD-   2262021 23D 1   1.00000     0.00000
 Structure written by MMmdl.
 64 67  0  0  0  0  0  0  0  0  2 V2000
  151.0796  145.1228  158.8846 C   0  0  0  0  0  0  0  0  0  0  0  0
  151.1023  144.3668  160.2236 C   0  0  0  0  0  0  0  0  0  0  0  0
  152.2788  143.4621  160.3800 N   0  3  1  0  0  0  0  0  0  0  0  0
  152.7118  143.3591  161.8046 C   0  0  0  0  0  0  0  0  0  0  0  0
  153.9898  142.5241  161.9649 C   0  0  0  0  0  0  0  0  0  0  0  0
  153.7839  141.1210  161.3842 C   0  0  2  0  0  0  0  0  0  0  0  0
  154.9647  140.2696  161.5530 N   0  0  0  0  0  0  0  0  0  0  0  0
  155.7843  139.8728  160.4104 C   0  0  0  0  0  0  0  0  0  0  0  0
  155.4720  140.0896  162.7999 C   0  0  0  0  0  0  0  0  0  0  0  0
  155.3620  138.8660  163.3813 N   0  0  0  0  0  0  0  0  0  0  0  0
  155.8594  138.6494  164.6022 C   0  0  0  0  0  0  0  0  0  0  0  0
  156.4879  139.5045  165.4105 N   0  0  0  0  0  0  0  0  0  0  0  0
  156.5851  140.7403  164.8429 C   0  0  0  0  0  0  0  0  0  0  0  0
  156.1121  141.1166  163.5532 C   0  0  0  0  0  0  0  0  0  0  0  0
  156.3853  142.4616  163.3269 N   0  0  0  0  0  0  0  0  0  0  0  0
  156.9960  142.8527  164.4115 C   0  0  0  0  0  0  0  0  0  0  0  0
  157.1412  141.8875  165.3820 N   0  0  0  0  0  0  0  0  0  0  0  0
  157.7801  142.0491  166.6760 C   0  0  0  0  0  0  0  0  0  0  0  0
  158.1892  143.5051  167.0222 C   0  0  1  0  0  0  0  0  0  0  0  0
  156.9242  144.3941  167.0511 C   0  0  0  0  0  0  0  0  0  0  0  0
  156.0143  143.9735  168.0474 O   0  0  0  0  0  0  0  0  0  0  0  0
  159.0447  143.6451  168.3158 C   0  0  2  0  0  0  0  0  0  0  0  0
  159.6028  145.0390  168.5590 C   0  0  0  0  0  0  0  0  0  0  0  0
  160.7112  144.7696  169.5656 C   0  0  0  0  0  0  0  0  0  0  0  0
  161.2854  143.5448  169.1367 O   0  0  0  0  0  0  0  0  0  0  0  0
  160.3399  142.8170  168.3580 C   0  0  0  0  0  0  0  0  0  0  0  0
  153.3591  141.2456  159.9156 C   0  0  0  0  0  0  0  0  0  0  0  0
  152.0875  142.1082  159.7610 C   0  0  2  0  0  0  0  0  0  0  0  0
  151.7144  142.1690  158.2650 C   0  0  0  0  0  0  0  0  0  0  0  0
  150.1268  145.6372  158.7569 H   0  0  0  0  0  0  0  0  0  0  0  0
  151.1994  144.4412  158.0421 H   0  0  0  0  0  0  0  0  0  0  0  0
  151.8563  145.8843  158.8226 H   0  0  0  0  0  0  0  0  0  0  0  0
  151.0599  145.0690  161.0573 H   0  0  0  0  0  0  0  0  0  0  0  0
  150.1781  143.7944  160.2526 H   0  0  0  0  0  0  0  0  0  0  0  0
  152.9126  144.3453  162.2190 H   0  0  0  0  0  0  0  0  0  0  0  0
  151.9056  142.9257  162.3988 H   0  0  0  0  0  0  0  0  0  0  0  0
  154.8177  143.0306  161.4672 H   0  0  0  0  0  0  0  0  0  0  0  0
  154.2547  142.4561  163.0208 H   0  0  0  0  0  0  0  0  0  0  0  0
  152.9501  140.6873  161.9349 H   0  0  0  0  0  0  0  0  0  0  0  0
  156.2380  138.8958  160.5812 H   0  0  0  0  0  0  0  0  0  0  0  0
  156.5809  140.5979  160.2416 H   0  0  0  0  0  0  0  0  0  0  0  0
  155.1912  139.8059  159.4992 H   0  0  0  0  0  0  0  0  0  0  0  0
  155.7355  137.6478  164.9867 H   0  0  0  0  0  0  0  0  0  0  0  0
  157.3459  143.8668  164.5403 H   0  0  0  0  0  0  0  0  0  0  0  0
  157.0852  141.6702  167.4263 H   0  0  0  0  0  0  0  0  0  0  0  0
  158.6531  141.3961  166.7124 H   0  0  0  0  0  0  0  0  0  0  0  0
  158.7931  143.8808  166.1958 H   0  0  0  0  0  0  0  0  0  0  0  0
  157.1801  145.4390  167.2255 H   0  0  0  0  0  0  0  0  0  0  0  0
  156.4189  144.3654  166.0851 H   0  0  0  0  0  0  0  0  0  0  0  0
  156.4754  143.4264  168.6648 H   0  0  0  0  0  0  0  0  0  0  0  0
  158.4355  143.3743  169.1800 H   0  0  0  0  0  0  0  0  0  0  0  0
  160.0250  145.4492  167.6402 H   0  0  0  0  0  0  0  0  0  0  0  0
  158.8602  145.7408  168.9396 H   0  0  0  0  0  0  0  0  0  0  0  0
  161.4514  145.5690  169.6048 H   0  0  0  0  0  0  0  0  0  0  0  0
  160.2958  144.6365  170.5654 H   0  0  0  0  0  0  0  0  0  0  0  0
  160.1825  141.8311  168.7934 H   0  0  0  0  0  0  0  0  0  0  0  0
  160.7593  142.6839  167.3602 H   0  0  0  0  0  0  0  0  0  0  0  0
  154.1648  141.6796  159.3224 H   0  0  0  0  0  0  0  0  0  0  0  0
  153.1809  140.2491  159.5091 H   0  0  0  0  0  0  0  0  0  0  0  0
  151.2741  141.6094  160.2909 H   0  0  0  0  0  0  0  0  0  0  0  0
  151.7473  141.1761  157.8152 H   0  0  0  0  0  0  0  0  0  0  0  0
  152.4043  142.8031  157.7073 H   0  0  0  0  0  0  0  0  0  0  0  0
  150.7019  142.5367  158.1029 H   0  0  0  0  0  0  0  0  0  0  0  0
  153.0400  143.8955  159.8770 H   0  0  0  0  0  0  0  0  0  0  0  0
  1  2  1  0  0  0  0
  1 30  1  0  0  0  0
  1 31  1  0  0  0  0
  1 32  1  0  0  0  0
  2  3  1  0  0  0  0
  2 33  1  0  0  0  0
  2 34  1  0  0  0  0
  3 28  1  0  0  0  0
  3  4  1  0  0  0  0
  3 64  1  0  0  0  0
  4  5  1  0  0  0  0
  4 35  1  0  0  0  0
  4 36  1  0  0  0  0
  5  6  1  0  0  0  0
  5 37  1  0  0  0  0
  5 38  1  0  0  0  0
  6  7  1  0  0  0  0
  6 27  1  0  0  0  0
  6 39  1  0  0  0  0
  7  8  1  0  0  0  0
  7  9  1  0  0  0  0
  8 40  1  0  0  0  0
  8 41  1  0  0  0  0
  8 42  1  0  0  0  0
  9 14  1  0  0  0  0
  9 10  2  0  0  0  0
 10 11  1  0  0  0  0
 11 12  2  0  0  0  0
 11 43  1  0  0  0  0
 12 13  1  0  0  0  0
 13 17  1  0  0  0  0
 13 14  2  0  0  0  0
 14 15  1  0  0  0  0
 15 16  2  0  0  0  0
 16 17  1  0  0  0  0
 16 44  1  0  0  0  0
 17 18  1  0  0  0  0
 18 19  1  0  0  0  0
 18 45  1  0  0  0  0
 18 46  1  0  0  0  0
 19 20  1  0  0  0  0
 19 22  1  0  0  0  0
 19 47  1  0  0  0  0
 20 21  1  0  0  0  0
 20 48  1  0  0  0  0
 20 49  1  0  0  0  0
 21 50  1  0  0  0  0
 22 26  1  0  0  0  0
 22 23  1  0  0  0  0
 22 51  1  0  0  0  0
 23 24  1  0  0  0  0
 23 52  1  0  0  0  0
 23 53  1  0  0  0  0
 24 25  1  0  0  0  0
 24 54  1  0  0  0  0
 24 55  1  0  0  0  0
 25 26  1  0  0  0  0
 26 56  1  0  0  0  0
 26 57  1  0  0  0  0
 27 28  1  0  0  0  0
 27 58  1  0  0  0  0
 27 59  1  0  0  0  0
 28 29  1  0  0  0  0
 28 60  1  0  0  0  0
 29 61  1  0  0  0  0
 29 62  1  0  0  0  0
 29 63  1  0  0  0  0
M  CHG  1   3   1
M  END
> <s_m_source_file>
AV-unprocessed.smi

> <i_m_source_file_index>
249

> <i_lp_mmshare_version>
43012

> <i_f3d_flags>
0

> <s_epik_input>
W0NIM11bQ0gyXU4xW0NIMl1bQ0gyXVtDQEhdKFtDSDJdW0NASF0xW0NIM10pTihbQ0gzXSljKG5bY0hdbjIpYyhjMjMpbltjSF1uM1tDSDJdW0NASF0oW0NIMl1bT0hdKVtDQEBIXTRbQ0gyXVtDSDJdT1tDSDJdNA==

> <s_epik_cmdline>
J2VwaWtfcHl0aG9uJywgJy1waCcsICc3LjAnLCAnLXRuJywgJzgnLCAnLW1hJywgJzIwMCcsICctbWV0YWxfYmluZGluZycsICctaW1hZScsICc8aW5maWxlLm1hZT4nLCAnLW9tYWUnLCAnPG91dGZpbGUubWFlPic=

> <r_lp_tautomer_probability>
1

> <r_epik_Ionization_Penalty>
0.00294688

> <r_epik_Ionization_Penalty_Charging>
0.00169971

> <r_epik_Ionization_Penalty_Neutral>
0.00124717

> <r_epik_State_Penalty>
-0

> <r_epik_Charging_Adjusted_Penalty>
0.00169971

> <i_epik_Tot_Q>
1

> <i_epik_Tot_abs_Q>
1

> <r_epik_Metal_State_Penalty>
-0

> <b_epik_Metal_Only>
0

> <s_lp_Force_Field>
OPLS_2005

> <r_lp_Energy>
53.8216

> <b_lp_Chiralities_Consistent>
1

> <s_lp_Variant>
AV-unprocessed.smi:249-24

> <Gold.Version>
5.8.1

> <Gold.Id.Protein>
6NUR|6NUR_protein|mol2

> <Gold.PLP.Fitness>
50.6959

> <Gold.PLP.PLP>
-54.1315

> <Gold.PLP.part.hbond>
-3.0000

> <Gold.PLP.part.metal>
0.0000

> <Gold.PLP.part.buried>
-6.9200

> <Gold.PLP.part.nonpolar>
-44.2365

> <Gold.PLP.part.repulsive>
0.2067

> <Gold.PLP.ligand.clash>
0.0000

> <Gold.PLP.ligand.torsion>
1.9502

> <Gold.PLP.Chemscore.Hbond>
0.0000

> <Gold.PLP.Chemscore.CHOScore>
0.0000

> <Gold.PLP.Chemscore.Metal>
0.0000

> <Gold.PLP.Chemscore.Internal.Correction>
0.4649

> <Gold.Rescore>
     Score         DG    S(hbond)    S(metal)    S(lipo)     H(rot)  DE(clash)    DE(int)     intcor
      5.87     -11.72       0.00        0.00     111.33       2.65       2.08       3.77       ----

> <Gold.Chemscore.Fitness>
5.8724

> <Gold.Chemscore.DG>
-11.7176

> <Gold.Chemscore.ZeroCoef>
-5.4800

> <Gold.Chemscore.Hbond>
0.0000

> <Gold.Chemscore.Metal>
0.0000

> <Gold.Chemscore.Lipo>
111.3298

> <Gold.Chemscore.Internal_Hbond>
0.0000

> <Gold.Chemscore.DEClash>
2.0756

> <Gold.Chemscore.DEInternal>
3.7696

> <Gold.Chemscore.Rot>
2.6515

> <Gold.Chemscore.Internal.Correction>
   9.000000E+99

> <Gold.Chemscore.Hbond.Weighted>
-0.0000

> <Gold.Chemscore.Metal.Weighted>
-0.0000

> <Gold.Chemscore.Lipo.Weighted>
-13.0256

> <Gold.Chemscore.Internal_Hbond.Weighted>
0.0000

> <Gold.Chemscore.DEClash.Weighted>
2.0756

> <Gold.Chemscore.DEInternal.Weighted>
3.7696

> <Gold.Chemscore.Rot.Weighted>
6.7880

> <Gold.Chemscore.Internal.Correction.Weighted>
   9.000000E+99

> <Gold.Protein.RotatedTorsions>
[ 6907 6896 6895 6894 ] final  149.03 input  -60.11 | X-H torsion
[ 7974 7965 7964 7962 ] final  116.42 input  175.53 | X-H torsion
[ 8008 7997 7996 7995 ] final -151.73 input   59.86 | X-H torsion
[ 10167 10162 10161 10158 ] final  -56.00 input  -65.29 | X-H torsion
[ 10718 10713 10712 10709 ] final  -17.85 input   66.30 | X-H torsion
[ 10763 10752 10751 10750 ] final  150.64 input  -60.55 | X-H torsion
[ 11005 11000 10999 10996 ] final   49.92 input  -57.11 | X-H torsion

> <Gold.Protein.ActiveResidues>
 VAL166  LYS551  ARG553  GLY616  TRP617  ASP618  TYR619  PRO620  LYS621  CYS622 
 ASP623  PHE694  ASN695  SER759  ASP760  ASP761  ALA762  ILE779  LEU786  VAL792 
 PHE793  MET794  SER795  GLU796  ALA797  LYS798  CYS799  TRP800  GLU811  SER814 

> <Gold.Protein.RotatedAtoms>
  152.1336  133.4422  159.4732 H   0  0  0  0  0  0  0  0  0  0  0  0  # atno 6907 bound_to 6896
  150.6880  134.2391  159.4474 H   0  0  0  0  0  0  0  0  0  0  0  0  # atno 6908 bound_to 6896
  152.0277  134.9786  160.0622 H   0  0  0  0  0  0  0  0  0  0  0  0  # atno 6909 bound_to 6896
  145.1798  139.3056  143.4424 H   0  0  0  0  0  0  0  0  0  0  0  0  # atno 7974 bound_to 7965
  155.6440  140.0705  157.2609 H   0  0  0  0  0  0  0  0  0  0  0  0  # atno 8008 bound_to 7997
  154.4177  140.1745  156.1653 H   0  0  0  0  0  0  0  0  0  0  0  0  # atno 8009 bound_to 7997
  155.9832  140.3352  155.6686 H   0  0  0  0  0  0  0  0  0  0  0  0  # atno 8010 bound_to 7997
  140.6342  143.2474  151.5161 H   0  0  0  0  0  0  0  0  0  0  0  0  # atno 10167 bound_to 10162
  156.5677  130.4741  149.6377 H   0  0  0  0  0  0  0  0  0  0  0  0  # atno 10718 bound_to 10713
  154.0908  135.2852  155.3272 H   0  0  0  0  0  0  0  0  0  0  0  0  # atno 10763 bound_to 10752
  154.6621  135.5330  153.8034 H   0  0  0  0  0  0  0  0  0  0  0  0  # atno 10764 bound_to 10752
  153.0414  135.6536  154.1077 H   0  0  0  0  0  0  0  0  0  0  0  0  # atno 10765 bound_to 10752
  140.1061  134.5016  155.8718 H   0  0  0  0  0  0  0  0  0  0  0  0  # atno 11005 bound_to 11000
  146.3455  140.1973  142.8589 LP  0  0  0  0  0  0  0  0  0  0  0  0  # atno 17320 bound_to 7965
  145.0148  140.8744  143.5202 LP  0  0  0  0  0  0  0  0  0  0  0  0  # atno 17321 bound_to 7965
  139.5554  144.2290  152.1602 LP  0  0  0  0  0  0  0  0  0  0  0  0  # atno 17342 bound_to 10162
  140.1542  144.5087  150.6670 LP  0  0  0  0  0  0  0  0  0  0  0  0  # atno 17343 bound_to 10162
  156.2742  130.7034  151.1840 LP  0  0  0  0  0  0  0  0  0  0  0  0  # atno 17370 bound_to 10713
  157.7355  131.0572  150.5467 LP  0  0  0  0  0  0  0  0  0  0  0  0  # atno 17371 bound_to 10713
  141.2118  133.6712  156.6614 LP  0  0  0  0  0  0  0  0  0  0  0  0  # atno 17394 bound_to 11000
  140.3153  134.8052  157.4209 LP  0  0  0  0  0  0  0  0  0  0  0  0  # atno 17395 bound_to 11000

$$$$
