AV-unprocessed.smi:2191|AV-procd|sdf|8893|dock6
  -GOLD-   2272012103D 1   1.00000     0.00000
 Structure written by MMmdl.
 36 38  0  0  0  0  0  0  0  0  1 V2000
  150.1885  140.2340  153.9346 O   0  0  0  0  0  0  0  0  0  0  0  0
  149.1847  140.7194  154.8051 C   0  0  1  0  0  0  0  0  0  0  0  0
  149.8093  141.7905  155.7127 C   0  0  0  0  0  0  0  0  0  0  0  0
  150.2444  141.1743  156.9174 O   0  0  0  0  0  0  0  0  0  0  0  0
  150.9677  141.9307  157.8148 C   0  0  0  0  0  0  0  0  0  0  0  0
  150.7576  143.3251  157.7900 C   0  0  0  0  0  0  0  0  0  0  0  0
  151.4547  144.1754  158.6699 C   0  0  0  0  0  0  0  0  0  0  0  0
  152.3736  143.6358  159.5887 C   0  0  0  0  0  0  0  0  0  0  0  0
  152.5922  142.2461  159.6258 C   0  0  0  0  0  0  0  0  0  0  0  0
  151.8954  141.3958  158.7448 C   0  0  0  0  0  0  0  0  0  0  0  0
  148.0210  141.2846  153.9675 C   0  0  0  0  0  0  0  0  0  0  0  0
  146.9038  141.7236  154.7853 N   0  0  0  0  0  0  0  0  0  0  0  0
  146.6583  141.3896  156.0668 C   0  0  0  0  0  0  0  0  0  0  0  0
  145.5735  141.9081  156.6352 N   0  0  0  0  0  0  0  0  0  0  0  0
  145.0538  142.6690  155.6020 C   0  0  0  0  0  0  0  0  0  0  0  0
  143.8979  143.4810  155.5530 C   0  0  0  0  0  0  0  0  0  0  0  0
  143.5631  144.1769  154.3726 C   0  0  0  0  0  0  0  0  0  0  0  0
  144.3752  144.0702  153.2247 C   0  0  0  0  0  0  0  0  0  0  0  0
  145.5306  143.2656  153.2489 C   0  0  0  0  0  0  0  0  0  0  0  0
  145.8632  142.5753  154.4296 C   0  0  0  0  0  0  0  0  0  0  0  0
  149.7987  140.0776  153.0878 H   0  0  0  0  0  0  0  0  0  0  0  0
  148.8139  139.8933  155.4133 H   0  0  0  0  0  0  0  0  0  0  0  0
  150.6273  142.3006  155.2003 H   0  0  0  0  0  0  0  0  0  0  0  0
  149.0543  142.5378  155.9629 H   0  0  0  0  0  0  0  0  0  0  0  0
  150.0539  143.7475  157.0877 H   0  0  0  0  0  0  0  0  0  0  0  0
  151.2838  145.2412  158.6394 H   0  0  0  0  0  0  0  0  0  0  0  0
  152.9095  144.2865  160.2639 H   0  0  0  0  0  0  0  0  0  0  0  0
  153.2964  141.8306  160.3313 H   0  0  0  0  0  0  0  0  0  0  0  0
  152.0912  140.3360  158.8031 H   0  0  0  0  0  0  0  0  0  0  0  0
  148.3616  142.1355  153.3758 H   0  0  0  0  0  0  0  0  0  0  0  0
  147.6638  140.5370  153.2582 H   0  0  0  0  0  0  0  0  0  0  0  0
  147.3140  140.7273  156.6131 H   0  0  0  0  0  0  0  0  0  0  0  0
  143.2683  143.5696  156.4260 H   0  0  0  0  0  0  0  0  0  0  0  0
  142.6781  144.7956  154.3480 H   0  0  0  0  0  0  0  0  0  0  0  0
  144.1102  144.6056  152.3247 H   0  0  0  0  0  0  0  0  0  0  0  0
  146.1529  143.1791  152.3708 H   0  0  0  0  0  0  0  0  0  0  0  0
  1  2  1  0  0  0  0
  1 21  1  0  0  0  0
  2  3  1  0  0  0  0
  2 11  1  0  0  0  0
  2 22  1  0  0  0  0
  3  4  1  0  0  0  0
  3 23  1  0  0  0  0
  3 24  1  0  0  0  0
  4  5  1  0  0  0  0
  5 10  1  0  0  0  0
  5  6  2  0  0  0  0
  6  7  1  0  0  0  0
  6 25  1  0  0  0  0
  7  8  2  0  0  0  0
  7 26  1  0  0  0  0
  8  9  1  0  0  0  0
  8 27  1  0  0  0  0
  9 10  2  0  0  0  0
  9 28  1  0  0  0  0
 10 29  1  0  0  0  0
 11 12  1  0  0  0  0
 11 30  1  0  0  0  0
 11 31  1  0  0  0  0
 12 20  1  0  0  0  0
 12 13  1  0  0  0  0
 13 14  2  0  0  0  0
 13 32  1  0  0  0  0
 14 15  1  0  0  0  0
 15 20  2  0  0  0  0
 15 16  1  0  0  0  0
 16 17  2  0  0  0  0
 16 33  1  0  0  0  0
 17 18  1  0  0  0  0
 17 34  1  0  0  0  0
 18 19  2  0  0  0  0
 18 35  1  0  0  0  0
 19 20  1  0  0  0  0
 19 36  1  0  0  0  0
M  END
> <s_m_source_file>
AV-unprocessed.smi

> <i_m_source_file_index>
2191

> <i_lp_mmshare_version>
43012

> <i_f3d_flags>
0

> <s_epik_input>
W2NIXTFbY0hdW2NIXVtjSF1jKGMxMiluKFtjSF1uMilbQ0gyXVtDQEhdKFtPSF0pW0NIMl1PYzNbY0hdW2NIXVtjSF1bY0hdW2NIXTM=

> <s_epik_cmdline>
J2VwaWtfcHl0aG9uJywgJy1waCcsICc3LjAnLCAnLXRuJywgJzgnLCAnLW1hJywgJzIwMCcsICctbWV0YWxfYmluZGluZycsICctaW1hZScsICc8aW5maWxlLm1hZT4nLCAnLW9tYWUnLCAnPG91dGZpbGUubWFlPic=

> <r_lp_tautomer_probability>
1

> <r_epik_Ionization_Penalty>
0.0640132

> <r_epik_Ionization_Penalty_Charging>
0

> <r_epik_Ionization_Penalty_Neutral>
0.0640132

> <r_epik_State_Penalty>
0.0557325

> <r_epik_Charging_Adjusted_Penalty>
0.0557325

> <i_epik_Tot_Q>
0

> <i_epik_Tot_abs_Q>
0

> <r_epik_Metal_State_Penalty>
5.8435e-05

> <b_epik_Metal_Only>
0

> <s_lp_Force_Field>
OPLS_2005

> <r_lp_Energy>
16.2786

> <b_lp_Chiralities_Consistent>
1

> <s_lp_Variant>
AV-unprocessed.smi:2191-2

> <Gold.Version>
5.8.1

> <Gold.Id.Protein>
6NUR|6NUR_protein|mol2

> <Gold.PLP.Fitness>
51.5791

> <Gold.PLP.PLP>
-47.9429

> <Gold.PLP.part.hbond>
-2.0000

> <Gold.PLP.part.metal>
0.0000

> <Gold.PLP.part.buried>
-5.6185

> <Gold.PLP.part.nonpolar>
-41.4029

> <Gold.PLP.part.repulsive>
0.1588

> <Gold.PLP.ligand.clash>
0.0000

> <Gold.PLP.ligand.torsion>
1.0724

> <Gold.PLP.Chemscore.Hbond>
1.9120

> <Gold.PLP.Chemscore.CHOScore>
0.0000

> <Gold.PLP.Chemscore.Metal>
0.0000

> <Gold.Chemscore.Hbonds>
donor molecule, donor type, donor heavy atom, donor atom, acceptor molecule, acceptor atom, score
      L1  H     1    21       P1  7957  1.00
      P1  H  7989  7998       L1     1  0.86

> <Gold.PLP.Chemscore.Internal.Correction>
0.0451

> <Gold.Rescore>
     Score         DG    S(hbond)    S(metal)    S(lipo)     H(rot)  DE(clash)    DE(int)     intcor
     17.82     -18.91       1.54        0.00     119.46       2.22       0.10       0.99       ----

> <Gold.Chemscore.Fitness>
17.8178

> <Gold.Chemscore.DG>
-18.9078

> <Gold.Chemscore.ZeroCoef>
-5.4800

> <Gold.Chemscore.Hbond>
1.5372

> <Gold.Chemscore.Metal>
0.0000

> <Gold.Chemscore.Lipo>
119.4599

> <Gold.Chemscore.Internal_Hbond>
0.0000

> <Gold.Chemscore.DEClash>
0.1035

> <Gold.Chemscore.DEInternal>
0.9865

> <Gold.Chemscore.Rot>
2.2200

> <Gold.Chemscore.Internal.Correction>
   9.000000E+99

> <Gold.Chemscore.Hbonds>
donor molecule, donor type, donor heavy atom, donor atom, acceptor molecule, acceptor atom, score
      L1  H     1    21       P1  7957  0.99
      P1  H  7989  7998       L1     1  0.22

> <Gold.Chemscore.Hbond.Weighted>
-5.1343

> <Gold.Chemscore.Metal.Weighted>
-0.0000

> <Gold.Chemscore.Lipo.Weighted>
-13.9768

> <Gold.Chemscore.Internal_Hbond.Weighted>
0.0000

> <Gold.Chemscore.DEClash.Weighted>
0.1035

> <Gold.Chemscore.DEInternal.Weighted>
0.9865

> <Gold.Chemscore.Rot.Weighted>
5.6832

> <Gold.Chemscore.Internal.Correction.Weighted>
   9.000000E+99

> <Gold.Protein.RotatedTorsions>
[ 6907 6896 6895 6894 ] final   60.41 input  -60.11 | X-H torsion
[ 7974 7965 7964 7962 ] final  115.80 input  175.53 | X-H torsion
[ 8008 7997 7996 7995 ] final   91.83 input   59.86 | X-H torsion
[ 10167 10162 10161 10158 ] final   43.79 input  -65.29 | X-H torsion
[ 10718 10713 10712 10709 ] final  159.37 input   66.30 | X-H torsion
[ 10763 10752 10751 10750 ] final  -48.27 input  -60.55 | X-H torsion
[ 11005 11000 10999 10996 ] final   72.92 input  -57.11 | X-H torsion

> <Gold.Protein.ActiveResidues>
 VAL166  LYS551  ARG553  GLY616  TRP617  ASP618  TYR619  PRO620  LYS621  CYS622 
 ASP623  PHE694  ASN695  SER759  ASP760  ASP761  ALA762  ILE779  LEU786  VAL792 
 PHE793  MET794  SER795  GLU796  ALA797  LYS798  CYS799  TRP800  GLU811  SER814 

> <Gold.Protein.RotatedAtoms>
  152.4000  134.6302  160.0073 H   0  0  0  0  0  0  0  0  0  0  0  0  # atno 6907 bound_to 6896
  151.6510  133.3315  159.3160 H   0  0  0  0  0  0  0  0  0  0  0  0  # atno 6908 bound_to 6896
  150.7902  134.6962  159.6569 H   0  0  0  0  0  0  0  0  0  0  0  0  # atno 6909 bound_to 6896
  145.1875  139.3017  143.4385 H   0  0  0  0  0  0  0  0  0  0  0  0  # atno 7974 bound_to 7965
  156.0283  140.3333  155.7112 H   0  0  0  0  0  0  0  0  0  0  0  0  # atno 8008 bound_to 7997
  155.5922  140.0647  157.2773 H   0  0  0  0  0  0  0  0  0  0  0  0  # atno 8009 bound_to 7997
  154.4343  140.1825  156.1074 H   0  0  0  0  0  0  0  0  0  0  0  0  # atno 8010 bound_to 7997
  140.3408  144.2473  150.6156 H   0  0  0  0  0  0  0  0  0  0  0  0  # atno 10167 bound_to 10162
  157.1651  131.0596  151.2212 H   0  0  0  0  0  0  0  0  0  0  0  0  # atno 10718 bound_to 10713
  154.0750  135.6599  153.4829 H   0  0  0  0  0  0  0  0  0  0  0  0  # atno 10763 bound_to 10752
  153.0377  135.5166  154.7530 H   0  0  0  0  0  0  0  0  0  0  0  0  # atno 10764 bound_to 10752
  154.6607  135.3014  154.9837 H   0  0  0  0  0  0  0  0  0  0  0  0  # atno 10765 bound_to 10752
  139.9466  134.7302  156.0964 H   0  0  0  0  0  0  0  0  0  0  0  0  # atno 11005 bound_to 11000
  146.3442  140.2077  142.8590 LP  0  0  0  0  0  0  0  0  0  0  0  0  # atno 17320 bound_to 7965
  145.0074  140.8684  143.5245 LP  0  0  0  0  0  0  0  0  0  0  0  0  # atno 17321 bound_to 7965
  140.5311  143.2243  151.8237 LP  0  0  0  0  0  0  0  0  0  0  0  0  # atno 17342 bound_to 10162
  139.4841  144.4719  151.9414 LP  0  0  0  0  0  0  0  0  0  0  0  0  # atno 17343 bound_to 10162
  157.4096  130.7378  149.6829 LP  0  0  0  0  0  0  0  0  0  0  0  0  # atno 17370 bound_to 10713
  155.9747  130.4099  150.3901 LP  0  0  0  0  0  0  0  0  0  0  0  0  # atno 17371 bound_to 10713
  141.1118  133.6641  156.2997 LP  0  0  0  0  0  0  0  0  0  0  0  0  # atno 17394 bound_to 11000
  140.5820  134.5736  157.5481 LP  0  0  0  0  0  0  0  0  0  0  0  0  # atno 17395 bound_to 11000

$$$$
