AV-unprocessed.smi:2079|AV-procd|sdf|8480|dock3
  -GOLD-   2272011183D 1   1.00000     0.00000
 Structure written by MMmdl.
 41 42  0  0  0  0  0  0  0  0  3 V2000
  151.5283  140.9881  155.5778 C   0  0  0  0  0  0  0  0  0  0  0  0
  151.6785  139.5108  155.4473 C   0  0  0  0  0  0  0  0  0  0  0  0
  150.7796  138.5022  155.2466 C   0  0  0  0  0  0  0  0  0  0  0  0
  151.5969  137.3395  155.2183 C   0  0  0  0  0  0  0  0  0  0  0  0
  151.1661  136.0787  155.0580 N   0  5  0  0  0  0  0  0  0  0  0  0
  149.9122  135.7350  155.4304 C   0  0  0  0  0  0  0  0  0  0  0  0
  149.1828  136.3525  156.2097 O   0  0  0  0  0  0  0  0  0  0  0  0
  149.4764  134.6004  154.8679 N   0  0  0  0  0  0  0  0  0  0  0  0
  148.1751  133.9928  155.1072 C   0  0  0  0  0  0  0  0  0  0  0  0
  147.0530  134.9790  154.7445 C   0  0  0  0  0  0  0  0  0  0  0  0
  146.7703  135.0471  153.2851 N   0  3  1  0  0  0  0  0  0  0  0  0
  146.3116  133.7360  152.7509 C   0  0  0  0  0  0  0  0  0  0  0  0
  146.2232  133.7509  151.2168 C   0  0  0  0  0  0  0  0  0  0  0  0
  145.3134  134.8831  150.7298 C   0  0  0  0  0  0  0  0  0  0  0  0
  145.7986  136.2211  151.3028 C   0  0  0  0  0  0  0  0  0  0  0  0
  145.9127  136.1925  152.8421 C   0  0  1  0  0  0  0  0  0  0  0  0
  144.5313  136.2341  153.5298 C   0  0  0  0  0  0  0  0  0  0  0  0
  152.8769  137.6163  155.4016 N   0  0  0  0  0  0  0  0  0  0  0  0
  152.9387  139.0078  155.5421 O   0  0  0  0  0  0  0  0  0  0  0  0
  150.8616  141.2354  156.4038 H   0  0  0  0  0  0  0  0  0  0  0  0
  151.1099  141.4145  154.6663 H   0  0  0  0  0  0  0  0  0  0  0  0
  152.4897  141.4673  155.7648 H   0  0  0  0  0  0  0  0  0  0  0  0
  149.7087  138.5823  155.1356 H   0  0  0  0  0  0  0  0  0  0  0  0
  150.1013  134.1261  154.2325 H   0  0  0  0  0  0  0  0  0  0  0  0
  148.1049  133.0873  154.5040 H   0  0  0  0  0  0  0  0  0  0  0  0
  148.1016  133.6984  156.1551 H   0  0  0  0  0  0  0  0  0  0  0  0
  146.1433  134.6559  155.2533 H   0  0  0  0  0  0  0  0  0  0  0  0
  147.2751  135.9735  155.1330 H   0  0  0  0  0  0  0  0  0  0  0  0
  147.0093  132.9541  153.0535 H   0  0  0  0  0  0  0  0  0  0  0  0
  145.3461  133.4731  153.1842 H   0  0  0  0  0  0  0  0  0  0  0  0
  147.2212  133.8745  150.7937 H   0  0  0  0  0  0  0  0  0  0  0  0
  145.8508  132.7920  150.8551 H   0  0  0  0  0  0  0  0  0  0  0  0
  145.3109  134.9200  149.6401 H   0  0  0  0  0  0  0  0  0  0  0  0
  144.2841  134.6924  151.0360 H   0  0  0  0  0  0  0  0  0  0  0  0
  146.7757  136.4539  150.8770 H   0  0  0  0  0  0  0  0  0  0  0  0
  145.1340  137.0258  150.9863 H   0  0  0  0  0  0  0  0  0  0  0  0
  146.4270  137.1146  153.1100 H   0  0  0  0  0  0  0  0  0  0  0  0
  143.9410  137.0704  153.1550 H   0  0  0  0  0  0  0  0  0  0  0  0
  144.6201  136.3736  154.6070 H   0  0  0  0  0  0  0  0  0  0  0  0
  143.9539  135.3268  153.3567 H   0  0  0  0  0  0  0  0  0  0  0  0
  147.6686  135.2073  152.8518 H   0  0  0  0  0  0  0  0  0  0  0  0
  1  2  1  0  0  0  0
  1 20  1  0  0  0  0
  1 21  1  0  0  0  0
  1 22  1  0  0  0  0
  2 19  1  0  0  0  0
  2  3  2  0  0  0  0
  3  4  1  0  0  0  0
  3 23  1  0  0  0  0
  4  5  1  0  0  0  0
  4 18  2  0  0  0  0
  5  6  1  0  0  0  0
  6  7  2  0  0  0  0
  6  8  1  0  0  0  0
  8  9  1  0  0  0  0
  8 24  1  0  0  0  0
  9 10  1  0  0  0  0
  9 25  1  0  0  0  0
  9 26  1  0  0  0  0
 10 11  1  0  0  0  0
 10 27  1  0  0  0  0
 10 28  1  0  0  0  0
 11 16  1  0  0  0  0
 11 12  1  0  0  0  0
 11 41  1  0  0  0  0
 12 13  1  0  0  0  0
 12 29  1  0  0  0  0
 12 30  1  0  0  0  0
 13 14  1  0  0  0  0
 13 31  1  0  0  0  0
 13 32  1  0  0  0  0
 14 15  1  0  0  0  0
 14 33  1  0  0  0  0
 14 34  1  0  0  0  0
 15 16  1  0  0  0  0
 15 35  1  0  0  0  0
 15 36  1  0  0  0  0
 16 17  1  0  0  0  0
 16 37  1  0  0  0  0
 17 38  1  0  0  0  0
 17 39  1  0  0  0  0
 17 40  1  0  0  0  0
 18 19  1  0  0  0  0
M  CHG  1   5  -1
M  CHG  1  11   1
M  END
> <s_m_source_file>
AV-unprocessed.smi

> <i_m_source_file_index>
2079

> <i_lp_mmshare_version>
43012

> <i_f3d_flags>
0

> <s_epik_input>
W0NIM11jMVtjSF1jKG5vMSlbTkhdQyg9TylbTkhdW0NIMl1bQ0gyXU4yW0NIMl1bQ0gyXVtDSDJdW0NIMl1bQ0BIXTJbQ0gzXQ==

> <s_epik_cmdline>
J2VwaWtfcHl0aG9uJywgJy1waCcsICc3LjAnLCAnLXRuJywgJzgnLCAnLW1hJywgJzIwMCcsICctbWV0YWxfYmluZGluZycsICctaW1hZScsICc8aW5maWxlLm1hZT4nLCAnLW9tYWUnLCAnPG91dGZpbGUubWFlPic=

> <r_epik_Ionization_Penalty>
6.22371

> <r_epik_Ionization_Penalty_Charging>
6.22362

> <r_epik_Ionization_Penalty_Neutral>
9.40454e-05

> <r_epik_State_Penalty>
6.22363

> <r_epik_Charging_Adjusted_Penalty>
12.4472

> <i_epik_Tot_Q>
0

> <i_epik_Tot_abs_Q>
2

> <r_epik_Metal_State_Penalty>
2.16675

> <b_epik_Metal_Only>
1

> <s_lp_Force_Field>
OPLS_2005

> <r_lp_Energy>
9.70106

> <b_lp_Chiralities_Consistent>
1

> <s_lp_Variant>
AV-unprocessed.smi:2079-6

> <Gold.Version>
5.8.1

> <Gold.Id.Protein>
6NUR|6NUR_protein|mol2

> <Gold.PLP.Fitness>
45.4245

> <Gold.PLP.PLP>
-31.0904

> <Gold.PLP.part.hbond>
-5.4494

> <Gold.PLP.part.metal>
0.0000

> <Gold.PLP.part.buried>
-3.3433

> <Gold.PLP.part.nonpolar>
-23.0487

> <Gold.PLP.part.repulsive>
1.1258

> <Gold.PLP.ligand.clash>
0.0000

> <Gold.PLP.ligand.torsion>
0.3754

> <Gold.PLP.Chemscore.Hbond>
5.0000

> <Gold.PLP.Chemscore.CHOScore>
0.0000

> <Gold.PLP.Chemscore.Metal>
0.0000

> <Gold.Chemscore.Hbonds>
donor molecule, donor type, donor heavy atom, donor atom, acceptor molecule, acceptor atom, score
      L1  H    11    41       P1  7948  2.00
      P1  H  7997  8009       L1    19  1.00
      P1  H 10752 10763       L1     5  0.90

> <Gold.PLP.Chemscore.Internal.Correction>
0.0849

> <Gold.Rescore>
     Score         DG    S(hbond)    S(metal)    S(lipo)     H(rot)  DE(clash)    DE(int)     intcor
     14.27     -16.10       2.60        0.00      50.18       1.54       0.01       1.82       ----

> <Gold.Chemscore.Fitness>
14.2687

> <Gold.Chemscore.DG>
-16.0988

> <Gold.Chemscore.ZeroCoef>
-5.4800

> <Gold.Chemscore.Hbond>
2.6027

> <Gold.Chemscore.Metal>
0.0000

> <Gold.Chemscore.Lipo>
50.1755

> <Gold.Chemscore.Internal_Hbond>
0.0000

> <Gold.Chemscore.DEClash>
0.0060

> <Gold.Chemscore.DEInternal>
1.8241

> <Gold.Chemscore.Rot>
1.5409

> <Gold.Chemscore.Internal.Correction>
   9.000000E+99

> <Gold.Chemscore.Hbonds>
donor molecule, donor type, donor heavy atom, donor atom, acceptor molecule, acceptor atom, score
      L1  H    11    41       P1  7948  0.98
      P1  H  7997  8009       L1    19  0.97
      P1  H 10752 10763       L1     5  0.02

> <Gold.Chemscore.Hbond.Weighted>
-8.6929

> <Gold.Chemscore.Metal.Weighted>
-0.0000

> <Gold.Chemscore.Lipo.Weighted>
-5.8705

> <Gold.Chemscore.Internal_Hbond.Weighted>
0.0000

> <Gold.Chemscore.DEClash.Weighted>
0.0060

> <Gold.Chemscore.DEInternal.Weighted>
1.8241

> <Gold.Chemscore.Rot.Weighted>
3.9446

> <Gold.Chemscore.Internal.Correction.Weighted>
   9.000000E+99

> <Gold.Protein.RotatedTorsions>
[ 6907 6896 6895 6894 ] final  162.09 input  -60.11 | X-H torsion
[ 7974 7965 7964 7962 ] final    1.28 input  175.53 | X-H torsion
[ 8008 7997 7996 7995 ] final -145.36 input   59.86 | X-H torsion
[ 10167 10162 10161 10158 ] final  -12.87 input  -65.29 | X-H torsion
[ 10718 10713 10712 10709 ] final -124.26 input   66.30 | X-H torsion
[ 10763 10752 10751 10750 ] final   56.37 input  -60.55 | X-H torsion
[ 11005 11000 10999 10996 ] final -107.79 input  -57.11 | X-H torsion

> <Gold.Protein.ActiveResidues>
 VAL166  LYS551  ARG553  GLY616  TRP617  ASP618  TYR619  PRO620  LYS621  CYS622 
 ASP623  PHE694  ASN695  SER759  ASP760  ASP761  ALA762  ILE779  LEU786  VAL792 
 PHE793  MET794  SER795  GLU796  ALA797  LYS798  CYS799  TRP800  GLU811  SER814 

> <Gold.Protein.RotatedAtoms>
  151.9458  133.3651  159.3981 H   0  0  0  0  0  0  0  0  0  0  0  0  # atno 6907 bound_to 6896
  150.6990  134.4392  159.5293 H   0  0  0  0  0  0  0  0  0  0  0  0  # atno 6908 bound_to 6896
  152.2057  134.8548  160.0554 H   0  0  0  0  0  0  0  0  0  0  0  0  # atno 6909 bound_to 6896
  146.2439  140.1011  142.8347 H   0  0  0  0  0  0  0  0  0  0  0  0  # atno 7974 bound_to 7965
  155.5419  140.0609  157.2868 H   0  0  0  0  0  0  0  0  0  0  0  0  # atno 8008 bound_to 7997
  154.4449  140.1918  156.0643 H   0  0  0  0  0  0  0  0  0  0  0  0  # atno 8009 bound_to 7997
  156.0579  140.3276  155.7430 H   0  0  0  0  0  0  0  0  0  0  0  0  # atno 8010 bound_to 7997
  140.7170  143.5486  150.9327 H   0  0  0  0  0  0  0  0  0  0  0  0  # atno 10167 bound_to 10162
  156.1573  130.6577  150.9999 H   0  0  0  0  0  0  0  0  0  0  0  0  # atno 10718 bound_to 10713
  152.9831  135.5678  154.5218 H   0  0  0  0  0  0  0  0  0  0  0  0  # atno 10763 bound_to 10752
  154.4704  135.2784  155.1648 H   0  0  0  0  0  0  0  0  0  0  0  0  # atno 10764 bound_to 10752
  154.3199  135.6271  153.5556 H   0  0  0  0  0  0  0  0  0  0  0  0  # atno 10765 bound_to 10752
  141.0936  133.9012  157.2018 H   0  0  0  0  0  0  0  0  0  0  0  0  # atno 11005 bound_to 11000
  145.0568  140.9058  143.4962 LP  0  0  0  0  0  0  0  0  0  0  0  0  # atno 17320 bound_to 7965
  145.1119  139.2751  143.5633 LP  0  0  0  0  0  0  0  0  0  0  0  0  # atno 17321 bound_to 7965
  139.9210  143.6606  152.3096 LP  0  0  0  0  0  0  0  0  0  0  0  0  # atno 17342 bound_to 10162
  139.7023  144.7633  151.1253 LP  0  0  0  0  0  0  0  0  0  0  0  0  # atno 17343 bound_to 10162
  157.6705  131.0862  150.7625 LP  0  0  0  0  0  0  0  0  0  0  0  0  # atno 17370 bound_to 10713
  156.7689  130.4822  149.5422 LP  0  0  0  0  0  0  0  0  0  0  0  0  # atno 17371 bound_to 10713
  139.9767  135.0111  156.9648 LP  0  0  0  0  0  0  0  0  0  0  0  0  # atno 17394 bound_to 11000
  140.5194  134.0922  155.7288 LP  0  0  0  0  0  0  0  0  0  0  0  0  # atno 17395 bound_to 11000

$$$$
