AV-unprocessed.smi:155|AV-procd|sdf|1284|dock4
  -GOLD-   2262018553D 1   1.00000     0.00000
 Structure written by MMmdl.
 64 67  0  0  0  0  0  0  0  0  3 V2000
  143.6725  132.6417  151.4069 C   0  0  0  0  0  0  0  0  0  0  0  0
  143.5958  133.7466  150.4230 N   0  3  0  0  0  0  0  0  0  0  0  0
  144.1879  133.3564  149.1238 C   0  0  0  0  0  0  0  0  0  0  0  0
  144.1549  135.0266  150.9286 C   0  0  0  0  0  0  0  0  0  0  0  0
  145.6702  134.9378  151.2257 C   0  0  0  0  0  0  0  0  0  0  0  0
  146.2133  136.1159  151.9538 N   0  3  1  0  0  0  0  0  0  0  0  0
  145.7976  137.4111  151.3609 C   0  0  0  0  0  0  0  0  0  0  0  0
  146.7445  138.5590  151.7354 C   0  0  0  0  0  0  0  0  0  0  0  0
  146.7849  138.8830  153.2364 C   0  0  0  0  0  0  0  0  0  0  0  0
  147.6261  137.9390  153.9771 N   0  0  0  0  0  0  0  0  0  0  0  0
  148.4852  138.4378  154.9037 C   0  0  0  0  0  0  0  0  0  0  0  0
  148.9912  137.6149  155.8607 N   0  0  0  0  0  0  0  0  0  0  0  0
  149.8527  138.0833  156.7689 C   0  0  0  0  0  0  0  0  0  0  0  0
  150.3362  139.3199  156.9002 N   0  0  0  0  0  0  0  0  0  0  0  0
  149.8334  140.1506  155.9436 C   0  0  0  0  0  0  0  0  0  0  0  0
  148.9136  139.7963  154.9161 C   0  0  0  0  0  0  0  0  0  0  0  0
  148.6254  140.9116  154.1374 N   0  0  0  0  0  0  0  0  0  0  0  0
  149.3382  141.8669  154.6691 C   0  0  0  0  0  0  0  0  0  0  0  0
  150.0978  141.4951  155.7547 N   0  0  0  0  0  0  0  0  0  0  0  0
  150.9799  142.3465  156.5326 C   0  0  0  0  0  0  0  0  0  0  0  0
  150.5569  142.4610  158.0121 C   0  0  2  0  0  0  0  0  0  0  0  0
  149.2445  142.9862  158.0367 O   0  0  0  0  0  0  0  0  0  0  0  0
  151.5020  143.3334  158.8709 C   0  0  1  0  0  0  0  0  0  0  0  0
  151.4476  144.8473  158.6443 C   0  0  0  0  0  0  0  0  0  0  0  0
  151.9702  145.3603  159.9674 C   0  0  0  0  0  0  0  0  0  0  0  0
  151.3466  144.3733  160.9513 C   0  0  0  0  0  0  0  0  0  0  0  0
  151.2703  143.1284  160.2616 O   0  0  0  0  0  0  0  0  0  0  0  0
  147.2279  136.5485  154.2129 C   0  0  0  0  0  0  0  0  0  0  0  0
  146.0033  136.0556  153.4233 C   0  0  0  0  0  0  0  0  0  0  0  0
  144.7075  132.4324  151.6810 H   0  0  0  0  0  0  0  0  0  0  0  0
  143.2408  131.7293  150.9938 H   0  0  0  0  0  0  0  0  0  0  0  0
  143.1168  132.8755  152.3145 H   0  0  0  0  0  0  0  0  0  0  0  0
  145.2603  133.1808  149.2198 H   0  0  0  0  0  0  0  0  0  0  0  0
  144.0333  134.1350  148.3758 H   0  0  0  0  0  0  0  0  0  0  0  0
  143.7252  132.4438  148.7461 H   0  0  0  0  0  0  0  0  0  0  0  0
  143.9405  135.8251  150.2169 H   0  0  0  0  0  0  0  0  0  0  0  0
  143.6288  135.2842  151.8486 H   0  0  0  0  0  0  0  0  0  0  0  0
  145.8818  134.0426  151.8127 H   0  0  0  0  0  0  0  0  0  0  0  0
  146.2328  134.8249  150.2988 H   0  0  0  0  0  0  0  0  0  0  0  0
  145.7957  137.3212  150.2737 H   0  0  0  0  0  0  0  0  0  0  0  0
  144.7735  137.6523  151.6501 H   0  0  0  0  0  0  0  0  0  0  0  0
  147.7517  138.3597  151.3660 H   0  0  0  0  0  0  0  0  0  0  0  0
  146.4075  139.4512  151.2066 H   0  0  0  0  0  0  0  0  0  0  0  0
  147.1821  139.8942  153.3329 H   0  0  0  0  0  0  0  0  0  0  0  0
  145.7808  138.9084  153.6609 H   0  0  0  0  0  0  0  0  0  0  0  0
  150.2062  137.3640  157.4932 H   0  0  0  0  0  0  0  0  0  0  0  0
  149.3324  142.8743  154.2786 H   0  0  0  0  0  0  0  0  0  0  0  0
  151.9932  141.9492  156.4582 H   0  0  0  0  0  0  0  0  0  0  0  0
  150.9978  143.3327  156.0667 H   0  0  0  0  0  0  0  0  0  0  0  0
  150.5215  141.4591  158.4417 H   0  0  0  0  0  0  0  0  0  0  0  0
  149.1105  143.4957  157.2523 H   0  0  0  0  0  0  0  0  0  0  0  0
  152.5314  143.0080  158.7159 H   0  0  0  0  0  0  0  0  0  0  0  0
  152.0475  145.1702  157.7933 H   0  0  0  0  0  0  0  0  0  0  0  0
  150.4262  145.1982  158.4948 H   0  0  0  0  0  0  0  0  0  0  0  0
  153.0582  145.2845  159.9965 H   0  0  0  0  0  0  0  0  0  0  0  0
  151.6928  146.3956  160.1676 H   0  0  0  0  0  0  0  0  0  0  0  0
  151.9204  144.2847  161.8740 H   0  0  0  0  0  0  0  0  0  0  0  0
  150.3344  144.6857  161.2112 H   0  0  0  0  0  0  0  0  0  0  0  0
  148.0687  135.8990  153.9709 H   0  0  0  0  0  0  0  0  0  0  0  0
  147.0338  136.4153  155.2785 H   0  0  0  0  0  0  0  0  0  0  0  0
  145.1019  136.5983  153.7124 H   0  0  0  0  0  0  0  0  0  0  0  0
  145.8301  135.0215  153.7245 H   0  0  0  0  0  0  0  0  0  0  0  0
  142.6148  133.9078  150.2426 H   0  0  0  0  0  0  0  0  0  0  0  0
  147.2132  136.0578  151.8196 H   0  0  0  0  0  0  0  0  0  0  0  0
  1  2  1  0  0  0  0
  1 30  1  0  0  0  0
  1 31  1  0  0  0  0
  1 32  1  0  0  0  0
  2  3  1  0  0  0  0
  2  4  1  0  0  0  0
  2 63  1  0  0  0  0
  3 33  1  0  0  0  0
  3 34  1  0  0  0  0
  3 35  1  0  0  0  0
  4  5  1  0  0  0  0
  4 36  1  0  0  0  0
  4 37  1  0  0  0  0
  5  6  1  0  0  0  0
  5 38  1  0  0  0  0
  5 39  1  0  0  0  0
  6 29  1  0  0  0  0
  6  7  1  0  0  0  0
  6 64  1  0  0  0  0
  7  8  1  0  0  0  0
  7 40  1  0  0  0  0
  7 41  1  0  0  0  0
  8  9  1  0  0  0  0
  8 42  1  0  0  0  0
  8 43  1  0  0  0  0
  9 10  1  0  0  0  0
  9 44  1  0  0  0  0
  9 45  1  0  0  0  0
 10 11  1  0  0  0  0
 10 28  1  0  0  0  0
 11 16  1  0  0  0  0
 11 12  2  0  0  0  0
 12 13  1  0  0  0  0
 13 14  2  0  0  0  0
 13 46  1  0  0  0  0
 14 15  1  0  0  0  0
 15 19  1  0  0  0  0
 15 16  2  0  0  0  0
 16 17  1  0  0  0  0
 17 18  2  0  0  0  0
 18 19  1  0  0  0  0
 18 47  1  0  0  0  0
 19 20  1  0  0  0  0
 20 21  1  0  0  0  0
 20 48  1  0  0  0  0
 20 49  1  0  0  0  0
 21 22  1  0  0  0  0
 21 23  1  0  0  0  0
 21 50  1  0  0  0  0
 22 51  1  0  0  0  0
 23 27  1  0  0  0  0
 23 24  1  0  0  0  0
 23 52  1  0  0  0  0
 24 25  1  0  0  0  0
 24 53  1  0  0  0  0
 24 54  1  0  0  0  0
 25 26  1  0  0  0  0
 25 55  1  0  0  0  0
 25 56  1  0  0  0  0
 26 27  1  0  0  0  0
 26 57  1  0  0  0  0
 26 58  1  0  0  0  0
 28 29  1  0  0  0  0
 28 59  1  0  0  0  0
 28 60  1  0  0  0  0
 29 61  1  0  0  0  0
 29 62  1  0  0  0  0
M  CHG  1   2   1
M  CHG  1   6   1
M  END
> <s_m_source_file>
AV-unprocessed.smi

> <i_m_source_file_index>
155

> <i_lp_mmshare_version>
43012

> <i_f3d_flags>
0

> <s_epik_input>
W0NIM11OKFtDSDNdKVtDSDJdW0NIMl1OMVtDSDJdW0NIMl1bQ0gyXU4oW0NIMl1bQ0gyXTEpYyhuW2NIXW4yKWMoYzIzKW5bY0hdbjNbQ0gyXVtDQEhdKFtPSF0pW0NAQEhdNFtDSDJdW0NIMl1bQ0gyXU80

> <s_epik_cmdline>
J2VwaWtfcHl0aG9uJywgJy1waCcsICc3LjAnLCAnLXRuJywgJzgnLCAnLW1hJywgJzIwMCcsICctbWV0YWxfYmluZGluZycsICctaW1hZScsICc8aW5maWxlLm1hZT4nLCAnLW9tYWUnLCAnPG91dGZpbGUubWFlPic=

> <r_lp_tautomer_probability>
1

> <r_epik_Ionization_Penalty>
3.0333

> <r_epik_Ionization_Penalty_Charging>
3.03317

> <r_epik_Ionization_Penalty_Neutral>
0.000131872

> <r_epik_State_Penalty>
1.99939

> <r_epik_Charging_Adjusted_Penalty>
5.03256

> <i_epik_Tot_Q>
2

> <i_epik_Tot_abs_Q>
2

> <r_epik_Metal_State_Penalty>
2.00021

> <b_epik_Metal_Only>
0

> <s_lp_Force_Field>
OPLS_2005

> <r_lp_Energy>
68.1254

> <b_lp_Chiralities_Consistent>
1

> <s_lp_Variant>
AV-unprocessed.smi:155-18

> <Gold.Version>
5.8.1

> <Gold.Id.Protein>
6NUR|6NUR_protein|mol2

> <Gold.PLP.Fitness>
62.9515

> <Gold.PLP.PLP>
-46.1486

> <Gold.PLP.part.hbond>
-4.1945

> <Gold.PLP.part.metal>
0.0000

> <Gold.PLP.part.buried>
5.4495

> <Gold.PLP.part.nonpolar>
-46.3955

> <Gold.PLP.part.repulsive>
0.2918

> <Gold.PLP.ligand.clash>
0.0000

> <Gold.PLP.ligand.torsion>
0.4528

> <Gold.PLP.Chemscore.Hbond>
5.0000

> <Gold.PLP.Chemscore.CHOScore>
0.8017

> <Gold.PLP.Chemscore.Metal>
0.0000

> <Gold.Chemscore.Hbonds>
donor molecule, donor type, donor heavy atom, donor atom, acceptor molecule, acceptor atom, score
      L1  H     2    63       P1 10186  2.00
      L1  H     6    64       P1  7948  2.00
      L1  H    22    51       P1  8028  1.00
      L1  C    18    47       P1  8028  0.85

> <Gold.PLP.Chemscore.Internal.Correction>
0.3033

> <Gold.Rescore>
     Score         DG    S(hbond)    S(metal)    S(lipo)     H(rot)  DE(clash)    DE(int)     intcor
     17.86     -21.35       2.64        0.00     120.38       2.75       1.77       1.72       ----

> <Gold.Chemscore.Fitness>
17.8627

> <Gold.Chemscore.DG>
-21.3531

> <Gold.Chemscore.ZeroCoef>
-5.4800

> <Gold.Chemscore.Hbond>
2.6428

> <Gold.Chemscore.Metal>
0.0000

> <Gold.Chemscore.Lipo>
120.3811

> <Gold.Chemscore.Internal_Hbond>
0.0000

> <Gold.Chemscore.DEClash>
1.7741

> <Gold.Chemscore.DEInternal>
1.7163

> <Gold.Chemscore.Rot>
2.7493

> <Gold.Chemscore.Internal.Correction>
   9.000000E+99

> <Gold.Chemscore.Hbonds>
donor molecule, donor type, donor heavy atom, donor atom, acceptor molecule, acceptor atom, score
      L1  H     2    63       P1 10186  0.98
      L1  H     6    64       P1  7948  1.00
      L1  H    22    51       P1  8028  0.53

> <Gold.Chemscore.Hbond.Weighted>
-8.8268

> <Gold.Chemscore.Metal.Weighted>
-0.0000

> <Gold.Chemscore.Lipo.Weighted>
-14.0846

> <Gold.Chemscore.Internal_Hbond.Weighted>
0.0000

> <Gold.Chemscore.DEClash.Weighted>
1.7741

> <Gold.Chemscore.DEInternal.Weighted>
1.7163

> <Gold.Chemscore.Rot.Weighted>
7.0383

> <Gold.Chemscore.Internal.Correction.Weighted>
   9.000000E+99

> <Gold.Protein.RotatedTorsions>
[ 6907 6896 6895 6894 ] final -165.81 input  -60.11 | X-H torsion
[ 7974 7965 7964 7962 ] final  -68.96 input  175.53 | X-H torsion
[ 8008 7997 7996 7995 ] final -123.17 input   59.86 | X-H torsion
[ 10167 10162 10161 10158 ] final  -32.74 input  -65.29 | X-H torsion
[ 10718 10713 10712 10709 ] final   79.00 input   66.30 | X-H torsion
[ 10763 10752 10751 10750 ] final -178.69 input  -60.55 | X-H torsion
[ 11005 11000 10999 10996 ] final -115.03 input  -57.11 | X-H torsion

> <Gold.Protein.ActiveResidues>
 VAL166  LYS551  ARG553  GLY616  TRP617  ASP618  TYR619  PRO620  LYS621  CYS622 
 ASP623  PHE694  ASN695  SER759  ASP760  ASP761  ALA762  ILE779  LEU786  VAL792 
 PHE793  MET794  SER795  GLU796  ALA797  LYS798  CYS799  TRP800  GLU811  SER814 

> <Gold.Protein.RotatedAtoms>
  151.4335  133.3663  159.2771 H   0  0  0  0  0  0  0  0  0  0  0  0  # atno 6907 bound_to 6896
  150.9208  134.8627  159.7498 H   0  0  0  0  0  0  0  0  0  0  0  0  # atno 6908 bound_to 6896
  152.4980  134.4273  159.9552 H   0  0  0  0  0  0  0  0  0  0  0  0  # atno 6909 bound_to 6896
  145.7099  140.9083  143.0686 H   0  0  0  0  0  0  0  0  0  0  0  0  # atno 7974 bound_to 7965
  155.1761  140.0409  157.2873 H   0  0  0  0  0  0  0  0  0  0  0  0  # atno 8008 bound_to 7997
  154.6236  140.2507  155.7492 H   0  0  0  0  0  0  0  0  0  0  0  0  # atno 8009 bound_to 7997
  156.2447  140.2890  156.0555 H   0  0  0  0  0  0  0  0  0  0  0  0  # atno 8010 bound_to 7997
  140.7216  143.3672  151.1848 H   0  0  0  0  0  0  0  0  0  0  0  0  # atno 10167 bound_to 10162
  157.6763  130.9894  150.1868 H   0  0  0  0  0  0  0  0  0  0  0  0  # atno 10718 bound_to 10713
  154.5445  135.2808  155.1065 H   0  0  0  0  0  0  0  0  0  0  0  0  # atno 10763 bound_to 10752
  154.2535  135.6335  153.5252 H   0  0  0  0  0  0  0  0  0  0  0  0  # atno 10764 bound_to 10752
  152.9987  135.5588  154.5994 H   0  0  0  0  0  0  0  0  0  0  0  0  # atno 10765 bound_to 10752
  141.0514  133.9681  157.2829 H   0  0  0  0  0  0  0  0  0  0  0  0  # atno 11005 bound_to 11000
  144.6945  139.9060  143.7461 LP  0  0  0  0  0  0  0  0  0  0  0  0  # atno 17320 bound_to 7965
  146.0722  139.3711  143.0516 LP  0  0  0  0  0  0  0  0  0  0  0  0  # atno 17321 bound_to 7965
  139.7236  143.9184  152.2994 LP  0  0  0  0  0  0  0  0  0  0  0  0  # atno 17342 bound_to 10162
  139.8949  144.6944  150.8729 LP  0  0  0  0  0  0  0  0  0  0  0  0  # atno 17343 bound_to 10162
  156.2588  130.3708  149.8153 LP  0  0  0  0  0  0  0  0  0  0  0  0  # atno 17370 bound_to 10713
  156.5904  130.8504  151.3406 LP  0  0  0  0  0  0  0  0  0  0  0  0  # atno 17371 bound_to 10713
  139.9354  135.0197  156.8537 LP  0  0  0  0  0  0  0  0  0  0  0  0  # atno 17394 bound_to 11000
  140.6048  134.0138  155.7552 LP  0  0  0  0  0  0  0  0  0  0  0  0  # atno 17395 bound_to 11000

$$$$
