AV-unprocessed.smi:1042|AV-procd|sdf|4537|dock3
  -GOLD-   22720 2563D 1   1.00000     0.00000
 Structure written by MMmdl.
 40 42  0  0  0  0  0  0  0  0  2 V2000
  144.9469  135.7038  153.5681 O   0  0  0  0  0  0  0  0  0  0  0  0
  146.0972  135.6438  153.1334 C   0  0  0  0  0  0  0  0  0  0  0  0
  147.1031  136.3946  153.6059 N   0  0  0  0  0  0  0  0  0  0  0  0
  146.9875  137.3680  154.6878 C   0  0  0  0  0  0  0  0  0  0  0  0
  147.3152  138.8025  154.2274 C   0  0  1  0  0  0  0  0  0  0  0  0
  147.1382  139.0325  152.7299 C   0  0  0  0  0  0  0  0  0  0  0  0
  147.0641  140.5545  152.6382 C   0  0  0  0  0  0  0  0  0  0  0  0
  146.3477  140.9916  153.8566 N   0  3  2  0  0  0  0  0  0  0  0  0
  146.7829  142.3100  154.3655 C   0  0  0  0  0  0  0  0  0  0  0  0
  145.8624  142.8855  155.4152 C   0  0  0  0  0  0  0  0  0  0  0  0
  145.8446  143.4371  154.0061 C   0  0  0  0  0  0  0  0  0  0  0  0
  146.4409  139.8989  154.8533 C   0  0  0  0  0  0  0  0  0  0  0  0
  146.5140  134.8377  152.1410 N   0  0  0  0  0  0  0  0  0  0  0  0
  145.7423  133.9334  151.3631 C   0  0  0  0  0  0  0  0  0  0  0  0
  146.4876  133.0994  150.4991 C   0  0  0  0  0  0  0  0  0  0  0  0
  145.8143  132.1707  149.6817 C   0  0  0  0  0  0  0  0  0  0  0  0
  144.4114  132.1006  149.7487 C   0  0  0  0  0  0  0  0  0  0  0  0
  143.7460  132.9672  150.6350 C   0  0  0  0  0  0  0  0  0  0  0  0
  144.3891  133.8585  151.4188 N   0  0  0  0  0  0  0  0  0  0  0  0
  148.0182  136.2751  153.1963 H   0  0  0  0  0  0  0  0  0  0  0  0
  145.9823  137.3280  155.1105 H   0  0  0  0  0  0  0  0  0  0  0  0
  147.6681  137.0661  155.4845 H   0  0  0  0  0  0  0  0  0  0  0  0
  148.3559  139.0262  154.4678 H   0  0  0  0  0  0  0  0  0  0  0  0
  147.9514  138.6124  152.1371 H   0  0  0  0  0  0  0  0  0  0  0  0
  146.2025  138.5910  152.3832 H   0  0  0  0  0  0  0  0  0  0  0  0
  148.0752  140.9656  152.6346 H   0  0  0  0  0  0  0  0  0  0  0  0
  146.5610  140.8969  151.7333 H   0  0  0  0  0  0  0  0  0  0  0  0
  147.8571  142.4788  154.4211 H   0  0  0  0  0  0  0  0  0  0  0  0
  145.0075  142.2915  155.7334 H   0  0  0  0  0  0  0  0  0  0  0  0
  146.3092  143.5081  156.1879 H   0  0  0  0  0  0  0  0  0  0  0  0
  146.2789  144.4227  153.8516 H   0  0  0  0  0  0  0  0  0  0  0  0
  144.9783  143.2088  153.3878 H   0  0  0  0  0  0  0  0  0  0  0  0
  145.4313  139.5307  155.0391 H   0  0  0  0  0  0  0  0  0  0  0  0
  146.8478  140.2350  155.8085 H   0  0  0  0  0  0  0  0  0  0  0  0
  147.4948  134.8819  151.9072 H   0  0  0  0  0  0  0  0  0  0  0  0
  147.5654  133.1658  150.4599 H   0  0  0  0  0  0  0  0  0  0  0  0
  146.3657  131.5241  149.0151 H   0  0  0  0  0  0  0  0  0  0  0  0
  143.8598  131.4013  149.1377 H   0  0  0  0  0  0  0  0  0  0  0  0
  142.6693  132.9452  150.7169 H   0  0  0  0  0  0  0  0  0  0  0  0
  145.3709  141.0699  153.6118 H   0  0  0  0  0  0  0  0  0  0  0  0
  1  2  2  0  0  0  0
  2  3  1  0  0  0  0
  2 13  1  0  0  0  0
  3  4  1  0  0  0  0
  3 20  1  0  0  0  0
  4  5  1  0  0  0  0
  4 21  1  0  0  0  0
  4 22  1  0  0  0  0
  5 12  1  0  0  0  0
  5  6  1  0  0  0  0
  5 23  1  0  0  0  0
  6  7  1  0  0  0  0
  6 24  1  0  0  0  0
  6 25  1  0  0  0  0
  7  8  1  0  0  0  0
  7 26  1  0  0  0  0
  7 27  1  0  0  0  0
  8  9  1  0  0  0  0
  8 12  1  0  0  0  0
  8 40  1  0  0  0  0
  9 11  1  0  0  0  0
  9 10  1  0  0  0  0
  9 28  1  0  0  0  0
 10 11  1  0  0  0  0
 10 29  1  0  0  0  0
 10 30  1  0  0  0  0
 11 31  1  0  0  0  0
 11 32  1  0  0  0  0
 12 33  1  0  0  0  0
 12 34  1  0  0  0  0
 13 14  1  0  0  0  0
 13 35  1  0  0  0  0
 14 19  1  0  0  0  0
 14 15  2  0  0  0  0
 15 16  1  0  0  0  0
 15 36  1  0  0  0  0
 16 17  2  0  0  0  0
 16 37  1  0  0  0  0
 17 18  1  0  0  0  0
 17 38  1  0  0  0  0
 18 19  2  0  0  0  0
 18 39  1  0  0  0  0
M  CHG  1   8   1
M  END
> <s_m_source_file>
AV-unprocessed.smi

> <i_m_source_file_index>
1042

> <i_lp_mmshare_version>
43012

> <i_f3d_flags>
0

> <s_epik_input>
bjFbY0hdW2NIXVtjSF1bY0hdYzFbTkhdQyg9TylbTkhdW0NIMl1bQ0BASF0yW0NIMl1bQ0gyXU4oW0NIMl0yKVtDSF0zW0NIMl1bQ0gyXTM=

> <s_epik_cmdline>
J2VwaWtfcHl0aG9uJywgJy1waCcsICc3LjAnLCAnLXRuJywgJzgnLCAnLW1hJywgJzIwMCcsICctbWV0YWxfYmluZGluZycsICctaW1hZScsICc8aW5maWxlLm1hZT4nLCAnLW9tYWUnLCAnPG91dGZpbGUubWFlPic=

> <r_lp_tautomer_probability>
1

> <r_epik_Ionization_Penalty>
0.000244736

> <r_epik_Ionization_Penalty_Charging>
0.000203384

> <r_epik_Ionization_Penalty_Neutral>
4.13519e-05

> <r_epik_State_Penalty>
-0

> <r_epik_Charging_Adjusted_Penalty>
0.000203384

> <i_epik_Tot_Q>
1

> <i_epik_Tot_abs_Q>
1

> <r_epik_Metal_State_Penalty>
-0

> <b_epik_Metal_Only>
0

> <s_lp_Force_Field>
OPLS_2005

> <r_lp_Energy>
38.5501

> <b_lp_Chiralities_Consistent>
1

> <s_lp_Variant>
AV-unprocessed.smi:1042-2

> <Gold.Version>
5.8.1

> <Gold.Id.Protein>
6NUR|6NUR_protein|mol2

> <Gold.PLP.Fitness>
47.5923

> <Gold.PLP.PLP>
-34.1406

> <Gold.PLP.part.hbond>
-3.0000

> <Gold.PLP.part.metal>
0.0000

> <Gold.PLP.part.buried>
-2.0764

> <Gold.PLP.part.nonpolar>
-29.1642

> <Gold.PLP.part.repulsive>
0.2124

> <Gold.PLP.ligand.clash>
0.0000

> <Gold.PLP.ligand.torsion>
1.2003

> <Gold.PLP.Chemscore.Hbond>
3.8640

> <Gold.PLP.Chemscore.CHOScore>
0.9996

> <Gold.PLP.Chemscore.Metal>
0.0000

> <Gold.Chemscore.Hbonds>
donor molecule, donor type, donor heavy atom, donor atom, acceptor molecule, acceptor atom, score
      L1  H     3    20       P1  7948  0.98
      L1  H     8    40       P1 10175  1.62
      L1  H    13    35       P1  7948  0.80
      L1  C    18    39       P1 10186  0.97

> <Gold.PLP.Chemscore.Internal.Correction>
1.2614

> <Gold.Rescore>
     Score         DG    S(hbond)    S(metal)    S(lipo)     H(rot)  DE(clash)    DE(int)     intcor
     16.00     -18.81       2.38        0.00      78.10       1.47       0.16       2.65       ----

> <Gold.Chemscore.Fitness>
15.9991

> <Gold.Chemscore.DG>
-18.8067

> <Gold.Chemscore.ZeroCoef>
-5.4800

> <Gold.Chemscore.Hbond>
2.3815

> <Gold.Chemscore.Metal>
0.0000

> <Gold.Chemscore.Lipo>
78.0995

> <Gold.Chemscore.Internal_Hbond>
0.0000

> <Gold.Chemscore.DEClash>
0.1583

> <Gold.Chemscore.DEInternal>
2.6493

> <Gold.Chemscore.Rot>
1.4707

> <Gold.Chemscore.Internal.Correction>
   9.000000E+99

> <Gold.Chemscore.Hbonds>
donor molecule, donor type, donor heavy atom, donor atom, acceptor molecule, acceptor atom, score
      L1  H     3    20       P1  7948  0.93
      L1  H     8    40       P1 10175  0.47
      L1  H    13    35       P1  7948  0.62

> <Gold.Chemscore.Hbond.Weighted>
-7.9541

> <Gold.Chemscore.Metal.Weighted>
-0.0000

> <Gold.Chemscore.Lipo.Weighted>
-9.1376

> <Gold.Chemscore.Internal_Hbond.Weighted>
0.0000

> <Gold.Chemscore.DEClash.Weighted>
0.1583

> <Gold.Chemscore.DEInternal.Weighted>
2.6493

> <Gold.Chemscore.Rot.Weighted>
3.7650

> <Gold.Chemscore.Internal.Correction.Weighted>
   9.000000E+99

> <Gold.Protein.RotatedTorsions>
[ 6907 6896 6895 6894 ] final  -83.97 input  -60.11 | X-H torsion
[ 7974 7965 7964 7962 ] final  109.42 input  175.53 | X-H torsion
[ 8008 7997 7996 7995 ] final -122.31 input   59.86 | X-H torsion
[ 10167 10162 10161 10158 ] final  153.27 input  -65.29 | X-H torsion
[ 10718 10713 10712 10709 ] final  -59.60 input   66.30 | X-H torsion
[ 10763 10752 10751 10750 ] final  -95.09 input  -60.55 | X-H torsion
[ 11005 11000 10999 10996 ] final  104.33 input  -57.11 | X-H torsion

> <Gold.Protein.ActiveResidues>
 VAL166  LYS551  ARG553  GLY616  TRP617  ASP618  TYR619  PRO620  LYS621  CYS622 
 ASP623  PHE694  ASN695  SER759  ASP760  ASP761  ALA762  ILE779  LEU786  VAL792 
 PHE793  MET794  SER795  GLU796  ALA797  LYS798  CYS799  TRP800  GLU811  SER814 

> <Gold.Protein.RotatedAtoms>
  150.6880  134.3430  159.4875 H   0  0  0  0  0  0  0  0  0  0  0  0  # atno 6907 bound_to 6896
  152.1281  134.9153  160.0569 H   0  0  0  0  0  0  0  0  0  0  0  0  # atno 6908 bound_to 6896
  152.0333  133.3912  159.4343 H   0  0  0  0  0  0  0  0  0  0  0  0  # atno 6909 bound_to 6896
  145.2681  139.2677  143.3981 H   0  0  0  0  0  0  0  0  0  0  0  0  # atno 7974 bound_to 7965
  155.1621  140.0406  157.2845 H   0  0  0  0  0  0  0  0  0  0  0  0  # atno 8008 bound_to 7997
  154.6329  140.2528  155.7386 H   0  0  0  0  0  0  0  0  0  0  0  0  # atno 8009 bound_to 7997
  156.2493  140.2871  156.0688 H   0  0  0  0  0  0  0  0  0  0  0  0  # atno 8010 bound_to 7997
  139.4828  144.5287  151.7758 H   0  0  0  0  0  0  0  0  0  0  0  0  # atno 10167 bound_to 10162
  156.1050  130.4181  150.0737 H   0  0  0  0  0  0  0  0  0  0  0  0  # atno 10718 bound_to 10713
  154.7116  135.5133  153.8675 H   0  0  0  0  0  0  0  0  0  0  0  0  # atno 10763 bound_to 10752
  153.0785  135.6624  154.0103 H   0  0  0  0  0  0  0  0  0  0  0  0  # atno 10764 bound_to 10752
  153.9943  135.3017  155.3388 H   0  0  0  0  0  0  0  0  0  0  0  0  # atno 10765 bound_to 10752
  139.8791  134.9296  156.5345 H   0  0  0  0  0  0  0  0  0  0  0  0  # atno 11005 bound_to 11000
  146.3255  140.3116  142.8627 LP  0  0  0  0  0  0  0  0  0  0  0  0  # atno 17320 bound_to 7965
  144.9359  140.8026  143.5660 LP  0  0  0  0  0  0  0  0  0  0  0  0  # atno 17321 bound_to 7965
  140.4811  144.1448  150.5933 LP  0  0  0  0  0  0  0  0  0  0  0  0  # atno 17342 bound_to 10162
  140.4277  143.2582  151.9636 LP  0  0  0  0  0  0  0  0  0  0  0  0  # atno 17343 bound_to 10162
  156.8715  130.9526  151.3609 LP  0  0  0  0  0  0  0  0  0  0  0  0  # atno 17370 bound_to 10713
  157.6226  130.8667  149.9134 LP  0  0  0  0  0  0  0  0  0  0  0  0  # atno 17371 bound_to 10713
  140.8356  133.8245  155.9025 LP  0  0  0  0  0  0  0  0  0  0  0  0  # atno 17394 bound_to 11000
  140.9287  134.2049  157.4878 LP  0  0  0  0  0  0  0  0  0  0  0  0  # atno 17395 bound_to 11000

$$$$
