AV-unprocessed.smi:1578|AV-procd|sdf|6353|dock8
  -GOLD-   22720 6573D 1   1.00000     0.00000
 Structure written by MMmdl.
 45 46  0  0  0  0  0  0  0  0  2 V2000
  147.0154  138.8495  156.2765 C   0  0  0  0  0  0  0  0  0  0  0  0
  148.0037  138.9128  155.1043 C   0  0  1  0  0  0  0  0  0  0  0  0
  147.2681  139.0789  153.7534 C   0  0  0  0  0  0  0  0  0  0  0  0
  146.9948  137.7877  153.0706 N   0  3  0  0  0  0  0  0  0  0  0  0
  146.4048  136.7600  153.9617 C   0  0  0  0  0  0  0  0  0  0  0  0
  146.2368  135.4355  153.1999 C   0  0  0  0  0  0  0  0  0  0  0  0
  145.4116  135.6487  152.0612 O   0  0  0  0  0  0  0  0  0  0  0  0
  145.9876  136.5784  151.1518 C   0  0  0  0  0  0  0  0  0  0  0  0
  146.1765  137.9400  151.8445 C   0  0  0  0  0  0  0  0  0  0  0  0
  148.9422  140.0132  155.3238 N   0  0  0  0  0  0  0  0  0  0  0  0
  150.1443  139.9173  155.9133 C   0  0  0  0  0  0  0  0  0  0  0  0
  150.5753  138.8782  156.4128 O   0  0  0  0  0  0  0  0  0  0  0  0
  151.0012  141.1889  155.9172 C   0  0  0  0  0  0  0  0  0  0  0  0
  151.5300  141.4978  157.2567 N   0  0  0  0  0  0  0  0  0  0  0  0
  151.0720  142.6763  157.8773 C   0  0  0  0  0  0  0  0  0  0  0  0
  151.4807  143.0671  159.0993 C   0  0  0  0  0  0  0  0  0  0  0  0
  150.9465  144.3398  159.7367 C   0  0  0  0  0  0  0  0  0  0  0  0
  149.6279  144.2797  159.9222 F   0  0  0  0  0  0  0  0  0  0  0  0
  151.5278  144.5378  160.9193 F   0  0  0  0  0  0  0  0  0  0  0  0
  151.2148  145.3930  158.9648 F   0  0  0  0  0  0  0  0  0  0  0  0
  152.4269  142.1990  159.7737 C   0  0  0  0  0  0  0  0  0  0  0  0
  152.8711  141.0656  159.1963 C   0  0  0  0  0  0  0  0  0  0  0  0
  152.4233  140.6583  157.8631 C   0  0  0  0  0  0  0  0  0  0  0  0
  152.8202  139.6231  157.3262 O   0  0  0  0  0  0  0  0  0  0  0  0
  146.3161  138.0220  156.1541 H   0  0  0  0  0  0  0  0  0  0  0  0
  146.4328  139.7680  156.3572 H   0  0  0  0  0  0  0  0  0  0  0  0
  147.5367  138.7016  157.2229 H   0  0  0  0  0  0  0  0  0  0  0  0
  148.5468  137.9669  155.0992 H   0  0  0  0  0  0  0  0  0  0  0  0
  146.3362  139.6311  153.8850 H   0  0  0  0  0  0  0  0  0  0  0  0
  147.8942  139.6919  153.1030 H   0  0  0  0  0  0  0  0  0  0  0  0
  147.0380  136.5992  154.8334 H   0  0  0  0  0  0  0  0  0  0  0  0
  145.4374  137.1040  154.3309 H   0  0  0  0  0  0  0  0  0  0  0  0
  147.2055  135.0342  152.8966 H   0  0  0  0  0  0  0  0  0  0  0  0
  145.7682  134.6893  153.8417 H   0  0  0  0  0  0  0  0  0  0  0  0
  146.9368  136.1925  150.7785 H   0  0  0  0  0  0  0  0  0  0  0  0
  145.3283  136.6844  150.2901 H   0  0  0  0  0  0  0  0  0  0  0  0
  145.2065  138.3677  152.1025 H   0  0  0  0  0  0  0  0  0  0  0  0
  146.6627  138.6334  151.1572 H   0  0  0  0  0  0  0  0  0  0  0  0
  148.6726  140.9149  154.9571 H   0  0  0  0  0  0  0  0  0  0  0  0
  151.8289  141.0879  155.2121 H   0  0  0  0  0  0  0  0  0  0  0  0
  150.3926  142.0086  155.5335 H   0  0  0  0  0  0  0  0  0  0  0  0
  150.3592  143.2468  157.2994 H   0  0  0  0  0  0  0  0  0  0  0  0
  152.7882  142.4587  160.7577 H   0  0  0  0  0  0  0  0  0  0  0  0
  153.5755  140.4425  159.7274 H   0  0  0  0  0  0  0  0  0  0  0  0
  147.8908  137.4335  152.7660 H   0  0  0  0  0  0  0  0  0  0  0  0
  1  2  1  0  0  0  0
  1 25  1  0  0  0  0
  1 26  1  0  0  0  0
  1 27  1  0  0  0  0
  2  3  1  0  0  0  0
  2 10  1  0  0  0  0
  2 28  1  0  0  0  0
  3  4  1  0  0  0  0
  3 29  1  0  0  0  0
  3 30  1  0  0  0  0
  4  9  1  0  0  0  0
  4  5  1  0  0  0  0
  4 45  1  0  0  0  0
  5  6  1  0  0  0  0
  5 31  1  0  0  0  0
  5 32  1  0  0  0  0
  6  7  1  0  0  0  0
  6 33  1  0  0  0  0
  6 34  1  0  0  0  0
  7  8  1  0  0  0  0
  8  9  1  0  0  0  0
  8 35  1  0  0  0  0
  8 36  1  0  0  0  0
  9 37  1  0  0  0  0
  9 38  1  0  0  0  0
 10 11  1  0  0  0  0
 10 39  1  0  0  0  0
 11 12  2  0  0  0  0
 11 13  1  0  0  0  0
 13 14  1  0  0  0  0
 13 40  1  0  0  0  0
 13 41  1  0  0  0  0
 14 23  1  0  0  0  0
 14 15  1  0  0  0  0
 15 16  2  0  0  0  0
 15 42  1  0  0  0  0
 16 17  1  0  0  0  0
 16 21  1  0  0  0  0
 17 18  1  0  0  0  0
 17 19  1  0  0  0  0
 17 20  1  0  0  0  0
 21 22  2  0  0  0  0
 21 43  1  0  0  0  0
 22 23  1  0  0  0  0
 22 44  1  0  0  0  0
 23 24  2  0  0  0  0
M  CHG  1   4   1
M  END
> <s_m_source_file>
AV-unprocessed.smi

> <i_m_source_file_index>
1578

> <i_lp_mmshare_version>
43012

> <i_f3d_flags>
0

> <s_epik_input>
W0NIMl0xW0NIMl1PW0NIMl1bQ0gyXU4xW0NIMl1bQ0BASF0oW0NIM10pW05IXUMoPU8pW0NIMl1uMltjSF1jKEMoRikoRilGKVtjSF1bY0hdYzI9Tw==

> <s_epik_cmdline>
J2VwaWtfcHl0aG9uJywgJy1waCcsICc3LjAnLCAnLXRuJywgJzgnLCAnLW1hJywgJzIwMCcsICctbWV0YWxfYmluZGluZycsICctaW1hZScsICc8aW5maWxlLm1hZT4nLCAnLW9tYWUnLCAnPG91dGZpbGUubWFlPic=

> <r_lp_tautomer_probability>
1

> <r_epik_Ionization_Penalty>
0.656654

> <r_epik_Ionization_Penalty_Charging>
0.656653

> <r_epik_Ionization_Penalty_Neutral>
9.12373e-08

> <r_epik_State_Penalty>
0.675641

> <r_epik_Charging_Adjusted_Penalty>
1.33229

> <i_epik_Tot_Q>
1

> <i_epik_Tot_abs_Q>
1

> <r_epik_Metal_State_Penalty>
0.675695

> <b_epik_Metal_Only>
0

> <s_lp_Force_Field>
OPLS_2005

> <r_lp_Energy>
32.4409

> <b_lp_Chiralities_Consistent>
1

> <s_lp_Variant>
AV-unprocessed.smi:1578-4

> <Gold.Version>
5.8.1

> <Gold.Id.Protein>
6NUR|6NUR_protein|mol2

> <Gold.PLP.Fitness>
46.4702

> <Gold.PLP.PLP>
-37.7781

> <Gold.PLP.part.hbond>
-2.0000

> <Gold.PLP.part.metal>
0.0000

> <Gold.PLP.part.buried>
-1.2887

> <Gold.PLP.part.nonpolar>
-33.7976

> <Gold.PLP.part.repulsive>
0.2104

> <Gold.PLP.ligand.clash>
0.0000

> <Gold.PLP.ligand.torsion>
0.9954

> <Gold.PLP.Chemscore.Hbond>
2.9000

> <Gold.PLP.Chemscore.CHOScore>
0.5984

> <Gold.PLP.Chemscore.Metal>
0.0000

> <Gold.Chemscore.Hbonds>
donor molecule, donor type, donor heavy atom, donor atom, acceptor molecule, acceptor atom, score
      L1  H     4    45       P1  7948  2.00
      P1  H  7997  8008       L1    24  1.00
      L1  C    15    42       P1  8028  0.72

> <Gold.PLP.Chemscore.Internal.Correction>
0.1875

> <Gold.Rescore>
     Score         DG    S(hbond)    S(metal)    S(lipo)     H(rot)  DE(clash)    DE(int)     intcor
     12.79     -15.31       1.93        0.00      76.32       2.17       0.05       2.47       ----

> <Gold.Chemscore.Fitness>
12.7886

> <Gold.Chemscore.DG>
-15.3105

> <Gold.Chemscore.ZeroCoef>
-5.4800

> <Gold.Chemscore.Hbond>
1.9343

> <Gold.Chemscore.Metal>
0.0000

> <Gold.Chemscore.Lipo>
76.3179

> <Gold.Chemscore.Internal_Hbond>
0.0000

> <Gold.Chemscore.DEClash>
0.0506

> <Gold.Chemscore.DEInternal>
2.4714

> <Gold.Chemscore.Rot>
2.1716

> <Gold.Chemscore.Internal.Correction>
   9.000000E+99

> <Gold.Chemscore.Hbonds>
donor molecule, donor type, donor heavy atom, donor atom, acceptor molecule, acceptor atom, score
      L1  H     4    45       P1  7948  0.97
      P1  H  7997  8008       L1    24  0.43

> <Gold.Chemscore.Hbond.Weighted>
-6.4605

> <Gold.Chemscore.Metal.Weighted>
-0.0000

> <Gold.Chemscore.Lipo.Weighted>
-8.9292

> <Gold.Chemscore.Internal_Hbond.Weighted>
0.0000

> <Gold.Chemscore.DEClash.Weighted>
0.0506

> <Gold.Chemscore.DEInternal.Weighted>
2.4714

> <Gold.Chemscore.Rot.Weighted>
5.5592

> <Gold.Chemscore.Internal.Correction.Weighted>
   9.000000E+99

> <Gold.Protein.RotatedTorsions>
[ 6907 6896 6895 6894 ] final  147.72 input  -60.11 | X-H torsion
[ 7974 7965 7964 7962 ] final  -41.68 input  175.53 | X-H torsion
[ 8008 7997 7996 7995 ] final  -48.36 input   59.86 | X-H torsion
[ 10167 10162 10161 10158 ] final  -51.28 input  -65.29 | X-H torsion
[ 10718 10713 10712 10709 ] final   86.79 input   66.30 | X-H torsion
[ 10763 10752 10751 10750 ] final  106.84 input  -60.55 | X-H torsion
[ 11005 11000 10999 10996 ] final  141.93 input  -57.11 | X-H torsion

> <Gold.Protein.ActiveResidues>
 VAL166  LYS551  ARG553  GLY616  TRP617  ASP618  TYR619  PRO620  LYS621  CYS622 
 ASP623  PHE694  ASN695  SER759  ASP760  ASP761  ALA762  ILE779  LEU786  VAL792 
 PHE793  MET794  SER795  GLU796  ALA797  LYS798  CYS799  TRP800  GLU811  SER814 

> <Gold.Protein.RotatedAtoms>
  152.1510  133.4522  159.4813 H   0  0  0  0  0  0  0  0  0  0  0  0  # atno 6907 bound_to 6896
  150.6895  134.2188  159.4398 H   0  0  0  0  0  0  0  0  0  0  0  0  # atno 6908 bound_to 6896
  152.0085  134.9889  160.0618 H   0  0  0  0  0  0  0  0  0  0  0  0  # atno 6909 bound_to 6896
  146.0188  140.6875  142.9188 H   0  0  0  0  0  0  0  0  0  0  0  0  # atno 7974 bound_to 7965
  154.4028  140.1323  156.4326 H   0  0  0  0  0  0  0  0  0  0  0  0  # atno 8008 bound_to 7997
  155.7537  140.3487  155.5143 H   0  0  0  0  0  0  0  0  0  0  0  0  # atno 8009 bound_to 7997
  155.8925  140.1005  157.1398 H   0  0  0  0  0  0  0  0  0  0  0  0  # atno 8010 bound_to 7997
  140.6596  143.2625  151.4481 H   0  0  0  0  0  0  0  0  0  0  0  0  # atno 10167 bound_to 10162
  157.6933  131.0229  150.3026 H   0  0  0  0  0  0  0  0  0  0  0  0  # atno 10718 bound_to 10713
  153.3985  135.3864  155.1972 H   0  0  0  0  0  0  0  0  0  0  0  0  # atno 10763 bound_to 10752
  154.8727  135.3765  154.4648 H   0  0  0  0  0  0  0  0  0  0  0  0  # atno 10764 bound_to 10752
  153.5143  135.7087  153.5826 H   0  0  0  0  0  0  0  0  0  0  0  0  # atno 10765 bound_to 10752
  140.0438  134.9291  157.0892 H   0  0  0  0  0  0  0  0  0  0  0  0  # atno 11005 bound_to 11000
  144.6981  140.3529  143.7178 LP  0  0  0  0  0  0  0  0  0  0  0  0  # atno 17320 bound_to 7965
  145.7226  139.1714  143.2476 LP  0  0  0  0  0  0  0  0  0  0  0  0  # atno 17321 bound_to 7965
  139.5826  144.1675  152.1988 LP  0  0  0  0  0  0  0  0  0  0  0  0  # atno 17342 bound_to 10162
  140.1005  144.5544  150.6992 LP  0  0  0  0  0  0  0  0  0  0  0  0  # atno 17343 bound_to 10162
  156.3539  130.3835  149.7306 LP  0  0  0  0  0  0  0  0  0  0  0  0  # atno 17370 bound_to 10713
  156.4775  130.8025  151.3041 LP  0  0  0  0  0  0  0  0  0  0  0  0  # atno 17371 bound_to 10713
  140.4026  134.2066  155.7163 LP  0  0  0  0  0  0  0  0  0  0  0  0  # atno 17394 bound_to 11000
  141.1897  133.8234  157.0948 LP  0  0  0  0  0  0  0  0  0  0  0  0  # atno 17395 bound_to 11000

$$$$
