AV-unprocessed.smi:686|AV-procd|sdf|3344|dock4
  -GOLD-   22720 0313D 1   1.00000     0.00000
 Structure written by MMmdl.
 41 42  0  0  0  0  0  0  0  0  2 V2000
  151.2914  137.5940  154.3746 C   0  0  0  0  0  0  0  0  0  0  0  0
  150.1645  138.1872  155.2363 C   0  0  1  0  0  0  0  0  0  0  0  0
  149.0614  138.8114  154.3788 C   0  0  0  0  0  0  0  0  0  0  0  0
  148.1347  137.7077  154.0487 N   0  3  2  0  0  0  0  0  0  0  0  0
  146.7645  138.1193  153.6313 C   0  0  0  0  0  0  0  0  0  0  0  0
  146.8062  138.9581  152.3399 C   0  0  0  0  0  0  0  0  0  0  0  0
  146.0453  138.9144  154.7378 C   0  0  0  0  0  0  0  0  0  0  0  0
  148.1884  136.7500  155.1797 C   0  0  0  0  0  0  0  0  0  0  0  0
  149.4168  137.1124  156.0366 C   0  0  2  0  0  0  0  0  0  0  0  0
  149.0060  137.6571  157.3350 N   0  0  0  0  0  0  0  0  0  0  0  0
  149.3266  136.7239  158.7509 S   0  0  0  0  0  0  0  0  0  0  0  0
  150.0512  135.5126  158.3365 O   0  0  0  0  0  0  0  0  0  0  0  0
  149.9193  137.6284  159.7475 O   0  0  0  0  0  0  0  0  0  0  0  0
  147.6378  136.2388  159.3036 C   0  0  0  0  0  0  0  0  0  0  0  0
  147.5835  136.2398  160.8043 C   0  0  0  0  0  0  0  0  0  0  0  0
  147.5508  135.1263  161.6885 C   0  0  0  0  0  0  0  0  0  0  0  0
  147.5045  135.7027  162.9250 C   0  0  0  0  0  0  0  0  0  0  0  0
  147.5116  137.0556  162.8191 O   0  0  0  0  0  0  0  0  0  0  0  0
  147.5633  137.3890  161.4609 N   0  0  0  0  0  0  0  0  0  0  0  0
  150.9165  136.8320  153.6902 H   0  0  0  0  0  0  0  0  0  0  0  0
  152.0572  137.1319  154.9983 H   0  0  0  0  0  0  0  0  0  0  0  0
  151.7774  138.3670  153.7785 H   0  0  0  0  0  0  0  0  0  0  0  0
  150.6080  138.9400  155.8903 H   0  0  0  0  0  0  0  0  0  0  0  0
  148.5307  139.5635  154.9654 H   0  0  0  0  0  0  0  0  0  0  0  0
  149.4523  139.2994  153.4853 H   0  0  0  0  0  0  0  0  0  0  0  0
  146.1843  137.2163  153.4347 H   0  0  0  0  0  0  0  0  0  0  0  0
  145.8045  139.2745  152.0477 H   0  0  0  0  0  0  0  0  0  0  0  0
  147.2181  138.4003  151.4991 H   0  0  0  0  0  0  0  0  0  0  0  0
  147.4097  139.8568  152.4711 H   0  0  0  0  0  0  0  0  0  0  0  0
  145.0650  139.2523  154.4001 H   0  0  0  0  0  0  0  0  0  0  0  0
  146.6161  139.7974  155.0275 H   0  0  0  0  0  0  0  0  0  0  0  0
  145.8782  138.3136  155.6319 H   0  0  0  0  0  0  0  0  0  0  0  0
  147.2727  136.7938  155.7716 H   0  0  0  0  0  0  0  0  0  0  0  0
  148.2703  135.7366  154.7855 H   0  0  0  0  0  0  0  0  0  0  0  0
  150.0506  136.2417  156.2128 H   0  0  0  0  0  0  0  0  0  0  0  0
  149.3411  138.6137  157.4505 H   0  0  0  0  0  0  0  0  0  0  0  0
  146.9193  136.9431  158.8849 H   0  0  0  0  0  0  0  0  0  0  0  0
  147.4133  135.2518  158.8980 H   0  0  0  0  0  0  0  0  0  0  0  0
  147.5560  134.0724  161.4527 H   0  0  0  0  0  0  0  0  0  0  0  0
  147.4654  135.3053  163.9284 H   0  0  0  0  0  0  0  0  0  0  0  0
  148.5514  137.2290  153.2630 H   0  0  0  0  0  0  0  0  0  0  0  0
  1  2  1  0  0  0  0
  1 20  1  0  0  0  0
  1 21  1  0  0  0  0
  1 22  1  0  0  0  0
  2  9  1  0  0  0  0
  2  3  1  0  0  0  0
  2 23  1  0  0  0  0
  3  4  1  0  0  0  0
  3 24  1  0  0  0  0
  3 25  1  0  0  0  0
  4  5  1  0  0  0  0
  4  8  1  0  0  0  0
  4 41  1  0  0  0  0
  5  6  1  0  0  0  0
  5  7  1  0  0  0  0
  5 26  1  0  0  0  0
  6 27  1  0  0  0  0
  6 28  1  0  0  0  0
  6 29  1  0  0  0  0
  7 30  1  0  0  0  0
  7 31  1  0  0  0  0
  7 32  1  0  0  0  0
  8  9  1  0  0  0  0
  8 33  1  0  0  0  0
  8 34  1  0  0  0  0
  9 10  1  0  0  0  0
  9 35  1  0  0  0  0
 10 11  1  0  0  0  0
 10 36  1  0  0  0  0
 11 12  2  0  0  0  0
 11 13  2  0  0  0  0
 11 14  1  0  0  0  0
 14 15  1  0  0  0  0
 14 37  1  0  0  0  0
 14 38  1  0  0  0  0
 15 19  2  0  0  0  0
 15 16  1  0  0  0  0
 16 17  2  0  0  0  0
 16 39  1  0  0  0  0
 17 18  1  0  0  0  0
 17 40  1  0  0  0  0
 18 19  1  0  0  0  0
M  CHG  1   4   1
M  END
> <s_m_source_file>
AV-unprocessed.smi

> <i_m_source_file_index>
686

> <i_lp_mmshare_version>
43012

> <i_f3d_flags>
0

> <s_epik_input>
W0NIM11bQ0BASF0xW0NIMl1OKFtDSF0oW0NIM10pW0NIM10pW0NIMl1bQ0BIXTFbTkhdUyg9TykoPU8pW0NIMl1jMltjSF1bY0hdb24y

> <s_epik_cmdline>
J2VwaWtfcHl0aG9uJywgJy1waCcsICc3LjAnLCAnLXRuJywgJzgnLCAnLW1hJywgJzIwMCcsICctbWV0YWxfYmluZGluZycsICctaW1hZScsICc8aW5maWxlLm1hZT4nLCAnLW9tYWUnLCAnPG91dGZpbGUubWFlPic=

> <r_epik_Ionization_Penalty>
0.00200818

> <r_epik_Ionization_Penalty_Charging>
0.000701289

> <r_epik_Ionization_Penalty_Neutral>
0.00130689

> <r_epik_State_Penalty>
0.00131314

> <r_epik_Charging_Adjusted_Penalty>
0.00201443

> <i_epik_Tot_Q>
1

> <i_epik_Tot_abs_Q>
1

> <r_epik_Metal_State_Penalty>
0.310831

> <b_epik_Metal_Only>
0

> <s_lp_Force_Field>
OPLS_2005

> <r_lp_Energy>
21.6188

> <b_lp_Chiralities_Consistent>
1

> <s_lp_Variant>
AV-unprocessed.smi:686-8

> <Gold.Version>
5.8.1

> <Gold.Id.Protein>
6NUR|6NUR_protein|mol2

> <Gold.PLP.Fitness>
40.9729

> <Gold.PLP.PLP>
-31.0922

> <Gold.PLP.part.hbond>
-5.4469

> <Gold.PLP.part.metal>
0.0000

> <Gold.PLP.part.buried>
-5.2898

> <Gold.PLP.part.nonpolar>
-21.4005

> <Gold.PLP.part.repulsive>
0.0000

> <Gold.PLP.ligand.clash>
0.0000

> <Gold.PLP.ligand.torsion>
1.4596

> <Gold.PLP.Chemscore.Hbond>
4.2128

> <Gold.PLP.Chemscore.CHOScore>
0.0000

> <Gold.PLP.Chemscore.Metal>
0.0000

> <Gold.Chemscore.Hbonds>
donor molecule, donor type, donor heavy atom, donor atom, acceptor molecule, acceptor atom, score
      L1  H     4    41       P1  7948  2.00
      P1  H  6896  6908       L1    12  0.96
      P1  H  6931  6943       L1    19  0.17
      P1  H  6934  6947       L1    19  0.80

> <Gold.PLP.Chemscore.Internal.Correction>
0.1615

> <Gold.Rescore>
     Score         DG    S(hbond)    S(metal)    S(lipo)     H(rot)  DE(clash)    DE(int)     intcor
     15.25     -18.11       3.17        0.00      59.24       1.91       0.09       2.77       ----

> <Gold.Chemscore.Fitness>
15.2455

> <Gold.Chemscore.DG>
-18.1138

> <Gold.Chemscore.ZeroCoef>
-5.4800

> <Gold.Chemscore.Hbond>
3.1727

> <Gold.Chemscore.Metal>
0.0000

> <Gold.Chemscore.Lipo>
59.2358

> <Gold.Chemscore.Internal_Hbond>
0.0000

> <Gold.Chemscore.DEClash>
0.0943

> <Gold.Chemscore.DEInternal>
2.7740

> <Gold.Chemscore.Rot>
1.9115

> <Gold.Chemscore.Internal.Correction>
   9.000000E+99

> <Gold.Chemscore.Hbonds>
donor molecule, donor type, donor heavy atom, donor atom, acceptor molecule, acceptor atom, score
      L1  H     4    41       P1  7948  1.00
      P1  H  6896  6908       L1    12  0.87
      P1  H  6931  6943       L1    13  0.01
      P1  H  6934  6947       L1    19  0.78

> <Gold.Chemscore.Hbond.Weighted>
-10.5967

> <Gold.Chemscore.Metal.Weighted>
-0.0000

> <Gold.Chemscore.Lipo.Weighted>
-6.9306

> <Gold.Chemscore.Internal_Hbond.Weighted>
0.0000

> <Gold.Chemscore.DEClash.Weighted>
0.0943

> <Gold.Chemscore.DEInternal.Weighted>
2.7740

> <Gold.Chemscore.Rot.Weighted>
4.8935

> <Gold.Chemscore.Internal.Correction.Weighted>
   9.000000E+99

> <Gold.Protein.RotatedTorsions>
[ 6907 6896 6895 6894 ] final  169.47 input  -60.11 | X-H torsion
[ 7974 7965 7964 7962 ] final  -34.99 input  175.53 | X-H torsion
[ 8008 7997 7996 7995 ] final    4.41 input   59.86 | X-H torsion
[ 10167 10162 10161 10158 ] final  -41.23 input  -65.29 | X-H torsion
[ 10718 10713 10712 10709 ] final   66.47 input   66.30 | X-H torsion
[ 10763 10752 10751 10750 ] final  -43.46 input  -60.55 | X-H torsion
[ 11005 11000 10999 10996 ] final  153.50 input  -57.11 | X-H torsion

> <Gold.Protein.ActiveResidues>
 VAL166  LYS551  ARG553  GLY616  TRP617  ASP618  TYR619  PRO620  LYS621  CYS622 
 ASP623  PHE694  ASN695  SER759  ASP760  ASP761  ALA762  ILE779  LEU786  VAL792 
 PHE793  MET794  SER795  GLU796  ALA797  LYS798  CYS799  TRP800  GLU811  SER814 

> <Gold.Protein.RotatedAtoms>
  151.8315  133.3409  159.3614 H   0  0  0  0  0  0  0  0  0  0  0  0  # atno 6907 bound_to 6896
  150.7263  134.5478  159.5789 H   0  0  0  0  0  0  0  0  0  0  0  0  # atno 6908 bound_to 6896
  152.2932  134.7698  160.0424 H   0  0  0  0  0  0  0  0  0  0  0  0  # atno 6909 bound_to 6896
  146.0784  140.6105  142.8920 H   0  0  0  0  0  0  0  0  0  0  0  0  # atno 7974 bound_to 7965
  154.7156  140.2701  155.6588 H   0  0  0  0  0  0  0  0  0  0  0  0  # atno 8008 bound_to 7997
  156.2808  140.2744  156.1736 H   0  0  0  0  0  0  0  0  0  0  0  0  # atno 8009 bound_to 7997
  155.0576  140.0371  157.2555 H   0  0  0  0  0  0  0  0  0  0  0  0  # atno 8010 bound_to 7997
  140.7009  143.3106  151.3038 H   0  0  0  0  0  0  0  0  0  0  0  0  # atno 10167 bound_to 10162
  157.6171  130.9269  150.0113 H   0  0  0  0  0  0  0  0  0  0  0  0  # atno 10718 bound_to 10713
  153.9959  135.6699  153.4756 H   0  0  0  0  0  0  0  0  0  0  0  0  # atno 10763 bound_to 10752
  153.0684  135.4988  154.8247 H   0  0  0  0  0  0  0  0  0  0  0  0  # atno 10764 bound_to 10752
  154.7082  135.3092  154.9201 H   0  0  0  0  0  0  0  0  0  0  0  0  # atno 10765 bound_to 10752
  140.1403  134.8743  157.2322 H   0  0  0  0  0  0  0  0  0  0  0  0  # atno 11005 bound_to 11000
  144.7277  140.4575  143.6961 LP  0  0  0  0  0  0  0  0  0  0  0  0  # atno 17320 bound_to 7965
  145.6264  139.1530  143.2994 LP  0  0  0  0  0  0  0  0  0  0  0  0  # atno 17321 bound_to 7965
  139.6528  144.0331  152.2638 LP  0  0  0  0  0  0  0  0  0  0  0  0  # atno 17342 bound_to 10162
  139.9873  144.6386  150.7846 LP  0  0  0  0  0  0  0  0  0  0  0  0  # atno 17343 bound_to 10162
  156.1298  130.3643  149.9751 LP  0  0  0  0  0  0  0  0  0  0  0  0  # atno 17370 bound_to 10713
  156.7814  130.9222  151.3646 LP  0  0  0  0  0  0  0  0  0  0  0  0  # atno 17371 bound_to 10713
  140.2730  134.3438  155.7367 LP  0  0  0  0  0  0  0  0  0  0  0  0  # atno 17394 bound_to 11000
  141.2185  133.7434  156.9251 LP  0  0  0  0  0  0  0  0  0  0  0  0  # atno 17395 bound_to 11000

$$$$
