AV-unprocessed.smi:2124|AV-procd|sdf|8658|dock1
  -GOLD-   2272011403D 1   1.00000     0.00000
 Structure written by MMmdl.
 47 49  0  0  0  0  0  0  0  0  1 V2000
  144.4871  143.9799  155.9565 C   0  0  0  0  0  0  0  0  0  0  0  0
  145.5908  142.9450  155.9772 C   0  0  0  0  0  0  0  0  0  0  0  0
  145.9188  142.4570  154.7232 N   0  0  0  0  0  0  0  0  0  0  0  0
  146.9370  141.5242  154.6375 C   0  0  0  0  0  0  0  0  0  0  0  0
  147.2473  141.0593  153.2253 C   0  0  0  0  0  0  0  0  0  0  0  0
  147.5845  141.0867  155.7474 C   0  0  0  0  0  0  0  0  0  0  0  0
  148.7211  140.0679  155.6937 C   0  0  0  0  0  0  0  0  0  0  0  0
  150.0761  140.5674  156.1979 C   0  0  0  0  0  0  0  0  0  0  0  0
  150.9826  140.7994  155.3986 O   0  0  0  0  0  0  0  0  0  0  0  0
  150.1974  140.7302  157.5248 N   0  0  0  0  0  0  0  0  0  0  0  0
  151.3921  141.2022  158.2211 C   0  0  2  0  0  0  0  0  0  0  0  0
  151.9568  140.0687  159.0933 C   0  0  0  0  0  0  0  0  0  0  0  0
  151.0376  142.4625  159.0451 C   0  0  2  0  0  0  0  0  0  0  0  0
  150.4678  143.6373  158.2171 C   0  0  0  0  0  0  0  0  0  0  0  0
  151.3087  144.8370  158.6910 C   0  0  2  0  0  0  0  0  0  0  0  0
  152.7207  144.7295  158.0871 C   0  0  0  0  0  0  0  0  0  0  0  0
  153.3436  143.5733  158.8903 C   0  0  0  0  0  0  0  0  0  0  0  0
  152.1919  143.1437  159.8229 C   0  0  1  0  0  0  0  0  0  0  0  0
  151.5651  144.4946  160.1542 C   0  0  0  0  0  0  0  0  0  0  0  0
  147.1709  141.6263  157.0646 C   0  0  0  0  0  0  0  0  0  0  0  0
  147.6993  141.2503  158.1102 O   0  0  0  0  0  0  0  0  0  0  0  0
  146.1467  142.5865  157.0944 N   0  0  0  0  0  0  0  0  0  0  0  0
  145.4642  142.7562  153.8726 H   0  0  0  0  0  0  0  0  0  0  0  0
  144.2761  144.3461  156.9621 H   0  0  0  0  0  0  0  0  0  0  0  0
  143.5708  143.5507  155.5502 H   0  0  0  0  0  0  0  0  0  0  0  0
  144.7762  144.8307  155.3387 H   0  0  0  0  0  0  0  0  0  0  0  0
  148.2769  141.2997  152.9604 H   0  0  0  0  0  0  0  0  0  0  0  0
  146.5940  141.5346  152.4927 H   0  0  0  0  0  0  0  0  0  0  0  0
  147.1112  139.9817  153.1418 H   0  0  0  0  0  0  0  0  0  0  0  0
  148.8548  139.6928  154.6787 H   0  0  0  0  0  0  0  0  0  0  0  0
  148.4237  139.1915  156.2708 H   0  0  0  0  0  0  0  0  0  0  0  0
  149.3961  140.5134  158.0998 H   0  0  0  0  0  0  0  0  0  0  0  0
  152.1402  141.4702  157.4745 H   0  0  0  0  0  0  0  0  0  0  0  0
  152.8831  140.3688  159.5830 H   0  0  0  0  0  0  0  0  0  0  0  0
  152.1807  139.1850  158.4948 H   0  0  0  0  0  0  0  0  0  0  0  0
  151.2492  139.7746  159.8691 H   0  0  0  0  0  0  0  0  0  0  0  0
  150.2815  142.1737  159.7781 H   0  0  0  0  0  0  0  0  0  0  0  0
  150.5607  143.4854  157.1409 H   0  0  0  0  0  0  0  0  0  0  0  0
  149.4104  143.7847  158.4402 H   0  0  0  0  0  0  0  0  0  0  0  0
  150.8317  145.8019  158.5174 H   0  0  0  0  0  0  0  0  0  0  0  0
  152.6992  144.5276  157.0155 H   0  0  0  0  0  0  0  0  0  0  0  0
  153.2830  145.6511  158.2426 H   0  0  0  0  0  0  0  0  0  0  0  0
  153.7157  142.7690  158.2572 H   0  0  0  0  0  0  0  0  0  0  0  0
  154.1889  143.9366  159.4764 H   0  0  0  0  0  0  0  0  0  0  0  0
  152.5244  142.5788  160.6942 H   0  0  0  0  0  0  0  0  0  0  0  0
  152.2539  145.1842  160.6459 H   0  0  0  0  0  0  0  0  0  0  0  0
  150.6523  144.4179  160.7478 H   0  0  0  0  0  0  0  0  0  0  0  0
  1 24  1  0  0  0  0
  1 25  1  0  0  0  0
  1 26  1  0  0  0  0
  1  2  1  0  0  0  0
  2  3  1  0  0  0  0
  2 22  2  0  0  0  0
  3  4  1  0  0  0  0
  3 23  1  0  0  0  0
  4  6  2  0  0  0  0
  4  5  1  0  0  0  0
  5 27  1  0  0  0  0
  5 28  1  0  0  0  0
  5 29  1  0  0  0  0
  6 20  1  0  0  0  0
  6  7  1  0  0  0  0
  7  8  1  0  0  0  0
  7 30  1  0  0  0  0
  7 31  1  0  0  0  0
  8  9  2  0  0  0  0
  8 10  1  0  0  0  0
 10 11  1  0  0  0  0
 10 32  1  0  0  0  0
 11 12  1  0  0  0  0
 11 13  1  0  0  0  0
 11 33  1  0  0  0  0
 12 34  1  0  0  0  0
 12 35  1  0  0  0  0
 12 36  1  0  0  0  0
 13 18  1  0  0  0  0
 13 14  1  0  0  0  0
 13 37  1  0  0  0  0
 14 15  1  0  0  0  0
 14 38  1  0  0  0  0
 14 39  1  0  0  0  0
 15 19  1  0  0  0  0
 15 16  1  0  0  0  0
 15 40  1  0  0  0  0
 16 17  1  0  0  0  0
 16 41  1  0  0  0  0
 16 42  1  0  0  0  0
 17 18  1  0  0  0  0
 17 43  1  0  0  0  0
 17 44  1  0  0  0  0
 18 19  1  0  0  0  0
 18 45  1  0  0  0  0
 19 46  1  0  0  0  0
 19 47  1  0  0  0  0
 20 21  2  0  0  0  0
 20 22  1  0  0  0  0
M  END
> <s_m_source_file>
AV-unprocessed.smi

> <i_m_source_file_index>
2124

> <i_lp_mmshare_version>
43012

> <i_f3d_flags>
0

> <s_epik_input>
W0NIM11jMW5jKFtDSDNdKWMoYyg9TylbbkhdMSlbQ0gyXUMoPU8pW05IXVtDQEhdKFtDSDNdKVtDQEhdKFtDSDJdW0NASF0yMylbQ0BIXShbQ0gyXTMpW0NIMl1bQ0gyXTI=

> <s_epik_cmdline>
J2VwaWtfcHl0aG9uJywgJy1waCcsICc3LjAnLCAnLXRuJywgJzgnLCAnLW1hJywgJzIwMCcsICctbWV0YWxfYmluZGluZycsICctaW1hZScsICc8aW5maWxlLm1hZT4nLCAnLW9tYWUnLCAnPG91dGZpbGUubWFlPic=

> <r_lp_tautomer_probability>
0.156392

> <r_epik_Ionization_Penalty>
0.0139374

> <r_epik_Ionization_Penalty_Charging>
0.0138122

> <r_epik_Ionization_Penalty_Neutral>
0.000125146

> <r_epik_State_Penalty>
1.15342

> <r_epik_Charging_Adjusted_Penalty>
1.16723

> <i_epik_Tot_Q>
0

> <i_epik_Tot_abs_Q>
0

> <r_epik_Metal_State_Penalty>
1.3173

> <b_epik_Metal_Only>
0

> <s_lp_Force_Field>
OPLS_2005

> <r_lp_Energy>
55.868

> <b_lp_Chiralities_Consistent>
1

> <s_lp_Variant>
AV-unprocessed.smi:2124-9

> <Gold.Version>
5.8.1

> <Gold.Id.Protein>
6NUR|6NUR_protein|mol2

> <Gold.PLP.Fitness>
41.7374

> <Gold.PLP.PLP>
-39.6624

> <Gold.PLP.part.hbond>
-1.4824

> <Gold.PLP.part.metal>
0.0000

> <Gold.PLP.part.buried>
-6.2856

> <Gold.PLP.part.nonpolar>
-31.9558

> <Gold.PLP.part.repulsive>
0.3591

> <Gold.PLP.ligand.clash>
0.0000

> <Gold.PLP.ligand.torsion>
0.1733

> <Gold.PLP.Chemscore.Hbond>
0.8000

> <Gold.PLP.Chemscore.CHOScore>
0.0000

> <Gold.PLP.Chemscore.Metal>
0.0000

> <Gold.Chemscore.Hbonds>
donor molecule, donor type, donor heavy atom, donor atom, acceptor molecule, acceptor atom, score
      P1  H  7989  7998       L1     9  0.80

> <Gold.PLP.Chemscore.Internal.Correction>
0.0216

> <Gold.Rescore>
     Score         DG    S(hbond)    S(metal)    S(lipo)     H(rot)  DE(clash)    DE(int)     intcor
     15.77     -17.55       0.78        0.00     117.05       1.65       0.02       1.76       ----

> <Gold.Chemscore.Fitness>
15.7707

> <Gold.Chemscore.DG>
-17.5531

> <Gold.Chemscore.ZeroCoef>
-5.4800

> <Gold.Chemscore.Hbond>
0.7817

> <Gold.Chemscore.Metal>
0.0000

> <Gold.Chemscore.Lipo>
117.0480

> <Gold.Chemscore.Internal_Hbond>
0.0000

> <Gold.Chemscore.DEClash>
0.0245

> <Gold.Chemscore.DEInternal>
1.7578

> <Gold.Chemscore.Rot>
1.6534

> <Gold.Chemscore.Internal.Correction>
   9.000000E+99

> <Gold.Chemscore.Hbonds>
donor molecule, donor type, donor heavy atom, donor atom, acceptor molecule, acceptor atom, score
      P1  H  7989  7998       L1     9  0.76

> <Gold.Chemscore.Hbond.Weighted>
-2.6110

> <Gold.Chemscore.Metal.Weighted>
-0.0000

> <Gold.Chemscore.Lipo.Weighted>
-13.6946

> <Gold.Chemscore.Internal_Hbond.Weighted>
0.0000

> <Gold.Chemscore.DEClash.Weighted>
0.0245

> <Gold.Chemscore.DEInternal.Weighted>
1.7578

> <Gold.Chemscore.Rot.Weighted>
4.2326

> <Gold.Chemscore.Internal.Correction.Weighted>
   9.000000E+99

> <Gold.Protein.RotatedTorsions>
[ 6907 6896 6895 6894 ] final -152.38 input  -60.11 | X-H torsion
[ 7974 7965 7964 7962 ] final   55.26 input  175.53 | X-H torsion
[ 8008 7997 7996 7995 ] final -137.07 input   59.86 | X-H torsion
[ 10167 10162 10161 10158 ] final    3.77 input  -65.29 | X-H torsion
[ 10718 10713 10712 10709 ] final   71.40 input   66.30 | X-H torsion
[ 10763 10752 10751 10750 ] final  153.94 input  -60.55 | X-H torsion
[ 11005 11000 10999 10996 ] final -103.14 input  -57.11 | X-H torsion

> <Gold.Protein.ActiveResidues>
 VAL166  LYS551  ARG553  GLY616  TRP617  ASP618  TYR619  PRO620  LYS621  CYS622 
 ASP623  PHE694  ASN695  SER759  ASP760  ASP761  ALA762  ILE779  LEU786  VAL792 
 PHE793  MET794  SER795  GLU796  ALA797  LYS798  CYS799  TRP800  GLU811  SER814 

> <Gold.Protein.RotatedAtoms>
  151.2270  133.4471  159.2602 H   0  0  0  0  0  0  0  0  0  0  0  0  # atno 6907 bound_to 6896
  151.0831  134.9870  159.8376 H   0  0  0  0  0  0  0  0  0  0  0  0  # atno 6908 bound_to 6896
  152.5426  134.2208  159.8840 H   0  0  0  0  0  0  0  0  0  0  0  0  # atno 6909 bound_to 6896
  145.9523  139.3983  143.0299 H   0  0  0  0  0  0  0  0  0  0  0  0  # atno 7974 bound_to 7965
  155.4057  140.0509  157.3034 H   0  0  0  0  0  0  0  0  0  0  0  0  # atno 8008 bound_to 7997
  154.4969  140.2142  155.9387 H   0  0  0  0  0  0  0  0  0  0  0  0  # atno 8009 bound_to 7997
  156.1417  140.3153  155.8512 H   0  0  0  0  0  0  0  0  0  0  0  0  # atno 8010 bound_to 7997
  140.6569  143.7404  150.7669 H   0  0  0  0  0  0  0  0  0  0  0  0  # atno 10167 bound_to 10162
  157.6449  130.9526  150.0783 H   0  0  0  0  0  0  0  0  0  0  0  0  # atno 10718 bound_to 10713
  154.1444  135.2819  155.3152 H   0  0  0  0  0  0  0  0  0  0  0  0  # atno 10763 bound_to 10752
  154.6263  135.5450  153.7634 H   0  0  0  0  0  0  0  0  0  0  0  0  # atno 10764 bound_to 10752
  153.0240  135.6451  154.1590 H   0  0  0  0  0  0  0  0  0  0  0  0  # atno 10765 bound_to 10752
  141.1159  133.8615  157.1448 H   0  0  0  0  0  0  0  0  0  0  0  0  # atno 11005 bound_to 11000
  145.8155  140.9705  143.0926 LP  0  0  0  0  0  0  0  0  0  0  0  0  # atno 17320 bound_to 7965
  144.6798  139.9974  143.7484 LP  0  0  0  0  0  0  0  0  0  0  0  0  # atno 17321 bound_to 7965
  140.1066  143.4738  152.2395 LP  0  0  0  0  0  0  0  0  0  0  0  0  # atno 17342 bound_to 10162
  139.5793  144.7503  151.3681 LP  0  0  0  0  0  0  0  0  0  0  0  0  # atno 17343 bound_to 10162
  156.1767  130.3648  149.9091 LP  0  0  0  0  0  0  0  0  0  0  0  0  # atno 17370 bound_to 10713
  156.7053  130.8949  151.3604 LP  0  0  0  0  0  0  0  0  0  0  0  0  # atno 17371 bound_to 10713
  140.0081  135.0000  157.0336 LP  0  0  0  0  0  0  0  0  0  0  0  0  # atno 17394 bound_to 11000
  140.4647  134.1447  155.7195 LP  0  0  0  0  0  0  0  0  0  0  0  0  # atno 17395 bound_to 11000

$$$$
