AV-unprocessed.smi:556|AV-procd|sdf|2913|dock9
  -GOLD-   2262023403D 1   1.00000     0.00000
 Structure written by MMmdl.
 38 39  0  0  0  0  0  0  0  0  1 V2000
  147.4574  142.3986  154.0293 C   0  0  0  0  0  0  0  0  0  0  0  0
  147.7353  141.4238  155.1865 C   0  0  1  0  0  0  0  0  0  0  0  0
  146.5960  140.4084  155.4159 C   0  0  0  0  0  0  0  0  0  0  0  0
  146.5863  139.4088  154.4085 O   0  0  0  0  0  0  0  0  0  0  0  0
  147.7954  138.6672  154.3985 C   0  0  0  0  0  0  0  0  0  0  0  0
  148.9593  139.6055  154.0514 C   0  0  0  0  0  0  0  0  0  0  0  0
  149.0315  140.7318  154.9979 N   0  0  0  0  0  0  0  0  0  0  0  0
  150.2132  141.0931  155.5651 C   0  0  0  0  0  0  0  0  0  0  0  0
  151.2772  140.5141  155.3401 O   0  0  0  0  0  0  0  0  0  0  0  0
  150.1485  142.1589  156.3824 N   0  0  0  0  0  0  0  0  0  0  0  0
  151.2774  142.7473  157.0932 C   0  0  0  0  0  0  0  0  0  0  0  0
  150.8453  143.3670  158.4321 C   0  0  0  0  0  0  0  0  0  0  0  0
  151.7055  142.8806  159.5642 C   0  0  0  0  0  0  0  0  0  0  0  0
  152.6266  141.7945  159.5592 C   0  0  0  0  0  0  0  0  0  0  0  0
  153.2236  141.6205  160.7270 N   0  0  0  0  0  0  0  0  0  0  0  0
  152.7092  142.5874  161.5145 N   0  0  0  0  0  0  0  0  0  0  0  0
  153.1435  142.6934  162.8910 C   0  0  0  0  0  0  0  0  0  0  0  0
  151.7915  143.3633  160.8398 C   0  0  0  0  0  0  0  0  0  0  0  0
  146.5396  142.9600  154.2046 H   0  0  0  0  0  0  0  0  0  0  0  0
  147.3445  141.8753  153.0797 H   0  0  0  0  0  0  0  0  0  0  0  0
  148.2675  143.1201  153.9192 H   0  0  0  0  0  0  0  0  0  0  0  0
  147.7431  142.0252  156.0956 H   0  0  0  0  0  0  0  0  0  0  0  0
  146.7029  139.9348  156.3933 H   0  0  0  0  0  0  0  0  0  0  0  0
  145.6305  140.9144  155.4226 H   0  0  0  0  0  0  0  0  0  0  0  0
  147.9550  138.1813  155.3627 H   0  0  0  0  0  0  0  0  0  0  0  0
  147.7166  137.8766  153.6523 H   0  0  0  0  0  0  0  0  0  0  0  0
  149.8758  139.0147  154.0224 H   0  0  0  0  0  0  0  0  0  0  0  0
  148.8286  140.0012  153.0440 H   0  0  0  0  0  0  0  0  0  0  0  0
  149.2485  142.5964  156.5164 H   0  0  0  0  0  0  0  0  0  0  0  0
  152.0527  141.9953  157.2499 H   0  0  0  0  0  0  0  0  0  0  0  0
  151.7139  143.5147  156.4532 H   0  0  0  0  0  0  0  0  0  0  0  0
  150.8917  144.4541  158.3570 H   0  0  0  0  0  0  0  0  0  0  0  0
  149.7986  143.1285  158.6250 H   0  0  0  0  0  0  0  0  0  0  0  0
  152.8752  141.1289  158.7458 H   0  0  0  0  0  0  0  0  0  0  0  0
  152.7952  143.6327  163.3213 H   0  0  0  0  0  0  0  0  0  0  0  0
  154.2325  142.6644  162.9413 H   0  0  0  0  0  0  0  0  0  0  0  0
  152.7352  141.8645  163.4698 H   0  0  0  0  0  0  0  0  0  0  0  0
  151.2774  144.1845  161.3174 H   0  0  0  0  0  0  0  0  0  0  0  0
  1  2  1  0  0  0  0
  1 19  1  0  0  0  0
  1 20  1  0  0  0  0
  1 21  1  0  0  0  0
  2  7  1  0  0  0  0
  2  3  1  0  0  0  0
  2 22  1  0  0  0  0
  3  4  1  0  0  0  0
  3 23  1  0  0  0  0
  3 24  1  0  0  0  0
  4  5  1  0  0  0  0
  5  6  1  0  0  0  0
  5 25  1  0  0  0  0
  5 26  1  0  0  0  0
  6  7  1  0  0  0  0
  6 27  1  0  0  0  0
  6 28  1  0  0  0  0
  7  8  1  0  0  0  0
  8  9  2  0  0  0  0
  8 10  1  0  0  0  0
 10 11  1  0  0  0  0
 10 29  1  0  0  0  0
 11 12  1  0  0  0  0
 11 30  1  0  0  0  0
 11 31  1  0  0  0  0
 12 13  1  0  0  0  0
 12 32  1  0  0  0  0
 12 33  1  0  0  0  0
 13 18  2  0  0  0  0
 13 14  1  0  0  0  0
 14 15  2  0  0  0  0
 14 34  1  0  0  0  0
 15 16  1  0  0  0  0
 16 17  1  0  0  0  0
 16 18  1  0  0  0  0
 17 35  1  0  0  0  0
 17 36  1  0  0  0  0
 17 37  1  0  0  0  0
 18 38  1  0  0  0  0
M  END
> <s_m_source_file>
AV-unprocessed.smi

> <i_m_source_file_index>
556

> <i_lp_mmshare_version>
43012

> <i_f3d_flags>
0

> <s_epik_input>
W0NIM11bQ0BASF0xW0NIMl1PW0NIMl1bQ0gyXU4xQyg9TylbTkhdW0NIMl1bQ0gyXWMyW2NIXW5uKFtDSDNdKVtjSF0y

> <s_epik_cmdline>
J2VwaWtfcHl0aG9uJywgJy1waCcsICc3LjAnLCAnLXRuJywgJzgnLCAnLW1hJywgJzIwMCcsICctbWV0YWxfYmluZGluZycsICctaW1hZScsICc8aW5maWxlLm1hZT4nLCAnLW9tYWUnLCAnPG91dGZpbGUubWFlPic=

> <r_lp_tautomer_probability>
1

> <r_epik_Ionization_Penalty>
0.000536334

> <r_epik_Ionization_Penalty_Charging>
0

> <r_epik_Ionization_Penalty_Neutral>
0.000536334

> <r_epik_State_Penalty>
-0

> <r_epik_Charging_Adjusted_Penalty>
0

> <i_epik_Tot_Q>
0

> <i_epik_Tot_abs_Q>
0

> <r_epik_Metal_State_Penalty>
-0

> <b_epik_Metal_Only>
0

> <s_lp_Force_Field>
OPLS_2005

> <r_lp_Energy>
28.9332

> <b_lp_Chiralities_Consistent>
1

> <s_lp_Variant>
AV-unprocessed.smi:556-2

> <Gold.Version>
5.8.1

> <Gold.Id.Protein>
6NUR|6NUR_protein|mol2

> <Gold.PLP.Fitness>
39.3283

> <Gold.PLP.PLP>
-37.7431

> <Gold.PLP.part.hbond>
-2.0000

> <Gold.PLP.part.metal>
0.0000

> <Gold.PLP.part.buried>
-4.5103

> <Gold.PLP.part.nonpolar>
-30.2771

> <Gold.PLP.part.repulsive>
0.1992

> <Gold.PLP.ligand.clash>
0.0000

> <Gold.PLP.ligand.torsion>
0.6857

> <Gold.PLP.Chemscore.Hbond>
0.9817

> <Gold.PLP.Chemscore.CHOScore>
0.0000

> <Gold.PLP.Chemscore.Metal>
0.0000

> <Gold.Chemscore.Hbonds>
donor molecule, donor type, donor heavy atom, donor atom, acceptor molecule, acceptor atom, score
      L1  H    10    29       P1  8028  0.11
      P1  H  7989  7998       L1     9  0.90

> <Gold.PLP.Chemscore.Internal.Correction>
0.0115

> <Gold.Rescore>
     Score         DG    S(hbond)    S(metal)    S(lipo)     H(rot)  DE(clash)    DE(int)     intcor
     13.72     -14.50       0.86        0.00      83.11       1.40       0.05       0.73       ----

> <Gold.Chemscore.Fitness>
13.7214

> <Gold.Chemscore.DG>
-14.4971

> <Gold.Chemscore.ZeroCoef>
-5.4800

> <Gold.Chemscore.Hbond>
0.8616

> <Gold.Chemscore.Metal>
0.0000

> <Gold.Chemscore.Lipo>
83.1089

> <Gold.Chemscore.Internal_Hbond>
0.0000

> <Gold.Chemscore.DEClash>
0.0474

> <Gold.Chemscore.DEInternal>
0.7283

> <Gold.Chemscore.Rot>
1.4001

> <Gold.Chemscore.Internal.Correction>
   9.000000E+99

> <Gold.Chemscore.Hbonds>
donor molecule, donor type, donor heavy atom, donor atom, acceptor molecule, acceptor atom, score
      L1  H    10    29       P1  8028  0.12
      P1  H  7989  7998       L1     9  0.44

> <Gold.Chemscore.Hbond.Weighted>
-2.8776

> <Gold.Chemscore.Metal.Weighted>
-0.0000

> <Gold.Chemscore.Lipo.Weighted>
-9.7237

> <Gold.Chemscore.Internal_Hbond.Weighted>
0.0000

> <Gold.Chemscore.DEClash.Weighted>
0.0474

> <Gold.Chemscore.DEInternal.Weighted>
0.7283

> <Gold.Chemscore.Rot.Weighted>
3.5842

> <Gold.Chemscore.Internal.Correction.Weighted>
   9.000000E+99

> <Gold.Protein.RotatedTorsions>
[ 6907 6896 6895 6894 ] final  104.34 input  -60.11 | X-H torsion
[ 7974 7965 7964 7962 ] final  121.22 input  175.53 | X-H torsion
[ 8008 7997 7996 7995 ] final -158.04 input   59.86 | X-H torsion
[ 10167 10162 10161 10158 ] final   -9.65 input  -65.29 | X-H torsion
[ 10718 10713 10712 10709 ] final  -72.33 input   66.30 | X-H torsion
[ 10763 10752 10751 10750 ] final  141.56 input  -60.55 | X-H torsion
[ 11005 11000 10999 10996 ] final  -33.10 input  -57.11 | X-H torsion

> <Gold.Protein.ActiveResidues>
 VAL166  LYS551  ARG553  GLY616  TRP617  ASP618  TYR619  PRO620  LYS621  CYS622 
 ASP623  PHE694  ASN695  SER759  ASP760  ASP761  ALA762  ILE779  LEU786  VAL792 
 PHE793  MET794  SER795  GLU796  ALA797  LYS798  CYS799  TRP800  GLU811  SER814 

> <Gold.Protein.RotatedAtoms>
  152.5267  133.9692  159.7753 H   0  0  0  0  0  0  0  0  0  0  0  0  # atno 6907 bound_to 6896
  150.9967  133.6088  159.2707 H   0  0  0  0  0  0  0  0  0  0  0  0  # atno 6908 bound_to 6896
  151.3211  135.0825  159.9359 H   0  0  0  0  0  0  0  0  0  0  0  0  # atno 6909 bound_to 6896
  145.1219  139.3384  143.4710 H   0  0  0  0  0  0  0  0  0  0  0  0  # atno 7974 bound_to 7965
  155.7416  140.0815  157.2243 H   0  0  0  0  0  0  0  0  0  0  0  0  # atno 8008 bound_to 7997
  154.4021  140.1577  156.2678 H   0  0  0  0  0  0  0  0  0  0  0  0  # atno 8009 bound_to 7997
  155.9015  140.3409  155.6033 H   0  0  0  0  0  0  0  0  0  0  0  0  # atno 8010 bound_to 7997
  140.7093  143.5835  150.8968 H   0  0  0  0  0  0  0  0  0  0  0  0  # atno 10167 bound_to 10162
  156.0325  130.4370  150.2576 H   0  0  0  0  0  0  0  0  0  0  0  0  # atno 10718 bound_to 10713
  153.9412  135.2980  155.3442 H   0  0  0  0  0  0  0  0  0  0  0  0  # atno 10763 bound_to 10752
  154.7476  135.4995  153.9234 H   0  0  0  0  0  0  0  0  0  0  0  0  # atno 10764 bound_to 10752
  153.1041  135.6742  153.9725 H   0  0  0  0  0  0  0  0  0  0  0  0  # atno 10765 bound_to 10752
  140.9607  133.7166  156.1365 H   0  0  0  0  0  0  0  0  0  0  0  0  # atno 11005 bound_to 11000
  146.3520  140.1181  142.8601 LP  0  0  0  0  0  0  0  0  0  0  0  0  # atno 17320 bound_to 7965
  145.0731  140.9169  143.4870 LP  0  0  0  0  0  0  0  0  0  0  0  0  # atno 17321 bound_to 7965
  139.9560  143.6217  152.3016 LP  0  0  0  0  0  0  0  0  0  0  0  0  # atno 17342 bound_to 10162
  139.6753  144.7659  151.1707 LP  0  0  0  0  0  0  0  0  0  0  0  0  # atno 17343 bound_to 10162
  157.0678  131.0108  151.3201 LP  0  0  0  0  0  0  0  0  0  0  0  0  # atno 17370 bound_to 10713
  157.5022  130.7887  149.7617 LP  0  0  0  0  0  0  0  0  0  0  0  0  # atno 17371 bound_to 10713
  140.7471  134.4085  157.5546 LP  0  0  0  0  0  0  0  0  0  0  0  0  # atno 17394 bound_to 11000
  139.8877  134.8875  156.2514 LP  0  0  0  0  0  0  0  0  0  0  0  0  # atno 17395 bound_to 11000

$$$$
