AV-unprocessed.smi:157|AV-procd|sdf|1308|dock7
  -GOLD-   2262018593D 1   1.00000     0.00000
 Structure written by MMmdl.
 36 38  0  0  0  0  0  0  0  0  2 V2000
  146.7327  130.5013  152.0714 O   0  0  0  0  0  0  0  0  0  0  0  0
  145.5004  130.7552  151.4310 C   0  0  0  0  0  0  0  0  0  0  0  0
  145.5314  132.1308  150.7425 C   0  0  2  0  0  0  0  0  0  0  0  0
  145.2848  133.1791  151.6787 O   0  0  0  0  0  0  0  0  0  0  0  0
  144.5139  134.1816  151.0879 C   0  0  1  0  0  0  0  0  0  0  0  0
  145.1811  135.4991  151.3219 N   0  0  0  0  0  0  0  0  0  0  0  0
  145.6847  136.2969  150.3581 C   0  0  0  0  0  0  0  0  0  0  0  0
  146.2157  137.4233  150.8023 N   0  3  0  0  0  0  0  0  0  0  0  0
  146.0653  137.4122  152.1726 C   0  0  0  0  0  0  0  0  0  0  0  0
  145.4286  136.2066  152.4792 C   0  0  0  0  0  0  0  0  0  0  0  0
  145.0412  135.6924  153.7264 N   0  0  0  0  0  0  0  0  0  0  0  0
  145.4878  136.1505  154.8502 C   0  0  0  0  0  0  0  0  0  0  0  0
  146.3149  137.2363  155.0840 N   0  0  0  0  0  0  0  0  0  0  0  0
  146.1158  138.5309  154.4577 C   0  0  0  0  0  0  0  0  0  0  0  0
  146.5442  138.5746  152.9852 C   0  0  1  0  0  0  0  0  0  0  0  0
  147.9465  138.7352  152.9276 O   0  0  0  0  0  0  0  0  0  0  0  0
  144.4110  133.8690  149.5941 C   0  0  0  0  0  0  0  0  0  0  0  0
  144.5328  132.3597  149.5960 C   0  0  2  0  0  0  0  0  0  0  0  0
  143.2752  131.7591  149.8434 O   0  0  0  0  0  0  0  0  0  0  0  0
  146.5364  132.3047  150.3548 H   0  0  0  0  0  0  0  0  0  0  0  0
  143.5434  134.2439  151.5824 H   0  0  0  0  0  0  0  0  0  0  0  0
  146.1214  139.4794  152.5470 H   0  0  0  0  0  0  0  0  0  0  0  0
  144.9142  131.9817  148.6471 H   0  0  0  0  0  0  0  0  0  0  0  0
  147.4296  130.8261  151.5216 H   0  0  0  0  0  0  0  0  0  0  0  0
  145.2782  129.9556  150.7241 H   0  0  0  0  0  0  0  0  0  0  0  0
  144.7139  130.7377  152.1858 H   0  0  0  0  0  0  0  0  0  0  0  0
  145.6522  136.0352  149.3155 H   0  0  0  0  0  0  0  0  0  0  0  0
  145.1961  135.6522  155.7759 H   0  0  0  0  0  0  0  0  0  0  0  0
  146.7452  137.3286  155.9934 H   0  0  0  0  0  0  0  0  0  0  0  0
  145.0520  138.7646  154.5231 H   0  0  0  0  0  0  0  0  0  0  0  0
  146.6301  139.3010  155.0337 H   0  0  0  0  0  0  0  0  0  0  0  0
  148.1664  139.2040  152.1374 H   0  0  0  0  0  0  0  0  0  0  0  0
  143.4817  134.2489  149.1682 H   0  0  0  0  0  0  0  0  0  0  0  0
  145.2519  134.3114  149.0588 H   0  0  0  0  0  0  0  0  0  0  0  0
  142.8170  132.2793  150.4862 H   0  0  0  0  0  0  0  0  0  0  0  0
  146.6378  138.1519  150.2408 H   0  0  0  0  0  0  0  0  0  0  0  0
  1  2  1  0  0  0  0
  1 24  1  0  0  0  0
  2  3  1  0  0  0  0
  2 25  1  0  0  0  0
  2 26  1  0  0  0  0
  3 20  1  0  0  0  0
  3 18  1  0  0  0  0
  3  4  1  0  0  0  0
  4  5  1  0  0  0  0
  5 21  1  0  0  0  0
  5  6  1  0  0  0  0
  5 17  1  0  0  0  0
  6 10  1  0  0  0  0
  6  7  1  0  0  0  0
  7  8  2  0  0  0  0
  7 27  1  0  0  0  0
  8  9  1  0  0  0  0
  8 36  1  0  0  0  0
  9 15  1  0  0  0  0
  9 10  2  0  0  0  0
 10 11  1  0  0  0  0
 11 12  2  0  0  0  0
 12 13  1  0  0  0  0
 12 28  1  0  0  0  0
 13 14  1  0  0  0  0
 13 29  1  0  0  0  0
 14 15  1  0  0  0  0
 14 30  1  0  0  0  0
 14 31  1  0  0  0  0
 15 22  1  0  0  0  0
 15 16  1  0  0  0  0
 16 32  1  0  0  0  0
 17 18  1  0  0  0  0
 17 33  1  0  0  0  0
 17 34  1  0  0  0  0
 18 23  1  0  0  0  0
 18 19  1  0  0  0  0
 19 35  1  0  0  0  0
M  CHG  1   8   1
M  END
> <s_m_source_file>
AV-unprocessed.smi

> <i_m_source_file_index>
157

> <i_lp_mmshare_version>
43012

> <i_f3d_flags>
0

> <s_epik_input>
W09IXVtDSDJdW0NASF0xT1tDQEhdKFtDSDJdW0NAQEhdMVtPSF0pbihbY0hdbjIpYyhjMjMpTj1bQ0hdW05IXVtDSDJdW0NASF0zW09IXQ==

> <s_epik_cmdline>
J2VwaWtfcHl0aG9uJywgJy1waCcsICc3LjAnLCAnLXRuJywgJzgnLCAnLW1hJywgJzIwMCcsICctbWV0YWxfYmluZGluZycsICctaW1hZScsICc8aW5maWxlLm1hZT4nLCAnLW9tYWUnLCAnPG91dGZpbGUubWFlPic=

> <r_epik_Ionization_Penalty>
1.68594

> <r_epik_Ionization_Penalty_Charging>
0

> <r_epik_Ionization_Penalty_Neutral>
1.68594

> <r_epik_State_Penalty>
1.79006

> <r_epik_Charging_Adjusted_Penalty>
1.79006

> <i_epik_Tot_Q>
1

> <i_epik_Tot_abs_Q>
1

> <r_epik_Metal_State_Penalty>
5.85324

> <b_epik_Metal_Only>
0

> <s_epik_Chemistry_Notes>
This compound has an imine and may undergo hydrolysis. This compound contains an acetal/aminal-like group ( X-CH(R)-Y where X, Y are N, S, or O) that may be acid/base labile, releasing an aldehyde.

> <s_lp_Force_Field>
OPLS_2005

> <r_lp_Energy>
54.692

> <b_lp_Chiralities_Consistent>
1

> <s_lp_Variant>
AV-unprocessed.smi:157-18

> <Gold.Version>
5.8.1

> <Gold.Id.Protein>
6NUR|6NUR_protein|mol2

> <Gold.PLP.Fitness>
41.7676

> <Gold.PLP.PLP>
-30.6139

> <Gold.PLP.part.hbond>
-6.6044

> <Gold.PLP.part.metal>
0.0000

> <Gold.PLP.part.buried>
-1.2173

> <Gold.PLP.part.nonpolar>
-23.0642

> <Gold.PLP.part.repulsive>
0.2603

> <Gold.PLP.ligand.clash>
0.0000

> <Gold.PLP.ligand.torsion>
0.2451

> <Gold.PLP.Chemscore.Hbond>
2.8800

> <Gold.PLP.Chemscore.CHOScore>
1.0000

> <Gold.PLP.Chemscore.Metal>
0.0000

> <Gold.Chemscore.Hbonds>
donor molecule, donor type, donor heavy atom, donor atom, acceptor molecule, acceptor atom, score
      L1  H     1    24       P1 10747  1.00
      L1  H    16    32       P1  7957  0.91
      P1  H 10785 10796       L1    19  1.00
      L1  C     7    27       P1  7921  1.00

> <Gold.PLP.Chemscore.Internal.Correction>
0.0040

> <Gold.Rescore>
     Score         DG    S(hbond)    S(metal)    S(lipo)     H(rot)  DE(clash)    DE(int)     intcor
      9.70     -11.86       2.76        0.00      56.07       3.67       1.87       0.29       ----

> <Gold.Chemscore.Fitness>
9.6967

> <Gold.Chemscore.DG>
-11.8584

> <Gold.Chemscore.ZeroCoef>
-5.4800

> <Gold.Chemscore.Hbond>
2.7554

> <Gold.Chemscore.Metal>
0.0000

> <Gold.Chemscore.Lipo>
56.0705

> <Gold.Chemscore.Internal_Hbond>
0.0000

> <Gold.Chemscore.DEClash>
1.8739

> <Gold.Chemscore.DEInternal>
0.2878

> <Gold.Chemscore.Rot>
3.6659

> <Gold.Chemscore.Internal.Correction>
   9.000000E+99

> <Gold.Chemscore.Hbonds>
donor molecule, donor type, donor heavy atom, donor atom, acceptor molecule, acceptor atom, score
      L1  H     1    24       P1 10747  0.97
      L1  H    16    32       P1  7957  0.88
      P1  H 10785 10796       L1    19  0.59

> <Gold.Chemscore.Hbond.Weighted>
-9.2030

> <Gold.Chemscore.Metal.Weighted>
-0.0000

> <Gold.Chemscore.Lipo.Weighted>
-6.5603

> <Gold.Chemscore.Internal_Hbond.Weighted>
0.0000

> <Gold.Chemscore.DEClash.Weighted>
1.8739

> <Gold.Chemscore.DEInternal.Weighted>
0.2878

> <Gold.Chemscore.Rot.Weighted>
9.3848

> <Gold.Chemscore.Internal.Correction.Weighted>
   9.000000E+99

> <Gold.Protein.RotatedTorsions>
[ 6907 6896 6895 6894 ] final  -29.65 input  -60.11 | X-H torsion
[ 7974 7965 7964 7962 ] final -113.67 input  175.53 | X-H torsion
[ 8008 7997 7996 7995 ] final  136.15 input   59.86 | X-H torsion
[ 10167 10162 10161 10158 ] final  -49.58 input  -65.29 | X-H torsion
[ 10718 10713 10712 10709 ] final  114.43 input   66.30 | X-H torsion
[ 10763 10752 10751 10750 ] final   -5.92 input  -60.55 | X-H torsion
[ 11005 11000 10999 10996 ] final -115.93 input  -57.11 | X-H torsion

> <Gold.Protein.ActiveResidues>
 VAL166  LYS551  ARG553  GLY616  TRP617  ASP618  TYR619  PRO620  LYS621  CYS622 
 ASP623  PHE694  ASN695  SER759  ASP760  ASP761  ALA762  ILE779  LEU786  VAL792 
 PHE793  MET794  SER795  GLU796  ALA797  LYS798  CYS799  TRP800  GLU811  SER814 

> <Gold.Protein.RotatedAtoms>
  151.1163  135.0054  159.8517 H   0  0  0  0  0  0  0  0  0  0  0  0  # atno 6907 bound_to 6896
  152.5446  134.1776  159.8632 H   0  0  0  0  0  0  0  0  0  0  0  0  # atno 6908 bound_to 6896
  151.1831  133.4668  159.2627 H   0  0  0  0  0  0  0  0  0  0  0  0  # atno 6909 bound_to 6896
  145.1293  140.8715  143.3767 H   0  0  0  0  0  0  0  0  0  0  0  0  # atno 7974 bound_to 7965
  156.3004  140.2452  156.3698 H   0  0  0  0  0  0  0  0  0  0  0  0  # atno 8008 bound_to 7997
  154.8799  140.0413  157.1795 H   0  0  0  0  0  0  0  0  0  0  0  0  # atno 8009 bound_to 7997
  154.8707  140.2934  155.5487 H   0  0  0  0  0  0  0  0  0  0  0  0  # atno 8010 bound_to 7997
  140.6678  143.2692  151.4235 H   0  0  0  0  0  0  0  0  0  0  0  0  # atno 10167 bound_to 10162
  157.6281  131.0998  150.7185 H   0  0  0  0  0  0  0  0  0  0  0  0  # atno 10718 bound_to 10713
  153.4052  135.7006  153.6398 H   0  0  0  0  0  0  0  0  0  0  0  0  # atno 10763 bound_to 10752
  153.4915  135.3672  155.2494 H   0  0  0  0  0  0  0  0  0  0  0  0  # atno 10764 bound_to 10752
  154.8713  135.4090  154.3394 H   0  0  0  0  0  0  0  0  0  0  0  0  # atno 10765 bound_to 10752
  141.0455  133.9769  157.2924 H   0  0  0  0  0  0  0  0  0  0  0  0  # atno 11005 bound_to 11000
  145.0653  139.3073  143.5859 LP  0  0  0  0  0  0  0  0  0  0  0  0  # atno 17320 bound_to 7965
  146.3515  140.0109  142.8667 LP  0  0  0  0  0  0  0  0  0  0  0  0  # atno 17321 bound_to 7965
  139.5934  144.1449  152.2115 LP  0  0  0  0  0  0  0  0  0  0  0  0  # atno 17342 bound_to 10162
  140.0811  144.5700  150.7122 LP  0  0  0  0  0  0  0  0  0  0  0  0  # atno 17343 bound_to 10162
  156.7529  130.4774  149.5453 LP  0  0  0  0  0  0  0  0  0  0  0  0  # atno 17370 bound_to 10713
  156.1467  130.6281  151.0540 LP  0  0  0  0  0  0  0  0  0  0  0  0  # atno 17371 bound_to 10713
  139.9308  135.0200  156.8395 LP  0  0  0  0  0  0  0  0  0  0  0  0  # atno 17394 bound_to 11000
  140.6154  134.0043  155.7595 LP  0  0  0  0  0  0  0  0  0  0  0  0  # atno 17395 bound_to 11000

$$$$
