AV-unprocessed.smi:1208|AV-procd|sdf|5068|dock3
  -GOLD-   22720 4113D 1   1.00000     0.00000
 Structure written by MMmdl.
 36 37  0  0  0  0  0  0  0  0  1 V2000
  153.6734  141.0644  160.7783 C   0  0  0  0  0  0  0  0  0  0  0  0
  153.1979  141.7065  159.4658 C   0  0  1  0  0  0  0  0  0  0  0  0
  151.9216  141.1018  159.0916 N   0  0  0  0  0  0  0  0  0  0  0  0
  151.6693  140.4535  157.9439 C   0  0  0  0  0  0  0  0  0  0  0  0
  152.5138  140.2897  157.0618 O   0  0  0  0  0  0  0  0  0  0  0  0
  150.2365  139.9240  157.7803 C   0  0  0  0  0  0  0  0  0  0  0  0
  149.5180  140.5094  156.6389 N   0  0  0  0  0  0  0  0  0  0  0  0
  148.3477  141.1673  156.9867 N   0  0  0  0  0  0  0  0  0  0  0  0
  147.6358  141.7410  156.0767 C   0  0  0  0  0  0  0  0  0  0  0  0
  146.4869  142.3845  156.4663 O   0  0  0  0  0  0  0  0  0  0  0  0
  148.0317  141.7099  154.6861 C   0  0  0  0  0  0  0  0  0  0  0  0
  149.1717  141.0642  154.3565 C   0  0  0  0  0  0  0  0  0  0  0  0
  150.0046  140.4049  155.3640 C   0  0  0  0  0  0  0  0  0  0  0  0
  151.0493  139.8132  155.0925 O   0  0  0  0  0  0  0  0  0  0  0  0
  153.0427  143.2377  159.5860 C   0  0  1  0  0  0  0  0  0  0  0  0
  152.4631  143.9218  158.3480 C   0  0  0  0  0  0  0  0  0  0  0  0
  151.8844  145.2147  158.8981 C   0  0  0  0  0  0  0  0  0  0  0  0
  151.7326  144.9446  160.3974 C   0  0  0  0  0  0  0  0  0  0  0  0
  152.0796  143.5779  160.5724 O   0  0  0  0  0  0  0  0  0  0  0  0
  146.6914  143.3062  156.4287 H   0  0  0  0  0  0  0  0  0  0  0  0
  154.6539  141.4387  161.0728 H   0  0  0  0  0  0  0  0  0  0  0  0
  153.7587  139.9821  160.6765 H   0  0  0  0  0  0  0  0  0  0  0  0
  152.9801  141.2685  161.5951 H   0  0  0  0  0  0  0  0  0  0  0  0
  153.9446  141.4850  158.7009 H   0  0  0  0  0  0  0  0  0  0  0  0
  151.1670  141.1915  159.7562 H   0  0  0  0  0  0  0  0  0  0  0  0
  150.2684  138.8365  157.6941 H   0  0  0  0  0  0  0  0  0  0  0  0
  149.6893  140.1256  158.7029 H   0  0  0  0  0  0  0  0  0  0  0  0
  147.4238  142.1949  153.9364 H   0  0  0  0  0  0  0  0  0  0  0  0
  149.4795  141.0335  153.3217 H   0  0  0  0  0  0  0  0  0  0  0  0
  153.9963  143.6988  159.8512 H   0  0  0  0  0  0  0  0  0  0  0  0
  153.2070  144.0909  157.5691 H   0  0  0  0  0  0  0  0  0  0  0  0
  151.6619  143.3148  157.9241 H   0  0  0  0  0  0  0  0  0  0  0  0
  152.5638  146.0512  158.7307 H   0  0  0  0  0  0  0  0  0  0  0  0
  150.9315  145.4552  158.4257 H   0  0  0  0  0  0  0  0  0  0  0  0
  152.4198  145.5675  160.9714 H   0  0  0  0  0  0  0  0  0  0  0  0
  150.7206  145.1348  160.7555 H   0  0  0  0  0  0  0  0  0  0  0  0
  1  2  1  0  0  0  0
  1 21  1  0  0  0  0
  1 22  1  0  0  0  0
  1 23  1  0  0  0  0
  2  3  1  0  0  0  0
  2 15  1  0  0  0  0
  2 24  1  0  0  0  0
  3  4  1  0  0  0  0
  3 25  1  0  0  0  0
  4  5  2  0  0  0  0
  4  6  1  0  0  0  0
  6 26  1  0  0  0  0
  6 27  1  0  0  0  0
  6  7  1  0  0  0  0
  7  8  1  0  0  0  0
  7 13  1  0  0  0  0
  8  9  2  0  0  0  0
  9 10  1  0  0  0  0
  9 11  1  0  0  0  0
 10 20  1  0  0  0  0
 11 28  1  0  0  0  0
 11 12  2  0  0  0  0
 12 29  1  0  0  0  0
 12 13  1  0  0  0  0
 13 14  2  0  0  0  0
 15 19  1  0  0  0  0
 15 16  1  0  0  0  0
 15 30  1  0  0  0  0
 16 17  1  0  0  0  0
 16 31  1  0  0  0  0
 16 32  1  0  0  0  0
 17 18  1  0  0  0  0
 17 33  1  0  0  0  0
 17 34  1  0  0  0  0
 18 19  1  0  0  0  0
 18 35  1  0  0  0  0
 18 36  1  0  0  0  0
M  END
> <s_m_source_file>
AV-unprocessed.smi

> <i_m_source_file_index>
1208

> <i_lp_mmshare_version>
43012

> <i_f3d_flags>
0

> <s_epik_input>
TzFbQ0gyXVtDSDJdW0NIMl1bQ0BIXTFbQ0BIXShbQ0gzXSlbTkhdQyg9TylbQ0gyXW4yW25IXWMoPU8pW2NIXVtjSF1jMj1P

> <s_epik_cmdline>
J2VwaWtfcHl0aG9uJywgJy1waCcsICc3LjAnLCAnLXRuJywgJzgnLCAnLW1hJywgJzIwMCcsICctbWV0YWxfYmluZGluZycsICctaW1hZScsICc8aW5maWxlLm1hZT4nLCAnLW9tYWUnLCAnPG91dGZpbGUubWFlPic=

> <r_lp_tautomer_probability>
0.9996

> <r_epik_Ionization_Penalty>
2.12735

> <r_epik_Ionization_Penalty_Charging>
3.86665e-08

> <r_epik_Ionization_Penalty_Neutral>
2.12735

> <r_epik_State_Penalty>
1.70441

> <r_epik_Charging_Adjusted_Penalty>
1.70441

> <i_epik_Tot_Q>
0

> <i_epik_Tot_abs_Q>
0

> <r_epik_Metal_State_Penalty>
1.70441

> <b_epik_Metal_Only>
0

> <s_lp_Force_Field>
OPLS_2005

> <r_lp_Energy>
29.9915

> <b_lp_Chiralities_Consistent>
1

> <s_lp_Variant>
AV-unprocessed.smi:1208-8

> <Gold.Version>
5.8.1

> <Gold.Id.Protein>
6NUR|6NUR_protein|mol2

> <Gold.PLP.Fitness>
45.6774

> <Gold.PLP.PLP>
-39.7071

> <Gold.PLP.part.hbond>
-2.0000

> <Gold.PLP.part.metal>
0.0000

> <Gold.PLP.part.buried>
-3.7172

> <Gold.PLP.part.nonpolar>
-33.7718

> <Gold.PLP.part.repulsive>
0.3207

> <Gold.PLP.ligand.clash>
0.0000

> <Gold.PLP.ligand.torsion>
0.0312

> <Gold.PLP.Chemscore.Hbond>
2.0000

> <Gold.PLP.Chemscore.CHOScore>
0.0000

> <Gold.PLP.Chemscore.Metal>
0.0000

> <Gold.Chemscore.Hbonds>
donor molecule, donor type, donor heavy atom, donor atom, acceptor molecule, acceptor atom, score
      P1  H  7989  7998       L1    14  1.00
      P1  H  7997  8009       L1     5  1.00

> <Gold.PLP.Chemscore.Internal.Correction>
0.0328

> <Gold.Rescore>
     Score         DG    S(hbond)    S(metal)    S(lipo)     H(rot)  DE(clash)    DE(int)     intcor
     12.69     -15.52       1.92        0.00      88.30       2.63       0.04       2.79       ----

> <Gold.Chemscore.Fitness>
12.6861

> <Gold.Chemscore.DG>
-15.5154

> <Gold.Chemscore.ZeroCoef>
-5.4800

> <Gold.Chemscore.Hbond>
1.9244

> <Gold.Chemscore.Metal>
0.0000

> <Gold.Chemscore.Lipo>
88.3047

> <Gold.Chemscore.Internal_Hbond>
0.0000

> <Gold.Chemscore.DEClash>
0.0396

> <Gold.Chemscore.DEInternal>
2.7897

> <Gold.Chemscore.Rot>
2.6264

> <Gold.Chemscore.Internal.Correction>
   9.000000E+99

> <Gold.Chemscore.Hbonds>
donor molecule, donor type, donor heavy atom, donor atom, acceptor molecule, acceptor atom, score
      P1  H  7989  7998       L1    14  0.25
      P1  H  7997  8009       L1     5  0.94

> <Gold.Chemscore.Hbond.Weighted>
-6.4274

> <Gold.Chemscore.Metal.Weighted>
-0.0000

> <Gold.Chemscore.Lipo.Weighted>
-10.3316

> <Gold.Chemscore.Internal_Hbond.Weighted>
0.0000

> <Gold.Chemscore.DEClash.Weighted>
0.0396

> <Gold.Chemscore.DEInternal.Weighted>
2.7897

> <Gold.Chemscore.Rot.Weighted>
6.7237

> <Gold.Chemscore.Internal.Correction.Weighted>
   9.000000E+99

> <Gold.Protein.RotatedTorsions>
[ 6907 6896 6895 6894 ] final  -84.39 input  -60.11 | X-H torsion
[ 7974 7965 7964 7962 ] final  176.50 input  175.53 | X-H torsion
[ 8008 7997 7996 7995 ] final -178.48 input   59.86 | X-H torsion
[ 10167 10162 10161 10158 ] final   61.79 input  -65.29 | X-H torsion
[ 10718 10713 10712 10709 ] final -120.79 input   66.30 | X-H torsion
[ 10763 10752 10751 10750 ] final -130.93 input  -60.55 | X-H torsion
[ 11005 11000 10999 10996 ] final   48.68 input  -57.11 | X-H torsion

> <Gold.Protein.ActiveResidues>
 VAL166  LYS551  ARG553  GLY616  TRP617  ASP618  TYR619  PRO620  LYS621  CYS622 
 ASP623  PHE694  ASN695  SER759  ASP760  ASP761  ALA762  ILE779  LEU786  VAL792 
 PHE793  MET794  SER795  GLU796  ALA797  LYS798  CYS799  TRP800  GLU811  SER814 

> <Gold.Protein.RotatedAtoms>
  150.6877  134.3366  159.4849 H   0  0  0  0  0  0  0  0  0  0  0  0  # atno 6907 bound_to 6896
  152.1224  134.9193  160.0571 H   0  0  0  0  0  0  0  0  0  0  0  0  # atno 6908 bound_to 6896
  152.0394  133.3936  159.4367 H   0  0  0  0  0  0  0  0  0  0  0  0  # atno 6909 bound_to 6896
  144.7183  140.0106  143.6440 H   0  0  0  0  0  0  0  0  0  0  0  0  # atno 7974 bound_to 7965
  156.0194  140.1258  157.0373 H   0  0  0  0  0  0  0  0  0  0  0  0  # atno 8008 bound_to 7997
  154.4305  140.1072  156.6011 H   0  0  0  0  0  0  0  0  0  0  0  0  # atno 8009 bound_to 7997
  155.5967  140.3470  155.4584 H   0  0  0  0  0  0  0  0  0  0  0  0  # atno 8010 bound_to 7997
  140.1510  144.4463  150.6759 H   0  0  0  0  0  0  0  0  0  0  0  0  # atno 10167 bound_to 10162
  156.1286  130.6378  150.9584 H   0  0  0  0  0  0  0  0  0  0  0  0  # atno 10718 bound_to 10713
  154.8753  135.3846  154.4164 H   0  0  0  0  0  0  0  0  0  0  0  0  # atno 10763 bound_to 10752
  153.4872  135.7030  153.5909 H   0  0  0  0  0  0  0  0  0  0  0  0  # atno 10764 bound_to 10752
  153.4299  135.3881  155.2131 H   0  0  0  0  0  0  0  0  0  0  0  0  # atno 10765 bound_to 10752
  140.1170  134.4880  155.8629 H   0  0  0  0  0  0  0  0  0  0  0  0  # atno 11005 bound_to 11000
  146.0262  139.3294  143.0783 LP  0  0  0  0  0  0  0  0  0  0  0  0  # atno 17320 bound_to 7965
  145.8509  140.9529  143.0750 LP  0  0  0  0  0  0  0  0  0  0  0  0  # atno 17321 bound_to 7965
  140.6702  143.2283  151.5643 LP  0  0  0  0  0  0  0  0  0  0  0  0  # atno 17342 bound_to 10162
  139.5426  144.2607  152.1380 LP  0  0  0  0  0  0  0  0  0  0  0  0  # atno 17343 bound_to 10162
  157.6466  131.0903  150.8141 LP  0  0  0  0  0  0  0  0  0  0  0  0  # atno 17370 bound_to 10713
  156.8228  130.4990  149.5341 LP  0  0  0  0  0  0  0  0  0  0  0  0  # atno 17371 bound_to 10713
  141.2143  133.6747  156.6815 LP  0  0  0  0  0  0  0  0  0  0  0  0  # atno 17394 bound_to 11000
  140.3016  134.8159  157.4102 LP  0  0  0  0  0  0  0  0  0  0  0  0  # atno 17395 bound_to 11000

$$$$
