AV-unprocessed.smi:72|AV-procd|sdf|700|dock4
  -GOLD-   2262017 13D 1   1.00000     0.00000
 Structure written by MMmdl.
 30 31  0  0  0  0  0  0  0  0  2 V2000
  151.8800  144.1571  159.0918 N   0  0  0  0  0  0  0  0  0  0  0  0
  151.5332  142.9654  158.4901 C   0  0  0  0  0  0  0  0  0  0  0  0
  150.4736  142.9785  157.6010 N   0  3  0  0  0  0  0  0  0  0  0  0
  150.0139  141.9120  156.9322 C   0  0  0  0  0  0  0  0  0  0  0  0
  150.6017  140.7448  157.1065 N   0  0  0  0  0  0  0  0  0  0  0  0
  150.1392  139.4999  156.3849 C   0  0  1  0  0  0  0  0  0  0  0  0
  148.8813  139.7504  155.8359 O   0  0  0  0  0  0  0  0  0  0  0  0
  148.9974  139.9648  154.4332 C   0  0  2  0  0  0  0  0  0  0  0  0
  147.6480  139.7601  153.7240 C   0  0  0  0  0  0  0  0  0  0  0  0
  147.6066  140.5333  152.5437 O   0  0  0  0  0  0  0  0  0  0  0  0
  150.1107  138.9882  154.0399 C   0  0  2  0  0  0  0  0  0  0  0  0
  149.6107  137.6694  153.9132 O   0  0  0  0  0  0  0  0  0  0  0  0
  151.0723  139.0820  155.2185 C   0  0  1  0  0  0  0  0  0  0  0  0
  152.0892  140.0249  154.9227 O   0  0  0  0  0  0  0  0  0  0  0  0
  151.6900  140.6305  158.0098 C   0  0  0  0  0  0  0  0  0  0  0  0
  152.2412  139.5439  158.1826 O   0  0  0  0  0  0  0  0  0  0  0  0
  152.0966  141.8021  158.6644 N   0  0  0  0  0  0  0  0  0  0  0  0
  150.0307  138.7352  157.1562 H   0  0  0  0  0  0  0  0  0  0  0  0
  149.3628  140.9769  154.2502 H   0  0  0  0  0  0  0  0  0  0  0  0
  150.5766  139.2626  153.0921 H   0  0  0  0  0  0  0  0  0  0  0  0
  151.5437  138.1243  155.4442 H   0  0  0  0  0  0  0  0  0  0  0  0
  152.6383  144.2413  159.7541 H   0  0  0  0  0  0  0  0  0  0  0  0
  151.4120  145.0352  158.9190 H   0  0  0  0  0  0  0  0  0  0  0  0
  149.1686  142.0352  156.2690 H   0  0  0  0  0  0  0  0  0  0  0  0
  147.5305  138.7153  153.4350 H   0  0  0  0  0  0  0  0  0  0  0  0
  146.8107  140.0166  154.3738 H   0  0  0  0  0  0  0  0  0  0  0  0
  148.3524  140.3058  152.0092 H   0  0  0  0  0  0  0  0  0  0  0  0
  149.7701  137.3697  153.0311 H   0  0  0  0  0  0  0  0  0  0  0  0
  152.9198  139.6667  155.1980 H   0  0  0  0  0  0  0  0  0  0  0  0
  150.0110  143.8628  157.4466 H   0  0  0  0  0  0  0  0  0  0  0  0
  1  2  1  0  0  0  0
  1 22  1  0  0  0  0
  1 23  1  0  0  0  0
  2 17  2  0  0  0  0
  2  3  1  0  0  0  0
  3  4  2  0  0  0  0
  3 30  1  0  0  0  0
  4  5  1  0  0  0  0
  4 24  1  0  0  0  0
  5  6  1  0  0  0  0
  5 15  1  0  0  0  0
  6 18  1  0  0  0  0
  6 13  1  0  0  0  0
  6  7  1  0  0  0  0
  7  8  1  0  0  0  0
  8 19  1  0  0  0  0
  8  9  1  0  0  0  0
  8 11  1  0  0  0  0
  9 10  1  0  0  0  0
  9 25  1  0  0  0  0
  9 26  1  0  0  0  0
 10 27  1  0  0  0  0
 11 20  1  0  0  0  0
 11 12  1  0  0  0  0
 11 13  1  0  0  0  0
 12 28  1  0  0  0  0
 13 21  1  0  0  0  0
 13 14  1  0  0  0  0
 14 29  1  0  0  0  0
 15 16  2  0  0  0  0
 15 17  1  0  0  0  0
M  CHG  1   3   1
M  END
> <s_m_source_file>
AV-unprocessed.smi

> <i_m_source_file_index>
72

> <i_lp_mmshare_version>
43012

> <i_f3d_flags>
0

> <s_epik_input>
W05IMl1jMW5bY0hdbihjKD1PKW4xKVtDQEBIXTJPW0NASF0oW0NIMl1bT0hdKVtDQEBIXShbT0hdKVtDQEhdMltPSF0=

> <s_epik_cmdline>
J2VwaWtfcHl0aG9uJywgJy1waCcsICc3LjAnLCAnLXRuJywgJzgnLCAnLW1hJywgJzIwMCcsICctbWV0YWxfYmluZGluZycsICctaW1hZScsICc8aW5maWxlLm1hZT4nLCAnLW9tYWUnLCAnPG91dGZpbGUubWFlPic=

> <r_lp_tautomer_probability>
4.77166e-05

> <r_epik_Ionization_Penalty>
0.104979

> <r_epik_Ionization_Penalty_Charging>
0.0999619

> <r_epik_Ionization_Penalty_Neutral>
0.00501745

> <r_epik_State_Penalty>
2.51541

> <r_epik_Charging_Adjusted_Penalty>
2.61537

> <i_epik_Tot_Q>
1

> <i_epik_Tot_abs_Q>
1

> <r_epik_Metal_State_Penalty>
3.53763

> <b_epik_Metal_Only>
0

> <s_epik_Chemistry_Notes>
This compound contains an acetal/aminal-like group ( X-CH(R)-Y where X, Y are N, S, or O) that may be acid/base labile, releasing an aldehyde.

> <s_lp_Force_Field>
OPLS_2005

> <r_lp_Energy>
34.8878

> <b_lp_Chiralities_Consistent>
1

> <s_lp_Variant>
AV-unprocessed.smi:72-38

> <Gold.Version>
5.8.1

> <Gold.Id.Protein>
6NUR|6NUR_protein|mol2

> <Gold.PLP.Fitness>
37.8213

> <Gold.PLP.PLP>
-24.4694

> <Gold.PLP.part.hbond>
-3.5284

> <Gold.PLP.part.metal>
0.0000

> <Gold.PLP.part.buried>
-5.5710

> <Gold.PLP.part.nonpolar>
-16.3151

> <Gold.PLP.part.repulsive>
0.0753

> <Gold.PLP.ligand.clash>
0.0000

> <Gold.PLP.ligand.torsion>
0.7329

> <Gold.PLP.Chemscore.Hbond>
4.5993

> <Gold.PLP.Chemscore.CHOScore>
0.3021

> <Gold.PLP.Chemscore.Metal>
0.0000

> <Gold.Chemscore.Hbonds>
donor molecule, donor type, donor heavy atom, donor atom, acceptor molecule, acceptor atom, score
      L1  H     3    30       P1  8028  0.57
      L1  H    10    27       P1  7957  0.98
      L1  H    12    28       P1  7948  0.77
      P1  H  7989  7998       L1    14  0.78
      L1  C     4    24       P1  8028  0.24

> <Gold.PLP.Chemscore.Internal.Correction>
0.1136

> <Gold.Rescore>
     Score         DG    S(hbond)    S(metal)    S(lipo)     H(rot)  DE(clash)    DE(int)     intcor
      9.90     -10.72       3.82        0.00      25.10       4.08       0.01       0.81       ----

> <Gold.Chemscore.Fitness>
9.8983

> <Gold.Chemscore.DG>
-10.7192

> <Gold.Chemscore.ZeroCoef>
-5.4800

> <Gold.Chemscore.Hbond>
3.8154

> <Gold.Chemscore.Metal>
0.0000

> <Gold.Chemscore.Lipo>
25.0958

> <Gold.Chemscore.Internal_Hbond>
0.0000

> <Gold.Chemscore.DEClash>
0.0060

> <Gold.Chemscore.DEInternal>
0.8149

> <Gold.Chemscore.Rot>
4.0783

> <Gold.Chemscore.Internal.Correction>
   9.000000E+99

> <Gold.Chemscore.Hbonds>
donor molecule, donor type, donor heavy atom, donor atom, acceptor molecule, acceptor atom, score
      L1  H     3    30       P1  8028  0.23
      L1  H    10    27       P1  7957  0.91
      L1  H    12    28       P1  7948  0.34
      P1  H  7989  7998       L1    14  0.54

> <Gold.Chemscore.Hbond.Weighted>
-12.7434

> <Gold.Chemscore.Metal.Weighted>
-0.0000

> <Gold.Chemscore.Lipo.Weighted>
-2.9362

> <Gold.Chemscore.Internal_Hbond.Weighted>
0.0000

> <Gold.Chemscore.DEClash.Weighted>
0.0060

> <Gold.Chemscore.DEInternal.Weighted>
0.8149

> <Gold.Chemscore.Rot.Weighted>
10.4404

> <Gold.Chemscore.Internal.Correction.Weighted>
   9.000000E+99

> <Gold.Protein.RotatedTorsions>
[ 6907 6896 6895 6894 ] final  166.13 input  -60.11 | X-H torsion
[ 7974 7965 7964 7962 ] final  162.98 input  175.53 | X-H torsion
[ 8008 7997 7996 7995 ] final   62.39 input   59.86 | X-H torsion
[ 10167 10162 10161 10158 ] final  155.13 input  -65.29 | X-H torsion
[ 10718 10713 10712 10709 ] final   98.26 input   66.30 | X-H torsion
[ 10763 10752 10751 10750 ] final -162.67 input  -60.55 | X-H torsion
[ 11005 11000 10999 10996 ] final  104.85 input  -57.11 | X-H torsion

> <Gold.Protein.ActiveResidues>
 VAL166  LYS551  ARG553  GLY616  TRP617  ASP618  TYR619  PRO620  LYS621  CYS622 
 ASP623  PHE694  ASN695  SER759  ASP760  ASP761  ALA762  ILE779  LEU786  VAL792 
 PHE793  MET794  SER795  GLU796  ALA797  LYS798  CYS799  TRP800  GLU811  SER814 

> <Gold.Protein.RotatedAtoms>
  151.8836  133.3500  159.3774 H   0  0  0  0  0  0  0  0  0  0  0  0  # atno 6907 bound_to 6896
  150.7121  134.4993  159.5563 H   0  0  0  0  0  0  0  0  0  0  0  0  # atno 6908 bound_to 6896
  152.2550  134.8094  160.0491 H   0  0  0  0  0  0  0  0  0  0  0  0  # atno 6909 bound_to 6896
  144.7611  139.8117  143.6332 H   0  0  0  0  0  0  0  0  0  0  0  0  # atno 7974 bound_to 7965
  155.6136  140.3495  155.4630 H   0  0  0  0  0  0  0  0  0  0  0  0  # atno 8008 bound_to 7997
  156.0134  140.1238  157.0455 H   0  0  0  0  0  0  0  0  0  0  0  0  # atno 8009 bound_to 7997
  154.4289  140.1077  156.5848 H   0  0  0  0  0  0  0  0  0  0  0  0  # atno 8010 bound_to 7997
  139.4822  144.5125  151.8002 H   0  0  0  0  0  0  0  0  0  0  0  0  # atno 10167 bound_to 10162
  157.6898  131.0634  150.4769 H   0  0  0  0  0  0  0  0  0  0  0  0  # atno 10718 bound_to 10713
  154.7193  135.3022  154.9074 H   0  0  0  0  0  0  0  0  0  0  0  0  # atno 10763 bound_to 10752
  153.9951  135.6714  153.4760 H   0  0  0  0  0  0  0  0  0  0  0  0  # atno 10764 bound_to 10752
  153.0820  135.5004  154.8438 H   0  0  0  0  0  0  0  0  0  0  0  0  # atno 10765 bound_to 10752
  139.8796  134.9315  156.5424 H   0  0  0  0  0  0  0  0  0  0  0  0  # atno 11005 bound_to 11000
  146.1675  139.4812  142.9949 LP  0  0  0  0  0  0  0  0  0  0  0  0  # atno 17320 bound_to 7965
  145.6616  141.0239  143.1705 LP  0  0  0  0  0  0  0  0  0  0  0  0  # atno 17321 bound_to 7965
  140.4630  144.1695  150.5908 LP  0  0  0  0  0  0  0  0  0  0  0  0  # atno 17342 bound_to 10162
  140.4464  143.2505  151.9405 LP  0  0  0  0  0  0  0  0  0  0  0  0  # atno 17343 bound_to 10162
  156.5104  130.4138  149.6304 LP  0  0  0  0  0  0  0  0  0  0  0  0  # atno 17370 bound_to 10713
  156.3246  130.7299  151.2217 LP  0  0  0  0  0  0  0  0  0  0  0  0  # atno 17371 bound_to 10713
  140.8300  133.8286  155.8975 LP  0  0  0  0  0  0  0  0  0  0  0  0  # atno 17394 bound_to 11000
  140.9337  134.1989  157.4846 LP  0  0  0  0  0  0  0  0  0  0  0  0  # atno 17395 bound_to 11000

$$$$
