AV-unprocessed.smi:3067|AV-procd|sdf|11697|dock6
  -GOLD-   2272017103D 1   1.00000     0.00000
 Structure written by MMmdl.
 34 35  0  0  0  0  0  0  0  0  1 V2000
  147.3876  143.9873  159.8405 C   0  0  0  0  0  0  0  0  0  0  0  0
  148.4993  143.3121  159.2731 O   0  0  0  0  0  0  0  0  0  0  0  0
  149.6016  144.1567  158.9605 C   0  0  1  0  0  0  0  0  0  0  0  0
  150.2337  144.6801  160.2685 C   0  0  0  0  0  0  0  0  0  0  0  0
  151.5215  145.4726  160.0014 C   0  0  0  0  0  0  0  0  0  0  0  0
  152.5290  144.6325  159.2052 C   0  0  0  0  0  0  0  0  0  0  0  0
  151.9073  144.1257  157.8963 C   0  0  0  0  0  0  0  0  0  0  0  0
  150.6171  143.3170  158.1538 C   0  0  2  0  0  0  0  0  0  0  0  0
  150.0241  142.8835  156.8936 N   0  0  0  0  0  0  0  0  0  0  0  0
  150.3130  141.6389  156.3131 C   0  0  0  0  0  0  0  0  0  0  0  0
  149.6518  141.1302  155.1706 C   0  0  0  0  0  0  0  0  0  0  0  0
  150.0258  139.8689  154.6686 C   0  0  0  0  0  0  0  0  0  0  0  0
  151.0507  139.1553  155.3241 C   0  0  0  0  0  0  0  0  0  0  0  0
  151.4527  137.8531  154.8205 C   0  0  0  0  0  0  0  0  0  0  0  0
  151.7727  136.8157  154.4199 N   0  0  0  0  0  0  0  0  0  0  0  0
  151.6881  139.6317  156.4153 N   0  0  0  0  0  0  0  0  0  0  0  0
  151.3234  140.8414  156.8906 C   0  0  0  0  0  0  0  0  0  0  0  0
  146.5839  143.2732  160.0187 H   0  0  0  0  0  0  0  0  0  0  0  0
  147.0071  144.7557  159.1668 H   0  0  0  0  0  0  0  0  0  0  0  0
  147.6361  144.4502  160.7951 H   0  0  0  0  0  0  0  0  0  0  0  0
  149.2746  144.9985  158.3463 H   0  0  0  0  0  0  0  0  0  0  0  0
  149.5312  145.3143  160.8085 H   0  0  0  0  0  0  0  0  0  0  0  0
  150.4576  143.8391  160.9260 H   0  0  0  0  0  0  0  0  0  0  0  0
  151.2844  146.3828  159.4491 H   0  0  0  0  0  0  0  0  0  0  0  0
  151.9657  145.7894  160.9455 H   0  0  0  0  0  0  0  0  0  0  0  0
  153.4187  145.2247  158.9899 H   0  0  0  0  0  0  0  0  0  0  0  0
  152.8581  143.7846  159.8073 H   0  0  0  0  0  0  0  0  0  0  0  0
  151.6854  144.9763  157.2501 H   0  0  0  0  0  0  0  0  0  0  0  0
  152.6399  143.5213  157.3614 H   0  0  0  0  0  0  0  0  0  0  0  0
  150.8609  142.4383  158.7517 H   0  0  0  0  0  0  0  0  0  0  0  0
  149.3016  143.4601  156.4864 H   0  0  0  0  0  0  0  0  0  0  0  0
  148.8677  141.6801  154.6727 H   0  0  0  0  0  0  0  0  0  0  0  0
  149.5327  139.4627  153.7971 H   0  0  0  0  0  0  0  0  0  0  0  0
  151.8602  141.1840  157.7634 H   0  0  0  0  0  0  0  0  0  0  0  0
  1  2  1  0  0  0  0
  1 18  1  0  0  0  0
  1 19  1  0  0  0  0
  1 20  1  0  0  0  0
  2  3  1  0  0  0  0
  3  8  1  0  0  0  0
  3  4  1  0  0  0  0
  3 21  1  0  0  0  0
  4  5  1  0  0  0  0
  4 22  1  0  0  0  0
  4 23  1  0  0  0  0
  5  6  1  0  0  0  0
  5 24  1  0  0  0  0
  5 25  1  0  0  0  0
  6  7  1  0  0  0  0
  6 26  1  0  0  0  0
  6 27  1  0  0  0  0
  7  8  1  0  0  0  0
  7 28  1  0  0  0  0
  7 29  1  0  0  0  0
  8  9  1  0  0  0  0
  8 30  1  0  0  0  0
  9 10  1  0  0  0  0
  9 31  1  0  0  0  0
 10 17  1  0  0  0  0
 10 11  2  0  0  0  0
 11 12  1  0  0  0  0
 11 32  1  0  0  0  0
 12 13  2  0  0  0  0
 12 33  1  0  0  0  0
 13 14  1  0  0  0  0
 13 16  1  0  0  0  0
 14 15  3  0  0  0  0
 16 17  2  0  0  0  0
 17 34  1  0  0  0  0
M  END
> <s_m_source_file>
AV-unprocessed.smi

> <i_m_source_file_index>
3067

> <i_lp_mmshare_version>
43012

> <i_f3d_flags>
0

> <s_epik_input>
W0NIM11PW0NAQEhdMVtDSDJdW0NIMl1bQ0gyXVtDSDJdW0NASF0xW05IXWMyW2NIXVtjSF1jKEMjTiluW2NIXTI=

> <s_epik_cmdline>
J2VwaWtfcHl0aG9uJywgJy1waCcsICc3LjAnLCAnLXRuJywgJzgnLCAnLW1hJywgJzIwMCcsICctbWV0YWxfYmluZGluZycsICctaW1hZScsICc8aW5maWxlLm1hZT4nLCAnLW9tYWUnLCAnPG91dGZpbGUubWFlPic=

> <r_lp_tautomer_probability>
1

> <r_epik_Ionization_Penalty>
2.01011e-07

> <r_epik_Ionization_Penalty_Charging>
0

> <r_epik_Ionization_Penalty_Neutral>
2.01011e-07

> <r_epik_State_Penalty>
-0

> <r_epik_Charging_Adjusted_Penalty>
0

> <i_epik_Tot_Q>
0

> <i_epik_Tot_abs_Q>
0

> <r_epik_Metal_State_Penalty>
-0

> <b_epik_Metal_Only>
0

> <s_lp_Force_Field>
OPLS_2005

> <r_lp_Energy>
16.9027

> <b_lp_Chiralities_Consistent>
1

> <s_lp_Variant>
AV-unprocessed.smi:3067-4

> <Gold.Version>
5.8.1

> <Gold.Id.Protein>
6NUR|6NUR_protein|mol2

> <Gold.PLP.Fitness>
43.6976

> <Gold.PLP.PLP>
-38.5355

> <Gold.PLP.part.hbond>
-2.7155

> <Gold.PLP.part.metal>
0.0000

> <Gold.PLP.part.buried>
-3.6415

> <Gold.PLP.part.nonpolar>
-33.1946

> <Gold.PLP.part.repulsive>
0.3946

> <Gold.PLP.ligand.clash>
0.0000

> <Gold.PLP.ligand.torsion>
0.4089

> <Gold.PLP.Chemscore.Hbond>
1.9920

> <Gold.PLP.Chemscore.CHOScore>
0.0000

> <Gold.PLP.Chemscore.Metal>
0.0000

> <Gold.Chemscore.Hbonds>
donor molecule, donor type, donor heavy atom, donor atom, acceptor molecule, acceptor atom, score
      L1  H     9    31       P1  8028  0.99
      P1  H  6933  6944       L1     2  0.01
      P1  H 10752 10763       L1    15  1.00

> <Gold.PLP.Chemscore.Internal.Correction>
0.0039

> <Gold.Rescore>
     Score         DG    S(hbond)    S(metal)    S(lipo)     H(rot)  DE(clash)    DE(int)     intcor
     20.38     -20.74       1.98        0.00     100.15       1.20       0.04       0.32       ----

> <Gold.Chemscore.Fitness>
20.3780

> <Gold.Chemscore.DG>
-20.7381

> <Gold.Chemscore.ZeroCoef>
-5.4800

> <Gold.Chemscore.Hbond>
1.9808

> <Gold.Chemscore.Metal>
0.0000

> <Gold.Chemscore.Lipo>
100.1473

> <Gold.Chemscore.Internal_Hbond>
0.0000

> <Gold.Chemscore.DEClash>
0.0392

> <Gold.Chemscore.DEInternal>
0.3209

> <Gold.Chemscore.Rot>
1.2012

> <Gold.Chemscore.Internal.Correction>
   9.000000E+99

> <Gold.Chemscore.Hbonds>
donor molecule, donor type, donor heavy atom, donor atom, acceptor molecule, acceptor atom, score
      L1  H     9    31       P1  8028  0.91
      P1  H 10752 10763       L1    15  0.99

> <Gold.Chemscore.Hbond.Weighted>
-6.6159

> <Gold.Chemscore.Metal.Weighted>
-0.0000

> <Gold.Chemscore.Lipo.Weighted>
-11.7172

> <Gold.Chemscore.Internal_Hbond.Weighted>
0.0000

> <Gold.Chemscore.DEClash.Weighted>
0.0392

> <Gold.Chemscore.DEInternal.Weighted>
0.3209

> <Gold.Chemscore.Rot.Weighted>
3.0750

> <Gold.Chemscore.Internal.Correction.Weighted>
   9.000000E+99

> <Gold.Protein.RotatedTorsions>
[ 6907 6896 6895 6894 ] final   55.56 input  -60.11 | X-H torsion
[ 7974 7965 7964 7962 ] final  100.06 input  175.53 | X-H torsion
[ 8008 7997 7996 7995 ] final  -18.33 input   59.86 | X-H torsion
[ 10167 10162 10161 10158 ] final   97.64 input  -65.29 | X-H torsion
[ 10718 10713 10712 10709 ] final   -2.54 input   66.30 | X-H torsion
[ 10763 10752 10751 10750 ] final   37.40 input  -60.55 | X-H torsion
[ 11005 11000 10999 10996 ] final   97.82 input  -57.11 | X-H torsion

> <Gold.Protein.ActiveResidues>
 VAL166  LYS551  ARG553  GLY616  TRP617  ASP618  TYR619  PRO620  LYS621  CYS622 
 ASP623  PHE694  ASN695  SER759  ASP760  ASP761  ALA762  ILE779  LEU786  VAL792 
 PHE793  MET794  SER795  GLU796  ALA797  LYS798  CYS799  TRP800  GLU811  SER814 

> <Gold.Protein.RotatedAtoms>
  152.3550  134.6952  160.0224 H   0  0  0  0  0  0  0  0  0  0  0  0  # atno 6907 bound_to 6896
  151.7294  133.3312  159.3344 H   0  0  0  0  0  0  0  0  0  0  0  0  # atno 6908 bound_to 6896
  150.7565  134.6311  159.6231 H   0  0  0  0  0  0  0  0  0  0  0  0  # atno 6909 bound_to 6896
  145.3905  139.2364  143.3354 H   0  0  0  0  0  0  0  0  0  0  0  0  # atno 7974 bound_to 7965
  154.4914  140.2119  155.9540 H   0  0  0  0  0  0  0  0  0  0  0  0  # atno 8008 bound_to 7997
  156.1310  140.3197  155.8318 H   0  0  0  0  0  0  0  0  0  0  0  0  # atno 8009 bound_to 7997
  155.4296  140.0502  157.3010 H   0  0  0  0  0  0  0  0  0  0  0  0  # atno 8010 bound_to 7997
  139.7782  144.6898  151.0060 H   0  0  0  0  0  0  0  0  0  0  0  0  # atno 10167 bound_to 10162
  156.7893  130.5356  149.5738 H   0  0  0  0  0  0  0  0  0  0  0  0  # atno 10718 bound_to 10713
  153.0039  135.6279  154.2138 H   0  0  0  0  0  0  0  0  0  0  0  0  # atno 10763 bound_to 10752
  154.1882  135.2810  155.3032 H   0  0  0  0  0  0  0  0  0  0  0  0  # atno 10764 bound_to 10752
  154.5781  135.5656  153.7218 H   0  0  0  0  0  0  0  0  0  0  0  0  # atno 10765 bound_to 10752
  139.8774  134.9019  156.4365 H   0  0  0  0  0  0  0  0  0  0  0  0  # atno 11005 bound_to 11000
  146.2800  140.4587  142.8780 LP  0  0  0  0  0  0  0  0  0  0  0  0  # atno 17320 bound_to 7965
  144.8443  140.6905  143.6209 LP  0  0  0  0  0  0  0  0  0  0  0  0  # atno 17321 bound_to 7965
  140.7817  143.4512  151.0409 LP  0  0  0  0  0  0  0  0  0  0  0  0  # atno 17342 bound_to 10162
  139.8194  143.7841  152.3176 LP  0  0  0  0  0  0  0  0  0  0  0  0  # atno 17343 bound_to 10162
  156.1169  130.6081  151.0134 LP  0  0  0  0  0  0  0  0  0  0  0  0  # atno 17370 bound_to 10713
  157.6608  131.0881  150.7842 LP  0  0  0  0  0  0  0  0  0  0  0  0  # atno 17371 bound_to 10713
  140.9030  133.7766  155.9702 LP  0  0  0  0  0  0  0  0  0  0  0  0  # atno 17394 bound_to 11000
  140.8630  134.2818  157.5226 LP  0  0  0  0  0  0  0  0  0  0  0  0  # atno 17395 bound_to 11000

$$$$
