AV-unprocessed.smi:735|AV-procd|sdf|3533|dock1
  -GOLD-   22720 0523D 1   1.00000     0.00000
 Structure written by MMmdl.
 17 17  0  0  0  0  0  0  0  0  2 V2000
  152.0222  137.4259  154.5504 O   0  0  0  0  0  0  0  0  0  0  0  0
  152.1546  138.6142  154.9193 C   0  0  0  0  0  0  0  0  0  0  0  0
  153.2283  139.2572  154.8797 O   0  5  0  0  0  0  0  0  0  0  0  0
  150.8992  139.3168  155.4658 C   0  0  0  0  0  0  0  0  0  0  0  0
  150.4410  138.5797  156.4807 F   0  0  0  0  0  0  0  0  0  0  0  0
  151.2784  140.4875  155.9835 F   0  0  0  0  0  0  0  0  0  0  0  0
  149.7938  139.4823  154.4124 C   0  0  0  0  0  0  0  0  0  0  0  0
  149.2769  138.4030  153.7646 C   0  0  0  0  0  0  0  0  0  0  0  0
  148.2622  138.4908  152.8353 N   0  0  0  0  0  0  0  0  0  0  0  0
  147.6911  139.7192  152.5098 C   0  0  0  0  0  0  0  0  0  0  0  0
  146.7849  139.8130  151.6856 O   0  0  0  0  0  0  0  0  0  0  0  0
  148.2022  140.8349  153.1694 N   0  0  0  0  0  0  0  0  0  0  0  0
  149.2331  140.8155  154.1178 C   0  0  0  0  0  0  0  0  0  0  0  0
  149.5976  141.8815  154.6112 O   0  0  0  0  0  0  0  0  0  0  0  0
  147.9120  137.6644  152.3726 H   0  0  0  0  0  0  0  0  0  0  0  0
  147.8018  141.7329  152.9410 H   0  0  0  0  0  0  0  0  0  0  0  0
  149.6685  137.4178  153.9724 H   0  0  0  0  0  0  0  0  0  0  0  0
  1  2  2  0  0  0  0
  2  3  1  0  0  0  0
  2  4  1  0  0  0  0
  4  5  1  0  0  0  0
  4  6  1  0  0  0  0
  4  7  1  0  0  0  0
  7 13  1  0  0  0  0
  7  8  2  0  0  0  0
  8  9  1  0  0  0  0
  8 17  1  0  0  0  0
  9 15  1  0  0  0  0
  9 10  1  0  0  0  0
 10 11  2  0  0  0  0
 10 12  1  0  0  0  0
 12 16  1  0  0  0  0
 12 13  1  0  0  0  0
 13 14  2  0  0  0  0
M  CHG  1   3  -1
M  END
> <s_m_source_file>
AV-unprocessed.smi

> <i_m_source_file_index>
735

> <i_lp_mmshare_version>
43012

> <i_f3d_flags>
0

> <s_epik_input>
Tz1DKFtPSF0pQyhGKShGKWMxW2NIXVtuSF1jKD1PKVtuSF1jMT1P

> <s_epik_cmdline>
J2VwaWtfcHl0aG9uJywgJy1waCcsICc3LjAnLCAnLXRuJywgJzgnLCAnLW1hJywgJzIwMCcsICctbWV0YWxfYmluZGluZycsICctaW1hZScsICc8aW5maWxlLm1hZT4nLCAnLW9tYWUnLCAnPG91dGZpbGUubWFlPic=

> <r_lp_tautomer_probability>
0.999514

> <r_epik_Ionization_Penalty>
0.138461

> <r_epik_Ionization_Penalty_Charging>
0.138461

> <r_epik_Ionization_Penalty_Neutral>
0

> <r_epik_State_Penalty>
0.812948

> <r_epik_Charging_Adjusted_Penalty>
0.951409

> <i_epik_Tot_Q>
-1

> <i_epik_Tot_abs_Q>
1

> <r_epik_Metal_State_Penalty>
4.31017

> <b_epik_Metal_Only>
0

> <s_lp_Force_Field>
OPLS_2005

> <r_lp_Energy>
7.04955

> <b_lp_Chiralities_Consistent>
1

> <s_lp_Variant>
AV-unprocessed.smi:735-2

> <Gold.Version>
5.8.1

> <Gold.Id.Protein>
6NUR|6NUR_protein|mol2

> <Gold.PLP.Fitness>
34.9166

> <Gold.PLP.PLP>
-21.5031

> <Gold.PLP.part.hbond>
-7.0830

> <Gold.PLP.part.metal>
0.0000

> <Gold.PLP.part.buried>
3.0052

> <Gold.PLP.part.nonpolar>
-20.2326

> <Gold.PLP.part.repulsive>
2.2557

> <Gold.PLP.ligand.clash>
0.0000

> <Gold.PLP.ligand.torsion>
0.1321

> <Gold.PLP.Chemscore.Hbond>
4.1120

> <Gold.PLP.Chemscore.CHOScore>
0.4310

> <Gold.PLP.Chemscore.Metal>
0.0000

> <Gold.Chemscore.Hbonds>
donor molecule, donor type, donor heavy atom, donor atom, acceptor molecule, acceptor atom, score
      L1  H     9    15       P1  7948  0.48
      P1  H  7997  8008       L1     3  2.00
      P1  H 10752 10765       L1     1  1.57
      L1  C     8    17       P1  7948  0.40

> <Gold.PLP.Chemscore.Internal.Correction>
0.0489

> <Gold.Rescore>
     Score         DG    S(hbond)    S(metal)    S(lipo)     H(rot)  DE(clash)    DE(int)     intcor
      5.24     -10.30       2.14        0.00      19.82       1.82       2.07       2.99       ----

> <Gold.Chemscore.Fitness>
5.2428

> <Gold.Chemscore.DG>
-10.2975

> <Gold.Chemscore.ZeroCoef>
-5.4800

> <Gold.Chemscore.Hbond>
2.1420

> <Gold.Chemscore.Metal>
0.0000

> <Gold.Chemscore.Lipo>
19.8225

> <Gold.Chemscore.Internal_Hbond>
0.0000

> <Gold.Chemscore.DEClash>
2.0669

> <Gold.Chemscore.DEInternal>
2.9877

> <Gold.Chemscore.Rot>
1.8187

> <Gold.Chemscore.Internal.Correction>
   9.000000E+99

> <Gold.Chemscore.Hbonds>
donor molecule, donor type, donor heavy atom, donor atom, acceptor molecule, acceptor atom, score
      L1  H     9    15       P1  7948  0.48
      P1  H  7997  8008       L1     3  1.00
      P1  H 10752 10765       L1     1  0.74

> <Gold.Chemscore.Hbond.Weighted>
-7.1542

> <Gold.Chemscore.Metal.Weighted>
-0.0000

> <Gold.Chemscore.Lipo.Weighted>
-2.3192

> <Gold.Chemscore.Internal_Hbond.Weighted>
0.0000

> <Gold.Chemscore.DEClash.Weighted>
2.0669

> <Gold.Chemscore.DEInternal.Weighted>
2.9877

> <Gold.Chemscore.Rot.Weighted>
4.6559

> <Gold.Chemscore.Internal.Correction.Weighted>
   9.000000E+99

> <Gold.Protein.RotatedTorsions>
[ 6907 6896 6895 6894 ] final -150.46 input  -60.11 | X-H torsion
[ 7974 7965 7964 7962 ] final  101.78 input  175.53 | X-H torsion
[ 8008 7997 7996 7995 ] final  -10.61 input   59.86 | X-H torsion
[ 10167 10162 10161 10158 ] final  167.89 input  -65.29 | X-H torsion
[ 10718 10713 10712 10709 ] final  -90.89 input   66.30 | X-H torsion
[ 10763 10752 10751 10750 ] final  148.78 input  -60.55 | X-H torsion
[ 11005 11000 10999 10996 ] final  115.99 input  -57.11 | X-H torsion

> <Gold.Protein.ActiveResidues>
 VAL166  LYS551  ARG553  GLY616  TRP617  ASP618  TYR619  PRO620  LYS621  CYS622 
 ASP623  PHE694  ASN695  SER759  ASP760  ASP761  ALA762  ILE779  LEU786  VAL792 
 PHE793  MET794  SER795  GLU796  ALA797  LYS798  CYS799  TRP800  GLU811  SER814 

> <Gold.Protein.RotatedAtoms>
  151.1989  133.4623  159.2595 H   0  0  0  0  0  0  0  0  0  0  0  0  # atno 6907 bound_to 6896
  151.1089  135.0015  159.8495 H   0  0  0  0  0  0  0  0  0  0  0  0  # atno 6908 bound_to 6896
  152.5449  134.1909  159.8726 H   0  0  0  0  0  0  0  0  0  0  0  0  # atno 6909 bound_to 6896
  145.3678  139.2404  143.3471 H   0  0  0  0  0  0  0  0  0  0  0  0  # atno 7974 bound_to 7965
  154.5539  140.2324  155.8441 H   0  0  0  0  0  0  0  0  0  0  0  0  # atno 8008 bound_to 7997
  156.1971  140.3062  155.9410 H   0  0  0  0  0  0  0  0  0  0  0  0  # atno 8009 bound_to 7997
  155.3018  140.0431  157.3020 H   0  0  0  0  0  0  0  0  0  0  0  0  # atno 8010 bound_to 7997
  139.4955  144.3873  151.9557 H   0  0  0  0  0  0  0  0  0  0  0  0  # atno 10167 bound_to 10162
  155.9990  130.4927  150.5392 H   0  0  0  0  0  0  0  0  0  0  0  0  # atno 10718 bound_to 10713
  154.0604  135.2874  155.3326 H   0  0  0  0  0  0  0  0  0  0  0  0  # atno 10763 bound_to 10752
  154.6812  135.5263  153.8268 H   0  0  0  0  0  0  0  0  0  0  0  0  # atno 10764 bound_to 10752
  153.0525  135.6582  154.0793 H   0  0  0  0  0  0  0  0  0  0  0  0  # atno 10765 bound_to 10752
  139.9027  134.9592  156.7129 H   0  0  0  0  0  0  0  0  0  0  0  0  # atno 11005 bound_to 11000
  146.2899  140.4324  142.8743 LP  0  0  0  0  0  0  0  0  0  0  0  0  # atno 17320 bound_to 7965
  144.8598  140.7123  143.6114 LP  0  0  0  0  0  0  0  0  0  0  0  0  # atno 17321 bound_to 7965
  140.3310  144.3317  150.5987 LP  0  0  0  0  0  0  0  0  0  0  0  0  # atno 17342 bound_to 10162
  140.5645  143.2188  151.7707 LP  0  0  0  0  0  0  0  0  0  0  0  0  # atno 17343 bound_to 10162
  157.3331  131.0703  151.1846 LP  0  0  0  0  0  0  0  0  0  0  0  0  # atno 17370 bound_to 10713
  157.2720  130.6709  149.6024 LP  0  0  0  0  0  0  0  0  0  0  0  0  # atno 17371 bound_to 10713
  140.7061  133.9264  155.8055 LP  0  0  0  0  0  0  0  0  0  0  0  0  # atno 17394 bound_to 11000
  141.0335  134.0722  157.3986 LP  0  0  0  0  0  0  0  0  0  0  0  0  # atno 17395 bound_to 11000

$$$$
