AV-unprocessed.smi:339|AV-procd|sdf|2379|dock4
  -GOLD-   2262022303D 1   1.00000     0.00000
 Structure written by MMmdl.
 45 46  0  0  0  0  0  0  0  0  1 V2000
  151.5552  142.6010  157.4731 C   0  0  0  0  0  0  0  0  0  0  0  0
  151.7053  143.3685  158.7734 C   0  0  0  0  0  0  0  0  0  0  0  0
  151.4968  144.7631  158.7846 C   0  0  0  0  0  0  0  0  0  0  0  0
  151.6410  145.4919  159.9797 C   0  0  0  0  0  0  0  0  0  0  0  0
  152.0020  144.8306  161.1681 C   0  0  0  0  0  0  0  0  0  0  0  0
  152.2136  143.4364  161.1687 C   0  0  0  0  0  0  0  0  0  0  0  0
  152.6150  142.7407  162.4564 C   0  0  0  0  0  0  0  0  0  0  0  0
  152.0500  142.6997  159.9717 C   0  0  0  0  0  0  0  0  0  0  0  0
  152.2481  141.3433  159.9697 O   0  0  0  0  0  0  0  0  0  0  0  0
  153.5904  140.9661  160.2390 C   0  0  0  0  0  0  0  0  0  0  0  0
  153.7295  139.4469  160.0538 C   0  0  1  0  0  0  0  0  0  0  0  0
  153.7449  139.1970  158.6616 O   0  0  0  0  0  0  0  0  0  0  0  0
  155.0532  138.9151  160.6471 C   0  0  0  0  0  0  0  0  0  0  0  0
  154.9080  137.5593  161.1904 N   0  0  0  0  0  0  0  0  0  0  0  0
  154.4445  137.5242  162.4903 N   0  0  0  0  0  0  0  0  0  0  0  0
  154.2768  136.4053  163.1152 C   0  0  0  0  0  0  0  0  0  0  0  0
  153.7666  136.4914  164.5283 C   0  0  0  0  0  0  0  0  0  0  0  0
  154.5808  135.1474  162.4402 C   0  0  0  0  0  0  0  0  0  0  0  0
  154.3646  133.8600  163.2239 C   0  0  0  0  0  0  0  0  0  0  0  0
  155.0264  135.1952  161.1597 C   0  0  0  0  0  0  0  0  0  0  0  0
  155.3369  134.0174  160.4157 C   0  0  0  0  0  0  0  0  0  0  0  0
  155.5766  133.0511  159.8250 N   0  0  0  0  0  0  0  0  0  0  0  0
  155.2216  136.4598  160.4472 C   0  0  0  0  0  0  0  0  0  0  0  0
  155.6334  136.5383  159.2887 O   0  0  0  0  0  0  0  0  0  0  0  0
  151.6561  143.2631  156.6128 H   0  0  0  0  0  0  0  0  0  0  0  0
  150.5750  142.1271  157.4249 H   0  0  0  0  0  0  0  0  0  0  0  0
  152.3177  141.8264  157.3881 H   0  0  0  0  0  0  0  0  0  0  0  0
  151.2262  145.2798  157.8753 H   0  0  0  0  0  0  0  0  0  0  0  0
  151.4798  146.5598  159.9837 H   0  0  0  0  0  0  0  0  0  0  0  0
  152.1180  145.3986  162.0793 H   0  0  0  0  0  0  0  0  0  0  0  0
  153.3802  141.9869  162.2678 H   0  0  0  0  0  0  0  0  0  0  0  0
  151.7523  142.2501  162.9069 H   0  0  0  0  0  0  0  0  0  0  0  0
  153.0180  143.4517  163.1780 H   0  0  0  0  0  0  0  0  0  0  0  0
  154.3046  141.5069  159.6151 H   0  0  0  0  0  0  0  0  0  0  0  0
  153.8094  141.2337  161.2733 H   0  0  0  0  0  0  0  0  0  0  0  0
  152.8760  138.9462  160.5128 H   0  0  0  0  0  0  0  0  0  0  0  0
  153.2682  138.3985  158.4944 H   0  0  0  0  0  0  0  0  0  0  0  0
  155.8510  138.9553  159.9026 H   0  0  0  0  0  0  0  0  0  0  0  0
  155.3919  139.5727  161.4499 H   0  0  0  0  0  0  0  0  0  0  0  0
  152.8835  135.8662  164.6610 H   0  0  0  0  0  0  0  0  0  0  0  0
  153.4896  137.5113  164.7992 H   0  0  0  0  0  0  0  0  0  0  0  0
  154.5277  136.1575  165.2339 H   0  0  0  0  0  0  0  0  0  0  0  0
  154.7629  132.9900  162.7030 H   0  0  0  0  0  0  0  0  0  0  0  0
  153.3000  133.6905  163.3872 H   0  0  0  0  0  0  0  0  0  0  0  0
  154.8591  133.9075  164.1947 H   0  0  0  0  0  0  0  0  0  0  0  0
  1  2  1  0  0  0  0
  1 25  1  0  0  0  0
  1 26  1  0  0  0  0
  1 27  1  0  0  0  0
  2  8  1  0  0  0  0
  2  3  2  0  0  0  0
  3  4  1  0  0  0  0
  3 28  1  0  0  0  0
  4  5  2  0  0  0  0
  4 29  1  0  0  0  0
  5  6  1  0  0  0  0
  5 30  1  0  0  0  0
  6  7  1  0  0  0  0
  6  8  2  0  0  0  0
  7 31  1  0  0  0  0
  7 32  1  0  0  0  0
  7 33  1  0  0  0  0
  8  9  1  0  0  0  0
  9 10  1  0  0  0  0
 10 11  1  0  0  0  0
 10 34  1  0  0  0  0
 10 35  1  0  0  0  0
 11 12  1  0  0  0  0
 11 13  1  0  0  0  0
 11 36  1  0  0  0  0
 12 37  1  0  0  0  0
 13 14  1  0  0  0  0
 13 38  1  0  0  0  0
 13 39  1  0  0  0  0
 14 23  1  0  0  0  0
 14 15  1  0  0  0  0
 15 16  2  0  0  0  0
 16 17  1  0  0  0  0
 16 18  1  0  0  0  0
 17 40  1  0  0  0  0
 17 41  1  0  0  0  0
 17 42  1  0  0  0  0
 18 19  1  0  0  0  0
 18 20  2  0  0  0  0
 19 43  1  0  0  0  0
 19 44  1  0  0  0  0
 19 45  1  0  0  0  0
 20 21  1  0  0  0  0
 20 23  1  0  0  0  0
 21 22  3  0  0  0  0
 23 24  2  0  0  0  0
M  END
> <s_m_source_file>
AV-unprocessed.smi

> <i_m_source_file_index>
339

> <i_lp_mmshare_version>
43012

> <i_f3d_flags>
0

> <s_epik_input>
W0NIM11jMVtjSF1bY0hdW2NIXWMoW0NIM10pYzFPW0NIMl1bQ0BIXShbT0hdKVtDSDJdbjJuYyhbQ0gzXSljKFtDSDNdKWMoQyNOKWMyPU8=

> <s_epik_cmdline>
J2VwaWtfcHl0aG9uJywgJy1waCcsICc3LjAnLCAnLXRuJywgJzgnLCAnLW1hJywgJzIwMCcsICctbWV0YWxfYmluZGluZycsICctaW1hZScsICc8aW5maWxlLm1hZT4nLCAnLW9tYWUnLCAnPG91dGZpbGUubWFlPic=

> <r_lp_tautomer_probability>
1

> <r_epik_Ionization_Penalty>
1.17331e-07

> <r_epik_Ionization_Penalty_Charging>
1.57223e-10

> <r_epik_Ionization_Penalty_Neutral>
1.17174e-07

> <r_epik_State_Penalty>
-0

> <r_epik_Charging_Adjusted_Penalty>
1.57223e-10

> <i_epik_Tot_Q>
0

> <i_epik_Tot_abs_Q>
0

> <r_epik_Metal_State_Penalty>
-0

> <b_epik_Metal_Only>
0

> <s_lp_Force_Field>
OPLS_2005

> <r_lp_Energy>
35.8185

> <b_lp_Chiralities_Consistent>
1

> <s_lp_Variant>
AV-unprocessed.smi:339-2

> <Gold.Version>
5.8.1

> <Gold.Id.Protein>
6NUR|6NUR_protein|mol2

> <Gold.PLP.Fitness>
51.2009

> <Gold.PLP.PLP>
-50.0411

> <Gold.PLP.part.hbond>
-1.0000

> <Gold.PLP.part.metal>
0.0000

> <Gold.PLP.part.buried>
-6.0456

> <Gold.PLP.part.nonpolar>
-42.6100

> <Gold.PLP.part.repulsive>
0.0000

> <Gold.PLP.ligand.clash>
0.0000

> <Gold.PLP.ligand.torsion>
0.9638

> <Gold.PLP.Chemscore.Hbond>
1.0000

> <Gold.PLP.Chemscore.CHOScore>
0.0000

> <Gold.PLP.Chemscore.Metal>
0.0000

> <Gold.Chemscore.Hbonds>
donor molecule, donor type, donor heavy atom, donor atom, acceptor molecule, acceptor atom, score
      P1  H  7997  8008       L1    12  1.00

> <Gold.PLP.Chemscore.Internal.Correction>
0.0874

> <Gold.Rescore>
     Score         DG    S(hbond)    S(metal)    S(lipo)     H(rot)  DE(clash)    DE(int)     intcor
     18.75     -20.50       1.00        0.00     150.05       2.29       0.60       1.14       ----

> <Gold.Chemscore.Fitness>
18.7546

> <Gold.Chemscore.DG>
-20.5012

> <Gold.Chemscore.ZeroCoef>
-5.4800

> <Gold.Chemscore.Hbond>
0.9966

> <Gold.Chemscore.Metal>
0.0000

> <Gold.Chemscore.Lipo>
150.0511

> <Gold.Chemscore.Internal_Hbond>
0.0000

> <Gold.Chemscore.DEClash>
0.6024

> <Gold.Chemscore.DEInternal>
1.1442

> <Gold.Chemscore.Rot>
2.2905

> <Gold.Chemscore.Internal.Correction>
   9.000000E+99

> <Gold.Chemscore.Hbonds>
donor molecule, donor type, donor heavy atom, donor atom, acceptor molecule, acceptor atom, score
      P1  H  7997  8008       L1    12  0.95

> <Gold.Chemscore.Hbond.Weighted>
-3.3288

> <Gold.Chemscore.Metal.Weighted>
-0.0000

> <Gold.Chemscore.Lipo.Weighted>
-17.5560

> <Gold.Chemscore.Internal_Hbond.Weighted>
0.0000

> <Gold.Chemscore.DEClash.Weighted>
0.6024

> <Gold.Chemscore.DEInternal.Weighted>
1.1442

> <Gold.Chemscore.Rot.Weighted>
5.8636

> <Gold.Chemscore.Internal.Correction.Weighted>
   9.000000E+99

> <Gold.Protein.RotatedTorsions>
[ 6907 6896 6895 6894 ] final -148.03 input  -60.11 | X-H torsion
[ 7974 7965 7964 7962 ] final -154.09 input  175.53 | X-H torsion
[ 8008 7997 7996 7995 ] final -104.76 input   59.86 | X-H torsion
[ 10167 10162 10161 10158 ] final   95.61 input  -65.29 | X-H torsion
[ 10718 10713 10712 10709 ] final -118.16 input   66.30 | X-H torsion
[ 10763 10752 10751 10750 ] final  178.73 input  -60.55 | X-H torsion
[ 11005 11000 10999 10996 ] final   66.15 input  -57.11 | X-H torsion

> <Gold.Protein.ActiveResidues>
 VAL166  LYS551  ARG553  GLY616  TRP617  ASP618  TYR619  PRO620  LYS621  CYS622 
 ASP623  PHE694  ASN695  SER759  ASP760  ASP761  ALA762  ILE779  LEU786  VAL792 
 PHE793  MET794  SER795  GLU796  ALA797  LYS798  CYS799  TRP800  GLU811  SER814 

> <Gold.Protein.RotatedAtoms>
  151.1641  133.4826  159.2593 H   0  0  0  0  0  0  0  0  0  0  0  0  # atno 6907 bound_to 6896
  151.1424  135.0186  159.8641 H   0  0  0  0  0  0  0  0  0  0  0  0  # atno 6908 bound_to 6896
  152.5462  134.1533  159.8580 H   0  0  0  0  0  0  0  0  0  0  0  0  # atno 6909 bound_to 6896
  144.7707  140.4436  143.5909 H   0  0  0  0  0  0  0  0  0  0  0  0  # atno 7974 bound_to 7965
  154.8900  140.0416  157.1833 H   0  0  0  0  0  0  0  0  0  0  0  0  # atno 8008 bound_to 7997
  154.8550  140.2935  155.5553 H   0  0  0  0  0  0  0  0  0  0  0  0  # atno 8009 bound_to 7997
  156.2997  140.2457  156.3515 H   0  0  0  0  0  0  0  0  0  0  0  0  # atno 8010 bound_to 7997
  139.7972  144.6828  150.9813 H   0  0  0  0  0  0  0  0  0  0  0  0  # atno 10167 bound_to 10162
  156.1086  130.6231  150.9256 H   0  0  0  0  0  0  0  0  0  0  0  0  # atno 10718 bound_to 10713
  154.5115  135.2789  155.1339 H   0  0  0  0  0  0  0  0  0  0  0  0  # atno 10763 bound_to 10752
  154.2932  135.6262  153.5397 H   0  0  0  0  0  0  0  0  0  0  0  0  # atno 10764 bound_to 10752
  152.9919  135.5679  154.5581 H   0  0  0  0  0  0  0  0  0  0  0  0  # atno 10765 bound_to 10752
  139.9850  134.6683  156.0193 H   0  0  0  0  0  0  0  0  0  0  0  0  # atno 11005 bound_to 11000
  145.6332  139.1539  143.2957 LP  0  0  0  0  0  0  0  0  0  0  0  0  # atno 17320 bound_to 7965
  146.1851  140.6434  142.9171 LP  0  0  0  0  0  0  0  0  0  0  0  0  # atno 17321 bound_to 7965
  140.7820  143.4319  151.0681 LP  0  0  0  0  0  0  0  0  0  0  0  0  # atno 17342 bound_to 10162
  139.7993  143.8107  152.3161 LP  0  0  0  0  0  0  0  0  0  0  0  0  # atno 17343 bound_to 10162
  157.6266  131.0925  150.8523 LP  0  0  0  0  0  0  0  0  0  0  0  0  # atno 17370 bound_to 10713
  156.8637  130.5122  149.5302 LP  0  0  0  0  0  0  0  0  0  0  0  0  # atno 17371 bound_to 10713
  141.1516  133.6548  156.4032 LP  0  0  0  0  0  0  0  0  0  0  0  0  # atno 17394 bound_to 11000
  140.5021  134.6476  157.5252 LP  0  0  0  0  0  0  0  0  0  0  0  0  # atno 17395 bound_to 11000

$$$$
