AV-unprocessed.smi:1560|AV-procd|sdf|6278|dock9
  -GOLD-   22720 6473D 1   1.00000     0.00000
 Structure written by MMmdl.
 48 49  0  0  0  0  0  0  0  0  2 V2000
  147.2403  141.3738  155.1120 C   0  0  0  0  0  0  0  0  0  0  0  0
  148.6800  140.8846  155.3497 C   0  0  0  0  0  0  0  0  0  0  0  0
  148.8237  139.3821  155.7426 C   0  0  2  0  0  0  0  0  0  0  0  0
  148.0725  138.5477  154.6713 C   0  0  0  0  0  0  0  0  0  0  0  0
  148.1508  139.1489  157.1280 C   0  0  0  0  0  0  0  0  0  0  0  0
  148.5317  137.8781  157.7376 N   0  0  0  0  0  0  0  0  0  0  0  0
  147.9591  137.3591  158.8329 C   0  0  0  0  0  0  0  0  0  0  0  0
  147.0406  137.9157  159.4363 O   0  0  0  0  0  0  0  0  0  0  0  0
  148.4999  135.9975  159.2936 C   0  0  0  0  0  0  0  0  0  0  0  0
  147.6767  135.3683  160.3368 N   0  0  0  0  0  0  0  0  0  0  0  0
  147.1828  134.0839  160.1578 C   0  0  0  0  0  0  0  0  0  0  0  0
  146.4122  133.4470  161.0713 C   0  0  0  0  0  0  0  0  0  0  0  0
  146.0559  134.1044  162.3240 C   0  0  0  0  0  0  0  0  0  0  0  0
  145.3664  133.6103  163.2134 O   0  0  0  0  0  0  0  0  0  0  0  0
  146.5689  135.3966  162.4656 N   0  0  0  0  0  0  0  0  0  0  0  0
  147.3610  136.0598  161.5269 C   0  0  0  0  0  0  0  0  0  0  0  0
  147.7565  137.2036  161.7488 O   0  0  0  0  0  0  0  0  0  0  0  0
  150.2812  138.9925  155.7838 N   0  3  0  0  0  0  0  0  0  0  0  0
  150.9981  139.0164  154.4769 C   0  0  0  0  0  0  0  0  0  0  0  0
  152.3989  138.4006  154.6205 C   0  0  0  0  0  0  0  0  0  0  0  0
  153.1338  139.1207  155.5998 O   0  0  0  0  0  0  0  0  0  0  0  0
  152.5176  139.0482  156.8775 C   0  0  0  0  0  0  0  0  0  0  0  0
  151.1123  139.6719  156.8180 C   0  0  0  0  0  0  0  0  0  0  0  0
  146.3459  135.8926  163.3163 H   0  0  0  0  0  0  0  0  0  0  0  0
  147.2377  142.4312  154.8472 H   0  0  0  0  0  0  0  0  0  0  0  0
  146.6221  141.2631  156.0025 H   0  0  0  0  0  0  0  0  0  0  0  0
  146.7567  140.8359  154.2967 H   0  0  0  0  0  0  0  0  0  0  0  0
  149.2785  141.1074  154.4667 H   0  0  0  0  0  0  0  0  0  0  0  0
  149.1129  141.5102  156.1313 H   0  0  0  0  0  0  0  0  0  0  0  0
  147.0861  138.9595  154.4553 H   0  0  0  0  0  0  0  0  0  0  0  0
  147.9086  137.5196  154.9949 H   0  0  0  0  0  0  0  0  0  0  0  0
  148.6184  138.5130  153.7281 H   0  0  0  0  0  0  0  0  0  0  0  0
  148.4140  139.9436  157.8267 H   0  0  0  0  0  0  0  0  0  0  0  0
  147.0647  139.1619  157.0320 H   0  0  0  0  0  0  0  0  0  0  0  0
  149.2798  137.3605  157.2990 H   0  0  0  0  0  0  0  0  0  0  0  0
  148.5633  135.3447  158.4217 H   0  0  0  0  0  0  0  0  0  0  0  0
  149.5289  136.1118  159.6412 H   0  0  0  0  0  0  0  0  0  0  0  0
  147.4178  133.5598  159.2422 H   0  0  0  0  0  0  0  0  0  0  0  0
  146.0567  132.4461  160.8731 H   0  0  0  0  0  0  0  0  0  0  0  0
  150.4609  138.4578  153.7132 H   0  0  0  0  0  0  0  0  0  0  0  0
  151.0972  140.0405  154.1164 H   0  0  0  0  0  0  0  0  0  0  0  0
  152.3366  137.3454  154.8915 H   0  0  0  0  0  0  0  0  0  0  0  0
  152.9318  138.4546  153.6710 H   0  0  0  0  0  0  0  0  0  0  0  0
  152.4690  138.0109  157.2132 H   0  0  0  0  0  0  0  0  0  0  0  0
  153.1356  139.5856  157.5971 H   0  0  0  0  0  0  0  0  0  0  0  0
  151.1950  140.7360  156.5959 H   0  0  0  0  0  0  0  0  0  0  0  0
  150.6737  139.5826  157.8100 H   0  0  0  0  0  0  0  0  0  0  0  0
  150.2706  138.0207  156.0590 H   0  0  0  0  0  0  0  0  0  0  0  0
  1  2  1  0  0  0  0
  1 25  1  0  0  0  0
  1 26  1  0  0  0  0
  1 27  1  0  0  0  0
  2  3  1  0  0  0  0
  2 28  1  0  0  0  0
  2 29  1  0  0  0  0
  3  4  1  0  0  0  0
  3  5  1  0  0  0  0
  3 18  1  0  0  0  0
  4 30  1  0  0  0  0
  4 31  1  0  0  0  0
  4 32  1  0  0  0  0
  5  6  1  0  0  0  0
  5 33  1  0  0  0  0
  5 34  1  0  0  0  0
  6  7  1  0  0  0  0
  6 35  1  0  0  0  0
  7  8  2  0  0  0  0
  7  9  1  0  0  0  0
  9 10  1  0  0  0  0
  9 36  1  0  0  0  0
  9 37  1  0  0  0  0
 10 16  1  0  0  0  0
 10 11  1  0  0  0  0
 11 12  2  0  0  0  0
 11 38  1  0  0  0  0
 12 13  1  0  0  0  0
 12 39  1  0  0  0  0
 13 14  2  0  0  0  0
 13 15  1  0  0  0  0
 15 24  1  0  0  0  0
 15 16  1  0  0  0  0
 16 17  2  0  0  0  0
 18 23  1  0  0  0  0
 18 19  1  0  0  0  0
 18 48  1  0  0  0  0
 19 20  1  0  0  0  0
 19 40  1  0  0  0  0
 19 41  1  0  0  0  0
 20 21  1  0  0  0  0
 20 42  1  0  0  0  0
 20 43  1  0  0  0  0
 21 22  1  0  0  0  0
 22 23  1  0  0  0  0
 22 44  1  0  0  0  0
 22 45  1  0  0  0  0
 23 46  1  0  0  0  0
 23 47  1  0  0  0  0
M  CHG  1  18   1
M  END
> <s_m_source_file>
AV-unprocessed.smi

> <i_m_source_file_index>
1560

> <i_lp_mmshare_version>
43012

> <i_f3d_flags>
0

> <s_epik_input>
W0NIMl0xW0NIMl1PW0NIMl1bQ0gyXU4xW0NAQF0oW0NIM10pKFtDSDJdW0NIM10pW0NIMl1bTkhdQyg9TylbQ0gyXW4yW2NIXVtjSF1jKD1PKVtuSF1jMj1P

> <s_epik_cmdline>
J2VwaWtfcHl0aG9uJywgJy1waCcsICc3LjAnLCAnLXRuJywgJzgnLCAnLW1hJywgJzIwMCcsICctbWV0YWxfYmluZGluZycsICctaW1hZScsICc8aW5maWxlLm1hZT4nLCAnLW9tYWUnLCAnPG91dGZpbGUubWFlPic=

> <r_lp_tautomer_probability>
0.999537

> <r_epik_Ionization_Penalty>
0.523885

> <r_epik_Ionization_Penalty_Charging>
0.523885

> <r_epik_Ionization_Penalty_Neutral>
8.70177e-08

> <r_epik_State_Penalty>
0.572334

> <r_epik_Charging_Adjusted_Penalty>
1.09622

> <i_epik_Tot_Q>
1

> <i_epik_Tot_abs_Q>
1

> <r_epik_Metal_State_Penalty>
0.938906

> <b_epik_Metal_Only>
0

> <s_lp_Force_Field>
OPLS_2005

> <r_lp_Energy>
29.9369

> <b_lp_Chiralities_Consistent>
1

> <s_lp_Variant>
AV-unprocessed.smi:1560-4

> <Gold.Version>
5.8.1

> <Gold.Id.Protein>
6NUR|6NUR_protein|mol2

> <Gold.PLP.Fitness>
39.3719

> <Gold.PLP.PLP>
-31.9013

> <Gold.PLP.part.hbond>
-5.0000

> <Gold.PLP.part.metal>
0.0000

> <Gold.PLP.part.buried>
-4.8118

> <Gold.PLP.part.nonpolar>
-22.1081

> <Gold.PLP.part.repulsive>
0.2789

> <Gold.PLP.ligand.clash>
0.0000

> <Gold.PLP.ligand.torsion>
0.4442

> <Gold.PLP.Chemscore.Hbond>
2.7200

> <Gold.PLP.Chemscore.CHOScore>
0.0000

> <Gold.PLP.Chemscore.Metal>
0.0000

> <Gold.Chemscore.Hbonds>
donor molecule, donor type, donor heavy atom, donor atom, acceptor molecule, acceptor atom, score
      P1  H  6931  6943       L1    17  1.00
      P1  H  6934  6947       L1     8  0.70
      P1  H  7997  8010       L1    21  1.00

> <Gold.PLP.Chemscore.Internal.Correction>
0.1990

> <Gold.Rescore>
     Score         DG    S(hbond)    S(metal)    S(lipo)     H(rot)  DE(clash)    DE(int)     intcor
     12.98     -13.52       2.49        0.00      53.85       2.56       0.01       0.53       ----

> <Gold.Chemscore.Fitness>
12.9759

> <Gold.Chemscore.DG>
-13.5213

> <Gold.Chemscore.ZeroCoef>
-5.4800

> <Gold.Chemscore.Hbond>
2.4859

> <Gold.Chemscore.Metal>
0.0000

> <Gold.Chemscore.Lipo>
53.8524

> <Gold.Chemscore.Internal_Hbond>
0.0000

> <Gold.Chemscore.DEClash>
0.0126

> <Gold.Chemscore.DEInternal>
0.5328

> <Gold.Chemscore.Rot>
2.5634

> <Gold.Chemscore.Internal.Correction>
   9.000000E+99

> <Gold.Chemscore.Hbonds>
donor molecule, donor type, donor heavy atom, donor atom, acceptor molecule, acceptor atom, score
      P1  H  6931  6943       L1    17  0.96
      P1  H  6934  6947       L1     8  0.70
      P1  H  7997  8010       L1    21  0.38

> <Gold.Chemscore.Hbond.Weighted>
-8.3030

> <Gold.Chemscore.Metal.Weighted>
-0.0000

> <Gold.Chemscore.Lipo.Weighted>
-6.3007

> <Gold.Chemscore.Internal_Hbond.Weighted>
0.0000

> <Gold.Chemscore.DEClash.Weighted>
0.0126

> <Gold.Chemscore.DEInternal.Weighted>
0.5328

> <Gold.Chemscore.Rot.Weighted>
6.5624

> <Gold.Chemscore.Internal.Correction.Weighted>
   9.000000E+99

> <Gold.Protein.RotatedTorsions>
[ 6907 6896 6895 6894 ] final  -55.34 input  -60.11 | X-H torsion
[ 7974 7965 7964 7962 ] final  -21.50 input  175.53 | X-H torsion
[ 8008 7997 7996 7995 ] final  105.90 input   59.86 | X-H torsion
[ 10167 10162 10161 10158 ] final -167.08 input  -65.29 | X-H torsion
[ 10718 10713 10712 10709 ] final  104.07 input   66.30 | X-H torsion
[ 10763 10752 10751 10750 ] final -170.70 input  -60.55 | X-H torsion
[ 11005 11000 10999 10996 ] final   86.08 input  -57.11 | X-H torsion

> <Gold.Protein.ActiveResidues>
 VAL166  LYS551  ARG553  GLY616  TRP617  ASP618  TYR619  PRO620  LYS621  CYS622 
 ASP623  PHE694  ASN695  SER759  ASP760  ASP761  ALA762  ILE779  LEU786  VAL792 
 PHE793  MET794  SER795  GLU796  ALA797  LYS798  CYS799  TRP800  GLU811  SER814 

> <Gold.Protein.RotatedAtoms>
  150.8259  134.7490  159.6812 H   0  0  0  0  0  0  0  0  0  0  0  0  # atno 6907 bound_to 6896
  152.4370  134.5663  159.9918 H   0  0  0  0  0  0  0  0  0  0  0  0  # atno 6908 bound_to 6896
  151.5835  133.3337  159.3049 H   0  0  0  0  0  0  0  0  0  0  0  0  # atno 6909 bound_to 6896
  146.1729  140.4350  142.8525 H   0  0  0  0  0  0  0  0  0  0  0  0  # atno 7974 bound_to 7965
  156.1698  140.3122  155.8953 H   0  0  0  0  0  0  0  0  0  0  0  0  # atno 8008 bound_to 7997
  155.3610  140.0476  157.3063 H   0  0  0  0  0  0  0  0  0  0  0  0  # atno 8009 bound_to 7997
  154.5229  140.2204  155.8953 H   0  0  0  0  0  0  0  0  0  0  0  0  # atno 8010 bound_to 7997
  139.6072  144.0888  152.1805 H   0  0  0  0  0  0  0  0  0  0  0  0  # atno 10167 bound_to 10162
  157.6752  131.0794  150.5650 H   0  0  0  0  0  0  0  0  0  0  0  0  # atno 10718 bound_to 10713
  154.6387  135.2896  155.0130 H   0  0  0  0  0  0  0  0  0  0  0  0  # atno 10763 bound_to 10752
  154.1265  135.6540  153.4917 H   0  0  0  0  0  0  0  0  0  0  0  0  # atno 10764 bound_to 10752
  153.0315  135.5300  154.7244 H   0  0  0  0  0  0  0  0  0  0  0  0  # atno 10765 bound_to 10752
  139.8954  134.8330  156.2670 H   0  0  0  0  0  0  0  0  0  0  0  0  # atno 11005 bound_to 11000
  144.8191  140.6519  143.6365 LP  0  0  0  0  0  0  0  0  0  0  0  0  # atno 17320 bound_to 7965
  145.4291  139.1552  143.4032 LP  0  0  0  0  0  0  0  0  0  0  0  0  # atno 17321 bound_to 7965
  140.0498  144.5942  150.7345 LP  0  0  0  0  0  0  0  0  0  0  0  0  # atno 17342 bound_to 10162
  140.7293  143.2671  151.4007 LP  0  0  0  0  0  0  0  0  0  0  0  0  # atno 17343 bound_to 10162
  156.5953  130.4340  149.5919 LP  0  0  0  0  0  0  0  0  0  0  0  0  # atno 17370 bound_to 10713
  156.2550  130.6929  151.1680 LP  0  0  0  0  0  0  0  0  0  0  0  0  # atno 17371 bound_to 10713
  141.0125  133.7087  156.1135 LP  0  0  0  0  0  0  0  0  0  0  0  0  # atno 17394 bound_to 11000
  140.7347  134.4216  157.5562 LP  0  0  0  0  0  0  0  0  0  0  0  0  # atno 17395 bound_to 11000

$$$$
