AV-unprocessed.smi:2226|AV-procd|sdf|9020|dock1
  -GOLD-   2272012223D 1   1.00000     0.00000
 Structure written by MMmdl.
 39 41  0  0  0  0  0  0  0  0  3 V2000
  150.6295  138.7269  153.9291 C   0  0  0  0  0  0  0  0  0  0  0  0
  149.4985  137.8847  154.3859 N   0  3  2  0  0  0  0  0  0  0  0  0
  148.2681  138.6322  154.7380 C   0  0  1  0  0  0  0  0  0  0  0  0
  147.0733  137.6516  154.7700 C   0  0  0  0  0  0  0  0  0  0  0  0
  147.2998  136.4167  155.6634 C   0  0  0  0  0  0  0  0  0  0  0  0
  148.7254  135.8445  155.5369 C   0  0  0  0  0  0  0  0  0  0  0  0
  149.8331  136.9212  155.4615 C   0  0  2  0  0  0  0  0  0  0  0  0
  150.1448  137.6458  156.7953 C   0  0  0  0  0  0  0  0  0  0  0  0
  149.1426  138.7492  157.2144 C   0  0  2  0  0  0  0  0  0  0  0  0
  148.1861  138.2517  158.2002 N   0  0  0  0  0  0  0  0  0  0  0  0
  148.4645  137.5316  159.2968 C   0  0  0  0  0  0  0  0  0  0  0  0
  149.6292  137.2115  159.5447 O   0  0  0  0  0  0  0  0  0  0  0  0
  147.3747  137.2375  160.0397 N   0  5  0  0  0  0  0  0  0  0  0  0
  147.5073  136.5083  161.1594 C   0  0  0  0  0  0  0  0  0  0  0  0
  147.2850  135.1986  161.2813 N   0  0  0  0  0  0  0  0  0  0  0  0
  147.5443  134.8927  162.6086 C   0  0  0  0  0  0  0  0  0  0  0  0
  147.9103  136.0487  163.2422 C   0  0  0  0  0  0  0  0  0  0  0  0
  147.8876  137.0754  162.3393 O   0  0  0  0  0  0  0  0  0  0  0  0
  148.4641  139.4760  156.0220 C   0  0  0  0  0  0  0  0  0  0  0  0
  150.9921  139.3925  154.7122 H   0  0  0  0  0  0  0  0  0  0  0  0
  150.3277  139.3392  153.0789 H   0  0  0  0  0  0  0  0  0  0  0  0
  151.4620  138.1018  153.6052 H   0  0  0  0  0  0  0  0  0  0  0  0
  148.0627  139.3311  153.9258 H   0  0  0  0  0  0  0  0  0  0  0  0
  146.1628  138.1697  155.0731 H   0  0  0  0  0  0  0  0  0  0  0  0
  146.8925  137.3040  153.7519 H   0  0  0  0  0  0  0  0  0  0  0  0
  147.0767  136.6544  156.6978 H   0  0  0  0  0  0  0  0  0  0  0  0
  146.5752  135.6443  155.4041 H   0  0  0  0  0  0  0  0  0  0  0  0
  148.9232  135.1499  156.3541 H   0  0  0  0  0  0  0  0  0  0  0  0
  148.7696  135.2490  154.6240 H   0  0  0  0  0  0  0  0  0  0  0  0
  150.7425  136.3975  155.1636 H   0  0  0  0  0  0  0  0  0  0  0  0
  150.2763  136.9188  157.5980 H   0  0  0  0  0  0  0  0  0  0  0  0
  151.1226  138.1170  156.6911 H   0  0  0  0  0  0  0  0  0  0  0  0
  149.7285  139.4979  157.7517 H   0  0  0  0  0  0  0  0  0  0  0  0
  147.2155  138.4798  158.0426 H   0  0  0  0  0  0  0  0  0  0  0  0
  147.4483  133.8879  162.9925 H   0  0  0  0  0  0  0  0  0  0  0  0
  148.1968  136.2952  164.2534 H   0  0  0  0  0  0  0  0  0  0  0  0
  149.0948  140.3266  155.7615 H   0  0  0  0  0  0  0  0  0  0  0  0
  147.5157  139.9239  156.3201 H   0  0  0  0  0  0  0  0  0  0  0  0
  149.2544  137.3229  153.5829 H   0  0  0  0  0  0  0  0  0  0  0  0
  1  2  1  0  0  0  0
  1 20  1  0  0  0  0
  1 21  1  0  0  0  0
  1 22  1  0  0  0  0
  2  7  1  0  0  0  0
  2  3  1  0  0  0  0
  2 39  1  0  0  0  0
  3 19  1  0  0  0  0
  3  4  1  0  0  0  0
  3 23  1  0  0  0  0
  4  5  1  0  0  0  0
  4 24  1  0  0  0  0
  4 25  1  0  0  0  0
  5  6  1  0  0  0  0
  5 26  1  0  0  0  0
  5 27  1  0  0  0  0
  6  7  1  0  0  0  0
  6 28  1  0  0  0  0
  6 29  1  0  0  0  0
  7  8  1  0  0  0  0
  7 30  1  0  0  0  0
  8  9  1  0  0  0  0
  8 31  1  0  0  0  0
  8 32  1  0  0  0  0
  9 10  1  0  0  0  0
  9 19  1  0  0  0  0
  9 33  1  0  0  0  0
 10 34  1  0  0  0  0
 10 11  1  0  0  0  0
 11 13  1  0  0  0  0
 11 12  2  0  0  0  0
 13 14  1  0  0  0  0
 14 18  1  0  0  0  0
 14 15  2  0  0  0  0
 15 16  1  0  0  0  0
 16 35  1  0  0  0  0
 16 17  2  0  0  0  0
 17 36  1  0  0  0  0
 17 18  1  0  0  0  0
 19 37  1  0  0  0  0
 19 38  1  0  0  0  0
M  CHG  1   2   1
M  CHG  1  13  -1
M  END
> <s_m_source_file>
AV-unprocessed.smi

> <i_m_source_file_index>
2226

> <i_lp_mmshare_version>
43012

> <i_f3d_flags>
0

> <s_epik_input>
W0NIMl0xW0NIMl1bQ0gyXVtDQEhdKE4oW0NIM10pW0NIXTEyKVtDSDJdW0NASF0oW0NIMl0yKVtOSF1DKD1PKVtOSF1jM25bY0hdW2NIXW8z

> <s_epik_cmdline>
J2VwaWtfcHl0aG9uJywgJy1waCcsICc3LjAnLCAnLXRuJywgJzgnLCAnLW1hJywgJzIwMCcsICctbWV0YWxfYmluZGluZycsICctaW1hZScsICc8aW5maWxlLm1hZT4nLCAnLW9tYWUnLCAnPG91dGZpbGUubWFlPic=

> <r_lp_tautomer_probability>
0.107061

> <r_epik_Ionization_Penalty>
10.5612

> <r_epik_Ionization_Penalty_Charging>
7.48913

> <r_epik_Ionization_Penalty_Neutral>
3.07202

> <r_epik_State_Penalty>
5.6431

> <r_epik_Charging_Adjusted_Penalty>
13.1322

> <i_epik_Tot_Q>
0

> <i_epik_Tot_abs_Q>
2

> <r_epik_Metal_State_Penalty>
1.58163

> <b_epik_Metal_Only>
1

> <s_lp_Force_Field>
OPLS_2005

> <r_lp_Energy>
26.6809

> <b_lp_Chiralities_Consistent>
1

> <s_lp_Variant>
AV-unprocessed.smi:2226-20

> <Gold.Version>
5.8.1

> <Gold.Id.Protein>
6NUR|6NUR_protein|mol2

> <Gold.PLP.Fitness>
40.6663

> <Gold.PLP.PLP>
-24.3863

> <Gold.PLP.part.hbond>
-4.0000

> <Gold.PLP.part.metal>
0.0000

> <Gold.PLP.part.buried>
-5.1885

> <Gold.PLP.part.nonpolar>
-17.1545

> <Gold.PLP.part.repulsive>
0.1551

> <Gold.PLP.ligand.clash>
0.0000

> <Gold.PLP.ligand.torsion>
0.8211

> <Gold.PLP.Chemscore.Hbond>
5.9520

> <Gold.PLP.Chemscore.CHOScore>
0.0000

> <Gold.PLP.Chemscore.Metal>
0.0000

> <Gold.Chemscore.Hbonds>
donor molecule, donor type, donor heavy atom, donor atom, acceptor molecule, acceptor atom, score
      L1  H     2    39       P1  7948  1.95
      P1  H  6931  6943       L1    18  1.00
      P1  H  6934  6947       L1    13  1.53

> <Gold.PLP.Chemscore.Internal.Correction>
0.0662

> <Gold.Rescore>
     Score         DG    S(hbond)    S(metal)    S(lipo)     H(rot)  DE(clash)    DE(int)     intcor
     16.05     -18.25       2.87        0.00      49.07       1.00       0.00       2.20       ----

> <Gold.Chemscore.Fitness>
16.0511

> <Gold.Chemscore.DG>
-18.2487

> <Gold.Chemscore.ZeroCoef>
-5.4800

> <Gold.Chemscore.Hbond>
2.8705

> <Gold.Chemscore.Metal>
0.0000

> <Gold.Chemscore.Lipo>
49.0703

> <Gold.Chemscore.Internal_Hbond>
0.0000

> <Gold.Chemscore.DEClash>
0.0015

> <Gold.Chemscore.DEInternal>
2.1961

> <Gold.Chemscore.Rot>
1.0000

> <Gold.Chemscore.Internal.Correction>
   9.000000E+99

> <Gold.Chemscore.Hbonds>
donor molecule, donor type, donor heavy atom, donor atom, acceptor molecule, acceptor atom, score
      L1  H     2    39       P1  7948  0.91
      P1  H  6931  6943       L1    18  0.53
      P1  H  6934  6947       L1    13  0.02

> <Gold.Chemscore.Hbond.Weighted>
-9.5875

> <Gold.Chemscore.Metal.Weighted>
-0.0000

> <Gold.Chemscore.Lipo.Weighted>
-5.7412

> <Gold.Chemscore.Internal_Hbond.Weighted>
0.0000

> <Gold.Chemscore.DEClash.Weighted>
0.0015

> <Gold.Chemscore.DEInternal.Weighted>
2.1961

> <Gold.Chemscore.Rot.Weighted>
2.5600

> <Gold.Chemscore.Internal.Correction.Weighted>
   9.000000E+99

> <Gold.Protein.RotatedTorsions>
[ 6907 6896 6895 6894 ] final -170.48 input  -60.11 | X-H torsion
[ 7974 7965 7964 7962 ] final   82.45 input  175.53 | X-H torsion
[ 8008 7997 7996 7995 ] final -168.96 input   59.86 | X-H torsion
[ 10167 10162 10161 10158 ] final   77.76 input  -65.29 | X-H torsion
[ 10718 10713 10712 10709 ] final  122.85 input   66.30 | X-H torsion
[ 10763 10752 10751 10750 ] final -115.48 input  -60.55 | X-H torsion
[ 11005 11000 10999 10996 ] final   -4.69 input  -57.11 | X-H torsion

> <Gold.Protein.ActiveResidues>
 VAL166  LYS551  ARG553  GLY616  TRP617  ASP618  TYR619  PRO620  LYS621  CYS622 
 ASP623  PHE694  ASN695  SER759  ASP760  ASP761  ALA762  ILE779  LEU786  VAL792 
 PHE793  MET794  SER795  GLU796  ALA797  LYS798  CYS799  TRP800  GLU811  SER814 

> <Gold.Protein.RotatedAtoms>
  151.5084  133.3490  159.2880 H   0  0  0  0  0  0  0  0  0  0  0  0  # atno 6907 bound_to 6896
  150.8728  134.8107  159.7178 H   0  0  0  0  0  0  0  0  0  0  0  0  # atno 6908 bound_to 6896
  152.4710  134.4970  159.9765 H   0  0  0  0  0  0  0  0  0  0  0  0  # atno 6909 bound_to 6896
  145.6250  139.2393  143.2117 H   0  0  0  0  0  0  0  0  0  0  0  0  # atno 7974 bound_to 7965
  155.8985  140.1037  157.1367 H   0  0  0  0  0  0  0  0  0  0  0  0  # atno 8008 bound_to 7997
  154.4023  140.1297  156.4470 H   0  0  0  0  0  0  0  0  0  0  0  0  # atno 8009 bound_to 7997
  155.7450  140.3466  155.5125 H   0  0  0  0  0  0  0  0  0  0  0  0  # atno 8010 bound_to 7997
  139.9781  144.5846  150.7925 H   0  0  0  0  0  0  0  0  0  0  0  0  # atno 10167 bound_to 10162
  157.5711  131.1083  150.8366 H   0  0  0  0  0  0  0  0  0  0  0  0  # atno 10718 bound_to 10713
  154.8483  135.4380  154.1670 H   0  0  0  0  0  0  0  0  0  0  0  0  # atno 10763 bound_to 10752
  153.2792  135.6952  153.7408 H   0  0  0  0  0  0  0  0  0  0  0  0  # atno 10764 bound_to 10752
  153.6618  135.3433  155.3104 H   0  0  0  0  0  0  0  0  0  0  0  0  # atno 10765 bound_to 10752
  140.6830  133.9137  155.8568 H   0  0  0  0  0  0  0  0  0  0  0  0  # atno 11005 bound_to 11000
  146.1402  140.7068  142.9371 LP  0  0  0  0  0  0  0  0  0  0  0  0  # atno 17320 bound_to 7965
  144.7216  140.4392  143.7004 LP  0  0  0  0  0  0  0  0  0  0  0  0  # atno 17321 bound_to 7965
  140.7499  143.2946  151.3239 LP  0  0  0  0  0  0  0  0  0  0  0  0  # atno 17342 bound_to 10162
  139.6430  144.0503  152.2569 LP  0  0  0  0  0  0  0  0  0  0  0  0  # atno 17343 bound_to 10162
  156.8837  130.5188  149.5289 LP  0  0  0  0  0  0  0  0  0  0  0  0  # atno 17370 bound_to 10713
  156.0756  130.5779  150.9467 LP  0  0  0  0  0  0  0  0  0  0  0  0  # atno 17371 bound_to 10713
  141.0302  134.0767  157.4023 LP  0  0  0  0  0  0  0  0  0  0  0  0  # atno 17394 bound_to 11000
  139.8946  135.0136  156.6958 LP  0  0  0  0  0  0  0  0  0  0  0  0  # atno 17395 bound_to 11000

$$$$
