AV-unprocessed.smi:1005|AV-procd|sdf|4374|dock6
  -GOLD-   22720 2283D 1   1.00000     0.00000
 Structure written by MMmdl.
 57 59  0  0  0  0  0  0  0  0  3 V2000
  152.4855  143.9048  161.6103 C   0  0  0  0  0  0  0  0  0  0  0  0
  152.2990  143.0922  160.3401 C   0  0  0  0  0  0  0  0  0  0  0  0
  151.4281  143.5887  159.3435 C   0  0  0  0  0  0  0  0  0  0  0  0
  151.2793  142.8236  158.1929 C   0  0  0  0  0  0  0  0  0  0  0  0
  150.5115  143.0338  157.0451 N   0  3  0  0  0  0  0  0  0  0  0  0
  150.6943  141.9978  156.1797 C   0  0  0  0  0  0  0  0  0  0  0  0
  151.5671  141.1297  156.7595 N   0  0  0  0  0  0  0  0  0  0  0  0
  152.1101  139.8596  156.2613 C   0  0  0  0  0  0  0  0  0  0  0  0
  151.0313  138.9606  155.6275 C   0  0  2  0  0  0  0  0  0  0  0  0
  150.6613  139.5034  154.3750 O   0  0  0  0  0  0  0  0  0  0  0  0
  149.7761  138.8689  156.5177 C   0  0  0  0  0  0  0  0  0  0  0  0
  149.8362  137.8798  157.5960 N   0  0  0  0  0  0  0  0  0  0  0  0
  150.8617  138.1887  158.5907 C   0  0  0  0  0  0  0  0  0  0  0  0
  150.8779  137.1613  159.7340 C   0  0  0  0  0  0  0  0  0  0  0  0
  149.5843  137.0832  160.3234 O   0  0  0  0  0  0  0  0  0  0  0  0
  148.5662  136.7117  159.3975 C   0  0  1  0  0  0  0  0  0  0  0  0
  147.2348  136.6254  160.1741 C   0  0  0  0  0  0  0  0  0  0  0  0
  147.2756  135.6868  161.3255 N   0  3  0  0  0  0  0  0  0  0  0  0
  147.9286  136.2465  162.5306 C   0  0  0  0  0  0  0  0  0  0  0  0
  147.8589  134.3795  160.9494 C   0  0  0  0  0  0  0  0  0  0  0  0
  148.5472  137.7694  158.2706 C   0  0  0  0  0  0  0  0  0  0  0  0
  151.9593  141.6036  158.0151 C   0  0  0  0  0  0  0  0  0  0  0  0
  152.8212  141.0996  158.9858 C   0  0  0  0  0  0  0  0  0  0  0  0
  152.9875  141.8638  160.1627 C   0  0  0  0  0  0  0  0  0  0  0  0
  153.9230  141.3406  161.2392 C   0  0  0  0  0  0  0  0  0  0  0  0
  151.8699  144.8047  161.6022 H   0  0  0  0  0  0  0  0  0  0  0  0
  153.5254  144.2139  161.7171 H   0  0  0  0  0  0  0  0  0  0  0  0
  152.2062  143.3186  162.4861 H   0  0  0  0  0  0  0  0  0  0  0  0
  150.9020  144.5236  159.4710 H   0  0  0  0  0  0  0  0  0  0  0  0
  150.2348  141.8870  155.2078 H   0  0  0  0  0  0  0  0  0  0  0  0
  152.9034  140.0826  155.5468 H   0  0  0  0  0  0  0  0  0  0  0  0
  152.5855  139.3520  157.1021 H   0  0  0  0  0  0  0  0  0  0  0  0
  151.4594  137.9731  155.4616 H   0  0  0  0  0  0  0  0  0  0  0  0
  149.7751  139.8262  154.4402 H   0  0  0  0  0  0  0  0  0  0  0  0
  149.5727  139.8502  156.9493 H   0  0  0  0  0  0  0  0  0  0  0  0
  148.9230  138.6491  155.8736 H   0  0  0  0  0  0  0  0  0  0  0  0
  151.8492  138.2057  158.1321 H   0  0  0  0  0  0  0  0  0  0  0  0
  150.6901  139.1840  159.0034 H   0  0  0  0  0  0  0  0  0  0  0  0
  151.1791  136.1790  159.3670 H   0  0  0  0  0  0  0  0  0  0  0  0
  151.5998  137.4536  160.4967 H   0  0  0  0  0  0  0  0  0  0  0  0
  148.8208  135.7297  158.9935 H   0  0  0  0  0  0  0  0  0  0  0  0
  147.0182  137.6153  160.5791 H   0  0  0  0  0  0  0  0  0  0  0  0
  146.4026  136.3869  159.5096 H   0  0  0  0  0  0  0  0  0  0  0  0
  148.9423  136.5824  162.3089 H   0  0  0  0  0  0  0  0  0  0  0  0
  147.9841  135.4984  163.3222 H   0  0  0  0  0  0  0  0  0  0  0  0
  147.3610  137.0863  162.9294 H   0  0  0  0  0  0  0  0  0  0  0  0
  148.9006  134.4900  160.6450 H   0  0  0  0  0  0  0  0  0  0  0  0
  147.3066  133.9307  160.1230 H   0  0  0  0  0  0  0  0  0  0  0  0
  147.8192  133.6814  161.7863 H   0  0  0  0  0  0  0  0  0  0  0  0
  148.2698  138.7382  158.6895 H   0  0  0  0  0  0  0  0  0  0  0  0
  147.7776  137.5224  157.5410 H   0  0  0  0  0  0  0  0  0  0  0  0
  153.3448  140.1649  158.8491 H   0  0  0  0  0  0  0  0  0  0  0  0
  154.4057  140.4122  160.9324 H   0  0  0  0  0  0  0  0  0  0  0  0
  153.3731  141.1424  162.1593 H   0  0  0  0  0  0  0  0  0  0  0  0
  154.7074  142.0667  161.4533 H   0  0  0  0  0  0  0  0  0  0  0  0
  146.3159  135.4993  161.5787 H   0  0  0  0  0  0  0  0  0  0  0  0
  149.9088  143.8256  156.8613 H   0  0  0  0  0  0  0  0  0  0  0  0
  1  2  1  0  0  0  0
  1 26  1  0  0  0  0
  1 27  1  0  0  0  0
  1 28  1  0  0  0  0
  2 24  1  0  0  0  0
  2  3  2  0  0  0  0
  3  4  1  0  0  0  0
  3 29  1  0  0  0  0
  4 22  2  0  0  0  0
  4  5  1  0  0  0  0
  5  6  2  0  0  0  0
  5 57  1  0  0  0  0
  6  7  1  0  0  0  0
  6 30  1  0  0  0  0
  7  8  1  0  0  0  0
  7 22  1  0  0  0  0
  8  9  1  0  0  0  0
  8 31  1  0  0  0  0
  8 32  1  0  0  0  0
  9 10  1  0  0  0  0
  9 11  1  0  0  0  0
  9 33  1  0  0  0  0
 10 34  1  0  0  0  0
 11 12  1  0  0  0  0
 11 35  1  0  0  0  0
 11 36  1  0  0  0  0
 12 21  1  0  0  0  0
 12 13  1  0  0  0  0
 13 14  1  0  0  0  0
 13 37  1  0  0  0  0
 13 38  1  0  0  0  0
 14 15  1  0  0  0  0
 14 39  1  0  0  0  0
 14 40  1  0  0  0  0
 15 16  1  0  0  0  0
 16 17  1  0  0  0  0
 16 21  1  0  0  0  0
 16 41  1  0  0  0  0
 17 18  1  0  0  0  0
 17 42  1  0  0  0  0
 17 43  1  0  0  0  0
 18 19  1  0  0  0  0
 18 20  1  0  0  0  0
 18 56  1  0  0  0  0
 19 44  1  0  0  0  0
 19 45  1  0  0  0  0
 19 46  1  0  0  0  0
 20 47  1  0  0  0  0
 20 48  1  0  0  0  0
 20 49  1  0  0  0  0
 21 50  1  0  0  0  0
 21 51  1  0  0  0  0
 22 23  1  0  0  0  0
 23 24  2  0  0  0  0
 23 52  1  0  0  0  0
 24 25  1  0  0  0  0
 25 53  1  0  0  0  0
 25 54  1  0  0  0  0
 25 55  1  0  0  0  0
M  CHG  1   5   1
M  CHG  1  18   1
M  END
> <s_m_source_file>
AV-unprocessed.smi

> <i_m_source_file_index>
1005

> <i_lp_mmshare_version>
43012

> <i_f3d_flags>
0

> <s_epik_input>
W0NIM11jKFtjSF0xKWMoW0NIM10pW2NIXWMoYzEyKW4oW2NIXW4yKVtDSDJdW0NASF0oW09IXSlbQ0gyXU4zW0NIMl1bQ0gyXU9bQ0BIXShbQ0gyXTMpW0NIMl1OKFtDSDNdKVtDSDNd

> <s_epik_cmdline>
J2VwaWtfcHl0aG9uJywgJy1waCcsICc3LjAnLCAnLXRuJywgJzgnLCAnLW1hJywgJzIwMCcsICctbWV0YWxfYmluZGluZycsICctaW1hZScsICc8aW5maWxlLm1hZT4nLCAnLW9tYWUnLCAnPG91dGZpbGUubWFlPic=

> <r_epik_Ionization_Penalty>
1.3281

> <r_epik_Ionization_Penalty_Charging>
1.21988

> <r_epik_Ionization_Penalty_Neutral>
0.10822

> <r_epik_State_Penalty>
1.32886

> <r_epik_Charging_Adjusted_Penalty>
2.54875

> <i_epik_Tot_Q>
2

> <i_epik_Tot_abs_Q>
2

> <r_epik_Metal_State_Penalty>
5.33912

> <b_epik_Metal_Only>
0

> <s_lp_Force_Field>
OPLS_2005

> <r_lp_Energy>
44.7977

> <b_lp_Chiralities_Consistent>
1

> <s_lp_Variant>
AV-unprocessed.smi:1005-13

> <Gold.Version>
5.8.1

> <Gold.Id.Protein>
6NUR|6NUR_protein|mol2

> <Gold.PLP.Fitness>
56.4210

> <Gold.PLP.PLP>
-47.3863

> <Gold.PLP.part.hbond>
-3.0000

> <Gold.PLP.part.metal>
0.0000

> <Gold.PLP.part.buried>
-6.0166

> <Gold.PLP.part.nonpolar>
-38.6277

> <Gold.PLP.part.repulsive>
0.1010

> <Gold.PLP.ligand.clash>
0.0000

> <Gold.PLP.ligand.torsion>
0.6760

> <Gold.PLP.Chemscore.Hbond>
3.4480

> <Gold.PLP.Chemscore.CHOScore>
0.0000

> <Gold.PLP.Chemscore.Metal>
0.0000

> <Gold.Chemscore.Hbonds>
donor molecule, donor type, donor heavy atom, donor atom, acceptor molecule, acceptor atom, score
      L1  H     5    57       P1  8028  1.95
      P1  H  6931  6943       L1    15  0.43
      P1  H  7989  7998       L1    10  1.00

> <Gold.PLP.Chemscore.Internal.Correction>
0.0427

> <Gold.Rescore>
     Score         DG    S(hbond)    S(metal)    S(lipo)     H(rot)  DE(clash)    DE(int)     intcor
     20.92     -22.00       2.22        0.00     132.31       2.49       0.10       0.98       ----

> <Gold.Chemscore.Fitness>
20.9212

> <Gold.Chemscore.DG>
-21.9978

> <Gold.Chemscore.ZeroCoef>
-5.4800

> <Gold.Chemscore.Hbond>
2.2191

> <Gold.Chemscore.Metal>
0.0000

> <Gold.Chemscore.Lipo>
132.3056

> <Gold.Chemscore.Internal_Hbond>
0.0000

> <Gold.Chemscore.DEClash>
0.0965

> <Gold.Chemscore.DEInternal>
0.9801

> <Gold.Chemscore.Rot>
2.4897

> <Gold.Chemscore.Internal.Correction>
   9.000000E+99

> <Gold.Chemscore.Hbonds>
donor molecule, donor type, donor heavy atom, donor atom, acceptor molecule, acceptor atom, score
      L1  H     5    57       P1  8028  0.91
      P1  H  6931  6943       L1    15  0.38
      P1  H  7989  7998       L1    10  0.55

> <Gold.Chemscore.Hbond.Weighted>
-7.4117

> <Gold.Chemscore.Metal.Weighted>
-0.0000

> <Gold.Chemscore.Lipo.Weighted>
-15.4798

> <Gold.Chemscore.Internal_Hbond.Weighted>
0.0000

> <Gold.Chemscore.DEClash.Weighted>
0.0965

> <Gold.Chemscore.DEInternal.Weighted>
0.9801

> <Gold.Chemscore.Rot.Weighted>
6.3737

> <Gold.Chemscore.Internal.Correction.Weighted>
   9.000000E+99

> <Gold.Protein.RotatedTorsions>
[ 6907 6896 6895 6894 ] final   98.20 input  -60.11 | X-H torsion
[ 7974 7965 7964 7962 ] final  148.86 input  175.53 | X-H torsion
[ 8008 7997 7996 7995 ] final  113.53 input   59.86 | X-H torsion
[ 10167 10162 10161 10158 ] final  -59.96 input  -65.29 | X-H torsion
[ 10718 10713 10712 10709 ] final  -77.88 input   66.30 | X-H torsion
[ 10763 10752 10751 10750 ] final  129.07 input  -60.55 | X-H torsion
[ 11005 11000 10999 10996 ] final -161.95 input  -57.11 | X-H torsion

> <Gold.Protein.ActiveResidues>
 VAL166  LYS551  ARG553  GLY616  TRP617  ASP618  TYR619  PRO620  LYS621  CYS622 
 ASP623  PHE694  ASN695  SER759  ASP760  ASP761  ALA762  ILE779  LEU786  VAL792 
 PHE793  MET794  SER795  GLU796  ALA797  LYS798  CYS799  TRP800  GLU811  SER814 

> <Gold.Protein.RotatedAtoms>
  152.5413  134.0618  159.8154 H   0  0  0  0  0  0  0  0  0  0  0  0  # atno 6907 bound_to 6896
  151.0744  133.5432  159.2632 H   0  0  0  0  0  0  0  0  0  0  0  0  # atno 6908 bound_to 6896
  151.2283  135.0553  159.9031 H   0  0  0  0  0  0  0  0  0  0  0  0  # atno 6909 bound_to 6896
  144.8481  139.6207  143.5986 H   0  0  0  0  0  0  0  0  0  0  0  0  # atno 7974 bound_to 7965
  156.2264  140.2977  156.0077 H   0  0  0  0  0  0  0  0  0  0  0  0  # atno 8008 bound_to 7997
  155.2346  140.0420  157.2984 H   0  0  0  0  0  0  0  0  0  0  0  0  # atno 8009 bound_to 7997
  154.5922  140.2404  155.7913 H   0  0  0  0  0  0  0  0  0  0  0  0  # atno 8010 bound_to 7997
  140.6102  143.2385  151.5727 H   0  0  0  0  0  0  0  0  0  0  0  0  # atno 10167 bound_to 10162
  156.0133  130.4503  150.3411 H   0  0  0  0  0  0  0  0  0  0  0  0  # atno 10718 bound_to 10713
  153.7358  135.3231  155.3294 H   0  0  0  0  0  0  0  0  0  0  0  0  # atno 10763 bound_to 10752
  154.8311  135.4533  154.1076 H   0  0  0  0  0  0  0  0  0  0  0  0  # atno 10764 bound_to 10752
  153.2237  135.6951  153.8052 H   0  0  0  0  0  0  0  0  0  0  0  0  # atno 10765 bound_to 10752
  140.6147  134.4813  157.5218 H   0  0  0  0  0  0  0  0  0  0  0  0  # atno 11005 bound_to 11000
  146.2762  139.6758  142.9261 LP  0  0  0  0  0  0  0  0  0  0  0  0  # atno 17320 bound_to 7965
  145.4555  141.0430  143.2781 LP  0  0  0  0  0  0  0  0  0  0  0  0  # atno 17321 bound_to 7965
  139.5355  144.2793  152.1242 LP  0  0  0  0  0  0  0  0  0  0  0  0  # atno 17342 bound_to 10162
  140.1990  144.4676  150.6441 LP  0  0  0  0  0  0  0  0  0  0  0  0  # atno 17343 bound_to 10162
  157.1506  131.0320  151.2886 LP  0  0  0  0  0  0  0  0  0  0  0  0  # atno 17370 bound_to 10713
  157.4395  130.7536  149.7057 LP  0  0  0  0  0  0  0  0  0  0  0  0  # atno 17371 bound_to 10713
  139.9178  134.8211  156.1310 LP  0  0  0  0  0  0  0  0  0  0  0  0  # atno 17394 bound_to 11000
  141.0784  133.6765  156.2284 LP  0  0  0  0  0  0  0  0  0  0  0  0  # atno 17395 bound_to 11000

$$$$
