AV-unprocessed.smi:2445|AV-procd|sdf|9639|dock3
  -GOLD-   2272013273D 1   1.00000     0.00000
 Structure written by MMmdl.
 40 41  0  0  0  0  0  0  0  0  1 V2000
  154.4023  140.3105  160.9910 C   0  0  0  0  0  0  0  0  0  0  0  0
  153.5814  141.5553  160.9827 C   0  0  0  0  0  0  0  0  0  0  0  0
  152.9513  142.1537  162.0455 C   0  0  0  0  0  0  0  0  0  0  0  0
  152.2590  143.3184  161.7079 N   0  0  0  0  0  0  0  0  0  0  0  0
  152.3530  143.6108  160.4078 C   0  0  0  0  0  0  0  0  0  0  0  0
  151.6932  144.7969  159.7716 C   0  0  2  0  0  0  0  0  0  0  0  0
  152.2290  146.1226  160.3307 C   0  0  0  0  0  0  0  0  0  0  0  0
  150.1547  144.7103  159.7948 C   0  0  0  0  0  0  0  0  0  0  0  0
  149.6379  144.0890  158.5785 N   0  0  0  0  0  0  0  0  0  0  0  0
  149.8724  142.8273  158.1959 C   0  0  0  0  0  0  0  0  0  0  0  0
  150.5324  142.0163  158.8457 O   0  0  0  0  0  0  0  0  0  0  0  0
  149.3024  142.5552  157.0147 N   0  0  0  0  0  0  0  0  0  0  0  0
  149.3888  141.2715  156.3274 C   0  0  1  0  0  0  0  0  0  0  0  0
  148.5790  141.2348  155.0458 C   0  0  0  0  0  0  0  0  0  0  0  0
  149.2841  140.1396  154.2504 C   0  0  0  0  0  0  0  0  0  0  0  0
  150.6383  140.1311  154.6938 O   0  0  0  0  0  0  0  0  0  0  0  0
  150.8021  141.0139  155.7990 C   0  0  2  0  0  0  0  0  0  0  0  0
  151.7556  140.4063  156.8343 C   0  0  0  0  0  0  0  0  0  0  0  0
  153.3180  142.4466  159.5069 S   0  0  0  0  0  0  0  0  0  0  0  0
  154.4721  139.8921  161.9955 H   0  0  0  0  0  0  0  0  0  0  0  0
  155.4142  140.5131  160.6399 H   0  0  0  0  0  0  0  0  0  0  0  0
  153.9636  139.5537  160.3405 H   0  0  0  0  0  0  0  0  0  0  0  0
  152.9435  141.8211  163.0731 H   0  0  0  0  0  0  0  0  0  0  0  0
  151.9844  144.7749  158.7205 H   0  0  0  0  0  0  0  0  0  0  0  0
  153.3107  146.1896  160.2106 H   0  0  0  0  0  0  0  0  0  0  0  0
  152.0047  146.2249  161.3930 H   0  0  0  0  0  0  0  0  0  0  0  0
  151.7861  146.9746  159.8144 H   0  0  0  0  0  0  0  0  0  0  0  0
  149.8419  144.1427  160.6731 H   0  0  0  0  0  0  0  0  0  0  0  0
  149.7198  145.7054  159.8932 H   0  0  0  0  0  0  0  0  0  0  0  0
  149.0805  144.6726  157.9722 H   0  0  0  0  0  0  0  0  0  0  0  0
  148.7808  143.2864  156.5539 H   0  0  0  0  0  0  0  0  0  0  0  0
  149.0805  140.4549  156.9837 H   0  0  0  0  0  0  0  0  0  0  0  0
  147.5214  141.0261  155.2110 H   0  0  0  0  0  0  0  0  0  0  0  0
  148.6595  142.1851  154.5156 H   0  0  0  0  0  0  0  0  0  0  0  0
  148.8448  139.1665  154.4723 H   0  0  0  0  0  0  0  0  0  0  0  0
  149.2186  140.3022  153.1743 H   0  0  0  0  0  0  0  0  0  0  0  0
  151.2244  141.9416  155.4085 H   0  0  0  0  0  0  0  0  0  0  0  0
  151.8783  141.0694  157.6909 H   0  0  0  0  0  0  0  0  0  0  0  0
  152.7413  140.2348  156.4018 H   0  0  0  0  0  0  0  0  0  0  0  0
  151.3812  139.4502  157.2012 H   0  0  0  0  0  0  0  0  0  0  0  0
  1  2  1  0  0  0  0
  1 20  1  0  0  0  0
  1 21  1  0  0  0  0
  1 22  1  0  0  0  0
  2 19  1  0  0  0  0
  2  3  2  0  0  0  0
  3  4  1  0  0  0  0
  3 23  1  0  0  0  0
  4  5  2  0  0  0  0
  5  6  1  0  0  0  0
  5 19  1  0  0  0  0
  6  7  1  0  0  0  0
  6  8  1  0  0  0  0
  6 24  1  0  0  0  0
  7 25  1  0  0  0  0
  7 26  1  0  0  0  0
  7 27  1  0  0  0  0
  8  9  1  0  0  0  0
  8 28  1  0  0  0  0
  8 29  1  0  0  0  0
  9 10  1  0  0  0  0
  9 30  1  0  0  0  0
 10 11  2  0  0  0  0
 10 12  1  0  0  0  0
 12 13  1  0  0  0  0
 12 31  1  0  0  0  0
 13 17  1  0  0  0  0
 13 14  1  0  0  0  0
 13 32  1  0  0  0  0
 14 15  1  0  0  0  0
 14 33  1  0  0  0  0
 14 34  1  0  0  0  0
 15 16  1  0  0  0  0
 15 35  1  0  0  0  0
 15 36  1  0  0  0  0
 16 17  1  0  0  0  0
 17 18  1  0  0  0  0
 17 37  1  0  0  0  0
 18 38  1  0  0  0  0
 18 39  1  0  0  0  0
 18 40  1  0  0  0  0
M  END
> <s_m_source_file>
AV-unprocessed.smi

> <i_m_source_file_index>
2445

> <i_lp_mmshare_version>
43012

> <i_f3d_flags>
0

> <s_epik_input>
W0NIM11jMVtjSF1uYyhzMSlbQ0BIXShbQ0gzXSlbQ0gyXVtOSF1DKD1PKVtOSF1bQ0BASF0yW0NIMl1bQ0gyXU9bQ0BIXTJbQ0gzXQ==

> <s_epik_cmdline>
J2VwaWtfcHl0aG9uJywgJy1waCcsICc3LjAnLCAnLXRuJywgJzgnLCAnLW1hJywgJzIwMCcsICctbWV0YWxfYmluZGluZycsICctaW1hZScsICc8aW5maWxlLm1hZT4nLCAnLW9tYWUnLCAnPG91dGZpbGUubWFlPic=

> <r_epik_Ionization_Penalty>
0.000649483

> <r_epik_Ionization_Penalty_Charging>
0

> <r_epik_Ionization_Penalty_Neutral>
0.000649483

> <r_epik_State_Penalty>
0.000379895

> <r_epik_Charging_Adjusted_Penalty>
0.000379895

> <i_epik_Tot_Q>
0

> <i_epik_Tot_abs_Q>
0

> <r_epik_Metal_State_Penalty>
-0

> <b_epik_Metal_Only>
0

> <s_lp_Force_Field>
OPLS_2005

> <r_lp_Energy>
6.75485

> <b_lp_Chiralities_Consistent>
1

> <s_lp_Variant>
AV-unprocessed.smi:2445-7

> <Gold.Version>
5.8.1

> <Gold.Id.Protein>
6NUR|6NUR_protein|mol2

> <Gold.PLP.Fitness>
51.5734

> <Gold.PLP.PLP>
-44.1634

> <Gold.PLP.part.hbond>
-4.4445

> <Gold.PLP.part.metal>
0.0000

> <Gold.PLP.part.buried>
-5.6553

> <Gold.PLP.part.nonpolar>
-34.4944

> <Gold.PLP.part.repulsive>
0.3543

> <Gold.PLP.ligand.clash>
0.0000

> <Gold.PLP.ligand.torsion>
0.5981

> <Gold.PLP.Chemscore.Hbond>
2.8260

> <Gold.PLP.Chemscore.CHOScore>
0.0000

> <Gold.PLP.Chemscore.Metal>
0.0000

> <Gold.Chemscore.Hbonds>
donor molecule, donor type, donor heavy atom, donor atom, acceptor molecule, acceptor atom, score
      L1  H     9    30       P1  8029  0.80
      L1  H    12    31       P1  8028  0.93
      P1  H  7989  7998       L1    16  1.00

> <Gold.PLP.Chemscore.Internal.Correction>
0.1281

> <Gold.Rescore>
     Score         DG    S(hbond)    S(metal)    S(lipo)     H(rot)  DE(clash)    DE(int)     intcor
     15.80     -19.55       1.17        0.00     120.43       1.53       0.62       3.13       ----

> <Gold.Chemscore.Fitness>
15.7981

> <Gold.Chemscore.DG>
-19.5463

> <Gold.Chemscore.ZeroCoef>
-5.4800

> <Gold.Chemscore.Hbond>
1.1673

> <Gold.Chemscore.Metal>
0.0000

> <Gold.Chemscore.Lipo>
120.4336

> <Gold.Chemscore.Internal_Hbond>
0.0000

> <Gold.Chemscore.DEClash>
0.6222

> <Gold.Chemscore.DEInternal>
3.1260

> <Gold.Chemscore.Rot>
1.5325

> <Gold.Chemscore.Internal.Correction>
   9.000000E+99

> <Gold.Chemscore.Hbonds>
donor molecule, donor type, donor heavy atom, donor atom, acceptor molecule, acceptor atom, score
      L1  H     9    30       P1  8029  0.12
      L1  H    12    31       P1  8028  0.79
      P1  H  7989  7998       L1    16  0.24

> <Gold.Chemscore.Hbond.Weighted>
-3.8989

> <Gold.Chemscore.Metal.Weighted>
-0.0000

> <Gold.Chemscore.Lipo.Weighted>
-14.0907

> <Gold.Chemscore.Internal_Hbond.Weighted>
0.0000

> <Gold.Chemscore.DEClash.Weighted>
0.6222

> <Gold.Chemscore.DEInternal.Weighted>
3.1260

> <Gold.Chemscore.Rot.Weighted>
3.9233

> <Gold.Chemscore.Internal.Correction.Weighted>
   9.000000E+99

> <Gold.Protein.RotatedTorsions>
[ 6907 6896 6895 6894 ] final   55.71 input  -60.11 | X-H torsion
[ 7974 7965 7964 7962 ] final -157.51 input  175.53 | X-H torsion
[ 8008 7997 7996 7995 ] final -145.44 input   59.86 | X-H torsion
[ 10167 10162 10161 10158 ] final    1.95 input  -65.29 | X-H torsion
[ 10718 10713 10712 10709 ] final  155.93 input   66.30 | X-H torsion
[ 10763 10752 10751 10750 ] final  -47.22 input  -60.55 | X-H torsion
[ 11005 11000 10999 10996 ] final  164.50 input  -57.11 | X-H torsion

> <Gold.Protein.ActiveResidues>
 VAL166  LYS551  ARG553  GLY616  TRP617  ASP618  TYR619  PRO620  LYS621  CYS622 
 ASP623  PHE694  ASN695  SER759  ASP760  ASP761  ALA762  ILE779  LEU786  VAL792 
 PHE793  MET794  SER795  GLU796  ALA797  LYS798  CYS799  TRP800  GLU811  SER814 

> <Gold.Protein.RotatedAtoms>
  152.3565  134.6933  160.0220 H   0  0  0  0  0  0  0  0  0  0  0  0  # atno 6907 bound_to 6896
  151.7270  133.3311  159.3338 H   0  0  0  0  0  0  0  0  0  0  0  0  # atno 6908 bound_to 6896
  150.7575  134.6331  159.6241 H   0  0  0  0  0  0  0  0  0  0  0  0  # atno 6909 bound_to 6896
  144.7545  140.3959  143.6022 H   0  0  0  0  0  0  0  0  0  0  0  0  # atno 7974 bound_to 7965
  155.5431  140.0610  157.2866 H   0  0  0  0  0  0  0  0  0  0  0  0  # atno 8008 bound_to 7997
  154.4445  140.1915  156.0655 H   0  0  0  0  0  0  0  0  0  0  0  0  # atno 8009 bound_to 7997
  156.0570  140.3277  155.7421 H   0  0  0  0  0  0  0  0  0  0  0  0  # atno 8010 bound_to 7997
  140.6658  143.7183  150.7825 H   0  0  0  0  0  0  0  0  0  0  0  0  # atno 10167 bound_to 10162
  157.2117  131.0699  151.1965 H   0  0  0  0  0  0  0  0  0  0  0  0  # atno 10718 bound_to 10713
  154.0578  135.6622  153.4808 H   0  0  0  0  0  0  0  0  0  0  0  0  # atno 10763 bound_to 10752
  153.0438  135.5127  154.7688 H   0  0  0  0  0  0  0  0  0  0  0  0  # atno 10764 bound_to 10752
  154.6715  135.3030  154.9702 H   0  0  0  0  0  0  0  0  0  0  0  0  # atno 10765 bound_to 10752
  140.2466  134.8010  157.3462 H   0  0  0  0  0  0  0  0  0  0  0  0  # atno 11005 bound_to 11000
  145.6826  139.1622  143.2692 LP  0  0  0  0  0  0  0  0  0  0  0  0  # atno 17320 bound_to 7965
  146.1538  140.6887  142.9309 LP  0  0  0  0  0  0  0  0  0  0  0  0  # atno 17321 bound_to 7965
  140.0860  143.4923  152.2505 LP  0  0  0  0  0  0  0  0  0  0  0  0  # atno 17342 bound_to 10162
  139.5907  144.7549  151.3409 LP  0  0  0  0  0  0  0  0  0  0  0  0  # atno 17343 bound_to 10162
  157.3665  130.7159  149.6536 LP  0  0  0  0  0  0  0  0  0  0  0  0  # atno 17370 bound_to 10713
  155.9690  130.4211  150.4452 LP  0  0  0  0  0  0  0  0  0  0  0  0  # atno 17371 bound_to 10713
  140.1600  134.4741  155.7901 LP  0  0  0  0  0  0  0  0  0  0  0  0  # atno 17394 bound_to 11000
  141.2205  133.6897  156.7527 LP  0  0  0  0  0  0  0  0  0  0  0  0  # atno 17395 bound_to 11000

$$$$
