AV-unprocessed.smi:3143|AV-procd|sdf|11977|dock4
  -GOLD-   2272017373D 1   1.00000     0.00000
 Structure written by MMmdl.
 37 38  0  0  0  0  0  0  0  0  1 V2000
  151.1059  140.6385  155.9174 C   0  0  0  0  0  0  0  0  0  0  0  0
  151.1850  141.6503  157.0708 C   0  0  1  0  0  0  0  0  0  0  0  0
  149.8350  141.8842  157.6167 N   0  0  0  0  0  0  0  0  0  0  0  0
  149.0743  140.6578  157.8302 C   0  0  0  0  0  0  0  0  0  0  0  0
  147.6245  140.8724  157.3724 C   0  0  0  0  0  0  0  0  0  0  0  0
  147.5016  140.7858  155.9302 N   0  0  0  0  0  0  0  0  0  0  0  0
  148.2339  141.4463  154.9662 C   0  0  0  0  0  0  0  0  0  0  0  0
  147.7572  141.0480  153.7503 C   0  0  0  0  0  0  0  0  0  0  0  0
  146.7200  140.1303  154.0780 C   0  0  0  0  0  0  0  0  0  0  0  0
  146.5700  139.9752  155.3836 N   0  0  0  0  0  0  0  0  0  0  0  0
  152.1990  141.1580  158.1289 C   0  0  0  0  0  0  0  0  0  0  0  0
  152.7679  140.0803  157.9464 O   0  0  0  0  0  0  0  0  0  0  0  0
  152.4393  141.9107  159.2249 N   0  0  0  0  0  0  0  0  0  0  0  0
  151.8036  143.2070  159.4573 C   0  0  0  0  0  0  0  0  0  0  0  0
  152.5317  143.8204  160.6529 C   0  0  0  0  0  0  0  0  0  0  0  0
  153.0623  142.6173  161.4187 C   0  0  0  0  0  0  0  0  0  0  0  0
  153.3309  141.5732  160.3346 C   0  0  0  0  0  0  0  0  0  0  0  0
  152.0851  140.4740  155.4658 H   0  0  0  0  0  0  0  0  0  0  0  0
  150.4408  140.9938  155.1297 H   0  0  0  0  0  0  0  0  0  0  0  0
  150.7300  139.6721  156.2565 H   0  0  0  0  0  0  0  0  0  0  0  0
  151.5153  142.5970  156.6455 H   0  0  0  0  0  0  0  0  0  0  0  0
  149.8746  142.4054  158.4806 H   0  0  0  0  0  0  0  0  0  0  0  0
  149.5125  139.8252  157.2789 H   0  0  0  0  0  0  0  0  0  0  0  0
  149.0934  140.3950  158.8890 H   0  0  0  0  0  0  0  0  0  0  0  0
  146.9673  140.1253  157.8199 H   0  0  0  0  0  0  0  0  0  0  0  0
  147.2603  141.8494  157.6947 H   0  0  0  0  0  0  0  0  0  0  0  0
  149.0235  142.1372  155.2227 H   0  0  0  0  0  0  0  0  0  0  0  0
  148.0973  141.3638  152.7753 H   0  0  0  0  0  0  0  0  0  0  0  0
  146.0769  139.5754  153.4110 H   0  0  0  0  0  0  0  0  0  0  0  0
  151.8624  143.8569  158.5826 H   0  0  0  0  0  0  0  0  0  0  0  0
  150.7499  143.0479  159.6912 H   0  0  0  0  0  0  0  0  0  0  0  0
  153.3677  144.4260  160.3005 H   0  0  0  0  0  0  0  0  0  0  0  0
  151.8880  144.4588  161.2586 H   0  0  0  0  0  0  0  0  0  0  0  0
  153.9473  142.8493  162.0119 H   0  0  0  0  0  0  0  0  0  0  0  0
  152.2921  142.2498  162.0980 H   0  0  0  0  0  0  0  0  0  0  0  0
  153.1552  140.5653  160.7133 H   0  0  0  0  0  0  0  0  0  0  0  0
  154.3652  141.6381  159.9935 H   0  0  0  0  0  0  0  0  0  0  0  0
  1  2  1  0  0  0  0
  1 18  1  0  0  0  0
  1 19  1  0  0  0  0
  1 20  1  0  0  0  0
  2  3  1  0  0  0  0
  2 11  1  0  0  0  0
  2 21  1  0  0  0  0
  3  4  1  0  0  0  0
  3 22  1  0  0  0  0
  4  5  1  0  0  0  0
  4 23  1  0  0  0  0
  4 24  1  0  0  0  0
  5  6  1  0  0  0  0
  5 25  1  0  0  0  0
  5 26  1  0  0  0  0
  6 10  1  0  0  0  0
  6  7  1  0  0  0  0
  7  8  2  0  0  0  0
  7 27  1  0  0  0  0
  8  9  1  0  0  0  0
  8 28  1  0  0  0  0
  9 10  2  0  0  0  0
  9 29  1  0  0  0  0
 11 12  2  0  0  0  0
 11 13  1  0  0  0  0
 13 17  1  0  0  0  0
 13 14  1  0  0  0  0
 14 15  1  0  0  0  0
 14 30  1  0  0  0  0
 14 31  1  0  0  0  0
 15 16  1  0  0  0  0
 15 32  1  0  0  0  0
 15 33  1  0  0  0  0
 16 17  1  0  0  0  0
 16 34  1  0  0  0  0
 16 35  1  0  0  0  0
 17 36  1  0  0  0  0
 17 37  1  0  0  0  0
M  END
> <s_m_source_file>
AV-unprocessed.smi

> <i_m_source_file_index>
3143

> <i_lp_mmshare_version>
43012

> <i_f3d_flags>
0

> <s_epik_input>
W0NIMl0xW0NIMl1bQ0gyXVtDSDJdTjFDKD1PKVtDQEhdKFtDSDNdKVtOSF1bQ0gyXVtDSDJdbjJbY0hdW2NIXVtjSF1uMg==

> <s_epik_cmdline>
J2VwaWtfcHl0aG9uJywgJy1waCcsICc3LjAnLCAnLXRuJywgJzgnLCAnLW1hJywgJzIwMCcsICctbWV0YWxfYmluZGluZycsICctaW1hZScsICc8aW5maWxlLm1hZT4nLCAnLW9tYWUnLCAnPG91dGZpbGUubWFlPic=

> <r_lp_tautomer_probability>
1

> <r_epik_Ionization_Penalty>
0.733724

> <r_epik_Ionization_Penalty_Charging>
0

> <r_epik_Ionization_Penalty_Neutral>
0.733724

> <r_epik_State_Penalty>
0.75825

> <r_epik_Charging_Adjusted_Penalty>
0.75825

> <i_epik_Tot_Q>
0

> <i_epik_Tot_abs_Q>
0

> <r_epik_Metal_State_Penalty>
0.757598

> <b_epik_Metal_Only>
0

> <s_lp_Force_Field>
OPLS_2005

> <r_lp_Energy>
31.5048

> <b_lp_Chiralities_Consistent>
1

> <s_lp_Variant>
AV-unprocessed.smi:3143-4

> <Gold.Version>
5.8.1

> <Gold.Id.Protein>
6NUR|6NUR_protein|mol2

> <Gold.PLP.Fitness>
41.3106

> <Gold.PLP.PLP>
-33.5943

> <Gold.PLP.part.hbond>
-1.0000

> <Gold.PLP.part.metal>
0.0000

> <Gold.PLP.part.buried>
-3.6192

> <Gold.PLP.part.nonpolar>
-28.9993

> <Gold.PLP.part.repulsive>
0.0511

> <Gold.PLP.ligand.clash>
0.0000

> <Gold.PLP.ligand.torsion>
0.5807

> <Gold.PLP.Chemscore.Hbond>
1.0000

> <Gold.PLP.Chemscore.CHOScore>
1.9439

> <Gold.PLP.Chemscore.Metal>
0.0000

> <Gold.Chemscore.Hbonds>
donor molecule, donor type, donor heavy atom, donor atom, acceptor molecule, acceptor atom, score
      P1  H  7997  8009       L1    12  1.00
      L1  C     7    27       P1  8028  0.77
      L1  C     9    29       P1 10175  0.46

> <Gold.PLP.Chemscore.Internal.Correction>
0.0460

> <Gold.Rescore>
     Score         DG    S(hbond)    S(metal)    S(lipo)     H(rot)  DE(clash)    DE(int)     intcor
     13.00     -13.63       0.93        0.00      81.93       1.77       0.06       0.57       ----

> <Gold.Chemscore.Fitness>
12.9994

> <Gold.Chemscore.DG>
-13.6270

> <Gold.Chemscore.ZeroCoef>
-5.4800

> <Gold.Chemscore.Hbond>
0.9278

> <Gold.Chemscore.Metal>
0.0000

> <Gold.Chemscore.Lipo>
81.9301

> <Gold.Chemscore.Internal_Hbond>
0.0000

> <Gold.Chemscore.DEClash>
0.0559

> <Gold.Chemscore.DEInternal>
0.5717

> <Gold.Chemscore.Rot>
1.7726

> <Gold.Chemscore.Internal.Correction>
   9.000000E+99

> <Gold.Chemscore.Hbonds>
donor molecule, donor type, donor heavy atom, donor atom, acceptor molecule, acceptor atom, score
      P1  H  7997  8009       L1    12  0.87

> <Gold.Chemscore.Hbond.Weighted>
-3.0990

> <Gold.Chemscore.Metal.Weighted>
-0.0000

> <Gold.Chemscore.Lipo.Weighted>
-9.5858

> <Gold.Chemscore.Internal_Hbond.Weighted>
0.0000

> <Gold.Chemscore.DEClash.Weighted>
0.0559

> <Gold.Chemscore.DEInternal.Weighted>
0.5717

> <Gold.Chemscore.Rot.Weighted>
4.5378

> <Gold.Chemscore.Internal.Correction.Weighted>
   9.000000E+99

> <Gold.Protein.RotatedTorsions>
[ 6907 6896 6895 6894 ] final   36.12 input  -60.11 | X-H torsion
[ 7974 7965 7964 7962 ] final  -12.20 input  175.53 | X-H torsion
[ 8008 7997 7996 7995 ] final  170.92 input   59.86 | X-H torsion
[ 10167 10162 10161 10158 ] final  -99.86 input  -65.29 | X-H torsion
[ 10718 10713 10712 10709 ] final   92.70 input   66.30 | X-H torsion
[ 10763 10752 10751 10750 ] final  144.04 input  -60.55 | X-H torsion
[ 11005 11000 10999 10996 ] final   -6.75 input  -57.11 | X-H torsion

> <Gold.Protein.ActiveResidues>
 VAL166  LYS551  ARG553  GLY616  TRP617  ASP618  TYR619  PRO620  LYS621  CYS622 
 ASP623  PHE694  ASN695  SER759  ASP760  ASP761  ALA762  ILE779  LEU786  VAL792 
 PHE793  MET794  SER795  GLU796  ALA797  LYS798  CYS799  TRP800  GLU811  SER814 

> <Gold.Protein.RotatedAtoms>
  152.1255  134.9174  160.0560 H   0  0  0  0  0  0  0  0  0  0  0  0  # atno 6907 bound_to 6896
  152.0299  133.3928  159.4301 H   0  0  0  0  0  0  0  0  0  0  0  0  # atno 6908 bound_to 6896
  150.6852  134.3454  159.4929 H   0  0  0  0  0  0  0  0  0  0  0  0  # atno 6909 bound_to 6896
  146.2160  140.3022  142.8376 H   0  0  0  0  0  0  0  0  0  0  0  0  # atno 7974 bound_to 7965
  156.1320  140.1525  156.9050 H   0  0  0  0  0  0  0  0  0  0  0  0  # atno 8008 bound_to 7997
  154.4917  140.0849  156.7648 H   0  0  0  0  0  0  0  0  0  0  0  0  # atno 8009 bound_to 7997
  155.4238  140.3424  155.4276 H   0  0  0  0  0  0  0  0  0  0  0  0  # atno 8010 bound_to 7997
  140.2580  143.3427  152.0652 H   0  0  0  0  0  0  0  0  0  0  0  0  # atno 10167 bound_to 10162
  157.6958  131.0452  150.3922 H   0  0  0  0  0  0  0  0  0  0  0  0  # atno 10718 bound_to 10713
  153.9824  135.2940  155.3419 H   0  0  0  0  0  0  0  0  0  0  0  0  # atno 10763 bound_to 10752
  154.7261  135.5088  153.8892 H   0  0  0  0  0  0  0  0  0  0  0  0  # atno 10764 bound_to 10752
  153.0848  135.6690  154.0085 H   0  0  0  0  0  0  0  0  0  0  0  0  # atno 10765 bound_to 10752
  140.7054  133.8954  155.8712 H   0  0  0  0  0  0  0  0  0  0  0  0  # atno 11005 bound_to 11000
  144.9049  140.7687  143.5844 LP  0  0  0  0  0  0  0  0  0  0  0  0  # atno 17320 bound_to 7965
  145.2950  139.1870  143.4720 LP  0  0  0  0  0  0  0  0  0  0  0  0  # atno 17321 bound_to 7965
  139.5025  144.6737  151.6181 LP  0  0  0  0  0  0  0  0  0  0  0  0  # atno 17342 bound_to 10162
  140.5988  143.9647  150.6372 LP  0  0  0  0  0  0  0  0  0  0  0  0  # atno 17343 bound_to 10162
  156.4324  130.3974  149.6751 LP  0  0  0  0  0  0  0  0  0  0  0  0  # atno 17370 bound_to 10713
  156.3964  130.7653  151.2658 LP  0  0  0  0  0  0  0  0  0  0  0  0  # atno 17371 bound_to 10713
  141.0129  134.0995  157.4202 LP  0  0  0  0  0  0  0  0  0  0  0  0  # atno 17394 bound_to 11000
  139.8885  135.0098  156.6627 LP  0  0  0  0  0  0  0  0  0  0  0  0  # atno 17395 bound_to 11000

$$$$
