AV-unprocessed.smi:1719|AV-procd|sdf|6930|dock4
  -GOLD-   22720 8143D 1   1.00000     0.00000
 Structure written by MMmdl.
 40 41  0  0  0  0  0  0  0  0  1 V2000
  144.4821  135.7409  151.1453 C   0  0  0  0  0  0  0  0  0  0  0  0
  145.7049  136.4542  151.2007 O   0  0  0  0  0  0  0  0  0  0  0  0
  145.6068  137.6400  151.9718 C   0  0  0  0  0  0  0  0  0  0  0  0
  146.6338  138.6576  151.4663 C   0  0  0  0  0  0  0  0  0  0  0  0
  146.2985  139.9451  151.9757 O   0  0  0  0  0  0  0  0  0  0  0  0
  147.0596  140.4656  153.0021 C   0  0  0  0  0  0  0  0  0  0  0  0
  148.3007  139.8648  153.2928 C   0  0  0  0  0  0  0  0  0  0  0  0
  149.0799  140.3842  154.3444 C   0  0  0  0  0  0  0  0  0  0  0  0
  148.5867  141.4879  155.0803 C   0  0  0  0  0  0  0  0  0  0  0  0
  149.2811  142.1098  156.1527 N   0  0  0  0  0  0  0  0  0  0  0  0
  150.3308  141.6437  156.8547 C   0  0  0  0  0  0  0  0  0  0  0  0
  150.8708  140.5544  156.6612 O   0  0  0  0  0  0  0  0  0  0  0  0
  150.8396  142.5565  157.9790 C   0  0  0  0  0  0  0  0  0  0  0  0
  151.3509  143.8992  157.4269 C   0  0  0  0  0  0  0  0  0  0  0  0
  151.9385  144.7577  158.5592 C   0  0  0  0  0  0  0  0  0  0  0  0
  152.9800  144.0466  159.2204 O   0  0  0  0  0  0  0  0  0  0  0  0
  152.5282  142.8460  159.8385 C   0  0  0  0  0  0  0  0  0  0  0  0
  151.9725  141.8843  158.7754 C   0  0  0  0  0  0  0  0  0  0  0  0
  147.3414  142.0278  154.6978 C   0  0  0  0  0  0  0  0  0  0  0  0
  146.5889  141.5339  153.6922 N   0  0  0  0  0  0  0  0  0  0  0  0
  144.6124  134.8359  150.5522 H   0  0  0  0  0  0  0  0  0  0  0  0
  143.6975  136.3380  150.6784 H   0  0  0  0  0  0  0  0  0  0  0  0
  144.1517  135.4455  152.1421 H   0  0  0  0  0  0  0  0  0  0  0  0
  144.6036  138.0554  151.8642 H   0  0  0  0  0  0  0  0  0  0  0  0
  145.7635  137.4325  153.0316 H   0  0  0  0  0  0  0  0  0  0  0  0
  147.6399  138.3606  151.7676 H   0  0  0  0  0  0  0  0  0  0  0  0
  146.6034  138.6808  150.3757 H   0  0  0  0  0  0  0  0  0  0  0  0
  148.6507  139.0208  152.7168 H   0  0  0  0  0  0  0  0  0  0  0  0
  150.0380  139.9358  154.5556 H   0  0  0  0  0  0  0  0  0  0  0  0
  148.8893  142.9836  156.4729 H   0  0  0  0  0  0  0  0  0  0  0  0
  150.0148  142.7613  158.6645 H   0  0  0  0  0  0  0  0  0  0  0  0
  152.1194  143.7325  156.6705 H   0  0  0  0  0  0  0  0  0  0  0  0
  150.5408  144.4396  156.9355 H   0  0  0  0  0  0  0  0  0  0  0  0
  152.3474  145.6831  158.1533 H   0  0  0  0  0  0  0  0  0  0  0  0
  151.1650  145.0389  159.2755 H   0  0  0  0  0  0  0  0  0  0  0  0
  153.3653  142.3832  160.3614 H   0  0  0  0  0  0  0  0  0  0  0  0
  151.7710  143.0745  160.5903 H   0  0  0  0  0  0  0  0  0  0  0  0
  151.6104  140.9739  159.2547 H   0  0  0  0  0  0  0  0  0  0  0  0
  152.7823  141.5853  158.1077 H   0  0  0  0  0  0  0  0  0  0  0  0
  146.9293  142.8788  155.2202 H   0  0  0  0  0  0  0  0  0  0  0  0
  1  2  1  0  0  0  0
  1 21  1  0  0  0  0
  1 22  1  0  0  0  0
  1 23  1  0  0  0  0
  2  3  1  0  0  0  0
  3  4  1  0  0  0  0
  3 24  1  0  0  0  0
  3 25  1  0  0  0  0
  4  5  1  0  0  0  0
  4 26  1  0  0  0  0
  4 27  1  0  0  0  0
  5  6  1  0  0  0  0
  6 20  1  0  0  0  0
  6  7  2  0  0  0  0
  7  8  1  0  0  0  0
  7 28  1  0  0  0  0
  8  9  2  0  0  0  0
  8 29  1  0  0  0  0
  9 10  1  0  0  0  0
  9 19  1  0  0  0  0
 10 11  1  0  0  0  0
 10 30  1  0  0  0  0
 11 12  2  0  0  0  0
 11 13  1  0  0  0  0
 13 18  1  0  0  0  0
 13 14  1  0  0  0  0
 13 31  1  0  0  0  0
 14 15  1  0  0  0  0
 14 32  1  0  0  0  0
 14 33  1  0  0  0  0
 15 16  1  0  0  0  0
 15 34  1  0  0  0  0
 15 35  1  0  0  0  0
 16 17  1  0  0  0  0
 17 18  1  0  0  0  0
 17 36  1  0  0  0  0
 17 37  1  0  0  0  0
 18 38  1  0  0  0  0
 18 39  1  0  0  0  0
 19 20  2  0  0  0  0
 19 40  1  0  0  0  0
M  END
> <s_m_source_file>
AV-unprocessed.smi

> <i_m_source_file_index>
1719

> <i_lp_mmshare_version>
43012

> <i_f3d_flags>
0

> <s_epik_input>
W0NIM11PW0NIMl1bQ0gyXU9jMVtjSF1bY0hdYyhbY0hdbjEpW05IXUMoPU8pW0NIXTJbQ0gyXVtDSDJdT1tDSDJdW0NIMl0y

> <s_epik_cmdline>
J2VwaWtfcHl0aG9uJywgJy1waCcsICc3LjAnLCAnLXRuJywgJzgnLCAnLW1hJywgJzIwMCcsICctbWV0YWxfYmluZGluZycsICctaW1hZScsICc8aW5maWxlLm1hZT4nLCAnLW9tYWUnLCAnPG91dGZpbGUubWFlPic=

> <r_lp_tautomer_probability>
1

> <r_epik_Ionization_Penalty>
2.13501e-05

> <r_epik_Ionization_Penalty_Charging>
0

> <r_epik_Ionization_Penalty_Neutral>
2.13501e-05

> <r_epik_State_Penalty>
-0

> <r_epik_Charging_Adjusted_Penalty>
0

> <i_epik_Tot_Q>
0

> <i_epik_Tot_abs_Q>
0

> <r_epik_Metal_State_Penalty>
-0

> <b_epik_Metal_Only>
0

> <s_lp_Force_Field>
OPLS_2005

> <r_lp_Energy>
15.3527

> <b_lp_Chiralities_Consistent>
1

> <s_lp_Variant>
AV-unprocessed.smi:1719-1

> <Gold.Version>
5.8.1

> <Gold.Id.Protein>
6NUR|6NUR_protein|mol2

> <Gold.PLP.Fitness>
40.0444

> <Gold.PLP.PLP>
-36.1046

> <Gold.PLP.part.hbond>
-1.0000

> <Gold.PLP.part.metal>
0.0000

> <Gold.PLP.part.buried>
3.2904

> <Gold.PLP.part.nonpolar>
-39.2608

> <Gold.PLP.part.repulsive>
1.5497

> <Gold.PLP.ligand.clash>
0.0000

> <Gold.PLP.ligand.torsion>
0.7908

> <Gold.PLP.Chemscore.Hbond>
0.9600

> <Gold.PLP.Chemscore.CHOScore>
0.8406

> <Gold.PLP.Chemscore.Metal>
0.0000

> <Gold.Chemscore.Hbonds>
donor molecule, donor type, donor heavy atom, donor atom, acceptor molecule, acceptor atom, score
      L1  H    10    30       P1  8028  0.62
      L1  C    19    40       P1  8028  0.28

> <Gold.PLP.Chemscore.Internal.Correction>
0.1196

> <Gold.Rescore>
     Score         DG    S(hbond)    S(metal)    S(lipo)     H(rot)  DE(clash)    DE(int)     intcor
      8.86     -14.01       0.46        0.00      98.94       1.79       2.92       2.24       ----

> <Gold.Chemscore.Fitness>
8.8555

> <Gold.Chemscore.DG>
-14.0134

> <Gold.Chemscore.ZeroCoef>
-5.4800

> <Gold.Chemscore.Hbond>
0.4605

> <Gold.Chemscore.Metal>
0.0000

> <Gold.Chemscore.Lipo>
98.9433

> <Gold.Chemscore.Internal_Hbond>
0.0000

> <Gold.Chemscore.DEClash>
2.9161

> <Gold.Chemscore.DEInternal>
2.2418

> <Gold.Chemscore.Rot>
1.7895

> <Gold.Chemscore.Internal.Correction>
   9.000000E+99

> <Gold.Chemscore.Hbonds>
donor molecule, donor type, donor heavy atom, donor atom, acceptor molecule, acceptor atom, score
      L1  H    10    30       P1  8028  0.61

> <Gold.Chemscore.Hbond.Weighted>
-1.5381

> <Gold.Chemscore.Metal.Weighted>
-0.0000

> <Gold.Chemscore.Lipo.Weighted>
-11.5764

> <Gold.Chemscore.Internal_Hbond.Weighted>
0.0000

> <Gold.Chemscore.DEClash.Weighted>
2.9161

> <Gold.Chemscore.DEInternal.Weighted>
2.2418

> <Gold.Chemscore.Rot.Weighted>
4.5810

> <Gold.Chemscore.Internal.Correction.Weighted>
   9.000000E+99

> <Gold.Protein.RotatedTorsions>
[ 6907 6896 6895 6894 ] final -175.51 input  -60.11 | X-H torsion
[ 7974 7965 7964 7962 ] final  -64.90 input  175.53 | X-H torsion
[ 8008 7997 7996 7995 ] final  -83.97 input   59.86 | X-H torsion
[ 10167 10162 10161 10158 ] final   54.22 input  -65.29 | X-H torsion
[ 10718 10713 10712 10709 ] final -175.24 input   66.30 | X-H torsion
[ 10763 10752 10751 10750 ] final  -98.13 input  -60.55 | X-H torsion
[ 11005 11000 10999 10996 ] final -120.72 input  -57.11 | X-H torsion

> <Gold.Protein.ActiveResidues>
 VAL166  LYS551  ARG553  GLY616  TRP617  ASP618  TYR619  PRO620  LYS621  CYS622 
 ASP623  PHE694  ASN695  SER759  ASP760  ASP761  ALA762  ILE779  LEU786  VAL792 
 PHE793  MET794  SER795  GLU796  ALA797  LYS798  CYS799  TRP800  GLU811  SER814 

> <Gold.Protein.RotatedAtoms>
  151.5898  133.3368  159.3025 H   0  0  0  0  0  0  0  0  0  0  0  0  # atno 6907 bound_to 6896
  150.8266  134.7504  159.6830 H   0  0  0  0  0  0  0  0  0  0  0  0  # atno 6908 bound_to 6896
  152.4355  134.5701  159.9970 H   0  0  0  0  0  0  0  0  0  0  0  0  # atno 6909 bound_to 6896
  145.7609  140.8862  143.0430 H   0  0  0  0  0  0  0  0  0  0  0  0  # atno 7974 bound_to 7965
  154.6248  140.0611  156.9659 H   0  0  0  0  0  0  0  0  0  0  0  0  # atno 8008 bound_to 7997
  155.1760  140.3295  155.4365 H   0  0  0  0  0  0  0  0  0  0  0  0  # atno 8009 bound_to 7997
  156.2451  140.1906  156.6859 H   0  0  0  0  0  0  0  0  0  0  0  0  # atno 8010 bound_to 7997
  140.2324  144.3672  150.6409 H   0  0  0  0  0  0  0  0  0  0  0  0  # atno 10167 bound_to 10162
  156.7970  130.9538  151.3119 H   0  0  0  0  0  0  0  0  0  0  0  0  # atno 10718 bound_to 10713
  154.7388  135.5021  153.9087 H   0  0  0  0  0  0  0  0  0  0  0  0  # atno 10763 bound_to 10752
  153.1022  135.6688  153.9660 H   0  0  0  0  0  0  0  0  0  0  0  0  # atno 10764 bound_to 10752
  153.9443  135.3064  155.3420 H   0  0  0  0  0  0  0  0  0  0  0  0  # atno 10765 bound_to 10752
  141.0123  134.0247  157.3397 H   0  0  0  0  0  0  0  0  0  0  0  0  # atno 11005 bound_to 11000
  144.6830  139.9722  143.7482 LP  0  0  0  0  0  0  0  0  0  0  0  0  # atno 17320 bound_to 7965
  146.0265  139.3296  143.0781 LP  0  0  0  0  0  0  0  0  0  0  0  0  # atno 17321 bound_to 7965
  140.6175  143.2173  151.6762 LP  0  0  0  0  0  0  0  0  0  0  0  0  # atno 17342 bound_to 10162
  139.5105  144.3539  152.0626 LP  0  0  0  0  0  0  0  0  0  0  0  0  # atno 17343 bound_to 10162
  157.6573  130.8935  149.9755 LP  0  0  0  0  0  0  0  0  0  0  0  0  # atno 17370 bound_to 10713
  156.1124  130.3649  150.0026 LP  0  0  0  0  0  0  0  0  0  0  0  0  # atno 17371 bound_to 10713
  139.9097  135.0187  156.7638 LP  0  0  0  0  0  0  0  0  0  0  0  0  # atno 17394 bound_to 11000
  140.6713  133.9557  155.7858 LP  0  0  0  0  0  0  0  0  0  0  0  0  # atno 17395 bound_to 11000

$$$$
