AV-unprocessed.smi:740|AV-procd|sdf|3552|dock6
  -GOLD-   22720 0553D 1   1.00000     0.00000
 Structure written by MMmdl.
 45 47  0  0  0  0  0  0  0  0  2 V2000
  153.0046  143.2652  161.1966 C   0  0  0  0  0  0  0  0  0  0  0  0
  152.3654  142.7516  159.9176 C   0  0  0  0  0  0  0  0  0  0  0  0
  152.6445  141.4282  159.5089 C   0  0  0  0  0  0  0  0  0  0  0  0
  152.0470  140.9879  158.3342 C   0  0  0  0  0  0  0  0  0  0  0  0
  152.1248  139.7592  157.6756 N   0  3  0  0  0  0  0  0  0  0  0  0
  151.3616  139.7988  156.5488 C   0  0  0  0  0  0  0  0  0  0  0  0
  150.7947  141.0337  156.4793 N   0  0  0  0  0  0  0  0  0  0  0  0
  149.8880  141.5882  155.4640 C   0  0  0  0  0  0  0  0  0  0  0  0
  149.2086  140.4980  154.6124 C   0  0  2  0  0  0  0  0  0  0  0  0
  150.1769  139.9111  153.7650 O   0  0  0  0  0  0  0  0  0  0  0  0
  148.0740  141.0813  153.7445 C   0  0  0  0  0  0  0  0  0  0  0  0
  146.8651  141.3579  154.5288 N   0  0  0  0  0  0  0  0  0  0  0  0
  146.2108  142.5272  154.5128 C   0  0  0  0  0  0  0  0  0  0  0  0
  146.5109  143.5203  153.8506 O   0  0  0  0  0  0  0  0  0  0  0  0
  145.0102  142.4940  155.4480 C   0  0  0  0  0  0  0  0  0  0  0  0
  145.0677  141.0807  156.0473 C   0  0  2  0  0  0  0  0  0  0  0  0
  145.1899  141.0627  157.5800 C   0  0  0  0  0  0  0  0  0  0  0  0
  146.3009  140.4824  155.3729 C   0  0  0  0  0  0  0  0  0  0  0  0
  146.6973  139.3400  155.6043 O   0  0  0  0  0  0  0  0  0  0  0  0
  151.1947  141.8115  157.5729 C   0  0  0  0  0  0  0  0  0  0  0  0
  150.9088  143.1181  157.9627 C   0  0  0  0  0  0  0  0  0  0  0  0
  151.5098  143.5864  159.1531 C   0  0  0  0  0  0  0  0  0  0  0  0
  151.2198  145.0095  159.5993 C   0  0  0  0  0  0  0  0  0  0  0  0
  153.5953  142.4904  161.6862 H   0  0  0  0  0  0  0  0  0  0  0  0
  152.2420  143.5968  161.9016 H   0  0  0  0  0  0  0  0  0  0  0  0
  153.6670  144.1041  160.9818 H   0  0  0  0  0  0  0  0  0  0  0  0
  153.2964  140.7872  160.0843 H   0  0  0  0  0  0  0  0  0  0  0  0
  151.2294  138.9956  155.8383 H   0  0  0  0  0  0  0  0  0  0  0  0
  149.1307  142.1610  156.0005 H   0  0  0  0  0  0  0  0  0  0  0  0
  150.4278  142.3040  154.8435 H   0  0  0  0  0  0  0  0  0  0  0  0
  148.8161  139.7279  155.2778 H   0  0  0  0  0  0  0  0  0  0  0  0
  149.7883  139.7726  152.9148 H   0  0  0  0  0  0  0  0  0  0  0  0
  148.4048  142.0205  153.2973 H   0  0  0  0  0  0  0  0  0  0  0  0
  147.8590  140.4254  152.8988 H   0  0  0  0  0  0  0  0  0  0  0  0
  145.1029  143.2738  156.2050 H   0  0  0  0  0  0  0  0  0  0  0  0
  144.0881  142.6599  154.8899 H   0  0  0  0  0  0  0  0  0  0  0  0
  144.1894  140.5112  155.7407 H   0  0  0  0  0  0  0  0  0  0  0  0
  145.1909  140.0418  157.9631 H   0  0  0  0  0  0  0  0  0  0  0  0
  144.3522  141.5852  158.0424 H   0  0  0  0  0  0  0  0  0  0  0  0
  146.1081  141.5464  157.9161 H   0  0  0  0  0  0  0  0  0  0  0  0
  150.2604  143.7558  157.3809 H   0  0  0  0  0  0  0  0  0  0  0  0
  150.5914  145.5340  158.8788 H   0  0  0  0  0  0  0  0  0  0  0  0
  152.1454  145.5757  159.7053 H   0  0  0  0  0  0  0  0  0  0  0  0
  150.7006  145.0104  160.5580 H   0  0  0  0  0  0  0  0  0  0  0  0
  152.6589  138.9517  157.9708 H   0  0  0  0  0  0  0  0  0  0  0  0
  1  2  1  0  0  0  0
  1 24  1  0  0  0  0
  1 25  1  0  0  0  0
  1 26  1  0  0  0  0
  2 22  1  0  0  0  0
  2  3  2  0  0  0  0
  3  4  1  0  0  0  0
  3 27  1  0  0  0  0
  4 20  2  0  0  0  0
  4  5  1  0  0  0  0
  5  6  2  0  0  0  0
  5 45  1  0  0  0  0
  6  7  1  0  0  0  0
  6 28  1  0  0  0  0
  7  8  1  0  0  0  0
  7 20  1  0  0  0  0
  8  9  1  0  0  0  0
  8 29  1  0  0  0  0
  8 30  1  0  0  0  0
  9 10  1  0  0  0  0
  9 11  1  0  0  0  0
  9 31  1  0  0  0  0
 10 32  1  0  0  0  0
 11 12  1  0  0  0  0
 11 33  1  0  0  0  0
 11 34  1  0  0  0  0
 12 18  1  0  0  0  0
 12 13  1  0  0  0  0
 13 14  2  0  0  0  0
 13 15  1  0  0  0  0
 15 16  1  0  0  0  0
 15 35  1  0  0  0  0
 15 36  1  0  0  0  0
 16 17  1  0  0  0  0
 16 18  1  0  0  0  0
 16 37  1  0  0  0  0
 17 38  1  0  0  0  0
 17 39  1  0  0  0  0
 17 40  1  0  0  0  0
 18 19  2  0  0  0  0
 20 21  1  0  0  0  0
 21 22  2  0  0  0  0
 21 41  1  0  0  0  0
 22 23  1  0  0  0  0
 23 42  1  0  0  0  0
 23 43  1  0  0  0  0
 23 44  1  0  0  0  0
M  CHG  1   5   1
M  END
> <s_m_source_file>
AV-unprocessed.smi

> <i_m_source_file_index>
740

> <i_lp_mmshare_version>
43012

> <i_f3d_flags>
0

> <s_epik_input>
W0NIM11jKFtjSF0xKWMoW0NIM10pW2NIXWMoYzEyKW4oW2NIXW4yKVtDSDJdW0NASF0oW09IXSlbQ0gyXU4zQyg9TylbQ0gyXVtDQEBIXShbQ0gzXSlDMz1P

> <s_epik_cmdline>
J2VwaWtfcHl0aG9uJywgJy1waCcsICc3LjAnLCAnLXRuJywgJzgnLCAnLW1hJywgJzIwMCcsICctbWV0YWxfYmluZGluZycsICctaW1hZScsICc8aW5maWxlLm1hZT4nLCAnLW9tYWUnLCAnPG91dGZpbGUubWFlPic=

> <r_lp_tautomer_probability>
1

> <r_epik_Ionization_Penalty>
1.08202

> <r_epik_Ionization_Penalty_Charging>
1.08202

> <r_epik_Ionization_Penalty_Neutral>
1.16605e-06

> <r_epik_State_Penalty>
1.13754

> <r_epik_Charging_Adjusted_Penalty>
2.21956

> <i_epik_Tot_Q>
1

> <i_epik_Tot_abs_Q>
1

> <r_epik_Metal_State_Penalty>
5.13645

> <b_epik_Metal_Only>
0

> <s_lp_Force_Field>
OPLS_2005

> <r_lp_Energy>
22.2654

> <b_lp_Chiralities_Consistent>
1

> <s_lp_Variant>
AV-unprocessed.smi:740-7

> <Gold.Version>
5.8.1

> <Gold.Id.Protein>
6NUR|6NUR_protein|mol2

> <Gold.PLP.Fitness>
48.8381

> <Gold.PLP.PLP>
-44.1815

> <Gold.PLP.part.hbond>
-3.0000

> <Gold.PLP.part.metal>
0.0000

> <Gold.PLP.part.buried>
-4.4309

> <Gold.PLP.part.nonpolar>
-37.5711

> <Gold.PLP.part.repulsive>
0.3257

> <Gold.PLP.ligand.clash>
0.0000

> <Gold.PLP.ligand.torsion>
0.5352

> <Gold.PLP.Chemscore.Hbond>
1.9012

> <Gold.PLP.Chemscore.CHOScore>
0.0000

> <Gold.PLP.Chemscore.Metal>
0.0000

> <Gold.Chemscore.Hbonds>
donor molecule, donor type, donor heavy atom, donor atom, acceptor molecule, acceptor atom, score
      L1  H    10    32       P1  7957  1.00
      P1  H  7989  7998       L1    10  0.86
      P1  H  8022  8030       L1    14  0.01

> <Gold.PLP.Chemscore.Internal.Correction>
0.0234

> <Gold.Rescore>
     Score         DG    S(hbond)    S(metal)    S(lipo)     H(rot)  DE(clash)    DE(int)     intcor
     14.89     -16.57       1.52        0.00     103.30       2.37       0.04       1.64       ----

> <Gold.Chemscore.Fitness>
14.8886

> <Gold.Chemscore.DG>
-16.5690

> <Gold.Chemscore.ZeroCoef>
-5.4800

> <Gold.Chemscore.Hbond>
1.5197

> <Gold.Chemscore.Metal>
0.0000

> <Gold.Chemscore.Lipo>
103.3034

> <Gold.Chemscore.Internal_Hbond>
0.0000

> <Gold.Chemscore.DEClash>
0.0376

> <Gold.Chemscore.DEInternal>
1.6427

> <Gold.Chemscore.Rot>
2.3724

> <Gold.Chemscore.Internal.Correction>
   9.000000E+99

> <Gold.Chemscore.Hbonds>
donor molecule, donor type, donor heavy atom, donor atom, acceptor molecule, acceptor atom, score
      L1  H    10    32       P1  7957  0.98
      P1  H  7989  7998       L1    10  0.40
      P1  H  8022  8030       L1    14  0.02

> <Gold.Chemscore.Hbond.Weighted>
-5.0759

> <Gold.Chemscore.Metal.Weighted>
-0.0000

> <Gold.Chemscore.Lipo.Weighted>
-12.0865

> <Gold.Chemscore.Internal_Hbond.Weighted>
0.0000

> <Gold.Chemscore.DEClash.Weighted>
0.0376

> <Gold.Chemscore.DEInternal.Weighted>
1.6427

> <Gold.Chemscore.Rot.Weighted>
6.0734

> <Gold.Chemscore.Internal.Correction.Weighted>
   9.000000E+99

> <Gold.Protein.RotatedTorsions>
[ 6907 6896 6895 6894 ] final   -2.77 input  -60.11 | X-H torsion
[ 7974 7965 7964 7962 ] final  -66.10 input  175.53 | X-H torsion
[ 8008 7997 7996 7995 ] final   91.02 input   59.86 | X-H torsion
[ 10167 10162 10161 10158 ] final  175.88 input  -65.29 | X-H torsion
[ 10718 10713 10712 10709 ] final -117.12 input   66.30 | X-H torsion
[ 10763 10752 10751 10750 ] final   87.44 input  -60.55 | X-H torsion
[ 11005 11000 10999 10996 ] final  162.35 input  -57.11 | X-H torsion

> <Gold.Protein.ActiveResidues>
 VAL166  LYS551  ARG553  GLY616  TRP617  ASP618  TYR619  PRO620  LYS621  CYS622 
 ASP623  PHE694  ASN695  SER759  ASP760  ASP761  ALA762  ILE779  LEU786  VAL792 
 PHE793  MET794  SER795  GLU796  ALA797  LYS798  CYS799  TRP800  GLU811  SER814 

> <Gold.Protein.RotatedAtoms>
  151.5245  135.1067  159.9886 H   0  0  0  0  0  0  0  0  0  0  0  0  # atno 6907 bound_to 6896
  152.4606  133.7809  159.6861 H   0  0  0  0  0  0  0  0  0  0  0  0  # atno 6908 bound_to 6896
  150.8566  133.7641  159.3032 H   0  0  0  0  0  0  0  0  0  0  0  0  # atno 6909 bound_to 6896
  145.7460  140.8931  143.0505 H   0  0  0  0  0  0  0  0  0  0  0  0  # atno 7974 bound_to 7965
  156.0189  140.3342  155.7018 H   0  0  0  0  0  0  0  0  0  0  0  0  # atno 8008 bound_to 7997
  155.6051  140.0659  157.2740 H   0  0  0  0  0  0  0  0  0  0  0  0  # atno 8009 bound_to 7997
  154.4308  140.1803  156.1202 H   0  0  0  0  0  0  0  0  0  0  0  0  # atno 8010 bound_to 7997
  139.5193  144.2980  152.0405 H   0  0  0  0  0  0  0  0  0  0  0  0  # atno 10167 bound_to 10162
  156.1011  130.6173  150.9123 H   0  0  0  0  0  0  0  0  0  0  0  0  # atno 10718 bound_to 10713
  153.1669  135.4543  154.9849 H   0  0  0  0  0  0  0  0  0  0  0  0  # atno 10763 bound_to 10752
  154.7938  135.3230  154.7718 H   0  0  0  0  0  0  0  0  0  0  0  0  # atno 10764 bound_to 10752
  153.8199  135.6947  153.4883 H   0  0  0  0  0  0  0  0  0  0  0  0  # atno 10765 bound_to 10752
  140.2249  134.8168  157.3258 H   0  0  0  0  0  0  0  0  0  0  0  0  # atno 11005 bound_to 11000
  144.6860  139.9526  143.7478 LP  0  0  0  0  0  0  0  0  0  0  0  0  # atno 17320 bound_to 7965
  146.0402  139.3415  143.0702 LP  0  0  0  0  0  0  0  0  0  0  0  0  # atno 17321 bound_to 7965
  140.2428  144.4251  150.6253 LP  0  0  0  0  0  0  0  0  0  0  0  0  # atno 17342 bound_to 10162
  140.6279  143.2183  151.6558 LP  0  0  0  0  0  0  0  0  0  0  0  0  # atno 17343 bound_to 10162
  157.6181  131.0932  150.8673 LP  0  0  0  0  0  0  0  0  0  0  0  0  # atno 17370 bound_to 10713
  156.8800  130.5176  149.5291 LP  0  0  0  0  0  0  0  0  0  0  0  0  # atno 17371 bound_to 10713
  140.1811  134.4489  155.7772 LP  0  0  0  0  0  0  0  0  0  0  0  0  # atno 17394 bound_to 11000
  141.2221  133.6984  156.7869 LP  0  0  0  0  0  0  0  0  0  0  0  0  # atno 17395 bound_to 11000

$$$$
