AV-unprocessed.smi:2766|AV-procd|sdf|10645|dock1
  -GOLD-   2272015 93D 1   1.00000     0.00000
 Structure written by MMmdl.
 32 33  0  0  0  0  0  0  0  0  1 V2000
  147.0361  140.1818  153.1562 C   0  0  0  0  0  0  0  0  0  0  0  0
  147.8962  140.1678  154.2817 O   0  0  0  0  0  0  0  0  0  0  0  0
  147.7899  141.3460  155.0641 C   0  0  0  0  0  0  0  0  0  0  0  0
  148.8189  141.2912  156.2051 C   0  0  1  0  0  0  0  0  0  0  0  0
  148.5019  140.1930  157.0376 O   0  0  0  0  0  0  0  0  0  0  0  0
  150.2592  141.1336  155.6713 C   0  0  0  0  0  0  0  0  0  0  0  0
  151.2484  140.9607  156.7287 N   0  0  0  0  0  0  0  0  0  0  0  0
  152.0571  139.8929  156.9600 C   0  0  0  0  0  0  0  0  0  0  0  0
  152.0113  138.6472  156.1176 C   0  0  0  0  0  0  0  0  0  0  0  0
  152.3761  138.9080  154.8612 F   0  0  0  0  0  0  0  0  0  0  0  0
  152.8452  137.7271  156.6022 F   0  0  0  0  0  0  0  0  0  0  0  0
  150.7827  138.1338  156.0819 F   0  0  0  0  0  0  0  0  0  0  0  0
  152.8708  140.0057  158.0129 N   0  0  0  0  0  0  0  0  0  0  0  0
  152.5599  141.2545  158.5111 C   0  0  0  0  0  0  0  0  0  0  0  0
  153.0799  141.9533  159.6241 C   0  0  0  0  0  0  0  0  0  0  0  0
  152.5930  143.2353  159.9529 C   0  0  0  0  0  0  0  0  0  0  0  0
  151.5809  143.8348  159.1758 C   0  0  0  0  0  0  0  0  0  0  0  0
  151.0502  143.1554  158.0623 C   0  0  0  0  0  0  0  0  0  0  0  0
  151.5420  141.8769  157.7356 C   0  0  0  0  0  0  0  0  0  0  0  0
  148.7506  142.2033  156.7976 H   0  0  0  0  0  0  0  0  0  0  0  0
  147.1540  139.2556  152.5940 H   0  0  0  0  0  0  0  0  0  0  0  0
  147.2735  141.0121  152.4898 H   0  0  0  0  0  0  0  0  0  0  0  0
  145.9908  140.2616  153.4576 H   0  0  0  0  0  0  0  0  0  0  0  0
  147.9226  142.2431  154.4562 H   0  0  0  0  0  0  0  0  0  0  0  0
  146.7819  141.3856  155.4804 H   0  0  0  0  0  0  0  0  0  0  0  0
  148.7723  140.3958  157.9197 H   0  0  0  0  0  0  0  0  0  0  0  0
  150.3197  140.2761  154.9997 H   0  0  0  0  0  0  0  0  0  0  0  0
  150.5340  142.0000  155.0707 H   0  0  0  0  0  0  0  0  0  0  0  0
  153.8535  141.5010  160.2267 H   0  0  0  0  0  0  0  0  0  0  0  0
  152.9970  143.7603  160.8061 H   0  0  0  0  0  0  0  0  0  0  0  0
  151.2126  144.8168  159.4345 H   0  0  0  0  0  0  0  0  0  0  0  0
  150.2758  143.6135  157.4653 H   0  0  0  0  0  0  0  0  0  0  0  0
  1  2  1  0  0  0  0
  1 21  1  0  0  0  0
  1 22  1  0  0  0  0
  1 23  1  0  0  0  0
  2  3  1  0  0  0  0
  3  4  1  0  0  0  0
  3 24  1  0  0  0  0
  3 25  1  0  0  0  0
  4 20  1  0  0  0  0
  4  5  1  0  0  0  0
  4  6  1  0  0  0  0
  5 26  1  0  0  0  0
  6  7  1  0  0  0  0
  6 27  1  0  0  0  0
  6 28  1  0  0  0  0
  7 19  1  0  0  0  0
  7  8  1  0  0  0  0
  8  9  1  0  0  0  0
  8 13  2  0  0  0  0
  9 10  1  0  0  0  0
  9 11  1  0  0  0  0
  9 12  1  0  0  0  0
 13 14  1  0  0  0  0
 14 19  2  0  0  0  0
 14 15  1  0  0  0  0
 15 16  2  0  0  0  0
 15 29  1  0  0  0  0
 16 17  1  0  0  0  0
 16 30  1  0  0  0  0
 17 18  2  0  0  0  0
 17 31  1  0  0  0  0
 18 19  1  0  0  0  0
 18 32  1  0  0  0  0
M  END
> <s_m_source_file>
AV-unprocessed.smi

> <i_m_source_file_index>
2766

> <i_lp_mmshare_version>
43012

> <i_f3d_flags>
0

> <s_epik_input>
W0NIM11PW0NIMl1bQ0BASF0oW09IXSlbQ0gyXW4oYyhuMSlDKEYpKEYpRiljKGMxMilbY0hdW2NIXVtjSF1bY0hdMg==

> <s_epik_cmdline>
J2VwaWtfcHl0aG9uJywgJy1waCcsICc3LjAnLCAnLXRuJywgJzgnLCAnLW1hJywgJzIwMCcsICctbWV0YWxfYmluZGluZycsICctaW1hZScsICc8aW5maWxlLm1hZT4nLCAnLW9tYWUnLCAnPG91dGZpbGUubWFlPic=

> <r_epik_Ionization_Penalty>
0.00044827

> <r_epik_Ionization_Penalty_Charging>
0

> <r_epik_Ionization_Penalty_Neutral>
0.00044827

> <r_epik_State_Penalty>
0.000276591

> <r_epik_Charging_Adjusted_Penalty>
0.000276591

> <i_epik_Tot_Q>
0

> <i_epik_Tot_abs_Q>
0

> <r_epik_Metal_State_Penalty>
-0

> <b_epik_Metal_Only>
0

> <s_lp_Force_Field>
OPLS_2005

> <r_lp_Energy>
13.5685

> <b_lp_Chiralities_Consistent>
1

> <s_lp_Variant>
AV-unprocessed.smi:2766-1

> <Gold.Version>
5.8.1

> <Gold.Id.Protein>
6NUR|6NUR_protein|mol2

> <Gold.PLP.Fitness>
39.4276

> <Gold.PLP.PLP>
-36.5894

> <Gold.PLP.part.hbond>
-1.0000

> <Gold.PLP.part.metal>
0.0000

> <Gold.PLP.part.buried>
-2.5301

> <Gold.PLP.part.nonpolar>
-32.3938

> <Gold.PLP.part.repulsive>
0.1222

> <Gold.PLP.ligand.clash>
0.0000

> <Gold.PLP.ligand.torsion>
0.0576

> <Gold.PLP.Chemscore.Hbond>
0.9760

> <Gold.PLP.Chemscore.CHOScore>
0.0000

> <Gold.PLP.Chemscore.Metal>
0.0000

> <Gold.Chemscore.Hbonds>
donor molecule, donor type, donor heavy atom, donor atom, acceptor molecule, acceptor atom, score
      P1  H  7997  8009       L1    13  0.94

> <Gold.PLP.Chemscore.Internal.Correction>
0.0253

> <Gold.Rescore>
     Score         DG    S(hbond)    S(metal)    S(lipo)     H(rot)  DE(clash)    DE(int)     intcor
     11.43     -11.50       0.31        0.00      93.18       2.32       0.04       0.03       ----

> <Gold.Chemscore.Fitness>
11.4325

> <Gold.Chemscore.DG>
-11.5000

> <Gold.Chemscore.ZeroCoef>
-5.4800

> <Gold.Chemscore.Hbond>
0.3137

> <Gold.Chemscore.Metal>
0.0000

> <Gold.Chemscore.Lipo>
93.1812

> <Gold.Chemscore.Internal_Hbond>
0.0000

> <Gold.Chemscore.DEClash>
0.0412

> <Gold.Chemscore.DEInternal>
0.0263

> <Gold.Chemscore.Rot>
2.3164

> <Gold.Chemscore.Internal.Correction>
   9.000000E+99

> <Gold.Chemscore.Hbonds>
donor molecule, donor type, donor heavy atom, donor atom, acceptor molecule, acceptor atom, score
      P1  H  7997  8009       L1    13  0.15

> <Gold.Chemscore.Hbond.Weighted>
-1.0477

> <Gold.Chemscore.Metal.Weighted>
-0.0000

> <Gold.Chemscore.Lipo.Weighted>
-10.9022

> <Gold.Chemscore.Internal_Hbond.Weighted>
0.0000

> <Gold.Chemscore.DEClash.Weighted>
0.0412

> <Gold.Chemscore.DEInternal.Weighted>
0.0263

> <Gold.Chemscore.Rot.Weighted>
5.9299

> <Gold.Chemscore.Internal.Correction.Weighted>
   9.000000E+99

> <Gold.Protein.RotatedTorsions>
[ 6907 6896 6895 6894 ] final  163.15 input  -60.11 | X-H torsion
[ 7974 7965 7964 7962 ] final   40.60 input  175.53 | X-H torsion
[ 8008 7997 7996 7995 ] final  150.71 input   59.86 | X-H torsion
[ 10167 10162 10161 10158 ] final -111.70 input  -65.29 | X-H torsion
[ 10718 10713 10712 10709 ] final  -58.06 input   66.30 | X-H torsion
[ 10763 10752 10751 10750 ] final -161.55 input  -60.55 | X-H torsion
[ 11005 11000 10999 10996 ] final  -84.93 input  -57.11 | X-H torsion

> <Gold.Protein.ActiveResidues>
 VAL166  LYS551  ARG553  GLY616  TRP617  ASP618  TYR619  PRO620  LYS621  CYS622 
 ASP623  PHE694  ASN695  SER759  ASP760  ASP761  ALA762  ILE779  LEU786  VAL792 
 PHE793  MET794  SER795  GLU796  ALA797  LYS798  CYS799  TRP800  GLU811  SER814 

> <Gold.Protein.RotatedAtoms>
  151.9296  133.3607  159.3925 H   0  0  0  0  0  0  0  0  0  0  0  0  # atno 6907 bound_to 6896
  150.7020  134.4551  159.5363 H   0  0  0  0  0  0  0  0  0  0  0  0  # atno 6908 bound_to 6896
  152.2189  134.8432  160.0539 H   0  0  0  0  0  0  0  0  0  0  0  0  # atno 6909 bound_to 6896
  146.0891  139.5514  142.9487 H   0  0  0  0  0  0  0  0  0  0  0  0  # atno 7974 bound_to 7965
  156.2704  140.2067  156.6060 H   0  0  0  0  0  0  0  0  0  0  0  0  # atno 8008 bound_to 7997
  154.6869  140.0534  157.0347 H   0  0  0  0  0  0  0  0  0  0  0  0  # atno 8009 bound_to 7997
  155.0922  140.3197  155.4573 H   0  0  0  0  0  0  0  0  0  0  0  0  # atno 8010 bound_to 7997
  140.1307  143.4363  152.1629 H   0  0  0  0  0  0  0  0  0  0  0  0  # atno 10167 bound_to 10162
  156.1163  130.4170  150.0525 H   0  0  0  0  0  0  0  0  0  0  0  0  # atno 10718 bound_to 10713
  154.7293  135.3043  154.8918 H   0  0  0  0  0  0  0  0  0  0  0  0  # atno 10763 bound_to 10752
  153.9766  135.6735  153.4753 H   0  0  0  0  0  0  0  0  0  0  0  0  # atno 10764 bound_to 10752
  153.0904  135.4962  154.8598 H   0  0  0  0  0  0  0  0  0  0  0  0  # atno 10765 bound_to 10752
  141.1646  133.7372  156.8940 H   0  0  0  0  0  0  0  0  0  0  0  0  # atno 11005 bound_to 11000
  145.6072  141.0345  143.1986 LP  0  0  0  0  0  0  0  0  0  0  0  0  # atno 17320 bound_to 7965
  144.7347  139.7620  143.7334 LP  0  0  0  0  0  0  0  0  0  0  0  0  # atno 17321 bound_to 7965
  139.5521  144.7345  151.4403 LP  0  0  0  0  0  0  0  0  0  0  0  0  # atno 17342 bound_to 10162
  140.6819  143.8063  150.7132 LP  0  0  0  0  0  0  0  0  0  0  0  0  # atno 17343 bound_to 10162
  156.8475  130.9447  151.3628 LP  0  0  0  0  0  0  0  0  0  0  0  0  # atno 17370 bound_to 10713
  157.6347  130.8757  149.9337 LP  0  0  0  0  0  0  0  0  0  0  0  0  # atno 17371 bound_to 10713
  140.1629  134.9153  157.2737 LP  0  0  0  0  0  0  0  0  0  0  0  0  # atno 17394 bound_to 11000
  140.2591  134.3593  155.7413 LP  0  0  0  0  0  0  0  0  0  0  0  0  # atno 17395 bound_to 11000

$$$$
