AV-unprocessed.smi:2442|AV-procd|sdf|9628|dock1
  -GOLD-   2272013263D 1   1.00000     0.00000
 Structure written by MMmdl.
 47 48  0  0  0  0  0  0  0  0  2 V2000
  152.7109  138.7242  154.4800 C   0  0  0  0  0  0  0  0  0  0  0  0
  151.3153  138.5225  154.3240 O   0  0  0  0  0  0  0  0  0  0  0  0
  150.5776  138.5642  155.5422 C   0  0  1  0  0  0  0  0  0  0  0  0
  150.9266  139.8342  156.3472 C   0  0  0  0  0  0  0  0  0  0  0  0
  150.4832  141.1126  155.6176 C   0  0  0  0  0  0  0  0  0  0  0  0
  148.9829  141.0721  155.2901 C   0  0  0  0  0  0  0  0  0  0  0  0
  148.6224  139.8163  154.4809 C   0  0  0  0  0  0  0  0  0  0  0  0
  149.0678  138.5305  155.2047 C   0  0  1  0  0  0  0  0  0  0  0  0
  148.7340  137.3630  154.3923 N   0  0  0  0  0  0  0  0  0  0  0  0
  148.0725  136.2818  154.8266 C   0  0  0  0  0  0  0  0  0  0  0  0
  147.6490  136.1446  155.9749 O   0  0  0  0  0  0  0  0  0  0  0  0
  147.9343  135.3605  153.8630 N   0  0  0  0  0  0  0  0  0  0  0  0
  147.2672  134.0759  154.0368 C   0  0  0  0  0  0  0  0  0  0  0  0
  147.2782  133.2532  152.7367 C   0  0  0  0  0  0  0  0  0  0  0  0
  146.0136  133.4566  151.9167 C   0  0  0  0  0  0  0  0  0  0  0  0
  145.6063  134.7701  151.5918 C   0  0  0  0  0  0  0  0  0  0  0  0
  144.4336  134.9669  150.8360 C   0  0  0  0  0  0  0  0  0  0  0  0
  143.7109  133.9019  150.4298 N   0  3  0  0  0  0  0  0  0  0  0  0
  144.0596  132.6293  150.7171 C   0  0  0  0  0  0  0  0  0  0  0  0
  145.2234  132.3641  151.4721 C   0  0  0  0  0  0  0  0  0  0  0  0
  145.5959  130.9250  151.7846 C   0  0  0  0  0  0  0  0  0  0  0  0
  153.1960  138.6638  153.5059 H   0  0  0  0  0  0  0  0  0  0  0  0
  153.1497  137.9568  155.1188 H   0  0  0  0  0  0  0  0  0  0  0  0
  152.9361  139.7029  154.9030 H   0  0  0  0  0  0  0  0  0  0  0  0
  150.8170  137.6855  156.1437 H   0  0  0  0  0  0  0  0  0  0  0  0
  150.4290  139.7885  157.3168 H   0  0  0  0  0  0  0  0  0  0  0  0
  151.9936  139.8794  156.5628 H   0  0  0  0  0  0  0  0  0  0  0  0
  150.7055  141.9863  156.2308 H   0  0  0  0  0  0  0  0  0  0  0  0
  151.0573  141.2274  154.6973 H   0  0  0  0  0  0  0  0  0  0  0  0
  148.4065  141.0879  156.2160 H   0  0  0  0  0  0  0  0  0  0  0  0
  148.6998  141.9663  154.7342 H   0  0  0  0  0  0  0  0  0  0  0  0
  147.5460  139.7922  154.3058 H   0  0  0  0  0  0  0  0  0  0  0  0
  149.0931  139.8724  153.4982 H   0  0  0  0  0  0  0  0  0  0  0  0
  148.5070  138.4675  156.1394 H   0  0  0  0  0  0  0  0  0  0  0  0
  149.0464  137.3770  153.4326 H   0  0  0  0  0  0  0  0  0  0  0  0
  148.3168  135.5611  152.9501 H   0  0  0  0  0  0  0  0  0  0  0  0
  147.7423  133.5232  154.8489 H   0  0  0  0  0  0  0  0  0  0  0  0
  146.2398  134.2619  154.3511 H   0  0  0  0  0  0  0  0  0  0  0  0
  148.1406  133.5377  152.1321 H   0  0  0  0  0  0  0  0  0  0  0  0
  147.4103  132.1928  152.9516 H   0  0  0  0  0  0  0  0  0  0  0  0
  146.1858  135.6213  151.9195 H   0  0  0  0  0  0  0  0  0  0  0  0
  144.0550  135.9366  150.5471 H   0  0  0  0  0  0  0  0  0  0  0  0
  143.3982  131.8650  150.3356 H   0  0  0  0  0  0  0  0  0  0  0  0
  144.8118  130.2367  151.4677 H   0  0  0  0  0  0  0  0  0  0  0  0
  145.7478  130.7857  152.8550 H   0  0  0  0  0  0  0  0  0  0  0  0
  146.5142  130.6484  151.2660 H   0  0  0  0  0  0  0  0  0  0  0  0
  142.8651  134.0651  149.8829 H   0  0  0  0  0  0  0  0  0  0  0  0
  1  2  1  0  0  0  0
  1 22  1  0  0  0  0
  1 23  1  0  0  0  0
  1 24  1  0  0  0  0
  2  3  1  0  0  0  0
  3  8  1  0  0  0  0
  3  4  1  0  0  0  0
  3 25  1  0  0  0  0
  4  5  1  0  0  0  0
  4 26  1  0  0  0  0
  4 27  1  0  0  0  0
  5  6  1  0  0  0  0
  5 28  1  0  0  0  0
  5 29  1  0  0  0  0
  6  7  1  0  0  0  0
  6 30  1  0  0  0  0
  6 31  1  0  0  0  0
  7  8  1  0  0  0  0
  7 32  1  0  0  0  0
  7 33  1  0  0  0  0
  8  9  1  0  0  0  0
  8 34  1  0  0  0  0
  9 10  1  0  0  0  0
  9 35  1  0  0  0  0
 10 11  2  0  0  0  0
 10 12  1  0  0  0  0
 12 13  1  0  0  0  0
 12 36  1  0  0  0  0
 13 14  1  0  0  0  0
 13 37  1  0  0  0  0
 13 38  1  0  0  0  0
 14 15  1  0  0  0  0
 14 39  1  0  0  0  0
 14 40  1  0  0  0  0
 15 20  1  0  0  0  0
 15 16  2  0  0  0  0
 16 17  1  0  0  0  0
 16 41  1  0  0  0  0
 17 18  2  0  0  0  0
 17 42  1  0  0  0  0
 18 19  1  0  0  0  0
 18 47  1  0  0  0  0
 19 20  2  0  0  0  0
 19 43  1  0  0  0  0
 20 21  1  0  0  0  0
 21 44  1  0  0  0  0
 21 45  1  0  0  0  0
 21 46  1  0  0  0  0
M  CHG  1  18   1
M  END
> <s_m_source_file>
AV-unprocessed.smi

> <i_m_source_file_index>
2442

> <i_lp_mmshare_version>
43012

> <i_f3d_flags>
0

> <s_epik_input>
W0NIM11PW0NAQEhdMVtDSDJdW0NIMl1bQ0gyXVtDSDJdW0NASF0xW05IXUMoPU8pW05IXVtDSDJdW0NIMl1jMltjSF1bY0hdbltjSF1jMltDSDNd

> <s_epik_cmdline>
J2VwaWtfcHl0aG9uJywgJy1waCcsICc3LjAnLCAnLXRuJywgJzgnLCAnLW1hJywgJzIwMCcsICctbWV0YWxfYmluZGluZycsICctaW1hZScsICc8aW5maWxlLm1hZT4nLCAnLW9tYWUnLCAnPG91dGZpbGUubWFlPic=

> <r_epik_Ionization_Penalty>
1.07145

> <r_epik_Ionization_Penalty_Charging>
1.0714

> <r_epik_Ionization_Penalty_Neutral>
4.9109e-05

> <r_epik_State_Penalty>
1.12601

> <r_epik_Charging_Adjusted_Penalty>
2.19741

> <i_epik_Tot_Q>
1

> <i_epik_Tot_abs_Q>
1

> <r_epik_Metal_State_Penalty>
1.2173

> <b_epik_Metal_Only>
0

> <s_lp_Force_Field>
OPLS_2005

> <r_lp_Energy>
15.5832

> <b_lp_Chiralities_Consistent>
1

> <s_lp_Variant>
AV-unprocessed.smi:2442-6

> <Gold.Version>
5.8.1

> <Gold.Id.Protein>
6NUR|6NUR_protein|mol2

> <Gold.PLP.Fitness>
44.6017

> <Gold.PLP.PLP>
-33.8660

> <Gold.PLP.part.hbond>
-2.9190

> <Gold.PLP.part.metal>
0.0000

> <Gold.PLP.part.buried>
-5.7496

> <Gold.PLP.part.nonpolar>
-26.6264

> <Gold.PLP.part.repulsive>
0.1972

> <Gold.PLP.ligand.clash>
0.0000

> <Gold.PLP.ligand.torsion>
0.4308

> <Gold.PLP.Chemscore.Hbond>
3.8393

> <Gold.PLP.Chemscore.CHOScore>
0.0000

> <Gold.PLP.Chemscore.Metal>
0.0000

> <Gold.Chemscore.Hbonds>
donor molecule, donor type, donor heavy atom, donor atom, acceptor molecule, acceptor atom, score
      L1  H     9    35       P1  7948  0.78
      L1  H    12    36       P1  7948  0.70
      L1  H    18    47       P1 10186  2.00

> <Gold.PLP.Chemscore.Internal.Correction>
0.0795

> <Gold.Rescore>
     Score         DG    S(hbond)    S(metal)    S(lipo)     H(rot)  DE(clash)    DE(int)     intcor
     20.10     -20.75       2.81        0.00      87.90       1.72       0.06       0.59       ----

> <Gold.Chemscore.Fitness>
20.0968

> <Gold.Chemscore.DG>
-20.7458

> <Gold.Chemscore.ZeroCoef>
-5.4800

> <Gold.Chemscore.Hbond>
2.8133

> <Gold.Chemscore.Metal>
0.0000

> <Gold.Chemscore.Lipo>
87.8962

> <Gold.Chemscore.Internal_Hbond>
0.0000

> <Gold.Chemscore.DEClash>
0.0580

> <Gold.Chemscore.DEInternal>
0.5910

> <Gold.Chemscore.Rot>
1.7244

> <Gold.Chemscore.Internal.Correction>
   9.000000E+99

> <Gold.Chemscore.Hbonds>
donor molecule, donor type, donor heavy atom, donor atom, acceptor molecule, acceptor atom, score
      L1  H     9    35       P1  7948  0.77
      L1  H    12    36       P1  7948  0.71
      L1  H    18    47       P1 10186  0.99

> <Gold.Chemscore.Hbond.Weighted>
-9.3964

> <Gold.Chemscore.Metal.Weighted>
-0.0000

> <Gold.Chemscore.Lipo.Weighted>
-10.2839

> <Gold.Chemscore.Internal_Hbond.Weighted>
0.0000

> <Gold.Chemscore.DEClash.Weighted>
0.0580

> <Gold.Chemscore.DEInternal.Weighted>
0.5910

> <Gold.Chemscore.Rot.Weighted>
4.4145

> <Gold.Chemscore.Internal.Correction.Weighted>
   9.000000E+99

> <Gold.Protein.RotatedTorsions>
[ 6907 6896 6895 6894 ] final -151.71 input  -60.11 | X-H torsion
[ 7974 7965 7964 7962 ] final  171.05 input  175.53 | X-H torsion
[ 8008 7997 7996 7995 ] final  -51.11 input   59.86 | X-H torsion
[ 10167 10162 10161 10158 ] final   34.31 input  -65.29 | X-H torsion
[ 10718 10713 10712 10709 ] final  165.26 input   66.30 | X-H torsion
[ 10763 10752 10751 10750 ] final   70.16 input  -60.55 | X-H torsion
[ 11005 11000 10999 10996 ] final  -82.00 input  -57.11 | X-H torsion

> <Gold.Protein.ActiveResidues>
 VAL166  LYS551  ARG553  GLY616  TRP617  ASP618  TYR619  PRO620  LYS621  CYS622 
 ASP623  PHE694  ASN695  SER759  ASP760  ASP761  ALA762  ILE779  LEU786  VAL792 
 PHE793  MET794  SER795  GLU796  ALA797  LYS798  CYS799  TRP800  GLU811  SER814 

> <Gold.Protein.RotatedAtoms>
  151.2171  133.4523  159.2599 H   0  0  0  0  0  0  0  0  0  0  0  0  # atno 6907 bound_to 6896
  151.0920  134.9922  159.8417 H   0  0  0  0  0  0  0  0  0  0  0  0  # atno 6908 bound_to 6896
  152.5435  134.2104  159.8800 H   0  0  0  0  0  0  0  0  0  0  0  0  # atno 6909 bound_to 6896
  144.7306  139.9293  143.6424 H   0  0  0  0  0  0  0  0  0  0  0  0  # atno 7974 bound_to 7965
  154.4076  140.1256  156.4775 H   0  0  0  0  0  0  0  0  0  0  0  0  # atno 8008 bound_to 7997
  155.7118  140.3493  155.4957 H   0  0  0  0  0  0  0  0  0  0  0  0  # atno 8009 bound_to 7997
  155.9293  140.1067  157.1135 H   0  0  0  0  0  0  0  0  0  0  0  0  # atno 8010 bound_to 7997
  140.4327  144.1302  150.6162 H   0  0  0  0  0  0  0  0  0  0  0  0  # atno 10167 bound_to 10162
  157.0827  131.0396  151.2569 H   0  0  0  0  0  0  0  0  0  0  0  0  # atno 10718 bound_to 10713
  153.0326  135.5184  154.7398 H   0  0  0  0  0  0  0  0  0  0  0  0  # atno 10763 bound_to 10752
  154.6401  135.2911  155.0116 H   0  0  0  0  0  0  0  0  0  0  0  0  # atno 10764 bound_to 10752
  154.1037  135.6632  153.4925 H   0  0  0  0  0  0  0  0  0  0  0  0  # atno 10765 bound_to 10752
  141.1665  133.7223  156.8507 H   0  0  0  0  0  0  0  0  0  0  0  0  # atno 11005 bound_to 11000
  146.0870  139.3858  143.0429 LP  0  0  0  0  0  0  0  0  0  0  0  0  # atno 17320 bound_to 7965
  145.7764  140.9875  143.1122 LP  0  0  0  0  0  0  0  0  0  0  0  0  # atno 17321 bound_to 7965
  140.4409  143.2527  151.9474 LP  0  0  0  0  0  0  0  0  0  0  0  0  # atno 17342 bound_to 10162
  139.4785  144.5655  151.8172 LP  0  0  0  0  0  0  0  0  0  0  0  0  # atno 17343 bound_to 10162
  157.4787  130.7752  149.7392 LP  0  0  0  0  0  0  0  0  0  0  0  0  # atno 17370 bound_to 10713
  155.9919  130.3934  150.2964 LP  0  0  0  0  0  0  0  0  0  0  0  0  # atno 17371 bound_to 10713
  140.1918  134.8960  157.3069 LP  0  0  0  0  0  0  0  0  0  0  0  0  # atno 17394 bound_to 11000
  140.2282  134.3941  155.7534 LP  0  0  0  0  0  0  0  0  0  0  0  0  # atno 17395 bound_to 11000

$$$$
