AV-unprocessed.smi:3078|AV-procd|sdf|11733|dock10
  -GOLD-   2272017133D 1   1.00000     0.00000
 Structure written by MMmdl.
 23 23  0  0  0  0  0  0  0  0  2 V2000
  145.8545  128.9578  152.2971 C   0  0  0  0  0  0  0  0  0  0  0  0
  145.6117  130.3474  151.9734 N   0  0  0  0  0  0  0  0  0  0  0  0
  144.9772  130.8755  150.8702 C   0  0  0  0  0  0  0  0  0  0  0  0
  144.9960  132.2379  150.9957 C   0  0  0  0  0  0  0  0  0  0  0  0
  144.4439  133.2934  150.0697 C   0  0  2  0  0  0  0  0  0  0  0  0
  143.5072  134.1553  150.8088 N   0  3  0  0  0  0  0  0  0  0  0  0
  143.7552  132.6998  148.8260 C   0  0  0  0  0  0  0  0  0  0  0  0
  143.5605  133.7149  147.8080 N   0  0  0  0  0  0  0  0  0  0  0  0
  145.6750  132.4414  152.2318 C   0  0  0  0  0  0  0  0  0  0  0  0
  146.0397  131.3111  152.8135 N   0  0  0  0  0  0  0  0  0  0  0  0
  145.2779  128.3130  151.6334 H   0  0  0  0  0  0  0  0  0  0  0  0
  145.5592  128.7584  153.3278 H   0  0  0  0  0  0  0  0  0  0  0  0
  146.9148  128.7332  152.1778 H   0  0  0  0  0  0  0  0  0  0  0  0
  144.5728  130.2439  150.0927 H   0  0  0  0  0  0  0  0  0  0  0  0
  145.2492  133.9476  149.7322 H   0  0  0  0  0  0  0  0  0  0  0  0
  143.2585  133.7108  151.6809 H   0  0  0  0  0  0  0  0  0  0  0  0
  142.6749  134.2998  150.2558 H   0  0  0  0  0  0  0  0  0  0  0  0
  144.3355  131.8753  148.4105 H   0  0  0  0  0  0  0  0  0  0  0  0
  142.7762  132.3006  149.0930 H   0  0  0  0  0  0  0  0  0  0  0  0
  144.4549  134.0215  147.4520 H   0  0  0  0  0  0  0  0  0  0  0  0
  143.0565  133.3271  147.0229 H   0  0  0  0  0  0  0  0  0  0  0  0
  145.9131  133.3746  152.7209 H   0  0  0  0  0  0  0  0  0  0  0  0
  143.9453  135.0455  150.9975 H   0  0  0  0  0  0  0  0  0  0  0  0
  1  2  1  0  0  0  0
  1 11  1  0  0  0  0
  1 12  1  0  0  0  0
  1 13  1  0  0  0  0
  2 10  1  0  0  0  0
  2  3  1  0  0  0  0
  3  4  2  0  0  0  0
  3 14  1  0  0  0  0
  4  5  1  0  0  0  0
  4  9  1  0  0  0  0
  5  6  1  0  0  0  0
  5  7  1  0  0  0  0
  5 15  1  0  0  0  0
  6 16  1  0  0  0  0
  6 17  1  0  0  0  0
  6 23  1  0  0  0  0
  7  8  1  0  0  0  0
  7 18  1  0  0  0  0
  7 19  1  0  0  0  0
  8 20  1  0  0  0  0
  8 21  1  0  0  0  0
  9 10  2  0  0  0  0
  9 22  1  0  0  0  0
M  CHG  1   6   1
M  END
> <s_m_source_file>
AV-unprocessed.smi

> <i_m_source_file_index>
3078

> <i_lp_mmshare_version>
43012

> <i_f3d_flags>
0

> <s_epik_input>
W0NIM11uMVtjSF1jKFtjSF1uMSlbQ0BIXShbTkgyXSlbQ0gyXVtOSDJd

> <s_epik_cmdline>
J2VwaWtfcHl0aG9uJywgJy1waCcsICc3LjAnLCAnLXRuJywgJzgnLCAnLW1hJywgJzIwMCcsICctbWV0YWxfYmluZGluZycsICctaW1hZScsICc8aW5maWxlLm1hZT4nLCAnLW9tYWUnLCAnPG91dGZpbGUubWFlPic=

> <r_epik_Ionization_Penalty>
0.19937

> <r_epik_Ionization_Penalty_Charging>
0.0290541

> <r_epik_Ionization_Penalty_Neutral>
0.170316

> <r_epik_State_Penalty>
1.07715

> <r_epik_Charging_Adjusted_Penalty>
1.1062

> <i_epik_Tot_Q>
1

> <i_epik_Tot_abs_Q>
1

> <r_epik_Metal_State_Penalty>
1.07718

> <b_epik_Metal_Only>
0

> <s_lp_Force_Field>
OPLS_2005

> <r_lp_Energy>
0.880803

> <b_lp_Chiralities_Consistent>
1

> <s_lp_Variant>
AV-unprocessed.smi:3078-3

> <Gold.Version>
5.8.1

> <Gold.Id.Protein>
6NUR|6NUR_protein|mol2

> <Gold.PLP.Fitness>
36.7345

> <Gold.PLP.PLP>
-24.9424

> <Gold.PLP.part.hbond>
-4.1755

> <Gold.PLP.part.metal>
0.0000

> <Gold.PLP.part.buried>
-5.2278

> <Gold.PLP.part.nonpolar>
-15.8612

> <Gold.PLP.part.repulsive>
0.1793

> <Gold.PLP.ligand.clash>
0.0000

> <Gold.PLP.ligand.torsion>
0.1107

> <Gold.PLP.Chemscore.Hbond>
4.0000

> <Gold.PLP.Chemscore.CHOScore>
0.0000

> <Gold.PLP.Chemscore.Metal>
0.0000

> <Gold.Chemscore.Hbonds>
donor molecule, donor type, donor heavy atom, donor atom, acceptor molecule, acceptor atom, score
      L1  H     6    17       P1 10186  2.00
      L1  H     8    20       P1  7921  1.00
      L1  H     8    21       P1 10195  1.00

> <Gold.PLP.Chemscore.Internal.Correction>
0.0134

> <Gold.Rescore>
     Score         DG    S(hbond)    S(metal)    S(lipo)     H(rot)  DE(clash)    DE(int)     intcor
     17.94     -18.11       2.86        0.00      56.90       1.40       0.07       0.10       ----

> <Gold.Chemscore.Fitness>
17.9384

> <Gold.Chemscore.DG>
-18.1082

> <Gold.Chemscore.ZeroCoef>
-5.4800

> <Gold.Chemscore.Hbond>
2.8644

> <Gold.Chemscore.Metal>
0.0000

> <Gold.Chemscore.Lipo>
56.8956

> <Gold.Chemscore.Internal_Hbond>
0.0000

> <Gold.Chemscore.DEClash>
0.0650

> <Gold.Chemscore.DEInternal>
0.1047

> <Gold.Chemscore.Rot>
1.4045

> <Gold.Chemscore.Internal.Correction>
   9.000000E+99

> <Gold.Chemscore.Hbonds>
donor molecule, donor type, donor heavy atom, donor atom, acceptor molecule, acceptor atom, score
      L1  H     6    17       P1 10186  0.82
      L1  H     8    20       P1  7921  0.98
      L1  H     8    21       P1 10195  0.98

> <Gold.Chemscore.Hbond.Weighted>
-9.5670

> <Gold.Chemscore.Metal.Weighted>
-0.0000

> <Gold.Chemscore.Lipo.Weighted>
-6.6568

> <Gold.Chemscore.Internal_Hbond.Weighted>
0.0000

> <Gold.Chemscore.DEClash.Weighted>
0.0650

> <Gold.Chemscore.DEInternal.Weighted>
0.1047

> <Gold.Chemscore.Rot.Weighted>
3.5956

> <Gold.Chemscore.Internal.Correction.Weighted>
   9.000000E+99

> <Gold.Protein.RotatedTorsions>
[ 6907 6896 6895 6894 ] final   83.80 input  -60.11 | X-H torsion
[ 7974 7965 7964 7962 ] final  126.35 input  175.53 | X-H torsion
[ 8008 7997 7996 7995 ] final  -78.67 input   59.86 | X-H torsion
[ 10167 10162 10161 10158 ] final  -82.08 input  -65.29 | X-H torsion
[ 10718 10713 10712 10709 ] final  134.47 input   66.30 | X-H torsion
[ 10763 10752 10751 10750 ] final  -38.34 input  -60.55 | X-H torsion
[ 11005 11000 10999 10996 ] final  -20.35 input  -57.11 | X-H torsion

> <Gold.Protein.ActiveResidues>
 VAL166  LYS551  ARG553  GLY616  TRP617  ASP618  TYR619  PRO620  LYS621  CYS622 
 ASP623  PHE694  ASN695  SER759  ASP760  ASP761  ALA762  ILE779  LEU786  VAL792 
 PHE793  MET794  SER795  GLU796  ALA797  LYS798  CYS799  TRP800  GLU811  SER814 

> <Gold.Protein.RotatedAtoms>
  152.5336  134.2840  159.9017 H   0  0  0  0  0  0  0  0  0  0  0  0  # atno 6907 bound_to 6896
  151.2793  133.4210  159.2633 H   0  0  0  0  0  0  0  0  0  0  0  0  # atno 6908 bound_to 6896
  151.0298  134.9546  159.8161 H   0  0  0  0  0  0  0  0  0  0  0  0  # atno 6909 bound_to 6896
  145.0627  139.3792  143.4997 H   0  0  0  0  0  0  0  0  0  0  0  0  # atno 7974 bound_to 7965
  154.5712  140.0690  156.8967 H   0  0  0  0  0  0  0  0  0  0  0  0  # atno 8008 bound_to 7997
  155.2631  140.3360  155.4253 H   0  0  0  0  0  0  0  0  0  0  0  0  # atno 8009 bound_to 7997
  156.2119  140.1763  156.7660 H   0  0  0  0  0  0  0  0  0  0  0  0  # atno 8010 bound_to 7997
  140.4353  143.2534  151.8703 H   0  0  0  0  0  0  0  0  0  0  0  0  # atno 10167 bound_to 10162
  157.4669  131.1077  150.9851 H   0  0  0  0  0  0  0  0  0  0  0  0  # atno 10718 bound_to 10713
  153.9113  135.6792  153.4751 H   0  0  0  0  0  0  0  0  0  0  0  0  # atno 10763 bound_to 10752
  153.1077  135.4798  154.8978 H   0  0  0  0  0  0  0  0  0  0  0  0  # atno 10764 bound_to 10752
  154.7526  135.3189  154.8485 H   0  0  0  0  0  0  0  0  0  0  0  0  # atno 10765 bound_to 10752
  140.8456  133.7894  155.9909 H   0  0  0  0  0  0  0  0  0  0  0  0  # atno 11005 bound_to 11000
  146.3525  140.0333  142.8648 LP  0  0  0  0  0  0  0  0  0  0  0  0  # atno 17320 bound_to 7965
  145.1389  140.9560  143.4500 LP  0  0  0  0  0  0  0  0  0  0  0  0  # atno 17321 bound_to 7965
  139.4786  144.5290  151.8694 LP  0  0  0  0  0  0  0  0  0  0  0  0  # atno 17342 bound_to 10162
  140.4381  144.2024  150.5890 LP  0  0  0  0  0  0  0  0  0  0  0  0  # atno 17343 bound_to 10162
  157.0630  130.5833  149.5389 LP  0  0  0  0  0  0  0  0  0  0  0  0  # atno 17370 bound_to 10713
  156.0054  130.5140  150.7813 LP  0  0  0  0  0  0  0  0  0  0  0  0  # atno 17371 bound_to 10713
  140.8847  134.2568  157.5126 LP  0  0  0  0  0  0  0  0  0  0  0  0  # atno 17394 bound_to 11000
  139.8703  134.9632  156.4455 LP  0  0  0  0  0  0  0  0  0  0  0  0  # atno 17395 bound_to 11000

$$$$
