AV-unprocessed.smi:2969|AV-procd|sdf|11329|dock9
  -GOLD-   2272016243D 1   1.00000     0.00000
 Structure written by MMmdl.
 40 40  0  0  0  0  0  0  0  0  1 V2000
  148.7348  141.3200  156.0473 C   0  0  0  0  0  0  0  0  0  0  0  0
  149.5866  141.0367  154.8032 C   0  0  0  0  0  0  0  0  0  0  0  0
  149.6499  139.5505  154.3964 C   0  0  0  0  0  0  0  0  0  0  0  0
  150.3323  138.7031  155.3583 N   0  0  0  0  0  0  0  0  0  0  0  0
  149.6654  137.7775  156.1664 C   0  0  0  0  0  0  0  0  0  0  0  0
  148.2865  137.6848  156.0420 N   0  0  0  0  0  0  0  0  0  0  0  0
  150.3308  137.0021  157.0745 C   0  0  0  0  0  0  0  0  0  0  0  0
  149.6609  136.0417  157.8556 N   0  0  0  0  0  0  0  0  0  0  0  0
  149.3371  136.4228  159.2413 C   0  0  0  0  0  0  0  0  0  0  0  0
  147.8257  136.3771  159.5183 C   0  0  0  0  0  0  0  0  0  0  0  0
  147.5713  136.9173  160.8041 O   0  0  0  0  0  0  0  0  0  0  0  0
  147.8817  136.0117  161.8475 C   0  0  0  0  0  0  0  0  0  0  0  0
  149.3438  134.8037  157.3869 C   0  0  0  0  0  0  0  0  0  0  0  0
  148.6581  134.0207  158.0477 O   0  0  0  0  0  0  0  0  0  0  0  0
  149.8810  134.3189  156.0229 C   0  0  0  0  0  0  0  0  0  0  0  0
  151.2108  134.4106  155.9832 F   0  0  0  0  0  0  0  0  0  0  0  0
  149.5450  133.0411  155.8396 F   0  0  0  0  0  0  0  0  0  0  0  0
  149.3469  135.0381  155.0372 F   0  0  0  0  0  0  0  0  0  0  0  0
  151.7929  137.0886  157.1970 C   0  0  0  0  0  0  0  0  0  0  0  0
  152.4936  136.4076  157.9447 O   0  0  0  0  0  0  0  0  0  0  0  0
  152.3956  138.0347  156.3729 N   0  0  0  0  0  0  0  0  0  0  0  0
  151.7366  138.8565  155.4661 C   0  0  0  0  0  0  0  0  0  0  0  0
  152.3889  139.6683  154.8090 O   0  0  0  0  0  0  0  0  0  0  0  0
  153.3982  138.1333  156.4400 H   0  0  0  0  0  0  0  0  0  0  0  0
  148.7875  142.3742  156.3194 H   0  0  0  0  0  0  0  0  0  0  0  0
  149.0808  140.7382  156.9020 H   0  0  0  0  0  0  0  0  0  0  0  0
  147.6858  141.0781  155.8758 H   0  0  0  0  0  0  0  0  0  0  0  0
  149.2132  141.6341  153.9713 H   0  0  0  0  0  0  0  0  0  0  0  0
  150.6020  141.3871  154.9897 H   0  0  0  0  0  0  0  0  0  0  0  0
  148.6474  139.1349  154.2924 H   0  0  0  0  0  0  0  0  0  0  0  0
  150.1059  139.4193  153.4145 H   0  0  0  0  0  0  0  0  0  0  0  0
  147.7695  138.2608  155.3932 H   0  0  0  0  0  0  0  0  0  0  0  0
  147.7493  137.0133  156.5715 H   0  0  0  0  0  0  0  0  0  0  0  0
  149.8573  135.7643  159.9391 H   0  0  0  0  0  0  0  0  0  0  0  0
  149.7089  137.4239  159.4636 H   0  0  0  0  0  0  0  0  0  0  0  0
  147.2733  136.9220  158.7514 H   0  0  0  0  0  0  0  0  0  0  0  0
  147.4810  135.3425  159.4921 H   0  0  0  0  0  0  0  0  0  0  0  0
  147.6729  136.4778  162.8102 H   0  0  0  0  0  0  0  0  0  0  0  0
  148.9361  135.7334  161.8283 H   0  0  0  0  0  0  0  0  0  0  0  0
  147.2778  135.1063  161.7749 H   0  0  0  0  0  0  0  0  0  0  0  0
  1  2  1  0  0  0  0
  1 25  1  0  0  0  0
  1 26  1  0  0  0  0
  1 27  1  0  0  0  0
  2  3  1  0  0  0  0
  2 28  1  0  0  0  0
  2 29  1  0  0  0  0
  3  4  1  0  0  0  0
  3 30  1  0  0  0  0
  3 31  1  0  0  0  0
  4 22  1  0  0  0  0
  4  5  1  0  0  0  0
  5  6  1  0  0  0  0
  5  7  2  0  0  0  0
  6 32  1  0  0  0  0
  6 33  1  0  0  0  0
  7  8  1  0  0  0  0
  7 19  1  0  0  0  0
  8  9  1  0  0  0  0
  8 13  1  0  0  0  0
  9 10  1  0  0  0  0
  9 34  1  0  0  0  0
  9 35  1  0  0  0  0
 10 11  1  0  0  0  0
 10 36  1  0  0  0  0
 10 37  1  0  0  0  0
 11 12  1  0  0  0  0
 12 38  1  0  0  0  0
 12 39  1  0  0  0  0
 12 40  1  0  0  0  0
 13 14  2  0  0  0  0
 13 15  1  0  0  0  0
 15 16  1  0  0  0  0
 15 17  1  0  0  0  0
 15 18  1  0  0  0  0
 19 20  2  0  0  0  0
 19 21  1  0  0  0  0
 21 24  1  0  0  0  0
 21 22  1  0  0  0  0
 22 23  2  0  0  0  0
M  END
> <s_m_source_file>
AV-unprocessed.smi

> <i_m_source_file_index>
2969

> <i_lp_mmshare_version>
43012

> <i_f3d_flags>
0

> <s_epik_input>
W0NIM11bQ0gyXVtDSDJdbjFjKFtOSDJdKWMoYyg9TylbbkhdYzE9TylOKEMoPU8pQyhGKShGKUYpW0NIMl1bQ0gyXU9bQ0gzXQ==

> <s_epik_cmdline>
J2VwaWtfcHl0aG9uJywgJy1waCcsICc3LjAnLCAnLXRuJywgJzgnLCAnLW1hJywgJzIwMCcsICctbWV0YWxfYmluZGluZycsICctaW1hZScsICc8aW5maWxlLm1hZT4nLCAnLW9tYWUnLCAnPG91dGZpbGUubWFlPic=

> <r_lp_tautomer_probability>
1

> <r_epik_Ionization_Penalty>
0.000513649

> <r_epik_Ionization_Penalty_Charging>
0.000443136

> <r_epik_Ionization_Penalty_Neutral>
7.05129e-05

> <r_epik_State_Penalty>
-0

> <r_epik_Charging_Adjusted_Penalty>
0.000443136

> <i_epik_Tot_Q>
0

> <i_epik_Tot_abs_Q>
0

> <r_epik_Metal_State_Penalty>
0.330936

> <b_epik_Metal_Only>
0

> <s_epik_Chemistry_Notes>
This compound has an imine and may undergo hydrolysis.

> <s_lp_Force_Field>
OPLS_2005

> <r_lp_Energy>
31.7287

> <b_lp_Chiralities_Consistent>
1

> <s_lp_Variant>
AV-unprocessed.smi:2969-1

> <Gold.Version>
5.8.1

> <Gold.Id.Protein>
6NUR|6NUR_protein|mol2

> <Gold.PLP.Fitness>
33.0897

> <Gold.PLP.PLP>
-28.9928

> <Gold.PLP.part.hbond>
-3.6039

> <Gold.PLP.part.metal>
0.0000

> <Gold.PLP.part.buried>
-4.2283

> <Gold.PLP.part.nonpolar>
-21.6753

> <Gold.PLP.part.repulsive>
0.1684

> <Gold.PLP.ligand.clash>
2.6548

> <Gold.PLP.ligand.torsion>
1.7868

> <Gold.PLP.Chemscore.Hbond>
1.7520

> <Gold.PLP.Chemscore.CHOScore>
0.0000

> <Gold.PLP.Chemscore.Metal>
0.0000

> <Gold.Chemscore.Hbonds>
donor molecule, donor type, donor heavy atom, donor atom, acceptor molecule, acceptor atom, score
      P1  H  6931  6943       L1    11  0.06
      P1  H  6934  6947       L1    11  0.71
      P1  H  7989  7998       L1    23  0.69

> <Gold.PLP.Chemscore.Internal.Correction>
5.0693

> <Gold.Rescore>
     Score         DG    S(hbond)    S(metal)    S(lipo)     H(rot)  DE(clash)    DE(int)     intcor
      3.03     -11.47       2.11        0.00      40.38       2.27       0.00       8.44       ----

> <Gold.Chemscore.Fitness>
3.0276

> <Gold.Chemscore.DG>
-11.4660

> <Gold.Chemscore.ZeroCoef>
-5.4800

> <Gold.Chemscore.Hbond>
2.1143

> <Gold.Chemscore.Metal>
0.0000

> <Gold.Chemscore.Lipo>
40.3811

> <Gold.Chemscore.Internal_Hbond>
0.0000

> <Gold.Chemscore.DEClash>
0.0009

> <Gold.Chemscore.DEInternal>
8.4375

> <Gold.Chemscore.Rot>
2.2658

> <Gold.Chemscore.Internal.Correction>
   9.000000E+99

> <Gold.Chemscore.Hbonds>
donor molecule, donor type, donor heavy atom, donor atom, acceptor molecule, acceptor atom, score
      P1  H  6934  6947       L1    11  0.64
      P1  H  7989  7998       L1    23  0.68
      P1  H  7997  8009       L1    23  0.03

> <Gold.Chemscore.Hbond.Weighted>
-7.0619

> <Gold.Chemscore.Metal.Weighted>
-0.0000

> <Gold.Chemscore.Lipo.Weighted>
-4.7246

> <Gold.Chemscore.Internal_Hbond.Weighted>
0.0000

> <Gold.Chemscore.DEClash.Weighted>
0.0009

> <Gold.Chemscore.DEInternal.Weighted>
8.4375

> <Gold.Chemscore.Rot.Weighted>
5.8005

> <Gold.Chemscore.Internal.Correction.Weighted>
   9.000000E+99

> <Gold.Protein.RotatedTorsions>
[ 6907 6896 6895 6894 ] final -123.45 input  -60.11 | X-H torsion
[ 7974 7965 7964 7962 ] final    5.80 input  175.53 | X-H torsion
[ 8008 7997 7996 7995 ] final -154.71 input   59.86 | X-H torsion
[ 10167 10162 10161 10158 ] final   59.21 input  -65.29 | X-H torsion
[ 10718 10713 10712 10709 ] final -124.30 input   66.30 | X-H torsion
[ 10763 10752 10751 10750 ] final  -30.12 input  -60.55 | X-H torsion
[ 11005 11000 10999 10996 ] final  -25.38 input  -57.11 | X-H torsion

> <Gold.Protein.ActiveResidues>
 VAL166  LYS551  ARG553  GLY616  TRP617  ASP618  TYR619  PRO620  LYS621  CYS622 
 ASP623  PHE694  ASN695  SER759  ASP760  ASP761  ALA762  ILE779  LEU786  VAL792 
 PHE793  MET794  SER795  GLU796  ALA797  LYS798  CYS799  TRP800  GLU811  SER814 

> <Gold.Protein.RotatedAtoms>
  150.8672  133.7557  159.2972 H   0  0  0  0  0  0  0  0  0  0  0  0  # atno 6907 bound_to 6896
  151.5181  135.1065  159.9881 H   0  0  0  0  0  0  0  0  0  0  0  0  # atno 6908 bound_to 6896
  152.4669  133.7899  159.6952 H   0  0  0  0  0  0  0  0  0  0  0  0  # atno 6909 bound_to 6896
  146.2438  140.0330  142.8388 H   0  0  0  0  0  0  0  0  0  0  0  0  # atno 7974 bound_to 7965
  155.6905  140.0755  157.2450 H   0  0  0  0  0  0  0  0  0  0  0  0  # atno 8008 bound_to 7997
  154.4089  140.1665  156.2134 H   0  0  0  0  0  0  0  0  0  0  0  0  # atno 8009 bound_to 7997
  155.9456  140.3381  155.6367 H   0  0  0  0  0  0  0  0  0  0  0  0  # atno 8010 bound_to 7997
  140.1789  144.4202  150.6625 H   0  0  0  0  0  0  0  0  0  0  0  0  # atno 10167 bound_to 10162
  156.1576  130.6579  151.0003 H   0  0  0  0  0  0  0  0  0  0  0  0  # atno 10718 bound_to 10713
  153.7757  135.6909  153.4898 H   0  0  0  0  0  0  0  0  0  0  0  0  # atno 10763 bound_to 10752
  153.1845  135.4494  155.0069 H   0  0  0  0  0  0  0  0  0  0  0  0  # atno 10764 bound_to 10752
  154.8101  135.3373  154.7264 H   0  0  0  0  0  0  0  0  0  0  0  0  # atno 10765 bound_to 10752
  140.8933  133.7574  156.0448 H   0  0  0  0  0  0  0  0  0  0  0  0  # atno 11005 bound_to 11000
  145.1138  140.9421  143.4641 LP  0  0  0  0  0  0  0  0  0  0  0  0  # atno 17320 bound_to 7965
  145.0549  139.3151  143.5909 LP  0  0  0  0  0  0  0  0  0  0  0  0  # atno 17321 bound_to 7965
  140.6533  143.2230  151.6028 LP  0  0  0  0  0  0  0  0  0  0  0  0  # atno 17342 bound_to 10162
  139.5305  144.2931  152.1136 LP  0  0  0  0  0  0  0  0  0  0  0  0  # atno 17343 bound_to 10162
  157.6707  131.0862  150.7619 LP  0  0  0  0  0  0  0  0  0  0  0  0  # atno 17370 bound_to 10713
  156.7683  130.4821  149.5423 LP  0  0  0  0  0  0  0  0  0  0  0  0  # atno 17371 bound_to 10713
  140.8320  134.3166  157.5345 LP  0  0  0  0  0  0  0  0  0  0  0  0  # atno 17394 bound_to 11000
  139.8732  134.9369  156.3672 LP  0  0  0  0  0  0  0  0  0  0  0  0  # atno 17395 bound_to 11000

$$$$
