AV-unprocessed.smi:2193|AV-procd|sdf|8901|dock5
  -GOLD-   2272012113D 1   1.00000     0.00000
 Structure written by MMmdl.
 41 43  0  0  0  0  0  0  0  0  2 V2000
  147.0754  138.2297  151.4730 O   0  0  0  0  0  0  0  0  0  0  0  0
  146.9894  139.4235  152.2227 C   0  0  0  0  0  0  0  0  0  0  0  0
  148.1733  139.6503  153.1086 C   0  0  0  0  0  0  0  0  0  0  0  0
  149.1683  138.7552  153.3725 N   0  3  0  0  0  0  0  0  0  0  0  0
  150.0965  139.3214  154.2468 C   0  0  0  0  0  0  0  0  0  0  0  0
  151.2656  138.8044  154.7963 C   0  0  0  0  0  0  0  0  0  0  0  0
  151.9872  139.6532  155.6613 C   0  0  0  0  0  0  0  0  0  0  0  0
  151.5398  140.9588  155.9509 C   0  0  0  0  0  0  0  0  0  0  0  0
  150.3527  141.4718  155.3878 C   0  0  0  0  0  0  0  0  0  0  0  0
  149.6465  140.6263  154.5327 C   0  0  0  0  0  0  0  0  0  0  0  0
  148.4610  140.7866  153.8071 N   0  0  0  0  0  0  0  0  0  0  0  0
  147.7354  142.0638  153.8930 C   0  0  0  0  0  0  0  0  0  0  0  0
  146.3260  141.9166  154.5014 C   0  0  1  0  0  0  0  0  0  0  0  0
  146.4429  141.3578  155.7952 O   0  0  0  0  0  0  0  0  0  0  0  0
  145.6051  143.2694  154.6125 C   0  0  0  0  0  0  0  0  0  0  0  0
  144.4079  143.0913  155.3586 O   0  0  0  0  0  0  0  0  0  0  0  0
  143.4964  144.1251  155.3891 C   0  0  0  0  0  0  0  0  0  0  0  0
  142.2889  143.8928  156.0800 C   0  0  0  0  0  0  0  0  0  0  0  0
  141.3005  144.8926  156.1623 C   0  0  0  0  0  0  0  0  0  0  0  0
  141.5112  146.1413  155.5495 C   0  0  0  0  0  0  0  0  0  0  0  0
  140.5620  147.1039  155.6265 F   0  0  0  0  0  0  0  0  0  0  0  0
  142.7107  146.3871  154.8560 C   0  0  0  0  0  0  0  0  0  0  0  0
  143.6997  145.3870  154.7745 C   0  0  0  0  0  0  0  0  0  0  0  0
  147.4117  137.5467  152.0334 H   0  0  0  0  0  0  0  0  0  0  0  0
  146.8863  140.2623  151.5341 H   0  0  0  0  0  0  0  0  0  0  0  0
  146.0881  139.3935  152.8354 H   0  0  0  0  0  0  0  0  0  0  0  0
  151.6102  137.8044  154.5764 H   0  0  0  0  0  0  0  0  0  0  0  0
  152.9018  139.2956  156.1119 H   0  0  0  0  0  0  0  0  0  0  0  0
  152.1194  141.5798  156.6189 H   0  0  0  0  0  0  0  0  0  0  0  0
  150.0184  142.4732  155.6153 H   0  0  0  0  0  0  0  0  0  0  0  0
  148.3367  142.7490  154.4919 H   0  0  0  0  0  0  0  0  0  0  0  0
  147.6856  142.4964  152.8930 H   0  0  0  0  0  0  0  0  0  0  0  0
  145.7359  141.2416  153.8807 H   0  0  0  0  0  0  0  0  0  0  0  0
  145.5744  141.2025  156.1339 H   0  0  0  0  0  0  0  0  0  0  0  0
  146.2564  144.0200  155.0644 H   0  0  0  0  0  0  0  0  0  0  0  0
  145.3370  143.6174  153.6137 H   0  0  0  0  0  0  0  0  0  0  0  0
  142.1184  142.9370  156.5533 H   0  0  0  0  0  0  0  0  0  0  0  0
  140.3811  144.7007  156.6957 H   0  0  0  0  0  0  0  0  0  0  0  0
  142.8734  147.3451  154.3847 H   0  0  0  0  0  0  0  0  0  0  0  0
  144.6058  145.6137  154.2336 H   0  0  0  0  0  0  0  0  0  0  0  0
  149.2034  137.8243  152.9770 H   0  0  0  0  0  0  0  0  0  0  0  0
  1  2  1  0  0  0  0
  1 24  1  0  0  0  0
  2  3  1  0  0  0  0
  2 25  1  0  0  0  0
  2 26  1  0  0  0  0
  3 11  1  0  0  0  0
  3  4  2  0  0  0  0
  4  5  1  0  0  0  0
  4 41  1  0  0  0  0
  5 10  2  0  0  0  0
  5  6  1  0  0  0  0
  6  7  2  0  0  0  0
  6 27  1  0  0  0  0
  7  8  1  0  0  0  0
  7 28  1  0  0  0  0
  8  9  2  0  0  0  0
  8 29  1  0  0  0  0
  9 10  1  0  0  0  0
  9 30  1  0  0  0  0
 10 11  1  0  0  0  0
 11 12  1  0  0  0  0
 12 13  1  0  0  0  0
 12 31  1  0  0  0  0
 12 32  1  0  0  0  0
 13 14  1  0  0  0  0
 13 15  1  0  0  0  0
 13 33  1  0  0  0  0
 14 34  1  0  0  0  0
 15 16  1  0  0  0  0
 15 35  1  0  0  0  0
 15 36  1  0  0  0  0
 16 17  1  0  0  0  0
 17 23  1  0  0  0  0
 17 18  2  0  0  0  0
 18 19  1  0  0  0  0
 18 37  1  0  0  0  0
 19 20  2  0  0  0  0
 19 38  1  0  0  0  0
 20 21  1  0  0  0  0
 20 22  1  0  0  0  0
 22 23  2  0  0  0  0
 22 39  1  0  0  0  0
 23 40  1  0  0  0  0
M  CHG  1   4   1
M  END
> <s_m_source_file>
AV-unprocessed.smi

> <i_m_source_file_index>
2193

> <i_lp_mmshare_version>
43012

> <i_f3d_flags>
0

> <s_epik_input>
W2NIXTFbY0hdW2NIXVtjSF1jKGMxMiluKGMobjIpW0NIMl1bT0hdKVtDSDJdW0NASF0oW09IXSlbQ0gyXU9jM1tjSF1bY0hdYyhGKVtjSF1bY0hdMw==

> <s_epik_cmdline>
J2VwaWtfcHl0aG9uJywgJy1waCcsICc3LjAnLCAnLXRuJywgJzgnLCAnLW1hJywgJzIwMCcsICctbWV0YWxfYmluZGluZycsICctaW1hZScsICc8aW5maWxlLm1hZT4nLCAnLW9tYWUnLCAnPG91dGZpbGUubWFlPic=

> <r_lp_tautomer_probability>
1

> <r_epik_Ionization_Penalty>
1.43752

> <r_epik_Ionization_Penalty_Charging>
1.43666

> <r_epik_Ionization_Penalty_Neutral>
0.000858184

> <r_epik_State_Penalty>
1.52171

> <r_epik_Charging_Adjusted_Penalty>
2.95837

> <i_epik_Tot_Q>
1

> <i_epik_Tot_abs_Q>
1

> <r_epik_Metal_State_Penalty>
5.56725

> <b_epik_Metal_Only>
0

> <s_lp_Force_Field>
OPLS_2005

> <r_lp_Energy>
18.7626

> <b_lp_Chiralities_Consistent>
1

> <s_lp_Variant>
AV-unprocessed.smi:2193-4

> <Gold.Version>
5.8.1

> <Gold.Id.Protein>
6NUR|6NUR_protein|mol2

> <Gold.PLP.Fitness>
55.5379

> <Gold.PLP.PLP>
-44.9093

> <Gold.PLP.part.hbond>
-5.0000

> <Gold.PLP.part.metal>
0.0000

> <Gold.PLP.part.buried>
0.5813

> <Gold.PLP.part.nonpolar>
-41.1173

> <Gold.PLP.part.repulsive>
0.2241

> <Gold.PLP.ligand.clash>
0.0000

> <Gold.PLP.ligand.torsion>
0.1717

> <Gold.PLP.Chemscore.Hbond>
3.6400

> <Gold.PLP.Chemscore.CHOScore>
0.0000

> <Gold.PLP.Chemscore.Metal>
0.0000

> <Gold.Chemscore.Hbonds>
donor molecule, donor type, donor heavy atom, donor atom, acceptor molecule, acceptor atom, score
      L1  H     1    24       P1  7948  0.64
      L1  H     4    41       P1  7948  2.00
      P1  H  7954  7966       L1     1  0.90

> <Gold.PLP.Chemscore.Internal.Correction>
0.0520

> <Gold.Rescore>
     Score         DG    S(hbond)    S(metal)    S(lipo)     H(rot)  DE(clash)    DE(int)     intcor
     13.00     -16.07       2.13        0.00     102.04       3.31       2.95       0.12       ----

> <Gold.Chemscore.Fitness>
12.9987

> <Gold.Chemscore.DG>
-16.0656

> <Gold.Chemscore.ZeroCoef>
-5.4800

> <Gold.Chemscore.Hbond>
2.1345

> <Gold.Chemscore.Metal>
0.0000

> <Gold.Chemscore.Lipo>
102.0409

> <Gold.Chemscore.Internal_Hbond>
0.0000

> <Gold.Chemscore.DEClash>
2.9495

> <Gold.Chemscore.DEInternal>
0.1174

> <Gold.Chemscore.Rot>
3.3134

> <Gold.Chemscore.Internal.Correction>
   9.000000E+99

> <Gold.Chemscore.Hbonds>
donor molecule, donor type, donor heavy atom, donor atom, acceptor molecule, acceptor atom, score
      L1  H     1    24       P1  7948  0.61
      L1  H     4    41       P1  7948  0.98
      P1  H  7954  7966       L1     1  0.18

> <Gold.Chemscore.Hbond.Weighted>
-7.1292

> <Gold.Chemscore.Metal.Weighted>
-0.0000

> <Gold.Chemscore.Lipo.Weighted>
-11.9388

> <Gold.Chemscore.Internal_Hbond.Weighted>
0.0000

> <Gold.Chemscore.DEClash.Weighted>
2.9495

> <Gold.Chemscore.DEInternal.Weighted>
0.1174

> <Gold.Chemscore.Rot.Weighted>
8.4823

> <Gold.Chemscore.Internal.Correction.Weighted>
   9.000000E+99

> <Gold.Protein.RotatedTorsions>
[ 6907 6896 6895 6894 ] final -173.66 input  -60.11 | X-H torsion
[ 7974 7965 7964 7962 ] final  -36.33 input  175.53 | X-H torsion
[ 8008 7997 7996 7995 ] final  179.11 input   59.86 | X-H torsion
[ 10167 10162 10161 10158 ] final  -18.92 input  -65.29 | X-H torsion
[ 10718 10713 10712 10709 ] final -155.53 input   66.30 | X-H torsion
[ 10763 10752 10751 10750 ] final  113.84 input  -60.55 | X-H torsion
[ 11005 11000 10999 10996 ] final -109.66 input  -57.11 | X-H torsion

> <Gold.Protein.ActiveResidues>
 VAL166  LYS551  ARG553  GLY616  TRP617  ASP618  TYR619  PRO620  LYS621  CYS622 
 ASP623  PHE694  ASN695  SER759  ASP760  ASP761  ALA762  ILE779  LEU786  VAL792 
 PHE793  MET794  SER795  GLU796  ALA797  LYS798  CYS799  TRP800  GLU811  SER814 

> <Gold.Protein.RotatedAtoms>
  151.5597  133.3405  159.2968 H   0  0  0  0  0  0  0  0  0  0  0  0  # atno 6907 bound_to 6896
  150.8430  134.7731  159.6959 H   0  0  0  0  0  0  0  0  0  0  0  0  # atno 6908 bound_to 6896
  152.4493  134.5434  159.9897 H   0  0  0  0  0  0  0  0  0  0  0  0  # atno 6909 bound_to 6896
  146.0671  140.6266  142.8970 H   0  0  0  0  0  0  0  0  0  0  0  0  # atno 7974 bound_to 7965
  156.0471  140.1317  157.0091 H   0  0  0  0  0  0  0  0  0  0  0  0  # atno 8008 bound_to 7997
  154.4417  140.1018  156.6393 H   0  0  0  0  0  0  0  0  0  0  0  0  # atno 8009 bound_to 7997
  155.5579  140.3464  155.4486 H   0  0  0  0  0  0  0  0  0  0  0  0  # atno 8010 bound_to 7997
  140.7263  143.4869  151.0043 H   0  0  0  0  0  0  0  0  0  0  0  0  # atno 10167 bound_to 10162
  156.5142  130.8448  151.2658 H   0  0  0  0  0  0  0  0  0  0  0  0  # atno 10718 bound_to 10713
  153.4984  135.3643  155.2527 H   0  0  0  0  0  0  0  0  0  0  0  0  # atno 10763 bound_to 10752
  154.8749  135.3994  154.3507 H   0  0  0  0  0  0  0  0  0  0  0  0  # atno 10764 bound_to 10752
  153.4139  135.7078  153.6406 H   0  0  0  0  0  0  0  0  0  0  0  0  # atno 10765 bound_to 10752
  141.0835  133.9179  157.2236 H   0  0  0  0  0  0  0  0  0  0  0  0  # atno 11005 bound_to 11000
  144.7209  140.4368  143.7009 LP  0  0  0  0  0  0  0  0  0  0  0  0  # atno 17320 bound_to 7965
  145.6458  139.1557  143.2890 LP  0  0  0  0  0  0  0  0  0  0  0  0  # atno 17321 bound_to 7965
  139.8571  143.7362  152.3175 LP  0  0  0  0  0  0  0  0  0  0  0  0  # atno 17342 bound_to 10162
  139.7565  144.7519  151.0428 LP  0  0  0  0  0  0  0  0  0  0  0  0  # atno 17343 bound_to 10162
  157.7446  130.9939  150.2690 LP  0  0  0  0  0  0  0  0  0  0  0  0  # atno 17370 bound_to 10713
  156.3211  130.3786  149.7574 LP  0  0  0  0  0  0  0  0  0  0  0  0  # atno 17371 bound_to 10713
  139.9651  135.0144  156.9365 LP  0  0  0  0  0  0  0  0  0  0  0  0  # atno 17394 bound_to 11000
  140.5415  134.0715  155.7343 LP  0  0  0  0  0  0  0  0  0  0  0  0  # atno 17395 bound_to 11000

$$$$
