AV-unprocessed.smi:265|AV-procd|sdf|2015|dock9
  -GOLD-   2262021213D 1   1.00000     0.00000
 Structure written by MMmdl.
 52 56  0  0  0  0  0  0  0  0  1 V2000
  151.6941  144.4782  156.5789 C   0  0  0  0  0  0  0  0  0  0  0  0
  151.3268  143.5514  157.7475 C   0  0  2  0  0  0  0  0  0  0  0  0
  152.4540  143.3325  158.5923 O   0  0  0  0  0  0  0  0  0  0  0  0
  152.4364  142.0023  159.1028 C   0  0  0  0  0  0  0  0  0  0  0  0
  151.0883  141.4206  158.6891 C   0  0  0  0  0  0  0  0  0  0  0  0
  150.8032  142.1491  157.3813 C   0  0  1  0  0  0  0  0  0  0  0  0
  149.4040  142.1882  157.1703 O   0  0  0  0  0  0  0  0  0  0  0  0
  151.4952  141.5156  156.1439 C   0  0  0  0  0  0  0  0  0  0  0  0
  151.1742  140.1106  155.9447 N   0  0  0  0  0  0  0  0  0  0  0  0
  150.0357  139.5949  155.3681 C   0  0  0  0  0  0  0  0  0  0  0  0
  149.9872  138.2924  155.2999 N   0  0  0  0  0  0  0  0  0  0  0  0
  151.1846  137.8769  155.8707 C   0  0  0  0  0  0  0  0  0  0  0  0
  151.7814  136.6066  156.1106 C   0  0  0  0  0  0  0  0  0  0  0  0
  151.1732  135.4367  155.7887 N   0  0  0  0  0  0  0  0  0  0  0  0
  151.0725  134.4153  156.8372 C   0  0  0  0  0  0  0  0  0  0  0  0
  150.6802  133.0463  156.2504 C   0  0  0  0  0  0  0  0  0  0  0  0
  149.4012  133.1843  155.4152 C   0  0  2  0  0  0  0  0  0  0  0  0
  149.0513  131.9682  154.7718 O   0  0  0  0  0  0  0  0  0  0  0  0
  147.7805  132.0195  154.1141 C   0  0  0  0  0  0  0  0  0  0  0  0
  147.6030  133.2885  153.2531 C   0  0  0  0  0  0  0  0  0  0  0  0
  146.6794  133.3558  152.4455 O   0  0  0  0  0  0  0  0  0  0  0  0
  148.4523  134.3107  153.4473 N   0  0  0  0  0  0  0  0  0  0  0  0
  149.6272  134.2212  154.3040 C   0  0  1  0  0  0  0  0  0  0  0  0
  150.0017  135.5785  154.9204 C   0  0  0  0  0  0  0  0  0  0  0  0
  153.0130  136.5940  156.6879 N   0  0  0  0  0  0  0  0  0  0  0  0
  153.6168  137.7397  157.0174 C   0  0  0  0  0  0  0  0  0  0  0  0
  153.1777  138.9894  156.8588 N   0  0  0  0  0  0  0  0  0  0  0  0
  151.9467  139.0102  156.2728 C   0  0  0  0  0  0  0  0  0  0  0  0
  148.5851  133.4937  156.0721 H   0  0  0  0  0  0  0  0  0  0  0  0
  150.4517  133.8898  153.6701 H   0  0  0  0  0  0  0  0  0  0  0  0
  150.8442  144.6241  155.9121 H   0  0  0  0  0  0  0  0  0  0  0  0
  152.5224  144.0815  155.9919 H   0  0  0  0  0  0  0  0  0  0  0  0
  151.9981  145.4582  156.9471 H   0  0  0  0  0  0  0  0  0  0  0  0
  150.5805  144.0545  158.3655 H   0  0  0  0  0  0  0  0  0  0  0  0
  153.2535  141.4424  158.6467 H   0  0  0  0  0  0  0  0  0  0  0  0
  152.5794  141.9880  160.1833 H   0  0  0  0  0  0  0  0  0  0  0  0
  151.0932  140.3334  158.6176 H   0  0  0  0  0  0  0  0  0  0  0  0
  150.3438  141.6898  159.4407 H   0  0  0  0  0  0  0  0  0  0  0  0
  149.1924  142.9885  156.7144 H   0  0  0  0  0  0  0  0  0  0  0  0
  151.2203  142.0539  155.2359 H   0  0  0  0  0  0  0  0  0  0  0  0
  152.5786  141.6048  156.2303 H   0  0  0  0  0  0  0  0  0  0  0  0
  149.2357  140.2195  154.9980 H   0  0  0  0  0  0  0  0  0  0  0  0
  152.0250  134.3244  157.3611 H   0  0  0  0  0  0  0  0  0  0  0  0
  150.3292  134.7281  157.5719 H   0  0  0  0  0  0  0  0  0  0  0  0
  151.4914  132.6657  155.6283 H   0  0  0  0  0  0  0  0  0  0  0  0
  150.5333  132.3216  157.0515 H   0  0  0  0  0  0  0  0  0  0  0  0
  147.6666  131.1318  153.4915 H   0  0  0  0  0  0  0  0  0  0  0  0
  146.9877  131.9918  154.8627 H   0  0  0  0  0  0  0  0  0  0  0  0
  148.3230  135.1580  152.9136 H   0  0  0  0  0  0  0  0  0  0  0  0
  149.1709  135.9654  155.5122 H   0  0  0  0  0  0  0  0  0  0  0  0
  150.1832  136.3002  154.1246 H   0  0  0  0  0  0  0  0  0  0  0  0
  154.5914  137.6409  157.4722 H   0  0  0  0  0  0  0  0  0  0  0  0
  1  2  1  0  0  0  0
  1 31  1  0  0  0  0
  1 32  1  0  0  0  0
  1 33  1  0  0  0  0
  2  6  1  0  0  0  0
  2  3  1  0  0  0  0
  2 34  1  0  0  0  0
  3  4  1  0  0  0  0
  4  5  1  0  0  0  0
  4 35  1  0  0  0  0
  4 36  1  0  0  0  0
  5  6  1  0  0  0  0
  5 37  1  0  0  0  0
  5 38  1  0  0  0  0
  6  7  1  0  0  0  0
  6  8  1  0  0  0  0
  7 39  1  0  0  0  0
  8  9  1  0  0  0  0
  8 40  1  0  0  0  0
  8 41  1  0  0  0  0
  9 28  1  0  0  0  0
  9 10  1  0  0  0  0
 10 11  2  0  0  0  0
 10 42  1  0  0  0  0
 11 12  1  0  0  0  0
 12 28  2  0  0  0  0
 12 13  1  0  0  0  0
 13 14  1  0  0  0  0
 13 25  2  0  0  0  0
 14 24  1  0  0  0  0
 14 15  1  0  0  0  0
 15 16  1  0  0  0  0
 15 43  1  0  0  0  0
 15 44  1  0  0  0  0
 16 17  1  0  0  0  0
 16 45  1  0  0  0  0
 16 46  1  0  0  0  0
 17 29  1  0  0  0  0
 17 23  1  0  0  0  0
 17 18  1  0  0  0  0
 18 19  1  0  0  0  0
 19 20  1  0  0  0  0
 19 47  1  0  0  0  0
 19 48  1  0  0  0  0
 20 21  2  0  0  0  0
 20 22  1  0  0  0  0
 22 23  1  0  0  0  0
 22 49  1  0  0  0  0
 23 30  1  0  0  0  0
 23 24  1  0  0  0  0
 24 50  1  0  0  0  0
 24 51  1  0  0  0  0
 25 26  1  0  0  0  0
 26 27  2  0  0  0  0
 26 52  1  0  0  0  0
 27 28  1  0  0  0  0
M  END
> <s_m_source_file>
AV-unprocessed.smi

> <i_m_source_file_index>
265

> <i_lp_mmshare_version>
43012

> <i_f3d_flags>
0

> <s_epik_input>
W0NIMl0xW0NIMl1PW0NAQEhdKFtDSDNdKVtDQEBdMShbT0hdKVtDSDJdbihbY0hdbjIpYyhjMjMpbltjSF1uYzNOKFtDSDJdW0NIMl00KVtDSDJdW0NAQEhdKFtDQEhdNDUpW05IXUMoPU8pW0NIMl1PNQ==

> <s_epik_cmdline>
J2VwaWtfcHl0aG9uJywgJy1waCcsICc3LjAnLCAnLXRuJywgJzgnLCAnLW1hJywgJzIwMCcsICctbWV0YWxfYmluZGluZycsICctaW1hZScsICc8aW5maWxlLm1hZT4nLCAnLW9tYWUnLCAnPG91dGZpbGUubWFlPic=

> <r_lp_tautomer_probability>
1

> <r_epik_Ionization_Penalty>
0.00221504

> <r_epik_Ionization_Penalty_Charging>
0

> <r_epik_Ionization_Penalty_Neutral>
0.00221504

> <r_epik_State_Penalty>
-0

> <r_epik_Charging_Adjusted_Penalty>
0

> <i_epik_Tot_Q>
0

> <i_epik_Tot_abs_Q>
0

> <r_epik_Metal_State_Penalty>
-0

> <b_epik_Metal_Only>
0

> <s_lp_Force_Field>
OPLS_2005

> <r_lp_Energy>
45.3858

> <b_lp_Chiralities_Consistent>
1

> <s_lp_Variant>
AV-unprocessed.smi:265-1

> <Gold.Version>
5.8.1

> <Gold.Id.Protein>
6NUR|6NUR_protein|mol2

> <Gold.PLP.Fitness>
41.5551

> <Gold.PLP.PLP>
-32.5356

> <Gold.PLP.part.hbond>
-4.7950

> <Gold.PLP.part.metal>
0.0000

> <Gold.PLP.part.buried>
1.3113

> <Gold.PLP.part.nonpolar>
-28.9709

> <Gold.PLP.part.repulsive>
0.3124

> <Gold.PLP.ligand.clash>
0.3515

> <Gold.PLP.ligand.torsion>
0.5260

> <Gold.PLP.Chemscore.Hbond>
3.3333

> <Gold.PLP.Chemscore.CHOScore>
0.0000

> <Gold.PLP.Chemscore.Metal>
0.0000

> <Gold.Chemscore.Hbonds>
donor molecule, donor type, donor heavy atom, donor atom, acceptor molecule, acceptor atom, score
      L1  H     7    39       P1  8028  0.96
      L1  H    22    49       P1  7948  0.93
      P1  H  7997  8008       L1    27  1.00
      P1  H 10752 10763       L1    25  0.40

> <Gold.PLP.Chemscore.Internal.Correction>
0.4232

> <Gold.Rescore>
     Score         DG    S(hbond)    S(metal)    S(lipo)     H(rot)  DE(clash)    DE(int)     intcor
     13.68     -19.00       2.64        0.00      89.37       2.25       3.27       2.06       ----

> <Gold.Chemscore.Fitness>
13.6757

> <Gold.Chemscore.DG>
-19.0037

> <Gold.Chemscore.ZeroCoef>
-5.4800

> <Gold.Chemscore.Hbond>
2.6392

> <Gold.Chemscore.Metal>
0.0000

> <Gold.Chemscore.Lipo>
89.3738

> <Gold.Chemscore.Internal_Hbond>
0.0000

> <Gold.Chemscore.DEClash>
3.2710

> <Gold.Chemscore.DEInternal>
2.0569

> <Gold.Chemscore.Rot>
2.2453

> <Gold.Chemscore.Internal.Correction>
   9.000000E+99

> <Gold.Chemscore.Hbonds>
donor molecule, donor type, donor heavy atom, donor atom, acceptor molecule, acceptor atom, score
      L1  H     7    39       P1  8028  0.91
      L1  H    22    49       P1  7948  0.80
      P1  H  7997  8008       L1    27  0.78
      P1  H 10752 10763       L1    25  0.01

> <Gold.Chemscore.Hbond.Weighted>
-8.8149

> <Gold.Chemscore.Metal.Weighted>
-0.0000

> <Gold.Chemscore.Lipo.Weighted>
-10.4567

> <Gold.Chemscore.Internal_Hbond.Weighted>
0.0000

> <Gold.Chemscore.DEClash.Weighted>
3.2710

> <Gold.Chemscore.DEInternal.Weighted>
2.0569

> <Gold.Chemscore.Rot.Weighted>
5.7479

> <Gold.Chemscore.Internal.Correction.Weighted>
   9.000000E+99

> <Gold.Protein.RotatedTorsions>
[ 6907 6896 6895 6894 ] final -110.55 input  -60.11 | X-H torsion
[ 7974 7965 7964 7962 ] final -176.10 input  175.53 | X-H torsion
[ 8008 7997 7996 7995 ] final  -68.12 input   59.86 | X-H torsion
[ 10167 10162 10161 10158 ] final  101.37 input  -65.29 | X-H torsion
[ 10718 10713 10712 10709 ] final   37.74 input   66.30 | X-H torsion
[ 10763 10752 10751 10750 ] final  119.94 input  -60.55 | X-H torsion
[ 11005 11000 10999 10996 ] final -168.35 input  -57.11 | X-H torsion

> <Gold.Protein.ActiveResidues>
 VAL166  LYS551  ARG553  GLY616  TRP617  ASP618  TYR619  PRO620  LYS621  CYS622 
 ASP623  PHE694  ASN695  SER759  ASP760  ASP761  ALA762  ILE779  LEU786  VAL792 
 PHE793  MET794  SER795  GLU796  ALA797  LYS798  CYS799  TRP800  GLU811  SER814 

> <Gold.Protein.RotatedAtoms>
  150.7632  133.9366  159.3442 H   0  0  0  0  0  0  0  0  0  0  0  0  # atno 6907 bound_to 6896
  151.7270  135.0881  160.0303 H   0  0  0  0  0  0  0  0  0  0  0  0  # atno 6908 bound_to 6896
  152.3614  133.6264  159.6053 H   0  0  0  0  0  0  0  0  0  0  0  0  # atno 6909 bound_to 6896
  144.7127  140.1221  143.6404 H   0  0  0  0  0  0  0  0  0  0  0  0  # atno 7974 bound_to 7965
  154.4846  140.0879  156.7457 H   0  0  0  0  0  0  0  0  0  0  0  0  # atno 8008 bound_to 7997
  155.4383  140.3452  155.4269 H   0  0  0  0  0  0  0  0  0  0  0  0  # atno 8009 bound_to 7997
  156.1242  140.1483  156.9148 H   0  0  0  0  0  0  0  0  0  0  0  0  # atno 8010 bound_to 7997
  139.7444  144.7002  151.0527 H   0  0  0  0  0  0  0  0  0  0  0  0  # atno 10167 bound_to 10162
  157.3505  130.7596  149.6975 H   0  0  0  0  0  0  0  0  0  0  0  0  # atno 10718 bound_to 10713
  153.5908  135.3466  155.2910 H   0  0  0  0  0  0  0  0  0  0  0  0  # atno 10763 bound_to 10752
  154.8653  135.4204  154.2519 H   0  0  0  0  0  0  0  0  0  0  0  0  # atno 10764 bound_to 10752
  153.3325  135.7045  153.7006 H   0  0  0  0  0  0  0  0  0  0  0  0  # atno 10765 bound_to 10752
  140.5429  134.5504  157.5104 H   0  0  0  0  0  0  0  0  0  0  0  0  # atno 11005 bound_to 11000
  145.9362  139.2638  143.1296 LP  0  0  0  0  0  0  0  0  0  0  0  0  # atno 17320 bound_to 7965
  145.9472  140.8936  143.0278 LP  0  0  0  0  0  0  0  0  0  0  0  0  # atno 17321 bound_to 7965
  140.7790  143.4885  150.9924 LP  0  0  0  0  0  0  0  0  0  0  0  0  # atno 17342 bound_to 10162
  139.8573  143.7360  152.3175 LP  0  0  0  0  0  0  0  0  0  0  0  0  # atno 17343 bound_to 10162
  155.9721  130.4142  150.4119 LP  0  0  0  0  0  0  0  0  0  0  0  0  # atno 17370 bound_to 10713
  157.2181  131.0476  151.2562 LP  0  0  0  0  0  0  0  0  0  0  0  0  # atno 17371 bound_to 10713
  139.9494  134.7643  156.0483 LP  0  0  0  0  0  0  0  0  0  0  0  0  # atno 17394 bound_to 11000
  141.1216  133.6611  156.3230 LP  0  0  0  0  0  0  0  0  0  0  0  0  # atno 17395 bound_to 11000

$$$$
