AV-unprocessed.smi:2736|AV-procd|sdf|10546|dock7
  -GOLD-   2272014593D 1   1.00000     0.00000
 Structure written by MMmdl.
 38 40  0  0  0  0  0  0  0  0  1 V2000
  154.3772  139.4744  160.1789 C   0  0  0  0  0  0  0  0  0  0  0  0
  153.5740  140.7049  160.0523 N   0  0  0  0  0  0  0  0  0  0  0  0
  152.8820  140.9108  158.8876 C   0  0  0  0  0  0  0  0  0  0  0  0
  152.8792  140.1404  157.9269 O   0  0  0  0  0  0  0  0  0  0  0  0
  152.1181  142.1636  158.8636 C   0  0  0  0  0  0  0  0  0  0  0  0
  152.1044  143.0396  159.8986 C   0  0  0  0  0  0  0  0  0  0  0  0
  151.3111  144.1455  159.6132 N   0  0  0  0  0  0  0  0  0  0  0  0
  150.8774  143.8685  158.3834 C   0  0  0  0  0  0  0  0  0  0  0  0
  151.3128  142.7042  157.8612 N   0  0  0  0  0  0  0  0  0  0  0  0
  150.9847  142.1873  156.5409 C   0  0  0  0  0  0  0  0  0  0  0  0
  150.1854  140.8698  156.6008 C   0  0  1  0  0  0  0  0  0  0  0  0
  149.6031  140.7120  157.8815 O   0  0  0  0  0  0  0  0  0  0  0  0
  149.1603  140.7961  155.4714 C   0  0  0  0  0  0  0  0  0  0  0  0
  148.1224  141.7543  155.3973 C   0  0  0  0  0  0  0  0  0  0  0  0
  147.1707  141.7030  154.3612 C   0  0  0  0  0  0  0  0  0  0  0  0
  147.2501  140.6960  153.3829 C   0  0  0  0  0  0  0  0  0  0  0  0
  148.2856  139.7452  153.4390 C   0  0  0  0  0  0  0  0  0  0  0  0
  149.2419  139.7919  154.4733 C   0  0  0  0  0  0  0  0  0  0  0  0
  150.5056  138.6111  154.4785 Cl  0  0  0  0  0  0  0  0  0  0  0  0
  152.8610  142.7285  161.0580 N   0  0  0  0  0  0  0  0  0  0  0  0
  152.8619  143.6677  162.1832 C   0  0  0  0  0  0  0  0  0  0  0  0
  153.5950  141.5711  161.1317 C   0  0  0  0  0  0  0  0  0  0  0  0
  154.2582  141.3175  162.1415 O   0  0  0  0  0  0  0  0  0  0  0  0
  154.2619  138.7657  159.3583 H   0  0  0  0  0  0  0  0  0  0  0  0
  154.1112  138.9310  161.0871 H   0  0  0  0  0  0  0  0  0  0  0  0
  155.4383  139.7227  160.2355 H   0  0  0  0  0  0  0  0  0  0  0  0
  150.2233  144.5361  157.8420 H   0  0  0  0  0  0  0  0  0  0  0  0
  150.4501  142.9456  155.9702 H   0  0  0  0  0  0  0  0  0  0  0  0
  151.9223  142.0233  156.0082 H   0  0  0  0  0  0  0  0  0  0  0  0
  150.8770  140.0337  156.5016 H   0  0  0  0  0  0  0  0  0  0  0  0
  149.6100  139.7931  158.1024 H   0  0  0  0  0  0  0  0  0  0  0  0
  148.0490  142.5402  156.1347 H   0  0  0  0  0  0  0  0  0  0  0  0
  146.3805  142.4381  154.3166 H   0  0  0  0  0  0  0  0  0  0  0  0
  146.5210  140.6557  152.5871 H   0  0  0  0  0  0  0  0  0  0  0  0
  148.3478  138.9779  152.6814 H   0  0  0  0  0  0  0  0  0  0  0  0
  152.5213  143.1760  163.0955 H   0  0  0  0  0  0  0  0  0  0  0  0
  152.2107  144.5257  162.0181 H   0  0  0  0  0  0  0  0  0  0  0  0
  153.8679  144.0521  162.3576 H   0  0  0  0  0  0  0  0  0  0  0  0
  1  2  1  0  0  0  0
  1 24  1  0  0  0  0
  1 25  1  0  0  0  0
  1 26  1  0  0  0  0
  2 22  1  0  0  0  0
  2  3  1  0  0  0  0
  3  4  2  0  0  0  0
  3  5  1  0  0  0  0
  5  9  1  0  0  0  0
  5  6  2  0  0  0  0
  6  7  1  0  0  0  0
  6 20  1  0  0  0  0
  7  8  2  0  0  0  0
  8  9  1  0  0  0  0
  8 27  1  0  0  0  0
  9 10  1  0  0  0  0
 10 11  1  0  0  0  0
 10 28  1  0  0  0  0
 10 29  1  0  0  0  0
 11 12  1  0  0  0  0
 11 13  1  0  0  0  0
 11 30  1  0  0  0  0
 12 31  1  0  0  0  0
 13 18  1  0  0  0  0
 13 14  2  0  0  0  0
 14 15  1  0  0  0  0
 14 32  1  0  0  0  0
 15 16  2  0  0  0  0
 15 33  1  0  0  0  0
 16 17  1  0  0  0  0
 16 34  1  0  0  0  0
 17 18  2  0  0  0  0
 17 35  1  0  0  0  0
 18 19  1  0  0  0  0
 20 21  1  0  0  0  0
 20 22  1  0  0  0  0
 21 36  1  0  0  0  0
 21 37  1  0  0  0  0
 21 38  1  0  0  0  0
 22 23  2  0  0  0  0
M  END
> <s_m_source_file>
AV-unprocessed.smi

> <i_m_source_file_index>
2736

> <i_lp_mmshare_version>
43012

> <i_f3d_flags>
0

> <s_epik_input>
Tz1jMW4oW0NIM10pYyg9TyluKFtDSDNdKWMoYzEyKW5bY0hdbjJbQ0gyXVtDQEhdKFtPSF0pYzNbY0hdW2NIXVtjSF1bY0hdYzNDbA==

> <s_epik_cmdline>
J2VwaWtfcHl0aG9uJywgJy1waCcsICc3LjAnLCAnLXRuJywgJzgnLCAnLW1hJywgJzIwMCcsICctbWV0YWxfYmluZGluZycsICctaW1hZScsICc8aW5maWxlLm1hZT4nLCAnLW9tYWUnLCAnPG91dGZpbGUubWFlPic=

> <r_lp_tautomer_probability>
1

> <r_epik_Ionization_Penalty>
1.63404e-06

> <r_epik_Ionization_Penalty_Charging>
3.74189e-09

> <r_epik_Ionization_Penalty_Neutral>
1.63029e-06

> <r_epik_State_Penalty>
-0

> <r_epik_Charging_Adjusted_Penalty>
3.74189e-09

> <i_epik_Tot_Q>
0

> <i_epik_Tot_abs_Q>
0

> <r_epik_Metal_State_Penalty>
-0

> <b_epik_Metal_Only>
0

> <s_lp_Force_Field>
OPLS_2005

> <r_lp_Energy>
36.7388

> <b_lp_Chiralities_Consistent>
1

> <s_lp_Variant>
AV-unprocessed.smi:2736-2

> <Gold.Version>
5.8.1

> <Gold.Id.Protein>
6NUR|6NUR_protein|mol2

> <Gold.PLP.Fitness>
52.8626

> <Gold.PLP.PLP>
-47.7582

> <Gold.PLP.part.hbond>
-1.7442

> <Gold.PLP.part.metal>
0.0000

> <Gold.PLP.part.buried>
-0.1713

> <Gold.PLP.part.nonpolar>
-45.0317

> <Gold.PLP.part.repulsive>
0.0695

> <Gold.PLP.ligand.clash>
0.0000

> <Gold.PLP.ligand.torsion>
0.5601

> <Gold.PLP.Chemscore.Hbond>
1.0000

> <Gold.PLP.Chemscore.CHOScore>
1.0651

> <Gold.PLP.Chemscore.Metal>
0.0000

> <Gold.Chemscore.Hbonds>
donor molecule, donor type, donor heavy atom, donor atom, acceptor molecule, acceptor atom, score
      P1  H  7997  8010       L1     4  1.00
      L1  C     8    27       P1  8028  0.90
      L1  C     8    27       P1  8029  0.15

> <Gold.PLP.Chemscore.Internal.Correction>
0.0295

> <Gold.Rescore>
     Score         DG    S(hbond)    S(metal)    S(lipo)     H(rot)  DE(clash)    DE(int)     intcor
     11.10     -13.34       0.92        0.00      87.86       2.15       1.62       0.61       ----

> <Gold.Chemscore.Fitness>
11.1011

> <Gold.Chemscore.DG>
-13.3369

> <Gold.Chemscore.ZeroCoef>
-5.4800

> <Gold.Chemscore.Hbond>
0.9204

> <Gold.Chemscore.Metal>
0.0000

> <Gold.Chemscore.Lipo>
87.8637

> <Gold.Chemscore.Internal_Hbond>
0.0000

> <Gold.Chemscore.DEClash>
1.6212

> <Gold.Chemscore.DEInternal>
0.6146

> <Gold.Chemscore.Rot>
2.1474

> <Gold.Chemscore.Internal.Correction>
   9.000000E+99

> <Gold.Chemscore.Hbonds>
donor molecule, donor type, donor heavy atom, donor atom, acceptor molecule, acceptor atom, score
      P1  H  7997  8010       L1     4  0.88

> <Gold.Chemscore.Hbond.Weighted>
-3.0742

> <Gold.Chemscore.Metal.Weighted>
-0.0000

> <Gold.Chemscore.Lipo.Weighted>
-10.2801

> <Gold.Chemscore.Internal_Hbond.Weighted>
0.0000

> <Gold.Chemscore.DEClash.Weighted>
1.6212

> <Gold.Chemscore.DEInternal.Weighted>
0.6146

> <Gold.Chemscore.Rot.Weighted>
5.4974

> <Gold.Chemscore.Internal.Correction.Weighted>
   9.000000E+99

> <Gold.Protein.RotatedTorsions>
[ 6907 6896 6895 6894 ] final  -37.01 input  -60.11 | X-H torsion
[ 7974 7965 7964 7962 ] final -103.87 input  175.53 | X-H torsion
[ 8008 7997 7996 7995 ] final   43.46 input   59.86 | X-H torsion
[ 10167 10162 10161 10158 ] final    7.29 input  -65.29 | X-H torsion
[ 10718 10713 10712 10709 ] final   90.20 input   66.30 | X-H torsion
[ 10763 10752 10751 10750 ] final  170.37 input  -60.55 | X-H torsion
[ 11005 11000 10999 10996 ] final  110.53 input  -57.11 | X-H torsion

> <Gold.Protein.ActiveResidues>
 VAL166  LYS551  ARG553  GLY616  TRP617  ASP618  TYR619  PRO620  LYS621  CYS622 
 ASP623  PHE694  ASN695  SER759  ASP760  ASP761  ALA762  ILE779  LEU786  VAL792 
 PHE793  MET794  SER795  GLU796  ALA797  LYS798  CYS799  TRP800  GLU811  SER814 

> <Gold.Protein.RotatedAtoms>
  151.0200  134.9462  159.8054 H   0  0  0  0  0  0  0  0  0  0  0  0  # atno 6907 bound_to 6896
  152.5323  134.2916  159.9055 H   0  0  0  0  0  0  0  0  0  0  0  0  # atno 6908 bound_to 6896
  151.2923  133.4118  159.2668 H   0  0  0  0  0  0  0  0  0  0  0  0  # atno 6909 bound_to 6896
  145.2503  140.9236  143.3099 H   0  0  0  0  0  0  0  0  0  0  0  0  # atno 7974 bound_to 7965
  155.3031  140.3386  155.4247 H   0  0  0  0  0  0  0  0  0  0  0  0  # atno 8008 bound_to 7997
  156.1991  140.1726  156.7975 H   0  0  0  0  0  0  0  0  0  0  0  0  # atno 8009 bound_to 7997
  154.5537  140.0700  156.8692 H   0  0  0  0  0  0  0  0  0  0  0  0  # atno 8010 bound_to 7997
  140.6380  143.7840  150.7387 H   0  0  0  0  0  0  0  0  0  0  0  0  # atno 10167 bound_to 10162
  157.6958  131.0362  150.3542 H   0  0  0  0  0  0  0  0  0  0  0  0  # atno 10718 bound_to 10713
  154.3966  135.2754  155.2122 H   0  0  0  0  0  0  0  0  0  0  0  0  # atno 10763 bound_to 10752
  154.4166  135.6010  153.5988 H   0  0  0  0  0  0  0  0  0  0  0  0  # atno 10764 bound_to 10752
  152.9831  135.5962  154.4228 H   0  0  0  0  0  0  0  0  0  0  0  0  # atno 10765 bound_to 10752
  139.8884  134.9486  156.6294 H   0  0  0  0  0  0  0  0  0  0  0  0  # atno 11005 bound_to 11000
  144.9509  139.4084  143.6403 LP  0  0  0  0  0  0  0  0  0  0  0  0  # atno 17320 bound_to 7965
  146.3304  139.8515  142.8872 LP  0  0  0  0  0  0  0  0  0  0  0  0  # atno 17321 bound_to 7965
  140.1466  143.4394  152.2159 LP  0  0  0  0  0  0  0  0  0  0  0  0  # atno 17342 bound_to 10162
  139.5590  144.7393  151.4210 LP  0  0  0  0  0  0  0  0  0  0  0  0  # atno 17343 bound_to 10162
  156.3986  130.3911  149.6976 LP  0  0  0  0  0  0  0  0  0  0  0  0  # atno 17370 bound_to 10713
  156.4301  130.7811  151.2830 LP  0  0  0  0  0  0  0  0  0  0  0  0  # atno 17371 bound_to 10713
  140.7678  133.8763  155.8468 LP  0  0  0  0  0  0  0  0  0  0  0  0  # atno 17394 bound_to 11000
  140.9867  134.1333  157.4445 LP  0  0  0  0  0  0  0  0  0  0  0  0  # atno 17395 bound_to 11000

$$$$
