AV-unprocessed.smi:399|AV-procd|sdf|2491|dock4
  -GOLD-   2262022433D 1   1.00000     0.00000
 Structure written by MMmdl.
 47 48  0  0  0  0  0  0  0  0  4 V2000
  151.5778  140.2390  157.2799 C   0  0  0  0  0  0  0  0  0  0  0  0
  151.1015  139.1977  156.2358 C   0  0  0  0  0  0  0  0  0  0  0  0
  152.2262  139.1045  155.1745 C   0  0  0  0  0  0  0  0  0  0  0  0
  150.9087  137.8135  156.9190 C   0  0  0  0  0  0  0  0  0  0  0  0
  149.6433  137.7120  157.6399 N   0  0  0  0  0  0  0  0  0  0  0  0
  149.3193  136.7058  158.4640 C   0  0  0  0  0  0  0  0  0  0  0  0
  150.0789  135.7672  158.7077 O   0  0  0  0  0  0  0  0  0  0  0  0
  147.9306  136.7902  159.1145 C   0  0  0  0  0  0  0  0  0  0  0  0
  147.7071  135.7712  160.1545 N   0  0  0  0  0  0  0  0  0  0  0  0
  147.7880  134.4219  159.7569 C   0  0  0  0  0  0  0  0  0  0  0  0
  147.5940  133.4076  160.6226 C   0  0  0  0  0  0  0  0  0  0  0  0
  147.6798  132.0279  160.1971 N   0  3  0  0  0  0  0  0  0  0  0  0
  147.9436  131.7896  159.0230 O   0  0  0  0  0  0  0  0  0  0  0  0
  147.4852  131.1377  161.0195 O   0  5  0  0  0  0  0  0  0  0  0  0
  147.2942  133.7454  162.0005 C   0  0  0  0  0  0  0  0  0  0  0  0
  147.2143  135.0338  162.3869 C   0  0  0  0  0  0  0  0  0  0  0  0
  147.4248  136.1360  161.4428 C   0  0  0  0  0  0  0  0  0  0  0  0
  147.3507  137.3154  161.7883 O   0  0  0  0  0  0  0  0  0  0  0  0
  149.8273  139.6716  155.5829 N   0  3  0  0  0  0  0  0  0  0  0  0
  149.8282  141.0852  155.1090 C   0  0  0  0  0  0  0  0  0  0  0  0
  148.4257  141.4996  154.6339 C   0  0  0  0  0  0  0  0  0  0  0  0
  147.9940  140.6255  153.6012 O   0  0  0  0  0  0  0  0  0  0  0  0
  147.8958  139.2842  154.0579 C   0  0  0  0  0  0  0  0  0  0  0  0
  149.2782  138.7884  154.5144 C   0  0  0  0  0  0  0  0  0  0  0  0
  152.5932  140.0350  157.6218 H   0  0  0  0  0  0  0  0  0  0  0  0
  150.9547  140.2434  158.1742 H   0  0  0  0  0  0  0  0  0  0  0  0
  151.5789  141.2474  156.8641 H   0  0  0  0  0  0  0  0  0  0  0  0
  153.2043  138.9550  155.6332 H   0  0  0  0  0  0  0  0  0  0  0  0
  152.2884  140.0170  154.5804 H   0  0  0  0  0  0  0  0  0  0  0  0
  152.0841  138.2673  154.4916 H   0  0  0  0  0  0  0  0  0  0  0  0
  150.9332  137.0097  156.1831 H   0  0  0  0  0  0  0  0  0  0  0  0
  151.7183  137.6208  157.6235 H   0  0  0  0  0  0  0  0  0  0  0  0
  148.9675  138.4481  157.4937 H   0  0  0  0  0  0  0  0  0  0  0  0
  147.8095  137.7923  159.5283 H   0  0  0  0  0  0  0  0  0  0  0  0
  147.1663  136.7082  158.3392 H   0  0  0  0  0  0  0  0  0  0  0  0
  148.0102  134.2749  158.7096 H   0  0  0  0  0  0  0  0  0  0  0  0
  147.1318  132.9682  162.7326 H   0  0  0  0  0  0  0  0  0  0  0  0
  146.9889  135.2625  163.4182 H   0  0  0  0  0  0  0  0  0  0  0  0
  150.1285  141.7722  155.8974 H   0  0  0  0  0  0  0  0  0  0  0  0
  150.5332  141.2090  154.2869 H   0  0  0  0  0  0  0  0  0  0  0  0
  147.7135  141.4900  155.4607 H   0  0  0  0  0  0  0  0  0  0  0  0
  148.4477  142.5179  154.2456 H   0  0  0  0  0  0  0  0  0  0  0  0
  147.1685  139.2136  154.8685 H   0  0  0  0  0  0  0  0  0  0  0  0
  147.5249  138.6616  153.2436 H   0  0  0  0  0  0  0  0  0  0  0  0
  149.9531  138.7653  153.6587 H   0  0  0  0  0  0  0  0  0  0  0  0
  149.1620  137.7636  154.8615 H   0  0  0  0  0  0  0  0  0  0  0  0
  149.1395  139.6438  156.3221 H   0  0  0  0  0  0  0  0  0  0  0  0
  1  2  1  0  0  0  0
  1 25  1  0  0  0  0
  1 26  1  0  0  0  0
  1 27  1  0  0  0  0
  2  3  1  0  0  0  0
  2  4  1  0  0  0  0
  2 19  1  0  0  0  0
  3 28  1  0  0  0  0
  3 29  1  0  0  0  0
  3 30  1  0  0  0  0
  4  5  1  0  0  0  0
  4 31  1  0  0  0  0
  4 32  1  0  0  0  0
  5  6  1  0  0  0  0
  5 33  1  0  0  0  0
  6  7  2  0  0  0  0
  6  8  1  0  0  0  0
  8  9  1  0  0  0  0
  8 34  1  0  0  0  0
  8 35  1  0  0  0  0
  9 17  1  0  0  0  0
  9 10  1  0  0  0  0
 10 11  2  0  0  0  0
 10 36  1  0  0  0  0
 11 12  1  0  0  0  0
 11 15  1  0  0  0  0
 12 13  2  0  0  0  0
 12 14  1  0  0  0  0
 15 16  2  0  0  0  0
 15 37  1  0  0  0  0
 16 17  1  0  0  0  0
 16 38  1  0  0  0  0
 17 18  2  0  0  0  0
 19 24  1  0  0  0  0
 19 20  1  0  0  0  0
 19 47  1  0  0  0  0
 20 21  1  0  0  0  0
 20 39  1  0  0  0  0
 20 40  1  0  0  0  0
 21 22  1  0  0  0  0
 21 41  1  0  0  0  0
 21 42  1  0  0  0  0
 22 23  1  0  0  0  0
 23 24  1  0  0  0  0
 23 43  1  0  0  0  0
 23 44  1  0  0  0  0
 24 45  1  0  0  0  0
 24 46  1  0  0  0  0
M  CHG  1  12   1
M  CHG  1  14  -1
M  CHG  1  19   1
M  END
> <s_m_source_file>
AV-unprocessed.smi

> <i_m_source_file_index>
399

> <i_lp_mmshare_version>
43012

> <i_f3d_flags>
0

> <s_epik_input>
W0NIMl0xW0NIMl1PW0NIMl1bQ0gyXU4xQyhbQ0gzXSkoW0NIM10pW0NIMl1bTkhdQyg9TylbQ0gyXW4yW2NIXWMoW04rXSg9TylbTy1dKVtjSF1bY0hdYzI9Tw==

> <s_epik_cmdline>
J2VwaWtfcHl0aG9uJywgJy1waCcsICc3LjAnLCAnLXRuJywgJzgnLCAnLW1hJywgJzIwMCcsICctbWV0YWxfYmluZGluZycsICctaW1hZScsICc8aW5maWxlLm1hZT4nLCAnLW9tYWUnLCAnPG91dGZpbGUubWFlPic=

> <r_lp_tautomer_probability>
1

> <r_epik_Ionization_Penalty>
0.656654

> <r_epik_Ionization_Penalty_Charging>
0.656653

> <r_epik_Ionization_Penalty_Neutral>
9.12373e-08

> <r_epik_State_Penalty>
0.675641

> <r_epik_Charging_Adjusted_Penalty>
1.33229

> <i_epik_Tot_Q>
1

> <i_epik_Tot_abs_Q>
3

> <r_epik_Metal_State_Penalty>
0.675694

> <b_epik_Metal_Only>
0

> <s_lp_Force_Field>
OPLS_2005

> <r_lp_Energy>
37.786

> <b_lp_Chiralities_Consistent>
1

> <s_lp_Variant>
AV-unprocessed.smi:399-2

> <Gold.Version>
5.8.1

> <Gold.Id.Protein>
6NUR|6NUR_protein|mol2

> <Gold.PLP.Fitness>
46.0653

> <Gold.PLP.PLP>
-39.2468

> <Gold.PLP.part.hbond>
-3.0000

> <Gold.PLP.part.metal>
0.0000

> <Gold.PLP.part.buried>
-5.2119

> <Gold.PLP.part.nonpolar>
-32.2193

> <Gold.PLP.part.repulsive>
1.6300

> <Gold.PLP.ligand.clash>
0.0000

> <Gold.PLP.ligand.torsion>
0.4332

> <Gold.PLP.Chemscore.Hbond>
2.5040

> <Gold.PLP.Chemscore.CHOScore>
0.0000

> <Gold.PLP.Chemscore.Metal>
0.0000

> <Gold.Chemscore.Hbonds>
donor molecule, donor type, donor heavy atom, donor atom, acceptor molecule, acceptor atom, score
      P1  H  6896  6908       L1     7  1.00
      P1  H  6931  6943       L1    18  0.85
      P1  H  6934  6947       L1    18  0.78

> <Gold.PLP.Chemscore.Internal.Correction>
0.1730

> <Gold.Rescore>
     Score         DG    S(hbond)    S(metal)    S(lipo)     H(rot)  DE(clash)    DE(int)     intcor
     15.60     -17.63       2.63        0.00      76.36       2.18       0.23       1.80       ----

> <Gold.Chemscore.Fitness>
15.6000

> <Gold.Chemscore.DG>
-17.6321

> <Gold.Chemscore.ZeroCoef>
-5.4800

> <Gold.Chemscore.Hbond>
2.6350

> <Gold.Chemscore.Metal>
0.0000

> <Gold.Chemscore.Lipo>
76.3569

> <Gold.Chemscore.Internal_Hbond>
0.0000

> <Gold.Chemscore.DEClash>
0.2273

> <Gold.Chemscore.DEInternal>
1.8048

> <Gold.Chemscore.Rot>
2.1806

> <Gold.Chemscore.Internal.Correction>
   9.000000E+99

> <Gold.Chemscore.Hbonds>
donor molecule, donor type, donor heavy atom, donor atom, acceptor molecule, acceptor atom, score
      P1  H  6896  6908       L1     7  0.91
      P1  H  6931  6943       L1    18  0.77
      P1  H  6934  6947       L1    18  0.77

> <Gold.Chemscore.Hbond.Weighted>
-8.8008

> <Gold.Chemscore.Metal.Weighted>
-0.0000

> <Gold.Chemscore.Lipo.Weighted>
-8.9338

> <Gold.Chemscore.Internal_Hbond.Weighted>
0.0000

> <Gold.Chemscore.DEClash.Weighted>
0.2273

> <Gold.Chemscore.DEInternal.Weighted>
1.8048

> <Gold.Chemscore.Rot.Weighted>
5.5825

> <Gold.Chemscore.Internal.Correction.Weighted>
   9.000000E+99

> <Gold.Protein.RotatedTorsions>
[ 6907 6896 6895 6894 ] final -165.88 input  -60.11 | X-H torsion
[ 7974 7965 7964 7962 ] final    1.35 input  175.53 | X-H torsion
[ 8008 7997 7996 7995 ] final  -47.19 input   59.86 | X-H torsion
[ 10167 10162 10161 10158 ] final  -96.21 input  -65.29 | X-H torsion
[ 10718 10713 10712 10709 ] final -137.06 input   66.30 | X-H torsion
[ 10763 10752 10751 10750 ] final  110.82 input  -60.55 | X-H torsion
[ 11005 11000 10999 10996 ] final  -25.45 input  -57.11 | X-H torsion

> <Gold.Protein.ActiveResidues>
 VAL166  LYS551  ARG553  GLY616  TRP617  ASP618  TYR619  PRO620  LYS621  CYS622 
 ASP623  PHE694  ASN695  SER759  ASP760  ASP761  ALA762  ILE779  LEU786  VAL792 
 PHE793  MET794  SER795  GLU796  ALA797  LYS798  CYS799  TRP800  GLU811  SER814 

> <Gold.Protein.RotatedAtoms>
  151.4348  133.3660  159.2773 H   0  0  0  0  0  0  0  0  0  0  0  0  # atno 6907 bound_to 6896
  150.9199  134.8618  159.7493 H   0  0  0  0  0  0  0  0  0  0  0  0  # atno 6908 bound_to 6896
  152.4976  134.4285  159.9556 H   0  0  0  0  0  0  0  0  0  0  0  0  # atno 6909 bound_to 6896
  146.2440  140.1001  142.8348 H   0  0  0  0  0  0  0  0  0  0  0  0  # atno 7974 bound_to 7965
  154.4014  140.1352  156.4135 H   0  0  0  0  0  0  0  0  0  0  0  0  # atno 8008 bound_to 7997
  155.7711  140.3484  155.5227 H   0  0  0  0  0  0  0  0  0  0  0  0  # atno 8009 bound_to 7997
  155.8766  140.0980  157.1504 H   0  0  0  0  0  0  0  0  0  0  0  0  # atno 8010 bound_to 7997
  140.2961  143.3191  152.0296 H   0  0  0  0  0  0  0  0  0  0  0  0  # atno 10167 bound_to 10162
  156.2840  130.7337  151.1342 H   0  0  0  0  0  0  0  0  0  0  0  0  # atno 10718 bound_to 10713
  153.4545  135.3736  155.2303 H   0  0  0  0  0  0  0  0  0  0  0  0  # atno 10763 bound_to 10752
  154.8757  135.3893  154.3999 H   0  0  0  0  0  0  0  0  0  0  0  0  # atno 10764 bound_to 10752
  153.4563  135.7086  153.6142 H   0  0  0  0  0  0  0  0  0  0  0  0  # atno 10765 bound_to 10752
  140.8938  133.7570  156.0455 H   0  0  0  0  0  0  0  0  0  0  0  0  # atno 11005 bound_to 11000
  145.0576  140.9064  143.4958 LP  0  0  0  0  0  0  0  0  0  0  0  0  # atno 17320 bound_to 7965
  145.1110  139.2757  143.5637 LP  0  0  0  0  0  0  0  0  0  0  0  0  # atno 17321 bound_to 7965
  139.4926  144.6490  151.6717 LP  0  0  0  0  0  0  0  0  0  0  0  0  # atno 17342 bound_to 10162
  140.5691  144.0140  150.6207 LP  0  0  0  0  0  0  0  0  0  0  0  0  # atno 17343 bound_to 10162
  157.7323  131.0601  150.5636 LP  0  0  0  0  0  0  0  0  0  0  0  0  # atno 17370 bound_to 10713
  156.5745  130.4288  149.6005 LP  0  0  0  0  0  0  0  0  0  0  0  0  # atno 17371 bound_to 10713
  140.8314  134.3174  157.5347 LP  0  0  0  0  0  0  0  0  0  0  0  0  # atno 17394 bound_to 11000
  139.8733  134.9365  156.3662 LP  0  0  0  0  0  0  0  0  0  0  0  0  # atno 17395 bound_to 11000

$$$$
