AV-unprocessed.smi:55|AV-procd|sdf|568|dock6
  -GOLD-   2262016473D 1   1.00000     0.00000
 Structure written by MMmdl.
 31 32  0  0  0  0  0  0  0  0  1 V2000
  150.6064  142.9435  158.3369 C   0  0  0  0  0  0  0  0  0  0  0  0
  150.6827  141.6902  157.4807 C   0  0  0  0  0  0  0  0  0  0  0  0
  150.0268  141.5764  156.2977 C   0  0  0  0  0  0  0  0  0  0  0  0
  150.0737  140.4454  155.4948 N   0  0  0  0  0  0  0  0  0  0  0  0
  149.3160  140.3926  154.1870 C   0  0  1  0  0  0  0  0  0  0  0  0
  148.2643  139.2787  154.2097 C   0  0  0  0  0  0  0  0  0  0  0  0
  146.9710  140.0560  154.3681 C   0  0  2  0  0  0  0  0  0  0  0  0
  145.8910  139.3717  153.7665 O   0  0  0  0  0  0  0  0  0  0  0  0
  147.2920  141.3761  153.6627 C   0  0  1  0  0  0  0  0  0  0  0  0
  146.4258  142.5529  154.1364 C   0  0  0  0  0  0  0  0  0  0  0  0
  145.0636  142.1831  154.1278 O   0  0  0  0  0  0  0  0  0  0  0  0
  148.6541  141.6089  154.0091 O   0  0  0  0  0  0  0  0  0  0  0  0
  150.8326  139.3322  155.9139 C   0  0  0  0  0  0  0  0  0  0  0  0
  150.9082  138.2868  155.2695 O   0  0  0  0  0  0  0  0  0  0  0  0
  151.5101  139.4501  157.1265 N   0  0  0  0  0  0  0  0  0  0  0  0
  151.4950  140.5697  157.9620 C   0  0  0  0  0  0  0  0  0  0  0  0
  152.1360  140.5529  159.0115 O   0  0  0  0  0  0  0  0  0  0  0  0
  150.0431  140.2750  153.3825 H   0  0  0  0  0  0  0  0  0  0  0  0
  146.7605  140.2225  155.4252 H   0  0  0  0  0  0  0  0  0  0  0  0
  147.2200  141.2396  152.5816 H   0  0  0  0  0  0  0  0  0  0  0  0
  152.0564  138.6568  157.4286 H   0  0  0  0  0  0  0  0  0  0  0  0
  149.9871  143.7123  157.8743 H   0  0  0  0  0  0  0  0  0  0  0  0
  151.6013  143.3627  158.4892 H   0  0  0  0  0  0  0  0  0  0  0  0
  150.1787  142.7122  159.3130 H   0  0  0  0  0  0  0  0  0  0  0  0
  149.4350  142.4161  155.9653 H   0  0  0  0  0  0  0  0  0  0  0  0
  148.2988  138.7601  153.2504 H   0  0  0  0  0  0  0  0  0  0  0  0
  148.4426  138.5552  155.0067 H   0  0  0  0  0  0  0  0  0  0  0  0
  145.3289  140.0048  153.3463 H   0  0  0  0  0  0  0  0  0  0  0  0
  146.6846  142.8214  155.1611 H   0  0  0  0  0  0  0  0  0  0  0  0
  146.5855  143.4376  153.5191 H   0  0  0  0  0  0  0  0  0  0  0  0
  144.9592  141.4320  153.5639 H   0  0  0  0  0  0  0  0  0  0  0  0
  1  2  1  0  0  0  0
  1 22  1  0  0  0  0
  1 23  1  0  0  0  0
  1 24  1  0  0  0  0
  2 16  1  0  0  0  0
  2  3  2  0  0  0  0
  3  4  1  0  0  0  0
  3 25  1  0  0  0  0
  4  5  1  0  0  0  0
  4 13  1  0  0  0  0
  5 18  1  0  0  0  0
  5 12  1  0  0  0  0
  5  6  1  0  0  0  0
  6  7  1  0  0  0  0
  6 26  1  0  0  0  0
  6 27  1  0  0  0  0
  7 19  1  0  0  0  0
  7  8  1  0  0  0  0
  7  9  1  0  0  0  0
  8 28  1  0  0  0  0
  9 20  1  0  0  0  0
  9 10  1  0  0  0  0
  9 12  1  0  0  0  0
 10 11  1  0  0  0  0
 10 29  1  0  0  0  0
 10 30  1  0  0  0  0
 11 31  1  0  0  0  0
 13 14  2  0  0  0  0
 13 15  1  0  0  0  0
 15 21  1  0  0  0  0
 15 16  1  0  0  0  0
 16 17  2  0  0  0  0
M  END
> <s_m_source_file>
AV-unprocessed.smi

> <i_m_source_file_index>
55

> <i_lp_mmshare_version>
43012

> <i_f3d_flags>
0

> <s_epik_input>
Tz1jMVtuSF1jKD1PKW4oW2NIXWMxW0NIM10pW0NAQEhdMltDSDJdW0NAQEhdKFtPSF0pW0NAQEhdKE8yKVtDSDJdW09IXQ==

> <s_epik_cmdline>
J2VwaWtfcHl0aG9uJywgJy1waCcsICc3LjAnLCAnLXRuJywgJzgnLCAnLW1hJywgJzIwMCcsICctbWV0YWxfYmluZGluZycsICctaW1hZScsICc8aW5maWxlLm1hZT4nLCAnLW9tYWUnLCAnPG91dGZpbGUubWFlPic=

> <r_lp_tautomer_probability>
0.999537

> <r_epik_Ionization_Penalty>
0.00121888

> <r_epik_Ionization_Penalty_Charging>
0.00121876

> <r_epik_Ionization_Penalty_Neutral>
1.19946e-07

> <r_epik_State_Penalty>
0.000805124

> <r_epik_Charging_Adjusted_Penalty>
0.00202389

> <i_epik_Tot_Q>
0

> <i_epik_Tot_abs_Q>
0

> <r_epik_Metal_State_Penalty>
0.662472

> <b_epik_Metal_Only>
0

> <s_epik_Chemistry_Notes>
This compound contains an acetal/aminal-like group ( X-CH(R)-Y where X, Y are N, S, or O) that may be acid/base labile, releasing an aldehyde.

> <s_lp_Force_Field>
OPLS_2005

> <r_lp_Energy>
24.9253

> <b_lp_Chiralities_Consistent>
1

> <s_lp_Variant>
AV-unprocessed.smi:55-8

> <Gold.Version>
5.8.1

> <Gold.Id.Protein>
6NUR|6NUR_protein|mol2

> <Gold.PLP.Fitness>
38.2394

> <Gold.PLP.PLP>
-28.0601

> <Gold.PLP.part.hbond>
-3.2880

> <Gold.PLP.part.metal>
0.0000

> <Gold.PLP.part.buried>
-1.4016

> <Gold.PLP.part.nonpolar>
-23.7052

> <Gold.PLP.part.repulsive>
0.3658

> <Gold.PLP.ligand.clash>
0.0000

> <Gold.PLP.ligand.torsion>
0.0912

> <Gold.PLP.Chemscore.Hbond>
2.4510

> <Gold.PLP.Chemscore.CHOScore>
1.0000

> <Gold.PLP.Chemscore.Metal>
0.0000

> <Gold.Chemscore.Hbonds>
donor molecule, donor type, donor heavy atom, donor atom, acceptor molecule, acceptor atom, score
      L1  H     8    28       P1 10175  1.00
      L1  H    11    31       P1 10175  0.71
      P1  H  8011  8017       L1    12  0.39
      L1  C     3    25       P1  8028  1.00

> <Gold.PLP.Chemscore.Internal.Correction>
0.0087

> <Gold.Rescore>
     Score         DG    S(hbond)    S(metal)    S(lipo)     H(rot)  DE(clash)    DE(int)     intcor
      8.47      -9.27       1.63        0.00      45.40       2.73       0.37       0.43       ----

> <Gold.Chemscore.Fitness>
8.4709

> <Gold.Chemscore.DG>
-9.2732

> <Gold.Chemscore.ZeroCoef>
-5.4800

> <Gold.Chemscore.Hbond>
1.6344

> <Gold.Chemscore.Metal>
0.0000

> <Gold.Chemscore.Lipo>
45.3956

> <Gold.Chemscore.Internal_Hbond>
0.0000

> <Gold.Chemscore.DEClash>
0.3737

> <Gold.Chemscore.DEInternal>
0.4286

> <Gold.Chemscore.Rot>
2.7253

> <Gold.Chemscore.Internal.Correction>
   9.000000E+99

> <Gold.Chemscore.Hbonds>
donor molecule, donor type, donor heavy atom, donor atom, acceptor molecule, acceptor atom, score
      L1  H     8    28       P1 10175  0.95
      L1  H    11    31       P1 10175  0.12
      P1  H  8011  8017       L1    12  0.09

> <Gold.Chemscore.Hbond.Weighted>
-5.4588

> <Gold.Chemscore.Metal.Weighted>
-0.0000

> <Gold.Chemscore.Lipo.Weighted>
-5.3113

> <Gold.Chemscore.Internal_Hbond.Weighted>
0.0000

> <Gold.Chemscore.DEClash.Weighted>
0.3737

> <Gold.Chemscore.DEInternal.Weighted>
0.4286

> <Gold.Chemscore.Rot.Weighted>
6.9769

> <Gold.Chemscore.Internal.Correction.Weighted>
   9.000000E+99

> <Gold.Protein.RotatedTorsions>
[ 6907 6896 6895 6894 ] final -177.52 input  -60.11 | X-H torsion
[ 7974 7965 7964 7962 ] final   36.29 input  175.53 | X-H torsion
[ 8008 7997 7996 7995 ] final  126.67 input   59.86 | X-H torsion
[ 10167 10162 10161 10158 ] final  -21.58 input  -65.29 | X-H torsion
[ 10718 10713 10712 10709 ] final  -85.71 input   66.30 | X-H torsion
[ 10763 10752 10751 10750 ] final -116.45 input  -60.55 | X-H torsion
[ 11005 11000 10999 10996 ] final   13.31 input  -57.11 | X-H torsion

> <Gold.Protein.ActiveResidues>
 VAL166  LYS551  ARG553  GLY616  TRP617  ASP618  TYR619  PRO620  LYS621  CYS622 
 ASP623  PHE694  ASN695  SER759  ASP760  ASP761  ALA762  ILE779  LEU786  VAL792 
 PHE793  MET794  SER795  GLU796  ALA797  LYS798  CYS799  TRP800  GLU811  SER814 

> <Gold.Protein.RotatedAtoms>
  151.6224  133.3338  159.3090 H   0  0  0  0  0  0  0  0  0  0  0  0  # atno 6907 bound_to 6896
  150.8099  134.7251  159.6690 H   0  0  0  0  0  0  0  0  0  0  0  0  # atno 6908 bound_to 6896
  152.4195  134.5985  160.0045 H   0  0  0  0  0  0  0  0  0  0  0  0  # atno 6909 bound_to 6896
  146.1222  139.6036  142.9282 H   0  0  0  0  0  0  0  0  0  0  0  0  # atno 7974 bound_to 7965
  156.2870  140.2687  156.2149 H   0  0  0  0  0  0  0  0  0  0  0  0  # atno 8008 bound_to 7997
  155.0226  140.0386  157.2461 H   0  0  0  0  0  0  0  0  0  0  0  0  # atno 8009 bound_to 7997
  154.7422  140.2727  155.6368 H   0  0  0  0  0  0  0  0  0  0  0  0  # atno 8010 bound_to 7997
  140.7282  143.4614  151.0374 H   0  0  0  0  0  0  0  0  0  0  0  0  # atno 10167 bound_to 10162
  155.9995  130.4740  150.4603 H   0  0  0  0  0  0  0  0  0  0  0  0  # atno 10718 bound_to 10713
  154.8519  135.4345  154.1822 H   0  0  0  0  0  0  0  0  0  0  0  0  # atno 10763 bound_to 10752
  153.2910  135.6961  153.7299 H   0  0  0  0  0  0  0  0  0  0  0  0  # atno 10764 bound_to 10752
  153.6466  135.3458  155.3062 H   0  0  0  0  0  0  0  0  0  0  0  0  # atno 10765 bound_to 10752
  140.4822  134.0924  155.7753 H   0  0  0  0  0  0  0  0  0  0  0  0  # atno 11005 bound_to 11000
  145.5442  141.0418  143.2314 LP  0  0  0  0  0  0  0  0  0  0  0  0  # atno 17320 bound_to 7965
  144.7608  139.6962  143.7235 LP  0  0  0  0  0  0  0  0  0  0  0  0  # atno 17321 bound_to 7965
  139.8299  143.7705  152.3179 LP  0  0  0  0  0  0  0  0  0  0  0  0  # atno 17342 bound_to 10162
  139.7817  144.7442  151.0079 LP  0  0  0  0  0  0  0  0  0  0  0  0  # atno 17343 bound_to 10162
  157.2628  131.0570  151.2309 LP  0  0  0  0  0  0  0  0  0  0  0  0  # atno 17370 bound_to 10713
  157.3418  130.7037  149.6386 LP  0  0  0  0  0  0  0  0  0  0  0  0  # atno 17371 bound_to 10713
  141.1526  133.8942  157.2060 LP  0  0  0  0  0  0  0  0  0  0  0  0  # atno 17394 bound_to 11000
  139.9820  135.0095  156.9771 LP  0  0  0  0  0  0  0  0  0  0  0  0  # atno 17395 bound_to 11000

$$$$
