AV-unprocessed.smi:1328|AV-procd|sdf|5482|dock3
  -GOLD-   22720 5 53D 1   1.00000     0.00000
 Structure written by MMmdl.
 38 39  0  0  0  0  0  0  0  0  1 V2000
  152.9695  139.4612  158.9127 C   0  0  0  0  0  0  0  0  0  0  0  0
  152.1496  138.3860  158.2587 C   0  0  0  0  0  0  0  0  0  0  0  0
  151.5922  137.4458  159.0034 N   0  0  0  0  0  0  0  0  0  0  0  0
  150.9053  136.6113  158.1162 O   0  0  0  0  0  0  0  0  0  0  0  0
  151.0801  137.0868  156.8569 C   0  0  0  0  0  0  0  0  0  0  0  0
  150.4139  136.3336  155.7556 C   0  0  0  0  0  0  0  0  0  0  0  0
  151.8613  138.2093  156.8749 C   0  0  0  0  0  0  0  0  0  0  0  0
  152.3074  139.0614  155.7154 C   0  0  0  0  0  0  0  0  0  0  0  0
  151.5246  140.3743  155.7151 C   0  0  0  0  0  0  0  0  0  0  0  0
  150.8159  140.6669  154.7523 O   0  0  0  0  0  0  0  0  0  0  0  0
  151.6569  141.1473  156.8047 N   0  0  0  0  0  0  0  0  0  0  0  0
  150.9676  142.4120  157.0515 C   0  0  1  0  0  0  0  0  0  0  0  0
  149.5425  142.1045  157.5335 C   0  0  0  0  0  0  0  0  0  0  0  0
  151.7457  143.2660  158.0741 C   0  0  1  0  0  0  0  0  0  0  0  0
  151.1708  144.6605  158.3294 C   0  0  0  0  0  0  0  0  0  0  0  0
  151.6843  145.0096  159.7169 C   0  0  0  0  0  0  0  0  0  0  0  0
  152.1196  143.6632  160.3022 C   0  0  0  0  0  0  0  0  0  0  0  0
  151.6794  142.6870  159.3679 O   0  0  0  0  0  0  0  0  0  0  0  0
  154.0327  139.3006  158.7349 H   0  0  0  0  0  0  0  0  0  0  0  0
  152.8131  139.4886  159.9915 H   0  0  0  0  0  0  0  0  0  0  0  0
  152.7116  140.4446  158.5199 H   0  0  0  0  0  0  0  0  0  0  0  0
  149.5542  136.8872  155.3775 H   0  0  0  0  0  0  0  0  0  0  0  0
  150.0648  135.3597  156.0996 H   0  0  0  0  0  0  0  0  0  0  0  0
  151.1026  136.1706  154.9266 H   0  0  0  0  0  0  0  0  0  0  0  0
  153.3782  139.2657  155.7619 H   0  0  0  0  0  0  0  0  0  0  0  0
  152.1385  138.5575  154.7633 H   0  0  0  0  0  0  0  0  0  0  0  0
  152.2696  140.8202  157.5375 H   0  0  0  0  0  0  0  0  0  0  0  0
  150.8845  142.9737  156.1194 H   0  0  0  0  0  0  0  0  0  0  0  0
  148.9736  143.0209  157.6917 H   0  0  0  0  0  0  0  0  0  0  0  0
  149.5507  141.5522  158.4737 H   0  0  0  0  0  0  0  0  0  0  0  0
  149.0007  141.5063  156.8002 H   0  0  0  0  0  0  0  0  0  0  0  0
  152.7941  143.3481  157.7801 H   0  0  0  0  0  0  0  0  0  0  0  0
  151.4679  145.3861  157.5718 H   0  0  0  0  0  0  0  0  0  0  0  0
  150.0807  144.6193  158.3468 H   0  0  0  0  0  0  0  0  0  0  0  0
  152.5309  145.6950  159.6660 H   0  0  0  0  0  0  0  0  0  0  0  0
  150.9054  145.4820  160.3162 H   0  0  0  0  0  0  0  0  0  0  0  0
  153.2062  143.6164  160.3870 H   0  0  0  0  0  0  0  0  0  0  0  0
  151.6931  143.4780  161.2882 H   0  0  0  0  0  0  0  0  0  0  0  0
  1  2  1  0  0  0  0
  1 19  1  0  0  0  0
  1 20  1  0  0  0  0
  1 21  1  0  0  0  0
  2  7  1  0  0  0  0
  2  3  2  0  0  0  0
  3  4  1  0  0  0  0
  4  5  1  0  0  0  0
  5  6  1  0  0  0  0
  5  7  2  0  0  0  0
  6 22  1  0  0  0  0
  6 23  1  0  0  0  0
  6 24  1  0  0  0  0
  7  8  1  0  0  0  0
  8  9  1  0  0  0  0
  8 25  1  0  0  0  0
  8 26  1  0  0  0  0
  9 10  2  0  0  0  0
  9 11  1  0  0  0  0
 11 12  1  0  0  0  0
 11 27  1  0  0  0  0
 12 13  1  0  0  0  0
 12 14  1  0  0  0  0
 12 28  1  0  0  0  0
 13 29  1  0  0  0  0
 13 30  1  0  0  0  0
 13 31  1  0  0  0  0
 14 18  1  0  0  0  0
 14 15  1  0  0  0  0
 14 32  1  0  0  0  0
 15 16  1  0  0  0  0
 15 33  1  0  0  0  0
 15 34  1  0  0  0  0
 16 17  1  0  0  0  0
 16 35  1  0  0  0  0
 16 36  1  0  0  0  0
 17 18  1  0  0  0  0
 17 37  1  0  0  0  0
 17 38  1  0  0  0  0
M  END
> <s_m_source_file>
AV-unprocessed.smi

> <i_m_source_file_index>
1328

> <i_lp_mmshare_version>
43012

> <i_f3d_flags>
0

> <s_epik_input>
W0NIM11jMW5vYyhbQ0gzXSljMVtDSDJdQyg9TylbTkhdW0NASF0oW0NIM10pW0NAQEhdMltDSDJdW0NIMl1bQ0gyXU8y

> <s_epik_cmdline>
J2VwaWtfcHl0aG9uJywgJy1waCcsICc3LjAnLCAnLXRuJywgJzgnLCAnLW1hJywgJzIwMCcsICctbWV0YWxfYmluZGluZycsICctaW1hZScsICc8aW5maWxlLm1hZT4nLCAnLW9tYWUnLCAnPG91dGZpbGUubWFlPic=

> <r_lp_tautomer_probability>
1

> <r_epik_Ionization_Penalty>
2.66156e-08

> <r_epik_Ionization_Penalty_Charging>
0

> <r_epik_Ionization_Penalty_Neutral>
2.66156e-08

> <r_epik_State_Penalty>
-0

> <r_epik_Charging_Adjusted_Penalty>
0

> <i_epik_Tot_Q>
0

> <i_epik_Tot_abs_Q>
0

> <r_epik_Metal_State_Penalty>
-0

> <b_epik_Metal_Only>
0

> <s_lp_Force_Field>
OPLS_2005

> <r_lp_Energy>
12.2386

> <b_lp_Chiralities_Consistent>
1

> <s_lp_Variant>
AV-unprocessed.smi:1328-4

> <Gold.Version>
5.8.1

> <Gold.Id.Protein>
6NUR|6NUR_protein|mol2

> <Gold.PLP.Fitness>
37.3954

> <Gold.PLP.PLP>
-32.4005

> <Gold.PLP.part.hbond>
-2.0000

> <Gold.PLP.part.metal>
0.0000

> <Gold.PLP.part.buried>
-5.8526

> <Gold.PLP.part.nonpolar>
-24.3741

> <Gold.PLP.part.repulsive>
0.1762

> <Gold.PLP.ligand.clash>
0.0000

> <Gold.PLP.ligand.torsion>
0.5099

> <Gold.PLP.Chemscore.Hbond>
1.9920

> <Gold.PLP.Chemscore.CHOScore>
0.0000

> <Gold.PLP.Chemscore.Metal>
0.0000

> <Gold.Chemscore.Hbonds>
donor molecule, donor type, donor heavy atom, donor atom, acceptor molecule, acceptor atom, score
      P1  H  6896  6909       L1     4  0.03
      P1  H  7989  7998       L1    10  0.89

> <Gold.PLP.Chemscore.Internal.Correction>
0.0388

> <Gold.Rescore>
     Score         DG    S(hbond)    S(metal)    S(lipo)     H(rot)  DE(clash)    DE(int)     intcor
     17.96     -18.38       1.91        0.00      88.89       1.52       0.01       0.42       ----

> <Gold.Chemscore.Fitness>
17.9578

> <Gold.Chemscore.DG>
-18.3843

> <Gold.Chemscore.ZeroCoef>
-5.4800

> <Gold.Chemscore.Hbond>
1.9116

> <Gold.Chemscore.Metal>
0.0000

> <Gold.Chemscore.Lipo>
88.8927

> <Gold.Chemscore.Internal_Hbond>
0.0000

> <Gold.Chemscore.DEClash>
0.0108

> <Gold.Chemscore.DEInternal>
0.4157

> <Gold.Chemscore.Rot>
1.5159

> <Gold.Chemscore.Internal.Correction>
   9.000000E+99

> <Gold.Chemscore.Hbonds>
donor molecule, donor type, donor heavy atom, donor atom, acceptor molecule, acceptor atom, score
      P1  H  7989  7998       L1    10  0.67

> <Gold.Chemscore.Hbond.Weighted>
-6.3846

> <Gold.Chemscore.Metal.Weighted>
-0.0000

> <Gold.Chemscore.Lipo.Weighted>
-10.4004

> <Gold.Chemscore.Internal_Hbond.Weighted>
0.0000

> <Gold.Chemscore.DEClash.Weighted>
0.0108

> <Gold.Chemscore.DEInternal.Weighted>
0.4157

> <Gold.Chemscore.Rot.Weighted>
3.8807

> <Gold.Chemscore.Internal.Correction.Weighted>
   9.000000E+99

> <Gold.Protein.RotatedTorsions>
[ 6907 6896 6895 6894 ] final   93.62 input  -60.11 | X-H torsion
[ 7974 7965 7964 7962 ] final -175.08 input  175.53 | X-H torsion
[ 8008 7997 7996 7995 ] final  135.45 input   59.86 | X-H torsion
[ 10167 10162 10161 10158 ] final -147.28 input  -65.29 | X-H torsion
[ 10718 10713 10712 10709 ] final  116.51 input   66.30 | X-H torsion
[ 10763 10752 10751 10750 ] final -155.68 input  -60.55 | X-H torsion
[ 11005 11000 10999 10996 ] final -103.85 input  -57.11 | X-H torsion

> <Gold.Protein.ActiveResidues>
 VAL166  LYS551  ARG553  GLY616  TRP617  ASP618  TYR619  PRO620  LYS621  CYS622 
 ASP623  PHE694  ASN695  SER759  ASP760  ASP761  ALA762  ILE779  LEU786  VAL792 
 PHE793  MET794  SER795  GLU796  ALA797  LYS798  CYS799  TRP800  GLU811  SER814 

> <Gold.Protein.RotatedAtoms>
  152.5452  134.1319  159.8442 H   0  0  0  0  0  0  0  0  0  0  0  0  # atno 6907 bound_to 6896
  151.1364  133.4994  159.2605 H   0  0  0  0  0  0  0  0  0  0  0  0  # atno 6908 bound_to 6896
  151.1620  135.0288  159.8769 H   0  0  0  0  0  0  0  0  0  0  0  0  # atno 6909 bound_to 6896
  144.7129  140.1375  143.6394 H   0  0  0  0  0  0  0  0  0  0  0  0  # atno 7974 bound_to 7965
  156.3003  140.2470  156.3584 H   0  0  0  0  0  0  0  0  0  0  0  0  # atno 8008 bound_to 7997
  154.8900  140.0409  157.1852 H   0  0  0  0  0  0  0  0  0  0  0  0  # atno 8009 bound_to 7997
  154.8607  140.2920  155.5545 H   0  0  0  0  0  0  0  0  0  0  0  0  # atno 8010 bound_to 7997
  139.7636  143.8341  152.2612 H   0  0  0  0  0  0  0  0  0  0  0  0  # atno 10167 bound_to 10162
  157.6155  131.1026  150.7483 H   0  0  0  0  0  0  0  0  0  0  0  0  # atno 10718 bound_to 10713
  154.7769  135.3162  154.8073 H   0  0  0  0  0  0  0  0  0  0  0  0  # atno 10763 bound_to 10752
  153.8795  135.6836  153.4772 H   0  0  0  0  0  0  0  0  0  0  0  0  # atno 10764 bound_to 10752
  153.1395  135.4745  154.9410 H   0  0  0  0  0  0  0  0  0  0  0  0  # atno 10765 bound_to 10752
  141.1127  133.8674  157.1537 H   0  0  0  0  0  0  0  0  0  0  0  0  # atno 11005 bound_to 11000
  145.9231  139.2558  143.1369 LP  0  0  0  0  0  0  0  0  0  0  0  0  # atno 17320 bound_to 7965
  145.9600  140.8843  143.0216 LP  0  0  0  0  0  0  0  0  0  0  0  0  # atno 17321 bound_to 7965
  139.8354  144.7234  150.9397 LP  0  0  0  0  0  0  0  0  0  0  0  0  # atno 17342 bound_to 10162
  140.7809  143.4031  151.1115 LP  0  0  0  0  0  0  0  0  0  0  0  0  # atno 17343 bound_to 10162
  156.7851  130.4872  149.5394 LP  0  0  0  0  0  0  0  0  0  0  0  0  # atno 17370 bound_to 10713
  156.1276  130.6155  151.0286 LP  0  0  0  0  0  0  0  0  0  0  0  0  # atno 17371 bound_to 10713
  140.0030  135.0020  157.0232 LP  0  0  0  0  0  0  0  0  0  0  0  0  # atno 17394 bound_to 11000
  140.4731  134.1366  155.7206 LP  0  0  0  0  0  0  0  0  0  0  0  0  # atno 17395 bound_to 11000

$$$$
