AV-unprocessed.smi:3150|AV-procd|sdf|12010|dock8
  -GOLD-   2272017423D 1   1.00000     0.00000
 Structure written by MMmdl.
 33 34  0  0  0  0  0  0  0  0  3 V2000
  147.3703  138.6345  157.5741 C   0  0  0  0  0  0  0  0  0  0  0  0
  148.4342  137.5511  157.3406 C   0  0  1  0  0  0  0  0  0  0  0  0
  149.6431  138.2116  156.9752 O   0  0  0  0  0  0  0  0  0  0  0  0
  149.6253  138.8622  155.7104 C   0  0  0  0  0  0  0  0  0  0  0  0
  149.3645  140.3371  155.9275 C   0  0  0  0  0  0  0  0  0  0  0  0
  149.3753  141.2940  154.7572 C   0  0  0  0  0  0  0  0  0  0  0  0
  150.4799  141.3476  155.7815 C   0  0  0  0  0  0  0  0  0  0  0  0
  148.6534  136.6961  158.5994 C   0  0  0  0  0  0  0  0  0  0  0  0
  149.7938  136.5331  159.0366 O   0  0  0  0  0  0  0  0  0  0  0  0
  147.5438  136.1580  159.1393 N   0  0  0  0  0  0  0  0  0  0  0  0
  147.4257  135.3201  160.2828 C   0  0  0  0  0  0  0  0  0  0  0  0
  147.3901  133.9674  160.1863 N   0  3  0  0  0  0  0  0  0  0  0  0
  147.2792  133.1446  161.2512 C   0  0  0  0  0  0  0  0  0  0  0  0
  147.1942  133.6859  162.5483 C   0  0  0  0  0  0  0  0  0  0  0  0
  147.2265  135.0854  162.7067 C   0  0  0  0  0  0  0  0  0  0  0  0
  147.3426  135.9105  161.5675 C   0  0  0  0  0  0  0  0  0  0  0  0
  147.3729  137.2684  161.7218 O   0  5  0  0  0  0  0  0  0  0  0  0
  146.4159  138.1973  157.8692 H   0  0  0  0  0  0  0  0  0  0  0  0
  147.2007  139.2104  156.6641 H   0  0  0  0  0  0  0  0  0  0  0  0
  147.6740  139.3360  158.3522 H   0  0  0  0  0  0  0  0  0  0  0  0
  148.1017  136.9195  156.5144 H   0  0  0  0  0  0  0  0  0  0  0  0
  150.5688  138.7347  155.1785 H   0  0  0  0  0  0  0  0  0  0  0  0
  148.8303  138.4526  155.0860 H   0  0  0  0  0  0  0  0  0  0  0  0
  148.6226  140.5439  156.6965 H   0  0  0  0  0  0  0  0  0  0  0  0
  149.6204  140.8932  153.7755 H   0  0  0  0  0  0  0  0  0  0  0  0
  148.6447  142.1002  154.7624 H   0  0  0  0  0  0  0  0  0  0  0  0
  150.4877  142.1898  156.4704 H   0  0  0  0  0  0  0  0  0  0  0  0
  151.4604  140.9812  155.4830 H   0  0  0  0  0  0  0  0  0  0  0  0
  146.6711  136.3651  158.6745 H   0  0  0  0  0  0  0  0  0  0  0  0
  147.2624  132.0867  161.0338 H   0  0  0  0  0  0  0  0  0  0  0  0
  147.1056  133.0392  163.4087 H   0  0  0  0  0  0  0  0  0  0  0  0
  147.1625  135.5205  163.6936 H   0  0  0  0  0  0  0  0  0  0  0  0
  147.4502  133.5509  159.2566 H   0  0  0  0  0  0  0  0  0  0  0  0
  1  2  1  0  0  0  0
  1 18  1  0  0  0  0
  1 19  1  0  0  0  0
  1 20  1  0  0  0  0
  2  3  1  0  0  0  0
  2  8  1  0  0  0  0
  2 21  1  0  0  0  0
  3  4  1  0  0  0  0
  4  5  1  0  0  0  0
  4 22  1  0  0  0  0
  4 23  1  0  0  0  0
  5  7  1  0  0  0  0
  5  6  1  0  0  0  0
  5 24  1  0  0  0  0
  6  7  1  0  0  0  0
  6 25  1  0  0  0  0
  6 26  1  0  0  0  0
  7 27  1  0  0  0  0
  7 28  1  0  0  0  0
  8  9  2  0  0  0  0
  8 10  1  0  0  0  0
 10 29  1  0  0  0  0
 10 11  1  0  0  0  0
 11 16  2  0  0  0  0
 11 12  1  0  0  0  0
 12 33  1  0  0  0  0
 12 13  2  0  0  0  0
 13 30  1  0  0  0  0
 13 14  1  0  0  0  0
 14 31  1  0  0  0  0
 14 15  2  0  0  0  0
 15 16  1  0  0  0  0
 15 32  1  0  0  0  0
 16 17  1  0  0  0  0
M  CHG  1  12   1
M  CHG  1  17  -1
M  END
> <s_m_source_file>
AV-unprocessed.smi

> <i_m_source_file_index>
3150

> <i_lp_mmshare_version>
43012

> <i_f3d_flags>
0

> <s_epik_input>
W0NIMl0xW0NIMl1bQ0hdMVtDSDJdT1tDQEBIXShbQ0gzXSlDKD1PKVtOSF1jMm5bY0hdW2NIXVtjSF1jMltPSF0=

> <s_epik_cmdline>
J2VwaWtfcHl0aG9uJywgJy1waCcsICc3LjAnLCAnLXRuJywgJzgnLCAnLW1hJywgJzIwMCcsICctbWV0YWxfYmluZGluZycsICctaW1hZScsICc8aW5maWxlLm1hZT4nLCAnLW9tYWUnLCAnPG91dGZpbGUubWFlPic=

> <r_lp_tautomer_probability>
0.56342

> <r_epik_Ionization_Penalty>
0.213151

> <r_epik_Ionization_Penalty_Charging>
0.0249427

> <r_epik_Ionization_Penalty_Neutral>
0.188209

> <r_epik_State_Penalty>
0.538305

> <r_epik_Charging_Adjusted_Penalty>
0.563248

> <i_epik_Tot_Q>
0

> <i_epik_Tot_abs_Q>
2

> <r_epik_Metal_State_Penalty>
2.57454

> <b_epik_Metal_Only>
0

> <s_lp_Force_Field>
OPLS_2005

> <r_lp_Energy>
15.4349

> <b_lp_Chiralities_Consistent>
1

> <s_lp_Variant>
AV-unprocessed.smi:3150-4

> <Gold.Version>
5.8.1

> <Gold.Id.Protein>
6NUR|6NUR_protein|mol2

> <Gold.PLP.Fitness>
39.1080

> <Gold.PLP.PLP>
-27.6923

> <Gold.PLP.part.hbond>
-3.0000

> <Gold.PLP.part.metal>
0.0000

> <Gold.PLP.part.buried>
-3.8440

> <Gold.PLP.part.nonpolar>
-21.3790

> <Gold.PLP.part.repulsive>
0.1301

> <Gold.PLP.ligand.clash>
0.0000

> <Gold.PLP.ligand.torsion>
1.5102

> <Gold.PLP.Chemscore.Hbond>
4.4560

> <Gold.PLP.Chemscore.CHOScore>
0.0000

> <Gold.PLP.Chemscore.Metal>
0.0000

> <Gold.Chemscore.Hbonds>
donor molecule, donor type, donor heavy atom, donor atom, acceptor molecule, acceptor atom, score
      P1  H  6896  6907       L1     9  0.88
      P1  H  6931  6943       L1    17  1.76
      P1  H  6934  6947       L1    17  1.63

> <Gold.PLP.Chemscore.Internal.Correction>
1.0681

> <Gold.Rescore>
     Score         DG    S(hbond)    S(metal)    S(lipo)     H(rot)  DE(clash)    DE(int)     intcor
     15.07     -16.71       2.62        0.00      58.15       1.68       0.01       1.63       ----

> <Gold.Chemscore.Fitness>
15.0674

> <Gold.Chemscore.DG>
-16.7103

> <Gold.Chemscore.ZeroCoef>
-5.4800

> <Gold.Chemscore.Hbond>
2.6156

> <Gold.Chemscore.Metal>
0.0000

> <Gold.Chemscore.Lipo>
58.1503

> <Gold.Chemscore.Internal_Hbond>
0.0000

> <Gold.Chemscore.DEClash>
0.0093

> <Gold.Chemscore.DEInternal>
1.6336

> <Gold.Chemscore.Rot>
1.6833

> <Gold.Chemscore.Internal.Correction>
   9.000000E+99

> <Gold.Chemscore.Hbonds>
donor molecule, donor type, donor heavy atom, donor atom, acceptor molecule, acceptor atom, score
      P1  H  6896  6907       L1     9  0.86
      P1  H  6931  6943       L1    17  0.85
      P1  H  6934  6947       L1    17  0.79

> <Gold.Chemscore.Hbond.Weighted>
-8.7361

> <Gold.Chemscore.Metal.Weighted>
-0.0000

> <Gold.Chemscore.Lipo.Weighted>
-6.8036

> <Gold.Chemscore.Internal_Hbond.Weighted>
0.0000

> <Gold.Chemscore.DEClash.Weighted>
0.0093

> <Gold.Chemscore.DEInternal.Weighted>
1.6336

> <Gold.Chemscore.Rot.Weighted>
4.3094

> <Gold.Chemscore.Internal.Correction.Weighted>
   9.000000E+99

> <Gold.Protein.RotatedTorsions>
[ 6907 6896 6895 6894 ] final  -52.95 input  -60.11 | X-H torsion
[ 7974 7965 7964 7962 ] final   46.42 input  175.53 | X-H torsion
[ 8008 7997 7996 7995 ] final  141.81 input   59.86 | X-H torsion
[ 10167 10162 10161 10158 ] final   49.79 input  -65.29 | X-H torsion
[ 10718 10713 10712 10709 ] final   70.21 input   66.30 | X-H torsion
[ 10763 10752 10751 10750 ] final -159.50 input  -60.55 | X-H torsion
[ 11005 11000 10999 10996 ] final  -12.68 input  -57.11 | X-H torsion

> <Gold.Protein.ActiveResidues>
 VAL166  LYS551  ARG553  GLY616  TRP617  ASP618  TYR619  PRO620  LYS621  CYS622 
 ASP623  PHE694  ASN695  SER759  ASP760  ASP761  ALA762  ILE779  LEU786  VAL792 
 PHE793  MET794  SER795  GLU796  ALA797  LYS798  CYS799  TRP800  GLU811  SER814 

> <Gold.Protein.RotatedAtoms>
  150.8471  134.7784  159.6978 H   0  0  0  0  0  0  0  0  0  0  0  0  # atno 6907 bound_to 6896
  152.4545  134.5318  159.9823 H   0  0  0  0  0  0  0  0  0  0  0  0  # atno 6908 bound_to 6896
  151.5446  133.3389  159.2977 H   0  0  0  0  0  0  0  0  0  0  0  0  # atno 6909 bound_to 6896
  146.0391  139.4857  142.9789 H   0  0  0  0  0  0  0  0  0  0  0  0  # atno 7974 bound_to 7965
  156.2960  140.2305  156.4626 H   0  0  0  0  0  0  0  0  0  0  0  0  # atno 8008 bound_to 7997
  154.8005  140.0449  157.1290 H   0  0  0  0  0  0  0  0  0  0  0  0  # atno 8009 bound_to 7997
  154.9539  140.3045  155.5065 H   0  0  0  0  0  0  0  0  0  0  0  0  # atno 8010 bound_to 7997
  140.2792  144.3176  150.6269 H   0  0  0  0  0  0  0  0  0  0  0  0  # atno 10167 bound_to 10162
  157.6388  130.9466  150.0620 H   0  0  0  0  0  0  0  0  0  0  0  0  # atno 10718 bound_to 10713
  154.7469  135.3082  154.8628 H   0  0  0  0  0  0  0  0  0  0  0  0  # atno 10763 bound_to 10752
  153.9426  135.6773  153.4748 H   0  0  0  0  0  0  0  0  0  0  0  0  # atno 10764 bound_to 10752
  153.1066  135.4886  154.8888 H   0  0  0  0  0  0  0  0  0  0  0  0  # atno 10765 bound_to 10752
  140.7682  133.8460  155.9184 H   0  0  0  0  0  0  0  0  0  0  0  0  # atno 11005 bound_to 11000
  145.6914  141.0163  143.1553 LP  0  0  0  0  0  0  0  0  0  0  0  0  # atno 17320 bound_to 7965
  144.7066  139.8537  143.7428 LP  0  0  0  0  0  0  0  0  0  0  0  0  # atno 17321 bound_to 7965
  140.5825  143.2172  151.7401 LP  0  0  0  0  0  0  0  0  0  0  0  0  # atno 17342 bound_to 10162
  139.4967  144.4059  152.0133 LP  0  0  0  0  0  0  0  0  0  0  0  0  # atno 17343 bound_to 10162
  156.1650  130.3645  149.9246 LP  0  0  0  0  0  0  0  0  0  0  0  0  # atno 17370 bound_to 10713
  156.7235  130.9016  151.3620 LP  0  0  0  0  0  0  0  0  0  0  0  0  # atno 17371 bound_to 10713
  140.9599  134.1670  157.4662 LP  0  0  0  0  0  0  0  0  0  0  0  0  # atno 17394 bound_to 11000
  139.8760  134.9941  156.5675 LP  0  0  0  0  0  0  0  0  0  0  0  0  # atno 17395 bound_to 11000

$$$$
