AV-unprocessed.smi:1492|AV-procd|sdf|6043|dock7
  -GOLD-   22720 6153D 1   1.00000     0.00000
 Structure written by MMmdl.
 53 54  0  0  0  0  0  0  0  0  2 V2000
  144.8784  134.0842  155.8091 C   0  0  0  0  0  0  0  0  0  0  0  0
  146.2524  133.5562  155.3626 C   0  0  0  0  0  0  0  0  0  0  0  0
  147.0962  134.5373  154.4864 C   0  0  2  0  0  0  0  0  0  0  0  0
  148.5866  134.1401  154.6421 C   0  0  0  0  0  0  0  0  0  0  0  0
  146.9207  135.9975  155.0151 C   0  0  0  0  0  0  0  0  0  0  0  0
  147.8064  136.9504  154.3532 N   0  0  0  0  0  0  0  0  0  0  0  0
  147.9446  138.2448  154.6746 C   0  0  0  0  0  0  0  0  0  0  0  0
  147.2109  138.8366  155.4652 O   0  0  0  0  0  0  0  0  0  0  0  0
  149.1321  138.9648  154.0381 C   0  0  0  0  0  0  0  0  0  0  0  0
  149.6486  140.1563  154.8442 C   0  0  0  0  0  0  0  0  0  0  0  0
  149.0127  141.3552  154.8731 C   0  0  0  0  0  0  0  0  0  0  0  0
  147.7364  141.6670  154.1111 C   0  0  0  0  0  0  0  0  0  0  0  0
  149.4956  142.4036  155.6357 N   0  0  0  0  0  0  0  0  0  0  0  0
  150.6455  142.1903  156.3773 C   0  0  0  0  0  0  0  0  0  0  0  0
  151.0828  143.3964  157.1795 C   0  0  0  0  0  0  0  0  0  0  0  0
  151.3199  141.0818  156.4199 N   0  0  0  0  0  0  0  0  0  0  0  0
  150.8735  139.9875  155.6619 C   0  0  0  0  0  0  0  0  0  0  0  0
  151.4817  138.9186  155.6968 O   0  0  0  0  0  0  0  0  0  0  0  0
  146.6665  134.4505  153.0400 N   0  3  0  0  0  0  0  0  0  0  0  0
  146.7079  133.0933  152.4221 C   0  0  0  0  0  0  0  0  0  0  0  0
  146.4161  133.1685  150.9134 C   0  0  0  0  0  0  0  0  0  0  0  0
  145.1581  133.7883  150.6931 O   0  0  0  0  0  0  0  0  0  0  0  0
  145.1410  135.1196  151.1855 C   0  0  0  0  0  0  0  0  0  0  0  0
  145.3694  135.1072  152.7050 C   0  0  0  0  0  0  0  0  0  0  0  0
  148.9929  143.2796  155.6264 H   0  0  0  0  0  0  0  0  0  0  0  0
  144.3644  133.3389  156.4162 H   0  0  0  0  0  0  0  0  0  0  0  0
  144.2361  134.3103  154.9579 H   0  0  0  0  0  0  0  0  0  0  0  0
  144.9668  134.9859  156.4140 H   0  0  0  0  0  0  0  0  0  0  0  0
  146.8110  133.2753  156.2552 H   0  0  0  0  0  0  0  0  0  0  0  0
  146.1137  132.6044  154.8520 H   0  0  0  0  0  0  0  0  0  0  0  0
  148.9058  134.1935  155.6835 H   0  0  0  0  0  0  0  0  0  0  0  0
  149.2468  134.7965  154.0757 H   0  0  0  0  0  0  0  0  0  0  0  0
  148.7787  133.1176  154.3192 H   0  0  0  0  0  0  0  0  0  0  0  0
  145.9140  136.3643  154.8173 H   0  0  0  0  0  0  0  0  0  0  0  0
  147.0480  136.0247  156.0983 H   0  0  0  0  0  0  0  0  0  0  0  0
  148.4487  136.5699  153.6729 H   0  0  0  0  0  0  0  0  0  0  0  0
  149.9279  138.2416  153.8555 H   0  0  0  0  0  0  0  0  0  0  0  0
  148.8386  139.3102  153.0465 H   0  0  0  0  0  0  0  0  0  0  0  0
  147.8896  141.5422  153.0389 H   0  0  0  0  0  0  0  0  0  0  0  0
  147.4052  142.6918  154.2840 H   0  0  0  0  0  0  0  0  0  0  0  0
  146.9328  141.0013  154.4262 H   0  0  0  0  0  0  0  0  0  0  0  0
  152.0528  143.2233  157.6474 H   0  0  0  0  0  0  0  0  0  0  0  0
  150.3580  143.6112  157.9652 H   0  0  0  0  0  0  0  0  0  0  0  0
  151.1678  144.2730  156.5363 H   0  0  0  0  0  0  0  0  0  0  0  0
  147.6858  132.6291  152.5306 H   0  0  0  0  0  0  0  0  0  0  0  0
  145.9815  132.4382  152.9036 H   0  0  0  0  0  0  0  0  0  0  0  0
  147.2025  133.7169  150.3922 H   0  0  0  0  0  0  0  0  0  0  0  0
  146.3932  132.1659  150.4862 H   0  0  0  0  0  0  0  0  0  0  0  0
  145.8983  135.7221  150.6809 H   0  0  0  0  0  0  0  0  0  0  0  0
  144.1738  135.5673  150.9557 H   0  0  0  0  0  0  0  0  0  0  0  0
  144.5431  134.5823  153.1848 H   0  0  0  0  0  0  0  0  0  0  0  0
  145.3374  136.1393  153.0467 H   0  0  0  0  0  0  0  0  0  0  0  0
  147.3654  134.9825  152.5410 H   0  0  0  0  0  0  0  0  0  0  0  0
  1  2  1  0  0  0  0
  1 26  1  0  0  0  0
  1 27  1  0  0  0  0
  1 28  1  0  0  0  0
  2  3  1  0  0  0  0
  2 29  1  0  0  0  0
  2 30  1  0  0  0  0
  3  4  1  0  0  0  0
  3  5  1  0  0  0  0
  3 19  1  0  0  0  0
  4 31  1  0  0  0  0
  4 32  1  0  0  0  0
  4 33  1  0  0  0  0
  5  6  1  0  0  0  0
  5 34  1  0  0  0  0
  5 35  1  0  0  0  0
  6  7  1  0  0  0  0
  6 36  1  0  0  0  0
  7  8  2  0  0  0  0
  7  9  1  0  0  0  0
  9 37  1  0  0  0  0
  9 38  1  0  0  0  0
  9 10  1  0  0  0  0
 10 17  1  0  0  0  0
 10 11  2  0  0  0  0
 11 12  1  0  0  0  0
 11 13  1  0  0  0  0
 12 39  1  0  0  0  0
 12 40  1  0  0  0  0
 12 41  1  0  0  0  0
 13 25  1  0  0  0  0
 13 14  1  0  0  0  0
 14 15  1  0  0  0  0
 14 16  2  0  0  0  0
 15 42  1  0  0  0  0
 15 43  1  0  0  0  0
 15 44  1  0  0  0  0
 16 17  1  0  0  0  0
 17 18  2  0  0  0  0
 19 24  1  0  0  0  0
 19 20  1  0  0  0  0
 19 53  1  0  0  0  0
 20 21  1  0  0  0  0
 20 45  1  0  0  0  0
 20 46  1  0  0  0  0
 21 22  1  0  0  0  0
 21 47  1  0  0  0  0
 21 48  1  0  0  0  0
 22 23  1  0  0  0  0
 23 24  1  0  0  0  0
 23 49  1  0  0  0  0
 23 50  1  0  0  0  0
 24 51  1  0  0  0  0
 24 52  1  0  0  0  0
M  CHG  1  19   1
M  END
> <s_m_source_file>
AV-unprocessed.smi

> <i_m_source_file_index>
1492

> <i_lp_mmshare_version>
43012

> <i_f3d_flags>
0

> <s_epik_input>
W0NIMl0xW0NIMl1PW0NIMl1bQ0gyXU4xW0NAQF0oW0NIM10pKFtDSDJdW0NIM10pW0NIMl1bTkhdQyg9TylbQ0gyXWMyYyhbQ0gzXSluYyhbQ0gzXSlbbkhdYzI9Tw==

> <s_epik_cmdline>
J2VwaWtfcHl0aG9uJywgJy1waCcsICc3LjAnLCAnLXRuJywgJzgnLCAnLW1hJywgJzIwMCcsICctbWV0YWxfYmluZGluZycsICctaW1hZScsICc8aW5maWxlLm1hZT4nLCAnLW9tYWUnLCAnPG91dGZpbGUubWFlPic=

> <r_lp_tautomer_probability>
0.156392

> <r_epik_Ionization_Penalty>
0.523233

> <r_epik_Ionization_Penalty_Charging>
0.523147

> <r_epik_Ionization_Penalty_Neutral>
8.52784e-05

> <r_epik_State_Penalty>
1.66677

> <r_epik_Charging_Adjusted_Penalty>
2.18991

> <i_epik_Tot_Q>
1

> <i_epik_Tot_abs_Q>
1

> <r_epik_Metal_State_Penalty>
1.84524

> <b_epik_Metal_Only>
0

> <s_lp_Force_Field>
OPLS_2005

> <r_lp_Energy>
32.5308

> <b_lp_Chiralities_Consistent>
1

> <s_lp_Variant>
AV-unprocessed.smi:1492-8

> <Gold.Version>
5.8.1

> <Gold.Id.Protein>
6NUR|6NUR_protein|mol2

> <Gold.PLP.Fitness>
46.0017

> <Gold.PLP.PLP>
-36.4486

> <Gold.PLP.part.hbond>
-3.0000

> <Gold.PLP.part.metal>
0.0000

> <Gold.PLP.part.buried>
-4.3068

> <Gold.PLP.part.nonpolar>
-29.7318

> <Gold.PLP.part.repulsive>
0.8140

> <Gold.PLP.ligand.clash>
0.0000

> <Gold.PLP.ligand.torsion>
1.1335

> <Gold.PLP.Chemscore.Hbond>
3.8640

> <Gold.PLP.Chemscore.CHOScore>
0.0000

> <Gold.PLP.Chemscore.Metal>
0.0000

> <Gold.Chemscore.Hbonds>
donor molecule, donor type, donor heavy atom, donor atom, acceptor molecule, acceptor atom, score
      L1  H     6    36       P1  7948  1.00
      L1  H    13    25       P1  8028  0.78
      L1  H    19    53       P1  7948  1.66

> <Gold.PLP.Chemscore.Internal.Correction>
0.2282

> <Gold.Rescore>
     Score         DG    S(hbond)    S(metal)    S(lipo)     H(rot)  DE(clash)    DE(int)     intcor
     16.99     -17.97       2.85        0.00      73.47       2.19       0.03       0.94       ----

> <Gold.Chemscore.Fitness>
16.9922

> <Gold.Chemscore.DG>
-17.9663

> <Gold.Chemscore.ZeroCoef>
-5.4800

> <Gold.Chemscore.Hbond>
2.8453

> <Gold.Chemscore.Metal>
0.0000

> <Gold.Chemscore.Lipo>
73.4684

> <Gold.Chemscore.Internal_Hbond>
0.0000

> <Gold.Chemscore.DEClash>
0.0333

> <Gold.Chemscore.DEInternal>
0.9409

> <Gold.Chemscore.Rot>
2.1926

> <Gold.Chemscore.Internal.Correction>
   9.000000E+99

> <Gold.Chemscore.Hbonds>
donor molecule, donor type, donor heavy atom, donor atom, acceptor molecule, acceptor atom, score
      L1  H     6    36       P1  7948  0.96
      L1  H    13    25       P1  8028  0.75
      L1  H    19    53       P1  7948  0.80

> <Gold.Chemscore.Hbond.Weighted>
-9.5035

> <Gold.Chemscore.Metal.Weighted>
-0.0000

> <Gold.Chemscore.Lipo.Weighted>
-8.5958

> <Gold.Chemscore.Internal_Hbond.Weighted>
0.0000

> <Gold.Chemscore.DEClash.Weighted>
0.0333

> <Gold.Chemscore.DEInternal.Weighted>
0.9409

> <Gold.Chemscore.Rot.Weighted>
5.6129

> <Gold.Chemscore.Internal.Correction.Weighted>
   9.000000E+99

> <Gold.Protein.RotatedTorsions>
[ 6907 6896 6895 6894 ] final   97.21 input  -60.11 | X-H torsion
[ 7974 7965 7964 7962 ] final  -90.69 input  175.53 | X-H torsion
[ 8008 7997 7996 7995 ] final  -51.20 input   59.86 | X-H torsion
[ 10167 10162 10161 10158 ] final -150.05 input  -65.29 | X-H torsion
[ 10718 10713 10712 10709 ] final  156.78 input   66.30 | X-H torsion
[ 10763 10752 10751 10750 ] final -147.45 input  -60.55 | X-H torsion
[ 11005 11000 10999 10996 ] final -133.90 input  -57.11 | X-H torsion

> <Gold.Protein.ActiveResidues>
 VAL166  LYS551  ARG553  GLY616  TRP617  ASP618  TYR619  PRO620  LYS621  CYS622 
 ASP623  PHE694  ASN695  SER759  ASP760  ASP761  ALA762  ILE779  LEU786  VAL792 
 PHE793  MET794  SER795  GLU796  ALA797  LYS798  CYS799  TRP800  GLU811  SER814 

> <Gold.Protein.RotatedAtoms>
  152.5426  134.0768  159.8217 H   0  0  0  0  0  0  0  0  0  0  0  0  # atno 6907 bound_to 6896
  151.0875  133.5334  159.2624 H   0  0  0  0  0  0  0  0  0  0  0  0  # atno 6908 bound_to 6896
  151.2138  135.0500  159.8976 H   0  0  0  0  0  0  0  0  0  0  0  0  # atno 6909 bound_to 6896
  145.4231  140.9552  143.2170 H   0  0  0  0  0  0  0  0  0  0  0  0  # atno 7974 bound_to 7965
  154.4078  140.1254  156.4790 H   0  0  0  0  0  0  0  0  0  0  0  0  # atno 8008 bound_to 7997
  155.7104  140.3494  155.4952 H   0  0  0  0  0  0  0  0  0  0  0  0  # atno 8009 bound_to 7997
  155.9305  140.1069  157.1126 H   0  0  0  0  0  0  0  0  0  0  0  0  # atno 8010 bound_to 7997
  139.7388  143.8694  152.2556 H   0  0  0  0  0  0  0  0  0  0  0  0  # atno 10167 bound_to 10162
  157.2003  131.0675  151.2029 H   0  0  0  0  0  0  0  0  0  0  0  0  # atno 10718 bound_to 10713
  154.8285  135.3360  154.6820 H   0  0  0  0  0  0  0  0  0  0  0  0  # atno 10763 bound_to 10752
  153.7443  135.6943  153.4964 H   0  0  0  0  0  0  0  0  0  0  0  0  # atno 10764 bound_to 10752
  153.2222  135.4445  155.0452 H   0  0  0  0  0  0  0  0  0  0  0  0  # atno 10765 bound_to 10752
  140.9038  134.1656  157.4440 H   0  0  0  0  0  0  0  0  0  0  0  0  # atno 11005 bound_to 11000
  144.8232  139.5755  143.6977 LP  0  0  0  0  0  0  0  0  0  0  0  0  # atno 17320 bound_to 7965
  146.2646  139.6490  142.9338 LP  0  0  0  0  0  0  0  0  0  0  0  0  # atno 17321 bound_to 7965
  139.8639  144.7103  150.9067 LP  0  0  0  0  0  0  0  0  0  0  0  0  # atno 17342 bound_to 10162
  140.7783  143.3795  151.1503 LP  0  0  0  0  0  0  0  0  0  0  0  0  # atno 17343 bound_to 10162
  157.3773  130.7213  149.6606 LP  0  0  0  0  0  0  0  0  0  0  0  0  # atno 17370 bound_to 10713
  155.9701  130.4182  150.4316 LP  0  0  0  0  0  0  0  0  0  0  0  0  # atno 17371 bound_to 10713
  139.8746  134.9909  156.5523 LP  0  0  0  0  0  0  0  0  0  0  0  0  # atno 17394 bound_to 11000
  140.8196  133.8364  155.8883 LP  0  0  0  0  0  0  0  0  0  0  0  0  # atno 17395 bound_to 11000

$$$$
