AV-unprocessed.smi:3163|AV-procd|sdf|12077|dock10
  -GOLD-   2272017503D 1   1.00000     0.00000
 Structure written by MMmdl.
 37 38  0  0  0  0  0  0  0  0  3 V2000
  143.6027  132.2018  150.1573 C   0  0  0  0  0  0  0  0  0  0  0  0
  143.5120  133.6116  150.5916 N   0  3  1  0  0  0  0  0  0  0  0  0
  143.7199  133.8133  152.0418 C   0  0  0  0  0  0  0  0  0  0  0  0
  144.3707  135.1882  152.1715 C   0  0  0  0  0  0  0  0  0  0  0  0
  145.2621  135.2535  150.9341 C   0  0  2  0  0  0  0  0  0  0  0  0
  145.7118  136.6804  150.5654 C   0  0  0  0  0  0  0  0  0  0  0  0
  146.7226  137.1950  151.4851 N   0  0  0  0  0  0  0  0  0  0  0  0
  146.7495  138.4318  152.0029 C   0  0  0  0  0  0  0  0  0  0  0  0
  145.9207  139.2993  151.7294 O   0  0  0  0  0  0  0  0  0  0  0  0
  147.8001  138.5925  152.8262 N   0  0  0  0  0  0  0  0  0  0  0  0
  148.1772  139.7442  153.5703 C   0  0  0  0  0  0  0  0  0  0  0  0
  147.3670  140.8951  153.4464 C   0  0  0  0  0  0  0  0  0  0  0  0
  147.7076  142.0661  154.1537 C   0  0  0  0  0  0  0  0  0  0  0  0
  148.8086  142.0833  154.9349 N   0  3  0  0  0  0  0  0  0  0  0  0
  149.6218  141.0142  155.0737 C   0  0  0  0  0  0  0  0  0  0  0  0
  149.3319  139.8150  154.3913 C   0  0  0  0  0  0  0  0  0  0  0  0
  144.4182  134.5348  149.8690 C   0  0  0  0  0  0  0  0  0  0  0  0
  144.6035  131.8023  150.3259 H   0  0  0  0  0  0  0  0  0  0  0  0
  143.3734  132.1151  149.0948 H   0  0  0  0  0  0  0  0  0  0  0  0
  142.8890  131.5873  150.7069 H   0  0  0  0  0  0  0  0  0  0  0  0
  142.7834  133.7380  152.5950 H   0  0  0  0  0  0  0  0  0  0  0  0
  144.4007  133.0536  152.4303 H   0  0  0  0  0  0  0  0  0  0  0  0
  143.6079  135.9677  152.1330 H   0  0  0  0  0  0  0  0  0  0  0  0
  144.9269  135.3053  153.1022 H   0  0  0  0  0  0  0  0  0  0  0  0
  146.1467  134.6459  151.1342 H   0  0  0  0  0  0  0  0  0  0  0  0
  146.0679  136.7199  149.5343 H   0  0  0  0  0  0  0  0  0  0  0  0
  144.8552  137.3531  150.6150 H   0  0  0  0  0  0  0  0  0  0  0  0
  147.4472  136.5491  151.7631 H   0  0  0  0  0  0  0  0  0  0  0  0
  148.4363  137.8109  152.8885 H   0  0  0  0  0  0  0  0  0  0  0  0
  146.4871  140.8839  152.8191 H   0  0  0  0  0  0  0  0  0  0  0  0
  147.1376  142.9831  154.1163 H   0  0  0  0  0  0  0  0  0  0  0  0
  150.4784  141.1505  155.7176 H   0  0  0  0  0  0  0  0  0  0  0  0
  150.0079  138.9811  154.5021 H   0  0  0  0  0  0  0  0  0  0  0  0
  145.0464  134.0256  149.1367 H   0  0  0  0  0  0  0  0  0  0  0  0
  143.7931  135.2450  149.3269 H   0  0  0  0  0  0  0  0  0  0  0  0
  142.5736  133.9254  150.3879 H   0  0  0  0  0  0  0  0  0  0  0  0
  149.0390  142.9413  155.4371 H   0  0  0  0  0  0  0  0  0  0  0  0
  1  2  1  0  0  0  0
  1 18  1  0  0  0  0
  1 19  1  0  0  0  0
  1 20  1  0  0  0  0
  2 17  1  0  0  0  0
  2  3  1  0  0  0  0
  2 36  1  0  0  0  0
  3  4  1  0  0  0  0
  3 21  1  0  0  0  0
  3 22  1  0  0  0  0
  4  5  1  0  0  0  0
  4 23  1  0  0  0  0
  4 24  1  0  0  0  0
  5  6  1  0  0  0  0
  5 17  1  0  0  0  0
  5 25  1  0  0  0  0
  6  7  1  0  0  0  0
  6 26  1  0  0  0  0
  6 27  1  0  0  0  0
  7  8  1  0  0  0  0
  7 28  1  0  0  0  0
  8  9  2  0  0  0  0
  8 10  1  0  0  0  0
 10 11  1  0  0  0  0
 10 29  1  0  0  0  0
 11 16  1  0  0  0  0
 11 12  2  0  0  0  0
 12 13  1  0  0  0  0
 12 30  1  0  0  0  0
 13 14  2  0  0  0  0
 13 31  1  0  0  0  0
 14 15  1  0  0  0  0
 14 37  1  0  0  0  0
 15 16  2  0  0  0  0
 15 32  1  0  0  0  0
 16 33  1  0  0  0  0
 17 34  1  0  0  0  0
 17 35  1  0  0  0  0
M  CHG  1   2   1
M  CHG  1  14   1
M  END
> <s_m_source_file>
AV-unprocessed.smi

> <i_m_source_file_index>
3163

> <i_lp_mmshare_version>
43012

> <i_f3d_flags>
0

> <s_epik_input>
W0NIM11OMVtDSDJdW0NIMl1bQ0BIXShbQ0gyXTEpW0NIMl1bTkhdQyg9TylbTkhdYzJbY0hdW2NIXW5bY0hdW2NIXTI=

> <s_epik_cmdline>
J2VwaWtfcHl0aG9uJywgJy1waCcsICc3LjAnLCAnLXRuJywgJzgnLCAnLW1hJywgJzIwMCcsICctbWV0YWxfYmluZGluZycsICctaW1hZScsICc8aW5maWxlLm1hZT4nLCAnLW9tYWUnLCAnPG91dGZpbGUubWFlPic=

> <r_epik_Ionization_Penalty>
1.09034

> <r_epik_Ionization_Penalty_Charging>
1.09032

> <r_epik_Ionization_Penalty_Neutral>
1.86664e-05

> <r_epik_State_Penalty>
1.14521

> <r_epik_Charging_Adjusted_Penalty>
2.23553

> <i_epik_Tot_Q>
2

> <i_epik_Tot_abs_Q>
2

> <r_epik_Metal_State_Penalty>
1.23399

> <b_epik_Metal_Only>
0

> <s_lp_Force_Field>
OPLS_2005

> <r_lp_Energy>
39.8127

> <b_lp_Chiralities_Consistent>
1

> <s_lp_Variant>
AV-unprocessed.smi:3163-7

> <Gold.Version>
5.8.1

> <Gold.Id.Protein>
6NUR|6NUR_protein|mol2

> <Gold.PLP.Fitness>
45.3911

> <Gold.PLP.PLP>
-28.5578

> <Gold.PLP.part.hbond>
-4.6944

> <Gold.PLP.part.metal>
0.0000

> <Gold.PLP.part.buried>
3.1386

> <Gold.PLP.part.nonpolar>
-33.8064

> <Gold.PLP.part.repulsive>
5.5536

> <Gold.PLP.ligand.clash>
0.0000

> <Gold.PLP.ligand.torsion>
0.1878

> <Gold.PLP.Chemscore.Hbond>
5.7356

> <Gold.PLP.Chemscore.CHOScore>
0.0000

> <Gold.PLP.Chemscore.Metal>
0.0000

> <Gold.Chemscore.Hbonds>
donor molecule, donor type, donor heavy atom, donor atom, acceptor molecule, acceptor atom, score
      L1  H     2    36       P1 10186  2.00
      L1  H     7    28       P1  7948  0.91
      L1  H    10    29       P1  7948  0.78
      L1  H    14    37       P1  8028  1.98

> <Gold.PLP.Chemscore.Internal.Correction>
0.0022

> <Gold.Rescore>
     Score         DG    S(hbond)    S(metal)    S(lipo)     H(rot)  DE(clash)    DE(int)     intcor
     15.86     -24.25       3.78        0.00      80.27       1.27       6.74       1.65       ----

> <Gold.Chemscore.Fitness>
15.8647

> <Gold.Chemscore.DG>
-24.2482

> <Gold.Chemscore.ZeroCoef>
-5.4800

> <Gold.Chemscore.Hbond>
3.7823

> <Gold.Chemscore.Metal>
0.0000

> <Gold.Chemscore.Lipo>
80.2717

> <Gold.Chemscore.Internal_Hbond>
0.0000

> <Gold.Chemscore.DEClash>
6.7376

> <Gold.Chemscore.DEInternal>
1.6459

> <Gold.Chemscore.Rot>
1.2721

> <Gold.Chemscore.Internal.Correction>
   9.000000E+99

> <Gold.Chemscore.Hbonds>
donor molecule, donor type, donor heavy atom, donor atom, acceptor molecule, acceptor atom, score
      L1  H     2    36       P1 10186  0.94
      L1  H     7    28       P1  7948  0.84
      L1  H    10    29       P1  7948  0.77
      L1  H    14    37       P1  8028  0.94

> <Gold.Chemscore.Hbond.Weighted>
-12.6328

> <Gold.Chemscore.Metal.Weighted>
-0.0000

> <Gold.Chemscore.Lipo.Weighted>
-9.3918

> <Gold.Chemscore.Internal_Hbond.Weighted>
0.0000

> <Gold.Chemscore.DEClash.Weighted>
6.7376

> <Gold.Chemscore.DEInternal.Weighted>
1.6459

> <Gold.Chemscore.Rot.Weighted>
3.2565

> <Gold.Chemscore.Internal.Correction.Weighted>
   9.000000E+99

> <Gold.Protein.RotatedTorsions>
[ 6907 6896 6895 6894 ] final  165.03 input  -60.11 | X-H torsion
[ 7974 7965 7964 7962 ] final  146.60 input  175.53 | X-H torsion
[ 8008 7997 7996 7995 ] final  -80.20 input   59.86 | X-H torsion
[ 10167 10162 10161 10158 ] final   47.38 input  -65.29 | X-H torsion
[ 10718 10713 10712 10709 ] final  104.07 input   66.30 | X-H torsion
[ 10763 10752 10751 10750 ] final  -55.73 input  -60.55 | X-H torsion
[ 11005 11000 10999 10996 ] final  -33.35 input  -57.11 | X-H torsion

> <Gold.Protein.ActiveResidues>
 VAL166  LYS551  ARG553  GLY616  TRP617  ASP618  TYR619  PRO620  LYS621  CYS622 
 ASP623  PHE694  ASN695  SER759  ASP760  ASP761  ALA762  ILE779  LEU786  VAL792 
 PHE793  MET794  SER795  GLU796  ALA797  LYS798  CYS799  TRP800  GLU811  SER814 

> <Gold.Protein.RotatedAtoms>
  151.9008  133.3537  159.3829 H   0  0  0  0  0  0  0  0  0  0  0  0  # atno 6907 bound_to 6896
  150.7080  134.4830  159.5489 H   0  0  0  0  0  0  0  0  0  0  0  0  # atno 6908 bound_to 6896
  152.2418  134.8221  160.0510 H   0  0  0  0  0  0  0  0  0  0  0  0  # atno 6909 bound_to 6896
  144.8658  139.5925  143.5909 H   0  0  0  0  0  0  0  0  0  0  0  0  # atno 7974 bound_to 7965
  154.5859  140.0666  156.9171 H   0  0  0  0  0  0  0  0  0  0  0  0  # atno 8008 bound_to 7997
  155.2380  140.3342  155.4277 H   0  0  0  0  0  0  0  0  0  0  0  0  # atno 8009 bound_to 7997
  156.2222  140.1804  156.7433 H   0  0  0  0  0  0  0  0  0  0  0  0  # atno 8010 bound_to 7997
  140.3042  144.2897  150.6212 H   0  0  0  0  0  0  0  0  0  0  0  0  # atno 10167 bound_to 10162
  157.6752  131.0795  150.5651 H   0  0  0  0  0  0  0  0  0  0  0  0  # atno 10718 bound_to 10713
  154.1955  135.6420  153.5072 H   0  0  0  0  0  0  0  0  0  0  0  0  # atno 10763 bound_to 10752
  153.0024  135.5439  154.6370 H   0  0  0  0  0  0  0  0  0  0  0  0  # atno 10764 bound_to 10752
  154.5770  135.2922  155.0744 H   0  0  0  0  0  0  0  0  0  0  0  0  # atno 10765 bound_to 10752
  140.9628  133.7155  156.1396 H   0  0  0  0  0  0  0  0  0  0  0  0  # atno 11005 bound_to 11000
  146.2894  139.7097  142.9171 LP  0  0  0  0  0  0  0  0  0  0  0  0  # atno 17320 bound_to 7965
  145.4224  141.0408  143.2956 LP  0  0  0  0  0  0  0  0  0  0  0  0  # atno 17321 bound_to 7965
  140.5624  143.2190  151.7742 LP  0  0  0  0  0  0  0  0  0  0  0  0  # atno 17342 bound_to 10162
  139.4908  144.4330  151.9851 LP  0  0  0  0  0  0  0  0  0  0  0  0  # atno 17343 bound_to 10162
  156.5953  130.4340  149.5919 LP  0  0  0  0  0  0  0  0  0  0  0  0  # atno 17370 bound_to 10713
  156.2550  130.6929  151.1679 LP  0  0  0  0  0  0  0  0  0  0  0  0  # atno 17371 bound_to 10713
  140.7443  134.4115  157.5550 LP  0  0  0  0  0  0  0  0  0  0  0  0  # atno 17394 bound_to 11000
  139.8884  134.8858  156.2477 LP  0  0  0  0  0  0  0  0  0  0  0  0  # atno 17395 bound_to 11000

$$$$
