AV-unprocessed.smi:55|AV-procd|sdf|571|dock9
  -GOLD-   2262016473D 1   1.00000     0.00000
 Structure written by MMmdl.
 30 31  0  0  0  0  0  0  0  0  2 V2000
  150.6700  142.7927  158.9364 C   0  0  0  0  0  0  0  0  0  0  0  0
  150.8007  141.8859  157.7252 C   0  0  0  0  0  0  0  0  0  0  0  0
  149.9734  141.9808  156.6603 C   0  0  0  0  0  0  0  0  0  0  0  0
  150.0993  141.1534  155.5586 N   0  0  0  0  0  0  0  0  0  0  0  0
  149.1741  141.3014  154.3747 C   0  0  2  0  0  0  0  0  0  0  0  0
  147.8989  142.0377  154.7650 C   0  0  0  0  0  0  0  0  0  0  0  0
  146.8793  141.4451  153.7994 C   0  0  2  0  0  0  0  0  0  0  0  0
  145.6781  141.1471  154.4869 O   0  0  0  0  0  0  0  0  0  0  0  0
  147.5843  140.2159  153.1738 C   0  0  2  0  0  0  0  0  0  0  0  0
  146.7792  138.9027  153.1588 C   0  0  0  0  0  0  0  0  0  0  0  0
  145.9361  138.8620  152.0270 O   0  0  0  0  0  0  0  0  0  0  0  0
  148.7625  140.0443  153.9526 O   0  0  0  0  0  0  0  0  0  0  0  0
  151.1430  140.1936  155.5151 C   0  0  0  0  0  0  0  0  0  0  0  0
  151.2551  139.5038  154.5012 O   0  0  0  0  0  0  0  0  0  0  0  0
  151.9765  140.0835  156.5890 N   0  5  0  0  0  0  0  0  0  0  0  0
  151.8627  140.8725  157.6962 C   0  0  0  0  0  0  0  0  0  0  0  0
  152.6209  140.7607  158.6592 O   0  0  0  0  0  0  0  0  0  0  0  0
  149.7362  141.7802  153.5706 H   0  0  0  0  0  0  0  0  0  0  0  0
  146.6470  142.1652  153.0139 H   0  0  0  0  0  0  0  0  0  0  0  0
  147.8841  140.4815  152.1583 H   0  0  0  0  0  0  0  0  0  0  0  0
  149.8441  143.4947  158.8189 H   0  0  0  0  0  0  0  0  0  0  0  0
  151.5850  143.3679  159.0811 H   0  0  0  0  0  0  0  0  0  0  0  0
  150.4870  142.2034  159.8354 H   0  0  0  0  0  0  0  0  0  0  0  0
  149.1972  142.7317  156.6711 H   0  0  0  0  0  0  0  0  0  0  0  0
  147.6503  141.7981  155.8007 H   0  0  0  0  0  0  0  0  0  0  0  0
  148.0254  143.1165  154.6698 H   0  0  0  0  0  0  0  0  0  0  0  0
  145.0645  140.7761  153.8717 H   0  0  0  0  0  0  0  0  0  0  0  0
  147.4383  138.0339  153.1737 H   0  0  0  0  0  0  0  0  0  0  0  0
  146.1324  138.8397  154.0342 H   0  0  0  0  0  0  0  0  0  0  0  0
  145.1515  139.3521  152.2194 H   0  0  0  0  0  0  0  0  0  0  0  0
  1  2  1  0  0  0  0
  1 21  1  0  0  0  0
  1 22  1  0  0  0  0
  1 23  1  0  0  0  0
  2 16  1  0  0  0  0
  2  3  2  0  0  0  0
  3  4  1  0  0  0  0
  3 24  1  0  0  0  0
  4  5  1  0  0  0  0
  4 13  1  0  0  0  0
  5 18  1  0  0  0  0
  5 12  1  0  0  0  0
  5  6  1  0  0  0  0
  6  7  1  0  0  0  0
  6 25  1  0  0  0  0
  6 26  1  0  0  0  0
  7 19  1  0  0  0  0
  7  8  1  0  0  0  0
  7  9  1  0  0  0  0
  8 27  1  0  0  0  0
  9 20  1  0  0  0  0
  9 10  1  0  0  0  0
  9 12  1  0  0  0  0
 10 11  1  0  0  0  0
 10 28  1  0  0  0  0
 10 29  1  0  0  0  0
 11 30  1  0  0  0  0
 13 14  2  0  0  0  0
 13 15  1  0  0  0  0
 15 16  1  0  0  0  0
 16 17  2  0  0  0  0
M  CHG  1  15  -1
M  END
> <s_m_source_file>
AV-unprocessed.smi

> <i_m_source_file_index>
55

> <i_lp_mmshare_version>
43012

> <i_f3d_flags>
0

> <s_epik_input>
Tz1jMVtuSF1jKD1PKW4oW2NIXWMxW0NIM10pW0NAQEhdMltDSDJdW0NAQEhdKFtPSF0pW0NAQEhdKE8yKVtDSDJdW09IXQ==

> <s_epik_cmdline>
J2VwaWtfcHl0aG9uJywgJy1waCcsICc3LjAnLCAnLXRuJywgJzgnLCAnLW1hJywgJzIwMCcsICctbWV0YWxfYmluZGluZycsICctaW1hZScsICc8aW5maWxlLm1hZT4nLCAnLW9tYWUnLCAnPG91dGZpbGUubWFlPic=

> <r_lp_tautomer_probability>
0.999537

> <r_epik_Ionization_Penalty>
3.66603

> <r_epik_Ionization_Penalty_Charging>
1.09773e-07

> <r_epik_Ionization_Penalty_Neutral>
3.66603

> <r_epik_State_Penalty>
3.66562

> <r_epik_Charging_Adjusted_Penalty>
3.66562

> <i_epik_Tot_Q>
-1

> <i_epik_Tot_abs_Q>
1

> <r_epik_Metal_State_Penalty>
0.234536

> <b_epik_Metal_Only>
1

> <s_epik_Chemistry_Notes>
This compound contains an acetal/aminal-like group ( X-CH(R)-Y where X, Y are N, S, or O) that may be acid/base labile, releasing an aldehyde.

> <s_lp_Force_Field>
OPLS_2005

> <r_lp_Energy>
40.7454

> <b_lp_Chiralities_Consistent>
1

> <s_lp_Variant>
AV-unprocessed.smi:55-11

> <Gold.Version>
5.8.1

> <Gold.Id.Protein>
6NUR|6NUR_protein|mol2

> <Gold.PLP.Fitness>
38.2586

> <Gold.PLP.PLP>
-28.6921

> <Gold.PLP.part.hbond>
-3.9332

> <Gold.PLP.part.metal>
0.0000

> <Gold.PLP.part.buried>
0.7404

> <Gold.PLP.part.nonpolar>
-25.5595

> <Gold.PLP.part.repulsive>
1.1746

> <Gold.PLP.ligand.clash>
0.0000

> <Gold.PLP.ligand.torsion>
0.7038

> <Gold.PLP.Chemscore.Hbond>
2.6500

> <Gold.PLP.Chemscore.CHOScore>
1.0000

> <Gold.PLP.Chemscore.Metal>
0.0000

> <Gold.Chemscore.Hbonds>
donor molecule, donor type, donor heavy atom, donor atom, acceptor molecule, acceptor atom, score
      L1  H     8    27       P1 10175  1.00
      L1  H    11    30       P1 10175  1.00
      P1  H  7989  7998       L1    14  0.70
      L1  C     3    24       P1  8028  1.00

> <Gold.PLP.Chemscore.Internal.Correction>
0.0242

> <Gold.Rescore>
     Score         DG    S(hbond)    S(metal)    S(lipo)     H(rot)  DE(clash)    DE(int)     intcor
      7.97     -10.46       1.98        0.00      44.96       2.69       0.07       2.42       ----

> <Gold.Chemscore.Fitness>
7.9661

> <Gold.Chemscore.DG>
-10.4581

> <Gold.Chemscore.ZeroCoef>
-5.4800

> <Gold.Chemscore.Hbond>
1.9750

> <Gold.Chemscore.Metal>
0.0000

> <Gold.Chemscore.Lipo>
44.9619

> <Gold.Chemscore.Internal_Hbond>
0.0000

> <Gold.Chemscore.DEClash>
0.0717

> <Gold.Chemscore.DEInternal>
2.4203

> <Gold.Chemscore.Rot>
2.6871

> <Gold.Chemscore.Internal.Correction>
   9.000000E+99

> <Gold.Chemscore.Hbonds>
donor molecule, donor type, donor heavy atom, donor atom, acceptor molecule, acceptor atom, score
      L1  H     8    27       P1 10175  0.94
      L1  H    11    30       P1 10175  1.00
      P1  H  7989  7998       L1    14  0.07

> <Gold.Chemscore.Hbond.Weighted>
-6.5966

> <Gold.Chemscore.Metal.Weighted>
-0.0000

> <Gold.Chemscore.Lipo.Weighted>
-5.2605

> <Gold.Chemscore.Internal_Hbond.Weighted>
0.0000

> <Gold.Chemscore.DEClash.Weighted>
0.0717

> <Gold.Chemscore.DEInternal.Weighted>
2.4203

> <Gold.Chemscore.Rot.Weighted>
6.8791

> <Gold.Chemscore.Internal.Correction.Weighted>
   9.000000E+99

> <Gold.Protein.RotatedTorsions>
[ 6907 6896 6895 6894 ] final   77.08 input  -60.11 | X-H torsion
[ 7974 7965 7964 7962 ] final -143.35 input  175.53 | X-H torsion
[ 8008 7997 7996 7995 ] final  154.64 input   59.86 | X-H torsion
[ 10167 10162 10161 10158 ] final  -59.48 input  -65.29 | X-H torsion
[ 10718 10713 10712 10709 ] final   46.93 input   66.30 | X-H torsion
[ 10763 10752 10751 10750 ] final  -69.17 input  -60.55 | X-H torsion
[ 11005 11000 10999 10996 ] final  -12.04 input  -57.11 | X-H torsion

> <Gold.Protein.ActiveResidues>
 VAL166  LYS551  ARG553  GLY616  TRP617  ASP618  TYR619  PRO620  LYS621  CYS622 
 ASP623  PHE694  ASN695  SER759  ASP760  ASP761  ALA762  ILE779  LEU786  VAL792 
 PHE793  MET794  SER795  GLU796  ALA797  LYS798  CYS799  TRP800  GLU811  SER814 

> <Gold.Protein.RotatedAtoms>
  152.5102  134.3871  159.9370 H   0  0  0  0  0  0  0  0  0  0  0  0  # atno 6907 bound_to 6896
  151.3829  133.3808  159.2720 H   0  0  0  0  0  0  0  0  0  0  0  0  # atno 6908 bound_to 6896
  150.9490  134.8913  159.7719 H   0  0  0  0  0  0  0  0  0  0  0  0  # atno 6909 bound_to 6896
  144.8376  140.5845  143.5474 H   0  0  0  0  0  0  0  0  0  0  0  0  # atno 7974 bound_to 7965
  156.2520  140.1961  156.6677 H   0  0  0  0  0  0  0  0  0  0  0  0  # atno 8008 bound_to 7997
  154.6416  140.0583  156.9878 H   0  0  0  0  0  0  0  0  0  0  0  0  # atno 8009 bound_to 7997
  155.1554  140.3255  155.4425 H   0  0  0  0  0  0  0  0  0  0  0  0  # atno 8010 bound_to 7997
  140.6132  143.2394  151.5659 H   0  0  0  0  0  0  0  0  0  0  0  0  # atno 10167 bound_to 10162
  157.4533  130.8151  149.7810 H   0  0  0  0  0  0  0  0  0  0  0  0  # atno 10718 bound_to 10713
  154.3995  135.6034  153.5889 H   0  0  0  0  0  0  0  0  0  0  0  0  # atno 10763 bound_to 10752
  152.9788  135.5903  154.4201 H   0  0  0  0  0  0  0  0  0  0  0  0  # atno 10764 bound_to 10752
  154.3997  135.2843  155.2082 H   0  0  0  0  0  0  0  0  0  0  0  0  # atno 10765 bound_to 10752
  140.7616  133.8511  155.9129 H   0  0  0  0  0  0  0  0  0  0  0  0  # atno 11005 bound_to 11000
  145.4762  139.1499  143.3787 LP  0  0  0  0  0  0  0  0  0  0  0  0  # atno 17320 bound_to 7965
  146.2672  140.4897  142.8829 LP  0  0  0  0  0  0  0  0  0  0  0  0  # atno 17321 bound_to 7965
  139.5378  144.2733  152.1287 LP  0  0  0  0  0  0  0  0  0  0  0  0  # atno 17342 bound_to 10162
  140.1937  144.4727  150.6466 LP  0  0  0  0  0  0  0  0  0  0  0  0  # atno 17343 bound_to 10162
  155.9996  130.3888  150.2657 LP  0  0  0  0  0  0  0  0  0  0  0  0  # atno 17370 bound_to 10713
  157.0830  131.0149  151.3149 LP  0  0  0  0  0  0  0  0  0  0  0  0  # atno 17371 bound_to 10713
  140.9658  134.1596  157.4617 LP  0  0  0  0  0  0  0  0  0  0  0  0  # atno 17394 bound_to 11000
  139.8770  134.9961  156.5778 LP  0  0  0  0  0  0  0  0  0  0  0  0  # atno 17395 bound_to 11000

$$$$
