AV-unprocessed.smi:3050|AV-procd|sdf|11632|dock9
  -GOLD-   2272017 23D 1   1.00000     0.00000
 Structure written by MMmdl.
 45 46  0  0  0  0  0  0  0  0  1 V2000
  147.7800  127.2694  151.8783 C   0  0  0  0  0  0  0  0  0  0  0  0
  146.7349  128.2683  152.3902 C   0  0  0  0  0  0  0  0  0  0  0  0
  147.1665  129.7335  152.1933 C   0  0  1  0  0  0  0  0  0  0  0  0
  146.0070  130.5545  152.3266 O   0  0  0  0  0  0  0  0  0  0  0  0
  145.7902  131.5194  151.3002 C   0  0  0  0  0  0  0  0  0  0  0  0
  146.1916  132.9083  151.7915 C   0  0  0  0  0  0  0  0  0  0  0  0
  145.4481  133.8698  150.8612 C   0  0  0  0  0  0  0  0  0  0  0  0
  144.1842  133.1241  150.4054 C   0  0  0  0  0  0  0  0  0  0  0  0
  144.3112  131.6900  150.9368 C   0  0  0  0  0  0  0  0  0  0  0  0
  148.2264  130.1449  153.2271 C   0  0  0  0  0  0  0  0  0  0  0  0
  148.7172  129.3069  153.9840 O   0  0  0  0  0  0  0  0  0  0  0  0
  148.5697  131.4415  153.2427 N   0  0  0  0  0  0  0  0  0  0  0  0
  149.6002  132.0263  154.0947 C   0  0  0  0  0  0  0  0  0  0  0  0
  149.0233  133.0353  155.1063 C   0  0  0  0  0  0  0  0  0  0  0  0
  149.9462  134.1998  155.3536 C   0  0  0  0  0  0  0  0  0  0  0  0
  151.1313  134.2255  156.1426 C   0  0  0  0  0  0  0  0  0  0  0  0
  151.7053  135.4174  156.1697 N   0  0  0  0  0  0  0  0  0  0  0  0
  150.9114  136.1902  155.4003 N   0  0  0  0  0  0  0  0  0  0  0  0
  151.2451  137.5850  155.2067 C   0  0  0  0  0  0  0  0  0  0  0  0
  149.8441  135.4821  154.8922 C   0  0  0  0  0  0  0  0  0  0  0  0
  147.4468  126.2440  152.0385 H   0  0  0  0  0  0  0  0  0  0  0  0
  148.7312  127.3949  152.3960 H   0  0  0  0  0  0  0  0  0  0  0  0
  147.9598  127.3970  150.8106 H   0  0  0  0  0  0  0  0  0  0  0  0
  145.7853  128.0872  151.8845 H   0  0  0  0  0  0  0  0  0  0  0  0
  146.5599  128.0749  153.4497 H   0  0  0  0  0  0  0  0  0  0  0  0
  147.5853  129.8319  151.1905 H   0  0  0  0  0  0  0  0  0  0  0  0
  146.3693  131.2926  150.4040 H   0  0  0  0  0  0  0  0  0  0  0  0
  145.8447  133.0520  152.8158 H   0  0  0  0  0  0  0  0  0  0  0  0
  147.2710  133.0623  151.7820 H   0  0  0  0  0  0  0  0  0  0  0  0
  145.2167  134.8147  151.3538 H   0  0  0  0  0  0  0  0  0  0  0  0
  146.0700  134.0970  149.9944 H   0  0  0  0  0  0  0  0  0  0  0  0
  143.2797  133.5991  150.7871 H   0  0  0  0  0  0  0  0  0  0  0  0
  144.1188  133.1284  149.3167 H   0  0  0  0  0  0  0  0  0  0  0  0
  143.9689  130.9482  150.2145 H   0  0  0  0  0  0  0  0  0  0  0  0
  143.7000  131.5825  151.8342 H   0  0  0  0  0  0  0  0  0  0  0  0
  148.1113  132.0610  152.5903 H   0  0  0  0  0  0  0  0  0  0  0  0
  150.0808  131.2084  154.6322 H   0  0  0  0  0  0  0  0  0  0  0  0
  150.3768  132.4939  153.4874 H   0  0  0  0  0  0  0  0  0  0  0  0
  148.0555  133.3837  154.7452 H   0  0  0  0  0  0  0  0  0  0  0  0
  148.8119  132.5163  156.0420 H   0  0  0  0  0  0  0  0  0  0  0  0
  151.5846  133.4181  156.6987 H   0  0  0  0  0  0  0  0  0  0  0  0
  150.4773  138.0736  154.6062 H   0  0  0  0  0  0  0  0  0  0  0  0
  152.2032  137.6668  154.6923 H   0  0  0  0  0  0  0  0  0  0  0  0
  151.3120  138.0870  156.1725 H   0  0  0  0  0  0  0  0  0  0  0  0
  149.1031  135.9440  154.2561 H   0  0  0  0  0  0  0  0  0  0  0  0
  1  2  1  0  0  0  0
  1 21  1  0  0  0  0
  1 22  1  0  0  0  0
  1 23  1  0  0  0  0
  2  3  1  0  0  0  0
  2 24  1  0  0  0  0
  2 25  1  0  0  0  0
  3  4  1  0  0  0  0
  3 10  1  0  0  0  0
  3 26  1  0  0  0  0
  4  5  1  0  0  0  0
  5  9  1  0  0  0  0
  5  6  1  0  0  0  0
  5 27  1  0  0  0  0
  6  7  1  0  0  0  0
  6 28  1  0  0  0  0
  6 29  1  0  0  0  0
  7  8  1  0  0  0  0
  7 30  1  0  0  0  0
  7 31  1  0  0  0  0
  8  9  1  0  0  0  0
  8 32  1  0  0  0  0
  8 33  1  0  0  0  0
  9 34  1  0  0  0  0
  9 35  1  0  0  0  0
 10 11  2  0  0  0  0
 10 12  1  0  0  0  0
 12 13  1  0  0  0  0
 12 36  1  0  0  0  0
 13 14  1  0  0  0  0
 13 37  1  0  0  0  0
 13 38  1  0  0  0  0
 14 15  1  0  0  0  0
 14 39  1  0  0  0  0
 14 40  1  0  0  0  0
 15 20  2  0  0  0  0
 15 16  1  0  0  0  0
 16 17  2  0  0  0  0
 16 41  1  0  0  0  0
 17 18  1  0  0  0  0
 18 19  1  0  0  0  0
 18 20  1  0  0  0  0
 19 42  1  0  0  0  0
 19 43  1  0  0  0  0
 19 44  1  0  0  0  0
 20 45  1  0  0  0  0
M  END
> <s_m_source_file>
AV-unprocessed.smi

> <i_m_source_file_index>
3050

> <i_lp_mmshare_version>
43012

> <i_f3d_flags>
0

> <s_epik_input>
W0NIMl0xW0NIMl1bQ0gyXVtDSDJdW0NIXTFPW0NAQEhdKFtDSDJdW0NIM10pQyg9TylbTkhdW0NIMl1bQ0gyXWMyW2NIXW5uKFtDSDNdKVtjSF0y

> <s_epik_cmdline>
J2VwaWtfcHl0aG9uJywgJy1waCcsICc3LjAnLCAnLXRuJywgJzgnLCAnLW1hJywgJzIwMCcsICctbWV0YWxfYmluZGluZycsICctaW1hZScsICc8aW5maWxlLm1hZT4nLCAnLW9tYWUnLCAnPG91dGZpbGUubWFlPic=

> <r_lp_tautomer_probability>
1

> <r_epik_Ionization_Penalty>
0.000440265

> <r_epik_Ionization_Penalty_Charging>
0

> <r_epik_Ionization_Penalty_Neutral>
0.000440265

> <r_epik_State_Penalty>
-0

> <r_epik_Charging_Adjusted_Penalty>
0

> <i_epik_Tot_Q>
0

> <i_epik_Tot_abs_Q>
0

> <r_epik_Metal_State_Penalty>
-0

> <b_epik_Metal_Only>
0

> <s_lp_Force_Field>
OPLS_2005

> <r_lp_Energy>
20.8184

> <b_lp_Chiralities_Consistent>
1

> <s_lp_Variant>
AV-unprocessed.smi:3050-2

> <Gold.Version>
5.8.1

> <Gold.Id.Protein>
6NUR|6NUR_protein|mol2

> <Gold.PLP.Fitness>
38.3507

> <Gold.PLP.PLP>
-35.9672

> <Gold.PLP.part.hbond>
-2.0000

> <Gold.PLP.part.metal>
0.0000

> <Gold.PLP.part.buried>
-2.2911

> <Gold.PLP.part.nonpolar>
-31.7211

> <Gold.PLP.part.repulsive>
0.2724

> <Gold.PLP.ligand.clash>
0.0000

> <Gold.PLP.ligand.torsion>
1.9265

> <Gold.PLP.Chemscore.Hbond>
1.0000

> <Gold.PLP.Chemscore.CHOScore>
1.0000

> <Gold.PLP.Chemscore.Metal>
0.0000

> <Gold.Chemscore.Hbonds>
donor molecule, donor type, donor heavy atom, donor atom, acceptor molecule, acceptor atom, score
      P1  H 10752 10763       L1    17  0.90
      L1  C    20    45       P1  7948  1.00

> <Gold.PLP.Chemscore.Internal.Correction>
0.2365

> <Gold.Rescore>
     Score         DG    S(hbond)    S(metal)    S(lipo)     H(rot)  DE(clash)    DE(int)     intcor
     11.16     -13.71       0.45        0.00      97.55       1.83       0.80       1.76       ----

> <Gold.Chemscore.Fitness>
11.1593

> <Gold.Chemscore.DG>
-13.7143

> <Gold.Chemscore.ZeroCoef>
-5.4800

> <Gold.Chemscore.Hbond>
0.4498

> <Gold.Chemscore.Metal>
0.0000

> <Gold.Chemscore.Lipo>
97.5478

> <Gold.Chemscore.Internal_Hbond>
0.0000

> <Gold.Chemscore.DEClash>
0.7950

> <Gold.Chemscore.DEInternal>
1.7600

> <Gold.Chemscore.Rot>
1.8286

> <Gold.Chemscore.Internal.Correction>
   9.000000E+99

> <Gold.Chemscore.Hbonds>
donor molecule, donor type, donor heavy atom, donor atom, acceptor molecule, acceptor atom, score
      P1  H 10752 10763       L1    17  0.13

> <Gold.Chemscore.Hbond.Weighted>
-1.5023

> <Gold.Chemscore.Metal.Weighted>
-0.0000

> <Gold.Chemscore.Lipo.Weighted>
-11.4131

> <Gold.Chemscore.Internal_Hbond.Weighted>
0.0000

> <Gold.Chemscore.DEClash.Weighted>
0.7950

> <Gold.Chemscore.DEInternal.Weighted>
1.7600

> <Gold.Chemscore.Rot.Weighted>
4.6811

> <Gold.Chemscore.Internal.Correction.Weighted>
   9.000000E+99

> <Gold.Protein.RotatedTorsions>
[ 6907 6896 6895 6894 ] final  -94.02 input  -60.11 | X-H torsion
[ 7974 7965 7964 7962 ] final -127.05 input  175.53 | X-H torsion
[ 8008 7997 7996 7995 ] final  -40.01 input   59.86 | X-H torsion
[ 10167 10162 10161 10158 ] final -158.37 input  -65.29 | X-H torsion
[ 10718 10713 10712 10709 ] final  -29.11 input   66.30 | X-H torsion
[ 10763 10752 10751 10750 ] final   93.12 input  -60.55 | X-H torsion
[ 11005 11000 10999 10996 ] final  -12.27 input  -57.11 | X-H torsion

> <Gold.Protein.ActiveResidues>
 VAL166  LYS551  ARG553  GLY616  TRP617  ASP618  TYR619  PRO620  LYS621  CYS622 
 ASP623  PHE694  ASN695  SER759  ASP760  ASP761  ALA762  ILE779  LEU786  VAL792 
 PHE793  MET794  SER795  GLU796  ALA797  LYS798  CYS799  TRP800  GLU811  SER814 

> <Gold.Protein.RotatedAtoms>
  150.6933  134.1877  159.4272 H   0  0  0  0  0  0  0  0  0  0  0  0  # atno 6907 bound_to 6896
  151.9849  135.0007  160.0568 H   0  0  0  0  0  0  0  0  0  0  0  0  # atno 6908 bound_to 6896
  152.1721  133.4615  159.4951 H   0  0  0  0  0  0  0  0  0  0  0  0  # atno 6909 bound_to 6896
  144.9810  140.7640  143.4612 H   0  0  0  0  0  0  0  0  0  0  0  0  # atno 7974 bound_to 7965
  154.4016  140.1536  156.2956 H   0  0  0  0  0  0  0  0  0  0  0  0  # atno 8008 bound_to 7997
  155.8746  140.3447  155.5823 H   0  0  0  0  0  0  0  0  0  0  0  0  # atno 8009 bound_to 7997
  155.7736  140.0833  157.2086 H   0  0  0  0  0  0  0  0  0  0  0  0  # atno 8010 bound_to 7997
  139.6697  143.9766  152.2276 H   0  0  0  0  0  0  0  0  0  0  0  0  # atno 10167 bound_to 10162
  156.4166  130.4418  149.7213 H   0  0  0  0  0  0  0  0  0  0  0  0  # atno 10718 bound_to 10713
  153.2267  135.4337  155.0550 H   0  0  0  0  0  0  0  0  0  0  0  0  # atno 10763 bound_to 10752
  154.8277  135.3369  154.6847 H   0  0  0  0  0  0  0  0  0  0  0  0  # atno 10764 bound_to 10752
  153.7276  135.7013  153.5053 H   0  0  0  0  0  0  0  0  0  0  0  0  # atno 10765 bound_to 10752
  140.7639  133.8492  155.9148 H   0  0  0  0  0  0  0  0  0  0  0  0  # atno 11005 bound_to 11000
  145.2421  139.2068  143.4987 LP  0  0  0  0  0  0  0  0  0  0  0  0  # atno 17320 bound_to 7965
  146.3408  140.2318  142.8593 LP  0  0  0  0  0  0  0  0  0  0  0  0  # atno 17321 bound_to 7965
  139.9527  144.6609  150.8156 LP  0  0  0  0  0  0  0  0  0  0  0  0  # atno 17342 bound_to 10162
  140.7613  143.3172  151.2706 LP  0  0  0  0  0  0  0  0  0  0  0  0  # atno 17343 bound_to 10162
  156.4171  130.7750  151.2766 LP  0  0  0  0  0  0  0  0  0  0  0  0  # atno 17370 bound_to 10713
  157.7508  131.0194  150.3666 LP  0  0  0  0  0  0  0  0  0  0  0  0  # atno 17371 bound_to 10713
  140.9637  134.1622  157.4633 LP  0  0  0  0  0  0  0  0  0  0  0  0  # atno 17394 bound_to 11000
  139.8766  134.9954  156.5741 LP  0  0  0  0  0  0  0  0  0  0  0  0  # atno 17395 bound_to 11000

$$$$
