AV-unprocessed.smi:3279|AV-procd|sdf|12548|dock8
  -GOLD-   2272018463D 1   1.00000     0.00000
 Structure written by MMmdl.
 35 35  0  0  0  0  0  0  0  0  2 V2000
  149.3972  139.2348  154.3623 C   0  0  0  0  0  0  0  0  0  0  0  0
  150.2773  138.5553  155.4226 C   0  0  2  0  0  0  0  0  0  0  0  0
  149.9614  139.0387  156.8561 C   0  0  0  0  0  0  0  0  0  0  0  0
  150.4285  140.4000  157.0985 N   0  0  0  0  0  0  0  0  0  0  0  0
  149.6495  141.4324  157.4547 C   0  0  0  0  0  0  0  0  0  0  0  0
  148.4255  141.3557  157.5602 O   0  0  0  0  0  0  0  0  0  0  0  0
  150.3646  142.7440  157.7689 C   0  0  0  0  0  0  0  0  0  0  0  0
  151.1199  142.5780  158.9661 O   0  0  0  0  0  0  0  0  0  0  0  0
  151.7628  143.7286  159.5205 C   0  0  0  0  0  0  0  0  0  0  0  0
  152.6014  143.3655  160.7625 C   0  0  0  0  0  0  0  0  0  0  0  0
  150.6060  144.6516  159.9352 C   0  0  0  0  0  0  0  0  0  0  0  0
  152.6237  144.4309  158.4520 C   0  0  0  0  0  0  0  0  0  0  0  0
  151.7390  138.6679  155.0863 C   0  0  0  0  0  0  0  0  0  0  0  0
  152.3953  139.8381  155.0660 N   0  0  0  0  0  0  0  0  0  0  0  0
  153.6386  139.4944  154.7039 N   0  0  0  0  0  0  0  0  0  0  0  0
  153.7067  138.1705  154.5199 N   0  0  0  0  0  0  0  0  0  0  0  0
  152.5094  137.6185  154.7567 N   0  5  0  0  0  0  0  0  0  0  0  0
  149.5790  138.8108  153.3742 H   0  0  0  0  0  0  0  0  0  0  0  0
  149.5944  140.3058  154.3077 H   0  0  0  0  0  0  0  0  0  0  0  0
  148.3389  139.1031  154.5885 H   0  0  0  0  0  0  0  0  0  0  0  0
  149.9883  137.5032  155.3970 H   0  0  0  0  0  0  0  0  0  0  0  0
  148.8829  139.0307  157.0175 H   0  0  0  0  0  0  0  0  0  0  0  0
  150.3855  138.3563  157.5944 H   0  0  0  0  0  0  0  0  0  0  0  0
  151.4253  140.5556  157.0469 H   0  0  0  0  0  0  0  0  0  0  0  0
  151.0118  143.0061  156.9315 H   0  0  0  0  0  0  0  0  0  0  0  0
  149.6095  143.5228  157.8684 H   0  0  0  0  0  0  0  0  0  0  0  0
  152.9743  144.2625  161.2579 H   0  0  0  0  0  0  0  0  0  0  0  0
  153.4707  142.7600  160.5057 H   0  0  0  0  0  0  0  0  0  0  0  0
  152.0089  142.8092  161.4895 H   0  0  0  0  0  0  0  0  0  0  0  0
  149.9641  144.1714  160.6748 H   0  0  0  0  0  0  0  0  0  0  0  0
  149.9826  144.9131  159.0794 H   0  0  0  0  0  0  0  0  0  0  0  0
  150.9748  145.5807  160.3715 H   0  0  0  0  0  0  0  0  0  0  0  0
  152.9944  145.3894  158.8167 H   0  0  0  0  0  0  0  0  0  0  0  0
  152.0477  144.6235  157.5461 H   0  0  0  0  0  0  0  0  0  0  0  0
  153.4958  143.8407  158.1719 H   0  0  0  0  0  0  0  0  0  0  0  0
  1  2  1  0  0  0  0
  1 18  1  0  0  0  0
  1 19  1  0  0  0  0
  1 20  1  0  0  0  0
  2  3  1  0  0  0  0
  2 13  1  0  0  0  0
  2 21  1  0  0  0  0
  3  4  1  0  0  0  0
  3 22  1  0  0  0  0
  3 23  1  0  0  0  0
  4  5  1  0  0  0  0
  4 24  1  0  0  0  0
  5  6  2  0  0  0  0
  5  7  1  0  0  0  0
  7  8  1  0  0  0  0
  7 25  1  0  0  0  0
  7 26  1  0  0  0  0
  8  9  1  0  0  0  0
  9 10  1  0  0  0  0
  9 11  1  0  0  0  0
  9 12  1  0  0  0  0
 10 27  1  0  0  0  0
 10 28  1  0  0  0  0
 10 29  1  0  0  0  0
 11 30  1  0  0  0  0
 11 31  1  0  0  0  0
 11 32  1  0  0  0  0
 12 33  1  0  0  0  0
 12 34  1  0  0  0  0
 12 35  1  0  0  0  0
 13 17  1  0  0  0  0
 13 14  2  0  0  0  0
 14 15  1  0  0  0  0
 15 16  2  0  0  0  0
 16 17  1  0  0  0  0
M  CHG  1  17  -1
M  END
> <s_m_source_file>
AV-unprocessed.smi

> <i_m_source_file_index>
3279

> <i_lp_mmshare_version>
43012

> <i_f3d_flags>
0

> <s_epik_input>
W25IXTFubm5jMVtDQEhdKFtDSDNdKVtDSDJdW05IXUMoPU8pW0NIMl1PQyhbQ0gzXSkoW0NIM10pW0NIM10=

> <s_epik_cmdline>
J2VwaWtfcHl0aG9uJywgJy1waCcsICc3LjAnLCAnLXRuJywgJzgnLCAnLW1hJywgJzIwMCcsICctbWV0YWxfYmluZGluZycsICctaW1hZScsICc8aW5maWxlLm1hZT4nLCAnLW9tYWUnLCAnPG91dGZpbGUubWFlPic=

> <r_epik_Ionization_Penalty>
0.054353

> <r_epik_Ionization_Penalty_Charging>
0.054353

> <r_epik_Ionization_Penalty_Neutral>
3.0997e-08

> <r_epik_State_Penalty>
0.0139445

> <r_epik_Charging_Adjusted_Penalty>
0.0682975

> <i_epik_Tot_Q>
-1

> <i_epik_Tot_abs_Q>
1

> <r_epik_Metal_State_Penalty>
0.0109703

> <b_epik_Metal_Only>
0

> <s_lp_Force_Field>
OPLS_2005

> <r_lp_Energy>
-0.4509

> <b_lp_Chiralities_Consistent>
1

> <s_lp_Variant>
AV-unprocessed.smi:3279-1

> <Gold.Version>
5.8.1

> <Gold.Id.Protein>
6NUR|6NUR_protein|mol2

> <Gold.PLP.Fitness>
40.4393

> <Gold.PLP.PLP>
-32.4197

> <Gold.PLP.part.hbond>
-4.9800

> <Gold.PLP.part.metal>
0.0000

> <Gold.PLP.part.buried>
-5.7853

> <Gold.PLP.part.nonpolar>
-23.1589

> <Gold.PLP.part.repulsive>
0.2809

> <Gold.PLP.ligand.clash>
0.0000

> <Gold.PLP.ligand.torsion>
0.1954

> <Gold.PLP.Chemscore.Hbond>
2.7600

> <Gold.PLP.Chemscore.CHOScore>
0.0000

> <Gold.PLP.Chemscore.Metal>
0.0000

> <Gold.Chemscore.Hbonds>
donor molecule, donor type, donor heavy atom, donor atom, acceptor molecule, acceptor atom, score
      P1  H  7989  7998       L1    14  0.67
      P1  H  7997  8008       L1    15  1.00
      P1  H 10752 10764       L1    17  1.04

> <Gold.PLP.Chemscore.Internal.Correction>
0.1304

> <Gold.Rescore>
     Score         DG    S(hbond)    S(metal)    S(lipo)     H(rot)  DE(clash)    DE(int)     intcor
     10.10     -11.46       1.27        0.00      72.55       2.64       0.03       1.33       ----

> <Gold.Chemscore.Fitness>
10.0971

> <Gold.Chemscore.DG>
-11.4600

> <Gold.Chemscore.ZeroCoef>
-5.4800

> <Gold.Chemscore.Hbond>
1.2731

> <Gold.Chemscore.Metal>
0.0000

> <Gold.Chemscore.Lipo>
72.5528

> <Gold.Chemscore.Internal_Hbond>
0.0000

> <Gold.Chemscore.DEClash>
0.0281

> <Gold.Chemscore.DEInternal>
1.3348

> <Gold.Chemscore.Rot>
2.6409

> <Gold.Chemscore.Internal.Correction>
   9.000000E+99

> <Gold.Chemscore.Hbonds>
donor molecule, donor type, donor heavy atom, donor atom, acceptor molecule, acceptor atom, score
      P1  H  7989  7998       L1    14  0.18
      P1  H  7997  8008       L1    15  0.81
      P1  H 10752 10764       L1    17  0.11

> <Gold.Chemscore.Hbond.Weighted>
-4.2521

> <Gold.Chemscore.Metal.Weighted>
-0.0000

> <Gold.Chemscore.Lipo.Weighted>
-8.4887

> <Gold.Chemscore.Internal_Hbond.Weighted>
0.0000

> <Gold.Chemscore.DEClash.Weighted>
0.0281

> <Gold.Chemscore.DEInternal.Weighted>
1.3348

> <Gold.Chemscore.Rot.Weighted>
6.7607

> <Gold.Chemscore.Internal.Correction.Weighted>
   9.000000E+99

> <Gold.Protein.RotatedTorsions>
[ 6907 6896 6895 6894 ] final  -30.75 input  -60.11 | X-H torsion
[ 7974 7965 7964 7962 ] final -156.21 input  175.53 | X-H torsion
[ 8008 7997 7996 7995 ] final   12.52 input   59.86 | X-H torsion
[ 10167 10162 10161 10158 ] final  -59.31 input  -65.29 | X-H torsion
[ 10718 10713 10712 10709 ] final -151.79 input   66.30 | X-H torsion
[ 10763 10752 10751 10750 ] final  -75.66 input  -60.55 | X-H torsion
[ 11005 11000 10999 10996 ] final  -93.16 input  -57.11 | X-H torsion

> <Gold.Protein.ActiveResidues>
 VAL166  LYS551  ARG553  GLY616  TRP617  ASP618  TYR619  PRO620  LYS621  CYS622 
 ASP623  PHE694  ASN695  SER759  ASP760  ASP761  ALA762  ILE779  LEU786  VAL792 
 PHE793  MET794  SER795  GLU796  ALA797  LYS798  CYS799  TRP800  GLU811  SER814 

> <Gold.Protein.RotatedAtoms>
  151.1013  134.9974  159.8449 H   0  0  0  0  0  0  0  0  0  0  0  0  # atno 6907 bound_to 6896
  152.5437  134.1947  159.8698 H   0  0  0  0  0  0  0  0  0  0  0  0  # atno 6908 bound_to 6896
  151.1990  133.4578  159.2629 H   0  0  0  0  0  0  0  0  0  0  0  0  # atno 6909 bound_to 6896
  144.7603  140.4141  143.5981 H   0  0  0  0  0  0  0  0  0  0  0  0  # atno 7974 bound_to 7965
  154.8218  140.2885  155.5782 H   0  0  0  0  0  0  0  0  0  0  0  0  # atno 8008 bound_to 7997
  156.2998  140.2549  156.3057 H   0  0  0  0  0  0  0  0  0  0  0  0  # atno 8009 bound_to 7997
  154.9330  140.0383  157.2047 H   0  0  0  0  0  0  0  0  0  0  0  0  # atno 8010 bound_to 7997
  140.6143  143.2397  151.5635 H   0  0  0  0  0  0  0  0  0  0  0  0  # atno 10167 bound_to 10162
  156.4639  130.8226  151.2457 H   0  0  0  0  0  0  0  0  0  0  0  0  # atno 10718 bound_to 10713
  154.4895  135.5823  153.6449 H   0  0  0  0  0  0  0  0  0  0  0  0  # atno 10763 bound_to 10752
  152.9860  135.6109  154.3143 H   0  0  0  0  0  0  0  0  0  0  0  0  # atno 10764 bound_to 10752
  154.3041  135.2846  155.2576 H   0  0  0  0  0  0  0  0  0  0  0  0  # atno 10765 bound_to 10752
  141.1504  133.7869  157.0121 H   0  0  0  0  0  0  0  0  0  0  0  0  # atno 11005 bound_to 11000
  145.6640  139.1586  143.2792 LP  0  0  0  0  0  0  0  0  0  0  0  0  # atno 17320 bound_to 7965
  146.1660  140.6718  142.9255 LP  0  0  0  0  0  0  0  0  0  0  0  0  # atno 17321 bound_to 7965
  139.5386  144.2711  152.1303 LP  0  0  0  0  0  0  0  0  0  0  0  0  # atno 17342 bound_to 10162
  140.1917  144.4745  150.6475 LP  0  0  0  0  0  0  0  0  0  0  0  0  # atno 17343 bound_to 10162
  157.7496  131.0098  150.3281 LP  0  0  0  0  0  0  0  0  0  0  0  0  # atno 17370 bound_to 10713
  156.3687  130.3860  149.7192 LP  0  0  0  0  0  0  0  0  0  0  0  0  # atno 17371 bound_to 10713
  140.0871  134.9614  157.1717 LP  0  0  0  0  0  0  0  0  0  0  0  0  # atno 17394 bound_to 11000
  140.3497  134.2612  155.7200 LP  0  0  0  0  0  0  0  0  0  0  0  0  # atno 17395 bound_to 11000

$$$$
