AV-unprocessed.smi:1858|AV-procd|sdf|7542|dock8
  -GOLD-   22720 9253D 1   1.00000     0.00000
 Structure written by MMmdl.
 48 49  0  0  0  0  0  0  0  0  1 V2000
  143.8275  132.8512  148.2464 C   0  0  0  0  0  0  0  0  0  0  0  0
  143.3145  133.5088  149.4380 N   0  0  0  0  0  0  0  0  0  0  0  0
  144.0720  133.9316  150.4655 C   0  0  0  0  0  0  0  0  0  0  0  0
  145.2968  133.8018  150.4617 O   0  0  0  0  0  0  0  0  0  0  0  0
  143.3105  134.5281  151.5666 C   0  0  0  0  0  0  0  0  0  0  0  0
  142.1778  133.8125  152.1206 C   0  0  0  0  0  0  0  0  0  0  0  0
  141.4293  134.3586  153.0995 C   0  0  0  0  0  0  0  0  0  0  0  0
  141.7229  135.6874  153.6459 C   0  0  0  0  0  0  0  0  0  0  0  0
  141.0245  136.2027  154.5189 O   0  0  0  0  0  0  0  0  0  0  0  0
  142.8184  136.3145  153.1209 N   0  0  0  0  0  0  0  0  0  0  0  0
  143.2121  137.6659  153.5473 C   0  0  0  0  0  0  0  0  0  0  0  0
  144.5164  137.6163  154.3483 C   0  0  0  0  0  0  0  0  0  0  0  0
  144.7922  136.6281  155.0275 O   0  0  0  0  0  0  0  0  0  0  0  0
  145.2934  138.7071  154.2683 N   0  0  0  0  0  0  0  0  0  0  0  0
  146.5087  138.9616  155.0369 C   0  0  0  0  0  0  0  0  0  0  0  0
  146.5232  140.4063  155.5975 C   0  0  0  0  0  0  0  0  0  0  0  0
  146.3935  141.5613  154.5844 C   0  0  0  0  0  0  0  0  0  0  0  0
  147.5315  141.7103  153.5584 C   0  0  0  0  0  0  0  0  0  0  0  0
  148.9551  141.6143  154.1438 C   0  0  0  0  0  0  0  0  0  0  0  0
  149.6628  140.2626  153.9148 C   0  0  0  0  0  0  0  0  0  0  0  0
  149.1034  139.0403  154.6732 C   0  0  0  0  0  0  0  0  0  0  0  0
  147.7265  138.5571  154.1751 C   0  0  0  0  0  0  0  0  0  0  0  0
  143.5942  135.7375  152.0957 C   0  0  0  0  0  0  0  0  0  0  0  0
  143.0030  132.5940  147.5814 H   0  0  0  0  0  0  0  0  0  0  0  0
  144.3536  131.9321  148.5066 H   0  0  0  0  0  0  0  0  0  0  0  0
  144.5121  133.5054  147.7054 H   0  0  0  0  0  0  0  0  0  0  0  0
  142.3148  133.6377  149.4980 H   0  0  0  0  0  0  0  0  0  0  0  0
  141.9191  132.8299  151.7526 H   0  0  0  0  0  0  0  0  0  0  0  0
  140.5898  133.8042  153.4926 H   0  0  0  0  0  0  0  0  0  0  0  0
  143.3421  138.3455  152.7037 H   0  0  0  0  0  0  0  0  0  0  0  0
  142.4161  138.1076  154.1497 H   0  0  0  0  0  0  0  0  0  0  0  0
  144.9826  139.4555  153.6664 H   0  0  0  0  0  0  0  0  0  0  0  0
  146.5034  138.2930  155.8998 H   0  0  0  0  0  0  0  0  0  0  0  0
  145.6924  140.5024  156.2973 H   0  0  0  0  0  0  0  0  0  0  0  0
  147.4006  140.5582  156.2235 H   0  0  0  0  0  0  0  0  0  0  0  0
  145.4433  141.4871  154.0567 H   0  0  0  0  0  0  0  0  0  0  0  0
  146.3323  142.4893  155.1539 H   0  0  0  0  0  0  0  0  0  0  0  0
  147.4047  141.0073  152.7367 H   0  0  0  0  0  0  0  0  0  0  0  0
  147.4164  142.6905  153.0942 H   0  0  0  0  0  0  0  0  0  0  0  0
  149.5619  142.3754  153.6516 H   0  0  0  0  0  0  0  0  0  0  0  0
  148.9681  141.8872  155.1992 H   0  0  0  0  0  0  0  0  0  0  0  0
  149.6915  140.0454  152.8462 H   0  0  0  0  0  0  0  0  0  0  0  0
  150.7055  140.3840  154.2101 H   0  0  0  0  0  0  0  0  0  0  0  0
  149.8099  138.2246  154.5149 H   0  0  0  0  0  0  0  0  0  0  0  0
  149.1080  139.2046  155.7503 H   0  0  0  0  0  0  0  0  0  0  0  0
  147.7444  137.4669  154.1422 H   0  0  0  0  0  0  0  0  0  0  0  0
  147.5868  138.8514  153.1355 H   0  0  0  0  0  0  0  0  0  0  0  0
  144.4093  136.3665  151.7669 H   0  0  0  0  0  0  0  0  0  0  0  0
  1  2  1  0  0  0  0
  1 24  1  0  0  0  0
  1 25  1  0  0  0  0
  1 26  1  0  0  0  0
  2  3  1  0  0  0  0
  2 27  1  0  0  0  0
  3  4  2  0  0  0  0
  3  5  1  0  0  0  0
  5 23  2  0  0  0  0
  5  6  1  0  0  0  0
  6  7  2  0  0  0  0
  6 28  1  0  0  0  0
  7  8  1  0  0  0  0
  7 29  1  0  0  0  0
  8  9  2  0  0  0  0
  8 10  1  0  0  0  0
 10 11  1  0  0  0  0
 10 23  1  0  0  0  0
 11 12  1  0  0  0  0
 11 30  1  0  0  0  0
 11 31  1  0  0  0  0
 12 13  2  0  0  0  0
 12 14  1  0  0  0  0
 14 15  1  0  0  0  0
 14 32  1  0  0  0  0
 15 22  1  0  0  0  0
 15 16  1  0  0  0  0
 15 33  1  0  0  0  0
 16 17  1  0  0  0  0
 16 34  1  0  0  0  0
 16 35  1  0  0  0  0
 17 18  1  0  0  0  0
 17 36  1  0  0  0  0
 17 37  1  0  0  0  0
 18 19  1  0  0  0  0
 18 38  1  0  0  0  0
 18 39  1  0  0  0  0
 19 20  1  0  0  0  0
 19 40  1  0  0  0  0
 19 41  1  0  0  0  0
 20 21  1  0  0  0  0
 20 42  1  0  0  0  0
 20 43  1  0  0  0  0
 21 22  1  0  0  0  0
 21 44  1  0  0  0  0
 21 45  1  0  0  0  0
 22 46  1  0  0  0  0
 22 47  1  0  0  0  0
 23 48  1  0  0  0  0
M  END
> <s_m_source_file>
AV-unprocessed.smi

> <i_m_source_file_index>
1858

> <i_lp_mmshare_version>
43012

> <i_f3d_flags>
0

> <s_epik_input>
W0NIM11bTkhdQyg9TyljMVtjSF1bY0hdYyg9TyluKFtjSF0xKVtDSDJdQyg9TylbTkhdW0NIXTJbQ0gyXVtDSDJdW0NIMl1bQ0gyXVtDSDJdW0NIMl1bQ0gyXTI=

> <s_epik_cmdline>
J2VwaWtfcHl0aG9uJywgJy1waCcsICc3LjAnLCAnLXRuJywgJzgnLCAnLW1hJywgJzIwMCcsICctbWV0YWxfYmluZGluZycsICctaW1hZScsICc8aW5maWxlLm1hZT4nLCAnLW9tYWUnLCAnPG91dGZpbGUubWFlPic=

> <r_lp_tautomer_probability>
1

> <r_epik_Ionization_Penalty>
3.70383e-07

> <r_epik_Ionization_Penalty_Charging>
5.00098e-08

> <r_epik_Ionization_Penalty_Neutral>
3.20374e-07

> <r_epik_State_Penalty>
-0

> <r_epik_Charging_Adjusted_Penalty>
5.00098e-08

> <i_epik_Tot_Q>
0

> <i_epik_Tot_abs_Q>
0

> <r_epik_Metal_State_Penalty>
-0

> <b_epik_Metal_Only>
0

> <s_lp_Force_Field>
OPLS_2005

> <r_lp_Energy>
33.6896

> <b_lp_Chiralities_Consistent>
1

> <s_lp_Variant>
AV-unprocessed.smi:1858-1

> <Gold.Version>
5.8.1

> <Gold.Id.Protein>
6NUR|6NUR_protein|mol2

> <Gold.PLP.Fitness>
39.1264

> <Gold.PLP.PLP>
-34.7850

> <Gold.PLP.part.hbond>
-3.0000

> <Gold.PLP.part.metal>
0.0000

> <Gold.PLP.part.buried>
-0.1313

> <Gold.PLP.part.nonpolar>
-31.5904

> <Gold.PLP.part.repulsive>
0.2833

> <Gold.PLP.ligand.clash>
0.0000

> <Gold.PLP.ligand.torsion>
1.6562

> <Gold.PLP.Chemscore.Hbond>
2.5304

> <Gold.PLP.Chemscore.CHOScore>
0.0000

> <Gold.PLP.Chemscore.Metal>
0.0000

> <Gold.Chemscore.Hbonds>
donor molecule, donor type, donor heavy atom, donor atom, acceptor molecule, acceptor atom, score
      L1  H     2    27       P1 10186  0.98
      L1  H    14    32       P1 10175  0.99
      P1  H 11000 11005       L1     9  0.25

> <Gold.PLP.Chemscore.Internal.Correction>
0.0626

> <Gold.Rescore>
     Score         DG    S(hbond)    S(metal)    S(lipo)     H(rot)  DE(clash)    DE(int)     intcor
     17.03     -19.59       2.60        0.00      78.91       1.48       0.60       1.96       ----

> <Gold.Chemscore.Fitness>
17.0324

> <Gold.Chemscore.DG>
-19.5908

> <Gold.Chemscore.ZeroCoef>
-5.4800

> <Gold.Chemscore.Hbond>
2.5959

> <Gold.Chemscore.Metal>
0.0000

> <Gold.Chemscore.Lipo>
78.9096

> <Gold.Chemscore.Internal_Hbond>
0.0000

> <Gold.Chemscore.DEClash>
0.6007

> <Gold.Chemscore.DEInternal>
1.9577

> <Gold.Chemscore.Rot>
1.4812

> <Gold.Chemscore.Internal.Correction>
   9.000000E+99

> <Gold.Chemscore.Hbonds>
donor molecule, donor type, donor heavy atom, donor atom, acceptor molecule, acceptor atom, score
      L1  H     2    27       P1 10186  0.91
      L1  H    14    32       P1 10175  0.91
      P1  H 11000 11005       L1     9  0.21

> <Gold.Chemscore.Hbond.Weighted>
-8.6703

> <Gold.Chemscore.Metal.Weighted>
-0.0000

> <Gold.Chemscore.Lipo.Weighted>
-9.2324

> <Gold.Chemscore.Internal_Hbond.Weighted>
0.0000

> <Gold.Chemscore.DEClash.Weighted>
0.6007

> <Gold.Chemscore.DEInternal.Weighted>
1.9577

> <Gold.Chemscore.Rot.Weighted>
3.7920

> <Gold.Chemscore.Internal.Correction.Weighted>
   9.000000E+99

> <Gold.Protein.RotatedTorsions>
[ 6907 6896 6895 6894 ] final  124.07 input  -60.11 | X-H torsion
[ 7974 7965 7964 7962 ] final -110.40 input  175.53 | X-H torsion
[ 8008 7997 7996 7995 ] final  -34.99 input   59.86 | X-H torsion
[ 10167 10162 10161 10158 ] final  -77.44 input  -65.29 | X-H torsion
[ 10718 10713 10712 10709 ] final  119.02 input   66.30 | X-H torsion
[ 10763 10752 10751 10750 ] final   77.13 input  -60.55 | X-H torsion
[ 11005 11000 10999 10996 ] final   56.95 input  -57.11 | X-H torsion

> <Gold.Protein.ActiveResidues>
 VAL166  LYS551  ARG553  GLY616  TRP617  ASP618  TYR619  PRO620  LYS621  CYS622 
 ASP623  PHE694  ASN695  SER759  ASP760  ASP761  ALA762  ILE779  LEU786  VAL792 
 PHE793  MET794  SER795  GLU796  ALA797  LYS798  CYS799  TRP800  GLU811  SER814 

> <Gold.Protein.RotatedAtoms>
  152.4109  133.6962  159.6396 H   0  0  0  0  0  0  0  0  0  0  0  0  # atno 6907 bound_to 6896
  150.7990  133.8625  159.3244 H   0  0  0  0  0  0  0  0  0  0  0  0  # atno 6908 bound_to 6896
  151.6368  135.1019  160.0184 H   0  0  0  0  0  0  0  0  0  0  0  0  # atno 6909 bound_to 6896
  145.1687  140.8915  143.3548 H   0  0  0  0  0  0  0  0  0  0  0  0  # atno 7974 bound_to 7965
  154.4106  140.1669  156.2140 H   0  0  0  0  0  0  0  0  0  0  0  0  # atno 8008 bound_to 7997
  155.9420  140.3407  155.6312 H   0  0  0  0  0  0  0  0  0  0  0  0  # atno 8009 bound_to 7997
  155.6977  140.0741  157.2413 H   0  0  0  0  0  0  0  0  0  0  0  0  # atno 8010 bound_to 7997
  140.4769  143.2412  151.8118 H   0  0  0  0  0  0  0  0  0  0  0  0  # atno 10167 bound_to 10162
  157.5991  131.1054  150.7837 H   0  0  0  0  0  0  0  0  0  0  0  0  # atno 10718 bound_to 10713
  153.0775  135.4926  154.8435 H   0  0  0  0  0  0  0  0  0  0  0  0  # atno 10763 bound_to 10752
  154.7107  135.3019  154.9203 H   0  0  0  0  0  0  0  0  0  0  0  0  # atno 10764 bound_to 10752
  153.9897  135.6779  153.4806 H   0  0  0  0  0  0  0  0  0  0  0  0  # atno 10765 bound_to 10752
  140.0490  134.5765  155.9287 H   0  0  0  0  0  0  0  0  0  0  0  0  # atno 11005 bound_to 11000
  145.0255  139.3387  143.6051 LP  0  0  0  0  0  0  0  0  0  0  0  0  # atno 17320 bound_to 7965
  146.3472  139.9572  142.8721 LP  0  0  0  0  0  0  0  0  0  0  0  0  # atno 17321 bound_to 7965
  139.4827  144.4821  151.9293 LP  0  0  0  0  0  0  0  0  0  0  0  0  # atno 17342 bound_to 10162
  140.3906  144.2620  150.5900 LP  0  0  0  0  0  0  0  0  0  0  0  0  # atno 17343 bound_to 10162
  156.8240  130.4993  149.5339 LP  0  0  0  0  0  0  0  0  0  0  0  0  # atno 17370 bound_to 10713
  156.1060  130.6004  150.9971 LP  0  0  0  0  0  0  0  0  0  0  0  0  # atno 17371 bound_to 10713
  141.1921  133.6574  156.5486 LP  0  0  0  0  0  0  0  0  0  0  0  0  # atno 17394 bound_to 11000
  140.3948  134.7408  157.4744 LP  0  0  0  0  0  0  0  0  0  0  0  0  # atno 17395 bound_to 11000

$$$$
