AV-unprocessed.smi:1669|AV-procd|sdf|6687|dock3
  -GOLD-   22720 7413D 1   1.00000     0.00000
 Structure written by MMmdl.
 47 49  0  0  0  0  0  0  0  0  1 V2000
  147.1247  139.8322  154.6967 C   0  0  0  0  0  0  0  0  0  0  0  0
  147.6907  141.1667  154.8722 N   0  0  0  0  0  0  0  0  0  0  0  0
  147.2419  142.0721  153.8097 C   0  0  0  0  0  0  0  0  0  0  0  0
  146.1080  142.9917  154.2288 C   0  0  0  0  0  0  0  0  0  0  0  0
  145.6228  143.9683  153.3333 C   0  0  0  0  0  0  0  0  0  0  0  0
  144.5716  144.8224  153.7199 C   0  0  0  0  0  0  0  0  0  0  0  0
  143.9989  144.6998  155.0007 C   0  0  0  0  0  0  0  0  0  0  0  0
  144.4780  143.7232  155.8955 C   0  0  0  0  0  0  0  0  0  0  0  0
  145.5313  142.8705  155.5107 C   0  0  0  0  0  0  0  0  0  0  0  0
  149.1508  141.0846  154.9544 C   0  0  0  0  0  0  0  0  0  0  0  0
  149.7489  141.2518  156.3662 C   0  0  2  0  0  0  0  0  0  0  0  0
  149.2261  142.4405  156.9231 O   0  0  0  0  0  0  0  0  0  0  0  0
  151.2901  141.3221  156.3560 C   0  0  0  0  0  0  0  0  0  0  0  0
  151.8578  141.2263  157.6936 N   0  0  0  0  0  0  0  0  0  0  0  0
  152.3724  140.1391  158.3216 C   0  0  0  0  0  0  0  0  0  0  0  0
  152.4140  138.7931  157.6563 C   0  0  0  0  0  0  0  0  0  0  0  0
  153.1168  138.7838  156.4305 O   0  0  0  0  0  0  0  0  0  0  0  0
  152.8192  140.3488  159.5627 N   0  0  0  0  0  0  0  0  0  0  0  0
  152.5745  141.6947  159.7536 C   0  0  0  0  0  0  0  0  0  0  0  0
  152.8253  142.5263  160.8686 C   0  0  0  0  0  0  0  0  0  0  0  0
  152.4783  143.8929  160.8316 C   0  0  0  0  0  0  0  0  0  0  0  0
  151.8759  144.4464  159.6830 C   0  0  0  0  0  0  0  0  0  0  0  0
  151.6177  143.6354  158.5614 C   0  0  0  0  0  0  0  0  0  0  0  0
  151.9685  142.2727  158.6031 C   0  0  0  0  0  0  0  0  0  0  0  0
  147.4404  139.1687  155.5023 H   0  0  0  0  0  0  0  0  0  0  0  0
  147.4415  139.3914  153.7505 H   0  0  0  0  0  0  0  0  0  0  0  0
  146.0349  139.8586  154.7115 H   0  0  0  0  0  0  0  0  0  0  0  0
  148.0536  142.7258  153.4958 H   0  0  0  0  0  0  0  0  0  0  0  0
  146.9501  141.5010  152.9272 H   0  0  0  0  0  0  0  0  0  0  0  0
  146.0586  144.0647  152.3493 H   0  0  0  0  0  0  0  0  0  0  0  0
  144.2046  145.5712  153.0335 H   0  0  0  0  0  0  0  0  0  0  0  0
  143.1919  145.3538  155.2966 H   0  0  0  0  0  0  0  0  0  0  0  0
  144.0378  143.6281  156.8772 H   0  0  0  0  0  0  0  0  0  0  0  0
  145.8957  142.1256  156.2030 H   0  0  0  0  0  0  0  0  0  0  0  0
  149.4725  140.1140  154.5739 H   0  0  0  0  0  0  0  0  0  0  0  0
  149.5902  141.8260  154.2850 H   0  0  0  0  0  0  0  0  0  0  0  0
  149.4209  140.4409  157.0150 H   0  0  0  0  0  0  0  0  0  0  0  0
  149.0677  143.0565  156.2242 H   0  0  0  0  0  0  0  0  0  0  0  0
  151.6980  140.4974  155.7702 H   0  0  0  0  0  0  0  0  0  0  0  0
  151.6340  142.2341  155.8681 H   0  0  0  0  0  0  0  0  0  0  0  0
  152.8803  138.0776  158.3339 H   0  0  0  0  0  0  0  0  0  0  0  0
  151.3976  138.4495  157.4653 H   0  0  0  0  0  0  0  0  0  0  0  0
  153.2324  137.8849  156.1616 H   0  0  0  0  0  0  0  0  0  0  0  0
  153.2851  142.1120  161.7536 H   0  0  0  0  0  0  0  0  0  0  0  0
  152.6746  144.5196  161.6892 H   0  0  0  0  0  0  0  0  0  0  0  0
  151.6129  145.4937  159.6629 H   0  0  0  0  0  0  0  0  0  0  0  0
  151.1568  144.0555  157.6797 H   0  0  0  0  0  0  0  0  0  0  0  0
  1  2  1  0  0  0  0
  1 25  1  0  0  0  0
  1 26  1  0  0  0  0
  1 27  1  0  0  0  0
  2  3  1  0  0  0  0
  2 10  1  0  0  0  0
  3  4  1  0  0  0  0
  3 28  1  0  0  0  0
  3 29  1  0  0  0  0
  4  9  1  0  0  0  0
  4  5  2  0  0  0  0
  5  6  1  0  0  0  0
  5 30  1  0  0  0  0
  6  7  2  0  0  0  0
  6 31  1  0  0  0  0
  7  8  1  0  0  0  0
  7 32  1  0  0  0  0
  8  9  2  0  0  0  0
  8 33  1  0  0  0  0
  9 34  1  0  0  0  0
 10 11  1  0  0  0  0
 10 35  1  0  0  0  0
 10 36  1  0  0  0  0
 11 12  1  0  0  0  0
 11 13  1  0  0  0  0
 11 37  1  0  0  0  0
 12 38  1  0  0  0  0
 13 14  1  0  0  0  0
 13 39  1  0  0  0  0
 13 40  1  0  0  0  0
 14 24  1  0  0  0  0
 14 15  1  0  0  0  0
 15 16  1  0  0  0  0
 15 18  2  0  0  0  0
 16 17  1  0  0  0  0
 16 41  1  0  0  0  0
 16 42  1  0  0  0  0
 17 43  1  0  0  0  0
 18 19  1  0  0  0  0
 19 24  2  0  0  0  0
 19 20  1  0  0  0  0
 20 21  2  0  0  0  0
 20 44  1  0  0  0  0
 21 22  1  0  0  0  0
 21 45  1  0  0  0  0
 22 23  2  0  0  0  0
 22 46  1  0  0  0  0
 23 24  1  0  0  0  0
 23 47  1  0  0  0  0
M  END
> <s_m_source_file>
AV-unprocessed.smi

> <i_m_source_file_index>
1669

> <i_lp_mmshare_version>
43012

> <i_f3d_flags>
0

> <s_epik_input>
W2NIXTFbY0hdW2NIXVtjSF1bY0hdYzFbQ0gyXU4oW0NIM10pW0NIMl1bQ0BIXShbT0hdKVtDSDJdbihjKG4yKVtDSDJdW09IXSljKGMyMylbY0hdW2NIXVtjSF1bY0hdMw==

> <s_epik_cmdline>
J2VwaWtfcHl0aG9uJywgJy1waCcsICc3LjAnLCAnLXRuJywgJzgnLCAnLW1hJywgJzIwMCcsICctbWV0YWxfYmluZGluZycsICctaW1hZScsICc8aW5maWxlLm1hZT4nLCAnLW9tYWUnLCAnPG91dGZpbGUubWFlPic=

> <r_epik_Ionization_Penalty>
1.56301

> <r_epik_Ionization_Penalty_Charging>
0

> <r_epik_Ionization_Penalty_Neutral>
1.56301

> <r_epik_State_Penalty>
1.64771

> <r_epik_Charging_Adjusted_Penalty>
1.64771

> <i_epik_Tot_Q>
0

> <i_epik_Tot_abs_Q>
0

> <r_epik_Metal_State_Penalty>
1.61258

> <b_epik_Metal_Only>
0

> <s_lp_Force_Field>
OPLS_2005

> <r_lp_Energy>
20.891

> <b_lp_Chiralities_Consistent>
1

> <s_lp_Variant>
AV-unprocessed.smi:1669-5

> <Gold.Version>
5.8.1

> <Gold.Id.Protein>
6NUR|6NUR_protein|mol2

> <Gold.PLP.Fitness>
55.2495

> <Gold.PLP.PLP>
-52.2267

> <Gold.PLP.part.hbond>
-2.0000

> <Gold.PLP.part.metal>
0.0000

> <Gold.PLP.part.buried>
-9.1092

> <Gold.PLP.part.nonpolar>
-41.6786

> <Gold.PLP.part.repulsive>
0.1074

> <Gold.PLP.ligand.clash>
0.0000

> <Gold.PLP.ligand.torsion>
1.6720

> <Gold.PLP.Chemscore.Hbond>
1.9920

> <Gold.PLP.Chemscore.CHOScore>
0.0000

> <Gold.PLP.Chemscore.Metal>
0.0000

> <Gold.Chemscore.Hbonds>
donor molecule, donor type, donor heavy atom, donor atom, acceptor molecule, acceptor atom, score
      L1  H    12    38       P1  8028  1.00
      P1  H  7997  8009       L1    17  1.00

> <Gold.PLP.Chemscore.Internal.Correction>
0.3907

> <Gold.Rescore>
     Score         DG    S(hbond)    S(metal)    S(lipo)     H(rot)  DE(clash)    DE(int)     intcor
     18.00     -19.80       1.84        0.00     136.73       3.06       0.14       1.66       ----

> <Gold.Chemscore.Fitness>
17.9974

> <Gold.Chemscore.DG>
-19.7992

> <Gold.Chemscore.ZeroCoef>
-5.4800

> <Gold.Chemscore.Hbond>
1.8435

> <Gold.Chemscore.Metal>
0.0000

> <Gold.Chemscore.Lipo>
136.7335

> <Gold.Chemscore.Internal_Hbond>
0.0000

> <Gold.Chemscore.DEClash>
0.1388

> <Gold.Chemscore.DEInternal>
1.6629

> <Gold.Chemscore.Rot>
3.0609

> <Gold.Chemscore.Internal.Correction>
   9.000000E+99

> <Gold.Chemscore.Hbonds>
donor molecule, donor type, donor heavy atom, donor atom, acceptor molecule, acceptor atom, score
      L1  H    12    38       P1  8028  0.94
      P1  H  7997  8009       L1    17  0.84

> <Gold.Chemscore.Hbond.Weighted>
-6.1572

> <Gold.Chemscore.Metal.Weighted>
-0.0000

> <Gold.Chemscore.Lipo.Weighted>
-15.9978

> <Gold.Chemscore.Internal_Hbond.Weighted>
0.0000

> <Gold.Chemscore.DEClash.Weighted>
0.1388

> <Gold.Chemscore.DEInternal.Weighted>
1.6629

> <Gold.Chemscore.Rot.Weighted>
7.8358

> <Gold.Chemscore.Internal.Correction.Weighted>
   9.000000E+99

> <Gold.Protein.RotatedTorsions>
[ 6907 6896 6895 6894 ] final  -56.04 input  -60.11 | X-H torsion
[ 7974 7965 7964 7962 ] final  -32.04 input  175.53 | X-H torsion
[ 8008 7997 7996 7995 ] final -157.41 input   59.86 | X-H torsion
[ 10167 10162 10161 10158 ] final  -45.86 input  -65.29 | X-H torsion
[ 10718 10713 10712 10709 ] final -128.12 input   66.30 | X-H torsion
[ 10763 10752 10751 10750 ] final -115.89 input  -60.55 | X-H torsion
[ 11005 11000 10999 10996 ] final  -47.76 input  -57.11 | X-H torsion

> <Gold.Protein.ActiveResidues>
 VAL166  LYS551  ARG553  GLY616  TRP617  ASP618  TYR619  PRO620  LYS621  CYS622 
 ASP623  PHE694  ASN695  SER759  ASP760  ASP761  ALA762  ILE779  LEU786  VAL792 
 PHE793  MET794  SER795  GLU796  ALA797  LYS798  CYS799  TRP800  GLU811  SER814 

> <Gold.Protein.RotatedAtoms>
  150.8201  134.7404  159.6764 H   0  0  0  0  0  0  0  0  0  0  0  0  # atno 6907 bound_to 6896
  152.4317  134.5761  159.9944 H   0  0  0  0  0  0  0  0  0  0  0  0  # atno 6908 bound_to 6896
  151.5948  133.3325  159.3071 H   0  0  0  0  0  0  0  0  0  0  0  0  # atno 6909 bound_to 6896
  146.1021  140.5742  142.8816 H   0  0  0  0  0  0  0  0  0  0  0  0  # atno 7974 bound_to 7965
  155.7320  140.0803  157.2285 H   0  0  0  0  0  0  0  0  0  0  0  0  # atno 8008 bound_to 7997
  154.4032  140.1593  156.2574 H   0  0  0  0  0  0  0  0  0  0  0  0  # atno 8009 bound_to 7997
  155.9100  140.3404  155.6094 H   0  0  0  0  0  0  0  0  0  0  0  0  # atno 8010 bound_to 7997
  140.6841  143.2859  151.3699 H   0  0  0  0  0  0  0  0  0  0  0  0  # atno 10167 bound_to 10162
  156.1920  130.6802  151.0436 H   0  0  0  0  0  0  0  0  0  0  0  0  # atno 10718 bound_to 10713
  154.8499  135.4365  154.1734 H   0  0  0  0  0  0  0  0  0  0  0  0  # atno 10763 bound_to 10752
  153.2842  135.6956  153.7361 H   0  0  0  0  0  0  0  0  0  0  0  0  # atno 10764 bound_to 10752
  153.6554  135.3444  155.3086 H   0  0  0  0  0  0  0  0  0  0  0  0  # atno 10765 bound_to 10752
  141.0660  133.6693  156.3344 H   0  0  0  0  0  0  0  0  0  0  0  0  # atno 11005 bound_to 11000
  144.7441  140.5021  143.6848 LP  0  0  0  0  0  0  0  0  0  0  0  0  # atno 17320 bound_to 7965
  145.5834  139.1490  143.3223 LP  0  0  0  0  0  0  0  0  0  0  0  0  # atno 17321 bound_to 7965
  139.6185  144.0953  152.2369 LP  0  0  0  0  0  0  0  0  0  0  0  0  # atno 17342 bound_to 10162
  140.0390  144.6022  150.7426 LP  0  0  0  0  0  0  0  0  0  0  0  0  # atno 17343 bound_to 10162
  157.6935  131.0802  150.7038 LP  0  0  0  0  0  0  0  0  0  0  0  0  # atno 17370 bound_to 10713
  156.7095  130.4647  149.5551 LP  0  0  0  0  0  0  0  0  0  0  0  0  # atno 17371 bound_to 10713
  140.5771  134.5782  157.5471 LP  0  0  0  0  0  0  0  0  0  0  0  0  # atno 17394 bound_to 11000
  139.9477  134.7672  156.0522 LP  0  0  0  0  0  0  0  0  0  0  0  0  # atno 17395 bound_to 11000

$$$$
