AV-unprocessed.smi:1920|AV-procd|sdf|7780|dock7
  -GOLD-   22720 9523D 1   1.00000     0.00000
 Structure written by MMmdl.
 37 38  0  0  0  0  0  0  0  0  2 V2000
  147.4092  137.9825  154.4981 C   0  0  0  0  0  0  0  0  0  0  0  0
  146.5439  138.3295  153.2792 C   0  0  1  0  0  0  0  0  0  0  0  0
  147.0106  139.6445  152.6195 C   0  0  0  0  0  0  0  0  0  0  0  0
  147.1222  140.7553  153.5712 N   0  0  0  0  0  0  0  0  0  0  0  0
  146.1303  141.2691  154.3668 C   0  0  0  0  0  0  0  0  0  0  0  0
  146.6945  142.2932  155.0828 C   0  0  0  0  0  0  0  0  0  0  0  0
  148.0078  142.3554  154.7010 N   0  3  0  0  0  0  0  0  0  0  0  0
  148.2668  141.4175  153.7842 C   0  0  0  0  0  0  0  0  0  0  0  0
  146.5971  137.2186  152.3296 N   0  0  0  0  0  0  0  0  0  0  0  0
  145.5528  136.4755  151.9294 C   0  0  0  0  0  0  0  0  0  0  0  0
  144.4011  136.6598  152.3239 O   0  0  0  0  0  0  0  0  0  0  0  0
  145.8627  135.3594  150.9246 C   0  0  0  0  0  0  0  0  0  0  0  0
  145.5134  133.9387  151.4230 C   0  0  1  0  0  0  0  0  0  0  0  0
  144.0315  133.6944  151.5772 C   0  0  0  0  0  0  0  0  0  0  0  0
  143.6093  132.6331  150.8944 C   0  0  0  0  0  0  0  0  0  0  0  0
  144.7197  131.9526  150.1442 C   0  0  0  0  0  0  0  0  0  0  0  0
  145.9599  132.8259  150.4397 C   0  0  0  0  0  0  0  0  0  0  0  0
  147.3703  138.7757  155.2452 H   0  0  0  0  0  0  0  0  0  0  0  0
  148.4538  137.8409  154.2180 H   0  0  0  0  0  0  0  0  0  0  0  0
  147.0645  137.0651  154.9766 H   0  0  0  0  0  0  0  0  0  0  0  0
  145.5219  138.4591  153.6396 H   0  0  0  0  0  0  0  0  0  0  0  0
  147.9963  139.5122  152.1713 H   0  0  0  0  0  0  0  0  0  0  0  0
  146.3351  139.9374  151.8138 H   0  0  0  0  0  0  0  0  0  0  0  0
  145.1214  140.8826  154.3586 H   0  0  0  0  0  0  0  0  0  0  0  0
  146.2709  142.9634  155.8165 H   0  0  0  0  0  0  0  0  0  0  0  0
  149.2127  141.2379  153.3049 H   0  0  0  0  0  0  0  0  0  0  0  0
  147.5061  136.9880  151.9545 H   0  0  0  0  0  0  0  0  0  0  0  0
  145.3272  135.5589  149.9948 H   0  0  0  0  0  0  0  0  0  0  0  0
  146.9250  135.4101  150.6841 H   0  0  0  0  0  0  0  0  0  0  0  0
  145.9783  133.7656  152.3947 H   0  0  0  0  0  0  0  0  0  0  0  0
  143.4065  134.3171  152.1986 H   0  0  0  0  0  0  0  0  0  0  0  0
  142.5923  132.2700  150.8719 H   0  0  0  0  0  0  0  0  0  0  0  0
  144.8483  130.9329  150.5085 H   0  0  0  0  0  0  0  0  0  0  0  0
  144.4933  131.9167  149.0781 H   0  0  0  0  0  0  0  0  0  0  0  0
  146.3441  133.2500  149.5109 H   0  0  0  0  0  0  0  0  0  0  0  0
  146.7641  132.2275  150.8695 H   0  0  0  0  0  0  0  0  0  0  0  0
  148.6868  143.0158  155.0584 H   0  0  0  0  0  0  0  0  0  0  0  0
  1  2  1  0  0  0  0
  1 18  1  0  0  0  0
  1 19  1  0  0  0  0
  1 20  1  0  0  0  0
  2  3  1  0  0  0  0
  2  9  1  0  0  0  0
  2 21  1  0  0  0  0
  3  4  1  0  0  0  0
  3 22  1  0  0  0  0
  3 23  1  0  0  0  0
  4  8  1  0  0  0  0
  4  5  1  0  0  0  0
  5  6  2  0  0  0  0
  5 24  1  0  0  0  0
  6  7  1  0  0  0  0
  6 25  1  0  0  0  0
  7  8  2  0  0  0  0
  7 37  1  0  0  0  0
  8 26  1  0  0  0  0
  9 10  1  0  0  0  0
  9 27  1  0  0  0  0
 10 11  2  0  0  0  0
 10 12  1  0  0  0  0
 12 13  1  0  0  0  0
 12 28  1  0  0  0  0
 12 29  1  0  0  0  0
 13 17  1  0  0  0  0
 13 14  1  0  0  0  0
 13 30  1  0  0  0  0
 14 15  2  0  0  0  0
 14 31  1  0  0  0  0
 15 16  1  0  0  0  0
 15 32  1  0  0  0  0
 16 17  1  0  0  0  0
 16 33  1  0  0  0  0
 16 34  1  0  0  0  0
 17 35  1  0  0  0  0
 17 36  1  0  0  0  0
M  CHG  1   7   1
M  END
> <s_m_source_file>
AV-unprocessed.smi

> <i_m_source_file_index>
1920

> <i_lp_mmshare_version>
43012

> <i_f3d_flags>
0

> <s_epik_input>
W2NIXTFuW2NIXVtjSF1uMVtDSDJdW0NAQEhdKFtDSDNdKVtOSF1DKD1PKVtDSDJdW0NAQEhdMltDSF09W0NIXVtDSDJdW0NIMl0y

> <s_epik_cmdline>
J2VwaWtfcHl0aG9uJywgJy1waCcsICc3LjAnLCAnLXRuJywgJzgnLCAnLW1hJywgJzIwMCcsICctbWV0YWxfYmluZGluZycsICctaW1hZScsICc8aW5maWxlLm1hZT4nLCAnLW9tYWUnLCAnPG91dGZpbGUubWFlPic=

> <r_lp_tautomer_probability>
1

> <r_epik_Ionization_Penalty>
0.24816

> <r_epik_Ionization_Penalty_Charging>
0

> <r_epik_Ionization_Penalty_Neutral>
0.24816

> <r_epik_State_Penalty>
0.2394

> <r_epik_Charging_Adjusted_Penalty>
0.2394

> <i_epik_Tot_Q>
1

> <i_epik_Tot_abs_Q>
1

> <r_epik_Metal_State_Penalty>
0.531457

> <b_epik_Metal_Only>
0

> <s_lp_Force_Field>
OPLS_2005

> <r_lp_Energy>
19.5873

> <b_lp_Chiralities_Consistent>
1

> <s_lp_Variant>
AV-unprocessed.smi:1920-4

> <Gold.Version>
5.8.1

> <Gold.Id.Protein>
6NUR|6NUR_protein|mol2

> <Gold.PLP.Fitness>
47.1296

> <Gold.PLP.PLP>
-32.8188

> <Gold.PLP.part.hbond>
-2.0000

> <Gold.PLP.part.metal>
0.0000

> <Gold.PLP.part.buried>
-3.7252

> <Gold.PLP.part.nonpolar>
-28.6070

> <Gold.PLP.part.repulsive>
0.4026

> <Gold.PLP.ligand.clash>
0.0000

> <Gold.PLP.ligand.torsion>
0.0539

> <Gold.PLP.Chemscore.Hbond>
2.8560

> <Gold.PLP.Chemscore.CHOScore>
1.9412

> <Gold.PLP.Chemscore.Metal>
0.0000

> <Gold.Chemscore.Hbonds>
donor molecule, donor type, donor heavy atom, donor atom, acceptor molecule, acceptor atom, score
      L1  H     7    37       P1  8028  1.70
      L1  H     9    27       P1  7948  1.00
      L1  C     5    24       P1 10175  0.98
      L1  C     8    26       P1  7957  0.95

> <Gold.PLP.Chemscore.Internal.Correction>
0.0272

> <Gold.Rescore>
     Score         DG    S(hbond)    S(metal)    S(lipo)     H(rot)  DE(clash)    DE(int)     intcor
     15.04     -15.46       1.96        0.00      73.47       2.01       0.21       0.20       ----

> <Gold.Chemscore.Fitness>
15.0384

> <Gold.Chemscore.DG>
-15.4567

> <Gold.Chemscore.ZeroCoef>
-5.4800

> <Gold.Chemscore.Hbond>
1.9564

> <Gold.Chemscore.Metal>
0.0000

> <Gold.Chemscore.Lipo>
73.4677

> <Gold.Chemscore.Internal_Hbond>
0.0000

> <Gold.Chemscore.DEClash>
0.2150

> <Gold.Chemscore.DEInternal>
0.2034

> <Gold.Chemscore.Rot>
2.0130

> <Gold.Chemscore.Internal.Correction>
   9.000000E+99

> <Gold.Chemscore.Hbonds>
donor molecule, donor type, donor heavy atom, donor atom, acceptor molecule, acceptor atom, score
      L1  H     7    37       P1  8028  0.83
      L1  H     9    27       P1  7948  0.99

> <Gold.Chemscore.Hbond.Weighted>
-6.5342

> <Gold.Chemscore.Metal.Weighted>
-0.0000

> <Gold.Chemscore.Lipo.Weighted>
-8.5957

> <Gold.Chemscore.Internal_Hbond.Weighted>
0.0000

> <Gold.Chemscore.DEClash.Weighted>
0.2150

> <Gold.Chemscore.DEInternal.Weighted>
0.2034

> <Gold.Chemscore.Rot.Weighted>
5.1533

> <Gold.Chemscore.Internal.Correction.Weighted>
   9.000000E+99

> <Gold.Protein.RotatedTorsions>
[ 6907 6896 6895 6894 ] final  121.98 input  -60.11 | X-H torsion
[ 7974 7965 7964 7962 ] final -104.97 input  175.53 | X-H torsion
[ 8008 7997 7996 7995 ] final -141.63 input   59.86 | X-H torsion
[ 10167 10162 10161 10158 ] final  141.59 input  -65.29 | X-H torsion
[ 10718 10713 10712 10709 ] final  -97.35 input   66.30 | X-H torsion
[ 10763 10752 10751 10750 ] final   55.37 input  -60.55 | X-H torsion
[ 11005 11000 10999 10996 ] final    1.85 input  -57.11 | X-H torsion

> <Gold.Protein.ActiveResidues>
 VAL166  LYS551  ARG553  GLY616  TRP617  ASP618  TYR619  PRO620  LYS621  CYS622 
 ASP623  PHE694  ASN695  SER759  ASP760  ASP761  ALA762  ILE779  LEU786  VAL792 
 PHE793  MET794  SER795  GLU796  ALA797  LYS798  CYS799  TRP800  GLU811  SER814 

> <Gold.Protein.RotatedAtoms>
  152.4279  133.7227  159.6541 H   0  0  0  0  0  0  0  0  0  0  0  0  # atno 6907 bound_to 6896
  150.8156  133.8332  159.3168 H   0  0  0  0  0  0  0  0  0  0  0  0  # atno 6908 bound_to 6896
  151.6029  135.1048  160.0116 H   0  0  0  0  0  0  0  0  0  0  0  0  # atno 6909 bound_to 6896
  145.2364  140.9189  143.3175 H   0  0  0  0  0  0  0  0  0  0  0  0  # atno 7974 bound_to 7965
  155.4809  140.0560  157.2967 H   0  0  0  0  0  0  0  0  0  0  0  0  # atno 8008 bound_to 7997
  154.4661  140.2019  156.0068 H   0  0  0  0  0  0  0  0  0  0  0  0  # atno 8009 bound_to 7997
  156.0976  140.3224  155.7903 H   0  0  0  0  0  0  0  0  0  0  0  0  # atno 8010 bound_to 7997
  139.5016  144.6162  151.6158 H   0  0  0  0  0  0  0  0  0  0  0  0  # atno 10167 bound_to 10162
  156.0082  130.5191  150.6362 H   0  0  0  0  0  0  0  0  0  0  0  0  # atno 10718 bound_to 10713
  152.9816  135.5713  154.5056 H   0  0  0  0  0  0  0  0  0  0  0  0  # atno 10763 bound_to 10752
  154.4568  135.2780  155.1744 H   0  0  0  0  0  0  0  0  0  0  0  0  # atno 10764 bound_to 10752
  154.3348  135.6242  153.5622 H   0  0  0  0  0  0  0  0  0  0  0  0  # atno 10765 bound_to 10752
  140.6108  133.9750  155.8176 H   0  0  0  0  0  0  0  0  0  0  0  0  # atno 11005 bound_to 11000
  144.9629  139.3961  143.6347 LP  0  0  0  0  0  0  0  0  0  0  0  0  # atno 17320 bound_to 7965
  146.3340  139.8690  142.8843 LP  0  0  0  0  0  0  0  0  0  0  0  0  # atno 17321 bound_to 7965
  140.5850  143.9879  150.6290 LP  0  0  0  0  0  0  0  0  0  0  0  0  # atno 17342 bound_to 10162
  140.3041  143.3241  152.0943 LP  0  0  0  0  0  0  0  0  0  0  0  0  # atno 17343 bound_to 10162
  157.4151  131.0829  151.1184 LP  0  0  0  0  0  0  0  0  0  0  0  0  # atno 17370 bound_to 10713
  157.1804  130.6307  149.5670 LP  0  0  0  0  0  0  0  0  0  0  0  0  # atno 17371 bound_to 10713
  141.0809  134.0064  157.3387 LP  0  0  0  0  0  0  0  0  0  0  0  0  # atno 17394 bound_to 11000
  139.9193  135.0199  156.8002 LP  0  0  0  0  0  0  0  0  0  0  0  0  # atno 17395 bound_to 11000

$$$$
