AV-unprocessed.smi:3076|AV-procd|sdf|11725|dock8
  -GOLD-   2272017123D 1   1.00000     0.00000
 Structure written by MMmdl.
 21 21  0  0  0  0  0  0  0  0  2 V2000
  148.4473  138.5589  153.1586 N   0  3  0  0  0  0  0  0  0  0  0  0
  148.9416  138.9076  154.5020 C   0  0  0  0  0  0  0  0  0  0  0  0
  149.4315  140.3653  154.5683 C   0  0  2  0  0  0  0  0  0  0  0  0
  150.0782  140.6834  153.3511 O   0  0  0  0  0  0  0  0  0  0  0  0
  150.3418  140.5848  155.7661 C   0  0  0  0  0  0  0  0  0  0  0  0
  149.9738  141.4450  156.8240 C   0  0  0  0  0  0  0  0  0  0  0  0
  150.8628  141.6182  157.9021 C   0  0  0  0  0  0  0  0  0  0  0  0
  152.0886  140.9240  157.8790 C   0  0  0  0  0  0  0  0  0  0  0  0
  152.4540  140.1008  156.8731 N   0  0  0  0  0  0  0  0  0  0  0  0
  151.5958  139.9397  155.8434 C   0  0  0  0  0  0  0  0  0  0  0  0
  148.8174  139.2102  152.4812 H   0  0  0  0  0  0  0  0  0  0  0  0
  147.4380  138.6051  153.1555 H   0  0  0  0  0  0  0  0  0  0  0  0
  148.1265  138.7536  155.2100 H   0  0  0  0  0  0  0  0  0  0  0  0
  149.7392  138.2166  154.7786 H   0  0  0  0  0  0  0  0  0  0  0  0
  148.5718  141.0304  154.6631 H   0  0  0  0  0  0  0  0  0  0  0  0
  149.9245  139.9819  152.7357 H   0  0  0  0  0  0  0  0  0  0  0  0
  149.0278  141.9668  156.8115 H   0  0  0  0  0  0  0  0  0  0  0  0
  150.6121  142.2683  158.7274 H   0  0  0  0  0  0  0  0  0  0  0  0
  152.7946  141.0345  158.6888 H   0  0  0  0  0  0  0  0  0  0  0  0
  151.9232  139.2768  155.0556 H   0  0  0  0  0  0  0  0  0  0  0  0
  148.7409  137.6218  152.9230 H   0  0  0  0  0  0  0  0  0  0  0  0
  1  2  1  0  0  0  0
  1 11  1  0  0  0  0
  1 12  1  0  0  0  0
  1 21  1  0  0  0  0
  2  3  1  0  0  0  0
  2 13  1  0  0  0  0
  2 14  1  0  0  0  0
  3  4  1  0  0  0  0
  3  5  1  0  0  0  0
  3 15  1  0  0  0  0
  4 16  1  0  0  0  0
  5 10  1  0  0  0  0
  5  6  2  0  0  0  0
  6  7  1  0  0  0  0
  6 17  1  0  0  0  0
  7  8  2  0  0  0  0
  7 18  1  0  0  0  0
  8  9  1  0  0  0  0
  8 19  1  0  0  0  0
  9 10  2  0  0  0  0
 10 20  1  0  0  0  0
M  CHG  1   1   1
M  END
> <s_m_source_file>
AV-unprocessed.smi

> <i_m_source_file_index>
3076

> <i_lp_mmshare_version>
43012

> <i_f3d_flags>
0

> <s_epik_input>
W05IMl1bQ0gyXVtDQEhdKFtPSF0pYzFbY0hdW2NIXVtjSF1uW2NIXTE=

> <s_epik_cmdline>
J2VwaWtfcHl0aG9uJywgJy1waCcsICc3LjAnLCAnLXRuJywgJzgnLCAnLW1hJywgJzIwMCcsICctbWV0YWxfYmluZGluZycsICctaW1hZScsICc8aW5maWxlLm1hZT4nLCAnLW9tYWUnLCAnPG91dGZpbGUubWFlPic=

> <r_epik_Ionization_Penalty>
0.0145342

> <r_epik_Ionization_Penalty_Charging>
0.0140431

> <r_epik_Ionization_Penalty_Neutral>
0.000491123

> <r_epik_State_Penalty>
0.0109628

> <r_epik_Charging_Adjusted_Penalty>
0.0250059

> <i_epik_Tot_Q>
1

> <i_epik_Tot_abs_Q>
1

> <r_epik_Metal_State_Penalty>
0.0109916

> <b_epik_Metal_Only>
0

> <s_lp_Force_Field>
OPLS_2005

> <r_lp_Energy>
5.00299

> <b_lp_Chiralities_Consistent>
1

> <s_lp_Variant>
AV-unprocessed.smi:3076-1

> <Gold.Version>
5.8.1

> <Gold.Id.Protein>
6NUR|6NUR_protein|mol2

> <Gold.PLP.Fitness>
37.7416

> <Gold.PLP.PLP>
-19.9467

> <Gold.PLP.part.hbond>
-5.2233

> <Gold.PLP.part.metal>
0.0000

> <Gold.PLP.part.buried>
-1.3780

> <Gold.PLP.part.nonpolar>
-12.7661

> <Gold.PLP.part.repulsive>
0.0512

> <Gold.PLP.ligand.clash>
0.0000

> <Gold.PLP.ligand.torsion>
0.2381

> <Gold.PLP.Chemscore.Hbond>
6.0880

> <Gold.PLP.Chemscore.CHOScore>
0.0000

> <Gold.PLP.Chemscore.Metal>
0.0000

> <Gold.Chemscore.Hbonds>
donor molecule, donor type, donor heavy atom, donor atom, acceptor molecule, acceptor atom, score
      L1  H     1    11       P1  7957  1.00
      L1  H     1    21       P1  7948  2.00
      L1  H     4    16       P1  7957  0.59
      P1  H  7989  7998       L1     4  0.34
      P1  H  7997  8008       L1     9  1.00
      P1  H  8011  8017       L1     4  1.00

> <Gold.PLP.Chemscore.Internal.Correction>
0.0070

> <Gold.Rescore>
     Score         DG    S(hbond)    S(metal)    S(lipo)     H(rot)  DE(clash)    DE(int)     intcor
     19.01     -19.39       4.16        0.00      41.81       1.90       0.16       0.22       ----

> <Gold.Chemscore.Fitness>
19.0086

> <Gold.Chemscore.DG>
-19.3912

> <Gold.Chemscore.ZeroCoef>
-5.4800

> <Gold.Chemscore.Hbond>
4.1552

> <Gold.Chemscore.Metal>
0.0000

> <Gold.Chemscore.Lipo>
41.8113

> <Gold.Chemscore.Internal_Hbond>
0.0000

> <Gold.Chemscore.DEClash>
0.1587

> <Gold.Chemscore.DEInternal>
0.2239

> <Gold.Chemscore.Rot>
1.8981

> <Gold.Chemscore.Internal.Correction>
   9.000000E+99

> <Gold.Chemscore.Hbonds>
donor molecule, donor type, donor heavy atom, donor atom, acceptor molecule, acceptor atom, score
      L1  H     1    11       P1  7957  1.00
      L1  H     1    21       P1  7948  0.98
      L1  H     4    16       P1  7957  0.59
      P1  H  7989  7998       L1     4  0.19
      P1  H  7997  8008       L1     9  0.82
      P1  H  8011  8017       L1     4  0.51

> <Gold.Chemscore.Hbond.Weighted>
-13.8784

> <Gold.Chemscore.Metal.Weighted>
-0.0000

> <Gold.Chemscore.Lipo.Weighted>
-4.8919

> <Gold.Chemscore.Internal_Hbond.Weighted>
0.0000

> <Gold.Chemscore.DEClash.Weighted>
0.1587

> <Gold.Chemscore.DEInternal.Weighted>
0.2239

> <Gold.Chemscore.Rot.Weighted>
4.8592

> <Gold.Chemscore.Internal.Correction.Weighted>
   9.000000E+99

> <Gold.Protein.RotatedTorsions>
[ 6907 6896 6895 6894 ] final  161.31 input  -60.11 | X-H torsion
[ 7974 7965 7964 7962 ] final  -43.86 input  175.53 | X-H torsion
[ 8008 7997 7996 7995 ] final  -55.30 input   59.86 | X-H torsion
[ 10167 10162 10161 10158 ] final  167.18 input  -65.29 | X-H torsion
[ 10718 10713 10712 10709 ] final  129.93 input   66.30 | X-H torsion
[ 10763 10752 10751 10750 ] final  141.13 input  -60.55 | X-H torsion
[ 11005 11000 10999 10996 ] final -137.23 input  -57.11 | X-H torsion

> <Gold.Protein.ActiveResidues>
 VAL166  LYS551  ARG553  GLY616  TRP617  ASP618  TYR619  PRO620  LYS621  CYS622 
 ASP623  PHE694  ASN695  SER759  ASP760  ASP761  ALA762  ILE779  LEU786  VAL792 
 PHE793  MET794  SER795  GLU796  ALA797  LYS798  CYS799  TRP800  GLU811  SER814 

> <Gold.Protein.RotatedAtoms>
  151.9574  133.3685  159.4022 H   0  0  0  0  0  0  0  0  0  0  0  0  # atno 6907 bound_to 6896
  150.6970  134.4276  159.5243 H   0  0  0  0  0  0  0  0  0  0  0  0  # atno 6908 bound_to 6896
  152.1959  134.8631  160.0563 H   0  0  0  0  0  0  0  0  0  0  0  0  # atno 6909 bound_to 6896
  145.9977  140.7109  142.9285 H   0  0  0  0  0  0  0  0  0  0  0  0  # atno 7974 bound_to 7965
  154.4190  140.1156  156.5455 H   0  0  0  0  0  0  0  0  0  0  0  0  # atno 8008 bound_to 7997
  155.6464  140.3496  155.4713 H   0  0  0  0  0  0  0  0  0  0  0  0  # atno 8009 bound_to 7997
  155.9829  140.1164  157.0700 H   0  0  0  0  0  0  0  0  0  0  0  0  # atno 8010 bound_to 7997
  139.4940  144.3948  151.9476 H   0  0  0  0  0  0  0  0  0  0  0  0  # atno 10167 bound_to 10162
  157.5109  131.1096  150.9295 H   0  0  0  0  0  0  0  0  0  0  0  0  # atno 10718 bound_to 10713
  153.9341  135.2987  155.3445 H   0  0  0  0  0  0  0  0  0  0  0  0  # atno 10763 bound_to 10752
  154.7511  135.4979  153.9294 H   0  0  0  0  0  0  0  0  0  0  0  0  # atno 10764 bound_to 10752
  153.1076  135.6751  153.9663 H   0  0  0  0  0  0  0  0  0  0  0  0  # atno 10765 bound_to 10752
  140.8731  134.2026  157.4639 H   0  0  0  0  0  0  0  0  0  0  0  0  # atno 11005 bound_to 11000
  144.6909  140.3180  143.7237 LP  0  0  0  0  0  0  0  0  0  0  0  0  # atno 17320 bound_to 7965
  145.7534  139.1801  143.2308 LP  0  0  0  0  0  0  0  0  0  0  0  0  # atno 17321 bound_to 7965
  140.3386  144.3230  150.5972 LP  0  0  0  0  0  0  0  0  0  0  0  0  # atno 17342 bound_to 10162
  140.5584  143.2195  151.7807 LP  0  0  0  0  0  0  0  0  0  0  0  0  # atno 17343 bound_to 10162
  156.9935  130.5572  149.5305 LP  0  0  0  0  0  0  0  0  0  0  0  0  # atno 17370 bound_to 10713
  156.0288  130.5381  150.8479 LP  0  0  0  0  0  0  0  0  0  0  0  0  # atno 17371 bound_to 10713
  139.8713  134.9783  156.4993 LP  0  0  0  0  0  0  0  0  0  0  0  0  # atno 17394 bound_to 11000
  140.8550  133.8103  155.9207 LP  0  0  0  0  0  0  0  0  0  0  0  0  # atno 17395 bound_to 11000

$$$$
