AV-unprocessed.smi:2639|AV-procd|sdf|10264|dock6
  -GOLD-   2272014273D 1   1.00000     0.00000
 Structure written by MMmdl.
 43 44  0  0  0  0  0  0  0  0  1 V2000
  145.2549  136.5749  155.1265 C   0  0  0  0  0  0  0  0  0  0  0  0
  145.6640  136.7114  153.6376 C   0  0  1  0  0  0  0  0  0  0  0  0
  144.8926  137.9165  153.0221 C   0  0  0  0  0  0  0  0  0  0  0  0
  145.4432  138.3350  151.7891 O   0  0  0  0  0  0  0  0  0  0  0  0
  147.1116  136.9581  153.5406 N   0  0  0  0  0  0  0  0  0  0  0  0
  147.8640  137.8492  154.2085 C   0  0  0  0  0  0  0  0  0  0  0  0
  147.4234  138.6262  155.0546 O   0  0  0  0  0  0  0  0  0  0  0  0
  149.1535  137.7580  153.8388 N   0  0  0  0  0  0  0  0  0  0  0  0
  150.2609  138.5352  154.2755 C   0  0  0  0  0  0  0  0  0  0  0  0
  151.5552  138.0387  154.0160 C   0  0  0  0  0  0  0  0  0  0  0  0
  152.6693  138.7993  154.4237 C   0  0  0  0  0  0  0  0  0  0  0  0
  152.5650  139.9924  155.0459 N   0  0  0  0  0  0  0  0  0  0  0  0
  151.3257  140.4736  155.2798 C   0  0  0  0  0  0  0  0  0  0  0  0
  150.1467  139.7936  154.9141 C   0  0  0  0  0  0  0  0  0  0  0  0
  145.3637  135.3776  152.8648 C   0  0  0  0  0  0  0  0  0  0  0  0
  145.8858  135.3760  151.4020 C   0  0  0  0  0  0  0  0  0  0  0  0
  145.6258  134.0381  150.6910 C   0  0  0  0  0  0  0  0  0  0  0  0
  144.1361  133.6747  150.7114 C   0  0  0  0  0  0  0  0  0  0  0  0
  143.6057  133.6502  152.1499 C   0  0  0  0  0  0  0  0  0  0  0  0
  143.8606  134.9874  152.8636 C   0  0  0  0  0  0  0  0  0  0  0  0
  144.2368  136.1965  155.2232 H   0  0  0  0  0  0  0  0  0  0  0  0
  145.2867  137.5321  155.6469 H   0  0  0  0  0  0  0  0  0  0  0  0
  145.9121  135.9002  155.6744 H   0  0  0  0  0  0  0  0  0  0  0  0
  143.8479  137.6647  152.8408 H   0  0  0  0  0  0  0  0  0  0  0  0
  144.8799  138.7677  153.7029 H   0  0  0  0  0  0  0  0  0  0  0  0
  144.8448  138.0972  151.0975 H   0  0  0  0  0  0  0  0  0  0  0  0
  147.5970  136.3712  152.8782 H   0  0  0  0  0  0  0  0  0  0  0  0
  149.3782  137.0111  153.1981 H   0  0  0  0  0  0  0  0  0  0  0  0
  151.6969  137.0903  153.5184 H   0  0  0  0  0  0  0  0  0  0  0  0
  153.6716  138.4401  154.2429 H   0  0  0  0  0  0  0  0  0  0  0  0
  151.2704  141.4352  155.7685 H   0  0  0  0  0  0  0  0  0  0  0  0
  149.1919  140.2533  155.1172 H   0  0  0  0  0  0  0  0  0  0  0  0
  145.8969  134.5763  153.3783 H   0  0  0  0  0  0  0  0  0  0  0  0
  145.4171  136.1776  150.8304 H   0  0  0  0  0  0  0  0  0  0  0  0
  146.9580  135.5646  151.3736 H   0  0  0  0  0  0  0  0  0  0  0  0
  145.9796  134.0912  149.6610 H   0  0  0  0  0  0  0  0  0  0  0  0
  146.2022  133.2487  151.1753 H   0  0  0  0  0  0  0  0  0  0  0  0
  143.5718  134.3993  150.1231 H   0  0  0  0  0  0  0  0  0  0  0  0
  143.9822  132.7035  150.2403 H   0  0  0  0  0  0  0  0  0  0  0  0
  142.5379  133.4293  152.1472 H   0  0  0  0  0  0  0  0  0  0  0  0
  144.0867  132.8431  152.7042 H   0  0  0  0  0  0  0  0  0  0  0  0
  143.4830  134.8975  153.8811 H   0  0  0  0  0  0  0  0  0  0  0  0
  143.2680  135.7669  152.3836 H   0  0  0  0  0  0  0  0  0  0  0  0
  1  2  1  0  0  0  0
  1 21  1  0  0  0  0
  1 22  1  0  0  0  0
  1 23  1  0  0  0  0
  2  3  1  0  0  0  0
  2  5  1  0  0  0  0
  2 15  1  0  0  0  0
  3  4  1  0  0  0  0
  3 24  1  0  0  0  0
  3 25  1  0  0  0  0
  4 26  1  0  0  0  0
  5  6  1  0  0  0  0
  5 27  1  0  0  0  0
  6  7  2  0  0  0  0
  6  8  1  0  0  0  0
  8  9  1  0  0  0  0
  8 28  1  0  0  0  0
  9 14  1  0  0  0  0
  9 10  2  0  0  0  0
 10 11  1  0  0  0  0
 10 29  1  0  0  0  0
 11 12  2  0  0  0  0
 11 30  1  0  0  0  0
 12 13  1  0  0  0  0
 13 14  2  0  0  0  0
 13 31  1  0  0  0  0
 14 32  1  0  0  0  0
 15 20  1  0  0  0  0
 15 16  1  0  0  0  0
 15 33  1  0  0  0  0
 16 17  1  0  0  0  0
 16 34  1  0  0  0  0
 16 35  1  0  0  0  0
 17 18  1  0  0  0  0
 17 36  1  0  0  0  0
 17 37  1  0  0  0  0
 18 19  1  0  0  0  0
 18 38  1  0  0  0  0
 18 39  1  0  0  0  0
 19 20  1  0  0  0  0
 19 40  1  0  0  0  0
 19 41  1  0  0  0  0
 20 42  1  0  0  0  0
 20 43  1  0  0  0  0
M  END
> <s_m_source_file>
AV-unprocessed.smi

> <i_m_source_file_index>
2639

> <i_lp_mmshare_version>
43012

> <i_f3d_flags>
0

> <s_epik_input>
W0NIMl0xW0NIMl1bQ0gyXVtDSDJdW0NIMl1bQ0hdMVtDQF0oW0NIM10pKFtDSDJdW09IXSlbTkhdQyg9TylbTkhdYzJbY0hdW2NIXW5bY0hdW2NIXTI=

> <s_epik_cmdline>
J2VwaWtfcHl0aG9uJywgJy1waCcsICc3LjAnLCAnLXRuJywgJzgnLCAnLW1hJywgJzIwMCcsICctbWV0YWxfYmluZGluZycsICctaW1hZScsICc8aW5maWxlLm1hZT4nLCAnLW9tYWUnLCAnPG91dGZpbGUubWFlPic=

> <r_epik_Ionization_Penalty>
0.119032

> <r_epik_Ionization_Penalty_Charging>
0

> <r_epik_Ionization_Penalty_Neutral>
0.119032

> <r_epik_State_Penalty>
0.108564

> <r_epik_Charging_Adjusted_Penalty>
0.108564

> <i_epik_Tot_Q>
0

> <i_epik_Tot_abs_Q>
0

> <r_epik_Metal_State_Penalty>
0.0902516

> <b_epik_Metal_Only>
0

> <s_lp_Force_Field>
OPLS_2005

> <r_lp_Energy>
25.5212

> <b_lp_Chiralities_Consistent>
1

> <s_lp_Variant>
AV-unprocessed.smi:2639-1

> <Gold.Version>
5.8.1

> <Gold.Id.Protein>
6NUR|6NUR_protein|mol2

> <Gold.PLP.Fitness>
41.8905

> <Gold.PLP.PLP>
-30.9885

> <Gold.PLP.part.hbond>
-6.0000

> <Gold.PLP.part.metal>
0.0000

> <Gold.PLP.part.buried>
1.0750

> <Gold.PLP.part.nonpolar>
-25.2631

> <Gold.PLP.part.repulsive>
0.0360

> <Gold.PLP.ligand.clash>
0.0000

> <Gold.PLP.ligand.torsion>
0.4150

> <Gold.PLP.Chemscore.Hbond>
3.8953

> <Gold.PLP.Chemscore.CHOScore>
0.0000

> <Gold.PLP.Chemscore.Metal>
0.0000

> <Gold.Chemscore.Hbonds>
donor molecule, donor type, donor heavy atom, donor atom, acceptor molecule, acceptor atom, score
      L1  H     4    26       P1 10171  0.96
      L1  H     5    27       P1  7948  0.91
      L1  H     8    28       P1  7948  0.94
      P1  H  7997  8008       L1    12  0.84

> <Gold.PLP.Chemscore.Internal.Correction>
0.0463

> <Gold.Rescore>
     Score         DG    S(hbond)    S(metal)    S(lipo)     H(rot)  DE(clash)    DE(int)     intcor
     17.79     -21.36       3.71        0.00      73.15       1.98       0.61       2.96       ----

> <Gold.Chemscore.Fitness>
17.7854

> <Gold.Chemscore.DG>
-21.3621

> <Gold.Chemscore.ZeroCoef>
-5.4800

> <Gold.Chemscore.Hbond>
3.7100

> <Gold.Chemscore.Metal>
0.0000

> <Gold.Chemscore.Lipo>
73.1533

> <Gold.Chemscore.Internal_Hbond>
0.0000

> <Gold.Chemscore.DEClash>
0.6123

> <Gold.Chemscore.DEInternal>
2.9644

> <Gold.Chemscore.Rot>
1.9798

> <Gold.Chemscore.Internal.Correction>
   9.000000E+99

> <Gold.Chemscore.Hbonds>
donor molecule, donor type, donor heavy atom, donor atom, acceptor molecule, acceptor atom, score
      L1  H     4    26       P1 10171  0.92
      L1  H     5    27       P1  7948  0.90
      L1  H     8    28       P1  7948  0.82
      P1  H  7997  8008       L1    12  0.37

> <Gold.Chemscore.Hbond.Weighted>
-12.3913

> <Gold.Chemscore.Metal.Weighted>
-0.0000

> <Gold.Chemscore.Lipo.Weighted>
-8.5589

> <Gold.Chemscore.Internal_Hbond.Weighted>
0.0000

> <Gold.Chemscore.DEClash.Weighted>
0.6123

> <Gold.Chemscore.DEInternal.Weighted>
2.9644

> <Gold.Chemscore.Rot.Weighted>
5.0682

> <Gold.Chemscore.Internal.Correction.Weighted>
   9.000000E+99

> <Gold.Protein.RotatedTorsions>
[ 6907 6896 6895 6894 ] final   12.18 input  -60.11 | X-H torsion
[ 7974 7965 7964 7962 ] final  116.71 input  175.53 | X-H torsion
[ 8008 7997 7996 7995 ] final  -29.40 input   59.86 | X-H torsion
[ 10167 10162 10161 10158 ] final -164.08 input  -65.29 | X-H torsion
[ 10718 10713 10712 10709 ] final  104.61 input   66.30 | X-H torsion
[ 10763 10752 10751 10750 ] final  149.39 input  -60.55 | X-H torsion
[ 11005 11000 10999 10996 ] final  -64.21 input  -57.11 | X-H torsion

> <Gold.Protein.ActiveResidues>
 VAL166  LYS551  ARG553  GLY616  TRP617  ASP618  TYR619  PRO620  LYS621  CYS622 
 ASP623  PHE694  ASN695  SER759  ASP760  ASP761  ALA762  ILE779  LEU786  VAL792 
 PHE793  MET794  SER795  GLU796  ALA797  LYS798  CYS799  TRP800  GLU811  SER814 

> <Gold.Protein.RotatedAtoms>
  151.7663  135.0797  160.0352 H   0  0  0  0  0  0  0  0  0  0  0  0  # atno 6907 bound_to 6896
  152.3319  133.5964  159.5824 H   0  0  0  0  0  0  0  0  0  0  0  0  # atno 6908 bound_to 6896
  150.7428  133.9771  159.3606 H   0  0  0  0  0  0  0  0  0  0  0  0  # atno 6909 bound_to 6896
  145.1763  139.3074  143.4441 H   0  0  0  0  0  0  0  0  0  0  0  0  # atno 7974 bound_to 7965
  154.4291  140.1819  156.1242 H   0  0  0  0  0  0  0  0  0  0  0  0  # atno 8008 bound_to 7997
  156.0119  140.3349  155.6924 H   0  0  0  0  0  0  0  0  0  0  0  0  # atno 8009 bound_to 7997
  155.6098  140.0649  157.2700 H   0  0  0  0  0  0  0  0  0  0  0  0  # atno 8010 bound_to 7997
  139.6276  144.0503  152.1988 H   0  0  0  0  0  0  0  0  0  0  0  0  # atno 10167 bound_to 10162
  157.6734  131.0808  150.5732 H   0  0  0  0  0  0  0  0  0  0  0  0  # atno 10718 bound_to 10713
  154.0703  135.2867  155.3309 H   0  0  0  0  0  0  0  0  0  0  0  0  # atno 10763 bound_to 10752
  154.6751  135.5285  153.8192 H   0  0  0  0  0  0  0  0  0  0  0  0  # atno 10764 bound_to 10752
  153.0488  135.6567  154.0885 H   0  0  0  0  0  0  0  0  0  0  0  0  # atno 10765 bound_to 10752
  141.1417  133.6662  156.5798 H   0  0  0  0  0  0  0  0  0  0  0  0  # atno 11005 bound_to 11000
  146.3460  140.1927  142.8589 LP  0  0  0  0  0  0  0  0  0  0  0  0  # atno 17320 bound_to 7965
  145.0181  140.8771  143.5183 LP  0  0  0  0  0  0  0  0  0  0  0  0  # atno 17321 bound_to 7965
  140.0160  144.6188  150.7607 LP  0  0  0  0  0  0  0  0  0  0  0  0  # atno 17342 bound_to 10162
  140.7420  143.2826  151.3556 LP  0  0  0  0  0  0  0  0  0  0  0  0  # atno 17343 bound_to 10162
  156.6034  130.4360  149.5888 LP  0  0  0  0  0  0  0  0  0  0  0  0  # atno 17370 bound_to 10713
  156.2488  130.6895  151.1625 LP  0  0  0  0  0  0  0  0  0  0  0  0  # atno 17371 bound_to 10713
  140.3847  134.7493  157.4684 LP  0  0  0  0  0  0  0  0  0  0  0  0  # atno 17394 bound_to 11000
  140.0611  134.5994  155.8748 LP  0  0  0  0  0  0  0  0  0  0  0  0  # atno 17395 bound_to 11000

$$$$
