AV-unprocessed.smi:2186|AV-procd|sdf|8877|dock1
  -GOLD-   2272012 73D 1   1.00000     0.00000
 Structure written by MMmdl.
 44 45  0  0  0  0  0  0  0  0  2 V2000
  150.6226  140.7840  159.1118 C   0  0  0  0  0  0  0  0  0  0  0  0
  150.9773  141.6378  157.8860 C   0  0  0  0  0  0  0  0  0  0  0  0
  150.3796  143.0519  157.9426 C   0  0  0  0  0  0  0  0  0  0  0  0
  150.6467  140.9456  156.6017 C   0  0  0  0  0  0  0  0  0  0  0  0
  151.1456  139.7562  156.2546 N   0  0  0  0  0  0  0  0  0  0  0  0
  150.6513  139.2937  155.0293 C   0  0  0  0  0  0  0  0  0  0  0  0
  151.0683  137.9473  154.5017 C   0  0  0  0  0  0  0  0  0  0  0  0
  150.4798  136.8210  155.3579 C   0  0  0  0  0  0  0  0  0  0  0  0
  150.9858  136.5447  156.4454 O   0  0  0  0  0  0  0  0  0  0  0  0
  149.3944  136.1974  154.8717 N   0  0  0  0  0  0  0  0  0  0  0  0
  148.5927  135.2271  155.6052 C   0  0  0  0  0  0  0  0  0  0  0  0
  148.3198  133.9828  154.7375 C   0  0  0  0  0  0  0  0  0  0  0  0
  147.6229  134.3077  153.4686 N   0  3  0  0  0  0  0  0  0  0  0  0
  147.4544  133.1158  152.6028 C   0  0  0  0  0  0  0  0  0  0  0  0
  146.7735  133.5011  151.2790 C   0  0  0  0  0  0  0  0  0  0  0  0
  145.5201  134.1144  151.5516 O   0  0  0  0  0  0  0  0  0  0  0  0
  145.6681  135.3107  152.3057 C   0  0  0  0  0  0  0  0  0  0  0  0
  146.3208  134.9936  153.6626 C   0  0  0  0  0  0  0  0  0  0  0  0
  149.7854  140.1769  154.4331 C   0  0  0  0  0  0  0  0  0  0  0  0
  149.5424  141.6055  155.4010 S   0  0  0  0  0  0  0  0  0  0  0  0
  151.1258  139.8172  159.0748 H   0  0  0  0  0  0  0  0  0  0  0  0
  149.5496  140.5989  159.1699 H   0  0  0  0  0  0  0  0  0  0  0  0
  150.9246  141.2783  160.0354 H   0  0  0  0  0  0  0  0  0  0  0  0
  152.0610  141.7603  157.8993 H   0  0  0  0  0  0  0  0  0  0  0  0
  150.7190  143.6552  157.1000 H   0  0  0  0  0  0  0  0  0  0  0  0
  150.6733  143.5662  158.8578 H   0  0  0  0  0  0  0  0  0  0  0  0
  149.2896  143.0233  157.9133 H   0  0  0  0  0  0  0  0  0  0  0  0
  150.7364  137.8133  153.4715 H   0  0  0  0  0  0  0  0  0  0  0  0
  152.1560  137.8657  154.4896 H   0  0  0  0  0  0  0  0  0  0  0  0
  149.0535  136.4809  153.9642 H   0  0  0  0  0  0  0  0  0  0  0  0
  149.1483  134.9619  156.5038 H   0  0  0  0  0  0  0  0  0  0  0  0
  147.6572  135.6807  155.9370 H   0  0  0  0  0  0  0  0  0  0  0  0
  149.2753  133.5132  154.4983 H   0  0  0  0  0  0  0  0  0  0  0  0
  147.7461  133.2410  155.2959 H   0  0  0  0  0  0  0  0  0  0  0  0
  148.4263  132.6659  152.3962 H   0  0  0  0  0  0  0  0  0  0  0  0
  146.8578  132.3657  153.1245 H   0  0  0  0  0  0  0  0  0  0  0  0
  147.4044  134.1743  150.6960 H   0  0  0  0  0  0  0  0  0  0  0  0
  146.6072  132.6129  150.6692 H   0  0  0  0  0  0  0  0  0  0  0  0
  146.2611  136.0365  151.7469 H   0  0  0  0  0  0  0  0  0  0  0  0
  144.6839  135.7542  152.4580 H   0  0  0  0  0  0  0  0  0  0  0  0
  145.6579  134.3598  154.2537 H   0  0  0  0  0  0  0  0  0  0  0  0
  146.4557  135.9213  154.2171 H   0  0  0  0  0  0  0  0  0  0  0  0
  149.2697  140.0707  153.4900 H   0  0  0  0  0  0  0  0  0  0  0  0
  148.2230  134.9434  152.9625 H   0  0  0  0  0  0  0  0  0  0  0  0
  1  2  1  0  0  0  0
  1 21  1  0  0  0  0
  1 22  1  0  0  0  0
  1 23  1  0  0  0  0
  2  3  1  0  0  0  0
  2  4  1  0  0  0  0
  2 24  1  0  0  0  0
  3 25  1  0  0  0  0
  3 26  1  0  0  0  0
  3 27  1  0  0  0  0
  4 20  1  0  0  0  0
  4  5  2  0  0  0  0
  5  6  1  0  0  0  0
  6  7  1  0  0  0  0
  6 19  2  0  0  0  0
  7  8  1  0  0  0  0
  7 28  1  0  0  0  0
  7 29  1  0  0  0  0
  8  9  2  0  0  0  0
  8 10  1  0  0  0  0
 10 11  1  0  0  0  0
 10 30  1  0  0  0  0
 11 12  1  0  0  0  0
 11 31  1  0  0  0  0
 11 32  1  0  0  0  0
 12 13  1  0  0  0  0
 12 33  1  0  0  0  0
 12 34  1  0  0  0  0
 13 18  1  0  0  0  0
 13 14  1  0  0  0  0
 13 44  1  0  0  0  0
 14 15  1  0  0  0  0
 14 35  1  0  0  0  0
 14 36  1  0  0  0  0
 15 16  1  0  0  0  0
 15 37  1  0  0  0  0
 15 38  1  0  0  0  0
 16 17  1  0  0  0  0
 17 18  1  0  0  0  0
 17 39  1  0  0  0  0
 17 40  1  0  0  0  0
 18 41  1  0  0  0  0
 18 42  1  0  0  0  0
 19 20  1  0  0  0  0
 19 43  1  0  0  0  0
M  CHG  1  13   1
M  END
> <s_m_source_file>
AV-unprocessed.smi

> <i_m_source_file_index>
2186

> <i_lp_mmshare_version>
43012

> <i_f3d_flags>
0

> <s_epik_input>
W0NIM11bQ0hdKFtDSDNdKWMxbmMoW2NIXXMxKVtDSDJdQyg9TylbTkhdW0NIMl1bQ0gyXU4yW0NIMl1bQ0gyXU9bQ0gyXVtDSDJdMg==

> <s_epik_cmdline>
J2VwaWtfcHl0aG9uJywgJy1waCcsICc3LjAnLCAnLXRuJywgJzgnLCAnLW1hJywgJzIwMCcsICctbWV0YWxfYmluZGluZycsICctaW1hZScsICc8aW5maWxlLm1hZT4nLCAnLW9tYWUnLCAnPG91dGZpbGUubWFlPic=

> <r_epik_Ionization_Penalty>
0.678862

> <r_epik_Ionization_Penalty_Charging>
0.678842

> <r_epik_Ionization_Penalty_Neutral>
2.00527e-05

> <r_epik_State_Penalty>
0.699693

> <r_epik_Charging_Adjusted_Penalty>
1.37854

> <i_epik_Tot_Q>
1

> <i_epik_Tot_abs_Q>
1

> <r_epik_Metal_State_Penalty>
0.699708

> <b_epik_Metal_Only>
0

> <s_lp_Force_Field>
OPLS_2005

> <r_lp_Energy>
6.68048

> <b_lp_Chiralities_Consistent>
1

> <s_lp_Variant>
AV-unprocessed.smi:2186-2

> <Gold.Version>
5.8.1

> <Gold.Id.Protein>
6NUR|6NUR_protein|mol2

> <Gold.PLP.Fitness>
50.1366

> <Gold.PLP.PLP>
-35.9596

> <Gold.PLP.part.hbond>
-3.0000

> <Gold.PLP.part.metal>
0.0000

> <Gold.PLP.part.buried>
-2.3007

> <Gold.PLP.part.nonpolar>
-30.6084

> <Gold.PLP.part.repulsive>
0.1871

> <Gold.PLP.ligand.clash>
0.0000

> <Gold.PLP.ligand.torsion>
0.4577

> <Gold.PLP.Chemscore.Hbond>
3.9920

> <Gold.PLP.Chemscore.CHOScore>
0.9978

> <Gold.PLP.Chemscore.Metal>
0.0000

> <Gold.Chemscore.Hbonds>
donor molecule, donor type, donor heavy atom, donor atom, acceptor molecule, acceptor atom, score
      L1  H    10    30       P1  7948  0.81
      L1  H    13    44       P1  7948  2.00
      L1  C    19    43       P1  7957  1.00

> <Gold.PLP.Chemscore.Internal.Correction>
0.1231

> <Gold.Rescore>
     Score         DG    S(hbond)    S(metal)    S(lipo)     H(rot)  DE(clash)    DE(int)     intcor
     17.68     -18.37       2.42        0.00      80.82       1.82       0.03       0.65       ----

> <Gold.Chemscore.Fitness>
17.6832

> <Gold.Chemscore.DG>
-18.3660

> <Gold.Chemscore.ZeroCoef>
-5.4800

> <Gold.Chemscore.Hbond>
2.4230

> <Gold.Chemscore.Metal>
0.0000

> <Gold.Chemscore.Lipo>
80.8248

> <Gold.Chemscore.Internal_Hbond>
0.0000

> <Gold.Chemscore.DEClash>
0.0328

> <Gold.Chemscore.DEInternal>
0.6500

> <Gold.Chemscore.Rot>
1.8217

> <Gold.Chemscore.Internal.Correction>
   9.000000E+99

> <Gold.Chemscore.Hbonds>
donor molecule, donor type, donor heavy atom, donor atom, acceptor molecule, acceptor atom, score
      L1  H    10    30       P1  7948  0.75
      L1  H    13    44       P1  7948  0.85

> <Gold.Chemscore.Hbond.Weighted>
-8.0930

> <Gold.Chemscore.Metal.Weighted>
-0.0000

> <Gold.Chemscore.Lipo.Weighted>
-9.4565

> <Gold.Chemscore.Internal_Hbond.Weighted>
0.0000

> <Gold.Chemscore.DEClash.Weighted>
0.0328

> <Gold.Chemscore.DEInternal.Weighted>
0.6500

> <Gold.Chemscore.Rot.Weighted>
4.6635

> <Gold.Chemscore.Internal.Correction.Weighted>
   9.000000E+99

> <Gold.Protein.RotatedTorsions>
[ 6907 6896 6895 6894 ] final  -15.75 input  -60.11 | X-H torsion
[ 7974 7965 7964 7962 ] final -146.47 input  175.53 | X-H torsion
[ 8008 7997 7996 7995 ] final   10.50 input   59.86 | X-H torsion
[ 10167 10162 10161 10158 ] final -175.18 input  -65.29 | X-H torsion
[ 10718 10713 10712 10709 ] final   99.58 input   66.30 | X-H torsion
[ 10763 10752 10751 10750 ] final   86.51 input  -60.55 | X-H torsion
[ 11005 11000 10999 10996 ] final   31.78 input  -57.11 | X-H torsion

> <Gold.Protein.ActiveResidues>
 VAL166  LYS551  ARG553  GLY616  TRP617  ASP618  TYR619  PRO620  LYS621  CYS622 
 ASP623  PHE694  ASN695  SER759  ASP760  ASP761  ALA762  ILE779  LEU786  VAL792 
 PHE793  MET794  SER795  GLU796  ALA797  LYS798  CYS799  TRP800  GLU811  SER814 

> <Gold.Protein.RotatedAtoms>
  151.3192  135.0814  159.9299 H   0  0  0  0  0  0  0  0  0  0  0  0  # atno 6907 bound_to 6896
  152.5260  133.9656  159.7748 H   0  0  0  0  0  0  0  0  0  0  0  0  # atno 6908 bound_to 6896
  150.9974  133.6037  159.2730 H   0  0  0  0  0  0  0  0  0  0  0  0  # atno 6909 bound_to 6896
  144.8157  140.5452  143.5612 H   0  0  0  0  0  0  0  0  0  0  0  0  # atno 7974 bound_to 7965
  154.7942  140.2841  155.5969 H   0  0  0  0  0  0  0  0  0  0  0  0  # atno 8008 bound_to 7997
  156.2968  140.2599  156.2725 H   0  0  0  0  0  0  0  0  0  0  0  0  # atno 8009 bound_to 7997
  154.9634  140.0377  157.2190 H   0  0  0  0  0  0  0  0  0  0  0  0  # atno 8010 bound_to 7997
  139.5594  144.1907  152.1214 H   0  0  0  0  0  0  0  0  0  0  0  0  # atno 10167 bound_to 10162
  157.6873  131.0674  150.4970 H   0  0  0  0  0  0  0  0  0  0  0  0  # atno 10718 bound_to 10713
  153.1577  135.4578  154.9728 H   0  0  0  0  0  0  0  0  0  0  0  0  # atno 10763 bound_to 10752
  154.7874  135.3208  154.7858 H   0  0  0  0  0  0  0  0  0  0  0  0  # atno 10764 bound_to 10752
  153.8353  135.6935  153.4864 H   0  0  0  0  0  0  0  0  0  0  0  0  # atno 10765 bound_to 10752
  140.2803  134.2980  155.7802 H   0  0  0  0  0  0  0  0  0  0  0  0  # atno 11005 bound_to 11000
  145.5219  139.1476  143.3547 LP  0  0  0  0  0  0  0  0  0  0  0  0  # atno 17320 bound_to 7965
  146.2460  140.5360  142.8913 LP  0  0  0  0  0  0  0  0  0  0  0  0  # atno 17321 bound_to 7965
  140.1417  144.5196  150.6740 LP  0  0  0  0  0  0  0  0  0  0  0  0  # atno 17342 bound_to 10162
  140.6872  143.2356  151.5228 LP  0  0  0  0  0  0  0  0  0  0  0  0  # atno 17343 bound_to 10162
  156.5294  130.4181  149.6209 LP  0  0  0  0  0  0  0  0  0  0  0  0  # atno 17370 bound_to 10713
  156.3083  130.7215  151.2102 LP  0  0  0  0  0  0  0  0  0  0  0  0  # atno 17371 bound_to 10713
  141.2163  133.7521  156.9471 LP  0  0  0  0  0  0  0  0  0  0  0  0  # atno 17394 bound_to 11000
  140.1289  134.9368  157.2309 LP  0  0  0  0  0  0  0  0  0  0  0  0  # atno 17395 bound_to 11000

$$$$
