AV-unprocessed.smi:2999|AV-procd|sdf|11427|dock10
  -GOLD-   2272016353D 1   1.00000     0.00000
 Structure written by MMmdl.
 37 39  0  0  0  0  0  0  0  0  3 V2000
  151.6584  140.2436  155.2141 O   0  0  0  0  0  0  0  0  0  0  0  0
  151.2104  140.8582  156.1848 C   0  0  0  0  0  0  0  0  0  0  0  0
  150.0210  141.4711  156.0994 N   0  0  0  0  0  0  0  0  0  0  0  0
  149.1576  141.5208  154.9221 C   0  0  0  0  0  0  0  0  0  0  0  0
  148.0181  140.4846  154.9775 C   0  0  2  0  0  0  0  0  0  0  0  0
  147.0021  140.5947  153.8162 C   0  0  0  0  0  0  0  0  0  0  0  0
  145.9051  139.6098  153.9581 N   0  3  1  0  0  0  0  0  0  0  0  0
  146.2949  138.2324  153.5772 C   0  0  0  0  0  0  0  0  0  0  0  0
  146.2462  137.9793  152.0885 C   0  0  0  0  0  0  0  0  0  0  0  0
  145.1618  137.4267  152.9865 C   0  0  0  0  0  0  0  0  0  0  0  0
  145.2860  139.6981  155.3017 C   0  0  0  0  0  0  0  0  0  0  0  0
  146.3476  139.6166  156.4145 C   0  0  0  0  0  0  0  0  0  0  0  0
  147.3316  140.6250  156.2181 O   0  0  0  0  0  0  0  0  0  0  0  0
  151.8136  141.0111  157.3844 N   0  5  0  0  0  0  0  0  0  0  0  0
  151.9278  142.2338  157.9282 C   0  0  0  0  0  0  0  0  0  0  0  0
  151.3068  143.3116  157.4352 N   0  0  0  0  0  0  0  0  0  0  0  0
  151.5587  144.4775  158.1612 C   0  0  0  0  0  0  0  0  0  0  0  0
  152.3849  144.2811  159.2359 C   0  0  0  0  0  0  0  0  0  0  0  0
  152.8746  142.6161  159.3688 S   0  0  0  0  0  0  0  0  0  0  0  0
  149.6964  141.9598  156.9211 H   0  0  0  0  0  0  0  0  0  0  0  0
  148.7461  142.5219  154.7852 H   0  0  0  0  0  0  0  0  0  0  0  0
  149.7780  141.3314  154.0459 H   0  0  0  0  0  0  0  0  0  0  0  0
  148.4838  139.4982  154.9546 H   0  0  0  0  0  0  0  0  0  0  0  0
  146.5440  141.5837  153.8071 H   0  0  0  0  0  0  0  0  0  0  0  0
  147.4985  140.4732  152.8529 H   0  0  0  0  0  0  0  0  0  0  0  0
  147.0516  137.7466  154.1900 H   0  0  0  0  0  0  0  0  0  0  0  0
  145.9830  138.8078  151.4333 H   0  0  0  0  0  0  0  0  0  0  0  0
  146.9620  137.2708  151.6767 H   0  0  0  0  0  0  0  0  0  0  0  0
  145.1622  136.3535  153.1657 H   0  0  0  0  0  0  0  0  0  0  0  0
  144.1774  137.8878  152.9265 H   0  0  0  0  0  0  0  0  0  0  0  0
  144.7594  140.6505  155.3750 H   0  0  0  0  0  0  0  0  0  0  0  0
  144.5349  138.9170  155.4247 H   0  0  0  0  0  0  0  0  0  0  0  0
  145.8797  139.7694  157.3871 H   0  0  0  0  0  0  0  0  0  0  0  0
  146.8170  138.6324  156.4437 H   0  0  0  0  0  0  0  0  0  0  0  0
  151.1059  145.4043  157.8417 H   0  0  0  0  0  0  0  0  0  0  0  0
  152.7330  145.0083  159.9539 H   0  0  0  0  0  0  0  0  0  0  0  0
  145.1928  139.8819  153.2953 H   0  0  0  0  0  0  0  0  0  0  0  0
  1  2  2  0  0  0  0
  2  3  1  0  0  0  0
  2 14  1  0  0  0  0
  3  4  1  0  0  0  0
  3 20  1  0  0  0  0
  4  5  1  0  0  0  0
  4 21  1  0  0  0  0
  4 22  1  0  0  0  0
  5 13  1  0  0  0  0
  5  6  1  0  0  0  0
  5 23  1  0  0  0  0
  6  7  1  0  0  0  0
  6 24  1  0  0  0  0
  6 25  1  0  0  0  0
  7  8  1  0  0  0  0
  7 11  1  0  0  0  0
  7 37  1  0  0  0  0
  8 10  1  0  0  0  0
  8  9  1  0  0  0  0
  8 26  1  0  0  0  0
  9 10  1  0  0  0  0
  9 27  1  0  0  0  0
  9 28  1  0  0  0  0
 10 29  1  0  0  0  0
 10 30  1  0  0  0  0
 11 12  1  0  0  0  0
 11 31  1  0  0  0  0
 11 32  1  0  0  0  0
 12 13  1  0  0  0  0
 12 33  1  0  0  0  0
 12 34  1  0  0  0  0
 14 15  1  0  0  0  0
 15 19  1  0  0  0  0
 15 16  2  0  0  0  0
 16 17  1  0  0  0  0
 17 18  2  0  0  0  0
 17 35  1  0  0  0  0
 18 19  1  0  0  0  0
 18 36  1  0  0  0  0
M  CHG  1   7   1
M  CHG  1  14  -1
M  END
> <s_m_source_file>
AV-unprocessed.smi

> <i_m_source_file_index>
2999

> <i_lp_mmshare_version>
43012

> <i_f3d_flags>
0

> <s_epik_input>
czFbY0hdW2NIXW5jMVtOSF1DKD1PKVtOSF1bQ0gyXVtDQEBIXTJbQ0gyXU4oW0NIMl1bQ0gyXU8yKVtDSF0zW0NIMl1bQ0gyXTM=

> <s_epik_cmdline>
J2VwaWtfcHl0aG9uJywgJy1waCcsICc3LjAnLCAnLXRuJywgJzgnLCAnLW1hJywgJzIwMCcsICctbWV0YWxfYmluZGluZycsICctaW1hZScsICc8aW5maWxlLm1hZT4nLCAnLW9tYWUnLCAnPG91dGZpbGUubWFlPic=

> <r_lp_tautomer_probability>
0.999

> <r_epik_Ionization_Penalty>
7.79196

> <r_epik_Ionization_Penalty_Charging>
6.93299

> <r_epik_Ionization_Penalty_Neutral>
0.858963

> <r_epik_State_Penalty>
7.05108

> <r_epik_Charging_Adjusted_Penalty>
13.9841

> <i_epik_Tot_Q>
0

> <i_epik_Tot_abs_Q>
2

> <r_epik_Metal_State_Penalty>
3.05936

> <b_epik_Metal_Only>
1

> <s_lp_Force_Field>
OPLS_2005

> <r_lp_Energy>
16.1762

> <b_lp_Chiralities_Consistent>
1

> <s_lp_Variant>
AV-unprocessed.smi:2999-11

> <Gold.Version>
5.8.1

> <Gold.Id.Protein>
6NUR|6NUR_protein|mol2

> <Gold.PLP.Fitness>
39.2043

> <Gold.PLP.PLP>
-31.5963

> <Gold.PLP.part.hbond>
-2.0000

> <Gold.PLP.part.metal>
0.0000

> <Gold.PLP.part.buried>
-4.9714

> <Gold.PLP.part.nonpolar>
-26.1680

> <Gold.PLP.part.repulsive>
0.2795

> <Gold.PLP.ligand.clash>
0.0026

> <Gold.PLP.ligand.torsion>
1.2604

> <Gold.PLP.Chemscore.Hbond>
2.9440

> <Gold.PLP.Chemscore.CHOScore>
0.0000

> <Gold.PLP.Chemscore.Metal>
0.0000

> <Gold.Chemscore.Hbonds>
donor molecule, donor type, donor heavy atom, donor atom, acceptor molecule, acceptor atom, score
      L1  H     7    37       P1 10175  2.00
      P1  H  7989  7998       L1     1  0.91

> <Gold.PLP.Chemscore.Internal.Correction>
1.2994

> <Gold.Rescore>
     Score         DG    S(hbond)    S(metal)    S(lipo)     H(rot)  DE(clash)    DE(int)     intcor
     14.01     -16.97       1.93        0.00      76.90       1.55       0.02       2.94       ----

> <Gold.Chemscore.Fitness>
14.0068

> <Gold.Chemscore.DG>
-16.9662

> <Gold.Chemscore.ZeroCoef>
-5.4800

> <Gold.Chemscore.Hbond>
1.9336

> <Gold.Chemscore.Metal>
0.0000

> <Gold.Chemscore.Lipo>
76.8980

> <Gold.Chemscore.Internal_Hbond>
0.0000

> <Gold.Chemscore.DEClash>
0.0174

> <Gold.Chemscore.DEInternal>
2.9420

> <Gold.Chemscore.Rot>
1.5504

> <Gold.Chemscore.Internal.Correction>
   9.000000E+99

> <Gold.Chemscore.Hbonds>
donor molecule, donor type, donor heavy atom, donor atom, acceptor molecule, acceptor atom, score
      L1  H     7    37       P1 10175  1.00
      P1  H  7989  7998       L1     1  0.89

> <Gold.Chemscore.Hbond.Weighted>
-6.4581

> <Gold.Chemscore.Metal.Weighted>
-0.0000

> <Gold.Chemscore.Lipo.Weighted>
-8.9971

> <Gold.Chemscore.Internal_Hbond.Weighted>
0.0000

> <Gold.Chemscore.DEClash.Weighted>
0.0174

> <Gold.Chemscore.DEInternal.Weighted>
2.9420

> <Gold.Chemscore.Rot.Weighted>
3.9690

> <Gold.Chemscore.Internal.Correction.Weighted>
   9.000000E+99

> <Gold.Protein.RotatedTorsions>
[ 6907 6896 6895 6894 ] final    4.28 input  -60.11 | X-H torsion
[ 7974 7965 7964 7962 ] final -148.75 input  175.53 | X-H torsion
[ 8008 7997 7996 7995 ] final -176.62 input   59.86 | X-H torsion
[ 10167 10162 10161 10158 ] final   62.33 input  -65.29 | X-H torsion
[ 10718 10713 10712 10709 ] final -106.31 input   66.30 | X-H torsion
[ 10763 10752 10751 10750 ] final  108.79 input  -60.55 | X-H torsion
[ 11005 11000 10999 10996 ] final -120.24 input  -57.11 | X-H torsion

> <Gold.Protein.ActiveResidues>
 VAL166  LYS551  ARG553  GLY616  TRP617  ASP618  TYR619  PRO620  LYS621  CYS622 
 ASP623  PHE694  ASN695  SER759  ASP760  ASP761  ALA762  ILE779  LEU786  VAL792 
 PHE793  MET794  SER795  GLU796  ALA797  LYS798  CYS799  TRP800  GLU811  SER814 

> <Gold.Protein.RotatedAtoms>
  151.6387  135.1015  160.0136 H   0  0  0  0  0  0  0  0  0  0  0  0  # atno 6907 bound_to 6896
  152.4066  133.6894  159.6370 H   0  0  0  0  0  0  0  0  0  0  0  0  # atno 6908 bound_to 6896
  150.7960  133.8615  159.3274 H   0  0  0  0  0  0  0  0  0  0  0  0  # atno 6909 bound_to 6896
  144.8010  140.5155  143.5707 H   0  0  0  0  0  0  0  0  0  0  0  0  # atno 7974 bound_to 7965
  155.9970  140.1212  157.0584 H   0  0  0  0  0  0  0  0  0  0  0  0  # atno 8008 bound_to 7997
  154.4230  140.1114  156.5713 H   0  0  0  0  0  0  0  0  0  0  0  0  # atno 8009 bound_to 7997
  155.6265  140.3472  155.4671 H   0  0  0  0  0  0  0  0  0  0  0  0  # atno 8010 bound_to 7997
  140.1451  144.4516  150.6790 H   0  0  0  0  0  0  0  0  0  0  0  0  # atno 10167 bound_to 10162
  156.0384  130.5607  150.7663 H   0  0  0  0  0  0  0  0  0  0  0  0  # atno 10718 bound_to 10713
  153.4256  135.3800  155.2139 H   0  0  0  0  0  0  0  0  0  0  0  0  # atno 10763 bound_to 10752
  154.8747  135.3827  154.4330 H   0  0  0  0  0  0  0  0  0  0  0  0  # atno 10764 bound_to 10752
  153.4856  135.7088  153.5976 H   0  0  0  0  0  0  0  0  0  0  0  0  # atno 10765 bound_to 10752
  141.0158  134.0197  157.3351 H   0  0  0  0  0  0  0  0  0  0  0  0  # atno 11005 bound_to 11000
  145.5554  139.1478  143.3371 LP  0  0  0  0  0  0  0  0  0  0  0  0  # atno 17320 bound_to 7965
  146.2291  140.5691  142.8983 LP  0  0  0  0  0  0  0  0  0  0  0  0  # atno 17321 bound_to 7965
  140.6737  143.2296  151.5562 LP  0  0  0  0  0  0  0  0  0  0  0  0  # atno 17342 bound_to 10162
  139.5453  144.2538  152.1430 LP  0  0  0  0  0  0  0  0  0  0  0  0  # atno 17343 bound_to 10162
  157.5169  131.0929  151.0128 LP  0  0  0  0  0  0  0  0  0  0  0  0  # atno 17370 bound_to 10713
  157.0469  130.5771  149.5364 LP  0  0  0  0  0  0  0  0  0  0  0  0  # atno 17371 bound_to 10713
  139.9116  135.0191  156.7715 LP  0  0  0  0  0  0  0  0  0  0  0  0  # atno 17394 bound_to 11000
  140.6657  133.9605  155.7829 LP  0  0  0  0  0  0  0  0  0  0  0  0  # atno 17395 bound_to 11000

$$$$
