AV-unprocessed.smi:2153|AV-procd|sdf|8767|dock8
  -GOLD-   2272011543D 1   1.00000     0.00000
 Structure written by MMmdl.
 48 49  0  0  0  0  0  0  0  0  1 V2000
  151.3741  144.8861  159.2490 C   0  0  0  0  0  0  0  0  0  0  0  0
  152.4202  144.0323  159.9830 C   0  0  1  0  0  0  0  0  0  0  0  0
  151.9347  143.6166  161.3880 C   0  0  0  0  0  0  0  0  0  0  0  0
  153.0001  142.7959  162.1330 C   0  0  0  0  0  0  0  0  0  0  0  0
  153.4468  141.5762  161.3127 C   0  0  0  0  0  0  0  0  0  0  0  0
  153.9283  141.9946  159.9152 C   0  0  0  0  0  0  0  0  0  0  0  0
  152.8458  142.7961  159.1586 C   0  0  1  0  0  0  0  0  0  0  0  0
  151.6734  142.0255  158.9222 O   0  0  0  0  0  0  0  0  0  0  0  0
  150.9446  142.3276  157.7427 C   0  0  0  0  0  0  0  0  0  0  0  0
  149.4936  142.6534  158.1280 C   0  0  0  0  0  0  0  0  0  0  0  0
  148.5710  142.3872  157.0280 N   0  0  0  0  0  0  0  0  0  0  0  0
  147.6364  141.4235  157.0254 C   0  0  0  0  0  0  0  0  0  0  0  0
  147.4339  140.6769  157.9843 O   0  0  0  0  0  0  0  0  0  0  0  0
  146.7885  141.2979  155.7533 C   0  0  0  0  0  0  0  0  0  0  0  0
  145.9364  142.4738  155.5339 N   0  0  0  0  0  0  0  0  0  0  0  0
  146.0572  143.1962  154.3606 C   0  0  0  0  0  0  0  0  0  0  0  0
  145.3424  144.3112  154.0952 C   0  0  0  0  0  0  0  0  0  0  0  0
  144.3768  144.8255  155.0579 C   0  0  0  0  0  0  0  0  0  0  0  0
  143.7149  145.8478  154.8721 O   0  0  0  0  0  0  0  0  0  0  0  0
  144.2602  144.0607  156.2413 N   0  0  0  0  0  0  0  0  0  0  0  0
  143.3252  144.5394  157.2382 C   0  0  0  0  0  0  0  0  0  0  0  0
  145.0199  142.9006  156.5193 C   0  0  0  0  0  0  0  0  0  0  0  0
  144.9072  142.2765  157.5764 O   0  0  0  0  0  0  0  0  0  0  0  0
  150.4420  144.3391  159.1041 H   0  0  0  0  0  0  0  0  0  0  0  0
  151.7361  145.1929  158.2675 H   0  0  0  0  0  0  0  0  0  0  0  0
  151.1416  145.7898  159.8123 H   0  0  0  0  0  0  0  0  0  0  0  0
  153.3042  144.6585  160.1136 H   0  0  0  0  0  0  0  0  0  0  0  0
  151.6831  144.5013  161.9736 H   0  0  0  0  0  0  0  0  0  0  0  0
  151.0163  143.0334  161.3064 H   0  0  0  0  0  0  0  0  0  0  0  0
  153.8631  143.4281  162.3448 H   0  0  0  0  0  0  0  0  0  0  0  0
  152.6131  142.4711  163.0984 H   0  0  0  0  0  0  0  0  0  0  0  0
  154.2415  141.0466  161.8381 H   0  0  0  0  0  0  0  0  0  0  0  0
  152.6197  140.8728  161.2150 H   0  0  0  0  0  0  0  0  0  0  0  0
  154.8214  142.6124  160.0176 H   0  0  0  0  0  0  0  0  0  0  0  0
  154.2426  141.1200  159.3470 H   0  0  0  0  0  0  0  0  0  0  0  0
  153.2472  143.1300  158.2004 H   0  0  0  0  0  0  0  0  0  0  0  0
  151.3895  143.1849  157.2360 H   0  0  0  0  0  0  0  0  0  0  0  0
  150.9630  141.4866  157.0497 H   0  0  0  0  0  0  0  0  0  0  0  0
  149.2028  142.0973  159.0209 H   0  0  0  0  0  0  0  0  0  0  0  0
  149.4140  143.7094  158.3857 H   0  0  0  0  0  0  0  0  0  0  0  0
  148.6666  142.9592  156.2015 H   0  0  0  0  0  0  0  0  0  0  0  0
  147.4638  141.1674  154.9068 H   0  0  0  0  0  0  0  0  0  0  0  0
  146.1848  140.3891  155.7906 H   0  0  0  0  0  0  0  0  0  0  0  0
  146.7670  142.8585  153.6192 H   0  0  0  0  0  0  0  0  0  0  0  0
  145.4908  144.8322  153.1607 H   0  0  0  0  0  0  0  0  0  0  0  0
  143.0975  143.7580  157.9633 H   0  0  0  0  0  0  0  0  0  0  0  0
  142.3991  144.8184  156.7324 H   0  0  0  0  0  0  0  0  0  0  0  0
  143.7911  145.3992  157.7221 H   0  0  0  0  0  0  0  0  0  0  0  0
  1  2  1  0  0  0  0
  1 24  1  0  0  0  0
  1 25  1  0  0  0  0
  1 26  1  0  0  0  0
  2  7  1  0  0  0  0
  2  3  1  0  0  0  0
  2 27  1  0  0  0  0
  3  4  1  0  0  0  0
  3 28  1  0  0  0  0
  3 29  1  0  0  0  0
  4  5  1  0  0  0  0
  4 30  1  0  0  0  0
  4 31  1  0  0  0  0
  5  6  1  0  0  0  0
  5 32  1  0  0  0  0
  5 33  1  0  0  0  0
  6  7  1  0  0  0  0
  6 34  1  0  0  0  0
  6 35  1  0  0  0  0
  7  8  1  0  0  0  0
  7 36  1  0  0  0  0
  8  9  1  0  0  0  0
  9 10  1  0  0  0  0
  9 37  1  0  0  0  0
  9 38  1  0  0  0  0
 10 11  1  0  0  0  0
 10 39  1  0  0  0  0
 10 40  1  0  0  0  0
 11 12  1  0  0  0  0
 11 41  1  0  0  0  0
 12 13  2  0  0  0  0
 12 14  1  0  0  0  0
 14 15  1  0  0  0  0
 14 42  1  0  0  0  0
 14 43  1  0  0  0  0
 15 22  1  0  0  0  0
 15 16  1  0  0  0  0
 16 17  2  0  0  0  0
 16 44  1  0  0  0  0
 17 18  1  0  0  0  0
 17 45  1  0  0  0  0
 18 19  2  0  0  0  0
 18 20  1  0  0  0  0
 20 21  1  0  0  0  0
 20 22  1  0  0  0  0
 21 46  1  0  0  0  0
 21 47  1  0  0  0  0
 21 48  1  0  0  0  0
 22 23  2  0  0  0  0
M  END
> <s_m_source_file>
AV-unprocessed.smi

> <i_m_source_file_index>
2153

> <i_lp_mmshare_version>
43012

> <i_f3d_flags>
0

> <s_epik_input>
W0NIM11bQ0BASF0xW0NIMl1bQ0gyXVtDSDJdW0NIMl1bQ0BIXTFPW0NIMl1bQ0gyXVtOSF1DKD1PKVtDSDJdbjJbY0hdW2NIXWMoPU8pbihbQ0gzXSljMj1P

> <s_epik_cmdline>
J2VwaWtfcHl0aG9uJywgJy1waCcsICc3LjAnLCAnLXRuJywgJzgnLCAnLW1hJywgJzIwMCcsICctbWV0YWxfYmluZGluZycsICctaW1hZScsICc8aW5maWxlLm1hZT4nLCAnLW9tYWUnLCAnPG91dGZpbGUubWFlPic=

> <r_lp_tautomer_probability>
1

> <r_epik_Ionization_Penalty>
4.02205e-08

> <r_epik_Ionization_Penalty_Charging>
1.23606e-08

> <r_epik_Ionization_Penalty_Neutral>
2.78599e-08

> <r_epik_State_Penalty>
-0

> <r_epik_Charging_Adjusted_Penalty>
1.23606e-08

> <i_epik_Tot_Q>
0

> <i_epik_Tot_abs_Q>
0

> <r_epik_Metal_State_Penalty>
-0

> <b_epik_Metal_Only>
0

> <s_lp_Force_Field>
OPLS_2005

> <r_lp_Energy>
16.8304

> <b_lp_Chiralities_Consistent>
1

> <s_lp_Variant>
AV-unprocessed.smi:2153-2

> <Gold.Version>
5.8.1

> <Gold.Id.Protein>
6NUR|6NUR_protein|mol2

> <Gold.PLP.Fitness>
50.6801

> <Gold.PLP.PLP>
-51.1414

> <Gold.PLP.part.hbond>
-2.0000

> <Gold.PLP.part.metal>
0.0000

> <Gold.PLP.part.buried>
-7.8253

> <Gold.PLP.part.nonpolar>
-40.8237

> <Gold.PLP.part.repulsive>
0.1040

> <Gold.PLP.ligand.clash>
0.0034

> <Gold.PLP.ligand.torsion>
0.9797

> <Gold.PLP.Chemscore.Hbond>
0.4433

> <Gold.PLP.Chemscore.CHOScore>
0.0000

> <Gold.PLP.Chemscore.Metal>
0.0000

> <Gold.Chemscore.Hbonds>
donor molecule, donor type, donor heavy atom, donor atom, acceptor molecule, acceptor atom, score
      L1  H    11    41       P1  8028  0.83

> <Gold.PLP.Chemscore.Internal.Correction>
0.1717

> <Gold.Rescore>
     Score         DG    S(hbond)    S(metal)    S(lipo)     H(rot)  DE(clash)    DE(int)     intcor
     14.66     -15.94       0.92        0.00     111.25       2.20       0.04       1.25       ----

> <Gold.Chemscore.Fitness>
14.6592

> <Gold.Chemscore.DG>
-15.9416

> <Gold.Chemscore.ZeroCoef>
-5.4800

> <Gold.Chemscore.Hbond>
0.9188

> <Gold.Chemscore.Metal>
0.0000

> <Gold.Chemscore.Lipo>
111.2525

> <Gold.Chemscore.Internal_Hbond>
0.0000

> <Gold.Chemscore.DEClash>
0.0358

> <Gold.Chemscore.DEInternal>
1.2467

> <Gold.Chemscore.Rot>
2.1968

> <Gold.Chemscore.Internal.Correction>
   9.000000E+99

> <Gold.Chemscore.Hbonds>
donor molecule, donor type, donor heavy atom, donor atom, acceptor molecule, acceptor atom, score
      L1  H    11    41       P1  8028  0.82

> <Gold.Chemscore.Hbond.Weighted>
-3.0689

> <Gold.Chemscore.Metal.Weighted>
-0.0000

> <Gold.Chemscore.Lipo.Weighted>
-13.0165

> <Gold.Chemscore.Internal_Hbond.Weighted>
0.0000

> <Gold.Chemscore.DEClash.Weighted>
0.0358

> <Gold.Chemscore.DEInternal.Weighted>
1.2467

> <Gold.Chemscore.Rot.Weighted>
5.6238

> <Gold.Chemscore.Internal.Correction.Weighted>
   9.000000E+99

> <Gold.Protein.RotatedTorsions>
[ 6907 6896 6895 6894 ] final -115.44 input  -60.11 | X-H torsion
[ 7974 7965 7964 7962 ] final  130.84 input  175.53 | X-H torsion
[ 8008 7997 7996 7995 ] final   38.41 input   59.86 | X-H torsion
[ 10167 10162 10161 10158 ] final  -13.46 input  -65.29 | X-H torsion
[ 10718 10713 10712 10709 ] final  -87.08 input   66.30 | X-H torsion
[ 10763 10752 10751 10750 ] final   72.92 input  -60.55 | X-H torsion
[ 11005 11000 10999 10996 ] final -169.98 input  -57.11 | X-H torsion

> <Gold.Protein.ActiveResidues>
 VAL166  LYS551  ARG553  GLY616  TRP617  ASP618  TYR619  PRO620  LYS621  CYS622 
 ASP623  PHE694  ASN695  SER759  ASP760  ASP761  ALA762  ILE779  LEU786  VAL792 
 PHE793  MET794  SER795  GLU796  ALA797  LYS798  CYS799  TRP800  GLU811  SER814 

> <Gold.Protein.RotatedAtoms>
  150.7978  133.8658  159.3244 H   0  0  0  0  0  0  0  0  0  0  0  0  # atno 6907 bound_to 6896
  151.6479  135.1003  160.0164 H   0  0  0  0  0  0  0  0  0  0  0  0  # atno 6908 bound_to 6896
  152.4062  133.6853  159.6393 H   0  0  0  0  0  0  0  0  0  0  0  0  # atno 6909 bound_to 6896
  145.0137  139.4197  143.5232 H   0  0  0  0  0  0  0  0  0  0  0  0  # atno 7974 bound_to 7965
  155.2197  140.3330  155.4317 H   0  0  0  0  0  0  0  0  0  0  0  0  # atno 8008 bound_to 7997
  156.2338  140.1862  156.7221 H   0  0  0  0  0  0  0  0  0  0  0  0  # atno 8009 bound_to 7997
  154.6023  140.0621  156.9370 H   0  0  0  0  0  0  0  0  0  0  0  0  # atno 8010 bound_to 7997
  140.7182  143.5424  150.9394 H   0  0  0  0  0  0  0  0  0  0  0  0  # atno 10167 bound_to 10162
  155.9987  130.4787  150.4812 H   0  0  0  0  0  0  0  0  0  0  0  0  # atno 10718 bound_to 10713
  153.0489  135.5082  154.7816 H   0  0  0  0  0  0  0  0  0  0  0  0  # atno 10763 bound_to 10752
  154.6694  135.2950  154.9764 H   0  0  0  0  0  0  0  0  0  0  0  0  # atno 10764 bound_to 10752
  154.0587  135.6694  153.4862 H   0  0  0  0  0  0  0  0  0  0  0  0  # atno 10765 bound_to 10752
  140.5247  134.5675  157.5058 H   0  0  0  0  0  0  0  0  0  0  0  0  # atno 11005 bound_to 11000
  146.3474  139.9595  142.8719 LP  0  0  0  0  0  0  0  0  0  0  0  0  # atno 17320 bound_to 7965
  145.1989  140.9845  143.4167 LP  0  0  0  0  0  0  0  0  0  0  0  0  # atno 17321 bound_to 7965
  139.9147  143.6678  152.3108 LP  0  0  0  0  0  0  0  0  0  0  0  0  # atno 17342 bound_to 10162
  139.7074  144.7626  151.1170 LP  0  0  0  0  0  0  0  0  0  0  0  0  # atno 17343 bound_to 10162
  157.2817  131.0608  151.2193 LP  0  0  0  0  0  0  0  0  0  0  0  0  # atno 17370 bound_to 10713
  157.3237  130.6950  149.6284 LP  0  0  0  0  0  0  0  0  0  0  0  0  # atno 17371 bound_to 10713
  139.9587  134.7490  156.0285 LP  0  0  0  0  0  0  0  0  0  0  0  0  # atno 17394 bound_to 11000
  141.1315  133.6585  156.3477 LP  0  0  0  0  0  0  0  0  0  0  0  0  # atno 17395 bound_to 11000

$$$$
