AV-unprocessed.smi:2351|AV-procd|sdf|9375|dock4
  -GOLD-   2272013 03D 1   1.00000     0.00000
 Structure written by MMmdl.
 47 49  0  0  0  0  0  0  0  0  2 V2000
  150.0975  136.4199  156.2978 O   0  0  0  0  0  0  0  0  0  0  0  0
  149.8262  136.3628  155.0987 C   0  0  0  0  0  0  0  0  0  0  0  0
  149.5561  135.2403  154.4105 N   0  0  0  0  0  0  0  0  0  0  0  0
  149.4988  133.8982  154.8772 C   0  0  0  0  0  0  0  0  0  0  0  0
  150.1205  133.4387  156.0636 C   0  0  0  0  0  0  0  0  0  0  0  0
  149.9981  132.0767  156.4054 C   0  0  0  0  0  0  0  0  0  0  0  0
  149.3236  131.1787  155.6564 N   0  0  0  0  0  0  0  0  0  0  0  0
  148.7437  131.6176  154.5194 C   0  0  0  0  0  0  0  0  0  0  0  0
  148.8060  132.9572  154.0862 C   0  0  0  0  0  0  0  0  0  0  0  0
  148.2043  133.3307  152.9309 F   0  0  0  0  0  0  0  0  0  0  0  0
  149.7473  137.4449  154.3104 N   0  0  0  0  0  0  0  0  0  0  0  0
  149.9434  138.8221  154.7541 C   0  0  2  0  0  0  0  0  0  0  0  0
  151.3563  138.9900  155.3337 C   0  0  0  0  0  0  0  0  0  0  0  0
  151.5672  140.4132  155.8772 C   0  0  0  0  0  0  0  0  0  0  0  0
  150.5427  140.7578  156.8974 N   0  3  1  0  0  0  0  0  0  0  0  0
  150.7956  142.0723  157.5438 C   0  0  0  0  0  0  0  0  0  0  0  0
  152.0574  142.0529  158.4276 C   0  0  1  0  0  0  0  0  0  0  0  0
  152.3212  143.3723  159.1262 C   0  0  0  0  0  0  0  0  0  0  0  0
  153.2887  142.9630  160.2319 C   0  0  0  0  0  0  0  0  0  0  0  0
  152.9424  141.6240  160.5711 O   0  0  0  0  0  0  0  0  0  0  0  0
  152.0092  141.1064  159.6287 C   0  0  0  0  0  0  0  0  0  0  0  0
  149.1660  140.6335  156.3491 C   0  0  0  0  0  0  0  0  0  0  0  0
  148.9032  139.2143  155.8185 C   0  0  0  0  0  0  0  0  0  0  0  0
  149.2868  135.3666  153.4459 H   0  0  0  0  0  0  0  0  0  0  0  0
  150.6920  134.0896  156.7067 H   0  0  0  0  0  0  0  0  0  0  0  0
  150.4611  131.6971  157.3041 H   0  0  0  0  0  0  0  0  0  0  0  0
  148.2152  130.8785  153.9358 H   0  0  0  0  0  0  0  0  0  0  0  0
  149.5170  137.3068  153.3371 H   0  0  0  0  0  0  0  0  0  0  0  0
  149.8452  139.4909  153.8965 H   0  0  0  0  0  0  0  0  0  0  0  0
  151.5182  138.2682  156.1360 H   0  0  0  0  0  0  0  0  0  0  0  0
  152.1029  138.7748  154.5682 H   0  0  0  0  0  0  0  0  0  0  0  0
  152.5629  140.4791  156.3180 H   0  0  0  0  0  0  0  0  0  0  0  0
  151.5304  141.1380  155.0625 H   0  0  0  0  0  0  0  0  0  0  0  0
  150.9522  142.8284  156.7727 H   0  0  0  0  0  0  0  0  0  0  0  0
  149.9212  142.4050  158.1056 H   0  0  0  0  0  0  0  0  0  0  0  0
  152.9292  141.8111  157.8169 H   0  0  0  0  0  0  0  0  0  0  0  0
  152.7342  144.1343  158.4644 H   0  0  0  0  0  0  0  0  0  0  0  0
  151.4008  143.7630  159.5632 H   0  0  0  0  0  0  0  0  0  0  0  0
  154.3151  142.9726  159.8633 H   0  0  0  0  0  0  0  0  0  0  0  0
  153.2335  143.6222  161.0985 H   0  0  0  0  0  0  0  0  0  0  0  0
  151.0200  141.1126  160.0886 H   0  0  0  0  0  0  0  0  0  0  0  0
  152.2540  140.0784  159.3615 H   0  0  0  0  0  0  0  0  0  0  0  0
  148.4303  140.8688  157.1167 H   0  0  0  0  0  0  0  0  0  0  0  0
  149.0259  141.3612  155.5481 H   0  0  0  0  0  0  0  0  0  0  0  0
  147.8970  139.1616  155.4006 H   0  0  0  0  0  0  0  0  0  0  0  0
  148.9316  138.5051  156.6470 H   0  0  0  0  0  0  0  0  0  0  0  0
  150.6339  140.0636  157.6254 H   0  0  0  0  0  0  0  0  0  0  0  0
  1  2  2  0  0  0  0
  2  3  1  0  0  0  0
  2 11  1  0  0  0  0
  3  4  1  0  0  0  0
  3 24  1  0  0  0  0
  4  9  1  0  0  0  0
  4  5  2  0  0  0  0
  5  6  1  0  0  0  0
  5 25  1  0  0  0  0
  6  7  2  0  0  0  0
  6 26  1  0  0  0  0
  7  8  1  0  0  0  0
  8  9  2  0  0  0  0
  8 27  1  0  0  0  0
  9 10  1  0  0  0  0
 11 12  1  0  0  0  0
 11 28  1  0  0  0  0
 12 23  1  0  0  0  0
 12 13  1  0  0  0  0
 12 29  1  0  0  0  0
 13 14  1  0  0  0  0
 13 30  1  0  0  0  0
 13 31  1  0  0  0  0
 14 15  1  0  0  0  0
 14 32  1  0  0  0  0
 14 33  1  0  0  0  0
 15 16  1  0  0  0  0
 15 22  1  0  0  0  0
 15 47  1  0  0  0  0
 16 17  1  0  0  0  0
 16 34  1  0  0  0  0
 16 35  1  0  0  0  0
 17 21  1  0  0  0  0
 17 18  1  0  0  0  0
 17 36  1  0  0  0  0
 18 19  1  0  0  0  0
 18 37  1  0  0  0  0
 18 38  1  0  0  0  0
 19 20  1  0  0  0  0
 19 39  1  0  0  0  0
 19 40  1  0  0  0  0
 20 21  1  0  0  0  0
 21 41  1  0  0  0  0
 21 42  1  0  0  0  0
 22 23  1  0  0  0  0
 22 43  1  0  0  0  0
 22 44  1  0  0  0  0
 23 45  1  0  0  0  0
 23 46  1  0  0  0  0
M  CHG  1  15   1
M  END
> <s_m_source_file>
AV-unprocessed.smi

> <i_m_source_file_index>
2351

> <i_lp_mmshare_version>
43012

> <i_f3d_flags>
0

> <s_epik_input>
RmMxW2NIXW5bY0hdW2NIXWMxW05IXUMoPU8pW05IXVtDSF0yW0NIMl1bQ0gyXU4oW0NIMl1bQ0gyXTIpW0NIMl1bQ0BASF0zW0NIMl1bQ0gyXU9bQ0gyXTM=

> <s_epik_cmdline>
J2VwaWtfcHl0aG9uJywgJy1waCcsICc3LjAnLCAnLXRuJywgJzgnLCAnLW1hJywgJzIwMCcsICctbWV0YWxfYmluZGluZycsICctaW1hZScsICc8aW5maWxlLm1hZT4nLCAnLW9tYWUnLCAnPG91dGZpbGUubWFlPic=

> <r_epik_Ionization_Penalty>
0.0102464

> <r_epik_Ionization_Penalty_Charging>
0.00747775

> <r_epik_Ionization_Penalty_Neutral>
0.00276864

> <r_epik_State_Penalty>
0.00558817

> <r_epik_Charging_Adjusted_Penalty>
0.0130659

> <i_epik_Tot_Q>
1

> <i_epik_Tot_abs_Q>
1

> <r_epik_Metal_State_Penalty>
-0

> <b_epik_Metal_Only>
0

> <s_lp_Force_Field>
OPLS_2005

> <r_lp_Energy>
39.8259

> <b_lp_Chiralities_Consistent>
1

> <s_lp_Variant>
AV-unprocessed.smi:2351-2

> <Gold.Version>
5.8.1

> <Gold.Id.Protein>
6NUR|6NUR_protein|mol2

> <Gold.PLP.Fitness>
46.2446

> <Gold.PLP.PLP>
-40.5566

> <Gold.PLP.part.hbond>
-2.1154

> <Gold.PLP.part.metal>
0.0000

> <Gold.PLP.part.buried>
-4.8233

> <Gold.PLP.part.nonpolar>
-32.8515

> <Gold.PLP.part.repulsive>
0.1109

> <Gold.PLP.ligand.clash>
0.0000

> <Gold.PLP.ligand.torsion>
0.1685

> <Gold.PLP.Chemscore.Hbond>
2.0000

> <Gold.PLP.Chemscore.CHOScore>
0.0000

> <Gold.PLP.Chemscore.Metal>
0.0000

> <Gold.Chemscore.Hbonds>
donor molecule, donor type, donor heavy atom, donor atom, acceptor molecule, acceptor atom, score
      L1  H     3    24       P1  7948  1.00
      L1  H    11    28       P1  7948  1.00

> <Gold.PLP.Chemscore.Internal.Correction>
0.0249

> <Gold.Rescore>
     Score         DG    S(hbond)    S(metal)    S(lipo)     H(rot)  DE(clash)    DE(int)     intcor
     16.13     -18.84       1.75        0.00      95.84       1.45       0.11       2.60       ----

> <Gold.Chemscore.Fitness>
16.1327

> <Gold.Chemscore.DG>
-18.8430

> <Gold.Chemscore.ZeroCoef>
-5.4800

> <Gold.Chemscore.Hbond>
1.7537

> <Gold.Chemscore.Metal>
0.0000

> <Gold.Chemscore.Lipo>
95.8403

> <Gold.Chemscore.Internal_Hbond>
0.0000

> <Gold.Chemscore.DEClash>
0.1082

> <Gold.Chemscore.DEInternal>
2.6021

> <Gold.Chemscore.Rot>
1.4483

> <Gold.Chemscore.Internal.Correction>
   9.000000E+99

> <Gold.Chemscore.Hbonds>
donor molecule, donor type, donor heavy atom, donor atom, acceptor molecule, acceptor atom, score
      L1  H     3    24       P1  7948  0.25
      L1  H    11    28       P1  7948  0.85

> <Gold.Chemscore.Hbond.Weighted>
-5.8574

> <Gold.Chemscore.Metal.Weighted>
-0.0000

> <Gold.Chemscore.Lipo.Weighted>
-11.2133

> <Gold.Chemscore.Internal_Hbond.Weighted>
0.0000

> <Gold.Chemscore.DEClash.Weighted>
0.1082

> <Gold.Chemscore.DEInternal.Weighted>
2.6021

> <Gold.Chemscore.Rot.Weighted>
3.7077

> <Gold.Chemscore.Internal.Correction.Weighted>
   9.000000E+99

> <Gold.Protein.RotatedTorsions>
[ 6907 6896 6895 6894 ] final -135.62 input  -60.11 | X-H torsion
[ 7974 7965 7964 7962 ] final   32.15 input  175.53 | X-H torsion
[ 8008 7997 7996 7995 ] final  171.11 input   59.86 | X-H torsion
[ 10167 10162 10161 10158 ] final -111.55 input  -65.29 | X-H torsion
[ 10718 10713 10712 10709 ] final  150.39 input   66.30 | X-H torsion
[ 10763 10752 10751 10750 ] final  119.85 input  -60.55 | X-H torsion
[ 11005 11000 10999 10996 ] final  -92.68 input  -57.11 | X-H torsion

> <Gold.Protein.ActiveResidues>
 VAL166  LYS551  ARG553  GLY616  TRP617  ASP618  TYR619  PRO620  LYS621  CYS622 
 ASP623  PHE694  ASN695  SER759  ASP760  ASP761  ALA762  ILE779  LEU786  VAL792 
 PHE793  MET794  SER795  GLU796  ALA797  LYS798  CYS799  TRP800  GLU811  SER814 

> <Gold.Protein.RotatedAtoms>
  151.0001  133.6065  159.2696 H   0  0  0  0  0  0  0  0  0  0  0  0  # atno 6907 bound_to 6896
  151.3254  135.0828  159.9330 H   0  0  0  0  0  0  0  0  0  0  0  0  # atno 6908 bound_to 6896
  152.5271  133.9640  159.7785 H   0  0  0  0  0  0  0  0  0  0  0  0  # atno 6909 bound_to 6896
  146.1504  139.6563  142.9102 H   0  0  0  0  0  0  0  0  0  0  0  0  # atno 7974 bound_to 7965
  156.1302  140.1520  156.9076 H   0  0  0  0  0  0  0  0  0  0  0  0  # atno 8008 bound_to 7997
  154.4903  140.0853  156.7620 H   0  0  0  0  0  0  0  0  0  0  0  0  # atno 8009 bound_to 7997
  155.4269  140.3425  155.4278 H   0  0  0  0  0  0  0  0  0  0  0  0  # atno 8010 bound_to 7997
  140.1324  143.4349  152.1618 H   0  0  0  0  0  0  0  0  0  0  0  0  # atno 10167 bound_to 10162
  157.2840  131.0841  151.1511 H   0  0  0  0  0  0  0  0  0  0  0  0  # atno 10718 bound_to 10713
  153.5895  135.3468  155.2905 H   0  0  0  0  0  0  0  0  0  0  0  0  # atno 10763 bound_to 10752
  154.8655  135.4201  154.2532 H   0  0  0  0  0  0  0  0  0  0  0  0  # atno 10764 bound_to 10752
  153.3336  135.7046  153.6997 H   0  0  0  0  0  0  0  0  0  0  0  0  # atno 10765 bound_to 10752
  141.1516  133.7837  157.0053 H   0  0  0  0  0  0  0  0  0  0  0  0  # atno 11005 bound_to 11000
  145.4836  141.0438  143.2632 LP  0  0  0  0  0  0  0  0  0  0  0  0  # atno 17320 bound_to 7965
  144.7898  139.6352  143.7118 LP  0  0  0  0  0  0  0  0  0  0  0  0  # atno 17321 bound_to 7965
  139.5513  144.7339  151.4427 LP  0  0  0  0  0  0  0  0  0  0  0  0  # atno 17342 bound_to 10162
  140.6809  143.8083  150.7120 LP  0  0  0  0  0  0  0  0  0  0  0  0  # atno 17343 bound_to 10162
  157.2933  130.6807  149.6126 LP  0  0  0  0  0  0  0  0  0  0  0  0  # atno 17370 bound_to 10713
  155.9665  130.4414  150.5339 LP  0  0  0  0  0  0  0  0  0  0  0  0  # atno 17371 bound_to 10713
  140.0913  134.9591  157.1780 LP  0  0  0  0  0  0  0  0  0  0  0  0  # atno 17394 bound_to 11000
  140.3442  134.2670  155.7207 LP  0  0  0  0  0  0  0  0  0  0  0  0  # atno 17395 bound_to 11000

$$$$
