AV-unprocessed.smi:28|AV-procd|sdf|190|dock4
  -GOLD-   2262015453D 1   1.00000     0.00000
 Structure written by MMmdl.
 41 44  0  0  0  0  0  0  0  0  1 V2000
  151.8343  135.8395  155.9202 O   0  0  0  0  0  0  0  0  0  0  0  0
  151.0181  136.7111  155.6168 C   0  0  0  0  0  0  0  0  0  0  0  0
  149.6022  136.4387  155.3936 C   0  0  0  0  0  0  0  0  0  0  0  0
  149.1369  135.1857  155.5329 F   0  0  0  0  0  0  0  0  0  0  0  0
  148.7490  137.4241  155.0405 C   0  0  0  0  0  0  0  0  0  0  0  0
  149.1442  138.7406  154.8681 N   0  0  0  0  0  0  0  0  0  0  0  0
  148.1649  139.8158  154.4469 C   0  0  1  0  0  0  0  0  0  0  0  0
  147.3835  139.3645  153.2082 C   0  0  0  0  0  0  0  0  0  0  0  0
  146.1863  138.6833  153.8340 C   0  0  0  0  0  0  0  0  0  0  0  0
  145.9460  139.5505  155.0657 C   0  0  0  0  0  0  0  0  0  0  0  0
  147.2321  140.0191  155.4694 O   0  0  0  0  0  0  0  0  0  0  0  0
  150.4970  139.0955  155.0612 C   0  0  0  0  0  0  0  0  0  0  0  0
  150.8754  140.2564  154.8860 O   0  0  0  0  0  0  0  0  0  0  0  0
  151.3910  138.0668  155.4417 N   0  0  0  0  0  0  0  0  0  0  0  0
  152.7953  138.4115  155.5892 C   0  0  0  0  0  0  0  0  0  0  0  0
  153.0461  138.9854  156.9484 C   0  0  0  0  0  0  0  0  0  0  0  0
  153.8020  138.4726  157.9205 N   0  0  0  0  0  0  0  0  0  0  0  0
  153.7440  139.3786  158.9545 N   0  0  0  0  0  0  0  0  0  0  0  0
  152.9447  140.3674  158.5399 C   0  0  0  0  0  0  0  0  0  0  0  0
  152.5652  141.5987  159.2282 C   0  0  0  0  0  0  0  0  0  0  0  0
  153.0984  141.8426  160.5142 C   0  0  0  0  0  0  0  0  0  0  0  0
  152.7666  143.0152  161.2184 C   0  0  0  0  0  0  0  0  0  0  0  0
  151.9004  143.9601  160.6396 C   0  0  0  0  0  0  0  0  0  0  0  0
  151.3733  143.7325  159.3549 C   0  0  0  0  0  0  0  0  0  0  0  0
  151.7029  142.5614  158.6426 C   0  0  0  0  0  0  0  0  0  0  0  0
  150.9834  142.3494  156.8884 Br  0  0  0  0  0  0  0  0  0  0  0  0
  152.4797  140.1747  157.2765 O   0  0  0  0  0  0  0  0  0  0  0  0
  147.7159  137.1534  154.8821 H   0  0  0  0  0  0  0  0  0  0  0  0
  148.7582  140.7194  154.2981 H   0  0  0  0  0  0  0  0  0  0  0  0
  147.0733  140.2492  152.6510 H   0  0  0  0  0  0  0  0  0  0  0  0
  147.9704  138.7209  152.5520 H   0  0  0  0  0  0  0  0  0  0  0  0
  145.3230  138.6367  153.1699 H   0  0  0  0  0  0  0  0  0  0  0  0
  146.4437  137.6656  154.1305 H   0  0  0  0  0  0  0  0  0  0  0  0
  145.3287  140.4117  154.8069 H   0  0  0  0  0  0  0  0  0  0  0  0
  145.4491  139.0069  155.8695 H   0  0  0  0  0  0  0  0  0  0  0  0
  153.3932  137.5143  155.4211 H   0  0  0  0  0  0  0  0  0  0  0  0
  153.0744  139.1174  154.8058 H   0  0  0  0  0  0  0  0  0  0  0  0
  153.7626  141.1242  160.9727 H   0  0  0  0  0  0  0  0  0  0  0  0
  153.1765  143.1893  162.2023 H   0  0  0  0  0  0  0  0  0  0  0  0
  151.6451  144.8613  161.1774 H   0  0  0  0  0  0  0  0  0  0  0  0
  150.7165  144.4651  158.9096 H   0  0  0  0  0  0  0  0  0  0  0  0
  1  2  2  0  0  0  0
  2 14  1  0  0  0  0
  2  3  1  0  0  0  0
  3  4  1  0  0  0  0
  3  5  2  0  0  0  0
  5  6  1  0  0  0  0
  5 28  1  0  0  0  0
  6  7  1  0  0  0  0
  6 12  1  0  0  0  0
  7 11  1  0  0  0  0
  7  8  1  0  0  0  0
  7 29  1  0  0  0  0
  8  9  1  0  0  0  0
  8 30  1  0  0  0  0
  8 31  1  0  0  0  0
  9 10  1  0  0  0  0
  9 32  1  0  0  0  0
  9 33  1  0  0  0  0
 10 11  1  0  0  0  0
 10 34  1  0  0  0  0
 10 35  1  0  0  0  0
 12 13  2  0  0  0  0
 12 14  1  0  0  0  0
 14 15  1  0  0  0  0
 15 16  1  0  0  0  0
 15 36  1  0  0  0  0
 15 37  1  0  0  0  0
 16 27  1  0  0  0  0
 16 17  2  0  0  0  0
 17 18  1  0  0  0  0
 18 19  2  0  0  0  0
 19 20  1  0  0  0  0
 19 27  1  0  0  0  0
 20 25  1  0  0  0  0
 20 21  2  0  0  0  0
 21 22  1  0  0  0  0
 21 38  1  0  0  0  0
 22 23  2  0  0  0  0
 22 39  1  0  0  0  0
 23 24  1  0  0  0  0
 23 40  1  0  0  0  0
 24 25  2  0  0  0  0
 24 41  1  0  0  0  0
 25 26  1  0  0  0  0
M  END
> <s_m_source_file>
AV-unprocessed.smi

> <i_m_source_file_index>
28

> <i_lp_mmshare_version>
43012

> <i_f3d_flags>
0

> <s_epik_input>
TzFbQ0gyXVtDSDJdW0NIMl1bQ0BIXTFuKFtjSF1jKEYpYzI9TyljKD1PKW4yW0NIMl1jM25uYyhvMyktYzRbY0hdW2NIXVtjSF1bY0hdYzRCcg==

> <s_epik_cmdline>
J2VwaWtfcHl0aG9uJywgJy1waCcsICc3LjAnLCAnLXRuJywgJzgnLCAnLW1hJywgJzIwMCcsICctbWV0YWxfYmluZGluZycsICctaW1hZScsICc8aW5maWxlLm1hZT4nLCAnLW9tYWUnLCAnPG91dGZpbGUubWFlPic=

> <r_lp_tautomer_probability>
1

> <r_epik_Ionization_Penalty>
2.5628e-09

> <r_epik_Ionization_Penalty_Charging>
2.54231e-09

> <r_epik_Ionization_Penalty_Neutral>
2.0492e-11

> <r_epik_State_Penalty>
-0

> <r_epik_Charging_Adjusted_Penalty>
2.54231e-09

> <i_epik_Tot_Q>
0

> <i_epik_Tot_abs_Q>
0

> <r_epik_Metal_State_Penalty>
-0

> <b_epik_Metal_Only>
0

> <s_epik_Chemistry_Notes>
This compound contains an acetal/aminal-like group ( X-CH(R)-Y where X, Y are N, S, or O) that may be acid/base labile, releasing an aldehyde.

> <s_lp_Force_Field>
OPLS_2005

> <r_lp_Energy>
35.5142

> <b_lp_Chiralities_Consistent>
1

> <s_lp_Variant>
AV-unprocessed.smi:28-2

> <Gold.Version>
5.8.1

> <Gold.Id.Protein>
6NUR|6NUR_protein|mol2

> <Gold.PLP.Fitness>
46.1611

> <Gold.PLP.PLP>
-41.0247

> <Gold.PLP.part.hbond>
-4.5473

> <Gold.PLP.part.metal>
0.0000

> <Gold.PLP.part.buried>
-1.8580

> <Gold.PLP.part.nonpolar>
-35.4337

> <Gold.PLP.part.repulsive>
0.1058

> <Gold.PLP.ligand.clash>
0.0000

> <Gold.PLP.ligand.torsion>
0.4485

> <Gold.PLP.Chemscore.Hbond>
2.0000

> <Gold.PLP.Chemscore.CHOScore>
0.0000

> <Gold.PLP.Chemscore.Metal>
0.0000

> <Gold.Chemscore.Hbonds>
donor molecule, donor type, donor heavy atom, donor atom, acceptor molecule, acceptor atom, score
      P1  H  7989  7998       L1    13  1.00
      P1  H 10752 10765       L1     1  1.00

> <Gold.PLP.Chemscore.Internal.Correction>
0.0334

> <Gold.Rescore>
     Score         DG    S(hbond)    S(metal)    S(lipo)     H(rot)  DE(clash)    DE(int)     intcor
     16.55     -19.06       1.99        0.00      96.52       1.70       0.39       2.12       ----

> <Gold.Chemscore.Fitness>
16.5515

> <Gold.Chemscore.DG>
-19.0615

> <Gold.Chemscore.ZeroCoef>
-5.4800

> <Gold.Chemscore.Hbond>
1.9867

> <Gold.Chemscore.Metal>
0.0000

> <Gold.Chemscore.Lipo>
96.5203

> <Gold.Chemscore.Internal_Hbond>
0.0000

> <Gold.Chemscore.DEClash>
0.3879

> <Gold.Chemscore.DEInternal>
2.1221

> <Gold.Chemscore.Rot>
1.6980

> <Gold.Chemscore.Internal.Correction>
   9.000000E+99

> <Gold.Chemscore.Hbonds>
donor molecule, donor type, donor heavy atom, donor atom, acceptor molecule, acceptor atom, score
      P1  H  7989  7998       L1    13  0.99
      P1  H 10752 10765       L1     1  0.99

> <Gold.Chemscore.Hbond.Weighted>
-6.6355

> <Gold.Chemscore.Metal.Weighted>
-0.0000

> <Gold.Chemscore.Lipo.Weighted>
-11.2929

> <Gold.Chemscore.Internal_Hbond.Weighted>
0.0000

> <Gold.Chemscore.DEClash.Weighted>
0.3879

> <Gold.Chemscore.DEInternal.Weighted>
2.1221

> <Gold.Chemscore.Rot.Weighted>
4.3469

> <Gold.Chemscore.Internal.Correction.Weighted>
   9.000000E+99

> <Gold.Protein.RotatedTorsions>
[ 6907 6896 6895 6894 ] final  111.52 input  -60.11 | X-H torsion
[ 7974 7965 7964 7962 ] final  164.44 input  175.53 | X-H torsion
[ 8008 7997 7996 7995 ] final   17.33 input   59.86 | X-H torsion
[ 10167 10162 10161 10158 ] final  -68.62 input  -65.29 | X-H torsion
[ 10718 10713 10712 10709 ] final   90.68 input   66.30 | X-H torsion
[ 10763 10752 10751 10750 ] final -145.75 input  -60.55 | X-H torsion
[ 11005 11000 10999 10996 ] final  -98.38 input  -57.11 | X-H torsion

> <Gold.Protein.ActiveResidues>
 VAL166  LYS551  ARG553  GLY616  TRP617  ASP618  TYR619  PRO620  LYS621  CYS622 
 ASP623  PHE694  ASN695  SER759  ASP760  ASP761  ALA762  ILE779  LEU786  VAL792 
 PHE793  MET794  SER795  GLU796  ALA797  LYS798  CYS799  TRP800  GLU811  SER814 

> <Gold.Protein.RotatedAtoms>
  152.4965  133.8646  159.7267 H   0  0  0  0  0  0  0  0  0  0  0  0  # atno 6907 bound_to 6896
  150.9149  133.6943  159.2852 H   0  0  0  0  0  0  0  0  0  0  0  0  # atno 6908 bound_to 6896
  151.4339  135.1017  159.9703 H   0  0  0  0  0  0  0  0  0  0  0  0  # atno 6909 bound_to 6896
  144.7545  139.8327  143.6355 H   0  0  0  0  0  0  0  0  0  0  0  0  # atno 7974 bound_to 7965
  154.8899  140.2985  155.5376 H   0  0  0  0  0  0  0  0  0  0  0  0  # atno 8008 bound_to 7997
  156.3021  140.2426  156.3848 H   0  0  0  0  0  0  0  0  0  0  0  0  # atno 8009 bound_to 7997
  154.8629  140.0404  157.1665 H   0  0  0  0  0  0  0  0  0  0  0  0  # atno 8010 bound_to 7997
  140.5494  143.2312  151.6941 H   0  0  0  0  0  0  0  0  0  0  0  0  # atno 10167 bound_to 10162
  157.6959  131.0379  150.3614 H   0  0  0  0  0  0  0  0  0  0  0  0  # atno 10718 bound_to 10713
  154.8368  135.3405  154.6554 H   0  0  0  0  0  0  0  0  0  0  0  0  # atno 10763 bound_to 10752
  153.7168  135.6960  153.5027 H   0  0  0  0  0  0  0  0  0  0  0  0  # atno 10764 bound_to 10752
  153.2411  135.4384  155.0652 H   0  0  0  0  0  0  0  0  0  0  0  0  # atno 10765 bound_to 10752
  141.1346  133.8241  157.0832 H   0  0  0  0  0  0  0  0  0  0  0  0  # atno 11005 bound_to 11000
  146.1538  139.4629  143.0032 LP  0  0  0  0  0  0  0  0  0  0  0  0  # atno 17320 bound_to 7965
  145.6828  141.0186  143.1597 LP  0  0  0  0  0  0  0  0  0  0  0  0  # atno 17321 bound_to 7965
  139.5021  144.3843  152.0345 LP  0  0  0  0  0  0  0  0  0  0  0  0  # atno 17342 bound_to 10162
  140.2958  144.3702  150.6074 LP  0  0  0  0  0  0  0  0  0  0  0  0  # atno 17343 bound_to 10162
  156.4050  130.3923  149.6932 LP  0  0  0  0  0  0  0  0  0  0  0  0  # atno 17370 bound_to 10713
  156.4236  130.7781  151.2799 LP  0  0  0  0  0  0  0  0  0  0  0  0  # atno 17371 bound_to 10713
  140.0438  134.9840  157.1012 LP  0  0  0  0  0  0  0  0  0  0  0  0  # atno 17394 bound_to 11000
  140.4094  134.1998  155.7163 LP  0  0  0  0  0  0  0  0  0  0  0  0  # atno 17395 bound_to 11000

$$$$
