AV-unprocessed.smi:2824|AV-procd|sdf|10887|dock5
  -GOLD-   2272015333D 1   1.00000     0.00000
 Structure written by MMmdl.
 38 39  0  0  0  0  0  0  0  0  1 V2000
  147.0116  138.0267  154.8489 C   0  0  0  0  0  0  0  0  0  0  0  0
  147.8366  139.2810  155.0689 C   0  0  0  0  0  0  0  0  0  0  0  0
  147.8347  140.2967  154.0896 C   0  0  0  0  0  0  0  0  0  0  0  0
  148.5933  141.4659  154.2789 C   0  0  0  0  0  0  0  0  0  0  0  0
  149.3555  141.6229  155.4501 C   0  0  0  0  0  0  0  0  0  0  0  0
  149.3606  140.6126  156.4308 C   0  0  0  0  0  0  0  0  0  0  0  0
  148.6004  139.4286  156.2507 C   0  0  0  0  0  0  0  0  0  0  0  0
  148.5568  138.3989  157.1682 O   0  0  0  0  0  0  0  0  0  0  0  0
  149.3720  138.4878  158.3291 C   0  0  0  0  0  0  0  0  0  0  0  0
  149.2358  137.1823  159.1306 C   0  0  1  0  0  0  0  0  0  0  0  0
  149.9879  137.3384  160.3188 O   0  0  0  0  0  0  0  0  0  0  0  0
  147.7696  136.9038  159.5293 C   0  0  0  0  0  0  0  0  0  0  0  0
  147.6731  135.9977  160.6802 N   0  0  0  0  0  0  0  0  0  0  0  0
  148.1731  134.7297  160.4406 N   0  0  0  0  0  0  0  0  0  0  0  0
  148.1471  133.8124  161.3532 C   0  0  0  0  0  0  0  0  0  0  0  0
  148.7079  132.4588  160.9934 C   0  0  0  0  0  0  0  0  0  0  0  0
  149.2648  132.4759  159.7822 F   0  0  0  0  0  0  0  0  0  0  0  0
  149.6352  132.0972  161.8807 F   0  0  0  0  0  0  0  0  0  0  0  0
  147.7374  131.5443  161.0005 F   0  0  0  0  0  0  0  0  0  0  0  0
  147.5873  134.1294  162.6566 C   0  0  0  0  0  0  0  0  0  0  0  0
  147.1015  135.3677  162.8884 C   0  0  0  0  0  0  0  0  0  0  0  0
  147.1213  136.4055  161.8605 C   0  0  0  0  0  0  0  0  0  0  0  0
  146.6791  137.5402  162.0379 O   0  0  0  0  0  0  0  0  0  0  0  0
  146.5180  138.0380  153.8769 H   0  0  0  0  0  0  0  0  0  0  0  0
  146.2442  137.9395  155.6185 H   0  0  0  0  0  0  0  0  0  0  0  0
  147.6465  137.1416  154.8951 H   0  0  0  0  0  0  0  0  0  0  0  0
  147.2507  140.1834  153.1880 H   0  0  0  0  0  0  0  0  0  0  0  0
  148.5894  142.2413  153.5271 H   0  0  0  0  0  0  0  0  0  0  0  0
  149.9377  142.5206  155.5983 H   0  0  0  0  0  0  0  0  0  0  0  0
  149.9574  140.7726  157.3154 H   0  0  0  0  0  0  0  0  0  0  0  0
  150.4162  138.6827  158.0770 H   0  0  0  0  0  0  0  0  0  0  0  0
  149.0124  139.3229  158.9324 H   0  0  0  0  0  0  0  0  0  0  0  0
  149.6348  136.3536  158.5442 H   0  0  0  0  0  0  0  0  0  0  0  0
  149.6384  138.0711  160.8023 H   0  0  0  0  0  0  0  0  0  0  0  0
  147.2409  137.8394  159.7235 H   0  0  0  0  0  0  0  0  0  0  0  0
  147.2362  136.4528  158.6905 H   0  0  0  0  0  0  0  0  0  0  0  0
  147.5615  133.3777  163.4314 H   0  0  0  0  0  0  0  0  0  0  0  0
  146.6866  135.5989  163.8585 H   0  0  0  0  0  0  0  0  0  0  0  0
  1  2  1  0  0  0  0
  1 24  1  0  0  0  0
  1 25  1  0  0  0  0
  1 26  1  0  0  0  0
  2  7  1  0  0  0  0
  2  3  2  0  0  0  0
  3  4  1  0  0  0  0
  3 27  1  0  0  0  0
  4  5  2  0  0  0  0
  4 28  1  0  0  0  0
  5  6  1  0  0  0  0
  5 29  1  0  0  0  0
  6  7  2  0  0  0  0
  6 30  1  0  0  0  0
  7  8  1  0  0  0  0
  8  9  1  0  0  0  0
  9 10  1  0  0  0  0
  9 31  1  0  0  0  0
  9 32  1  0  0  0  0
 10 11  1  0  0  0  0
 10 12  1  0  0  0  0
 10 33  1  0  0  0  0
 11 34  1  0  0  0  0
 12 13  1  0  0  0  0
 12 35  1  0  0  0  0
 12 36  1  0  0  0  0
 13 22  1  0  0  0  0
 13 14  1  0  0  0  0
 14 15  2  0  0  0  0
 15 16  1  0  0  0  0
 15 20  1  0  0  0  0
 16 17  1  0  0  0  0
 16 18  1  0  0  0  0
 16 19  1  0  0  0  0
 20 21  2  0  0  0  0
 20 37  1  0  0  0  0
 21 22  1  0  0  0  0
 21 38  1  0  0  0  0
 22 23  2  0  0  0  0
M  END
> <s_m_source_file>
AV-unprocessed.smi

> <i_m_source_file_index>
2824

> <i_lp_mmshare_version>
43012

> <i_f3d_flags>
0

> <s_epik_input>
W0NIM11jMVtjSF1bY0hdW2NIXVtjSF1jMU9bQ0gyXVtDQEhdKFtPSF0pW0NIMl1uMm5jKEMoRikoRilGKVtjSF1bY0hdYzI9Tw==

> <s_epik_cmdline>
J2VwaWtfcHl0aG9uJywgJy1waCcsICc3LjAnLCAnLXRuJywgJzgnLCAnLW1hJywgJzIwMCcsICctbWV0YWxfYmluZGluZycsICctaW1hZScsICc8aW5maWxlLm1hZT4nLCAnLW9tYWUnLCAnPG91dGZpbGUubWFlPic=

> <r_lp_tautomer_probability>
1

> <r_epik_Ionization_Penalty>
1.2156e-07

> <r_epik_Ionization_Penalty_Charging>
4.38548e-09

> <r_epik_Ionization_Penalty_Neutral>
1.17174e-07

> <r_epik_State_Penalty>
-0

> <r_epik_Charging_Adjusted_Penalty>
4.38548e-09

> <i_epik_Tot_Q>
0

> <i_epik_Tot_abs_Q>
0

> <r_epik_Metal_State_Penalty>
-0

> <b_epik_Metal_Only>
0

> <s_lp_Force_Field>
OPLS_2005

> <r_lp_Energy>
34.0789

> <b_lp_Chiralities_Consistent>
1

> <s_lp_Variant>
AV-unprocessed.smi:2824-2

> <Gold.Version>
5.8.1

> <Gold.Id.Protein>
6NUR|6NUR_protein|mol2

> <Gold.PLP.Fitness>
42.2378

> <Gold.PLP.PLP>
-35.9208

> <Gold.PLP.part.hbond>
-3.0000

> <Gold.PLP.part.metal>
0.0000

> <Gold.PLP.part.buried>
-3.1572

> <Gold.PLP.part.nonpolar>
-29.1528

> <Gold.PLP.part.repulsive>
0.0000

> <Gold.PLP.ligand.clash>
0.0000

> <Gold.PLP.ligand.torsion>
0.3269

> <Gold.PLP.Chemscore.Hbond>
2.3120

> <Gold.PLP.Chemscore.CHOScore>
0.0000

> <Gold.PLP.Chemscore.Metal>
0.0000

> <Gold.Chemscore.Hbonds>
donor molecule, donor type, donor heavy atom, donor atom, acceptor molecule, acceptor atom, score
      P1  H  6934  6947       L1    23  0.77

> <Gold.PLP.Chemscore.Internal.Correction>
0.0348

> <Gold.Rescore>
     Score         DG    S(hbond)    S(metal)    S(lipo)     H(rot)  DE(clash)    DE(int)     intcor
     14.30     -15.21       2.53        0.00      67.71       2.60       0.04       0.87       ----

> <Gold.Chemscore.Fitness>
14.2952

> <Gold.Chemscore.DG>
-15.2070

> <Gold.Chemscore.ZeroCoef>
-5.4800

> <Gold.Chemscore.Hbond>
2.5315

> <Gold.Chemscore.Metal>
0.0000

> <Gold.Chemscore.Lipo>
67.7120

> <Gold.Chemscore.Internal_Hbond>
0.0000

> <Gold.Chemscore.DEClash>
0.0383

> <Gold.Chemscore.DEInternal>
0.8735

> <Gold.Chemscore.Rot>
2.5978

> <Gold.Chemscore.Internal.Correction>
   9.000000E+99

> <Gold.Chemscore.Hbonds>
donor molecule, donor type, donor heavy atom, donor atom, acceptor molecule, acceptor atom, score
      P1  H  6934  6947       L1    23  0.75

> <Gold.Chemscore.Hbond.Weighted>
-8.4551

> <Gold.Chemscore.Metal.Weighted>
-0.0000

> <Gold.Chemscore.Lipo.Weighted>
-7.9223

> <Gold.Chemscore.Internal_Hbond.Weighted>
0.0000

> <Gold.Chemscore.DEClash.Weighted>
0.0383

> <Gold.Chemscore.DEInternal.Weighted>
0.8735

> <Gold.Chemscore.Rot.Weighted>
6.6504

> <Gold.Chemscore.Internal.Correction.Weighted>
   9.000000E+99

> <Gold.Protein.RotatedTorsions>
[ 6907 6896 6895 6894 ] final -165.32 input  -60.11 | X-H torsion
[ 7974 7965 7964 7962 ] final   70.23 input  175.53 | X-H torsion
[ 8008 7997 7996 7995 ] final -137.53 input   59.86 | X-H torsion
[ 10167 10162 10161 10158 ] final  -77.10 input  -65.29 | X-H torsion
[ 10718 10713 10712 10709 ] final  108.94 input   66.30 | X-H torsion
[ 10763 10752 10751 10750 ] final -154.96 input  -60.55 | X-H torsion
[ 11005 11000 10999 10996 ] final   -8.34 input  -57.11 | X-H torsion

> <Gold.Protein.ActiveResidues>
 VAL166  LYS551  ARG553  GLY616  TRP617  ASP618  TYR619  PRO620  LYS621  CYS622 
 ASP623  PHE694  ASN695  SER759  ASP760  ASP761  ALA762  ILE779  LEU786  VAL792 
 PHE793  MET794  SER795  GLU796  ALA797  LYS798  CYS799  TRP800  GLU811  SER814 

> <Gold.Protein.RotatedAtoms>
  151.4258  133.3684  159.2761 H   0  0  0  0  0  0  0  0  0  0  0  0  # atno 6907 bound_to 6896
  150.9260  134.8678  159.7531 H   0  0  0  0  0  0  0  0  0  0  0  0  # atno 6908 bound_to 6896
  152.5005  134.4199  159.9529 H   0  0  0  0  0  0  0  0  0  0  0  0  # atno 6909 bound_to 6896
  145.7807  139.2886  143.1267 H   0  0  0  0  0  0  0  0  0  0  0  0  # atno 7974 bound_to 7965
  155.4133  140.0513  157.3030 H   0  0  0  0  0  0  0  0  0  0  0  0  # atno 8008 bound_to 7997
  154.4936  140.2130  155.9454 H   0  0  0  0  0  0  0  0  0  0  0  0  # atno 8009 bound_to 7997
  156.1376  140.3160  155.8449 H   0  0  0  0  0  0  0  0  0  0  0  0  # atno 8010 bound_to 7997
  140.4800  143.2404  151.8073 H   0  0  0  0  0  0  0  0  0  0  0  0  # atno 10167 bound_to 10162
  157.6564  131.0904  150.6380 H   0  0  0  0  0  0  0  0  0  0  0  0  # atno 10718 bound_to 10713
  154.7821  135.3178  154.7966 H   0  0  0  0  0  0  0  0  0  0  0  0  # atno 10763 bound_to 10752
  153.8675  135.6847  153.4781 H   0  0  0  0  0  0  0  0  0  0  0  0  # atno 10764 bound_to 10752
  153.1461  135.4719  154.9506 H   0  0  0  0  0  0  0  0  0  0  0  0  # atno 10765 bound_to 10752
  140.7224  133.8817  155.8830 H   0  0  0  0  0  0  0  0  0  0  0  0  # atno 11005 bound_to 11000
  146.0077  140.8463  142.9986 LP  0  0  0  0  0  0  0  0  0  0  0  0  # atno 17320 bound_to 7965
  144.6797  140.2444  143.7339 LP  0  0  0  0  0  0  0  0  0  0  0  0  # atno 17321 bound_to 7965
  139.4832  144.4785  151.9337 LP  0  0  0  0  0  0  0  0  0  0  0  0  # atno 17342 bound_to 10162
  140.3870  144.2664  150.5903 LP  0  0  0  0  0  0  0  0  0  0  0  0  # atno 17343 bound_to 10162
  156.6686  130.4533  149.5664 LP  0  0  0  0  0  0  0  0  0  0  0  0  # atno 17370 bound_to 10713
  156.2014  130.6622  151.1171 LP  0  0  0  0  0  0  0  0  0  0  0  0  # atno 17371 bound_to 10713
  140.9992  134.1173  157.4334 LP  0  0  0  0  0  0  0  0  0  0  0  0  # atno 17394 bound_to 11000
  139.8845  135.0063  156.6373 LP  0  0  0  0  0  0  0  0  0  0  0  0  # atno 17395 bound_to 11000

$$$$
