AV-unprocessed.smi:1703|AV-procd|sdf|6864|dock9
  -GOLD-   22720 8 53D 1   1.00000     0.00000
 Structure written by MMmdl.
 49 51  0  0  0  0  0  0  0  0  2 V2000
  154.2181  137.8131  162.1167 C   0  0  0  0  0  0  0  0  0  0  0  0
  154.7191  138.1118  160.6925 C   0  0  1  0  0  0  0  0  0  0  0  0
  153.9084  137.3980  159.5929 C   0  0  0  0  0  0  0  0  0  0  0  0
  152.5817  138.0316  159.4083 N   0  3  2  0  0  0  0  0  0  0  0  0
  151.7490  137.3218  158.4045 C   0  0  0  0  0  0  0  0  0  0  0  0
  150.2382  137.4189  158.7111 C   0  0  2  0  0  0  0  0  0  0  0  0
  149.7799  136.1598  159.1606 O   0  0  0  0  0  0  0  0  0  0  0  0
  149.3823  137.8242  157.4943 C   0  0  0  0  0  0  0  0  0  0  0  0
  150.0223  138.8438  156.6734 N   0  0  0  0  0  0  0  0  0  0  0  0
  150.4579  138.7507  155.3903 C   0  0  0  0  0  0  0  0  0  0  0  0
  150.3267  137.4947  154.5840 C   0  0  0  0  0  0  0  0  0  0  0  0
  151.5629  137.0402  154.0770 O   0  0  0  0  0  0  0  0  0  0  0  0
  151.0193  139.8507  154.8881 N   0  0  0  0  0  0  0  0  0  0  0  0
  150.9285  140.7456  155.9358 C   0  0  0  0  0  0  0  0  0  0  0  0
  151.3459  142.0922  156.0323 C   0  0  0  0  0  0  0  0  0  0  0  0
  151.1423  142.8188  157.2237 C   0  0  0  0  0  0  0  0  0  0  0  0
  150.5210  142.2106  158.3334 C   0  0  0  0  0  0  0  0  0  0  0  0
  150.0996  140.8692  158.2592 C   0  0  0  0  0  0  0  0  0  0  0  0
  150.3053  140.1480  157.0676 C   0  0  0  0  0  0  0  0  0  0  0  0
  152.7401  139.4801  159.1341 C   0  0  0  0  0  0  0  0  0  0  0  0
  153.5253  140.1565  160.2719 C   0  0  2  0  0  0  0  0  0  0  0  0
  153.7829  141.6404  159.9880 C   0  0  0  0  0  0  0  0  0  0  0  0
  154.7878  139.5127  160.4255 O   0  0  0  0  0  0  0  0  0  0  0  0
  154.2993  136.7487  162.3388 H   0  0  0  0  0  0  0  0  0  0  0  0
  153.1745  138.0927  162.2573 H   0  0  0  0  0  0  0  0  0  0  0  0
  154.8117  138.3491  162.8573 H   0  0  0  0  0  0  0  0  0  0  0  0
  155.7445  137.7445  160.6377 H   0  0  0  0  0  0  0  0  0  0  0  0
  154.4547  137.4386  158.6490 H   0  0  0  0  0  0  0  0  0  0  0  0
  153.7917  136.3432  159.8448 H   0  0  0  0  0  0  0  0  0  0  0  0
  151.9788  137.7234  157.4167 H   0  0  0  0  0  0  0  0  0  0  0  0
  152.0270  136.2672  158.3757 H   0  0  0  0  0  0  0  0  0  0  0  0
  150.0616  138.1395  159.5084 H   0  0  0  0  0  0  0  0  0  0  0  0
  149.2715  136.2855  159.9476 H   0  0  0  0  0  0  0  0  0  0  0  0
  149.1532  136.9513  156.8837 H   0  0  0  0  0  0  0  0  0  0  0  0
  148.4215  138.2177  157.8286 H   0  0  0  0  0  0  0  0  0  0  0  0
  149.8976  136.7091  155.2070 H   0  0  0  0  0  0  0  0  0  0  0  0
  149.6309  137.6554  153.7607 H   0  0  0  0  0  0  0  0  0  0  0  0
  151.4984  136.9779  153.1361 H   0  0  0  0  0  0  0  0  0  0  0  0
  151.8218  142.5680  155.1876 H   0  0  0  0  0  0  0  0  0  0  0  0
  151.4632  143.8484  157.2852 H   0  0  0  0  0  0  0  0  0  0  0  0
  150.3671  142.7754  159.2413 H   0  0  0  0  0  0  0  0  0  0  0  0
  149.6214  140.4024  159.1074 H   0  0  0  0  0  0  0  0  0  0  0  0
  153.2585  139.6166  158.1835 H   0  0  0  0  0  0  0  0  0  0  0  0
  151.7672  139.9600  159.0359 H   0  0  0  0  0  0  0  0  0  0  0  0
  152.9595  140.0847  161.2011 H   0  0  0  0  0  0  0  0  0  0  0  0
  152.8462  142.1873  159.8759 H   0  0  0  0  0  0  0  0  0  0  0  0
  154.3598  141.7740  159.0724 H   0  0  0  0  0  0  0  0  0  0  0  0
  154.3405  142.1018  160.8034 H   0  0  0  0  0  0  0  0  0  0  0  0
  152.0986  137.9453  160.2915 H   0  0  0  0  0  0  0  0  0  0  0  0
  1  2  1  0  0  0  0
  1 24  1  0  0  0  0
  1 25  1  0  0  0  0
  1 26  1  0  0  0  0
  2 23  1  0  0  0  0
  2  3  1  0  0  0  0
  2 27  1  0  0  0  0
  3  4  1  0  0  0  0
  3 28  1  0  0  0  0
  3 29  1  0  0  0  0
  4  5  1  0  0  0  0
  4 20  1  0  0  0  0
  4 49  1  0  0  0  0
  5  6  1  0  0  0  0
  5 30  1  0  0  0  0
  5 31  1  0  0  0  0
  6  7  1  0  0  0  0
  6  8  1  0  0  0  0
  6 32  1  0  0  0  0
  7 33  1  0  0  0  0
  8  9  1  0  0  0  0
  8 34  1  0  0  0  0
  8 35  1  0  0  0  0
  9 19  1  0  0  0  0
  9 10  1  0  0  0  0
 10 11  1  0  0  0  0
 10 13  2  0  0  0  0
 11 12  1  0  0  0  0
 11 36  1  0  0  0  0
 11 37  1  0  0  0  0
 12 38  1  0  0  0  0
 13 14  1  0  0  0  0
 14 19  2  0  0  0  0
 14 15  1  0  0  0  0
 15 16  2  0  0  0  0
 15 39  1  0  0  0  0
 16 17  1  0  0  0  0
 16 40  1  0  0  0  0
 17 18  2  0  0  0  0
 17 41  1  0  0  0  0
 18 19  1  0  0  0  0
 18 42  1  0  0  0  0
 20 21  1  0  0  0  0
 20 43  1  0  0  0  0
 20 44  1  0  0  0  0
 21 22  1  0  0  0  0
 21 23  1  0  0  0  0
 21 45  1  0  0  0  0
 22 46  1  0  0  0  0
 22 47  1  0  0  0  0
 22 48  1  0  0  0  0
M  CHG  1   4   1
M  END
> <s_m_source_file>
AV-unprocessed.smi

> <i_m_source_file_index>
1703

> <i_lp_mmshare_version>
43012

> <i_f3d_flags>
0

> <s_epik_input>
W0NIM11bQ0BASF0xW0NIMl1OKFtDSDJdW0NASF0oTzEpW0NIM10pW0NIMl1bQ0BIXShbT0hdKVtDSDJdbihjKG4yKVtDSDJdW09IXSljKGMyMylbY0hdW2NIXVtjSF1bY0hdMw==

> <s_epik_cmdline>
J2VwaWtfcHl0aG9uJywgJy1waCcsICc3LjAnLCAnLXRuJywgJzgnLCAnLW1hJywgJzIwMCcsICctbWV0YWxfYmluZGluZycsICctaW1hZScsICc8aW5maWxlLm1hZT4nLCAnLW9tYWUnLCAnPG91dGZpbGUubWFlPic=

> <r_epik_Ionization_Penalty>
0.655661

> <r_epik_Ionization_Penalty_Charging>
0.608065

> <r_epik_Ionization_Penalty_Neutral>
0.0475963

> <r_epik_State_Penalty>
0.695267

> <r_epik_Charging_Adjusted_Penalty>
1.30333

> <i_epik_Tot_Q>
1

> <i_epik_Tot_abs_Q>
1

> <r_epik_Metal_State_Penalty>
0.653591

> <b_epik_Metal_Only>
0

> <s_lp_Force_Field>
OPLS_2005

> <r_lp_Energy>
25.3139

> <b_lp_Chiralities_Consistent>
1

> <s_lp_Variant>
AV-unprocessed.smi:1703-12

> <Gold.Version>
5.8.1

> <Gold.Id.Protein>
6NUR|6NUR_protein|mol2

> <Gold.PLP.Fitness>
43.4191

> <Gold.PLP.PLP>
-33.7894

> <Gold.PLP.part.hbond>
-4.0000

> <Gold.PLP.part.metal>
0.0000

> <Gold.PLP.part.buried>
-7.4676

> <Gold.PLP.part.nonpolar>
-23.1127

> <Gold.PLP.part.repulsive>
0.1557

> <Gold.PLP.ligand.clash>
0.0000

> <Gold.PLP.ligand.torsion>
1.2449

> <Gold.PLP.Chemscore.Hbond>
4.0000

> <Gold.PLP.Chemscore.CHOScore>
0.0000

> <Gold.PLP.Chemscore.Metal>
0.0000

> <Gold.Chemscore.Hbonds>
donor molecule, donor type, donor heavy atom, donor atom, acceptor molecule, acceptor atom, score
      L1  H    12    38       P1  7949  1.00
      P1  H  6896  6908       L1     7  1.00
      P1  H  7989  7998       L1    13  1.00
      P1  H 10752 10763       L1    12  1.00

> <Gold.PLP.Chemscore.Internal.Correction>
0.1194

> <Gold.Rescore>
     Score         DG    S(hbond)    S(metal)    S(lipo)     H(rot)  DE(clash)    DE(int)     intcor
     15.75     -17.31       2.63        0.00      90.90       2.96       0.33       1.22       ----

> <Gold.Chemscore.Fitness>
15.7524

> <Gold.Chemscore.DG>
-17.3092

> <Gold.Chemscore.ZeroCoef>
-5.4800

> <Gold.Chemscore.Hbond>
2.6270

> <Gold.Chemscore.Metal>
0.0000

> <Gold.Chemscore.Lipo>
90.9020

> <Gold.Chemscore.Internal_Hbond>
0.0000

> <Gold.Chemscore.DEClash>
0.3350

> <Gold.Chemscore.DEInternal>
1.2219

> <Gold.Chemscore.Rot>
2.9611

> <Gold.Chemscore.Internal.Correction>
   9.000000E+99

> <Gold.Chemscore.Hbonds>
donor molecule, donor type, donor heavy atom, donor atom, acceptor molecule, acceptor atom, score
      L1  H    12    38       P1  7949  0.86
      P1  H  6896  6908       L1     7  0.29
      P1  H  7989  7998       L1    13  0.45
      P1  H 10752 10763       L1    12  0.28

> <Gold.Chemscore.Hbond.Weighted>
-8.7741

> <Gold.Chemscore.Metal.Weighted>
-0.0000

> <Gold.Chemscore.Lipo.Weighted>
-10.6355

> <Gold.Chemscore.Internal_Hbond.Weighted>
0.0000

> <Gold.Chemscore.DEClash.Weighted>
0.3350

> <Gold.Chemscore.DEInternal.Weighted>
1.2219

> <Gold.Chemscore.Rot.Weighted>
7.5803

> <Gold.Chemscore.Internal.Correction.Weighted>
   9.000000E+99

> <Gold.Protein.RotatedTorsions>
[ 6907 6896 6895 6894 ] final  172.92 input  -60.11 | X-H torsion
[ 7974 7965 7964 7962 ] final -118.58 input  175.53 | X-H torsion
[ 8008 7997 7996 7995 ] final   66.98 input   59.86 | X-H torsion
[ 10167 10162 10161 10158 ] final   89.99 input  -65.29 | X-H torsion
[ 10718 10713 10712 10709 ] final -138.63 input   66.30 | X-H torsion
[ 10763 10752 10751 10750 ] final   53.44 input  -60.55 | X-H torsion
[ 11005 11000 10999 10996 ] final  106.04 input  -57.11 | X-H torsion

> <Gold.Protein.ActiveResidues>
 VAL166  LYS551  ARG553  GLY616  TRP617  ASP618  TYR619  PRO620  LYS621  CYS622 
 ASP623  PHE694  ASN695  SER759  ASP760  ASP761  ALA762  ILE779  LEU786  VAL792 
 PHE793  MET794  SER795  GLU796  ALA797  LYS798  CYS799  TRP800  GLU811  SER814 

> <Gold.Protein.RotatedAtoms>
  151.7766  133.3346  159.3459 H   0  0  0  0  0  0  0  0  0  0  0  0  # atno 6907 bound_to 6896
  150.7442  134.5970  159.6026 H   0  0  0  0  0  0  0  0  0  0  0  0  # atno 6908 bound_to 6896
  152.3305  134.7267  160.0342 H   0  0  0  0  0  0  0  0  0  0  0  0  # atno 6909 bound_to 6896
  145.0722  140.8367  143.4089 H   0  0  0  0  0  0  0  0  0  0  0  0  # atno 7974 bound_to 7965
  155.6858  140.3496  155.4873 H   0  0  0  0  0  0  0  0  0  0  0  0  # atno 8008 bound_to 7997
  155.9567  140.1129  157.0953 H   0  0  0  0  0  0  0  0  0  0  0  0  # atno 8009 bound_to 7997
  154.4134  140.1183  156.5111 H   0  0  0  0  0  0  0  0  0  0  0  0  # atno 8010 bound_to 7997
  139.8518  144.6589  150.9161 H   0  0  0  0  0  0  0  0  0  0  0  0  # atno 10167 bound_to 10162
  156.3015  130.7431  151.1484 H   0  0  0  0  0  0  0  0  0  0  0  0  # atno 10718 bound_to 10713
  152.9795  135.5778  154.4742 H   0  0  0  0  0  0  0  0  0  0  0  0  # atno 10763 bound_to 10752
  154.4300  135.2773  155.1920 H   0  0  0  0  0  0  0  0  0  0  0  0  # atno 10764 bound_to 10752
  154.3633  135.6184  153.5755 H   0  0  0  0  0  0  0  0  0  0  0  0  # atno 10765 bound_to 10752
  139.8809  134.9356  156.5606 H   0  0  0  0  0  0  0  0  0  0  0  0  # atno 11005 bound_to 11000
  145.1278  139.2651  143.5555 LP  0  0  0  0  0  0  0  0  0  0  0  0  # atno 17320 bound_to 7965
  146.3529  140.0921  142.8612 LP  0  0  0  0  0  0  0  0  0  0  0  0  # atno 17321 bound_to 7965
  140.7786  143.3821  151.1459 LP  0  0  0  0  0  0  0  0  0  0  0  0  # atno 17342 bound_to 10162
  139.7458  143.8854  152.3063 LP  0  0  0  0  0  0  0  0  0  0  0  0  # atno 17343 bound_to 10162
  157.7369  131.0557  150.5386 LP  0  0  0  0  0  0  0  0  0  0  0  0  # atno 17370 bound_to 10713
  156.5515  130.4233  149.6106 LP  0  0  0  0  0  0  0  0  0  0  0  0  # atno 17371 bound_to 10713
  140.8172  133.8382  155.8862 LP  0  0  0  0  0  0  0  0  0  0  0  0  # atno 17394 bound_to 11000
  140.9452  134.1850  157.4768 LP  0  0  0  0  0  0  0  0  0  0  0  0  # atno 17395 bound_to 11000

$$$$
