AV-unprocessed.smi:109|AV-procd|sdf|1045|dock1
  -GOLD-   2262018 83D 1   1.00000     0.00000
 Structure written by MMmdl.
 58 61  0  0  0  0  0  0  0  0  1 V2000
  150.7986  140.1820  154.5594 O   0  0  0  0  0  0  0  0  0  0  0  0
  150.0809  141.1408  155.3059 C   0  0  0  0  0  0  0  0  0  0  0  0
  151.0579  142.0166  156.1089 C   0  0  0  0  0  0  0  0  0  0  0  0
  151.4577  141.4274  157.4844 C   0  0  2  0  0  0  0  0  0  0  0  0
  150.3112  140.7262  158.0676 N   0  0  0  0  0  0  0  0  0  0  0  0
  150.3231  139.3966  158.3127 C   0  0  0  0  0  0  0  0  0  0  0  0
  150.8726  138.8861  159.4456 N   0  0  0  0  0  0  0  0  0  0  0  0
  150.8738  137.5659  159.6544 C   0  0  0  0  0  0  0  0  0  0  0  0
  150.3867  136.5969  158.8758 N   0  0  0  0  0  0  0  0  0  0  0  0
  149.8313  137.1067  157.7387 C   0  0  0  0  0  0  0  0  0  0  0  0
  149.7611  138.4824  157.3849 C   0  0  0  0  0  0  0  0  0  0  0  0
  149.1310  138.6200  156.1543 N   0  0  0  0  0  0  0  0  0  0  0  0
  148.8462  137.3933  155.8062 C   0  0  0  0  0  0  0  0  0  0  0  0
  149.2342  136.4223  156.7043 N   0  0  0  0  0  0  0  0  0  0  0  0
  149.0707  134.9398  156.6124 C   0  0  1  0  0  0  0  0  0  0  0  0
  148.4209  134.6552  155.4188 O   0  0  0  0  0  0  0  0  0  0  0  0
  148.7415  133.3219  155.0589 C   0  0  1  0  0  0  0  0  0  0  0  0
  148.4234  133.0888  153.5743 C   0  0  0  0  0  0  0  0  0  0  0  0
  148.7829  131.7752  153.2047 O   0  0  0  0  0  0  0  0  0  0  0  0
  150.2384  133.2367  155.3872 C   0  0  2  0  0  0  0  0  0  0  0  0
  150.5823  131.9115  155.7403 O   0  0  0  0  0  0  0  0  0  0  0  0
  150.4125  134.1771  156.5812 C   0  0  1  0  0  0  0  0  0  0  0  0
  151.5490  135.0064  156.4112 O   0  0  0  0  0  0  0  0  0  0  0  0
  151.9749  142.4937  158.4926 C   0  0  0  0  0  0  0  0  0  0  0  0
  152.2192  141.9276  159.9142 C   0  0  0  0  0  0  0  0  0  0  0  0
  152.6891  143.0064  160.9043 C   0  0  0  0  0  0  0  0  0  0  0  0
  151.7015  144.1773  160.9704 C   0  0  0  0  0  0  0  0  0  0  0  0
  151.4720  144.7678  159.5743 C   0  0  0  0  0  0  0  0  0  0  0  0
  150.9937  143.6907  158.5885 C   0  0  0  0  0  0  0  0  0  0  0  0
  148.4385  134.6606  157.4568 H   0  0  0  0  0  0  0  0  0  0  0  0
  148.1775  132.6373  155.6968 H   0  0  0  0  0  0  0  0  0  0  0  0
  150.8342  133.5707  154.5359 H   0  0  0  0  0  0  0  0  0  0  0  0
  150.5090  133.6329  157.5220 H   0  0  0  0  0  0  0  0  0  0  0  0
  151.1360  139.5293  155.1535 H   0  0  0  0  0  0  0  0  0  0  0  0
  149.4864  141.7400  154.6162 H   0  0  0  0  0  0  0  0  0  0  0  0
  149.3899  140.6247  155.9730 H   0  0  0  0  0  0  0  0  0  0  0  0
  151.9444  142.1416  155.4897 H   0  0  0  0  0  0  0  0  0  0  0  0
  150.6335  143.0125  156.2444 H   0  0  0  0  0  0  0  0  0  0  0  0
  152.2846  140.7376  157.3169 H   0  0  0  0  0  0  0  0  0  0  0  0
  149.5113  141.3068  158.2756 H   0  0  0  0  0  0  0  0  0  0  0  0
  151.3305  137.2401  160.5772 H   0  0  0  0  0  0  0  0  0  0  0  0
  148.3457  137.1619  154.8770 H   0  0  0  0  0  0  0  0  0  0  0  0
  147.3698  133.2708  153.3599 H   0  0  0  0  0  0  0  0  0  0  0  0
  149.0039  133.7724  152.9542 H   0  0  0  0  0  0  0  0  0  0  0  0
  148.9777  131.7646  152.2800 H   0  0  0  0  0  0  0  0  0  0  0  0
  149.9144  131.5693  156.3149 H   0  0  0  0  0  0  0  0  0  0  0  0
  151.4864  135.7279  157.0180 H   0  0  0  0  0  0  0  0  0  0  0  0
  152.9293  142.8712  158.1215 H   0  0  0  0  0  0  0  0  0  0  0  0
  151.3063  141.4621  160.2880 H   0  0  0  0  0  0  0  0  0  0  0  0
  152.9815  141.1503  159.8970 H   0  0  0  0  0  0  0  0  0  0  0  0
  152.8137  142.5705  161.8958 H   0  0  0  0  0  0  0  0  0  0  0  0
  153.6710  143.3739  160.6038 H   0  0  0  0  0  0  0  0  0  0  0  0
  150.7531  143.8355  161.3867 H   0  0  0  0  0  0  0  0  0  0  0  0
  152.0785  144.9471  161.6445 H   0  0  0  0  0  0  0  0  0  0  0  0
  150.7387  145.5729  159.6286 H   0  0  0  0  0  0  0  0  0  0  0  0
  152.3965  145.2156  159.2074 H   0  0  0  0  0  0  0  0  0  0  0  0
  150.8561  144.1577  157.6133 H   0  0  0  0  0  0  0  0  0  0  0  0
  150.0097  143.3324  158.8945 H   0  0  0  0  0  0  0  0  0  0  0  0
  1  2  1  0  0  0  0
  1 34  1  0  0  0  0
  2  3  1  0  0  0  0
  2 35  1  0  0  0  0
  2 36  1  0  0  0  0
  3  4  1  0  0  0  0
  3 37  1  0  0  0  0
  3 38  1  0  0  0  0
  4  5  1  0  0  0  0
  4 24  1  0  0  0  0
  4 39  1  0  0  0  0
  5  6  1  0  0  0  0
  5 40  1  0  0  0  0
  6 11  1  0  0  0  0
  6  7  2  0  0  0  0
  7  8  1  0  0  0  0
  8  9  2  0  0  0  0
  8 41  1  0  0  0  0
  9 10  1  0  0  0  0
 10 14  1  0  0  0  0
 10 11  2  0  0  0  0
 11 12  1  0  0  0  0
 12 13  2  0  0  0  0
 13 14  1  0  0  0  0
 13 42  1  0  0  0  0
 14 15  1  0  0  0  0
 15 30  1  0  0  0  0
 15 22  1  0  0  0  0
 15 16  1  0  0  0  0
 16 17  1  0  0  0  0
 17 31  1  0  0  0  0
 17 18  1  0  0  0  0
 17 20  1  0  0  0  0
 18 19  1  0  0  0  0
 18 43  1  0  0  0  0
 18 44  1  0  0  0  0
 19 45  1  0  0  0  0
 20 32  1  0  0  0  0
 20 21  1  0  0  0  0
 20 22  1  0  0  0  0
 21 46  1  0  0  0  0
 22 33  1  0  0  0  0
 22 23  1  0  0  0  0
 23 47  1  0  0  0  0
 24 29  1  0  0  0  0
 24 25  1  0  0  0  0
 24 48  1  0  0  0  0
 25 26  1  0  0  0  0
 25 49  1  0  0  0  0
 25 50  1  0  0  0  0
 26 27  1  0  0  0  0
 26 51  1  0  0  0  0
 26 52  1  0  0  0  0
 27 28  1  0  0  0  0
 27 53  1  0  0  0  0
 27 54  1  0  0  0  0
 28 29  1  0  0  0  0
 28 55  1  0  0  0  0
 28 56  1  0  0  0  0
 29 57  1  0  0  0  0
 29 58  1  0  0  0  0
M  END
> <s_m_source_file>
AV-unprocessed.smi

> <i_m_source_file_index>
109

> <i_lp_mmshare_version>
43012

> <i_f3d_flags>
0

> <s_epik_input>
W0NIMl0xW0NIMl1bQ0gyXVtDSDJdW0NIMl1bQ0hdMVtDQEhdKFtDSDJdW0NIMl1bT0hdKVtOSF1jKG5bY0hdbjIpYyhjMjMpbltjSF1uM1tDQEBIXTRPW0NASF0oW0NIMl1bT0hdKVtDQEBIXShbT0hdKVtDQEhdNFtPSF0=

> <s_epik_cmdline>
J2VwaWtfcHl0aG9uJywgJy1waCcsICc3LjAnLCAnLXRuJywgJzgnLCAnLW1hJywgJzIwMCcsICctbWV0YWxfYmluZGluZycsICctaW1hZScsICc8aW5maWxlLm1hZT4nLCAnLW9tYWUnLCAnPG91dGZpbGUubWFlPic=

> <r_lp_tautomer_probability>
1

> <r_epik_Ionization_Penalty>
0.000793976

> <r_epik_Ionization_Penalty_Charging>
0

> <r_epik_Ionization_Penalty_Neutral>
0.000793976

> <r_epik_State_Penalty>
-0

> <r_epik_Charging_Adjusted_Penalty>
0

> <i_epik_Tot_Q>
0

> <i_epik_Tot_abs_Q>
0

> <r_epik_Metal_State_Penalty>
-0

> <b_epik_Metal_Only>
0

> <s_epik_Chemistry_Notes>
This compound contains an acetal/aminal-like group ( X-CH(R)-Y where X, Y are N, S, or O) that may be acid/base labile, releasing an aldehyde.

> <s_lp_Force_Field>
OPLS_2005

> <r_lp_Energy>
53.6553

> <b_lp_Chiralities_Consistent>
1

> <s_lp_Variant>
AV-unprocessed.smi:109-15

> <Gold.Version>
5.8.1

> <Gold.Id.Protein>
6NUR|6NUR_protein|mol2

> <Gold.PLP.Fitness>
52.9473

> <Gold.PLP.PLP>
-43.4784

> <Gold.PLP.part.hbond>
-4.6701

> <Gold.PLP.part.metal>
0.0000

> <Gold.PLP.part.buried>
-5.9823

> <Gold.PLP.part.nonpolar>
-32.2353

> <Gold.PLP.part.repulsive>
0.1894

> <Gold.PLP.ligand.clash>
0.0000

> <Gold.PLP.ligand.torsion>
1.2446

> <Gold.PLP.Chemscore.Hbond>
3.8125

> <Gold.PLP.Chemscore.CHOScore>
0.0000

> <Gold.PLP.Chemscore.Metal>
0.0000

> <Gold.Chemscore.Hbonds>
donor molecule, donor type, donor heavy atom, donor atom, acceptor molecule, acceptor atom, score
      L1  H    19    45       P1 10747  0.63
      P1  H  6896  6909       L1     9  0.95
      P1  H  7989  7998       L1     1  0.96
      P1  H 10752 10763       L1    23  0.75

> <Gold.PLP.Chemscore.Internal.Correction>
0.5206

> <Gold.Rescore>
     Score         DG    S(hbond)    S(metal)    S(lipo)     H(rot)  DE(clash)    DE(int)     intcor
      9.88     -13.58       2.79        0.00     109.07       5.47       0.55       3.14       ----

> <Gold.Chemscore.Fitness>
9.8823

> <Gold.Chemscore.DG>
-13.5750

> <Gold.Chemscore.ZeroCoef>
-5.4800

> <Gold.Chemscore.Hbond>
2.7925

> <Gold.Chemscore.Metal>
0.0000

> <Gold.Chemscore.Lipo>
109.0720

> <Gold.Chemscore.Internal_Hbond>
0.0000

> <Gold.Chemscore.DEClash>
0.5544

> <Gold.Chemscore.DEInternal>
3.1383

> <Gold.Chemscore.Rot>
5.4662

> <Gold.Chemscore.Internal.Correction>
   9.000000E+99

> <Gold.Chemscore.Hbonds>
donor molecule, donor type, donor heavy atom, donor atom, acceptor molecule, acceptor atom, score
      L1  H    19    45       P1 10747  0.49
      P1  H  6896  6909       L1     9  0.21
      P1  H  7989  7998       L1     1  0.68
      P1  H 10752 10763       L1    23  0.45

> <Gold.Chemscore.Hbond.Weighted>
-9.3271

> <Gold.Chemscore.Metal.Weighted>
-0.0000

> <Gold.Chemscore.Lipo.Weighted>
-12.7614

> <Gold.Chemscore.Internal_Hbond.Weighted>
0.0000

> <Gold.Chemscore.DEClash.Weighted>
0.5544

> <Gold.Chemscore.DEInternal.Weighted>
3.1383

> <Gold.Chemscore.Rot.Weighted>
13.9935

> <Gold.Chemscore.Internal.Correction.Weighted>
   9.000000E+99

> <Gold.Protein.RotatedTorsions>
[ 6907 6896 6895 6894 ] final   90.36 input  -60.11 | X-H torsion
[ 7974 7965 7964 7962 ] final -139.22 input  175.53 | X-H torsion
[ 8008 7997 7996 7995 ] final -139.66 input   59.86 | X-H torsion
[ 10167 10162 10161 10158 ] final  -11.31 input  -65.29 | X-H torsion
[ 10718 10713 10712 10709 ] final  -40.79 input   66.30 | X-H torsion
[ 10763 10752 10751 10750 ] final   86.81 input  -60.55 | X-H torsion
[ 11005 11000 10999 10996 ] final -110.03 input  -57.11 | X-H torsion

> <Gold.Protein.ActiveResidues>
 VAL166  LYS551  ARG553  GLY616  TRP617  ASP618  TYR619  PRO620  LYS621  CYS622 
 ASP623  PHE694  ASN695  SER759  ASP760  ASP761  ALA762  ILE779  LEU786  VAL792 
 PHE793  MET794  SER795  GLU796  ALA797  LYS798  CYS799  TRP800  GLU811  SER814 

> <Gold.Protein.RotatedAtoms>
  152.5444  134.1823  159.8640 H   0  0  0  0  0  0  0  0  0  0  0  0  # atno 6907 bound_to 6896
  151.1825  133.4709  159.2601 H   0  0  0  0  0  0  0  0  0  0  0  0  # atno 6908 bound_to 6896
  151.1164  135.0067  159.8573 H   0  0  0  0  0  0  0  0  0  0  0  0  # atno 6909 bound_to 6896
  144.8695  140.6344  143.5276 H   0  0  0  0  0  0  0  0  0  0  0  0  # atno 7974 bound_to 7965
  155.4486  140.0537  157.3003 H   0  0  0  0  0  0  0  0  0  0  0  0  # atno 8008 bound_to 7997
  154.4787  140.2072  155.9772 H   0  0  0  0  0  0  0  0  0  0  0  0  # atno 8009 bound_to 7997
  156.1172  140.3194  155.8161 H   0  0  0  0  0  0  0  0  0  0  0  0  # atno 8010 bound_to 7997
  140.7135  143.5654  150.9150 H   0  0  0  0  0  0  0  0  0  0  0  0  # atno 10167 bound_to 10162
  156.2775  130.4213  149.8372 H   0  0  0  0  0  0  0  0  0  0  0  0  # atno 10718 bound_to 10713
  153.1607  135.4566  154.9767 H   0  0  0  0  0  0  0  0  0  0  0  0  # atno 10763 bound_to 10752
  154.7895  135.3215  154.7812 H   0  0  0  0  0  0  0  0  0  0  0  0  # atno 10764 bound_to 10752
  153.8303  135.6939  153.4870 H   0  0  0  0  0  0  0  0  0  0  0  0  # atno 10765 bound_to 10752
  141.0815  133.9212  157.2279 H   0  0  0  0  0  0  0  0  0  0  0  0  # atno 11005 bound_to 11000
  145.4158  139.1572  143.4101 LP  0  0  0  0  0  0  0  0  0  0  0  0  # atno 17320 bound_to 7965
  146.2920  140.4265  142.8736 LP  0  0  0  0  0  0  0  0  0  0  0  0  # atno 17321 bound_to 7965
  139.9379  143.6416  152.3061 LP  0  0  0  0  0  0  0  0  0  0  0  0  # atno 17342 bound_to 10162
  139.6890  144.7649  151.1472 LP  0  0  0  0  0  0  0  0  0  0  0  0  # atno 17343 bound_to 10162
  156.5832  130.8474  151.3388 LP  0  0  0  0  0  0  0  0  0  0  0  0  # atno 17370 bound_to 10713
  157.7304  130.9684  150.1830 LP  0  0  0  0  0  0  0  0  0  0  0  0  # atno 17371 bound_to 10713
  139.9629  135.0149  156.9309 LP  0  0  0  0  0  0  0  0  0  0  0  0  # atno 17394 bound_to 11000
  140.5458  134.0675  155.7354 LP  0  0  0  0  0  0  0  0  0  0  0  0  # atno 17395 bound_to 11000

$$$$
