AV-unprocessed.smi:221|AV-procd|sdf|1689|dock5
  -GOLD-   2262020133D 1   1.00000     0.00000
 Structure written by MMmdl.
 50 53  0  0  0  0  0  0  0  0  1 V2000
  143.9853  134.2859  148.8200 N   0  0  0  0  0  0  0  0  0  0  0  0
  144.2225  133.0149  149.1616 C   0  0  0  0  0  0  0  0  0  0  0  0
  144.0754  132.0963  148.3585 O   0  0  0  0  0  0  0  0  0  0  0  0
  144.6862  132.7038  150.5987 C   0  0  1  0  0  0  0  0  0  0  0  0
  145.5038  131.4023  150.6427 C   0  0  0  0  0  0  0  0  0  0  0  0
  146.3833  131.5640  151.8776 C   0  0  2  0  0  0  0  0  0  0  0  0
  145.6836  131.2449  152.9676 F   0  0  0  0  0  0  0  0  0  0  0  0
  146.6936  133.0603  151.8932 C   0  0  0  0  0  0  0  0  0  0  0  0
  145.5874  133.7027  151.1910 N   0  0  0  0  0  0  0  0  0  0  0  0
  145.1439  134.9089  151.6391 C   0  0  0  0  0  0  0  0  0  0  0  0
  145.9999  135.9643  151.6811 N   0  0  0  0  0  0  0  0  0  0  0  0
  145.5869  137.1572  152.1180 C   0  0  0  0  0  0  0  0  0  0  0  0
  144.3794  137.5101  152.5599 N   0  0  0  0  0  0  0  0  0  0  0  0
  143.5163  136.4551  152.5357 C   0  0  0  0  0  0  0  0  0  0  0  0
  143.8116  135.1336  152.0938 C   0  0  0  0  0  0  0  0  0  0  0  0
  142.6828  134.3320  152.2270 N   0  0  0  0  0  0  0  0  0  0  0  0
  141.7728  135.1343  152.7074 C   0  0  0  0  0  0  0  0  0  0  0  0
  142.1905  136.4256  152.9317 N   0  0  0  0  0  0  0  0  0  0  0  0
  141.3879  137.5161  153.4569 C   0  0  0  0  0  0  0  0  0  0  0  0
  139.8644  137.2870  153.2544 C   0  0  2  0  0  0  0  0  0  0  0  0
  139.3012  138.2519  152.1888 C   0  0  0  0  0  0  0  0  0  0  0  0
  139.6117  139.5942  152.5003 O   0  0  0  0  0  0  0  0  0  0  0  0
  139.0510  137.3342  154.5770 C   0  0  2  0  0  0  0  0  0  0  0  0
  137.5449  137.1032  154.4254 C   0  0  0  0  0  0  0  0  0  0  0  0
  136.9219  138.1798  155.3088 C   0  0  0  0  0  0  0  0  0  0  0  0
  137.8505  139.2464  155.2189 O   0  0  0  0  0  0  0  0  0  0  0  0
  139.1447  138.6734  155.3254 C   0  0  0  0  0  0  0  0  0  0  0  0
  143.8088  132.5849  151.2368 H   0  0  0  0  0  0  0  0  0  0  0  0
  147.2754  130.9372  151.8628 H   0  0  0  0  0  0  0  0  0  0  0  0
  143.6739  134.5042  147.8847 H   0  0  0  0  0  0  0  0  0  0  0  0
  144.1112  135.0210  149.5005 H   0  0  0  0  0  0  0  0  0  0  0  0
  144.8757  130.5118  150.6889 H   0  0  0  0  0  0  0  0  0  0  0  0
  146.1398  131.3131  149.7599 H   0  0  0  0  0  0  0  0  0  0  0  0
  146.8243  133.4228  152.9143 H   0  0  0  0  0  0  0  0  0  0  0  0
  147.6129  133.2637  151.3430 H   0  0  0  0  0  0  0  0  0  0  0  0
  146.3303  137.9404  152.1131 H   0  0  0  0  0  0  0  0  0  0  0  0
  140.7668  134.8031  152.9209 H   0  0  0  0  0  0  0  0  0  0  0  0
  141.6406  137.6495  154.5082 H   0  0  0  0  0  0  0  0  0  0  0  0
  141.7149  138.4319  152.9633 H   0  0  0  0  0  0  0  0  0  0  0  0
  139.7286  136.2819  152.8507 H   0  0  0  0  0  0  0  0  0  0  0  0
  139.6842  138.0122  151.1965 H   0  0  0  0  0  0  0  0  0  0  0  0
  138.2149  138.1680  152.1404 H   0  0  0  0  0  0  0  0  0  0  0  0
  139.8852  140.0319  151.7085 H   0  0  0  0  0  0  0  0  0  0  0  0
  139.4481  136.5717  155.2487 H   0  0  0  0  0  0  0  0  0  0  0  0
  137.2186  137.2445  153.3952 H   0  0  0  0  0  0  0  0  0  0  0  0
  137.2432  136.0994  154.7258 H   0  0  0  0  0  0  0  0  0  0  0  0
  135.9294  138.4795  154.9717 H   0  0  0  0  0  0  0  0  0  0  0  0
  136.8487  137.8430  156.3442 H   0  0  0  0  0  0  0  0  0  0  0  0
  139.3686  138.5046  156.3798 H   0  0  0  0  0  0  0  0  0  0  0  0
  139.9110  139.3405  154.9318 H   0  0  0  0  0  0  0  0  0  0  0  0
  1  2  1  0  0  0  0
  1 30  1  0  0  0  0
  1 31  1  0  0  0  0
  2  3  2  0  0  0  0
  2  4  1  0  0  0  0
  4 28  1  0  0  0  0
  4  9  1  0  0  0  0
  4  5  1  0  0  0  0
  5  6  1  0  0  0  0
  5 32  1  0  0  0  0
  5 33  1  0  0  0  0
  6 29  1  0  0  0  0
  6  7  1  0  0  0  0
  6  8  1  0  0  0  0
  8  9  1  0  0  0  0
  8 34  1  0  0  0  0
  8 35  1  0  0  0  0
  9 10  1  0  0  0  0
 10 15  1  0  0  0  0
 10 11  2  0  0  0  0
 11 12  1  0  0  0  0
 12 13  2  0  0  0  0
 12 36  1  0  0  0  0
 13 14  1  0  0  0  0
 14 18  1  0  0  0  0
 14 15  2  0  0  0  0
 15 16  1  0  0  0  0
 16 17  2  0  0  0  0
 17 18  1  0  0  0  0
 17 37  1  0  0  0  0
 18 19  1  0  0  0  0
 19 20  1  0  0  0  0
 19 38  1  0  0  0  0
 19 39  1  0  0  0  0
 20 21  1  0  0  0  0
 20 23  1  0  0  0  0
 20 40  1  0  0  0  0
 21 22  1  0  0  0  0
 21 41  1  0  0  0  0
 21 42  1  0  0  0  0
 22 43  1  0  0  0  0
 23 27  1  0  0  0  0
 23 24  1  0  0  0  0
 23 44  1  0  0  0  0
 24 25  1  0  0  0  0
 24 45  1  0  0  0  0
 24 46  1  0  0  0  0
 25 26  1  0  0  0  0
 25 47  1  0  0  0  0
 25 48  1  0  0  0  0
 26 27  1  0  0  0  0
 27 49  1  0  0  0  0
 27 50  1  0  0  0  0
M  END
> <s_m_source_file>
AV-unprocessed.smi

> <i_m_source_file_index>
221

> <i_lp_mmshare_version>
43012

> <i_f3d_flags>
0

> <s_epik_input>
W05IMl1DKD1PKVtDQEBIXTFbQ0gyXVtDQEBIXShGKVtDSDJdTjFjKG5bY0hdbjIpYyhjMjMpbltjSF1uM1tDSDJdW0NASF0oW0NIMl1bT0hdKVtDQEBIXTRbQ0gyXVtDSDJdT1tDSDJdNA==

> <s_epik_cmdline>
J2VwaWtfcHl0aG9uJywgJy1waCcsICc3LjAnLCAnLXRuJywgJzgnLCAnLW1hJywgJzIwMCcsICctbWV0YWxfYmluZGluZycsICctaW1hZScsICc8aW5maWxlLm1hZT4nLCAnLW9tYWUnLCAnPG91dGZpbGUubWFlPic=

> <r_lp_tautomer_probability>
1

> <r_epik_Ionization_Penalty>
0.000818822

> <r_epik_Ionization_Penalty_Charging>
0

> <r_epik_Ionization_Penalty_Neutral>
0.000818822

> <r_epik_State_Penalty>
0.000440551

> <r_epik_Charging_Adjusted_Penalty>
0.000440551

> <i_epik_Tot_Q>
0

> <i_epik_Tot_abs_Q>
0

> <r_epik_Metal_State_Penalty>
-0

> <b_epik_Metal_Only>
0

> <s_lp_Force_Field>
OPLS_2005

> <r_lp_Energy>
52.2348

> <b_lp_Chiralities_Consistent>
1

> <s_lp_Variant>
AV-unprocessed.smi:221-4

> <Gold.Version>
5.8.1

> <Gold.Id.Protein>
6NUR|6NUR_protein|mol2

> <Gold.PLP.Fitness>
46.8776

> <Gold.PLP.PLP>
-46.7461

> <Gold.PLP.part.hbond>
-3.8788

> <Gold.PLP.part.metal>
0.0000

> <Gold.PLP.part.buried>
-9.0591

> <Gold.PLP.part.nonpolar>
-34.9561

> <Gold.PLP.part.repulsive>
2.9862

> <Gold.PLP.ligand.clash>
0.0000

> <Gold.PLP.ligand.torsion>
2.5248

> <Gold.PLP.Chemscore.Hbond>
1.5600

> <Gold.PLP.Chemscore.CHOScore>
0.0000

> <Gold.PLP.Chemscore.Metal>
0.0000

> <Gold.Chemscore.Hbonds>
donor molecule, donor type, donor heavy atom, donor atom, acceptor molecule, acceptor atom, score
      P1  H 10785 10796       L1     3  0.31
      L1  C    17    37       P1 10187  0.10

> <Gold.PLP.Chemscore.Internal.Correction>
0.5011

> <Gold.Rescore>
     Score         DG    S(hbond)    S(metal)    S(lipo)     H(rot)  DE(clash)    DE(int)     intcor
      6.98     -10.40       1.41        0.00      74.09       3.31       0.79       2.63       ----

> <Gold.Chemscore.Fitness>
6.9788

> <Gold.Chemscore.DG>
-10.3992

> <Gold.Chemscore.ZeroCoef>
-5.4800

> <Gold.Chemscore.Hbond>
1.4135

> <Gold.Chemscore.Metal>
0.0000

> <Gold.Chemscore.Lipo>
74.0926

> <Gold.Chemscore.Internal_Hbond>
0.0000

> <Gold.Chemscore.DEClash>
0.7856

> <Gold.Chemscore.DEInternal>
2.6348

> <Gold.Chemscore.Rot>
3.3089

> <Gold.Chemscore.Internal.Correction>
   9.000000E+99

> <Gold.Chemscore.Hbonds>
donor molecule, donor type, donor heavy atom, donor atom, acceptor molecule, acceptor atom, score
      L1  H    22    43       P1 10160  0.06
      P1  H 10785 10796       L1     3  0.29

> <Gold.Chemscore.Hbond.Weighted>
-4.7212

> <Gold.Chemscore.Metal.Weighted>
-0.0000

> <Gold.Chemscore.Lipo.Weighted>
-8.6688

> <Gold.Chemscore.Internal_Hbond.Weighted>
0.0000

> <Gold.Chemscore.DEClash.Weighted>
0.7856

> <Gold.Chemscore.DEInternal.Weighted>
2.6348

> <Gold.Chemscore.Rot.Weighted>
8.4709

> <Gold.Chemscore.Internal.Correction.Weighted>
   9.000000E+99

> <Gold.Protein.RotatedTorsions>
[ 6907 6896 6895 6894 ] final -148.49 input  -60.11 | X-H torsion
[ 7974 7965 7964 7962 ] final -174.57 input  175.53 | X-H torsion
[ 8008 7997 7996 7995 ] final -114.73 input   59.86 | X-H torsion
[ 10167 10162 10161 10158 ] final -134.56 input  -65.29 | X-H torsion
[ 10718 10713 10712 10709 ] final -138.23 input   66.30 | X-H torsion
[ 10763 10752 10751 10750 ] final  114.18 input  -60.55 | X-H torsion
[ 11005 11000 10999 10996 ] final  108.32 input  -57.11 | X-H torsion

> <Gold.Protein.ActiveResidues>
 VAL166  LYS551  ARG553  GLY616  TRP617  ASP618  TYR619  PRO620  LYS621  CYS622 
 ASP623  PHE694  ASN695  SER759  ASP760  ASP761  ALA762  ILE779  LEU786  VAL792 
 PHE793  MET794  SER795  GLU796  ALA797  LYS798  CYS799  TRP800  GLU811  SER814 

> <Gold.Protein.RotatedAtoms>
  151.1706  133.4786  159.2593 H   0  0  0  0  0  0  0  0  0  0  0  0  # atno 6907 bound_to 6896
  151.1360  135.0154  159.8614 H   0  0  0  0  0  0  0  0  0  0  0  0  # atno 6908 bound_to 6896
  152.5461  134.1605  159.8609 H   0  0  0  0  0  0  0  0  0  0  0  0  # atno 6909 bound_to 6896
  144.7131  140.1451  143.6388 H   0  0  0  0  0  0  0  0  0  0  0  0  # atno 7974 bound_to 7965
  155.0409  140.0392  157.2509 H   0  0  0  0  0  0  0  0  0  0  0  0  # atno 8008 bound_to 7997
  154.7217  140.2713  155.6511 H   0  0  0  0  0  0  0  0  0  0  0  0  # atno 8009 bound_to 7997
  156.2818  140.2701  156.1891 H   0  0  0  0  0  0  0  0  0  0  0  0  # atno 8010 bound_to 7997
  139.8868  143.6771  152.2619 H   0  0  0  0  0  0  0  0  0  0  0  0  # atno 10167 bound_to 10162
  156.2970  130.7407  151.1449 H   0  0  0  0  0  0  0  0  0  0  0  0  # atno 10718 bound_to 10713
  153.5034  135.3633  155.2551 H   0  0  0  0  0  0  0  0  0  0  0  0  # atno 10763 bound_to 10752
  154.8746  135.4005  154.3452 H   0  0  0  0  0  0  0  0  0  0  0  0  # atno 10764 bound_to 10752
  153.4092  135.7077  153.6437 H   0  0  0  0  0  0  0  0  0  0  0  0  # atno 10765 bound_to 10752
  139.8842  134.9427  156.5954 H   0  0  0  0  0  0  0  0  0  0  0  0  # atno 11005 bound_to 11000
  145.9167  139.2520  143.1405 LP  0  0  0  0  0  0  0  0  0  0  0  0  # atno 17320 bound_to 7965
  145.9662  140.8797  143.0186 LP  0  0  0  0  0  0  0  0  0  0  0  0  # atno 17321 bound_to 7965
  139.7146  144.7614  151.1056 LP  0  0  0  0  0  0  0  0  0  0  0  0  # atno 17342 bound_to 10162
  140.7734  143.5286  150.9450 LP  0  0  0  0  0  0  0  0  0  0  0  0  # atno 17343 bound_to 10162
  157.7358  131.0569  150.5450 LP  0  0  0  0  0  0  0  0  0  0  0  0  # atno 17370 bound_to 10713
  156.5573  130.4246  149.6079 LP  0  0  0  0  0  0  0  0  0  0  0  0  # atno 17371 bound_to 10713
  140.7924  133.8572  155.8657 LP  0  0  0  0  0  0  0  0  0  0  0  0  # atno 17394 bound_to 11000
  140.9665  134.1587  157.4611 LP  0  0  0  0  0  0  0  0  0  0  0  0  # atno 17395 bound_to 11000

$$$$
