AV-unprocessed.smi:1389|AV-procd|sdf|5653|dock5
  -GOLD-   22720 5273D 1   1.00000     0.00000
 Structure written by MMmdl.
 53 55  0  0  0  0  0  0  0  0  3 V2000
  152.4281  138.7292  154.8236 C   0  0  0  0  0  0  0  0  0  0  0  0
  150.9544  138.2675  154.8407 C   0  0  1  0  0  0  0  0  0  0  0  0
  150.8705  136.7931  155.3189 C   0  0  0  0  0  0  0  0  0  0  0  0
  149.9597  135.9671  154.5258 N   0  0  0  0  0  0  0  0  0  0  0  0
  149.7303  134.6608  154.7239 C   0  0  0  0  0  0  0  0  0  0  0  0
  150.2238  134.0159  155.6483 O   0  0  0  0  0  0  0  0  0  0  0  0
  148.9208  134.1545  153.7783 N   0  0  0  0  0  0  0  0  0  0  0  0
  148.5196  132.7975  153.6143 C   0  0  0  0  0  0  0  0  0  0  0  0
  149.1542  131.7542  154.3365 C   0  0  0  0  0  0  0  0  0  0  0  0
  148.7565  130.4185  154.1388 C   0  0  0  0  0  0  0  0  0  0  0  0
  147.7254  130.1447  153.2244 C   0  0  0  0  0  0  0  0  0  0  0  0
  147.1272  131.1601  152.5681 N   0  3  0  0  0  0  0  0  0  0  0  0
  147.4548  132.4671  152.7257 C   0  0  0  0  0  0  0  0  0  0  0  0
  146.7305  133.4230  151.9773 N   0  0  0  0  0  0  0  0  0  0  0  0
  145.8447  132.9991  150.8991 C   0  0  0  0  0  0  0  0  0  0  0  0
  144.9945  134.2258  150.5803 C   0  0  0  0  0  0  0  0  0  0  0  0
  144.8186  134.8674  151.9532 C   0  0  0  0  0  0  0  0  0  0  0  0
  146.1401  134.5651  152.6681 C   0  0  0  0  0  0  0  0  0  0  0  0
  150.0736  139.1928  155.6263 N   0  3  0  0  0  0  0  0  0  0  0  0
  150.6155  139.5408  156.9694 C   0  0  0  0  0  0  0  0  0  0  0  0
  149.6707  140.4869  157.7294 C   0  0  0  0  0  0  0  0  0  0  0  0
  149.4394  141.6563  156.9593 O   0  0  0  0  0  0  0  0  0  0  0  0
  148.8086  141.3472  155.7264 C   0  0  0  0  0  0  0  0  0  0  0  0
  149.7254  140.4394  154.8897 C   0  0  0  0  0  0  0  0  0  0  0  0
  153.0699  137.9761  154.3655 H   0  0  0  0  0  0  0  0  0  0  0  0
  152.8041  138.9133  155.8303 H   0  0  0  0  0  0  0  0  0  0  0  0
  152.5663  139.6385  154.2390 H   0  0  0  0  0  0  0  0  0  0  0  0
  150.6071  138.2869  153.8064 H   0  0  0  0  0  0  0  0  0  0  0  0
  151.8554  136.3287  155.2766 H   0  0  0  0  0  0  0  0  0  0  0  0
  150.5997  136.7537  156.3754 H   0  0  0  0  0  0  0  0  0  0  0  0
  149.5172  136.4120  153.7350 H   0  0  0  0  0  0  0  0  0  0  0  0
  148.6728  134.7772  153.0236 H   0  0  0  0  0  0  0  0  0  0  0  0
  149.9422  131.9598  155.0454 H   0  0  0  0  0  0  0  0  0  0  0  0
  149.2377  129.6166  154.6796 H   0  0  0  0  0  0  0  0  0  0  0  0
  147.3568  129.1529  153.0048 H   0  0  0  0  0  0  0  0  0  0  0  0
  146.4081  132.6598  150.0293 H   0  0  0  0  0  0  0  0  0  0  0  0
  145.2003  132.1844  151.2320 H   0  0  0  0  0  0  0  0  0  0  0  0
  145.5426  134.9004  149.9212 H   0  0  0  0  0  0  0  0  0  0  0  0
  144.0483  133.9747  150.1002 H   0  0  0  0  0  0  0  0  0  0  0  0
  144.5991  135.9342  151.9002 H   0  0  0  0  0  0  0  0  0  0  0  0
  143.9958  134.3817  152.4797 H   0  0  0  0  0  0  0  0  0  0  0  0
  145.9809  134.3679  153.7291 H   0  0  0  0  0  0  0  0  0  0  0  0
  146.8153  135.4163  152.5766 H   0  0  0  0  0  0  0  0  0  0  0  0
  150.7469  138.6491  157.5804 H   0  0  0  0  0  0  0  0  0  0  0  0
  151.5966  140.0051  156.8580 H   0  0  0  0  0  0  0  0  0  0  0  0
  148.7253  139.9928  157.9594 H   0  0  0  0  0  0  0  0  0  0  0  0
  150.1169  140.7759  158.6811 H   0  0  0  0  0  0  0  0  0  0  0  0
  147.8428  140.8708  155.9038 H   0  0  0  0  0  0  0  0  0  0  0  0
  148.6106  142.2757  155.1904 H   0  0  0  0  0  0  0  0  0  0  0  0
  150.6389  140.9755  154.6274 H   0  0  0  0  0  0  0  0  0  0  0  0
  149.2088  140.2117  153.9589 H   0  0  0  0  0  0  0  0  0  0  0  0
  149.2075  138.6989  155.7876 H   0  0  0  0  0  0  0  0  0  0  0  0
  146.3756  130.9295  151.9180 H   0  0  0  0  0  0  0  0  0  0  0  0
  1  2  1  0  0  0  0
  1 25  1  0  0  0  0
  1 26  1  0  0  0  0
  1 27  1  0  0  0  0
  2  3  1  0  0  0  0
  2 19  1  0  0  0  0
  2 28  1  0  0  0  0
  3  4  1  0  0  0  0
  3 29  1  0  0  0  0
  3 30  1  0  0  0  0
  4  5  1  0  0  0  0
  4 31  1  0  0  0  0
  5  6  2  0  0  0  0
  5  7  1  0  0  0  0
  7  8  1  0  0  0  0
  7 32  1  0  0  0  0
  8 13  1  0  0  0  0
  8  9  2  0  0  0  0
  9 10  1  0  0  0  0
  9 33  1  0  0  0  0
 10 11  2  0  0  0  0
 10 34  1  0  0  0  0
 11 12  1  0  0  0  0
 11 35  1  0  0  0  0
 12 13  2  0  0  0  0
 12 53  1  0  0  0  0
 13 14  1  0  0  0  0
 14 18  1  0  0  0  0
 14 15  1  0  0  0  0
 15 16  1  0  0  0  0
 15 36  1  0  0  0  0
 15 37  1  0  0  0  0
 16 17  1  0  0  0  0
 16 38  1  0  0  0  0
 16 39  1  0  0  0  0
 17 18  1  0  0  0  0
 17 40  1  0  0  0  0
 17 41  1  0  0  0  0
 18 42  1  0  0  0  0
 18 43  1  0  0  0  0
 19 24  1  0  0  0  0
 19 20  1  0  0  0  0
 19 52  1  0  0  0  0
 20 21  1  0  0  0  0
 20 44  1  0  0  0  0
 20 45  1  0  0  0  0
 21 22  1  0  0  0  0
 21 46  1  0  0  0  0
 21 47  1  0  0  0  0
 22 23  1  0  0  0  0
 23 24  1  0  0  0  0
 23 48  1  0  0  0  0
 23 49  1  0  0  0  0
 24 50  1  0  0  0  0
 24 51  1  0  0  0  0
M  CHG  1  12   1
M  CHG  1  19   1
M  END
> <s_m_source_file>
AV-unprocessed.smi

> <i_m_source_file_index>
1389

> <i_lp_mmshare_version>
43012

> <i_f3d_flags>
0

> <s_epik_input>
W0NIMl0xW0NIMl1PW0NIMl1bQ0gyXU4xW0NASF0oW0NIM10pW0NIMl1bTkhdQyg9TylbTkhdYzJbY0hdW2NIXVtjSF1uYzJOM1tDSDJdW0NIMl1bQ0gyXVtDSDJdMw==

> <s_epik_cmdline>
J2VwaWtfcHl0aG9uJywgJy1waCcsICc3LjAnLCAnLXRuJywgJzgnLCAnLW1hJywgJzIwMCcsICctbWV0YWxfYmluZGluZycsICctaW1hZScsICc8aW5maWxlLm1hZT4nLCAnLW9tYWUnLCAnPG91dGZpbGUubWFlPic=

> <r_lp_tautomer_probability>
0.999994

> <r_epik_Ionization_Penalty>
1.80872

> <r_epik_Ionization_Penalty_Charging>
1.8087

> <r_epik_Ionization_Penalty_Neutral>
2.02981e-05

> <r_epik_State_Penalty>
1.84892

> <r_epik_Charging_Adjusted_Penalty>
3.65762

> <i_epik_Tot_Q>
2

> <i_epik_Tot_abs_Q>
2

> <r_epik_Metal_State_Penalty>
1.9311

> <b_epik_Metal_Only>
0

> <s_lp_Force_Field>
OPLS_2005

> <r_lp_Energy>
68.1678

> <b_lp_Chiralities_Consistent>
1

> <s_lp_Variant>
AV-unprocessed.smi:1389-8

> <Gold.Version>
5.8.1

> <Gold.Id.Protein>
6NUR|6NUR_protein|mol2

> <Gold.PLP.Fitness>
42.8453

> <Gold.PLP.PLP>
-38.7865

> <Gold.PLP.part.hbond>
-3.5076

> <Gold.PLP.part.metal>
0.0000

> <Gold.PLP.part.buried>
-2.5389

> <Gold.PLP.part.nonpolar>
-32.7580

> <Gold.PLP.part.repulsive>
0.4367

> <Gold.PLP.ligand.clash>
0.0000

> <Gold.PLP.ligand.torsion>
1.0865

> <Gold.PLP.Chemscore.Hbond>
1.9280

> <Gold.PLP.Chemscore.CHOScore>
0.0000

> <Gold.PLP.Chemscore.Metal>
0.0000

> <Gold.Chemscore.Hbonds>
donor molecule, donor type, donor heavy atom, donor atom, acceptor molecule, acceptor atom, score
      L1  H     4    31       P1  7948  0.91
      L1  H     7    32       P1  7948  1.00

> <Gold.PLP.Chemscore.Internal.Correction>
0.4478

> <Gold.Rescore>
     Score         DG    S(hbond)    S(metal)    S(lipo)     H(rot)  DE(clash)    DE(int)     intcor
     12.92     -15.36       1.43        0.00      80.13       1.66       0.05       2.39       ----

> <Gold.Chemscore.Fitness>
12.9184

> <Gold.Chemscore.DG>
-15.3604

> <Gold.Chemscore.ZeroCoef>
-5.4800

> <Gold.Chemscore.Hbond>
1.4251

> <Gold.Chemscore.Metal>
0.0000

> <Gold.Chemscore.Lipo>
80.1299

> <Gold.Chemscore.Internal_Hbond>
0.0000

> <Gold.Chemscore.DEClash>
0.0496

> <Gold.Chemscore.DEInternal>
2.3924

> <Gold.Chemscore.Rot>
1.6620

> <Gold.Chemscore.Internal.Correction>
   9.000000E+99

> <Gold.Chemscore.Hbonds>
donor molecule, donor type, donor heavy atom, donor atom, acceptor molecule, acceptor atom, score
      L1  H     4    31       P1  7948  0.61
      L1  H     7    32       P1  7948  0.29

> <Gold.Chemscore.Hbond.Weighted>
-4.7598

> <Gold.Chemscore.Metal.Weighted>
-0.0000

> <Gold.Chemscore.Lipo.Weighted>
-9.3752

> <Gold.Chemscore.Internal_Hbond.Weighted>
0.0000

> <Gold.Chemscore.DEClash.Weighted>
0.0496

> <Gold.Chemscore.DEInternal.Weighted>
2.3924

> <Gold.Chemscore.Rot.Weighted>
4.2547

> <Gold.Chemscore.Internal.Correction.Weighted>
   9.000000E+99

> <Gold.Protein.RotatedTorsions>
[ 6907 6896 6895 6894 ] final -142.36 input  -60.11 | X-H torsion
[ 7974 7965 7964 7962 ] final  -41.06 input  175.53 | X-H torsion
[ 8008 7997 7996 7995 ] final   21.71 input   59.86 | X-H torsion
[ 10167 10162 10161 10158 ] final -104.01 input  -65.29 | X-H torsion
[ 10718 10713 10712 10709 ] final  153.86 input   66.30 | X-H torsion
[ 10763 10752 10751 10750 ] final   59.38 input  -60.55 | X-H torsion
[ 11005 11000 10999 10996 ] final -179.65 input  -57.11 | X-H torsion

> <Gold.Protein.ActiveResidues>
 VAL166  LYS551  ARG553  GLY616  TRP617  ASP618  TYR619  PRO620  LYS621  CYS622 
 ASP623  PHE694  ASN695  SER759  ASP760  ASP761  ALA762  ILE779  LEU786  VAL792 
 PHE793  MET794  SER795  GLU796  ALA797  LYS798  CYS799  TRP800  GLU811  SER814 

> <Gold.Protein.RotatedAtoms>
  151.0861  133.5352  159.2617 H   0  0  0  0  0  0  0  0  0  0  0  0  # atno 6907 bound_to 6896
  151.2237  135.0528  159.8970 H   0  0  0  0  0  0  0  0  0  0  0  0  # atno 6908 bound_to 6896
  152.5429  134.0660  159.8226 H   0  0  0  0  0  0  0  0  0  0  0  0  # atno 6909 bound_to 6896
  146.0246  140.6808  142.9162 H   0  0  0  0  0  0  0  0  0  0  0  0  # atno 7974 bound_to 7965
  154.9547  140.3070  155.5058 H   0  0  0  0  0  0  0  0  0  0  0  0  # atno 8008 bound_to 7997
  156.2983  140.2312  156.4566 H   0  0  0  0  0  0  0  0  0  0  0  0  # atno 8009 bound_to 7997
  154.8021  140.0433  157.1269 H   0  0  0  0  0  0  0  0  0  0  0  0  # atno 8010 bound_to 7997
  140.2138  143.3726  152.1028 H   0  0  0  0  0  0  0  0  0  0  0  0  # atno 10167 bound_to 10162
  157.2393  131.0755  151.1803 H   0  0  0  0  0  0  0  0  0  0  0  0  # atno 10718 bound_to 10713
  152.9893  135.5574  154.5703 H   0  0  0  0  0  0  0  0  0  0  0  0  # atno 10763 bound_to 10752
  154.5105  135.2802  155.1348 H   0  0  0  0  0  0  0  0  0  0  0  0  # atno 10764 bound_to 10752
  154.2742  135.6357  153.5375 H   0  0  0  0  0  0  0  0  0  0  0  0  # atno 10765 bound_to 10752
  140.4162  134.6647  157.4640 H   0  0  0  0  0  0  0  0  0  0  0  0  # atno 11005 bound_to 11000
  144.7004  140.3627  143.7161 LP  0  0  0  0  0  0  0  0  0  0  0  0  # atno 17320 bound_to 7965
  145.7138  139.1692  143.2523 LP  0  0  0  0  0  0  0  0  0  0  0  0  # atno 17321 bound_to 7965
  139.5170  144.6985  151.5562 LP  0  0  0  0  0  0  0  0  0  0  0  0  # atno 17342 bound_to 10162
  140.6304  143.9087  150.6601 LP  0  0  0  0  0  0  0  0  0  0  0  0  # atno 17343 bound_to 10162
  157.3396  130.7026  149.6373 LP  0  0  0  0  0  0  0  0  0  0  0  0  # atno 17370 bound_to 10713
  155.9671  130.4284  150.4785 LP  0  0  0  0  0  0  0  0  0  0  0  0  # atno 17371 bound_to 10713
  140.0232  134.6516  155.9210 LP  0  0  0  0  0  0  0  0  0  0  0  0  # atno 17394 bound_to 11000
  141.1802  133.6545  156.4988 LP  0  0  0  0  0  0  0  0  0  0  0  0  # atno 17395 bound_to 11000

$$$$
