AV-unprocessed.smi:2784|AV-procd|sdf|10734|dock4
  -GOLD-   2272015173D 1   1.00000     0.00000
 Structure written by MMmdl.
 31 32  0  0  0  0  0  0  0  0  1 V2000
  151.9222  145.6980  159.4638 C   0  0  0  0  0  0  0  0  0  0  0  0
  152.3968  144.4345  159.0258 O   0  0  0  0  0  0  0  0  0  0  0  0
  152.0288  143.3611  159.8813 C   0  0  2  0  0  0  0  0  0  0  0  0
  152.5448  143.6363  161.2963 C   0  0  0  0  0  0  0  0  0  0  0  0
  152.7407  142.2520  161.9036 C   0  0  0  0  0  0  0  0  0  0  0  0
  153.2824  141.4163  160.7443 C   0  0  0  0  0  0  0  0  0  0  0  0
  152.6609  142.0127  159.4655 C   0  0  1  0  0  0  0  0  0  0  0  0
  151.6460  141.1208  158.9096 N   0  0  0  0  0  0  0  0  0  0  0  0
  151.8764  140.1148  158.0533 C   0  0  0  0  0  0  0  0  0  0  0  0
  153.0154  139.8481  157.6572 O   0  0  0  0  0  0  0  0  0  0  0  0
  150.6823  139.5047  157.6996 N   0  0  0  0  0  0  0  0  0  0  0  0
  150.4356  139.2588  156.4493 C   0  0  0  0  0  0  0  0  0  0  0  0
  151.1451  139.5064  155.2771 N   0  0  0  0  0  0  0  0  0  0  0  0
  150.4059  139.0419  154.2256 C   0  0  0  0  0  0  0  0  0  0  0  0
  149.2805  138.5252  154.7097 C   0  0  0  0  0  0  0  0  0  0  0  0
  149.2702  138.6438  156.0671 O   0  0  0  0  0  0  0  0  0  0  0  0
  152.2613  146.4723  158.7760 H   0  0  0  0  0  0  0  0  0  0  0  0
  152.3046  145.9406  160.4559 H   0  0  0  0  0  0  0  0  0  0  0  0
  150.8328  145.7318  159.4921 H   0  0  0  0  0  0  0  0  0  0  0  0
  150.9408  143.2789  159.9346 H   0  0  0  0  0  0  0  0  0  0  0  0
  153.5075  144.1477  161.2493 H   0  0  0  0  0  0  0  0  0  0  0  0
  151.8651  144.2610  161.8764 H   0  0  0  0  0  0  0  0  0  0  0  0
  153.4100  142.2604  162.7643 H   0  0  0  0  0  0  0  0  0  0  0  0
  151.7793  141.8528  162.2296 H   0  0  0  0  0  0  0  0  0  0  0  0
  154.3667  141.5268  160.6992 H   0  0  0  0  0  0  0  0  0  0  0  0
  153.0759  140.3531  160.8753 H   0  0  0  0  0  0  0  0  0  0  0  0
  153.4511  142.1837  158.7319 H   0  0  0  0  0  0  0  0  0  0  0  0
  150.6906  141.2913  159.1879 H   0  0  0  0  0  0  0  0  0  0  0  0
  152.0480  139.9478  155.1749 H   0  0  0  0  0  0  0  0  0  0  0  0
  150.7749  139.1337  153.2146 H   0  0  0  0  0  0  0  0  0  0  0  0
  148.4272  138.0575  154.2412 H   0  0  0  0  0  0  0  0  0  0  0  0
  1  2  1  0  0  0  0
  1 17  1  0  0  0  0
  1 18  1  0  0  0  0
  1 19  1  0  0  0  0
  2  3  1  0  0  0  0
  3  7  1  0  0  0  0
  3  4  1  0  0  0  0
  3 20  1  0  0  0  0
  4  5  1  0  0  0  0
  4 21  1  0  0  0  0
  4 22  1  0  0  0  0
  5  6  1  0  0  0  0
  5 23  1  0  0  0  0
  5 24  1  0  0  0  0
  6  7  1  0  0  0  0
  6 25  1  0  0  0  0
  6 26  1  0  0  0  0
  7  8  1  0  0  0  0
  7 27  1  0  0  0  0
  8 28  1  0  0  0  0
  8  9  1  0  0  0  0
  9 11  1  0  0  0  0
  9 10  2  0  0  0  0
 11 12  2  0  0  0  0
 12 16  1  0  0  0  0
 12 13  1  0  0  0  0
 13 29  1  0  0  0  0
 13 14  1  0  0  0  0
 14 30  1  0  0  0  0
 14 15  2  0  0  0  0
 15 31  1  0  0  0  0
 15 16  1  0  0  0  0
M  END
> <s_m_source_file>
AV-unprocessed.smi

> <i_m_source_file_index>
2784

> <i_lp_mmshare_version>
43012

> <i_f3d_flags>
0

> <s_epik_input>
W0NIM11PW0NAQEhdMVtDSDJdW0NIMl1bQ0gyXVtDQEhdMVtOSF1DKD1PKVtOSF1jMm5bY0hdW2NIXW8y

> <s_epik_cmdline>
J2VwaWtfcHl0aG9uJywgJy1waCcsICc3LjAnLCAnLXRuJywgJzgnLCAnLW1hJywgJzIwMCcsICctbWV0YWxfYmluZGluZycsICctaW1hZScsICc8aW5maWxlLm1hZT4nLCAnLW9tYWUnLCAnPG91dGZpbGUubWFlPic=

> <r_lp_tautomer_probability>
0.107061

> <r_epik_Ionization_Penalty>
1.29244

> <r_epik_Ionization_Penalty_Charging>
1.29208

> <r_epik_Ionization_Penalty_Neutral>
0.000359742

> <r_epik_State_Penalty>
2.59896

> <r_epik_Charging_Adjusted_Penalty>
3.89105

> <i_epik_Tot_Q>
0

> <i_epik_Tot_abs_Q>
0

> <r_epik_Metal_State_Penalty>
3.62496

> <b_epik_Metal_Only>
0

> <s_lp_Force_Field>
OPLS_2005

> <r_lp_Energy>
42.7812

> <b_lp_Chiralities_Consistent>
1

> <s_lp_Variant>
AV-unprocessed.smi:2784-9

> <Gold.Version>
5.8.1

> <Gold.Id.Protein>
6NUR|6NUR_protein|mol2

> <Gold.PLP.Fitness>
35.7721

> <Gold.PLP.PLP>
-31.2913

> <Gold.PLP.part.hbond>
-1.0000

> <Gold.PLP.part.metal>
0.0000

> <Gold.PLP.part.buried>
-3.8122

> <Gold.PLP.part.nonpolar>
-26.5145

> <Gold.PLP.part.repulsive>
0.2762

> <Gold.PLP.ligand.clash>
0.0000

> <Gold.PLP.ligand.torsion>
0.7613

> <Gold.PLP.Chemscore.Hbond>
1.0000

> <Gold.PLP.Chemscore.CHOScore>
0.9989

> <Gold.PLP.Chemscore.Metal>
0.0000

> <Gold.Chemscore.Hbonds>
donor molecule, donor type, donor heavy atom, donor atom, acceptor molecule, acceptor atom, score
      P1  H  7997  8009       L1    10  1.00
      L1  C    14    30       P1  7957  1.00

> <Gold.PLP.Chemscore.Internal.Correction>
0.0067

> <Gold.Rescore>
     Score         DG    S(hbond)    S(metal)    S(lipo)     H(rot)  DE(clash)    DE(int)     intcor
     14.29     -15.12       1.00        0.00      82.88       1.32       0.14       0.69       ----

> <Gold.Chemscore.Fitness>
14.2915

> <Gold.Chemscore.DG>
-15.1160

> <Gold.Chemscore.ZeroCoef>
-5.4800

> <Gold.Chemscore.Hbond>
0.9961

> <Gold.Chemscore.Metal>
0.0000

> <Gold.Chemscore.Lipo>
82.8829

> <Gold.Chemscore.Internal_Hbond>
0.0000

> <Gold.Chemscore.DEClash>
0.1371

> <Gold.Chemscore.DEInternal>
0.6874

> <Gold.Chemscore.Rot>
1.3235

> <Gold.Chemscore.Internal.Correction>
   9.000000E+99

> <Gold.Chemscore.Hbonds>
donor molecule, donor type, donor heavy atom, donor atom, acceptor molecule, acceptor atom, score
      P1  H  7997  8009       L1    10  0.98

> <Gold.Chemscore.Hbond.Weighted>
-3.3268

> <Gold.Chemscore.Metal.Weighted>
-0.0000

> <Gold.Chemscore.Lipo.Weighted>
-9.6973

> <Gold.Chemscore.Internal_Hbond.Weighted>
0.0000

> <Gold.Chemscore.DEClash.Weighted>
0.1371

> <Gold.Chemscore.DEInternal.Weighted>
0.6874

> <Gold.Chemscore.Rot.Weighted>
3.3882

> <Gold.Chemscore.Internal.Correction.Weighted>
   9.000000E+99

> <Gold.Protein.RotatedTorsions>
[ 6907 6896 6895 6894 ] final -123.34 input  -60.11 | X-H torsion
[ 7974 7965 7964 7962 ] final -137.76 input  175.53 | X-H torsion
[ 8008 7997 7996 7995 ] final  177.84 input   59.86 | X-H torsion
[ 10167 10162 10161 10158 ] final  -81.40 input  -65.29 | X-H torsion
[ 10718 10713 10712 10709 ] final  -60.92 input   66.30 | X-H torsion
[ 10763 10752 10751 10750 ] final   80.42 input  -60.55 | X-H torsion
[ 11005 11000 10999 10996 ] final  -46.91 input  -57.11 | X-H torsion

> <Gold.Protein.ActiveResidues>
 VAL166  LYS551  ARG553  GLY616  TRP617  ASP618  TYR619  PRO620  LYS621  CYS622 
 ASP623  PHE694  ASN695  SER759  ASP760  ASP761  ALA762  ILE779  LEU786  VAL792 
 PHE793  MET794  SER795  GLU796  ALA797  LYS798  CYS799  TRP800  GLU811  SER814 

> <Gold.Protein.RotatedAtoms>
  150.8662  133.7572  159.2975 H   0  0  0  0  0  0  0  0  0  0  0  0  # atno 6907 bound_to 6896
  151.5199  135.1065  159.9885 H   0  0  0  0  0  0  0  0  0  0  0  0  # atno 6908 bound_to 6896
  152.4662  133.7884  159.6944 H   0  0  0  0  0  0  0  0  0  0  0  0  # atno 6909 bound_to 6896
  144.8814  140.6513  143.5203 H   0  0  0  0  0  0  0  0  0  0  0  0  # atno 7974 bound_to 7965
  156.0613  140.1348  156.9938 H   0  0  0  0  0  0  0  0  0  0  0  0  # atno 8008 bound_to 7997
  154.4483  140.0991  156.6592 H   0  0  0  0  0  0  0  0  0  0  0  0  # atno 8009 bound_to 7997
  155.5373  140.3460  155.4441 H   0  0  0  0  0  0  0  0  0  0  0  0  # atno 8010 bound_to 7997
  140.4415  143.2513  151.8619 H   0  0  0  0  0  0  0  0  0  0  0  0  # atno 10167 bound_to 10162
  156.0957  130.4193  150.0921 H   0  0  0  0  0  0  0  0  0  0  0  0  # atno 10718 bound_to 10713
  153.1032  135.4803  154.8904 H   0  0  0  0  0  0  0  0  0  0  0  0  # atno 10763 bound_to 10752
  154.7401  135.3080  154.8745 H   0  0  0  0  0  0  0  0  0  0  0  0  # atno 10764 bound_to 10752
  153.9355  135.6840  153.4798 H   0  0  0  0  0  0  0  0  0  0  0  0  # atno 10765 bound_to 10752
  141.0608  133.6710  156.3221 H   0  0  0  0  0  0  0  0  0  0  0  0  # atno 11005 bound_to 11000
  145.3947  139.1609  143.4210 LP  0  0  0  0  0  0  0  0  0  0  0  0  # atno 17320 bound_to 7965
  146.2997  140.4039  142.8708 LP  0  0  0  0  0  0  0  0  0  0  0  0  # atno 17321 bound_to 7965
  139.4790  144.5224  151.8783 LP  0  0  0  0  0  0  0  0  0  0  0  0  # atno 17342 bound_to 10162
  140.4313  144.2112  150.5888 LP  0  0  0  0  0  0  0  0  0  0  0  0  # atno 17343 bound_to 10162
  156.8920  130.9592  151.3587 LP  0  0  0  0  0  0  0  0  0  0  0  0  # atno 17370 bound_to 10713
  157.6118  130.8588  149.8963 LP  0  0  0  0  0  0  0  0  0  0  0  0  # atno 17371 bound_to 10713
  140.5873  134.5686  157.5492 LP  0  0  0  0  0  0  0  0  0  0  0  0  # atno 17394 bound_to 11000
  139.9431  134.7751  156.0629 LP  0  0  0  0  0  0  0  0  0  0  0  0  # atno 17395 bound_to 11000

$$$$
