AV-unprocessed.smi:1624|AV-procd|sdf|6503|dock1
  -GOLD-   22720 7173D 1   1.00000     0.00000
 Structure written by MMmdl.
 36 37  0  0  0  0  0  0  0  0  1 V2000
  147.4109  133.1027  154.7170 O   0  0  0  0  0  0  0  0  0  0  0  0
  147.7505  133.9199  153.8606 C   0  0  0  0  0  0  0  0  0  0  0  0
  148.5144  134.9901  154.1223 N   0  0  0  0  0  0  0  0  0  0  0  0
  149.0479  135.3351  155.4339 C   0  0  0  0  0  0  0  0  0  0  0  0
  148.9097  136.8410  155.7247 C   0  0  0  0  0  0  0  0  0  0  0  0
  149.9658  137.6066  155.0515 N   0  0  0  0  0  0  0  0  0  0  0  0
  149.5340  138.8151  154.3297 C   0  0  0  0  0  0  0  0  0  0  0  0
  149.9762  140.1344  155.0053 C   0  0  0  0  0  0  0  0  0  0  0  0
  151.2874  140.0827  155.8143 C   0  0  0  0  0  0  0  0  0  0  0  0
  152.5004  139.5061  155.0545 C   0  0  0  0  0  0  0  0  0  0  0  0
  152.3136  138.1094  154.4151 C   0  0  0  0  0  0  0  0  0  0  0  0
  151.2664  137.2286  155.1155 C   0  0  0  0  0  0  0  0  0  0  0  0
  151.6444  136.2210  155.7139 O   0  0  0  0  0  0  0  0  0  0  0  0
  147.4166  133.8690  152.5592 N   0  0  0  0  0  0  0  0  0  0  0  0
  146.6241  132.8994  151.8897 C   0  0  0  0  0  0  0  0  0  0  0  0
  146.1388  133.0616  150.6489 N   0  0  0  0  0  0  0  0  0  0  0  0
  145.3993  131.9619  150.2326 N   0  0  0  0  0  0  0  0  0  0  0  0
  145.3564  131.0152  151.1744 C   0  0  0  0  0  0  0  0  0  0  0  0
  146.2156  131.3742  152.6619 S   0  0  0  0  0  0  0  0  0  0  0  0
  148.7462  135.6105  153.3606 H   0  0  0  0  0  0  0  0  0  0  0  0
  148.5476  134.7486  156.2066 H   0  0  0  0  0  0  0  0  0  0  0  0
  150.0975  135.0409  155.4546 H   0  0  0  0  0  0  0  0  0  0  0  0
  147.9282  137.1941  155.4034 H   0  0  0  0  0  0  0  0  0  0  0  0
  148.9336  137.0189  156.8004 H   0  0  0  0  0  0  0  0  0  0  0  0
  149.9146  138.7772  153.3089 H   0  0  0  0  0  0  0  0  0  0  0  0
  148.4509  138.8364  154.2060 H   0  0  0  0  0  0  0  0  0  0  0  0
  150.0464  140.9124  154.2445 H   0  0  0  0  0  0  0  0  0  0  0  0
  149.1843  140.4570  155.6822 H   0  0  0  0  0  0  0  0  0  0  0  0
  151.5302  141.0901  156.1533 H   0  0  0  0  0  0  0  0  0  0  0  0
  151.1254  139.5107  156.7291 H   0  0  0  0  0  0  0  0  0  0  0  0
  152.7948  140.2078  154.2734 H   0  0  0  0  0  0  0  0  0  0  0  0
  153.3451  139.4658  155.7433 H   0  0  0  0  0  0  0  0  0  0  0  0
  152.0445  138.2105  153.3640 H   0  0  0  0  0  0  0  0  0  0  0  0
  153.2719  137.5883  154.4078 H   0  0  0  0  0  0  0  0  0  0  0  0
  147.7735  134.6119  151.9769 H   0  0  0  0  0  0  0  0  0  0  0  0
  144.8155  130.0987  150.9920 H   0  0  0  0  0  0  0  0  0  0  0  0
  1  2  2  0  0  0  0
  2  3  1  0  0  0  0
  2 14  1  0  0  0  0
  3  4  1  0  0  0  0
  3 20  1  0  0  0  0
  4  5  1  0  0  0  0
  4 21  1  0  0  0  0
  4 22  1  0  0  0  0
  5  6  1  0  0  0  0
  5 23  1  0  0  0  0
  5 24  1  0  0  0  0
  6 12  1  0  0  0  0
  6  7  1  0  0  0  0
  7  8  1  0  0  0  0
  7 25  1  0  0  0  0
  7 26  1  0  0  0  0
  8  9  1  0  0  0  0
  8 27  1  0  0  0  0
  8 28  1  0  0  0  0
  9 10  1  0  0  0  0
  9 29  1  0  0  0  0
  9 30  1  0  0  0  0
 10 11  1  0  0  0  0
 10 31  1  0  0  0  0
 10 32  1  0  0  0  0
 11 12  1  0  0  0  0
 11 33  1  0  0  0  0
 11 34  1  0  0  0  0
 12 13  2  0  0  0  0
 14 15  1  0  0  0  0
 14 35  1  0  0  0  0
 15 19  1  0  0  0  0
 15 16  2  0  0  0  0
 16 17  1  0  0  0  0
 17 18  2  0  0  0  0
 18 19  1  0  0  0  0
 18 36  1  0  0  0  0
M  END
> <s_m_source_file>
AV-unprocessed.smi

> <i_m_source_file_index>
1624

> <i_lp_mmshare_version>
43012

> <i_f3d_flags>
0

> <s_epik_input>
czFbY0hdbm5jMVtOSF1DKD1PKVtOSF1bQ0gyXVtDSDJdTjJbQ0gyXVtDSDJdW0NIMl1bQ0gyXVtDSDJdQzI9Tw==

> <s_epik_cmdline>
J2VwaWtfcHl0aG9uJywgJy1waCcsICc3LjAnLCAnLXRuJywgJzgnLCAnLW1hJywgJzIwMCcsICctbWV0YWxfYmluZGluZycsICctaW1hZScsICc8aW5maWxlLm1hZT4nLCAnLW9tYWUnLCAnPG91dGZpbGUubWFlPic=

> <r_lp_tautomer_probability>
1

> <r_epik_Ionization_Penalty>
0.00222419

> <r_epik_Ionization_Penalty_Charging>
0

> <r_epik_Ionization_Penalty_Neutral>
0.00222419

> <r_epik_State_Penalty>
-0

> <r_epik_Charging_Adjusted_Penalty>
0

> <i_epik_Tot_Q>
0

> <i_epik_Tot_abs_Q>
0

> <r_epik_Metal_State_Penalty>
0.3454

> <b_epik_Metal_Only>
0

> <s_lp_Force_Field>
OPLS_2005

> <r_lp_Energy>
20.1162

> <b_lp_Chiralities_Consistent>
1

> <s_lp_Variant>
AV-unprocessed.smi:1624-1

> <Gold.Version>
5.8.1

> <Gold.Id.Protein>
6NUR|6NUR_protein|mol2

> <Gold.PLP.Fitness>
38.1132

> <Gold.PLP.PLP>
-29.9856

> <Gold.PLP.part.hbond>
-3.0000

> <Gold.PLP.part.metal>
0.0000

> <Gold.PLP.part.buried>
-2.2915

> <Gold.PLP.part.nonpolar>
-25.2240

> <Gold.PLP.part.repulsive>
0.4184

> <Gold.PLP.ligand.clash>
0.0000

> <Gold.PLP.ligand.torsion>
0.3863

> <Gold.PLP.Chemscore.Hbond>
2.9600

> <Gold.PLP.Chemscore.CHOScore>
0.0000

> <Gold.PLP.Chemscore.Metal>
0.0000

> <Gold.Chemscore.Hbonds>
donor molecule, donor type, donor heavy atom, donor atom, acceptor molecule, acceptor atom, score
      L1  H     3    20       P1  7948  1.00
      L1  H    14    35       P1  7948  0.96
      P1  H 10752 10764       L1    13  1.00

> <Gold.PLP.Chemscore.Internal.Correction>
0.0202

> <Gold.Rescore>
     Score         DG    S(hbond)    S(metal)    S(lipo)     H(rot)  DE(clash)    DE(int)     intcor
     14.25     -16.47       2.62        0.00      57.61       1.76       0.09       2.14       ----

> <Gold.Chemscore.Fitness>
14.2490

> <Gold.Chemscore.DG>
-16.4734

> <Gold.Chemscore.ZeroCoef>
-5.4800

> <Gold.Chemscore.Hbond>
2.6237

> <Gold.Chemscore.Metal>
0.0000

> <Gold.Chemscore.Lipo>
57.6053

> <Gold.Chemscore.Internal_Hbond>
0.0000

> <Gold.Chemscore.DEClash>
0.0873

> <Gold.Chemscore.DEInternal>
2.1371

> <Gold.Chemscore.Rot>
1.7615

> <Gold.Chemscore.Internal.Correction>
   9.000000E+99

> <Gold.Chemscore.Hbonds>
donor molecule, donor type, donor heavy atom, donor atom, acceptor molecule, acceptor atom, score
      L1  H     3    20       P1  7948  0.93
      L1  H    14    35       P1  7948  0.36
      P1  H 10752 10764       L1    13  0.74

> <Gold.Chemscore.Hbond.Weighted>
-8.7630

> <Gold.Chemscore.Metal.Weighted>
-0.0000

> <Gold.Chemscore.Lipo.Weighted>
-6.7398

> <Gold.Chemscore.Internal_Hbond.Weighted>
0.0000

> <Gold.Chemscore.DEClash.Weighted>
0.0873

> <Gold.Chemscore.DEInternal.Weighted>
2.1371

> <Gold.Chemscore.Rot.Weighted>
4.5095

> <Gold.Chemscore.Internal.Correction.Weighted>
   9.000000E+99

> <Gold.Protein.RotatedTorsions>
[ 6907 6896 6895 6894 ] final  138.66 input  -60.11 | X-H torsion
[ 7974 7965 7964 7962 ] final   68.72 input  175.53 | X-H torsion
[ 8008 7997 7996 7995 ] final   58.26 input   59.86 | X-H torsion
[ 10167 10162 10161 10158 ] final  -73.95 input  -65.29 | X-H torsion
[ 10718 10713 10712 10709 ] final  -62.49 input   66.30 | X-H torsion
[ 10763 10752 10751 10750 ] final  -41.45 input  -60.55 | X-H torsion
[ 11005 11000 10999 10996 ] final   58.44 input  -57.11 | X-H torsion

> <Gold.Protein.ActiveResidues>
 VAL166  LYS551  ARG553  GLY616  TRP617  ASP618  TYR619  PRO620  LYS621  CYS622 
 ASP623  PHE694  ASN695  SER759  ASP760  ASP761  ALA762  ILE779  LEU786  VAL792 
 PHE793  MET794  SER795  GLU796  ALA797  LYS798  CYS799  TRP800  GLU811  SER814 

> <Gold.Protein.RotatedAtoms>
  152.2640  133.5322  159.5398 H   0  0  0  0  0  0  0  0  0  0  0  0  # atno 6907 bound_to 6896
  150.7135  134.0790  159.3900 H   0  0  0  0  0  0  0  0  0  0  0  0  # atno 6908 bound_to 6896
  151.8707  135.0490  160.0530 H   0  0  0  0  0  0  0  0  0  0  0  0  # atno 6909 bound_to 6896
  145.7992  139.2973  143.1165 H   0  0  0  0  0  0  0  0  0  0  0  0  # atno 7974 bound_to 7965
  155.5472  140.3485  155.4460 H   0  0  0  0  0  0  0  0  0  0  0  0  # atno 8008 bound_to 7997
  156.0609  140.1340  156.9968 H   0  0  0  0  0  0  0  0  0  0  0  0  # atno 8009 bound_to 7997
  154.4479  140.0985  156.6501 H   0  0  0  0  0  0  0  0  0  0  0  0  # atno 8010 bound_to 7997
  140.5068  143.2351  151.7661 H   0  0  0  0  0  0  0  0  0  0  0  0  # atno 10167 bound_to 10162
  156.0852  130.4209  150.1143 H   0  0  0  0  0  0  0  0  0  0  0  0  # atno 10718 bound_to 10713
  153.9627  135.6737  153.4745 H   0  0  0  0  0  0  0  0  0  0  0  0  # atno 10763 bound_to 10752
  153.0830  135.4913  154.8538 H   0  0  0  0  0  0  0  0  0  0  0  0  # atno 10764 bound_to 10752
  154.7263  135.3128  154.8925 H   0  0  0  0  0  0  0  0  0  0  0  0  # atno 10765 bound_to 10752
  140.0377  134.5919  155.9422 H   0  0  0  0  0  0  0  0  0  0  0  0  # atno 11005 bound_to 11000
  145.9896  140.8614  143.0073 LP  0  0  0  0  0  0  0  0  0  0  0  0  # atno 17320 bound_to 7965
  144.6771  140.2196  143.7368 LP  0  0  0  0  0  0  0  0  0  0  0  0  # atno 17321 bound_to 7965
  139.4885  144.4447  151.9724 LP  0  0  0  0  0  0  0  0  0  0  0  0  # atno 17342 bound_to 10162
  140.3537  144.3057  150.5945 LP  0  0  0  0  0  0  0  0  0  0  0  0  # atno 17343 bound_to 10162
  156.9165  130.9669  151.3555 LP  0  0  0  0  0  0  0  0  0  0  0  0  # atno 17370 bound_to 10713
  157.5983  130.8494  149.8763 LP  0  0  0  0  0  0  0  0  0  0  0  0  # atno 17371 bound_to 10713
  141.1866  133.6558  156.5248 LP  0  0  0  0  0  0  0  0  0  0  0  0  # atno 17394 bound_to 11000
  140.4120  134.7264  157.4841 LP  0  0  0  0  0  0  0  0  0  0  0  0  # atno 17395 bound_to 11000

$$$$
