AV-unprocessed.smi:275|AV-procd|sdf|2066|dock3
  -GOLD-   2262021313D 1   1.00000     0.00000
 Structure written by MMmdl.
 65 69  0  0  0  0  0  0  0  0  1 V2000
  148.2402  140.5506  157.2270 C   0  0  0  0  0  0  0  0  0  0  0  0
  148.7839  141.5828  156.2236 C   0  0  0  0  0  0  0  0  0  0  0  0
  148.3220  141.1939  154.8092 C   0  0  0  0  0  0  0  0  0  0  0  0
  150.3154  141.7126  156.2924 C   0  0  2  0  0  0  0  0  0  0  0  0
  150.9672  140.6155  157.0034 N   0  0  0  0  0  0  0  0  0  0  0  0
  151.4023  139.5270  156.1992 C   0  0  0  0  0  0  0  0  0  0  0  0
  152.4426  139.6546  155.3305 N   0  0  0  0  0  0  0  0  0  0  0  0
  152.8344  138.6246  154.5747 C   0  0  0  0  0  0  0  0  0  0  0  0
  152.3317  137.3903  154.5225 N   0  0  0  0  0  0  0  0  0  0  0  0
  151.2872  137.2523  155.3871 C   0  0  0  0  0  0  0  0  0  0  0  0
  150.7689  138.2565  156.2515 C   0  0  0  0  0  0  0  0  0  0  0  0
  149.7020  137.7492  156.9827 N   0  0  0  0  0  0  0  0  0  0  0  0
  149.5934  136.5149  156.5721 C   0  0  0  0  0  0  0  0  0  0  0  0
  150.5030  136.1356  155.6109 N   0  0  0  0  0  0  0  0  0  0  0  0
  150.6103  134.8351  154.9749 C   0  0  0  0  0  0  0  0  0  0  0  0
  149.9005  133.7100  155.7683 C   0  0  2  0  0  0  0  0  0  0  0  0
  150.7315  133.2180  156.9784 C   0  0  0  0  0  0  0  0  0  0  0  0
  150.6109  134.0944  158.0801 O   0  0  0  0  0  0  0  0  0  0  0  0
  149.4605  132.5513  154.8389 C   0  0  1  0  0  0  0  0  0  0  0  0
  148.4981  131.5569  155.4648 C   0  0  0  0  0  0  0  0  0  0  0  0
  147.8958  130.8716  154.2426 C   0  0  0  0  0  0  0  0  0  0  0  0
  147.8977  131.8496  153.2086 O   0  0  0  0  0  0  0  0  0  0  0  0
  148.6445  132.9901  153.6184 C   0  0  0  0  0  0  0  0  0  0  0  0
  152.0340  141.5041  157.4401 C   0  0  0  0  0  0  0  0  0  0  0  0
  151.0244  142.6542  157.2971 C   0  0  0  0  0  0  0  0  0  0  0  0
  151.5719  143.9606  156.7000 C   0  0  0  0  0  0  0  0  0  0  0  0
  152.4915  144.7208  157.6701 C   0  0  0  0  0  0  0  0  0  0  0  0
  151.7685  145.0393  158.9849 C   0  0  0  0  0  0  0  0  0  0  0  0
  151.1664  143.7726  159.6064 C   0  0  0  0  0  0  0  0  0  0  0  0
  150.2753  143.0279  158.5970 C   0  0  0  0  0  0  0  0  0  0  0  0
  148.6964  139.5717  157.0758 H   0  0  0  0  0  0  0  0  0  0  0  0
  147.1608  140.4342  157.1248 H   0  0  0  0  0  0  0  0  0  0  0  0
  148.4287  140.8514  158.2563 H   0  0  0  0  0  0  0  0  0  0  0  0
  148.3282  142.5445  156.4627 H   0  0  0  0  0  0  0  0  0  0  0  0
  148.7307  140.2262  154.5163 H   0  0  0  0  0  0  0  0  0  0  0  0
  148.6339  141.9191  154.0603 H   0  0  0  0  0  0  0  0  0  0  0  0
  147.2351  141.1241  154.7564 H   0  0  0  0  0  0  0  0  0  0  0  0
  150.7510  141.8489  155.3005 H   0  0  0  0  0  0  0  0  0  0  0  0
  153.6686  138.8181  153.9166 H   0  0  0  0  0  0  0  0  0  0  0  0
  148.8371  135.8451  156.9551 H   0  0  0  0  0  0  0  0  0  0  0  0
  150.1899  134.9246  153.9730 H   0  0  0  0  0  0  0  0  0  0  0  0
  151.6673  134.5988  154.8457 H   0  0  0  0  0  0  0  0  0  0  0  0
  148.9906  134.1446  156.1848 H   0  0  0  0  0  0  0  0  0  0  0  0
  150.4175  132.2215  157.2894 H   0  0  0  0  0  0  0  0  0  0  0  0
  151.7852  133.1273  156.7162 H   0  0  0  0  0  0  0  0  0  0  0  0
  150.2079  134.8961  157.7833 H   0  0  0  0  0  0  0  0  0  0  0  0
  150.3396  132.0086  154.4881 H   0  0  0  0  0  0  0  0  0  0  0  0
  148.9843  130.8506  156.1382 H   0  0  0  0  0  0  0  0  0  0  0  0
  147.7182  132.0787  156.0216 H   0  0  0  0  0  0  0  0  0  0  0  0
  148.5204  130.0347  153.9285 H   0  0  0  0  0  0  0  0  0  0  0  0
  146.8912  130.4925  154.4313 H   0  0  0  0  0  0  0  0  0  0  0  0
  147.9416  133.7804  153.8856 H   0  0  0  0  0  0  0  0  0  0  0  0
  149.2716  133.3574  152.8058 H   0  0  0  0  0  0  0  0  0  0  0  0
  152.3686  141.3112  158.4593 H   0  0  0  0  0  0  0  0  0  0  0  0
  152.8718  141.5786  156.7447 H   0  0  0  0  0  0  0  0  0  0  0  0
  152.1236  143.7540  155.7823 H   0  0  0  0  0  0  0  0  0  0  0  0
  150.7470  144.6102  156.4053 H   0  0  0  0  0  0  0  0  0  0  0  0
  153.3798  144.1223  157.8767 H   0  0  0  0  0  0  0  0  0  0  0  0
  152.8425  145.6430  157.2063 H   0  0  0  0  0  0  0  0  0  0  0  0
  152.4558  145.5122  159.6871 H   0  0  0  0  0  0  0  0  0  0  0  0
  150.9739  145.7621  158.7951 H   0  0  0  0  0  0  0  0  0  0  0  0
  151.9679  143.1163  159.9466 H   0  0  0  0  0  0  0  0  0  0  0  0
  150.5873  144.0339  160.4924 H   0  0  0  0  0  0  0  0  0  0  0  0
  149.4118  143.6536  158.3761 H   0  0  0  0  0  0  0  0  0  0  0  0
  149.8736  142.1354  159.0781 H   0  0  0  0  0  0  0  0  0  0  0  0
  1  2  1  0  0  0  0
  1 31  1  0  0  0  0
  1 32  1  0  0  0  0
  1 33  1  0  0  0  0
  2  3  1  0  0  0  0
  2  4  1  0  0  0  0
  2 34  1  0  0  0  0
  3 35  1  0  0  0  0
  3 36  1  0  0  0  0
  3 37  1  0  0  0  0
  4 25  1  0  0  0  0
  4  5  1  0  0  0  0
  4 38  1  0  0  0  0
  5  6  1  0  0  0  0
  5 24  1  0  0  0  0
  6 11  1  0  0  0  0
  6  7  2  0  0  0  0
  7  8  1  0  0  0  0
  8  9  2  0  0  0  0
  8 39  1  0  0  0  0
  9 10  1  0  0  0  0
 10 14  1  0  0  0  0
 10 11  2  0  0  0  0
 11 12  1  0  0  0  0
 12 13  2  0  0  0  0
 13 14  1  0  0  0  0
 13 40  1  0  0  0  0
 14 15  1  0  0  0  0
 15 16  1  0  0  0  0
 15 41  1  0  0  0  0
 15 42  1  0  0  0  0
 16 17  1  0  0  0  0
 16 19  1  0  0  0  0
 16 43  1  0  0  0  0
 17 18  1  0  0  0  0
 17 44  1  0  0  0  0
 17 45  1  0  0  0  0
 18 46  1  0  0  0  0
 19 23  1  0  0  0  0
 19 20  1  0  0  0  0
 19 47  1  0  0  0  0
 20 21  1  0  0  0  0
 20 48  1  0  0  0  0
 20 49  1  0  0  0  0
 21 22  1  0  0  0  0
 21 50  1  0  0  0  0
 21 51  1  0  0  0  0
 22 23  1  0  0  0  0
 23 52  1  0  0  0  0
 23 53  1  0  0  0  0
 24 25  1  0  0  0  0
 24 54  1  0  0  0  0
 24 55  1  0  0  0  0
 25 30  1  0  0  0  0
 25 26  1  0  0  0  0
 26 27  1  0  0  0  0
 26 56  1  0  0  0  0
 26 57  1  0  0  0  0
 27 28  1  0  0  0  0
 27 58  1  0  0  0  0
 27 59  1  0  0  0  0
 28 29  1  0  0  0  0
 28 60  1  0  0  0  0
 28 61  1  0  0  0  0
 29 30  1  0  0  0  0
 29 62  1  0  0  0  0
 29 63  1  0  0  0  0
 30 64  1  0  0  0  0
 30 65  1  0  0  0  0
M  END
> <s_m_source_file>
AV-unprocessed.smi

> <i_m_source_file_index>
275

> <i_lp_mmshare_version>
43012

> <i_f3d_flags>
0

> <s_epik_input>
W0NIMl0xW0NIMl1bQ0gyXVtDSDJdW0NIMl1DMTJbQ0BIXShbQ0hdKFtDSDNdKVtDSDNdKU4oW0NIMl0yKWMobltjSF1uMyljKGMzNCluW2NIXW40W0NIMl1bQ0BIXShbQ0gyXVtPSF0pW0NAQEhdNVtDSDJdW0NIMl1PW0NIMl01

> <s_epik_cmdline>
J2VwaWtfcHl0aG9uJywgJy1waCcsICc3LjAnLCAnLXRuJywgJzgnLCAnLW1hJywgJzIwMCcsICctbWV0YWxfYmluZGluZycsICctaW1hZScsICc8aW5maWxlLm1hZT4nLCAnLW9tYWUnLCAnPG91dGZpbGUubWFlPic=

> <r_lp_tautomer_probability>
1

> <r_epik_Ionization_Penalty>
0.00375122

> <r_epik_Ionization_Penalty_Charging>
0

> <r_epik_Ionization_Penalty_Neutral>
0.00375122

> <r_epik_State_Penalty>
0.00260593

> <r_epik_Charging_Adjusted_Penalty>
0.00260593

> <i_epik_Tot_Q>
0

> <i_epik_Tot_abs_Q>
0

> <r_epik_Metal_State_Penalty>
-0

> <b_epik_Metal_Only>
0

> <s_lp_Force_Field>
OPLS_2005

> <r_lp_Energy>
62.8916

> <b_lp_Chiralities_Consistent>
1

> <s_lp_Variant>
AV-unprocessed.smi:275-5

> <Gold.Version>
5.8.1

> <Gold.Id.Protein>
6NUR|6NUR_protein|mol2

> <Gold.PLP.Fitness>
54.0500

> <Gold.PLP.PLP>
-50.1479

> <Gold.PLP.part.hbond>
-3.2613

> <Gold.PLP.part.metal>
0.0000

> <Gold.PLP.part.buried>
-6.8232

> <Gold.PLP.part.nonpolar>
-42.4214

> <Gold.PLP.part.repulsive>
1.2795

> <Gold.PLP.ligand.clash>
0.0000

> <Gold.PLP.ligand.torsion>
2.2153

> <Gold.PLP.Chemscore.Hbond>
2.5640

> <Gold.PLP.Chemscore.CHOScore>
0.0000

> <Gold.PLP.Chemscore.Metal>
0.0000

> <Gold.Chemscore.Hbonds>
donor molecule, donor type, donor heavy atom, donor atom, acceptor molecule, acceptor atom, score
      P1  H  6896  6908       L1    18  0.14
      P1  H  7989  7998       L1     7  0.13
      P1  H  7997  8009       L1     7  0.64
      P1  H 10752 10765       L1     9  0.74

> <Gold.PLP.Chemscore.Internal.Correction>
0.6407

> <Gold.Rescore>
     Score         DG    S(hbond)    S(metal)    S(lipo)     H(rot)  DE(clash)    DE(int)     intcor
     16.45     -20.17       1.93        0.00     125.96       2.54       0.61       3.11       ----

> <Gold.Chemscore.Fitness>
16.4529

> <Gold.Chemscore.DG>
-20.1673

> <Gold.Chemscore.ZeroCoef>
-5.4800

> <Gold.Chemscore.Hbond>
1.9302

> <Gold.Chemscore.Metal>
0.0000

> <Gold.Chemscore.Lipo>
125.9565

> <Gold.Chemscore.Internal_Hbond>
0.0000

> <Gold.Chemscore.DEClash>
0.6078

> <Gold.Chemscore.DEInternal>
3.1066

> <Gold.Chemscore.Rot>
2.5377

> <Gold.Chemscore.Internal.Correction>
   9.000000E+99

> <Gold.Chemscore.Hbonds>
donor molecule, donor type, donor heavy atom, donor atom, acceptor molecule, acceptor atom, score
      P1  H  6896  6908       L1    18  0.14
      P1  H  7989  7998       L1     7  0.01
      P1  H  7997  8009       L1     7  0.10
      P1  H 10752 10765       L1     9  0.32

> <Gold.Chemscore.Hbond.Weighted>
-6.4470

> <Gold.Chemscore.Metal.Weighted>
-0.0000

> <Gold.Chemscore.Lipo.Weighted>
-14.7369

> <Gold.Chemscore.Internal_Hbond.Weighted>
0.0000

> <Gold.Chemscore.DEClash.Weighted>
0.6078

> <Gold.Chemscore.DEInternal.Weighted>
3.1066

> <Gold.Chemscore.Rot.Weighted>
6.4966

> <Gold.Chemscore.Internal.Correction.Weighted>
   9.000000E+99

> <Gold.Protein.RotatedTorsions>
[ 6907 6896 6895 6894 ] final  120.48 input  -60.11 | X-H torsion
[ 7974 7965 7964 7962 ] final   71.50 input  175.53 | X-H torsion
[ 8008 7997 7996 7995 ] final -150.00 input   59.86 | X-H torsion
[ 10167 10162 10161 10158 ] final  136.47 input  -65.29 | X-H torsion
[ 10718 10713 10712 10709 ] final -110.79 input   66.30 | X-H torsion
[ 10763 10752 10751 10750 ] final  162.86 input  -60.55 | X-H torsion
[ 11005 11000 10999 10996 ] final  -27.58 input  -57.11 | X-H torsion

> <Gold.Protein.ActiveResidues>
 VAL166  LYS551  ARG553  GLY616  TRP617  ASP618  TYR619  PRO620  LYS621  CYS622 
 ASP623  PHE694  ASN695  SER759  ASP760  ASP761  ALA762  ILE779  LEU786  VAL792 
 PHE793  MET794  SER795  GLU796  ALA797  LYS798  CYS799  TRP800  GLU811  SER814 

> <Gold.Protein.RotatedAtoms>
  152.4394  133.7421  159.6646 H   0  0  0  0  0  0  0  0  0  0  0  0  # atno 6907 bound_to 6896
  150.8283  133.8124  159.3115 H   0  0  0  0  0  0  0  0  0  0  0  0  # atno 6908 bound_to 6896
  151.5786  135.1062  160.0063 H   0  0  0  0  0  0  0  0  0  0  0  0  # atno 6909 bound_to 6896
  145.7650  139.2817  143.1354 H   0  0  0  0  0  0  0  0  0  0  0  0  # atno 7974 bound_to 7965
  155.6166  140.0677  157.2690 H   0  0  0  0  0  0  0  0  0  0  0  0  # atno 8008 bound_to 7997
  154.4239  140.1792  156.1376 H   0  0  0  0  0  0  0  0  0  0  0  0  # atno 8009 bound_to 7997
  156.0042  140.3333  155.6879 H   0  0  0  0  0  0  0  0  0  0  0  0  # atno 8010 bound_to 7997
  139.5179  144.6462  151.5431 H   0  0  0  0  0  0  0  0  0  0  0  0  # atno 10167 bound_to 10162
  156.0610  130.5834  150.8285 H   0  0  0  0  0  0  0  0  0  0  0  0  # atno 10718 bound_to 10713
  154.2848  135.2762  155.2681 H   0  0  0  0  0  0  0  0  0  0  0  0  # atno 10763 bound_to 10752
  154.5186  135.5762  153.6666 H   0  0  0  0  0  0  0  0  0  0  0  0  # atno 10764 bound_to 10752
  152.9923  135.6199  154.3009 H   0  0  0  0  0  0  0  0  0  0  0  0  # atno 10765 bound_to 10752
  140.9132  133.7447  156.0699 H   0  0  0  0  0  0  0  0  0  0  0  0  # atno 11005 bound_to 11000
  146.0226  140.8333  142.9915 LP  0  0  0  0  0  0  0  0  0  0  0  0  # atno 17320 bound_to 7965
  144.6823  140.2652  143.7313 LP  0  0  0  0  0  0  0  0  0  0  0  0  # atno 17321 bound_to 7965
  140.6249  143.9188  150.6556 LP  0  0  0  0  0  0  0  0  0  0  0  0  # atno 17342 bound_to 10162
  140.2474  143.3619  152.1435 LP  0  0  0  0  0  0  0  0  0  0  0  0  # atno 17343 bound_to 10162
  157.5619  131.0946  150.9546 LP  0  0  0  0  0  0  0  0  0  0  0  0  # atno 17370 bound_to 10713
  156.9782  130.5517  149.5294 LP  0  0  0  0  0  0  0  0  0  0  0  0  # atno 17371 bound_to 10713
  140.8083  134.3429  157.5419 LP  0  0  0  0  0  0  0  0  0  0  0  0  # atno 17394 bound_to 11000
  139.8761  134.9239  156.3336 LP  0  0  0  0  0  0  0  0  0  0  0  0  # atno 17395 bound_to 11000

$$$$
