AV-unprocessed.smi:160|AV-procd|sdf|1369|dock1
  -GOLD-   2262019 83D 1   1.00000     0.00000
 Structure written by MMmdl.
 28 29  0  0  0  0  0  0  0  0  2 V2000
  151.5061  136.8494  154.2064 N   0  5  0  0  0  0  0  0  0  0  0  0
  151.5629  138.1293  154.6347 C   0  0  0  0  0  0  0  0  0  0  0  0
  152.5426  138.6893  155.1257 O   0  0  0  0  0  0  0  0  0  0  0  0
  150.2765  138.9035  154.4696 C   0  0  0  0  0  0  0  0  0  0  0  0
  150.2481  140.2571  154.6643 N   0  0  0  0  0  0  0  0  0  0  0  0
  148.9651  140.4807  154.4144 C   0  0  0  0  0  0  0  0  0  0  0  0
  148.2694  139.3865  154.0927 N   0  0  0  0  0  0  0  0  0  0  0  0
  146.8150  139.2444  153.7522 C   0  0  2  0  0  0  0  0  0  0  0  0
  146.2417  138.3248  154.6325 O   0  0  0  0  0  0  0  0  0  0  0  0
  146.0745  137.0719  153.9776 C   0  0  1  0  0  0  0  0  0  0  0  0
  145.0349  136.1979  154.7017 C   0  0  0  0  0  0  0  0  0  0  0  0
  143.7917  136.8639  154.7579 O   0  0  0  0  0  0  0  0  0  0  0  0
  145.7067  137.4904  152.5466 C   0  0  1  0  0  0  0  0  0  0  0  0
  144.3307  137.8136  152.4487 O   0  0  0  0  0  0  0  0  0  0  0  0
  146.5590  138.7337  152.3124 C   0  0  2  0  0  0  0  0  0  0  0  0
  147.7290  138.3953  151.5882 O   0  0  0  0  0  0  0  0  0  0  0  0
  149.1182  138.3288  154.1307 N   0  0  0  0  0  0  0  0  0  0  0  0
  146.3984  140.2355  153.9351 H   0  0  0  0  0  0  0  0  0  0  0  0
  147.0343  136.5533  153.9435 H   0  0  0  0  0  0  0  0  0  0  0  0
  145.9153  136.6958  151.8285 H   0  0  0  0  0  0  0  0  0  0  0  0
  146.0222  139.4979  151.7487 H   0  0  0  0  0  0  0  0  0  0  0  0
  151.0719  136.6580  153.2955 H   0  0  0  0  0  0  0  0  0  0  0  0
  148.5232  141.4649  154.4633 H   0  0  0  0  0  0  0  0  0  0  0  0
  144.9211  135.2285  154.2155 H   0  0  0  0  0  0  0  0  0  0  0  0
  145.3504  136.0132  155.7289 H   0  0  0  0  0  0  0  0  0  0  0  0
  143.3237  136.6982  153.9540 H   0  0  0  0  0  0  0  0  0  0  0  0
  144.1967  138.3139  151.6585 H   0  0  0  0  0  0  0  0  0  0  0  0
  148.2089  137.7443  152.0766 H   0  0  0  0  0  0  0  0  0  0  0  0
  1  2  1  0  0  0  0
  1 22  1  0  0  0  0
  2  3  2  0  0  0  0
  2  4  1  0  0  0  0
  4 17  2  0  0  0  0
  4  5  1  0  0  0  0
  5  6  2  0  0  0  0
  6  7  1  0  0  0  0
  6 23  1  0  0  0  0
  7  8  1  0  0  0  0
  7 17  1  0  0  0  0
  8 18  1  0  0  0  0
  8 15  1  0  0  0  0
  8  9  1  0  0  0  0
  9 10  1  0  0  0  0
 10 19  1  0  0  0  0
 10 11  1  0  0  0  0
 10 13  1  0  0  0  0
 11 12  1  0  0  0  0
 11 24  1  0  0  0  0
 11 25  1  0  0  0  0
 12 26  1  0  0  0  0
 13 20  1  0  0  0  0
 13 14  1  0  0  0  0
 13 15  1  0  0  0  0
 14 27  1  0  0  0  0
 15 21  1  0  0  0  0
 15 16  1  0  0  0  0
 16 28  1  0  0  0  0
M  CHG  1   1  -1
M  END
> <s_m_source_file>
AV-unprocessed.smi

> <i_m_source_file_index>
160

> <i_lp_mmshare_version>
43012

> <i_f3d_flags>
0

> <s_epik_input>
W05IMl1DKD1PKWMxbltjSF1uKG4xKVtDQEBIXTJPW0NASF0oW0NIMl1bT0hdKVtDQEBIXShbT0hdKVtDQEhdMltPSF0=

> <s_epik_cmdline>
J2VwaWtfcHl0aG9uJywgJy1waCcsICc3LjAnLCAnLXRuJywgJzgnLCAnLW1hJywgJzIwMCcsICctbWV0YWxfYmluZGluZycsICctaW1hZScsICc8aW5maWxlLm1hZT4nLCAnLW9tYWUnLCAnPG91dGZpbGUubWFlPic=

> <r_lp_tautomer_probability>
1

> <r_epik_Ionization_Penalty>
6.6993

> <r_epik_Ionization_Penalty_Charging>
6.6993

> <r_epik_Ionization_Penalty_Neutral>
6.01698e-06

> <r_epik_State_Penalty>
6.69929

> <r_epik_Charging_Adjusted_Penalty>
13.3986

> <i_epik_Tot_Q>
-1

> <i_epik_Tot_abs_Q>
1

> <r_epik_Metal_State_Penalty>
2.62798

> <b_epik_Metal_Only>
1

> <s_epik_Chemistry_Notes>
This compound contains an acetal/aminal-like group ( X-CH(R)-Y where X, Y are N, S, or O) that may be acid/base labile, releasing an aldehyde.

> <s_lp_Force_Field>
OPLS_2005

> <r_lp_Energy>
46.3304

> <b_lp_Chiralities_Consistent>
1

> <s_lp_Variant>
AV-unprocessed.smi:160-27

> <Gold.Version>
5.8.1

> <Gold.Id.Protein>
6NUR|6NUR_protein|mol2

> <Gold.PLP.Fitness>
47.2459

> <Gold.PLP.PLP>
-27.2546

> <Gold.PLP.part.hbond>
-7.7364

> <Gold.PLP.part.metal>
0.0000

> <Gold.PLP.part.buried>
-5.3694

> <Gold.PLP.part.nonpolar>
-15.9909

> <Gold.PLP.part.repulsive>
0.9530

> <Gold.PLP.ligand.clash>
0.0000

> <Gold.PLP.ligand.torsion>
0.0698

> <Gold.PLP.Chemscore.Hbond>
6.7080

> <Gold.PLP.Chemscore.CHOScore>
0.0000

> <Gold.PLP.Chemscore.Metal>
0.0000

> <Gold.Chemscore.Hbonds>
donor molecule, donor type, donor heavy atom, donor atom, acceptor molecule, acceptor atom, score
      L1  H     1    22       P1  7949  1.00
      L1  H    14    27       P1 10171  1.00
      L1  H    16    28       P1  7948  0.78
      P1  H  7954  7966       L1    16  0.95
      P1  H  7989  7998       L1     5  1.00
      P1  H 10752 10763       L1     1  2.00

> <Gold.PLP.Chemscore.Internal.Correction>
0.0068

> <Gold.Rescore>
     Score         DG    S(hbond)    S(metal)    S(lipo)     H(rot)  DE(clash)    DE(int)     intcor
     10.62     -12.01       4.42        0.00      17.95       4.04       0.55       0.84       ----

> <Gold.Chemscore.Fitness>
10.6193

> <Gold.Chemscore.DG>
-12.0055

> <Gold.Chemscore.ZeroCoef>
-5.4800

> <Gold.Chemscore.Hbond>
4.4217

> <Gold.Chemscore.Metal>
0.0000

> <Gold.Chemscore.Lipo>
17.9506

> <Gold.Chemscore.Internal_Hbond>
0.0000

> <Gold.Chemscore.DEClash>
0.5496

> <Gold.Chemscore.DEInternal>
0.8366

> <Gold.Chemscore.Rot>
4.0403

> <Gold.Chemscore.Internal.Correction>
   9.000000E+99

> <Gold.Chemscore.Hbonds>
donor molecule, donor type, donor heavy atom, donor atom, acceptor molecule, acceptor atom, score
      L1  H     1    22       P1  7949  0.33
      L1  H    14    27       P1 10171  0.99
      L1  H    16    28       P1  7948  0.78
      P1  H  7954  7966       L1    16  0.20
      P1  H  7989  7998       L1     5  0.38
      P1  H  7997  8009       L1     3  0.01
      P1  H 10752 10763       L1     1  0.68

> <Gold.Chemscore.Hbond.Weighted>
-14.7684

> <Gold.Chemscore.Metal.Weighted>
-0.0000

> <Gold.Chemscore.Lipo.Weighted>
-2.1002

> <Gold.Chemscore.Internal_Hbond.Weighted>
0.0000

> <Gold.Chemscore.DEClash.Weighted>
0.5496

> <Gold.Chemscore.DEInternal.Weighted>
0.8366

> <Gold.Chemscore.Rot.Weighted>
10.3431

> <Gold.Chemscore.Internal.Correction.Weighted>
   9.000000E+99

> <Gold.Protein.RotatedTorsions>
[ 6907 6896 6895 6894 ] final  127.91 input  -60.11 | X-H torsion
[ 7974 7965 7964 7962 ] final   99.94 input  175.53 | X-H torsion
[ 8008 7997 7996 7995 ] final -141.86 input   59.86 | X-H torsion
[ 10167 10162 10161 10158 ] final   93.84 input  -65.29 | X-H torsion
[ 10718 10713 10712 10709 ] final  145.98 input   66.30 | X-H torsion
[ 10763 10752 10751 10750 ] final   55.09 input  -60.55 | X-H torsion
[ 11005 11000 10999 10996 ] final  -78.11 input  -57.11 | X-H torsion

> <Gold.Protein.ActiveResidues>
 VAL166  LYS551  ARG553  GLY616  TRP617  ASP618  TYR619  PRO620  LYS621  CYS622 
 ASP623  PHE694  ASN695  SER759  ASP760  ASP761  ALA762  ILE779  LEU786  VAL792 
 PHE793  MET794  SER795  GLU796  ALA797  LYS798  CYS799  TRP800  GLU811  SER814 

> <Gold.Protein.RotatedAtoms>
  152.3769  133.6493  159.6130 H   0  0  0  0  0  0  0  0  0  0  0  0  # atno 6907 bound_to 6896
  150.7711  133.9178  159.3398 H   0  0  0  0  0  0  0  0  0  0  0  0  # atno 6908 bound_to 6896
  151.6991  135.0934  160.0299 H   0  0  0  0  0  0  0  0  0  0  0  0  # atno 6909 bound_to 6896
  145.3922  139.2361  143.3346 H   0  0  0  0  0  0  0  0  0  0  0  0  # atno 7974 bound_to 7965
  155.4848  140.0563  157.2962 H   0  0  0  0  0  0  0  0  0  0  0  0  # atno 8008 bound_to 7997
  154.4646  140.2012  156.0104 H   0  0  0  0  0  0  0  0  0  0  0  0  # atno 8009 bound_to 7997
  156.0952  140.3227  155.7872 H   0  0  0  0  0  0  0  0  0  0  0  0  # atno 8010 bound_to 7997
  139.8141  144.6760  150.9602 H   0  0  0  0  0  0  0  0  0  0  0  0  # atno 10167 bound_to 10162
  157.3387  131.0932  151.1101 H   0  0  0  0  0  0  0  0  0  0  0  0  # atno 10718 bound_to 10713
  152.9812  135.5723  154.5010 H   0  0  0  0  0  0  0  0  0  0  0  0  # atno 10763 bound_to 10752
  154.4529  135.2779  155.1770 H   0  0  0  0  0  0  0  0  0  0  0  0  # atno 10764 bound_to 10752
  154.3390  135.6233  153.5641 H   0  0  0  0  0  0  0  0  0  0  0  0  # atno 10765 bound_to 10752
  141.1663  133.7050  156.7923 H   0  0  0  0  0  0  0  0  0  0  0  0  # atno 11005 bound_to 11000
  146.2792  140.4606  142.8783 LP  0  0  0  0  0  0  0  0  0  0  0  0  # atno 17320 bound_to 7965
  144.8432  140.6889  143.6216 LP  0  0  0  0  0  0  0  0  0  0  0  0  # atno 17321 bound_to 7965
  140.7816  143.4156  151.0923 LP  0  0  0  0  0  0  0  0  0  0  0  0  # atno 17342 bound_to 10162
  139.7821  143.8341  152.3139 LP  0  0  0  0  0  0  0  0  0  0  0  0  # atno 17343 bound_to 10162
  157.2321  130.6530  149.5854 LP  0  0  0  0  0  0  0  0  0  0  0  0  # atno 17370 bound_to 10713
  155.9705  130.4595  150.6039 LP  0  0  0  0  0  0  0  0  0  0  0  0  # atno 17371 bound_to 10713
  140.2316  134.8681  157.3483 LP  0  0  0  0  0  0  0  0  0  0  0  0  # atno 17394 bound_to 11000
  140.1885  134.4401  155.7730 LP  0  0  0  0  0  0  0  0  0  0  0  0  # atno 17395 bound_to 11000

$$$$
