AV-unprocessed.smi:3032|AV-procd|sdf|11564|dock3
  -GOLD-   2272016533D 1   1.00000     0.00000
 Structure written by MMmdl.
 37 38  0  0  0  0  0  0  0  0  1 V2000
  153.3827  142.5336  161.6461 C   0  0  0  0  0  0  0  0  0  0  0  0
  152.3575  142.9203  160.5709 C   0  0  1  0  0  0  0  0  0  0  0  0
  151.7170  144.2877  160.8718 C   0  0  0  0  0  0  0  0  0  0  0  0
  150.6838  144.6742  159.8030 C   0  0  0  0  0  0  0  0  0  0  0  0
  151.3040  144.6691  158.3935 C   0  0  0  0  0  0  0  0  0  0  0  0
  152.0229  143.3464  158.0369 C   0  0  2  0  0  0  0  0  0  0  0  0
  151.0488  142.2190  157.6447 C   0  0  0  0  0  0  0  0  0  0  0  0
  151.2114  141.0694  158.0531 O   0  0  0  0  0  0  0  0  0  0  0  0
  150.0311  142.5670  156.8417 N   0  0  0  0  0  0  0  0  0  0  0  0
  149.0081  141.6569  156.3391 C   0  0  0  0  0  0  0  0  0  0  0  0
  149.1053  141.4811  154.8147 C   0  0  0  0  0  0  0  0  0  0  0  0
  149.8322  140.2326  154.4378 C   0  0  0  0  0  0  0  0  0  0  0  0
  149.2177  139.2483  153.7794 N   0  0  0  0  0  0  0  0  0  0  0  0
  150.2160  138.3549  153.6103 N   0  0  0  0  0  0  0  0  0  0  0  0
  151.3300  138.8502  154.1468 C   0  0  0  0  0  0  0  0  0  0  0  0
  151.1653  140.0502  154.6875 N   0  0  0  0  0  0  0  0  0  0  0  0
  152.9945  142.9238  159.1642 C   0  0  0  0  0  0  0  0  0  0  0  0
  154.2063  143.2470  161.6857 H   0  0  0  0  0  0  0  0  0  0  0  0
  153.8049  141.5479  161.4485 H   0  0  0  0  0  0  0  0  0  0  0  0
  152.9220  142.5016  162.6338 H   0  0  0  0  0  0  0  0  0  0  0  0
  151.5710  142.1661  160.5970 H   0  0  0  0  0  0  0  0  0  0  0  0
  151.2378  144.2685  161.8513 H   0  0  0  0  0  0  0  0  0  0  0  0
  152.4913  145.0546  160.9221 H   0  0  0  0  0  0  0  0  0  0  0  0
  149.8361  143.9908  159.8474 H   0  0  0  0  0  0  0  0  0  0  0  0
  150.2823  145.6640  160.0221 H   0  0  0  0  0  0  0  0  0  0  0  0
  150.5334  144.8921  157.6542 H   0  0  0  0  0  0  0  0  0  0  0  0
  152.0234  145.4860  158.3252 H   0  0  0  0  0  0  0  0  0  0  0  0
  152.6310  143.5489  157.1535 H   0  0  0  0  0  0  0  0  0  0  0  0
  149.9651  143.5319  156.5515 H   0  0  0  0  0  0  0  0  0  0  0  0
  149.0844  140.6914  156.8423 H   0  0  0  0  0  0  0  0  0  0  0  0
  148.0335  142.0683  156.6031 H   0  0  0  0  0  0  0  0  0  0  0  0
  148.1065  141.4532  154.3777 H   0  0  0  0  0  0  0  0  0  0  0  0
  149.6138  142.3357  154.3661 H   0  0  0  0  0  0  0  0  0  0  0  0
  152.2756  138.3281  154.1386 H   0  0  0  0  0  0  0  0  0  0  0  0
  153.8454  143.6064  159.1620 H   0  0  0  0  0  0  0  0  0  0  0  0
  153.4084  141.9381  158.9464 H   0  0  0  0  0  0  0  0  0  0  0  0
  150.0947  137.4690  153.1406 H   0  0  0  0  0  0  0  0  0  0  0  0
  1  2  1  0  0  0  0
  1 18  1  0  0  0  0
  1 19  1  0  0  0  0
  1 20  1  0  0  0  0
  2 17  1  0  0  0  0
  2  3  1  0  0  0  0
  2 21  1  0  0  0  0
  3  4  1  0  0  0  0
  3 22  1  0  0  0  0
  3 23  1  0  0  0  0
  4  5  1  0  0  0  0
  4 24  1  0  0  0  0
  4 25  1  0  0  0  0
  5  6  1  0  0  0  0
  5 26  1  0  0  0  0
  5 27  1  0  0  0  0
  6  7  1  0  0  0  0
  6 17  1  0  0  0  0
  6 28  1  0  0  0  0
  7  8  2  0  0  0  0
  7  9  1  0  0  0  0
  9 10  1  0  0  0  0
  9 29  1  0  0  0  0
 10 11  1  0  0  0  0
 10 30  1  0  0  0  0
 10 31  1  0  0  0  0
 11 32  1  0  0  0  0
 11 33  1  0  0  0  0
 11 12  1  0  0  0  0
 12 16  1  0  0  0  0
 12 13  2  0  0  0  0
 13 14  1  0  0  0  0
 14 15  1  0  0  0  0
 14 37  1  0  0  0  0
 15 16  2  0  0  0  0
 15 34  1  0  0  0  0
 17 35  1  0  0  0  0
 17 36  1  0  0  0  0
M  END
> <s_m_source_file>
AV-unprocessed.smi

> <i_m_source_file_index>
3032

> <i_lp_mmshare_version>
43012

> <i_f3d_flags>
0

> <s_epik_input>
W0NIM11bQ0BASF0xW0NIMl1bQ0gyXVtDSDJdW0NASF0oW0NIMl0xKUMoPU8pW05IXVtDSDJdW0NIMl1jMm5uW2NIXVtuSF0y

> <s_epik_cmdline>
J2VwaWtfcHl0aG9uJywgJy1waCcsICc3LjAnLCAnLXRuJywgJzgnLCAnLW1hJywgJzIwMCcsICctbWV0YWxfYmluZGluZycsICctaW1hZScsICc8aW5maWxlLm1hZT4nLCAnLW9tYWUnLCAnPG91dGZpbGUubWFlPic=

> <r_epik_Ionization_Penalty>
0.000752022

> <r_epik_Ionization_Penalty_Charging>
0

> <r_epik_Ionization_Penalty_Neutral>
0.000752022

> <r_epik_State_Penalty>
0.639926

> <r_epik_Charging_Adjusted_Penalty>
0.639926

> <i_epik_Tot_Q>
0

> <i_epik_Tot_abs_Q>
0

> <r_epik_Metal_State_Penalty>
0.76532

> <b_epik_Metal_Only>
0

> <s_lp_Force_Field>
OPLS_2005

> <r_lp_Energy>
6.51098

> <b_lp_Chiralities_Consistent>
1

> <s_lp_Variant>
AV-unprocessed.smi:3032-8

> <Gold.Version>
5.8.1

> <Gold.Id.Protein>
6NUR|6NUR_protein|mol2

> <Gold.PLP.Fitness>
47.9882

> <Gold.PLP.PLP>
-40.6453

> <Gold.PLP.part.hbond>
-3.2369

> <Gold.PLP.part.metal>
0.0000

> <Gold.PLP.part.buried>
-6.9501

> <Gold.PLP.part.nonpolar>
-31.6376

> <Gold.PLP.part.repulsive>
0.7219

> <Gold.PLP.ligand.clash>
0.0000

> <Gold.PLP.ligand.torsion>
0.6654

> <Gold.PLP.Chemscore.Hbond>
2.8720

> <Gold.PLP.Chemscore.CHOScore>
0.0000

> <Gold.PLP.Chemscore.Metal>
0.0000

> <Gold.Chemscore.Hbonds>
donor molecule, donor type, donor heavy atom, donor atom, acceptor molecule, acceptor atom, score
      L1  H     9    29       P1  8028  0.88
      L1  H    14    37       P1  7948  0.82
      P1  H  7989  7998       L1    16  0.61

> <Gold.PLP.Chemscore.Internal.Correction>
0.0576

> <Gold.Rescore>
     Score         DG    S(hbond)    S(metal)    S(lipo)     H(rot)  DE(clash)    DE(int)     intcor
     16.93     -17.66       2.25        0.00      88.95       2.25       0.16       0.57       ----

> <Gold.Chemscore.Fitness>
16.9322

> <Gold.Chemscore.DG>
-17.6560

> <Gold.Chemscore.ZeroCoef>
-5.4800

> <Gold.Chemscore.Hbond>
2.2543

> <Gold.Chemscore.Metal>
0.0000

> <Gold.Chemscore.Lipo>
88.9489

> <Gold.Chemscore.Internal_Hbond>
0.0000

> <Gold.Chemscore.DEClash>
0.1563

> <Gold.Chemscore.DEInternal>
0.5675

> <Gold.Chemscore.Rot>
2.2501

> <Gold.Chemscore.Internal.Correction>
   9.000000E+99

> <Gold.Chemscore.Hbonds>
donor molecule, donor type, donor heavy atom, donor atom, acceptor molecule, acceptor atom, score
      L1  H     9    29       P1  8028  0.87
      L1  H    14    37       P1  7948  0.15
      P1  H  7989  7998       L1    16  0.01

> <Gold.Chemscore.Hbond.Weighted>
-7.5293

> <Gold.Chemscore.Metal.Weighted>
-0.0000

> <Gold.Chemscore.Lipo.Weighted>
-10.4070

> <Gold.Chemscore.Internal_Hbond.Weighted>
0.0000

> <Gold.Chemscore.DEClash.Weighted>
0.1563

> <Gold.Chemscore.DEInternal.Weighted>
0.5675

> <Gold.Chemscore.Rot.Weighted>
5.7603

> <Gold.Chemscore.Internal.Correction.Weighted>
   9.000000E+99

> <Gold.Protein.RotatedTorsions>
[ 6907 6896 6895 6894 ] final  170.47 input  -60.11 | X-H torsion
[ 7974 7965 7964 7962 ] final  -95.67 input  175.53 | X-H torsion
[ 8008 7997 7996 7995 ] final  130.14 input   59.86 | X-H torsion
[ 10167 10162 10161 10158 ] final  -59.21 input  -65.29 | X-H torsion
[ 10718 10713 10712 10709 ] final  -43.34 input   66.30 | X-H torsion
[ 10763 10752 10751 10750 ] final  172.72 input  -60.55 | X-H torsion
[ 11005 11000 10999 10996 ] final  -42.38 input  -57.11 | X-H torsion

> <Gold.Protein.ActiveResidues>
 VAL166  LYS551  ARG553  GLY616  TRP617  ASP618  TYR619  PRO620  LYS621  CYS622 
 ASP623  PHE694  ASN695  SER759  ASP760  ASP761  ALA762  ILE779  LEU786  VAL792 
 PHE793  MET794  SER795  GLU796  ALA797  LYS798  CYS799  TRP800  GLU811  SER814 

> <Gold.Protein.RotatedAtoms>
  151.8155  133.3387  159.3568 H   0  0  0  0  0  0  0  0  0  0  0  0  # atno 6907 bound_to 6896
  150.7312  134.5623  159.5858 H   0  0  0  0  0  0  0  0  0  0  0  0  # atno 6908 bound_to 6896
  152.3044  134.7574  160.0402 H   0  0  0  0  0  0  0  0  0  0  0  0  # atno 6909 bound_to 6896
  145.3569  140.9485  143.2522 H   0  0  0  0  0  0  0  0  0  0  0  0  # atno 7974 bound_to 7965
  156.2949  140.2603  156.2713 H   0  0  0  0  0  0  0  0  0  0  0  0  # atno 8008 bound_to 7997
  154.9692  140.0391  157.2245 H   0  0  0  0  0  0  0  0  0  0  0  0  # atno 8009 bound_to 7997
  154.7874  140.2806  155.6022 H   0  0  0  0  0  0  0  0  0  0  0  0  # atno 8010 bound_to 7997
  140.6149  143.2399  151.5620 H   0  0  0  0  0  0  0  0  0  0  0  0  # atno 10167 bound_to 10162
  156.2500  130.4187  149.8660 H   0  0  0  0  0  0  0  0  0  0  0  0  # atno 10718 bound_to 10713
  154.4301  135.2759  155.1918 H   0  0  0  0  0  0  0  0  0  0  0  0  # atno 10763 bound_to 10752
  154.3828  135.6084  153.5804 H   0  0  0  0  0  0  0  0  0  0  0  0  # atno 10764 bound_to 10752
  152.9836  135.5884  154.4611 H   0  0  0  0  0  0  0  0  0  0  0  0  # atno 10765 bound_to 10752
  141.0311  133.6819  156.2586 H   0  0  0  0  0  0  0  0  0  0  0  0  # atno 11005 bound_to 11000
  144.8675  139.5086  143.6783 LP  0  0  0  0  0  0  0  0  0  0  0  0  # atno 17320 bound_to 7965
  146.2944  139.7234  142.9137 LP  0  0  0  0  0  0  0  0  0  0  0  0  # atno 17321 bound_to 7965
  139.5391  144.2698  152.1313 LP  0  0  0  0  0  0  0  0  0  0  0  0  # atno 17342 bound_to 10162
  140.1906  144.4756  150.6481 LP  0  0  0  0  0  0  0  0  0  0  0  0  # atno 17343 bound_to 10162
  156.6212  130.8627  151.3476 LP  0  0  0  0  0  0  0  0  0  0  0  0  # atno 17370 bound_to 10713
  157.7211  130.9559  150.1441 LP  0  0  0  0  0  0  0  0  0  0  0  0  # atno 17371 bound_to 10713
  140.6404  134.5171  157.5569 LP  0  0  0  0  0  0  0  0  0  0  0  0  # atno 17394 bound_to 11000
  139.9209  134.8151  156.1216 LP  0  0  0  0  0  0  0  0  0  0  0  0  # atno 17395 bound_to 11000

$$$$
