AV-unprocessed.smi:2069|AV-procd|sdf|8436|dock6
  -GOLD-   2272011133D 1   1.00000     0.00000
 Structure written by MMmdl.
 37 38  0  0  0  0  0  0  0  0  2 V2000
  146.2049  135.5991  162.8256 C   0  0  0  0  0  0  0  0  0  0  0  0
  147.1939  135.8840  161.7480 C   0  0  0  0  0  0  0  0  0  0  0  0
  147.8249  137.0556  161.6397 N   0  0  0  0  0  0  0  0  0  0  0  0
  148.6975  137.0813  160.5616 N   0  0  0  0  0  0  0  0  0  0  0  0
  148.7221  135.9292  159.8767 C   0  0  0  0  0  0  0  0  0  0  0  0
  149.4989  135.7532  158.7951 N   0  5  0  0  0  0  0  0  0  0  0  0
  150.2930  136.7583  158.3607 C   0  0  0  0  0  0  0  0  0  0  0  0
  150.4009  137.8771  158.8681 O   0  0  0  0  0  0  0  0  0  0  0  0
  151.0073  136.4476  157.2709 N   0  0  0  0  0  0  0  0  0  0  0  0
  151.9361  137.3398  156.5844 C   0  0  0  0  0  0  0  0  0  0  0  0
  151.3297  137.9345  155.2837 C   0  0  1  0  0  0  0  0  0  0  0  0
  150.4763  136.8427  154.5888 C   0  0  0  0  0  0  0  0  0  0  0  0
  150.5772  139.1921  155.5048 N   0  0  0  0  0  0  0  0  0  0  0  0
  151.4530  140.3395  155.7701 C   0  0  0  0  0  0  0  0  0  0  0  0
  150.6756  141.6527  155.9666 C   0  0  0  0  0  0  0  0  0  0  0  0
  149.8666  141.9082  154.8269 O   0  0  0  0  0  0  0  0  0  0  0  0
  148.9466  140.8541  154.5803 C   0  0  0  0  0  0  0  0  0  0  0  0
  149.7128  139.5366  154.3701 C   0  0  0  0  0  0  0  0  0  0  0  0
  147.6264  134.7059  160.5203 S   0  0  0  0  0  0  0  0  0  0  0  0
  146.7230  135.4214  163.7680 H   0  0  0  0  0  0  0  0  0  0  0  0
  145.6166  134.7158  162.5767 H   0  0  0  0  0  0  0  0  0  0  0  0
  145.5281  136.4450  162.9497 H   0  0  0  0  0  0  0  0  0  0  0  0
  150.8908  135.5222  156.8850 H   0  0  0  0  0  0  0  0  0  0  0  0
  152.2402  138.1462  157.2539 H   0  0  0  0  0  0  0  0  0  0  0  0
  152.8211  136.7396  156.3798 H   0  0  0  0  0  0  0  0  0  0  0  0
  152.1652  138.1569  154.6181 H   0  0  0  0  0  0  0  0  0  0  0  0
  151.0125  135.9009  154.4772 H   0  0  0  0  0  0  0  0  0  0  0  0
  150.1873  137.1245  153.5774 H   0  0  0  0  0  0  0  0  0  0  0  0
  149.5678  136.6347  155.1548 H   0  0  0  0  0  0  0  0  0  0  0  0
  152.0340  140.1802  156.6762 H   0  0  0  0  0  0  0  0  0  0  0  0
  152.1649  140.4587  154.9519 H   0  0  0  0  0  0  0  0  0  0  0  0
  150.0530  141.6026  156.8612 H   0  0  0  0  0  0  0  0  0  0  0  0
  151.3668  142.4843  156.1046 H   0  0  0  0  0  0  0  0  0  0  0  0
  148.2479  140.7664  155.4139 H   0  0  0  0  0  0  0  0  0  0  0  0
  148.3590  141.0955  153.6945 H   0  0  0  0  0  0  0  0  0  0  0  0
  150.3087  139.6059  153.4586 H   0  0  0  0  0  0  0  0  0  0  0  0
  148.9691  138.7596  154.2039 H   0  0  0  0  0  0  0  0  0  0  0  0
  1  2  1  0  0  0  0
  1 20  1  0  0  0  0
  1 21  1  0  0  0  0
  1 22  1  0  0  0  0
  2 19  1  0  0  0  0
  2  3  2  0  0  0  0
  3  4  1  0  0  0  0
  4  5  2  0  0  0  0
  5  6  1  0  0  0  0
  5 19  1  0  0  0  0
  6  7  1  0  0  0  0
  7  8  2  0  0  0  0
  7  9  1  0  0  0  0
  9 10  1  0  0  0  0
  9 23  1  0  0  0  0
 10 11  1  0  0  0  0
 10 24  1  0  0  0  0
 10 25  1  0  0  0  0
 11 12  1  0  0  0  0
 11 13  1  0  0  0  0
 11 26  1  0  0  0  0
 12 27  1  0  0  0  0
 12 28  1  0  0  0  0
 12 29  1  0  0  0  0
 13 18  1  0  0  0  0
 13 14  1  0  0  0  0
 14 15  1  0  0  0  0
 14 30  1  0  0  0  0
 14 31  1  0  0  0  0
 15 16  1  0  0  0  0
 15 32  1  0  0  0  0
 15 33  1  0  0  0  0
 16 17  1  0  0  0  0
 17 18  1  0  0  0  0
 17 34  1  0  0  0  0
 17 35  1  0  0  0  0
 18 36  1  0  0  0  0
 18 37  1  0  0  0  0
M  CHG  1   6  -1
M  END
> <s_m_source_file>
AV-unprocessed.smi

> <i_m_source_file_index>
2069

> <i_lp_mmshare_version>
43012

> <i_f3d_flags>
0

> <s_epik_input>
W0NIM11jMW5uYyhzMSlbTkhdQyg9TylbTkhdW0NIMl1bQ0BIXShbQ0gzXSlOMltDSDJdW0NIMl1PW0NIMl1bQ0gyXTI=

> <s_epik_cmdline>
J2VwaWtfcHl0aG9uJywgJy1waCcsICc3LjAnLCAnLXRuJywgJzgnLCAnLW1hJywgJzIwMCcsICctbWV0YWxfYmluZGluZycsICctaW1hZScsICc8aW5maWxlLm1hZT4nLCAnLW9tYWUnLCAnPG91dGZpbGUubWFlPic=

> <r_lp_tautomer_probability>
1

> <r_epik_Ionization_Penalty>
3.82002

> <r_epik_Ionization_Penalty_Charging>
3.36369

> <r_epik_Ionization_Penalty_Neutral>
0.456339

> <r_epik_State_Penalty>
3.571

> <r_epik_Charging_Adjusted_Penalty>
6.93469

> <i_epik_Tot_Q>
-1

> <i_epik_Tot_abs_Q>
1

> <r_epik_Metal_State_Penalty>
0.710436

> <b_epik_Metal_Only>
1

> <s_lp_Force_Field>
OPLS_2005

> <r_lp_Energy>
26.7527

> <b_lp_Chiralities_Consistent>
1

> <s_lp_Variant>
AV-unprocessed.smi:2069-6

> <Gold.Version>
5.8.1

> <Gold.Id.Protein>
6NUR|6NUR_protein|mol2

> <Gold.PLP.Fitness>
37.2727

> <Gold.PLP.PLP>
-31.1357

> <Gold.PLP.part.hbond>
-7.0000

> <Gold.PLP.part.metal>
0.0000

> <Gold.PLP.part.buried>
0.6533

> <Gold.PLP.part.nonpolar>
-23.2094

> <Gold.PLP.part.repulsive>
0.3314

> <Gold.PLP.ligand.clash>
0.0000

> <Gold.PLP.ligand.torsion>
0.6746

> <Gold.PLP.Chemscore.Hbond>
2.4652

> <Gold.PLP.Chemscore.CHOScore>
0.0000

> <Gold.PLP.Chemscore.Metal>
0.0000

> <Gold.Chemscore.Hbonds>
donor molecule, donor type, donor heavy atom, donor atom, acceptor molecule, acceptor atom, score
      P1  H  6896  6907       L1     6  1.20
      P1  H  6934  6947       L1     3  0.11

> <Gold.PLP.Chemscore.Internal.Correction>
0.0907

> <Gold.Rescore>
     Score         DG    S(hbond)    S(metal)    S(lipo)     H(rot)  DE(clash)    DE(int)     intcor
      9.41     -12.28       0.86        0.00      67.93       1.57       0.49       2.38       ----

> <Gold.Chemscore.Fitness>
9.4077

> <Gold.Chemscore.DG>
-12.2789

> <Gold.Chemscore.ZeroCoef>
-5.4800

> <Gold.Chemscore.Hbond>
0.8619

> <Gold.Chemscore.Metal>
0.0000

> <Gold.Chemscore.Lipo>
67.9286

> <Gold.Chemscore.Internal_Hbond>
0.0000

> <Gold.Chemscore.DEClash>
0.4891

> <Gold.Chemscore.DEInternal>
2.3820

> <Gold.Chemscore.Rot>
1.5732

> <Gold.Chemscore.Internal.Correction>
   9.000000E+99

> <Gold.Chemscore.Hbonds>
donor molecule, donor type, donor heavy atom, donor atom, acceptor molecule, acceptor atom, score
      P1  H  6896  6907       L1     6  0.01

> <Gold.Chemscore.Hbond.Weighted>
-2.8787

> <Gold.Chemscore.Metal.Weighted>
-0.0000

> <Gold.Chemscore.Lipo.Weighted>
-7.9476

> <Gold.Chemscore.Internal_Hbond.Weighted>
0.0000

> <Gold.Chemscore.DEClash.Weighted>
0.4891

> <Gold.Chemscore.DEInternal.Weighted>
2.3820

> <Gold.Chemscore.Rot.Weighted>
4.0274

> <Gold.Chemscore.Internal.Correction.Weighted>
   9.000000E+99

> <Gold.Protein.RotatedTorsions>
[ 6907 6896 6895 6894 ] final  -51.76 input  -60.11 | X-H torsion
[ 7974 7965 7964 7962 ] final  -18.12 input  175.53 | X-H torsion
[ 8008 7997 7996 7995 ] final  171.01 input   59.86 | X-H torsion
[ 10167 10162 10161 10158 ] final  163.16 input  -65.29 | X-H torsion
[ 10718 10713 10712 10709 ] final   -4.89 input   66.30 | X-H torsion
[ 10763 10752 10751 10750 ] final  -50.69 input  -60.55 | X-H torsion
[ 11005 11000 10999 10996 ] final -102.64 input  -57.11 | X-H torsion

> <Gold.Protein.ActiveResidues>
 VAL166  LYS551  ARG553  GLY616  TRP617  ASP618  TYR619  PRO620  LYS621  CYS622 
 ASP623  PHE694  ASN695  SER759  ASP760  ASP761  ALA762  ILE779  LEU786  VAL792 
 PHE793  MET794  SER795  GLU796  ALA797  LYS798  CYS799  TRP800  GLU811  SER814 

> <Gold.Protein.RotatedAtoms>
  150.8581  134.7926  159.7061 H   0  0  0  0  0  0  0  0  0  0  0  0  # atno 6907 bound_to 6896
  152.4627  134.5145  159.9773 H   0  0  0  0  0  0  0  0  0  0  0  0  # atno 6908 bound_to 6896
  151.5253  133.3420  159.2944 H   0  0  0  0  0  0  0  0  0  0  0  0  # atno 6909 bound_to 6896
  146.1908  140.3876  142.8459 H   0  0  0  0  0  0  0  0  0  0  0  0  # atno 7974 bound_to 7965
  156.1311  140.1523  156.9063 H   0  0  0  0  0  0  0  0  0  0  0  0  # atno 8008 bound_to 7997
  154.4910  140.0851  156.7634 H   0  0  0  0  0  0  0  0  0  0  0  0  # atno 8009 bound_to 7997
  155.4253  140.3425  155.4277 H   0  0  0  0  0  0  0  0  0  0  0  0  # atno 8010 bound_to 7997
  139.4870  144.4365  151.9005 H   0  0  0  0  0  0  0  0  0  0  0  0  # atno 10167 bound_to 10162
  156.7546  130.5250  149.5797 H   0  0  0  0  0  0  0  0  0  0  0  0  # atno 10718 bound_to 10713
  154.1144  135.6544  153.4891 H   0  0  0  0  0  0  0  0  0  0  0  0  # atno 10763 bound_to 10752
  153.0246  135.5255  154.7160 H   0  0  0  0  0  0  0  0  0  0  0  0  # atno 10764 bound_to 10752
  154.6349  135.2981  155.0142 H   0  0  0  0  0  0  0  0  0  0  0  0  # atno 10765 bound_to 10752
  141.1180  133.8575  157.1385 H   0  0  0  0  0  0  0  0  0  0  0  0  # atno 11005 bound_to 11000
  144.8483  140.6962  143.6185 LP  0  0  0  0  0  0  0  0  0  0  0  0  # atno 17320 bound_to 7965
  145.3799  139.1639  143.4286 LP  0  0  0  0  0  0  0  0  0  0  0  0  # atno 17321 bound_to 7965
  140.3815  144.2730  150.5908 LP  0  0  0  0  0  0  0  0  0  0  0  0  # atno 17342 bound_to 10162
  140.5229  143.2261  151.8360 LP  0  0  0  0  0  0  0  0  0  0  0  0  # atno 17343 bound_to 10162
  156.1379  130.6224  151.0426 LP  0  0  0  0  0  0  0  0  0  0  0  0  # atno 17370 bound_to 10713
  157.6762  131.0850  150.7488 LP  0  0  0  0  0  0  0  0  0  0  0  0  # atno 17371 bound_to 10713
  140.0117  134.9985  157.0408 LP  0  0  0  0  0  0  0  0  0  0  0  0  # atno 17394 bound_to 11000
  140.4589  134.1505  155.7189 LP  0  0  0  0  0  0  0  0  0  0  0  0  # atno 17395 bound_to 11000

$$$$
