AV-unprocessed.smi:262|AV-procd|sdf|2001|dock2
  -GOLD-   2262021193D 1   1.00000     0.00000
 Structure written by MMmdl.
 59 63  0  0  0  0  0  0  0  0  1 V2000
  145.2896  135.8036  150.2101 O   0  0  0  0  0  0  0  0  0  0  0  0
  144.9919  134.9943  151.3348 C   0  0  0  0  0  0  0  0  0  0  0  0
  144.4176  135.9102  152.4442 C   0  0  0  0  0  0  0  0  0  0  0  0
  145.3779  136.8612  152.9830 N   0  0  0  0  0  0  0  0  0  0  0  0
  145.6006  138.1473  152.5457 C   0  0  0  0  0  0  0  0  0  0  0  0
  146.5209  138.8048  153.1965 N   0  0  0  0  0  0  0  0  0  0  0  0
  146.9649  137.9060  154.1597 C   0  0  0  0  0  0  0  0  0  0  0  0
  147.9371  137.9649  155.1984 C   0  0  0  0  0  0  0  0  0  0  0  0
  148.7035  139.0625  155.4243 N   0  0  0  0  0  0  0  0  0  0  0  0
  148.3693  139.9085  156.5679 C   0  0  0  0  0  0  0  0  0  0  0  0
  149.1555  141.2299  156.5042 C   0  0  0  0  0  0  0  0  0  0  0  0
  150.5945  140.9559  156.4834 N   0  0  0  0  0  0  0  0  0  0  0  0
  151.3197  142.2265  156.4986 C   0  0  0  0  0  0  0  0  0  0  0  0
  151.2490  142.9300  157.8692 C   0  0  2  0  0  0  0  0  0  0  0  0
  151.7950  144.3447  157.8766 C   0  0  0  0  0  0  0  0  0  0  0  0
  152.0592  144.5718  159.3615 C   0  0  0  0  0  0  0  0  0  0  0  0
  152.4067  143.2957  159.8910 O   0  0  0  0  0  0  0  0  0  0  0  0
  152.1351  142.2787  158.9307 C   0  0  0  0  0  0  0  0  0  0  0  0
  150.8928  140.1860  155.2700 C   0  0  0  0  0  0  0  0  0  0  0  0
  150.1410  138.8422  155.2978 C   0  0  0  0  0  0  0  0  0  0  0  0
  148.0795  136.8622  155.9824 N   0  0  0  0  0  0  0  0  0  0  0  0
  147.3340  135.7752  155.7633 C   0  0  0  0  0  0  0  0  0  0  0  0
  146.3992  135.5785  154.8321 N   0  0  0  0  0  0  0  0  0  0  0  0
  146.2464  136.6819  154.0455 C   0  0  0  0  0  0  0  0  0  0  0  0
  143.9946  133.9002  150.8936 C   0  0  0  0  0  0  0  0  0  0  0  0
  144.6435  132.8684  149.9536 C   0  0  0  0  0  0  0  0  0  0  0  0
  145.7988  132.3068  150.5646 O   0  0  0  0  0  0  0  0  0  0  0  0
  146.8108  133.2743  150.8151 C   0  0  0  0  0  0  0  0  0  0  0  0
  146.2965  134.3262  151.8137 C   0  0  0  0  0  0  0  0  0  0  0  0
  145.5087  135.2406  149.4832 H   0  0  0  0  0  0  0  0  0  0  0  0
  143.5675  136.4746  152.0583 H   0  0  0  0  0  0  0  0  0  0  0  0
  144.0308  135.3099  153.2692 H   0  0  0  0  0  0  0  0  0  0  0  0
  145.0584  138.5834  151.7189 H   0  0  0  0  0  0  0  0  0  0  0  0
  147.3000  140.1236  156.5704 H   0  0  0  0  0  0  0  0  0  0  0  0
  148.5973  139.3819  157.4961 H   0  0  0  0  0  0  0  0  0  0  0  0
  148.8650  141.8047  155.6230 H   0  0  0  0  0  0  0  0  0  0  0  0
  148.9081  141.8344  157.3776 H   0  0  0  0  0  0  0  0  0  0  0  0
  152.3581  142.0662  156.2042 H   0  0  0  0  0  0  0  0  0  0  0  0
  150.8877  142.8940  155.7513 H   0  0  0  0  0  0  0  0  0  0  0  0
  150.2284  142.9409  158.2521 H   0  0  0  0  0  0  0  0  0  0  0  0
  152.7300  144.3970  157.3168 H   0  0  0  0  0  0  0  0  0  0  0  0
  151.1030  145.0737  157.4536 H   0  0  0  0  0  0  0  0  0  0  0  0
  152.8445  145.3068  159.5381 H   0  0  0  0  0  0  0  0  0  0  0  0
  151.1526  144.9177  159.8597 H   0  0  0  0  0  0  0  0  0  0  0  0
  151.6612  141.4122  159.3928 H   0  0  0  0  0  0  0  0  0  0  0  0
  153.0830  141.9542  158.4993 H   0  0  0  0  0  0  0  0  0  0  0  0
  150.6161  140.7559  154.3814 H   0  0  0  0  0  0  0  0  0  0  0  0
  151.9602  139.9826  155.1986 H   0  0  0  0  0  0  0  0  0  0  0  0
  150.4852  138.2370  156.1377 H   0  0  0  0  0  0  0  0  0  0  0  0
  150.3770  138.2840  154.3926 H   0  0  0  0  0  0  0  0  0  0  0  0
  147.5119  134.9446  156.4302 H   0  0  0  0  0  0  0  0  0  0  0  0
  143.6200  133.3790  151.7755 H   0  0  0  0  0  0  0  0  0  0  0  0
  143.1251  134.3404  150.4042 H   0  0  0  0  0  0  0  0  0  0  0  0
  143.9371  132.0665  149.7384 H   0  0  0  0  0  0  0  0  0  0  0  0
  144.9073  133.3202  148.9963 H   0  0  0  0  0  0  0  0  0  0  0  0
  147.6845  132.7679  151.2254 H   0  0  0  0  0  0  0  0  0  0  0  0
  147.1271  133.7390  149.8800 H   0  0  0  0  0  0  0  0  0  0  0  0
  147.0670  135.0765  151.9967 H   0  0  0  0  0  0  0  0  0  0  0  0
  146.1191  133.8332  152.7706 H   0  0  0  0  0  0  0  0  0  0  0  0
  1  2  1  0  0  0  0
  1 30  1  0  0  0  0
  2 29  1  0  0  0  0
  2  3  1  0  0  0  0
  2 25  1  0  0  0  0
  3  4  1  0  0  0  0
  3 31  1  0  0  0  0
  3 32  1  0  0  0  0
  4 24  1  0  0  0  0
  4  5  1  0  0  0  0
  5  6  2  0  0  0  0
  5 33  1  0  0  0  0
  6  7  1  0  0  0  0
  7 24  2  0  0  0  0
  7  8  1  0  0  0  0
  8  9  1  0  0  0  0
  8 21  2  0  0  0  0
  9 20  1  0  0  0  0
  9 10  1  0  0  0  0
 10 11  1  0  0  0  0
 10 34  1  0  0  0  0
 10 35  1  0  0  0  0
 11 12  1  0  0  0  0
 11 36  1  0  0  0  0
 11 37  1  0  0  0  0
 12 13  1  0  0  0  0
 12 19  1  0  0  0  0
 13 14  1  0  0  0  0
 13 38  1  0  0  0  0
 13 39  1  0  0  0  0
 14 18  1  0  0  0  0
 14 15  1  0  0  0  0
 14 40  1  0  0  0  0
 15 16  1  0  0  0  0
 15 41  1  0  0  0  0
 15 42  1  0  0  0  0
 16 17  1  0  0  0  0
 16 43  1  0  0  0  0
 16 44  1  0  0  0  0
 17 18  1  0  0  0  0
 18 45  1  0  0  0  0
 18 46  1  0  0  0  0
 19 20  1  0  0  0  0
 19 47  1  0  0  0  0
 19 48  1  0  0  0  0
 20 49  1  0  0  0  0
 20 50  1  0  0  0  0
 21 22  1  0  0  0  0
 22 23  2  0  0  0  0
 22 51  1  0  0  0  0
 23 24  1  0  0  0  0
 25 26  1  0  0  0  0
 25 52  1  0  0  0  0
 25 53  1  0  0  0  0
 26 27  1  0  0  0  0
 26 54  1  0  0  0  0
 26 55  1  0  0  0  0
 27 28  1  0  0  0  0
 28 29  1  0  0  0  0
 28 56  1  0  0  0  0
 28 57  1  0  0  0  0
 29 58  1  0  0  0  0
 29 59  1  0  0  0  0
M  END
> <s_m_source_file>
AV-unprocessed.smi

> <i_m_source_file_index>
262

> <i_lp_mmshare_version>
43012

> <i_f3d_flags>
0

> <s_epik_input>
W0NIMl0xW0NIMl1PW0NIMl1bQ0gyXUMxKFtPSF0pW0NIMl1uKFtjSF1uMiljKGMyMyluW2NIXW5jM040W0NIMl1bQ0gyXU4oW0NIMl1bQ0gyXTQpW0NIMl1bQ0BASF01W0NIMl1bQ0gyXU9bQ0gyXTU=

> <s_epik_cmdline>
J2VwaWtfcHl0aG9uJywgJy1waCcsICc3LjAnLCAnLXRuJywgJzgnLCAnLW1hJywgJzIwMCcsICctbWV0YWxfYmluZGluZycsICctaW1hZScsICc8aW5maWxlLm1hZT4nLCAnLW9tYWUnLCAnPG91dGZpbGUubWFlPic=

> <r_lp_tautomer_probability>
1

> <r_epik_Ionization_Penalty>
2.38637

> <r_epik_Ionization_Penalty_Charging>
0

> <r_epik_Ionization_Penalty_Neutral>
2.38637

> <r_epik_State_Penalty>
2.53316

> <r_epik_Charging_Adjusted_Penalty>
2.53316

> <i_epik_Tot_Q>
0

> <i_epik_Tot_abs_Q>
0

> <r_epik_Metal_State_Penalty>
2.52423

> <b_epik_Metal_Only>
0

> <s_lp_Force_Field>
OPLS_2005

> <r_lp_Energy>
56.9797

> <b_lp_Chiralities_Consistent>
1

> <s_lp_Variant>
AV-unprocessed.smi:262-3

> <Gold.Version>
5.8.1

> <Gold.Id.Protein>
6NUR|6NUR_protein|mol2

> <Gold.PLP.Fitness>
46.1539

> <Gold.PLP.PLP>
-39.2048

> <Gold.PLP.part.hbond>
-1.7831

> <Gold.PLP.part.metal>
0.0000

> <Gold.PLP.part.buried>
-4.9196

> <Gold.PLP.part.nonpolar>
-32.8420

> <Gold.PLP.part.repulsive>
0.5654

> <Gold.PLP.ligand.clash>
0.0000

> <Gold.PLP.ligand.torsion>
0.7487

> <Gold.PLP.Chemscore.Hbond>
1.0000

> <Gold.PLP.Chemscore.CHOScore>
1.6687

> <Gold.PLP.Chemscore.Metal>
0.0000

> <Gold.Chemscore.Hbonds>
donor molecule, donor type, donor heavy atom, donor atom, acceptor molecule, acceptor atom, score
      L1  H     1    30       P1  7921  1.00
      L1  C     5    33       P1 10171  1.00
      L1  C     5    33       P1 10175  0.64

> <Gold.PLP.Chemscore.Internal.Correction>
0.4404

> <Gold.Rescore>
     Score         DG    S(hbond)    S(metal)    S(lipo)     H(rot)  DE(clash)    DE(int)     intcor
     14.17     -15.22       0.96        0.00     110.14       2.49       0.22       0.83       ----

> <Gold.Chemscore.Fitness>
14.1672

> <Gold.Chemscore.DG>
-15.2250

> <Gold.Chemscore.ZeroCoef>
-5.4800

> <Gold.Chemscore.Hbond>
0.9646

> <Gold.Chemscore.Metal>
0.0000

> <Gold.Chemscore.Lipo>
110.1366

> <Gold.Chemscore.Internal_Hbond>
0.0000

> <Gold.Chemscore.DEClash>
0.2230

> <Gold.Chemscore.DEInternal>
0.8348

> <Gold.Chemscore.Rot>
2.4855

> <Gold.Chemscore.Internal.Correction>
   9.000000E+99

> <Gold.Chemscore.Hbonds>
donor molecule, donor type, donor heavy atom, donor atom, acceptor molecule, acceptor atom, score
      L1  H     1    30       P1  7921  0.95

> <Gold.Chemscore.Hbond.Weighted>
-3.2218

> <Gold.Chemscore.Metal.Weighted>
-0.0000

> <Gold.Chemscore.Lipo.Weighted>
-12.8860

> <Gold.Chemscore.Internal_Hbond.Weighted>
0.0000

> <Gold.Chemscore.DEClash.Weighted>
0.2230

> <Gold.Chemscore.DEInternal.Weighted>
0.8348

> <Gold.Chemscore.Rot.Weighted>
6.3629

> <Gold.Chemscore.Internal.Correction.Weighted>
   9.000000E+99

> <Gold.Protein.RotatedTorsions>
[ 6907 6896 6895 6894 ] final   86.32 input  -60.11 | X-H torsion
[ 7974 7965 7964 7962 ] final -176.29 input  175.53 | X-H torsion
[ 8008 7997 7996 7995 ] final -143.17 input   59.86 | X-H torsion
[ 10167 10162 10161 10158 ] final  -99.81 input  -65.29 | X-H torsion
[ 10718 10713 10712 10709 ] final  167.83 input   66.30 | X-H torsion
[ 10763 10752 10751 10750 ] final   82.87 input  -60.55 | X-H torsion
[ 11005 11000 10999 10996 ] final -108.16 input  -57.11 | X-H torsion

> <Gold.Protein.ActiveResidues>
 VAL166  LYS551  ARG553  GLY616  TRP617  ASP618  TYR619  PRO620  LYS621  CYS622 
 ASP623  PHE694  ASN695  SER759  ASP760  ASP761  ALA762  ILE779  LEU786  VAL792 
 PHE793  MET794  SER795  GLU796  ALA797  LYS798  CYS799  TRP800  GLU811  SER814 

> <Gold.Protein.RotatedAtoms>
  152.5392  134.2449  159.8875 H   0  0  0  0  0  0  0  0  0  0  0  0  # atno 6907 bound_to 6896
  151.2414  133.4390  159.2615 H   0  0  0  0  0  0  0  0  0  0  0  0  # atno 6908 bound_to 6896
  151.0623  134.9758  159.8323 H   0  0  0  0  0  0  0  0  0  0  0  0  # atno 6909 bound_to 6896
  144.7127  140.1193  143.6406 H   0  0  0  0  0  0  0  0  0  0  0  0  # atno 7974 bound_to 7965
  155.5062  140.0579  157.2931 H   0  0  0  0  0  0  0  0  0  0  0  0  # atno 8008 bound_to 7997
  154.4569  140.1977  156.0304 H   0  0  0  0  0  0  0  0  0  0  0  0  # atno 8009 bound_to 7997
  156.0815  140.3246  155.7704 H   0  0  0  0  0  0  0  0  0  0  0  0  # atno 8010 bound_to 7997
  140.2585  143.3424  152.0648 H   0  0  0  0  0  0  0  0  0  0  0  0  # atno 10167 bound_to 10162
  157.0459  131.0299  151.2697 H   0  0  0  0  0  0  0  0  0  0  0  0  # atno 10718 bound_to 10713
  153.1240  135.4712  154.9242 H   0  0  0  0  0  0  0  0  0  0  0  0  # atno 10763 bound_to 10752
  154.7603  135.3129  154.8394 H   0  0  0  0  0  0  0  0  0  0  0  0  # atno 10764 bound_to 10752
  153.8951  135.6881  153.4812 H   0  0  0  0  0  0  0  0  0  0  0  0  # atno 10765 bound_to 10752
  141.0916  133.9045  157.2062 H   0  0  0  0  0  0  0  0  0  0  0  0  # atno 11005 bound_to 11000
  145.9385  139.2653  143.1282 LP  0  0  0  0  0  0  0  0  0  0  0  0  # atno 17320 bound_to 7965
  145.9448  140.8953  143.0289 LP  0  0  0  0  0  0  0  0  0  0  0  0  # atno 17321 bound_to 7965
  139.5024  144.6734  151.6188 LP  0  0  0  0  0  0  0  0  0  0  0  0  # atno 17342 bound_to 10162
  140.5985  143.9653  150.6370 LP  0  0  0  0  0  0  0  0  0  0  0  0  # atno 17343 bound_to 10162
  157.5068  130.7914  149.7663 LP  0  0  0  0  0  0  0  0  0  0  0  0  # atno 17370 bound_to 10713
  156.0023  130.3873  150.2559 LP  0  0  0  0  0  0  0  0  0  0  0  0  # atno 17371 bound_to 10713
  139.9743  135.0118  156.9592 LP  0  0  0  0  0  0  0  0  0  0  0  0  # atno 17394 bound_to 11000
  140.5238  134.0881  155.7298 LP  0  0  0  0  0  0  0  0  0  0  0  0  # atno 17395 bound_to 11000

$$$$
