AV-unprocessed.smi:703|AV-procd|sdf|3428|dock2
  -GOLD-   22720 0413D 1   1.00000     0.00000
 Structure written by MMmdl.
 38 39  0  0  0  0  0  0  0  0  2 V2000
  144.0007  136.5014  152.9199 C   0  0  0  0  0  0  0  0  0  0  0  0
  145.1764  137.1047  152.1395 C   0  0  0  0  0  0  0  0  0  0  0  0
  145.6310  138.3920  152.7159 N   0  3  1  0  0  0  0  0  0  0  0  0
  145.9369  138.3581  154.1615 C   0  0  0  0  0  0  0  0  0  0  0  0
  146.9234  139.5029  154.4077 C   0  0  2  0  0  0  0  0  0  0  0  0
  146.2004  140.8318  154.6829 C   0  0  0  0  0  0  0  0  0  0  0  0
  147.7390  139.5429  153.1084 C   0  0  1  0  0  0  0  0  0  0  0  0
  148.9307  138.6983  153.2420 N   0  0  0  0  0  0  0  0  0  0  0  0
  149.8746  138.8416  154.6794 S   0  0  0  0  0  0  0  0  0  0  0  0
  150.4592  140.1915  154.6994 O   0  0  0  0  0  0  0  0  0  0  0  0
  149.0377  138.3882  155.8003 O   0  0  0  0  0  0  0  0  0  0  0  0
  151.2252  137.6208  154.3986 C   0  0  0  0  0  0  0  0  0  0  0  0
  151.0070  136.4237  155.2782 C   0  0  0  0  0  0  0  0  0  0  0  0
  149.9201  135.5066  155.2686 C   0  0  0  0  0  0  0  0  0  0  0  0
  150.2367  134.6273  156.2637 C   0  0  0  0  0  0  0  0  0  0  0  0
  151.4143  134.9703  156.8437 O   0  0  0  0  0  0  0  0  0  0  0  0
  151.8976  136.1200  156.2087 N   0  0  0  0  0  0  0  0  0  0  0  0
  146.7955  138.9903  152.0236 C   0  0  0  0  0  0  0  0  0  0  0  0
  143.6506  135.5869  152.4407 H   0  0  0  0  0  0  0  0  0  0  0  0
  143.1598  137.1942  152.9642 H   0  0  0  0  0  0  0  0  0  0  0  0
  144.2828  136.2472  153.9418 H   0  0  0  0  0  0  0  0  0  0  0  0
  146.0081  136.3996  152.0985 H   0  0  0  0  0  0  0  0  0  0  0  0
  144.8594  137.2766  151.1100 H   0  0  0  0  0  0  0  0  0  0  0  0
  145.0342  138.4369  154.7684 H   0  0  0  0  0  0  0  0  0  0  0  0
  146.4190  137.4106  154.4078 H   0  0  0  0  0  0  0  0  0  0  0  0
  147.5542  139.2822  155.2704 H   0  0  0  0  0  0  0  0  0  0  0  0
  145.5457  141.1129  153.8573 H   0  0  0  0  0  0  0  0  0  0  0  0
  146.9157  141.6419  154.8289 H   0  0  0  0  0  0  0  0  0  0  0  0
  145.5904  140.7672  155.5845 H   0  0  0  0  0  0  0  0  0  0  0  0
  148.0617  140.5593  152.8769 H   0  0  0  0  0  0  0  0  0  0  0  0
  148.7068  137.7209  153.0545 H   0  0  0  0  0  0  0  0  0  0  0  0
  151.2310  137.3463  153.3434 H   0  0  0  0  0  0  0  0  0  0  0  0
  152.1768  138.1011  154.6243 H   0  0  0  0  0  0  0  0  0  0  0  0
  149.0493  135.4928  154.6303 H   0  0  0  0  0  0  0  0  0  0  0  0
  149.7502  133.7487  156.6606 H   0  0  0  0  0  0  0  0  0  0  0  0
  147.2979  138.2621  151.3845 H   0  0  0  0  0  0  0  0  0  0  0  0
  146.4384  139.7919  151.3764 H   0  0  0  0  0  0  0  0  0  0  0  0
  144.8769  139.0543  152.6013 H   0  0  0  0  0  0  0  0  0  0  0  0
  1  2  1  0  0  0  0
  1 19  1  0  0  0  0
  1 20  1  0  0  0  0
  1 21  1  0  0  0  0
  2  3  1  0  0  0  0
  2 22  1  0  0  0  0
  2 23  1  0  0  0  0
  3 18  1  0  0  0  0
  3  4  1  0  0  0  0
  3 38  1  0  0  0  0
  4  5  1  0  0  0  0
  4 24  1  0  0  0  0
  4 25  1  0  0  0  0
  5  6  1  0  0  0  0
  5  7  1  0  0  0  0
  5 26  1  0  0  0  0
  6 27  1  0  0  0  0
  6 28  1  0  0  0  0
  6 29  1  0  0  0  0
  7  8  1  0  0  0  0
  7 18  1  0  0  0  0
  7 30  1  0  0  0  0
  8  9  1  0  0  0  0
  8 31  1  0  0  0  0
  9 10  2  0  0  0  0
  9 11  2  0  0  0  0
  9 12  1  0  0  0  0
 12 13  1  0  0  0  0
 12 32  1  0  0  0  0
 12 33  1  0  0  0  0
 13 17  2  0  0  0  0
 13 14  1  0  0  0  0
 14 15  2  0  0  0  0
 14 34  1  0  0  0  0
 15 16  1  0  0  0  0
 15 35  1  0  0  0  0
 16 17  1  0  0  0  0
 18 36  1  0  0  0  0
 18 37  1  0  0  0  0
M  CHG  1   3   1
M  END
> <s_m_source_file>
AV-unprocessed.smi

> <i_m_source_file_index>
703

> <i_lp_mmshare_version>
43012

> <i_f3d_flags>
0

> <s_epik_input>
W0NIM11bQ0gyXU4xW0NIMl1bQ0BASF0oW0NIM10pW0NASF0oW0NIMl0xKVtOSF1TKD1PKSg9TylbQ0gyXWMyW2NIXVtjSF1vbjI=

> <s_epik_cmdline>
J2VwaWtfcHl0aG9uJywgJy1waCcsICc3LjAnLCAnLXRuJywgJzgnLCAnLW1hJywgJzIwMCcsICctbWV0YWxfYmluZGluZycsICctaW1hZScsICc8aW5maWxlLm1hZT4nLCAnLW9tYWUnLCAnPG91dGZpbGUubWFlPic=

> <r_epik_Ionization_Penalty>
0.00324529

> <r_epik_Ionization_Penalty_Charging>
0.0019384

> <r_epik_Ionization_Penalty_Neutral>
0.00130689

> <r_epik_State_Penalty>
0.00218682

> <r_epik_Charging_Adjusted_Penalty>
0.00412522

> <i_epik_Tot_Q>
1

> <i_epik_Tot_abs_Q>
1

> <r_epik_Metal_State_Penalty>
0.310831

> <b_epik_Metal_Only>
0

> <s_lp_Force_Field>
OPLS_2005

> <r_lp_Energy>
19.6453

> <b_lp_Chiralities_Consistent>
1

> <s_lp_Variant>
AV-unprocessed.smi:703-3

> <Gold.Version>
5.8.1

> <Gold.Id.Protein>
6NUR|6NUR_protein|mol2

> <Gold.PLP.Fitness>
40.5810

> <Gold.PLP.PLP>
-26.4956

> <Gold.PLP.part.hbond>
-5.5179

> <Gold.PLP.part.metal>
0.0000

> <Gold.PLP.part.buried>
0.6695

> <Gold.PLP.part.nonpolar>
-21.2086

> <Gold.PLP.part.repulsive>
0.1173

> <Gold.PLP.ligand.clash>
0.0000

> <Gold.PLP.ligand.torsion>
0.4007

> <Gold.PLP.Chemscore.Hbond>
4.8960

> <Gold.PLP.Chemscore.CHOScore>
0.0000

> <Gold.PLP.Chemscore.Metal>
0.0000

> <Gold.Chemscore.Hbonds>
donor molecule, donor type, donor heavy atom, donor atom, acceptor molecule, acceptor atom, score
      L1  H     3    38       P1 10175  2.00
      L1  H     8    31       P1  7948  0.90
      P1  H  7989  7998       L1    10  1.00
      P1  H 10752 10764       L1    17  1.00

> <Gold.PLP.Chemscore.Internal.Correction>
0.1988

> <Gold.Rescore>
     Score         DG    S(hbond)    S(metal)    S(lipo)     H(rot)  DE(clash)    DE(int)     intcor
     14.80     -19.41       3.56        0.00      59.93       1.94       1.57       3.04       ----

> <Gold.Chemscore.Fitness>
14.7963

> <Gold.Chemscore.DG>
-19.4059

> <Gold.Chemscore.ZeroCoef>
-5.4800

> <Gold.Chemscore.Hbond>
3.5570

> <Gold.Chemscore.Metal>
0.0000

> <Gold.Chemscore.Lipo>
59.9330

> <Gold.Chemscore.Internal_Hbond>
0.0000

> <Gold.Chemscore.DEClash>
1.5746

> <Gold.Chemscore.DEInternal>
3.0351

> <Gold.Chemscore.Rot>
1.9400

> <Gold.Chemscore.Internal.Correction>
   9.000000E+99

> <Gold.Chemscore.Hbonds>
donor molecule, donor type, donor heavy atom, donor atom, acceptor molecule, acceptor atom, score
      L1  H     3    38       P1 10175  1.00
      L1  H     8    31       P1  7948  0.86
      P1  H  7989  7998       L1    10  0.99
      P1  H 10752 10764       L1    17  0.12

> <Gold.Chemscore.Hbond.Weighted>
-11.8802

> <Gold.Chemscore.Metal.Weighted>
-0.0000

> <Gold.Chemscore.Lipo.Weighted>
-7.0122

> <Gold.Chemscore.Internal_Hbond.Weighted>
0.0000

> <Gold.Chemscore.DEClash.Weighted>
1.5746

> <Gold.Chemscore.DEInternal.Weighted>
3.0351

> <Gold.Chemscore.Rot.Weighted>
4.9665

> <Gold.Chemscore.Internal.Correction.Weighted>
   9.000000E+99

> <Gold.Protein.RotatedTorsions>
[ 6907 6896 6895 6894 ] final  112.39 input  -60.11 | X-H torsion
[ 7974 7965 7964 7962 ] final -129.28 input  175.53 | X-H torsion
[ 8008 7997 7996 7995 ] final  112.08 input   59.86 | X-H torsion
[ 10167 10162 10161 10158 ] final   86.70 input  -65.29 | X-H torsion
[ 10718 10713 10712 10709 ] final -172.90 input   66.30 | X-H torsion
[ 10763 10752 10751 10750 ] final  -14.69 input  -60.55 | X-H torsion
[ 11005 11000 10999 10996 ] final  -25.30 input  -57.11 | X-H torsion

> <Gold.Protein.ActiveResidues>
 VAL166  LYS551  ARG553  GLY616  TRP617  ASP618  TYR619  PRO620  LYS621  CYS622 
 ASP623  PHE694  ASN695  SER759  ASP760  ASP761  ALA762  ILE779  LEU786  VAL792 
 PHE793  MET794  SER795  GLU796  ALA797  LYS798  CYS799  TRP800  GLU811  SER814 

> <Gold.Protein.RotatedAtoms>
  152.4918  133.8522  159.7207 H   0  0  0  0  0  0  0  0  0  0  0  0  # atno 6907 bound_to 6896
  150.9056  133.7053  159.2874 H   0  0  0  0  0  0  0  0  0  0  0  0  # atno 6908 bound_to 6896
  151.4480  135.1031  159.9742 H   0  0  0  0  0  0  0  0  0  0  0  0  # atno 6909 bound_to 6896
  144.9587  140.7423  143.4742 H   0  0  0  0  0  0  0  0  0  0  0  0  # atno 7974 bound_to 7965
  156.2168  140.3006  155.9858 H   0  0  0  0  0  0  0  0  0  0  0  0  # atno 8008 bound_to 7997
  155.2585  140.0429  157.3012 H   0  0  0  0  0  0  0  0  0  0  0  0  # atno 8009 bound_to 7997
  154.5780  140.2367  155.8103 H   0  0  0  0  0  0  0  0  0  0  0  0  # atno 8010 bound_to 7997
  139.8848  144.6419  150.8803 H   0  0  0  0  0  0  0  0  0  0  0  0  # atno 10167 bound_to 10162
  156.7624  130.9418  151.3118 H   0  0  0  0  0  0  0  0  0  0  0  0  # atno 10718 bound_to 10713
  153.5321  135.7014  153.5678 H   0  0  0  0  0  0  0  0  0  0  0  0  # atno 10763 bound_to 10752
  153.3681  135.3952  155.1768 H   0  0  0  0  0  0  0  0  0  0  0  0  # atno 10764 bound_to 10752
  154.8683  135.3805  154.4819 H   0  0  0  0  0  0  0  0  0  0  0  0  # atno 10765 bound_to 10752
  140.8925  133.7579  156.0439 H   0  0  0  0  0  0  0  0  0  0  0  0  # atno 11005 bound_to 11000
  145.2733  139.1946  143.4830 LP  0  0  0  0  0  0  0  0  0  0  0  0  # atno 17320 bound_to 7965
  146.3346  140.2683  142.8605 LP  0  0  0  0  0  0  0  0  0  0  0  0  # atno 17321 bound_to 7965
  140.7738  143.3557  151.1927 LP  0  0  0  0  0  0  0  0  0  0  0  0  # atno 17342 bound_to 10162
  139.7163  143.9295  152.2968 LP  0  0  0  0  0  0  0  0  0  0  0  0  # atno 17343 bound_to 10162
  157.6728  130.9067  150.0081 LP  0  0  0  0  0  0  0  0  0  0  0  0  # atno 17370 bound_to 10713
  156.1330  130.3643  149.9701 LP  0  0  0  0  0  0  0  0  0  0  0  0  # atno 17371 bound_to 10713
  140.8330  134.3156  157.5342 LP  0  0  0  0  0  0  0  0  0  0  0  0  # atno 17394 bound_to 11000
  139.8731  134.9374  156.3686 LP  0  0  0  0  0  0  0  0  0  0  0  0  # atno 17395 bound_to 11000

$$$$
