AV-unprocessed.smi:87|AV-procd|sdf|823|dock6
  -GOLD-   2262017233D 1   1.00000     0.00000
 Structure written by MMmdl.
 58 60  0  0  0  0  0  0  0  0  1 V2000
  141.5608  134.6898  163.4024 C   0  0  0  0  0  0  0  0  0  0  0  0
  142.6179  133.8266  162.6982 C   0  0  0  0  0  0  0  0  0  0  0  0
  143.8613  134.6029  162.2010 C   0  0  0  0  0  0  0  0  0  0  0  0
  143.5307  136.0957  161.9643 C   0  0  0  0  0  0  0  0  0  0  0  0
  144.6502  136.8876  161.2719 C   0  0  0  0  0  0  0  0  0  0  0  0
  144.4383  133.9667  160.9100 C   0  0  0  0  0  0  0  0  0  0  0  0
  145.8334  134.3211  160.6254 N   0  0  0  0  0  0  0  0  0  0  0  0
  146.9023  133.8299  161.4993 C   0  0  0  0  0  0  0  0  0  0  0  0
  147.1719  134.7582  162.6909 C   0  0  0  0  0  0  0  0  0  0  0  0
  147.3818  136.1530  162.2764 C   0  0  0  0  0  0  0  0  0  0  0  0
  147.5472  137.2506  161.9506 N   0  0  0  0  0  0  0  0  0  0  0  0
  146.1574  134.6605  159.3484 C   0  0  0  0  0  0  0  0  0  0  0  0
  147.3776  135.2090  159.1003 N   0  0  0  0  0  0  0  0  0  0  0  0
  147.7386  135.5292  157.8550 C   0  0  0  0  0  0  0  0  0  0  0  0
  147.0432  135.3946  156.7252 N   0  0  0  0  0  0  0  0  0  0  0  0
  145.8107  134.8639  156.9645 C   0  0  0  0  0  0  0  0  0  0  0  0
  145.2912  134.4710  158.2317 C   0  0  0  0  0  0  0  0  0  0  0  0
  143.9986  133.9825  158.0746 N   0  0  0  0  0  0  0  0  0  0  0  0
  143.7780  134.0580  156.7912 C   0  0  0  0  0  0  0  0  0  0  0  0
  144.8064  134.5944  156.0510 N   0  0  0  0  0  0  0  0  0  0  0  0
  144.8314  134.7879  154.6113 C   0  0  0  0  0  0  0  0  0  0  0  0
  145.7796  133.8257  153.8573 C   0  0  1  0  0  0  0  0  0  0  0  0
  145.4662  132.5341  154.3382 O   0  0  0  0  0  0  0  0  0  0  0  0
  145.6097  133.7894  152.3210 C   0  0  1  0  0  0  0  0  0  0  0  0
  146.4779  132.7758  151.5688 C   0  0  0  0  0  0  0  0  0  0  0  0
  145.6744  132.4445  150.3205 C   0  0  0  0  0  0  0  0  0  0  0  0
  144.2886  133.0187  150.6126 C   0  0  0  0  0  0  0  0  0  0  0  0
  144.3111  133.3095  152.0012 O   0  0  0  0  0  0  0  0  0  0  0  0
  140.7783  134.0615  163.8280 H   0  0  0  0  0  0  0  0  0  0  0  0
  141.0756  135.3860  162.7197 H   0  0  0  0  0  0  0  0  0  0  0  0
  142.0009  135.2646  164.2177 H   0  0  0  0  0  0  0  0  0  0  0  0
  142.9237  133.0676  163.4152 H   0  0  0  0  0  0  0  0  0  0  0  0
  142.1599  133.2859  161.8692 H   0  0  0  0  0  0  0  0  0  0  0  0
  144.6188  134.5602  162.9841 H   0  0  0  0  0  0  0  0  0  0  0  0
  142.6075  136.1864  161.3908 H   0  0  0  0  0  0  0  0  0  0  0  0
  143.3398  136.5892  162.9155 H   0  0  0  0  0  0  0  0  0  0  0  0
  144.3975  137.9471  161.2281 H   0  0  0  0  0  0  0  0  0  0  0  0
  144.8180  136.5551  160.2483 H   0  0  0  0  0  0  0  0  0  0  0  0
  145.5915  136.7964  161.8148 H   0  0  0  0  0  0  0  0  0  0  0  0
  144.3001  132.8894  160.9702 H   0  0  0  0  0  0  0  0  0  0  0  0
  143.8593  134.2735  160.0412 H   0  0  0  0  0  0  0  0  0  0  0  0
  146.6566  132.8268  161.8494 H   0  0  0  0  0  0  0  0  0  0  0  0
  147.8277  133.7428  160.9283 H   0  0  0  0  0  0  0  0  0  0  0  0
  146.3328  134.7403  163.3868 H   0  0  0  0  0  0  0  0  0  0  0  0
  148.0604  134.4454  163.2391 H   0  0  0  0  0  0  0  0  0  0  0  0
  148.7264  135.9530  157.7491 H   0  0  0  0  0  0  0  0  0  0  0  0
  142.8469  133.7352  156.3484 H   0  0  0  0  0  0  0  0  0  0  0  0
  143.8077  134.6526  154.2584 H   0  0  0  0  0  0  0  0  0  0  0  0
  145.0954  135.8245  154.3974 H   0  0  0  0  0  0  0  0  0  0  0  0
  146.8174  134.0403  154.1129 H   0  0  0  0  0  0  0  0  0  0  0  0
  144.5443  132.5055  154.5429 H   0  0  0  0  0  0  0  0  0  0  0  0
  145.7489  134.7833  151.8904 H   0  0  0  0  0  0  0  0  0  0  0  0
  147.4655  133.1682  151.3285 H   0  0  0  0  0  0  0  0  0  0  0  0
  146.6061  131.8706  152.1640 H   0  0  0  0  0  0  0  0  0  0  0  0
  146.1036  132.9013  149.4283 H   0  0  0  0  0  0  0  0  0  0  0  0
  145.6366  131.3661  150.1619 H   0  0  0  0  0  0  0  0  0  0  0  0
  144.1282  133.9424  150.0545 H   0  0  0  0  0  0  0  0  0  0  0  0
  143.4842  132.3259  150.3655 H   0  0  0  0  0  0  0  0  0  0  0  0
  1  2  1  0  0  0  0
  1 29  1  0  0  0  0
  1 30  1  0  0  0  0
  1 31  1  0  0  0  0
  2  3  1  0  0  0  0
  2 32  1  0  0  0  0
  2 33  1  0  0  0  0
  3  4  1  0  0  0  0
  3  6  1  0  0  0  0
  3 34  1  0  0  0  0
  4  5  1  0  0  0  0
  4 35  1  0  0  0  0
  4 36  1  0  0  0  0
  5 37  1  0  0  0  0
  5 38  1  0  0  0  0
  5 39  1  0  0  0  0
  6  7  1  0  0  0  0
  6 40  1  0  0  0  0
  6 41  1  0  0  0  0
  7  8  1  0  0  0  0
  7 12  1  0  0  0  0
  8  9  1  0  0  0  0
  8 42  1  0  0  0  0
  8 43  1  0  0  0  0
  9 10  1  0  0  0  0
  9 44  1  0  0  0  0
  9 45  1  0  0  0  0
 10 11  3  0  0  0  0
 12 17  1  0  0  0  0
 12 13  2  0  0  0  0
 13 14  1  0  0  0  0
 14 15  2  0  0  0  0
 14 46  1  0  0  0  0
 15 16  1  0  0  0  0
 16 20  1  0  0  0  0
 16 17  2  0  0  0  0
 17 18  1  0  0  0  0
 18 19  2  0  0  0  0
 19 20  1  0  0  0  0
 19 47  1  0  0  0  0
 20 21  1  0  0  0  0
 21 22  1  0  0  0  0
 21 48  1  0  0  0  0
 21 49  1  0  0  0  0
 22 23  1  0  0  0  0
 22 24  1  0  0  0  0
 22 50  1  0  0  0  0
 23 51  1  0  0  0  0
 24 28  1  0  0  0  0
 24 25  1  0  0  0  0
 24 52  1  0  0  0  0
 25 26  1  0  0  0  0
 25 53  1  0  0  0  0
 25 54  1  0  0  0  0
 26 27  1  0  0  0  0
 26 55  1  0  0  0  0
 26 56  1  0  0  0  0
 27 28  1  0  0  0  0
 27 57  1  0  0  0  0
 27 58  1  0  0  0  0
M  END
> <s_m_source_file>
AV-unprocessed.smi

> <i_m_source_file_index>
87

> <i_lp_mmshare_version>
43012

> <i_f3d_flags>
0

> <s_epik_input>
W0NIM11bQ0gyXVtDSF0oW0NIMl1bQ0gzXSlbQ0gyXU4oW0NIMl1bQ0gyXUMjTiljKG5bY0hdbjEpYyhjMTIpbltjSF1uMltDSDJdW0NASF0oW09IXSlbQ0BASF0zW0NIMl1bQ0gyXVtDSDJdTzM=

> <s_epik_cmdline>
J2VwaWtfcHl0aG9uJywgJy1waCcsICc3LjAnLCAnLXRuJywgJzgnLCAnLW1hJywgJzIwMCcsICctbWV0YWxfYmluZGluZycsICctaW1hZScsICc8aW5maWxlLm1hZT4nLCAnLW9tYWUnLCAnPG91dGZpbGUubWFlPic=

> <r_lp_tautomer_probability>
1

> <r_epik_Ionization_Penalty>
0.000348566

> <r_epik_Ionization_Penalty_Charging>
0

> <r_epik_Ionization_Penalty_Neutral>
0.000348566

> <r_epik_State_Penalty>
-0

> <r_epik_Charging_Adjusted_Penalty>
0

> <i_epik_Tot_Q>
0

> <i_epik_Tot_abs_Q>
0

> <r_epik_Metal_State_Penalty>
-0

> <b_epik_Metal_Only>
0

> <s_lp_Force_Field>
OPLS_2005

> <r_lp_Energy>
38.5026

> <b_lp_Chiralities_Consistent>
1

> <s_lp_Variant>
AV-unprocessed.smi:87-4

> <Gold.Version>
5.8.1

> <Gold.Id.Protein>
6NUR|6NUR_protein|mol2

> <Gold.PLP.Fitness>
47.4949

> <Gold.PLP.PLP>
-35.7190

> <Gold.PLP.part.hbond>
-3.0000

> <Gold.PLP.part.metal>
0.0000

> <Gold.PLP.part.buried>
-5.1424

> <Gold.PLP.part.nonpolar>
-27.7356

> <Gold.PLP.part.repulsive>
0.1673

> <Gold.PLP.ligand.clash>
0.0000

> <Gold.PLP.ligand.torsion>
1.4577

> <Gold.PLP.Chemscore.Hbond>
2.5570

> <Gold.PLP.Chemscore.CHOScore>
1.8543

> <Gold.PLP.Chemscore.Metal>
0.0000

> <Gold.Chemscore.Hbonds>
donor molecule, donor type, donor heavy atom, donor atom, acceptor molecule, acceptor atom, score
      L1  H    23    51       P1 10957  1.00
      P1  H  6931  6943       L1    11  0.93
      P1  H  6934  6947       L1    11  0.61
      L1  C    19    47       P1 10957  0.88
      L1  C    19    47       P1 11000  1.00

> <Gold.PLP.Chemscore.Internal.Correction>
1.4575

> <Gold.Rescore>
     Score         DG    S(hbond)    S(metal)    S(lipo)     H(rot)  DE(clash)    DE(int)     intcor
     10.33     -14.38       2.40        0.00      81.16       3.37       0.04       4.02       ----

> <Gold.Chemscore.Fitness>
10.3263

> <Gold.Chemscore.DG>
-14.3829

> <Gold.Chemscore.ZeroCoef>
-5.4800

> <Gold.Chemscore.Hbond>
2.4034

> <Gold.Chemscore.Metal>
0.0000

> <Gold.Chemscore.Lipo>
81.1593

> <Gold.Chemscore.Internal_Hbond>
0.0000

> <Gold.Chemscore.DEClash>
0.0382

> <Gold.Chemscore.DEInternal>
4.0183

> <Gold.Chemscore.Rot>
3.3672

> <Gold.Chemscore.Internal.Correction>
   9.000000E+99

> <Gold.Chemscore.Hbonds>
donor molecule, donor type, donor heavy atom, donor atom, acceptor molecule, acceptor atom, score
      L1  H    23    51       P1 10957  0.77
      P1  H  6931  6943       L1    11  0.90
      P1  H  6934  6947       L1    11  0.58

> <Gold.Chemscore.Hbond.Weighted>
-8.0274

> <Gold.Chemscore.Metal.Weighted>
-0.0000

> <Gold.Chemscore.Lipo.Weighted>
-9.4956

> <Gold.Chemscore.Internal_Hbond.Weighted>
0.0000

> <Gold.Chemscore.DEClash.Weighted>
0.0382

> <Gold.Chemscore.DEInternal.Weighted>
4.0183

> <Gold.Chemscore.Rot.Weighted>
8.6201

> <Gold.Chemscore.Internal.Correction.Weighted>
   9.000000E+99

> <Gold.Protein.RotatedTorsions>
[ 6907 6896 6895 6894 ] final  -50.76 input  -60.11 | X-H torsion
[ 7974 7965 7964 7962 ] final    5.23 input  175.53 | X-H torsion
[ 8008 7997 7996 7995 ] final   97.89 input   59.86 | X-H torsion
[ 10167 10162 10161 10158 ] final   71.09 input  -65.29 | X-H torsion
[ 10718 10713 10712 10709 ] final  124.91 input   66.30 | X-H torsion
[ 10763 10752 10751 10750 ] final  -29.45 input  -60.55 | X-H torsion
[ 11005 11000 10999 10996 ] final   59.69 input  -57.11 | X-H torsion

> <Gold.Protein.ActiveResidues>
 VAL166  LYS551  ARG553  GLY616  TRP617  ASP618  TYR619  PRO620  LYS621  CYS622 
 ASP623  PHE694  ASN695  SER759  ASP760  ASP761  ALA762  ILE779  LEU786  VAL792 
 PHE793  MET794  SER795  GLU796  ALA797  LYS798  CYS799  TRP800  GLU811  SER814 

> <Gold.Protein.RotatedAtoms>
  150.8676  134.8043  159.7130 H   0  0  0  0  0  0  0  0  0  0  0  0  # atno 6907 bound_to 6896
  152.4692  134.4998  159.9731 H   0  0  0  0  0  0  0  0  0  0  0  0  # atno 6908 bound_to 6896
  151.5092  133.3450  159.2917 H   0  0  0  0  0  0  0  0  0  0  0  0  # atno 6909 bound_to 6896
  146.2441  140.0415  142.8382 H   0  0  0  0  0  0  0  0  0  0  0  0  # atno 7974 bound_to 7965
  156.0948  140.3252  155.7863 H   0  0  0  0  0  0  0  0  0  0  0  0  # atno 8008 bound_to 7997
  155.4937  140.0563  157.2967 H   0  0  0  0  0  0  0  0  0  0  0  0  # atno 8009 bound_to 7997
  154.4659  140.1989  156.0134 H   0  0  0  0  0  0  0  0  0  0  0  0  # atno 8010 bound_to 7997
  140.0499  144.5320  150.7371 H   0  0  0  0  0  0  0  0  0  0  0  0  # atno 10167 bound_to 10162
  157.5547  131.1092  150.8642 H   0  0  0  0  0  0  0  0  0  0  0  0  # atno 10718 bound_to 10713
  153.7649  135.6916  153.4918 H   0  0  0  0  0  0  0  0  0  0  0  0  # atno 10763 bound_to 10752
  153.1913  135.4470  155.0152 H   0  0  0  0  0  0  0  0  0  0  0  0  # atno 10764 bound_to 10752
  154.8139  135.3390  154.7162 H   0  0  0  0  0  0  0  0  0  0  0  0  # atno 10765 bound_to 10752
  140.0286  134.6046  155.9538 H   0  0  0  0  0  0  0  0  0  0  0  0  # atno 11005 bound_to 11000
  145.1065  140.9378  143.4681 LP  0  0  0  0  0  0  0  0  0  0  0  0  # atno 17320 bound_to 7965
  145.0619  139.3099  143.5876 LP  0  0  0  0  0  0  0  0  0  0  0  0  # atno 17321 bound_to 7965
  140.7222  143.2599  151.4242 LP  0  0  0  0  0  0  0  0  0  0  0  0  # atno 17342 bound_to 10162
  139.5960  144.1397  152.2144 LP  0  0  0  0  0  0  0  0  0  0  0  0  # atno 17343 bound_to 10162
  156.9157  130.5297  149.5279 LP  0  0  0  0  0  0  0  0  0  0  0  0  # atno 17370 bound_to 10713
  156.0608  130.5661  150.9187 LP  0  0  0  0  0  0  0  0  0  0  0  0  # atno 17371 bound_to 10713
  141.1817  133.6548  156.5049 LP  0  0  0  0  0  0  0  0  0  0  0  0  # atno 17394 bound_to 11000
  140.4264  134.7141  157.4918 LP  0  0  0  0  0  0  0  0  0  0  0  0  # atno 17395 bound_to 11000

$$$$
