AV-unprocessed.smi:2493|AV-procd|sdf|9819|dock2
  -GOLD-   2272013453D 1   1.00000     0.00000
 Structure written by MMmdl.
 41 42  0  0  0  0  0  0  0  0  1 V2000
  151.7300  144.8443  158.0800 C   0  0  0  0  0  0  0  0  0  0  0  0
  151.2715  143.6994  159.0126 C   0  0  0  0  0  0  0  0  0  0  0  0
  149.9200  143.1267  158.4984 C   0  0  0  0  0  0  0  0  0  0  0  0
  149.9881  142.6019  157.1352 N   0  0  0  0  0  0  0  0  0  0  0  0
  150.2584  141.3319  156.7943 C   0  0  0  0  0  0  0  0  0  0  0  0
  150.4974  140.4429  157.6111 O   0  0  0  0  0  0  0  0  0  0  0  0
  150.2695  141.0166  155.2983 C   0  0  0  0  0  0  0  0  0  0  0  0
  148.9175  141.2214  154.6932 C   0  0  0  0  0  0  0  0  0  0  0  0
  148.0837  140.3616  154.0337 C   0  0  0  0  0  0  0  0  0  0  0  0
  146.9497  141.1597  153.7060 C   0  0  0  0  0  0  0  0  0  0  0  0
  147.0632  142.4097  154.1258 N   0  0  0  0  0  0  0  0  0  0  0  0
  148.2669  142.4351  154.7282 N   0  0  0  0  0  0  0  0  0  0  0  0
  152.3423  142.5761  158.9344 C   0  0  0  0  0  0  0  0  0  0  0  0
  152.3549  141.5571  160.0895 C   0  0  0  0  0  0  0  0  0  0  0  0
  153.2570  141.9909  161.2572 C   0  0  0  0  0  0  0  0  0  0  0  0
  152.7000  143.1464  162.1007 C   0  0  0  0  0  0  0  0  0  0  0  0
  152.3558  144.4160  161.3030 C   0  0  0  0  0  0  0  0  0  0  0  0
  151.0824  144.2596  160.4512 C   0  0  0  0  0  0  0  0  0  0  0  0
  148.6305  143.2780  155.1500 H   0  0  0  0  0  0  0  0  0  0  0  0
  151.8227  144.5003  157.0491 H   0  0  0  0  0  0  0  0  0  0  0  0
  152.7000  145.2421  158.3790 H   0  0  0  0  0  0  0  0  0  0  0  0
  151.0316  145.6810  158.0822 H   0  0  0  0  0  0  0  0  0  0  0  0
  149.5449  142.3631  159.1823 H   0  0  0  0  0  0  0  0  0  0  0  0
  149.1620  143.9100  158.4958 H   0  0  0  0  0  0  0  0  0  0  0  0
  149.8062  143.2588  156.3903 H   0  0  0  0  0  0  0  0  0  0  0  0
  151.0036  141.6529  154.8025 H   0  0  0  0  0  0  0  0  0  0  0  0
  150.5970  139.9873  155.1450 H   0  0  0  0  0  0  0  0  0  0  0  0
  148.2576  139.3184  153.8151 H   0  0  0  0  0  0  0  0  0  0  0  0
  146.0533  140.8685  153.1784 H   0  0  0  0  0  0  0  0  0  0  0  0
  152.2109  142.0340  157.9968 H   0  0  0  0  0  0  0  0  0  0  0  0
  153.3388  143.0127  158.8530 H   0  0  0  0  0  0  0  0  0  0  0  0
  151.3467  141.3303  160.4367 H   0  0  0  0  0  0  0  0  0  0  0  0
  152.7509  140.6177  159.7022 H   0  0  0  0  0  0  0  0  0  0  0  0
  153.4141  141.1348  161.9140 H   0  0  0  0  0  0  0  0  0  0  0  0
  154.2453  142.2561  160.8797 H   0  0  0  0  0  0  0  0  0  0  0  0
  151.8213  142.8079  162.6506 H   0  0  0  0  0  0  0  0  0  0  0  0
  153.4403  143.4011  162.8597 H   0  0  0  0  0  0  0  0  0  0  0  0
  152.1793  145.2155  162.0234 H   0  0  0  0  0  0  0  0  0  0  0  0
  153.2028  144.7448  160.7006 H   0  0  0  0  0  0  0  0  0  0  0  0
  150.5950  145.2335  160.3860 H   0  0  0  0  0  0  0  0  0  0  0  0
  150.3745  143.6380  161.0012 H   0  0  0  0  0  0  0  0  0  0  0  0
  1  2  1  0  0  0  0
  1 20  1  0  0  0  0
  1 21  1  0  0  0  0
  1 22  1  0  0  0  0
  2 18  1  0  0  0  0
  2  3  1  0  0  0  0
  2 13  1  0  0  0  0
  3  4  1  0  0  0  0
  3 23  1  0  0  0  0
  3 24  1  0  0  0  0
  4  5  1  0  0  0  0
  4 25  1  0  0  0  0
  5  6  2  0  0  0  0
  5  7  1  0  0  0  0
  7  8  1  0  0  0  0
  7 26  1  0  0  0  0
  7 27  1  0  0  0  0
  8 12  1  0  0  0  0
  8  9  2  0  0  0  0
  9 10  1  0  0  0  0
  9 28  1  0  0  0  0
 10 11  2  0  0  0  0
 10 29  1  0  0  0  0
 11 12  1  0  0  0  0
 12 19  1  0  0  0  0
 13 14  1  0  0  0  0
 13 30  1  0  0  0  0
 13 31  1  0  0  0  0
 14 15  1  0  0  0  0
 14 32  1  0  0  0  0
 14 33  1  0  0  0  0
 15 16  1  0  0  0  0
 15 34  1  0  0  0  0
 15 35  1  0  0  0  0
 16 17  1  0  0  0  0
 16 36  1  0  0  0  0
 16 37  1  0  0  0  0
 17 18  1  0  0  0  0
 17 38  1  0  0  0  0
 17 39  1  0  0  0  0
 18 40  1  0  0  0  0
 18 41  1  0  0  0  0
M  END
> <s_m_source_file>
AV-unprocessed.smi

> <i_m_source_file_index>
2493

> <i_lp_mmshare_version>
43012

> <i_f3d_flags>
0

> <s_epik_input>
W0NIMl0xW0NIMl1bQ0gyXVtDSDJdW0NIMl1bQ0gyXUMxKFtDSDNdKVtDSDJdW05IXUMoPU8pW0NIMl1jMltjSF1bY0hdbltuSF0y

> <s_epik_cmdline>
J2VwaWtfcHl0aG9uJywgJy1waCcsICc3LjAnLCAnLXRuJywgJzgnLCAnLW1hJywgJzIwMCcsICctbWV0YWxfYmluZGluZycsICctaW1hZScsICc8aW5maWxlLm1hZT4nLCAnLW9tYWUnLCAnPG91dGZpbGUubWFlPic=

> <r_lp_tautomer_probability>
0.5

> <r_epik_Ionization_Penalty>
2.55018e-05

> <r_epik_Ionization_Penalty_Charging>
0

> <r_epik_Ionization_Penalty_Neutral>
2.55018e-05

> <r_epik_State_Penalty>
0.41068

> <r_epik_Charging_Adjusted_Penalty>
0.41068

> <i_epik_Tot_Q>
0

> <i_epik_Tot_abs_Q>
0

> <r_epik_Metal_State_Penalty>
0.410675

> <b_epik_Metal_Only>
0

> <s_lp_Force_Field>
OPLS_2005

> <r_lp_Energy>
19.8643

> <b_lp_Chiralities_Consistent>
1

> <s_lp_Variant>
AV-unprocessed.smi:2493-1

> <Gold.Version>
5.8.1

> <Gold.Id.Protein>
6NUR|6NUR_protein|mol2

> <Gold.PLP.Fitness>
49.9809

> <Gold.PLP.PLP>
-41.3689

> <Gold.PLP.part.hbond>
-1.9645

> <Gold.PLP.part.metal>
0.0000

> <Gold.PLP.part.buried>
-5.6999

> <Gold.PLP.part.nonpolar>
-34.2393

> <Gold.PLP.part.repulsive>
0.3931

> <Gold.PLP.ligand.clash>
0.0000

> <Gold.PLP.ligand.torsion>
0.2019

> <Gold.PLP.Chemscore.Hbond>
2.0000

> <Gold.PLP.Chemscore.CHOScore>
1.0000

> <Gold.PLP.Chemscore.Metal>
0.0000

> <Gold.Chemscore.Hbonds>
donor molecule, donor type, donor heavy atom, donor atom, acceptor molecule, acceptor atom, score
      L1  H     4    25       P1  8028  1.00
      L1  H    12    19       P1  8028  1.00
      L1  C    10    29       P1 10175  1.00

> <Gold.PLP.Chemscore.Internal.Correction>
0.0158

> <Gold.Rescore>
     Score         DG    S(hbond)    S(metal)    S(lipo)     H(rot)  DE(clash)    DE(int)     intcor
     20.96     -22.13       1.96        0.00     122.76       1.66       0.04       1.13       ----

> <Gold.Chemscore.Fitness>
20.9580

> <Gold.Chemscore.DG>
-22.1318

> <Gold.Chemscore.ZeroCoef>
-5.4800

> <Gold.Chemscore.Hbond>
1.9569

> <Gold.Chemscore.Metal>
0.0000

> <Gold.Chemscore.Lipo>
122.7646

> <Gold.Chemscore.Internal_Hbond>
0.0000

> <Gold.Chemscore.DEClash>
0.0399

> <Gold.Chemscore.DEInternal>
1.1339

> <Gold.Chemscore.Rot>
1.6592

> <Gold.Chemscore.Internal.Correction>
   9.000000E+99

> <Gold.Chemscore.Hbonds>
donor molecule, donor type, donor heavy atom, donor atom, acceptor molecule, acceptor atom, score
      L1  H     4    25       P1  8028  0.96
      L1  H    12    19       P1  8028  0.93

> <Gold.Chemscore.Hbond.Weighted>
-6.5359

> <Gold.Chemscore.Metal.Weighted>
-0.0000

> <Gold.Chemscore.Lipo.Weighted>
-14.3635

> <Gold.Chemscore.Internal_Hbond.Weighted>
0.0000

> <Gold.Chemscore.DEClash.Weighted>
0.0399

> <Gold.Chemscore.DEInternal.Weighted>
1.1339

> <Gold.Chemscore.Rot.Weighted>
4.2475

> <Gold.Chemscore.Internal.Correction.Weighted>
   9.000000E+99

> <Gold.Protein.RotatedTorsions>
[ 6907 6896 6895 6894 ] final  154.83 input  -60.11 | X-H torsion
[ 7974 7965 7964 7962 ] final    0.83 input  175.53 | X-H torsion
[ 8008 7997 7996 7995 ] final   36.38 input   59.86 | X-H torsion
[ 10167 10162 10161 10158 ] final   74.16 input  -65.29 | X-H torsion
[ 10718 10713 10712 10709 ] final   54.05 input   66.30 | X-H torsion
[ 10763 10752 10751 10750 ] final  -11.44 input  -60.55 | X-H torsion
[ 11005 11000 10999 10996 ] final -111.53 input  -57.11 | X-H torsion

> <Gold.Protein.ActiveResidues>
 VAL166  LYS551  ARG553  GLY616  TRP617  ASP618  TYR619  PRO620  LYS621  CYS622 
 ASP623  PHE694  ASN695  SER759  ASP760  ASP761  ALA762  ILE779  LEU786  VAL792 
 PHE793  MET794  SER795  GLU796  ALA797  LYS798  CYS799  TRP800  GLU811  SER814 

> <Gold.Protein.RotatedAtoms>
  152.0529  133.4027  159.4384 H   0  0  0  0  0  0  0  0  0  0  0  0  # atno 6907 bound_to 6896
  150.6869  134.3288  159.4827 H   0  0  0  0  0  0  0  0  0  0  0  0  # atno 6908 bound_to 6896
  152.1100  134.9281  160.0617 H   0  0  0  0  0  0  0  0  0  0  0  0  # atno 6909 bound_to 6896
  146.2437  140.1078  142.8345 H   0  0  0  0  0  0  0  0  0  0  0  0  # atno 7974 bound_to 7965
  155.1865  140.3304  155.4366 H   0  0  0  0  0  0  0  0  0  0  0  0  # atno 8008 bound_to 7997
  156.2458  140.1918  156.6910 H   0  0  0  0  0  0  0  0  0  0  0  0  # atno 8009 bound_to 7997
  154.6235  140.0592  156.9630 H   0  0  0  0  0  0  0  0  0  0  0  0  # atno 8010 bound_to 7997
  140.0167  144.5572  150.7615 H   0  0  0  0  0  0  0  0  0  0  0  0  # atno 10167 bound_to 10162
  157.5222  130.8572  149.8573 H   0  0  0  0  0  0  0  0  0  0  0  0  # atno 10718 bound_to 10713
  153.4838  135.7017  153.5923 H   0  0  0  0  0  0  0  0  0  0  0  0  # atno 10763 bound_to 10752
  153.4124  135.3845  155.2059 H   0  0  0  0  0  0  0  0  0  0  0  0  # atno 10764 bound_to 10752
  154.8720  135.3908  154.4291 H   0  0  0  0  0  0  0  0  0  0  0  0  # atno 10765 bound_to 10752
  141.0729  133.9350  157.2449 H   0  0  0  0  0  0  0  0  0  0  0  0  # atno 11005 bound_to 11000
  145.0513  140.9020  143.4994 LP  0  0  0  0  0  0  0  0  0  0  0  0  # atno 17320 bound_to 7965
  145.1176  139.2715  143.5605 LP  0  0  0  0  0  0  0  0  0  0  0  0  # atno 17321 bound_to 7965
  140.7359  143.2747  151.3779 LP  0  0  0  0  0  0  0  0  0  0  0  0  # atno 17342 bound_to 10162
  139.6168  144.0987  152.2353 LP  0  0  0  0  0  0  0  0  0  0  0  0  # atno 17343 bound_to 10162
  156.0361  130.3751  150.1556 LP  0  0  0  0  0  0  0  0  0  0  0  0  # atno 17370 bound_to 10713
  156.9744  130.9844  151.3451 LP  0  0  0  0  0  0  0  0  0  0  0  0  # atno 17371 bound_to 10713
  139.9541  135.0169  156.9079 LP  0  0  0  0  0  0  0  0  0  0  0  0  # atno 17394 bound_to 11000
  140.5636  134.0511  155.7407 LP  0  0  0  0  0  0  0  0  0  0  0  0  # atno 17395 bound_to 11000

$$$$
