AV-unprocessed.smi:2591|AV-procd|sdf|10156|dock5
  -GOLD-   2272014163D 1   1.00000     0.00000
 Structure written by MMmdl.
 35 36  0  0  0  0  0  0  0  0  2 V2000
  145.8246  142.5093  154.0718 C   0  0  0  0  0  0  0  0  0  0  0  0
  147.0114  141.6410  153.9181 N   0  3  2  0  0  0  0  0  0  0  0  0
  146.6774  140.2003  153.9775 C   0  0  0  0  0  0  0  0  0  0  0  0
  147.9421  139.3530  153.7654 C   0  0  0  0  0  0  0  0  0  0  0  0
  148.9194  139.7016  154.7384 O   0  0  0  0  0  0  0  0  0  0  0  0
  149.3213  141.0667  154.6465 C   0  0  2  0  0  0  0  0  0  0  0  0
  150.4462  141.3044  155.6638 C   0  0  0  0  0  0  0  0  0  0  0  0
  151.3643  140.4907  155.7749 O   0  0  0  0  0  0  0  0  0  0  0  0
  150.3285  142.4241  156.4029 N   0  0  0  0  0  0  0  0  0  0  0  0
  151.2026  142.9108  157.4108 C   0  0  0  0  0  0  0  0  0  0  0  0
  151.8374  141.9135  158.1841 C   0  0  0  0  0  0  0  0  0  0  0  0
  152.7265  142.2877  159.2150 C   0  0  0  0  0  0  0  0  0  0  0  0
  153.4375  141.2367  160.0537 C   0  0  0  0  0  0  0  0  0  0  0  0
  153.2151  141.4371  161.3531 F   0  0  0  0  0  0  0  0  0  0  0  0
  153.0136  140.0118  159.7405 F   0  0  0  0  0  0  0  0  0  0  0  0
  154.7483  141.3085  159.8257 F   0  0  0  0  0  0  0  0  0  0  0  0
  152.9554  143.6613  159.4332 C   0  0  0  0  0  0  0  0  0  0  0  0
  152.2809  144.5890  158.6191 C   0  0  0  0  0  0  0  0  0  0  0  0
  151.4290  144.2281  157.6374 N   0  0  0  0  0  0  0  0  0  0  0  0
  148.0888  141.9726  154.8782 C   0  0  0  0  0  0  0  0  0  0  0  0
  145.3704  142.3821  155.0553 H   0  0  0  0  0  0  0  0  0  0  0  0
  145.0753  142.2744  153.3154 H   0  0  0  0  0  0  0  0  0  0  0  0
  146.0987  143.5584  153.9548 H   0  0  0  0  0  0  0  0  0  0  0  0
  146.2291  139.9668  154.9446 H   0  0  0  0  0  0  0  0  0  0  0  0
  145.9369  139.9605  153.2133 H   0  0  0  0  0  0  0  0  0  0  0  0
  147.7059  138.2937  153.8674 H   0  0  0  0  0  0  0  0  0  0  0  0
  148.3439  139.4945  152.7609 H   0  0  0  0  0  0  0  0  0  0  0  0
  149.7323  141.2539  153.6525 H   0  0  0  0  0  0  0  0  0  0  0  0
  149.5169  142.9960  156.2202 H   0  0  0  0  0  0  0  0  0  0  0  0
  151.6486  140.8683  157.9856 H   0  0  0  0  0  0  0  0  0  0  0  0
  153.6327  144.0007  160.2028 H   0  0  0  0  0  0  0  0  0  0  0  0
  152.4305  145.6495  158.7578 H   0  0  0  0  0  0  0  0  0  0  0  0
  148.3651  143.0214  154.7585 H   0  0  0  0  0  0  0  0  0  0  0  0
  147.7118  141.8524  155.8960 H   0  0  0  0  0  0  0  0  0  0  0  0
  147.3805  141.8158  152.9941 H   0  0  0  0  0  0  0  0  0  0  0  0
  1  2  1  0  0  0  0
  1 21  1  0  0  0  0
  1 22  1  0  0  0  0
  1 23  1  0  0  0  0
  2 20  1  0  0  0  0
  2  3  1  0  0  0  0
  2 35  1  0  0  0  0
  3  4  1  0  0  0  0
  3 24  1  0  0  0  0
  3 25  1  0  0  0  0
  4  5  1  0  0  0  0
  4 26  1  0  0  0  0
  4 27  1  0  0  0  0
  5  6  1  0  0  0  0
  6  7  1  0  0  0  0
  6 20  1  0  0  0  0
  6 28  1  0  0  0  0
  7  8  2  0  0  0  0
  7  9  1  0  0  0  0
  9 10  1  0  0  0  0
  9 29  1  0  0  0  0
 10 19  1  0  0  0  0
 10 11  2  0  0  0  0
 11 12  1  0  0  0  0
 11 30  1  0  0  0  0
 12 13  1  0  0  0  0
 12 17  2  0  0  0  0
 13 14  1  0  0  0  0
 13 15  1  0  0  0  0
 13 16  1  0  0  0  0
 17 18  1  0  0  0  0
 17 31  1  0  0  0  0
 18 19  2  0  0  0  0
 18 32  1  0  0  0  0
 20 33  1  0  0  0  0
 20 34  1  0  0  0  0
M  CHG  1   2   1
M  END
> <s_m_source_file>
AV-unprocessed.smi

> <i_m_source_file_index>
2591

> <i_lp_mmshare_version>
43012

> <i_f3d_flags>
0

> <s_epik_input>
W0NIM11OMVtDSDJdW0NIMl1PW0NASF0oW0NIMl0xKUMoPU8pW05IXWMyW2NIXWMoQyhGKShGKUYpW2NIXVtjSF1uMg==

> <s_epik_cmdline>
J2VwaWtfcHl0aG9uJywgJy1waCcsICc3LjAnLCAnLXRuJywgJzgnLCAnLW1hJywgJzIwMCcsICctbWV0YWxfYmluZGluZycsICctaW1hZScsICc8aW5maWxlLm1hZT4nLCAnLW9tYWUnLCAnPG91dGZpbGUubWFlPic=

> <r_epik_Ionization_Penalty>
0.314028

> <r_epik_Ionization_Penalty_Charging>
0.314023

> <r_epik_Ionization_Penalty_Neutral>
5.2303e-06

> <r_epik_State_Penalty>
0.308208

> <r_epik_Charging_Adjusted_Penalty>
0.62223

> <i_epik_Tot_Q>
1

> <i_epik_Tot_abs_Q>
1

> <r_epik_Metal_State_Penalty>
0.308209

> <b_epik_Metal_Only>
0

> <s_lp_Force_Field>
OPLS_2005

> <r_lp_Energy>
17.9232

> <b_lp_Chiralities_Consistent>
1

> <s_lp_Variant>
AV-unprocessed.smi:2591-4

> <Gold.Version>
5.8.1

> <Gold.Id.Protein>
6NUR|6NUR_protein|mol2

> <Gold.PLP.Fitness>
46.6475

> <Gold.PLP.PLP>
-45.0091

> <Gold.PLP.part.hbond>
-1.4471

> <Gold.PLP.part.metal>
0.0000

> <Gold.PLP.part.buried>
-2.8090

> <Gold.PLP.part.nonpolar>
-39.0519

> <Gold.PLP.part.repulsive>
0.4424

> <Gold.PLP.ligand.clash>
1.0480

> <Gold.PLP.ligand.torsion>
0.6612

> <Gold.PLP.Chemscore.Hbond>
1.0000

> <Gold.PLP.Chemscore.CHOScore>
0.0000

> <Gold.PLP.Chemscore.Metal>
0.0000

> <Gold.Chemscore.Hbonds>
donor molecule, donor type, donor heavy atom, donor atom, acceptor molecule, acceptor atom, score
      L1  H     9    29       P1  8028  0.91
      P1  H  7989  7998       L1     8  0.05

> <Gold.PLP.Chemscore.Internal.Correction>
1.0088

> <Gold.Rescore>
     Score         DG    S(hbond)    S(metal)    S(lipo)     H(rot)  DE(clash)    DE(int)     intcor
     14.60     -16.39       0.91        0.00      89.25       1.00       0.04       1.74       ----

> <Gold.Chemscore.Fitness>
14.6027

> <Gold.Chemscore.DG>
-16.3885

> <Gold.Chemscore.ZeroCoef>
-5.4800

> <Gold.Chemscore.Hbond>
0.9061

> <Gold.Chemscore.Metal>
0.0000

> <Gold.Chemscore.Lipo>
89.2476

> <Gold.Chemscore.Internal_Hbond>
0.0000

> <Gold.Chemscore.DEClash>
0.0449

> <Gold.Chemscore.DEInternal>
1.7409

> <Gold.Chemscore.Rot>
1.0000

> <Gold.Chemscore.Internal.Correction>
   9.000000E+99

> <Gold.Chemscore.Hbonds>
donor molecule, donor type, donor heavy atom, donor atom, acceptor molecule, acceptor atom, score
      L1  H     9    29       P1  8028  0.89

> <Gold.Chemscore.Hbond.Weighted>
-3.0265

> <Gold.Chemscore.Metal.Weighted>
-0.0000

> <Gold.Chemscore.Lipo.Weighted>
-10.4420

> <Gold.Chemscore.Internal_Hbond.Weighted>
0.0000

> <Gold.Chemscore.DEClash.Weighted>
0.0449

> <Gold.Chemscore.DEInternal.Weighted>
1.7409

> <Gold.Chemscore.Rot.Weighted>
2.5600

> <Gold.Chemscore.Internal.Correction.Weighted>
   9.000000E+99

> <Gold.Protein.RotatedTorsions>
[ 6907 6896 6895 6894 ] final -116.46 input  -60.11 | X-H torsion
[ 7974 7965 7964 7962 ] final  -32.35 input  175.53 | X-H torsion
[ 8008 7997 7996 7995 ] final -154.73 input   59.86 | X-H torsion
[ 10167 10162 10161 10158 ] final  -94.18 input  -65.29 | X-H torsion
[ 10718 10713 10712 10709 ] final  173.26 input   66.30 | X-H torsion
[ 10763 10752 10751 10750 ] final  -63.74 input  -60.55 | X-H torsion
[ 11005 11000 10999 10996 ] final  -88.85 input  -57.11 | X-H torsion

> <Gold.Protein.ActiveResidues>
 VAL166  LYS551  ARG553  GLY616  TRP617  ASP618  TYR619  PRO620  LYS621  CYS622 
 ASP623  PHE694  ASN695  SER759  ASP760  ASP761  ALA762  ILE779  LEU786  VAL792 
 PHE793  MET794  SER795  GLU796  ALA797  LYS798  CYS799  TRP800  GLU811  SER814 

> <Gold.Protein.RotatedAtoms>
  150.8058  133.8514  159.3206 H   0  0  0  0  0  0  0  0  0  0  0  0  # atno 6907 bound_to 6896
  151.6314  135.1021  160.0132 H   0  0  0  0  0  0  0  0  0  0  0  0  # atno 6908 bound_to 6896
  152.4148  133.6980  159.6464 H   0  0  0  0  0  0  0  0  0  0  0  0  # atno 6909 bound_to 6896
  146.0996  140.5782  142.8827 H   0  0  0  0  0  0  0  0  0  0  0  0  # atno 7974 bound_to 7965
  155.6909  140.0755  157.2448 H   0  0  0  0  0  0  0  0  0  0  0  0  # atno 8008 bound_to 7997
  154.4089  140.1665  156.2137 H   0  0  0  0  0  0  0  0  0  0  0  0  # atno 8009 bound_to 7997
  155.9453  140.3381  155.6364 H   0  0  0  0  0  0  0  0  0  0  0  0  # atno 8010 bound_to 7997
  140.3171  143.3071  152.0086 H   0  0  0  0  0  0  0  0  0  0  0  0  # atno 10167 bound_to 10162
  156.9668  131.0078  151.2914 H   0  0  0  0  0  0  0  0  0  0  0  0  # atno 10718 bound_to 10713
  154.3196  135.6199  153.5501 H   0  0  0  0  0  0  0  0  0  0  0  0  # atno 10763 bound_to 10752
  152.9821  135.5720  154.5085 H   0  0  0  0  0  0  0  0  0  0  0  0  # atno 10764 bound_to 10752
  154.4751  135.2861  155.1590 H   0  0  0  0  0  0  0  0  0  0  0  0  # atno 10765 bound_to 10752
  141.1595  133.7594  156.9510 H   0  0  0  0  0  0  0  0  0  0  0  0  # atno 11005 bound_to 11000
  144.7422  140.4974  143.6861 LP  0  0  0  0  0  0  0  0  0  0  0  0  # atno 17320 bound_to 7965
  145.5880  139.1493  143.3198 LP  0  0  0  0  0  0  0  0  0  0  0  0  # atno 17321 bound_to 7965
  139.4882  144.6340  151.7013 LP  0  0  0  0  0  0  0  0  0  0  0  0  # atno 17342 bound_to 10162
  140.5517  144.0415  150.6130 LP  0  0  0  0  0  0  0  0  0  0  0  0  # atno 17343 bound_to 10162
  157.5620  130.8252  149.8278 LP  0  0  0  0  0  0  0  0  0  0  0  0  # atno 17370 bound_to 10713
  156.0299  130.3768  150.1717 LP  0  0  0  0  0  0  0  0  0  0  0  0  # atno 17371 bound_to 10713
  140.1257  134.9388  157.2266 LP  0  0  0  0  0  0  0  0  0  0  0  0  # atno 17394 bound_to 11000
  140.3016  134.3125  155.7288 LP  0  0  0  0  0  0  0  0  0  0  0  0  # atno 17395 bound_to 11000

$$$$
