AV-unprocessed.smi:1|AV-procd|sdf|12|dock4
  -GOLD-   2262015103D 1   1.00000     0.00000
 Structure written by MMmdl.
 57 62  0  0  0  0  0  0  0  0  1 V2000
  150.5796  142.4536  155.8123 O   0  0  0  0  0  0  0  0  0  0  0  0
  150.8684  141.9628  156.9071 C   0  0  0  0  0  0  0  0  0  0  0  0
  150.7571  140.6435  157.3266 N   0  0  0  0  0  0  0  0  0  0  0  0
  150.4968  139.7056  156.4668 C   0  0  0  0  0  0  0  0  0  0  0  0
  150.2798  139.7245  155.0834 N   0  0  0  0  0  0  0  0  0  0  0  0
  150.0101  138.6080  154.2780 C   0  0  0  0  0  0  0  0  0  0  0  0
  149.9226  137.3791  154.7112 N   0  0  0  0  0  0  0  0  0  0  0  0
  150.1259  137.3006  156.0816 C   0  0  0  0  0  0  0  0  0  0  0  0
  150.3947  138.3189  156.9720 C   0  0  0  0  0  0  0  0  0  0  0  0
  150.5279  137.8251  158.2646 N   0  0  0  0  0  0  0  0  0  0  0  0
  150.3324  136.5203  158.0980 C   0  0  0  0  0  0  0  0  0  0  0  0
  150.0944  136.1254  156.8332 N   0  0  0  0  0  0  0  0  0  0  0  0
  149.8328  134.7181  156.3937 C   0  0  1  0  0  0  0  0  0  0  0  0
  148.5059  134.6076  155.9703 O   0  0  0  0  0  0  0  0  0  0  0  0
  148.4422  134.2584  154.5897 C   0  0  2  0  0  0  0  0  0  0  0  0
  147.1999  133.4106  154.2930 C   0  0  0  0  0  0  0  0  0  0  0  0
  146.8692  133.5428  152.9207 O   0  0  0  0  0  0  0  0  0  0  0  0
  145.5929  133.7621  152.5518 C   0  0  0  0  0  0  0  0  0  0  0  0
  144.7759  134.3677  153.2483 O   0  0  0  0  0  0  0  0  0  0  0  0
  145.2724  133.1958  151.2097 C   0  0  0  0  0  0  0  0  0  0  0  0
  143.9239  133.1364  150.7867 C   0  0  0  0  0  0  0  0  0  0  0  0
  143.5909  132.6115  149.5229 C   0  0  0  0  0  0  0  0  0  0  0  0
  144.6025  132.1393  148.6665 C   0  0  0  0  0  0  0  0  0  0  0  0
  145.9476  132.1922  149.0758 C   0  0  0  0  0  0  0  0  0  0  0  0
  146.2827  132.7166  150.3395 C   0  0  0  0  0  0  0  0  0  0  0  0
  149.7703  133.5537  154.3190 C   0  0  2  0  0  0  0  0  0  0  0  0
  149.7292  132.1975  154.7317 O   0  0  0  0  0  0  0  0  0  0  0  0
  151.1577  131.8439  155.5216 S   0  0  0  0  0  0  0  0  0  0  0  0
  150.8294  131.3462  156.8662 O   0  0  0  0  0  0  0  0  0  0  0  0
  152.0289  131.1065  154.5940 O   0  0  0  0  0  0  0  0  0  0  0  0
  151.7477  133.4016  155.6660 O   0  0  0  0  0  0  0  0  0  0  0  0
  150.7459  134.3041  155.2300 C   0  0  2  0  0  0  0  0  0  0  0  0
  151.3902  142.8771  157.9671 C   0  0  0  0  0  0  0  0  0  0  0  0
  151.9746  142.3447  159.1359 C   0  0  0  0  0  0  0  0  0  0  0  0
  152.4717  143.2072  160.1325 C   0  0  0  0  0  0  0  0  0  0  0  0
  152.3882  144.6028  159.9628 C   0  0  0  0  0  0  0  0  0  0  0  0
  151.8079  145.1367  158.7960 C   0  0  0  0  0  0  0  0  0  0  0  0
  151.3102  144.2756  157.7984 C   0  0  0  0  0  0  0  0  0  0  0  0
  149.8729  138.8451  153.2221 H   0  0  0  0  0  0  0  0  0  0  0  0
  150.3646  135.8275  158.9261 H   0  0  0  0  0  0  0  0  0  0  0  0
  149.9730  134.1109  157.2893 H   0  0  0  0  0  0  0  0  0  0  0  0
  148.4091  135.1708  153.9951 H   0  0  0  0  0  0  0  0  0  0  0  0
  147.4067  132.3615  154.5097 H   0  0  0  0  0  0  0  0  0  0  0  0
  146.3630  133.7200  154.9208 H   0  0  0  0  0  0  0  0  0  0  0  0
  143.1300  133.4940  151.4265 H   0  0  0  0  0  0  0  0  0  0  0  0
  142.5578  132.5723  149.2106 H   0  0  0  0  0  0  0  0  0  0  0  0
  144.3465  131.7382  147.6970 H   0  0  0  0  0  0  0  0  0  0  0  0
  146.7252  131.8308  148.4190 H   0  0  0  0  0  0  0  0  0  0  0  0
  147.3251  132.7435  150.6217 H   0  0  0  0  0  0  0  0  0  0  0  0
  150.0606  133.5984  153.2687 H   0  0  0  0  0  0  0  0  0  0  0  0
  151.1710  135.1746  154.7302 H   0  0  0  0  0  0  0  0  0  0  0  0
  152.0433  141.2752  159.2727 H   0  0  0  0  0  0  0  0  0  0  0  0
  152.9178  142.7983  161.0271 H   0  0  0  0  0  0  0  0  0  0  0  0
  152.7698  145.2632  160.7273 H   0  0  0  0  0  0  0  0  0  0  0  0
  151.7447  146.2069  158.6657 H   0  0  0  0  0  0  0  0  0  0  0  0
  150.8681  144.6925  156.9050 H   0  0  0  0  0  0  0  0  0  0  0  0
  150.3226  140.6242  154.6262 H   0  0  0  0  0  0  0  0  0  0  0  0
  1  2  2  0  0  0  0
  2  3  1  0  0  0  0
  2 33  1  0  0  0  0
  3  4  2  0  0  0  0
  4  9  1  0  0  0  0
  4  5  1  0  0  0  0
  5  6  1  0  0  0  0
  5 57  1  0  0  0  0
  6  7  2  0  0  0  0
  6 39  1  0  0  0  0
  7  8  1  0  0  0  0
  8 12  1  0  0  0  0
  8  9  2  0  0  0  0
  9 10  1  0  0  0  0
 10 11  2  0  0  0  0
 11 12  1  0  0  0  0
 11 40  1  0  0  0  0
 12 13  1  0  0  0  0
 13 32  1  0  0  0  0
 13 14  1  0  0  0  0
 13 41  1  0  0  0  0
 14 15  1  0  0  0  0
 15 16  1  0  0  0  0
 15 26  1  0  0  0  0
 15 42  1  0  0  0  0
 16 17  1  0  0  0  0
 16 43  1  0  0  0  0
 16 44  1  0  0  0  0
 17 18  1  0  0  0  0
 18 19  2  0  0  0  0
 18 20  1  0  0  0  0
 20 25  1  0  0  0  0
 20 21  2  0  0  0  0
 21 22  1  0  0  0  0
 21 45  1  0  0  0  0
 22 23  2  0  0  0  0
 22 46  1  0  0  0  0
 23 24  1  0  0  0  0
 23 47  1  0  0  0  0
 24 25  2  0  0  0  0
 24 48  1  0  0  0  0
 25 49  1  0  0  0  0
 26 32  1  0  0  0  0
 26 27  1  0  0  0  0
 26 50  1  0  0  0  0
 27 28  1  0  0  0  0
 28 29  2  0  0  0  0
 28 30  2  0  0  0  0
 28 31  1  0  0  0  0
 31 32  1  0  0  0  0
 32 51  1  0  0  0  0
 33 38  1  0  0  0  0
 33 34  2  0  0  0  0
 34 35  1  0  0  0  0
 34 52  1  0  0  0  0
 35 36  2  0  0  0  0
 35 53  1  0  0  0  0
 36 37  1  0  0  0  0
 36 54  1  0  0  0  0
 37 38  2  0  0  0  0
 37 55  1  0  0  0  0
 38 56  1  0  0  0  0
M  END
> <s_m_source_file>
AV-unprocessed.smi

> <i_m_source_file_index>
1

> <i_lp_mmshare_version>
43012

> <i_f3d_flags>
0

> <s_epik_input>
W2NIXTFbY0hdW2NIXVtjSF1bY0hdYzFDKD1PKVtOSF1jKG5bY0hdbjIpYyhjMjMpbltjSF1uM1tDQEBIXShbQ0BIXShbQ0BIXTQ1KU9TKE81KSg9Tyk9TylPW0NASF00W0NIMl1PQyg9TyljNltjSF1bY0hdW2NIXVtjSF1bY0hdNg==

> <s_epik_cmdline>
J2VwaWtfcHl0aG9uJywgJy1waCcsICc3LjAnLCAnLXRuJywgJzgnLCAnLW1hJywgJzIwMCcsICctbWV0YWxfYmluZGluZycsICctaW1hZScsICc8aW5maWxlLm1hZT4nLCAnLW9tYWUnLCAnPG91dGZpbGUubWFlPic=

> <r_epik_Ionization_Penalty>
0.122545

> <r_epik_Ionization_Penalty_Charging>
0.122545

> <r_epik_Ionization_Penalty_Neutral>
7.8935e-16

> <r_epik_State_Penalty>
2.69178

> <r_epik_Charging_Adjusted_Penalty>
2.81433

> <i_epik_Tot_Q>
0

> <i_epik_Tot_abs_Q>
0

> <r_epik_Metal_State_Penalty>
3.02665

> <b_epik_Metal_Only>
0

> <s_epik_Chemistry_Notes>
This compound has an ester and may undergo hydrolysis at high or low pH. This compound contains an acetal/aminal-like group ( X-CH(R)-Y where X, Y are N, S, or O) that may be acid/base labile, releasing an aldehyde.

> <s_lp_Force_Field>
OPLS_2005

> <r_lp_Energy>
62.4663

> <b_lp_Chiralities_Consistent>
1

> <s_lp_Variant>
AV-unprocessed.smi:1-12

> <Gold.Version>
5.8.1

> <Gold.Id.Protein>
6NUR|6NUR_protein|mol2

> <Gold.PLP.Fitness>
52.2787

> <Gold.PLP.PLP>
-51.9982

> <Gold.PLP.part.hbond>
-0.3944

> <Gold.PLP.part.metal>
0.0000

> <Gold.PLP.part.buried>
-1.7153

> <Gold.PLP.part.nonpolar>
-49.0066

> <Gold.PLP.part.repulsive>
0.7950

> <Gold.PLP.ligand.clash>
0.0000

> <Gold.PLP.ligand.torsion>
1.2420

> <Gold.PLP.Chemscore.Hbond>
0.0000

> <Gold.PLP.Chemscore.CHOScore>
0.8152

> <Gold.PLP.Chemscore.Metal>
0.0000

> <Gold.Chemscore.Hbonds>
donor molecule, donor type, donor heavy atom, donor atom, acceptor molecule, acceptor atom, score
      L1  C     6    39       P1  7957  1.00

> <Gold.PLP.Chemscore.Internal.Correction>
0.3187

> <Gold.Rescore>
     Score         DG    S(hbond)    S(metal)    S(lipo)     H(rot)  DE(clash)    DE(int)     intcor
     15.27     -16.91       0.00        0.00     144.35       2.13       0.28       1.36       ----

> <Gold.Chemscore.Fitness>
15.2708

> <Gold.Chemscore.DG>
-16.9071

> <Gold.Chemscore.ZeroCoef>
-5.4800

> <Gold.Chemscore.Hbond>
0.0000

> <Gold.Chemscore.Metal>
0.0000

> <Gold.Chemscore.Lipo>
144.3461

> <Gold.Chemscore.Internal_Hbond>
0.0000

> <Gold.Chemscore.DEClash>
0.2764

> <Gold.Chemscore.DEInternal>
1.3599

> <Gold.Chemscore.Rot>
2.1333

> <Gold.Chemscore.Internal.Correction>
   9.000000E+99

> <Gold.Chemscore.Hbond.Weighted>
-0.0000

> <Gold.Chemscore.Metal.Weighted>
-0.0000

> <Gold.Chemscore.Lipo.Weighted>
-16.8885

> <Gold.Chemscore.Internal_Hbond.Weighted>
0.0000

> <Gold.Chemscore.DEClash.Weighted>
0.2764

> <Gold.Chemscore.DEInternal.Weighted>
1.3599

> <Gold.Chemscore.Rot.Weighted>
5.4614

> <Gold.Chemscore.Internal.Correction.Weighted>
   9.000000E+99

> <Gold.Protein.RotatedTorsions>
[ 6907 6896 6895 6894 ] final  -25.63 input  -60.11 | X-H torsion
[ 7974 7965 7964 7962 ] final   84.32 input  175.53 | X-H torsion
[ 8008 7997 7996 7995 ] final  -46.83 input   59.86 | X-H torsion
[ 10167 10162 10161 10158 ] final  173.67 input  -65.29 | X-H torsion
[ 10718 10713 10712 10709 ] final   56.77 input   66.30 | X-H torsion
[ 10763 10752 10751 10750 ] final  168.31 input  -60.55 | X-H torsion
[ 11005 11000 10999 10996 ] final -167.96 input  -57.11 | X-H torsion

> <Gold.Protein.ActiveResidues>
 VAL166  LYS551  ARG553  GLY616  TRP617  ASP618  TYR619  PRO620  LYS621  CYS622 
 ASP623  PHE694  ASN695  SER759  ASP760  ASP761  ALA762  ILE779  LEU786  VAL792 
 PHE793  MET794  SER795  GLU796  ALA797  LYS798  CYS799  TRP800  GLU811  SER814 

> <Gold.Protein.RotatedAtoms>
  151.1725  135.0324  159.8757 H   0  0  0  0  0  0  0  0  0  0  0  0  # atno 6907 bound_to 6896
  152.5448  134.1154  159.8386 H   0  0  0  0  0  0  0  0  0  0  0  0  # atno 6908 bound_to 6896
  151.1262  133.5022  159.2633 H   0  0  0  0  0  0  0  0  0  0  0  0  # atno 6909 bound_to 6896
  145.6003  139.2351  143.2250 H   0  0  0  0  0  0  0  0  0  0  0  0  # atno 7974 bound_to 7965
  154.4011  140.1361  156.4075 H   0  0  0  0  0  0  0  0  0  0  0  0  # atno 8008 bound_to 7997
  155.7765  140.3482  155.5254 H   0  0  0  0  0  0  0  0  0  0  0  0  # atno 8009 bound_to 7997
  155.8716  140.0972  157.1537 H   0  0  0  0  0  0  0  0  0  0  0  0  # atno 8010 bound_to 7997
  139.5116  144.3234  152.0180 H   0  0  0  0  0  0  0  0  0  0  0  0  # atno 10167 bound_to 10162
  157.5459  130.8730  149.8890 H   0  0  0  0  0  0  0  0  0  0  0  0  # atno 10718 bound_to 10713
  154.3668  135.2753  155.2289 H   0  0  0  0  0  0  0  0  0  0  0  0  # atno 10763 bound_to 10752
  154.4454  135.5944  153.6160 H   0  0  0  0  0  0  0  0  0  0  0  0  # atno 10764 bound_to 10752
  152.9840  135.6029  154.3894 H   0  0  0  0  0  0  0  0  0  0  0  0  # atno 10765 bound_to 10752
  140.5474  134.5462  157.5114 H   0  0  0  0  0  0  0  0  0  0  0  0  # atno 11005 bound_to 11000
  146.1581  140.6828  142.9290 LP  0  0  0  0  0  0  0  0  0  0  0  0  # atno 17320 bound_to 7965
  144.7313  140.4679  143.6936 LP  0  0  0  0  0  0  0  0  0  0  0  0  # atno 17321 bound_to 7965
  140.2675  144.4000  150.6163 LP  0  0  0  0  0  0  0  0  0  0  0  0  # atno 17342 bound_to 10162
  140.6112  143.2169  151.6882 LP  0  0  0  0  0  0  0  0  0  0  0  0  # atno 17343 bound_to 10162
  156.0535  130.3713  150.1146 LP  0  0  0  0  0  0  0  0  0  0  0  0  # atno 17370 bound_to 10713
  156.9322  130.9717  151.3531 LP  0  0  0  0  0  0  0  0  0  0  0  0  # atno 17371 bound_to 10713
  139.9473  134.7680  156.0532 LP  0  0  0  0  0  0  0  0  0  0  0  0  # atno 17394 bound_to 11000
  141.1192  133.6618  156.3171 LP  0  0  0  0  0  0  0  0  0  0  0  0  # atno 17395 bound_to 11000

$$$$
