AV-unprocessed.smi:35|AV-procd|sdf|261|dock6
  -GOLD-   2262016 23D 1   1.00000     0.00000
 Structure written by MMmdl.
 29 30  0  0  0  0  0  0  0  0  1 V2000
  140.5174  135.1669  153.8801 O   0  0  0  0  0  0  0  0  0  0  0  0
  141.6919  135.4750  153.6892 C   0  0  0  0  0  0  0  0  0  0  0  0
  142.6964  134.5055  153.7608 N   0  0  0  0  0  0  0  0  0  0  0  0
  144.0598  134.7328  153.5612 C   0  0  0  0  0  0  0  0  0  0  0  0
  144.8548  133.7967  153.6320 O   0  0  0  0  0  0  0  0  0  0  0  0
  144.4566  136.0575  153.2698 N   0  0  0  0  0  0  0  0  0  0  0  0
  145.9201  136.3649  153.0317 C   0  0  2  0  0  0  0  0  0  0  0  0
  146.3090  137.3769  153.9107 O   0  0  0  0  0  0  0  0  0  0  0  0
  147.1597  138.2961  153.2339 C   0  0  2  0  0  0  0  0  0  0  0  0
  147.1919  139.6577  153.9503 C   0  0  0  0  0  0  0  0  0  0  0  0
  147.9197  140.5933  153.1835 O   0  0  0  0  0  0  0  0  0  0  0  0
  146.5975  138.3133  151.8056 C   0  0  2  0  0  0  0  0  0  0  0  0
  145.4914  139.1956  151.7040 O   0  0  0  0  0  0  0  0  0  0  0  0
  146.2053  136.8542  151.5948 C   0  0  2  0  0  0  0  0  0  0  0  0
  145.1489  136.6889  150.6636 O   0  0  0  0  0  0  0  0  0  0  0  0
  143.4930  137.0533  153.1822 C   0  0  0  0  0  0  0  0  0  0  0  0
  142.1746  136.8153  153.3756 C   0  0  0  0  0  0  0  0  0  0  0  0
  140.9605  138.3710  153.2033 Br  0  0  0  0  0  0  0  0  0  0  0  0
  142.4111  133.5600  153.9704 H   0  0  0  0  0  0  0  0  0  0  0  0
  146.4823  135.4657  153.2895 H   0  0  0  0  0  0  0  0  0  0  0  0
  148.1638  137.8686  153.1948 H   0  0  0  0  0  0  0  0  0  0  0  0
  146.1797  140.0470  154.0628 H   0  0  0  0  0  0  0  0  0  0  0  0
  147.6206  139.5718  154.9492 H   0  0  0  0  0  0  0  0  0  0  0  0
  148.4420  140.1225  152.5521 H   0  0  0  0  0  0  0  0  0  0  0  0
  147.3494  138.6328  151.0835 H   0  0  0  0  0  0  0  0  0  0  0  0
  144.9138  138.8725  151.0293 H   0  0  0  0  0  0  0  0  0  0  0  0
  147.0737  136.3021  151.2331 H   0  0  0  0  0  0  0  0  0  0  0  0
  144.7780  137.5398  150.4850 H   0  0  0  0  0  0  0  0  0  0  0  0
  143.7953  138.0632  152.9479 H   0  0  0  0  0  0  0  0  0  0  0  0
  1  2  2  0  0  0  0
  2 17  1  0  0  0  0
  2  3  1  0  0  0  0
  3 19  1  0  0  0  0
  3  4  1  0  0  0  0
  4  5  2  0  0  0  0
  4  6  1  0  0  0  0
  6  7  1  0  0  0  0
  6 16  1  0  0  0  0
  7 14  1  0  0  0  0
  7  8  1  0  0  0  0
  7 20  1  0  0  0  0
  8  9  1  0  0  0  0
  9 10  1  0  0  0  0
  9 12  1  0  0  0  0
  9 21  1  0  0  0  0
 10 11  1  0  0  0  0
 10 22  1  0  0  0  0
 10 23  1  0  0  0  0
 11 24  1  0  0  0  0
 12 13  1  0  0  0  0
 12 14  1  0  0  0  0
 12 25  1  0  0  0  0
 13 26  1  0  0  0  0
 14 15  1  0  0  0  0
 14 27  1  0  0  0  0
 15 28  1  0  0  0  0
 16 17  2  0  0  0  0
 16 29  1  0  0  0  0
 17 18  1  0  0  0  0
M  END
> <s_m_source_file>
AV-unprocessed.smi

> <i_m_source_file_index>
35

> <i_lp_mmshare_version>
43012

> <i_f3d_flags>
0

> <s_epik_input>
Tz1jMVtuSF1jKD1PKW4oW2NIXWMxQnIpW0NAQEhdMk9bQ0BASF0oW0NIMl1bT0hdKVtDQEBIXShbT0hdKVtDQEhdMltPSF0=

> <s_epik_cmdline>
J2VwaWtfcHl0aG9uJywgJy1waCcsICc3LjAnLCAnLXRuJywgJzgnLCAnLW1hJywgJzIwMCcsICctbWV0YWxfYmluZGluZycsICctaW1hZScsICc8aW5maWxlLm1hZT4nLCAnLW9tYWUnLCAnPG91dGZpbGUubWFlPic=

> <r_lp_tautomer_probability>
0.999537

> <r_epik_Ionization_Penalty>
0.10812

> <r_epik_Ionization_Penalty_Charging>
0.108119

> <r_epik_Ionization_Penalty_Neutral>
4.93006e-07

> <r_epik_State_Penalty>
0.0979238

> <r_epik_Charging_Adjusted_Penalty>
0.206043

> <i_epik_Tot_Q>
0

> <i_epik_Tot_abs_Q>
0

> <r_epik_Metal_State_Penalty>
3.07911

> <b_epik_Metal_Only>
0

> <s_epik_Chemistry_Notes>
This compound contains an acetal/aminal-like group ( X-CH(R)-Y where X, Y are N, S, or O) that may be acid/base labile, releasing an aldehyde.

> <s_lp_Force_Field>
OPLS_2005

> <r_lp_Energy>
38.5572

> <b_lp_Chiralities_Consistent>
1

> <s_lp_Variant>
AV-unprocessed.smi:35-15

> <Gold.Version>
5.8.1

> <Gold.Id.Protein>
6NUR|6NUR_protein|mol2

> <Gold.PLP.Fitness>
39.7193

> <Gold.PLP.PLP>
-21.8233

> <Gold.PLP.part.hbond>
-5.7992

> <Gold.PLP.part.metal>
0.0000

> <Gold.PLP.part.buried>
1.9177

> <Gold.PLP.part.nonpolar>
-19.7023

> <Gold.PLP.part.repulsive>
0.4369

> <Gold.PLP.ligand.clash>
0.0000

> <Gold.PLP.ligand.torsion>
0.0458

> <Gold.PLP.Chemscore.Hbond>
4.9913

> <Gold.PLP.Chemscore.CHOScore>
1.0000

> <Gold.PLP.Chemscore.Metal>
0.0000

> <Gold.Chemscore.Hbonds>
donor molecule, donor type, donor heavy atom, donor atom, acceptor molecule, acceptor atom, score
      L1  H     3    19       P1 10957  1.00
      L1  H    11    24       P1  7957  1.00
      L1  H    13    26       P1 10171  1.00
      L1  H    15    28       P1 10171  1.00
      P1  H 11000 11005       L1     1  0.99
      L1  C    16    29       P1 10175  1.00

> <Gold.PLP.Chemscore.Internal.Correction>
0.0138

> <Gold.Rescore>
     Score         DG    S(hbond)    S(metal)    S(lipo)     H(rot)  DE(clash)    DE(int)     intcor
     15.11     -16.92       4.82        0.00      40.48       3.67       0.81       1.00       ----

> <Gold.Chemscore.Fitness>
15.1070

> <Gold.Chemscore.DG>
-16.9172

> <Gold.Chemscore.ZeroCoef>
-5.4800

> <Gold.Chemscore.Hbond>
4.8192

> <Gold.Chemscore.Metal>
0.0000

> <Gold.Chemscore.Lipo>
40.4831

> <Gold.Chemscore.Internal_Hbond>
0.0000

> <Gold.Chemscore.DEClash>
0.8059

> <Gold.Chemscore.DEInternal>
1.0043

> <Gold.Chemscore.Rot>
3.6701

> <Gold.Chemscore.Internal.Correction>
   9.000000E+99

> <Gold.Chemscore.Hbonds>
donor molecule, donor type, donor heavy atom, donor atom, acceptor molecule, acceptor atom, score
      L1  H     3    19       P1 10957  0.96
      L1  H    11    24       P1  7957  0.97
      L1  H    13    26       P1 10171  0.99
      L1  H    15    28       P1 10171  0.92
      P1  H 11000 11005       L1     1  0.76

> <Gold.Chemscore.Hbond.Weighted>
-16.0962

> <Gold.Chemscore.Metal.Weighted>
-0.0000

> <Gold.Chemscore.Lipo.Weighted>
-4.7365

> <Gold.Chemscore.Internal_Hbond.Weighted>
0.0000

> <Gold.Chemscore.DEClash.Weighted>
0.8059

> <Gold.Chemscore.DEInternal.Weighted>
1.0043

> <Gold.Chemscore.Rot.Weighted>
9.3955

> <Gold.Chemscore.Internal.Correction.Weighted>
   9.000000E+99

> <Gold.Protein.RotatedTorsions>
[ 6907 6896 6895 6894 ] final  -53.00 input  -60.11 | X-H torsion
[ 7974 7965 7964 7962 ] final   85.43 input  175.53 | X-H torsion
[ 8008 7997 7996 7995 ] final  145.46 input   59.86 | X-H torsion
[ 10167 10162 10161 10158 ] final   24.14 input  -65.29 | X-H torsion
[ 10718 10713 10712 10709 ] final  -65.34 input   66.30 | X-H torsion
[ 10763 10752 10751 10750 ] final   78.19 input  -60.55 | X-H torsion
[ 11005 11000 10999 10996 ] final   37.93 input  -57.11 | X-H torsion

> <Gold.Protein.ActiveResidues>
 VAL166  LYS551  ARG553  GLY616  TRP617  ASP618  TYR619  PRO620  LYS621  CYS622 
 ASP623  PHE694  ASN695  SER759  ASP760  ASP761  ALA762  ILE779  LEU786  VAL792 
 PHE793  MET794  SER795  GLU796  ALA797  LYS798  CYS799  TRP800  GLU811  SER814 

> <Gold.Protein.RotatedAtoms>
  150.8466  134.7777  159.6975 H   0  0  0  0  0  0  0  0  0  0  0  0  # atno 6907 bound_to 6896
  152.4541  134.5326  159.9825 H   0  0  0  0  0  0  0  0  0  0  0  0  # atno 6908 bound_to 6896
  151.5455  133.3388  159.2979 H   0  0  0  0  0  0  0  0  0  0  0  0  # atno 6909 bound_to 6896
  145.5856  139.2331  143.2328 H   0  0  0  0  0  0  0  0  0  0  0  0  # atno 7974 bound_to 7965
  156.2882  140.2208  156.5219 H   0  0  0  0  0  0  0  0  0  0  0  0  # atno 8008 bound_to 7997
  154.7521  140.0479  157.0924 H   0  0  0  0  0  0  0  0  0  0  0  0  # atno 8009 bound_to 7997
  155.0097  140.3111  155.4838 H   0  0  0  0  0  0  0  0  0  0  0  0  # atno 8010 bound_to 7997
  140.5212  143.9999  150.6418 H   0  0  0  0  0  0  0  0  0  0  0  0  # atno 10167 bound_to 10162
  156.0675  130.4246  150.1551 H   0  0  0  0  0  0  0  0  0  0  0  0  # atno 10718 bound_to 10713
  153.0856  135.4886  154.8589 H   0  0  0  0  0  0  0  0  0  0  0  0  # atno 10763 bound_to 10752
  154.7206  135.3038  154.9056 H   0  0  0  0  0  0  0  0  0  0  0  0  # atno 10764 bound_to 10752
  153.9722  135.6800  153.4800 H   0  0  0  0  0  0  0  0  0  0  0  0  # atno 10765 bound_to 10752
  140.2177  134.3679  155.8019 H   0  0  0  0  0  0  0  0  0  0  0  0  # atno 11005 bound_to 11000
  146.1684  140.6682  142.9244 LP  0  0  0  0  0  0  0  0  0  0  0  0  # atno 17320 bound_to 7965
  144.7374  140.4847  143.6894 LP  0  0  0  0  0  0  0  0  0  0  0  0  # atno 17321 bound_to 7965
  140.3349  143.3055  152.0649 LP  0  0  0  0  0  0  0  0  0  0  0  0  # atno 17342 bound_to 10162
  139.4924  144.6483  151.6730 LP  0  0  0  0  0  0  0  0  0  0  0  0  # atno 17343 bound_to 10162
  156.9608  130.9804  151.3479 LP  0  0  0  0  0  0  0  0  0  0  0  0  # atno 17370 bound_to 10713
  157.5726  130.8321  149.8412 LP  0  0  0  0  0  0  0  0  0  0  0  0  # atno 17371 bound_to 10713
  141.2224  133.7176  156.8523 LP  0  0  0  0  0  0  0  0  0  0  0  0  # atno 17394 bound_to 11000
  140.1883  134.8984  157.3030 LP  0  0  0  0  0  0  0  0  0  0  0  0  # atno 17395 bound_to 11000

$$$$
