AV-unprocessed.smi:787|AV-procd|sdf|3730|dock6
  -GOLD-   22720 1163D 1   1.00000     0.00000
 Structure written by MMmdl.
 46 48  0  0  0  0  0  0  0  0  1 V2000
  147.5827  140.9438  153.8484 C   0  0  0  0  0  0  0  0  0  0  0  0
  148.1574  139.7025  153.3549 N   0  0  0  0  0  0  0  0  0  0  0  0
  147.9099  138.4887  154.0113 C   0  0  0  0  0  0  0  0  0  0  0  0
  146.6472  138.0076  154.0844 N   0  0  0  0  0  0  0  0  0  0  0  0
  146.4560  136.8430  154.7178 C   0  0  0  0  0  0  0  0  0  0  0  0
  147.3568  136.0466  155.3137 N   0  0  0  0  0  0  0  0  0  0  0  0
  148.6109  136.5141  155.2465 C   0  0  0  0  0  0  0  0  0  0  0  0
  149.7348  135.9001  155.7718 N   0  0  0  0  0  0  0  0  0  0  0  0
  150.6938  136.7587  155.4351 C   0  0  0  0  0  0  0  0  0  0  0  0
  150.3301  137.8626  154.7535 N   0  0  0  0  0  0  0  0  0  0  0  0
  151.2177  138.9174  154.2936 C   0  0  0  0  0  0  0  0  0  0  0  0
  152.1995  139.3868  155.3876 C   0  0  1  0  0  0  0  0  0  0  0  0
  153.4534  139.6939  154.8107 O   0  0  0  0  0  0  0  0  0  0  0  0
  151.7048  140.6447  156.1311 C   0  0  0  0  0  0  0  0  0  0  0  0
  151.9524  140.6692  157.5742 N   0  0  0  0  0  0  0  0  0  0  0  0
  151.3424  139.5022  158.2049 C   0  0  0  0  0  0  0  0  0  0  0  0
  151.4858  141.9098  158.2001 C   0  0  0  0  0  0  0  0  0  0  0  0
  152.0551  142.1444  159.5889 C   0  0  0  0  0  0  0  0  0  0  0  0
  151.5603  143.1980  160.3868 C   0  0  0  0  0  0  0  0  0  0  0  0
  152.0859  143.4170  161.6752 C   0  0  0  0  0  0  0  0  0  0  0  0
  153.1055  142.5822  162.1711 C   0  0  0  0  0  0  0  0  0  0  0  0
  153.5999  141.5279  161.3786 C   0  0  0  0  0  0  0  0  0  0  0  0
  153.0756  141.3088  160.0896 C   0  0  0  0  0  0  0  0  0  0  0  0
  148.9493  137.7431  154.6034 C   0  0  0  0  0  0  0  0  0  0  0  0
  147.8651  141.7694  153.1956 H   0  0  0  0  0  0  0  0  0  0  0  0
  147.9439  141.1638  154.8536 H   0  0  0  0  0  0  0  0  0  0  0  0
  146.4942  140.8838  153.8715 H   0  0  0  0  0  0  0  0  0  0  0  0
  148.7321  139.7207  152.5251 H   0  0  0  0  0  0  0  0  0  0  0  0
  145.4337  136.4970  154.7546 H   0  0  0  0  0  0  0  0  0  0  0  0
  151.7251  136.5743  155.6991 H   0  0  0  0  0  0  0  0  0  0  0  0
  151.7543  138.5765  153.4092 H   0  0  0  0  0  0  0  0  0  0  0  0
  150.5987  139.7533  153.9646 H   0  0  0  0  0  0  0  0  0  0  0  0
  152.3763  138.5734  156.0905 H   0  0  0  0  0  0  0  0  0  0  0  0
  153.5854  139.1369  154.0588 H   0  0  0  0  0  0  0  0  0  0  0  0
  152.1462  141.5319  155.6742 H   0  0  0  0  0  0  0  0  0  0  0  0
  150.6304  140.7263  155.9581 H   0  0  0  0  0  0  0  0  0  0  0  0
  151.5801  139.4563  159.2679 H   0  0  0  0  0  0  0  0  0  0  0  0
  151.7108  138.5803  157.7535 H   0  0  0  0  0  0  0  0  0  0  0  0
  150.2567  139.5203  158.0998 H   0  0  0  0  0  0  0  0  0  0  0  0
  151.7835  142.7721  157.6059 H   0  0  0  0  0  0  0  0  0  0  0  0
  150.3955  141.9250  158.2380 H   0  0  0  0  0  0  0  0  0  0  0  0
  150.7778  143.8408  160.0106 H   0  0  0  0  0  0  0  0  0  0  0  0
  151.7066  144.2255  162.2830 H   0  0  0  0  0  0  0  0  0  0  0  0
  153.5079  142.7500  163.1594 H   0  0  0  0  0  0  0  0  0  0  0  0
  154.3815  140.8872  161.7593 H   0  0  0  0  0  0  0  0  0  0  0  0
  153.4608  140.4992  159.4871 H   0  0  0  0  0  0  0  0  0  0  0  0
  1  2  1  0  0  0  0
  1 25  1  0  0  0  0
  1 26  1  0  0  0  0
  1 27  1  0  0  0  0
  2  3  1  0  0  0  0
  2 28  1  0  0  0  0
  3 24  1  0  0  0  0
  3  4  2  0  0  0  0
  4  5  1  0  0  0  0
  5  6  2  0  0  0  0
  5 29  1  0  0  0  0
  6  7  1  0  0  0  0
  7 24  2  0  0  0  0
  7  8  1  0  0  0  0
  8  9  2  0  0  0  0
  9 10  1  0  0  0  0
  9 30  1  0  0  0  0
 10 11  1  0  0  0  0
 10 24  1  0  0  0  0
 11 12  1  0  0  0  0
 11 31  1  0  0  0  0
 11 32  1  0  0  0  0
 12 13  1  0  0  0  0
 12 14  1  0  0  0  0
 12 33  1  0  0  0  0
 13 34  1  0  0  0  0
 14 15  1  0  0  0  0
 14 35  1  0  0  0  0
 14 36  1  0  0  0  0
 15 16  1  0  0  0  0
 15 17  1  0  0  0  0
 16 37  1  0  0  0  0
 16 38  1  0  0  0  0
 16 39  1  0  0  0  0
 17 18  1  0  0  0  0
 17 40  1  0  0  0  0
 17 41  1  0  0  0  0
 18 23  1  0  0  0  0
 18 19  2  0  0  0  0
 19 20  1  0  0  0  0
 19 42  1  0  0  0  0
 20 21  2  0  0  0  0
 20 43  1  0  0  0  0
 21 22  1  0  0  0  0
 21 44  1  0  0  0  0
 22 23  2  0  0  0  0
 22 45  1  0  0  0  0
 23 46  1  0  0  0  0
M  END
> <s_m_source_file>
AV-unprocessed.smi

> <i_m_source_file_index>
787

> <i_lp_mmshare_version>
43012

> <i_f3d_flags>
0

> <s_epik_input>
bjFbY0hdbmMoW05IXVtDSDNdKWMoYzEyKW4oW2NIXW4yKVtDSDJdW0NASF0oW09IXSlbQ0gyXU4oW0NIM10pW0NIMl1jM1tjSF1bY0hdW2NIXVtjSF1bY0hdMw==

> <s_epik_cmdline>
J2VwaWtfcHl0aG9uJywgJy1waCcsICc3LjAnLCAnLXRuJywgJzgnLCAnLW1hJywgJzIwMCcsICctbWV0YWxfYmluZGluZycsICctaW1hZScsICc8aW5maWxlLm1hZT4nLCAnLW9tYWUnLCAnPG91dGZpbGUubWFlPic=

> <r_lp_tautomer_probability>
0.999987

> <r_epik_Ionization_Penalty>
1.52367

> <r_epik_Ionization_Penalty_Charging>
0

> <r_epik_Ionization_Penalty_Neutral>
1.52367

> <r_epik_State_Penalty>
1.60995

> <r_epik_Charging_Adjusted_Penalty>
1.60995

> <i_epik_Tot_Q>
0

> <i_epik_Tot_abs_Q>
0

> <r_epik_Metal_State_Penalty>
1.60969

> <b_epik_Metal_Only>
0

> <s_lp_Force_Field>
OPLS_2005

> <r_lp_Energy>
19.785

> <b_lp_Chiralities_Consistent>
1

> <s_lp_Variant>
AV-unprocessed.smi:787-6

> <Gold.Version>
5.8.1

> <Gold.Id.Protein>
6NUR|6NUR_protein|mol2

> <Gold.PLP.Fitness>
47.5699

> <Gold.PLP.PLP>
-45.0375

> <Gold.PLP.part.hbond>
-2.2905

> <Gold.PLP.part.metal>
0.0000

> <Gold.PLP.part.buried>
-7.2985

> <Gold.PLP.part.nonpolar>
-34.6039

> <Gold.PLP.part.repulsive>
0.3279

> <Gold.PLP.ligand.clash>
0.0000

> <Gold.PLP.ligand.torsion>
1.9535

> <Gold.PLP.Chemscore.Hbond>
2.0000

> <Gold.PLP.Chemscore.CHOScore>
0.0000

> <Gold.PLP.Chemscore.Metal>
0.0000

> <Gold.Chemscore.Hbonds>
donor molecule, donor type, donor heavy atom, donor atom, acceptor molecule, acceptor atom, score
      L1  H     2    28       P1  7957  1.00
      P1  H  7997  8009       L1    13  1.00

> <Gold.PLP.Chemscore.Internal.Correction>
0.4393

> <Gold.Rescore>
     Score         DG    S(hbond)    S(metal)    S(lipo)     H(rot)  DE(clash)    DE(int)     intcor
     15.23     -17.19       1.97        0.00     111.89       3.11       0.21       1.75       ----

> <Gold.Chemscore.Fitness>
15.2342

> <Gold.Chemscore.DG>
-17.1934

> <Gold.Chemscore.ZeroCoef>
-5.4800

> <Gold.Chemscore.Hbond>
1.9692

> <Gold.Chemscore.Metal>
0.0000

> <Gold.Chemscore.Lipo>
111.8912

> <Gold.Chemscore.Internal_Hbond>
0.0000

> <Gold.Chemscore.DEClash>
0.2069

> <Gold.Chemscore.DEInternal>
1.7524

> <Gold.Chemscore.Rot>
3.1075

> <Gold.Chemscore.Internal.Correction>
   9.000000E+99

> <Gold.Chemscore.Hbonds>
donor molecule, donor type, donor heavy atom, donor atom, acceptor molecule, acceptor atom, score
      L1  H     2    28       P1  7957  1.00
      P1  H  7997  8009       L1    13  0.93

> <Gold.Chemscore.Hbond.Weighted>
-6.5773

> <Gold.Chemscore.Metal.Weighted>
-0.0000

> <Gold.Chemscore.Lipo.Weighted>
-13.0913

> <Gold.Chemscore.Internal_Hbond.Weighted>
0.0000

> <Gold.Chemscore.DEClash.Weighted>
0.2069

> <Gold.Chemscore.DEInternal.Weighted>
1.7524

> <Gold.Chemscore.Rot.Weighted>
7.9551

> <Gold.Chemscore.Internal.Correction.Weighted>
   9.000000E+99

> <Gold.Protein.RotatedTorsions>
[ 6907 6896 6895 6894 ] final  152.48 input  -60.11 | X-H torsion
[ 7974 7965 7964 7962 ] final -175.83 input  175.53 | X-H torsion
[ 8008 7997 7996 7995 ] final -111.82 input   59.86 | X-H torsion
[ 10167 10162 10161 10158 ] final   70.20 input  -65.29 | X-H torsion
[ 10718 10713 10712 10709 ] final   37.60 input   66.30 | X-H torsion
[ 10763 10752 10751 10750 ] final  145.03 input  -60.55 | X-H torsion
[ 11005 11000 10999 10996 ] final  -30.62 input  -57.11 | X-H torsion

> <Gold.Protein.ActiveResidues>
 VAL166  LYS551  ARG553  GLY616  TRP617  ASP618  TYR619  PRO620  LYS621  CYS622 
 ASP623  PHE694  ASN695  SER759  ASP760  ASP761  ALA762  ILE779  LEU786  VAL792 
 PHE793  MET794  SER795  GLU796  ALA797  LYS798  CYS799  TRP800  GLU811  SER814 

> <Gold.Protein.RotatedAtoms>
  152.0861  133.4177  159.4522 H   0  0  0  0  0  0  0  0  0  0  0  0  # atno 6907 bound_to 6896
  150.6862  134.2926  159.4682 H   0  0  0  0  0  0  0  0  0  0  0  0  # atno 6908 bound_to 6896
  152.0772  134.9494  160.0624 H   0  0  0  0  0  0  0  0  0  0  0  0  # atno 6909 bound_to 6896
  144.7127  140.1261  143.6402 H   0  0  0  0  0  0  0  0  0  0  0  0  # atno 7974 bound_to 7965
  154.9958  140.0394  157.2339 H   0  0  0  0  0  0  0  0  0  0  0  0  # atno 8008 bound_to 7997
  154.7588  140.2780  155.6208 H   0  0  0  0  0  0  0  0  0  0  0  0  # atno 8009 bound_to 7997
  156.2900  140.2632  156.2361 H   0  0  0  0  0  0  0  0  0  0  0  0  # atno 8010 bound_to 7997
  140.0596  144.5244  150.7304 H   0  0  0  0  0  0  0  0  0  0  0  0  # atno 10167 bound_to 10162
  157.3489  130.7588  149.6964 H   0  0  0  0  0  0  0  0  0  0  0  0  # atno 10718 bound_to 10713
  153.9986  135.2925  155.3405 H   0  0  0  0  0  0  0  0  0  0  0  0  # atno 10763 bound_to 10752
  154.7172  135.5124  153.8760 H   0  0  0  0  0  0  0  0  0  0  0  0  # atno 10764 bound_to 10752
  153.0776  135.6668  154.0230 H   0  0  0  0  0  0  0  0  0  0  0  0  # atno 10765 bound_to 10752
  140.9398  133.7286  156.1059 H   0  0  0  0  0  0  0  0  0  0  0  0  # atno 11005 bound_to 11000
  145.9328  139.2617  143.1315 LP  0  0  0  0  0  0  0  0  0  0  0  0  # atno 17320 bound_to 7965
  145.9505  140.8912  143.0261 LP  0  0  0  0  0  0  0  0  0  0  0  0  # atno 17321 bound_to 7965
  140.7178  143.2560  151.4377 LP  0  0  0  0  0  0  0  0  0  0  0  0  # atno 17342 bound_to 10162
  139.5902  144.1515  152.2079 LP  0  0  0  0  0  0  0  0  0  0  0  0  # atno 17343 bound_to 10162
  155.9718  130.4146  150.4141 LP  0  0  0  0  0  0  0  0  0  0  0  0  # atno 17370 bound_to 10713
  157.2201  131.0480  151.2551 LP  0  0  0  0  0  0  0  0  0  0  0  0  # atno 17371 bound_to 10713
  140.7749  134.3790  157.5500 LP  0  0  0  0  0  0  0  0  0  0  0  0  # atno 17394 bound_to 11000
  139.8817  134.9045  156.2880 LP  0  0  0  0  0  0  0  0  0  0  0  0  # atno 17395 bound_to 11000

$$$$
