AV-unprocessed.smi:1536|AV-procd|sdf|6189|dock1
  -GOLD-   22720 6353D 1   1.00000     0.00000
 Structure written by MMmdl.
 48 49  0  0  0  0  0  0  0  0  2 V2000
  143.8670  133.0837  151.4250 C   0  0  0  0  0  0  0  0  0  0  0  0
  144.9473  134.1125  151.0472 C   0  0  2  0  0  0  0  0  0  0  0  0
  146.2261  133.4566  150.4929 C   0  0  0  0  0  0  0  0  0  0  0  0
  147.0508  132.7693  151.5949 C   0  0  0  0  0  0  0  0  0  0  0  0
  147.3726  133.7279  152.6856 N   0  3  2  0  0  0  0  0  0  0  0  0
  148.4120  133.2799  153.6666 C   0  0  1  0  0  0  0  0  0  0  0  0
  148.5352  134.1938  154.9237 C   0  0  0  0  0  0  0  0  0  0  0  0
  149.1372  135.4996  154.6683 N   0  0  0  0  0  0  0  0  0  0  0  0
  149.5676  136.3479  155.6144 C   0  0  0  0  0  0  0  0  0  0  0  0
  149.5296  136.0852  156.8171 O   0  0  0  0  0  0  0  0  0  0  0  0
  150.1420  137.6760  155.1077 C   0  0  0  0  0  0  0  0  0  0  0  0
  151.5499  137.8363  155.4261 N   0  0  0  0  0  0  0  0  0  0  0  0
  152.1901  138.7737  156.1281 C   0  0  0  0  0  0  0  0  0  0  0  0
  153.4939  138.5470  156.1711 N   0  0  0  0  0  0  0  0  0  0  0  0
  153.6350  137.3818  155.4360 N   0  0  0  0  0  0  0  0  0  0  0  0
  152.4847  136.9554  154.9911 N   0  0  0  0  0  0  0  0  0  0  0  0
  148.1788  131.7858  154.0365 C   0  0  0  0  0  0  0  0  0  0  0  0
  146.8807  131.5605  154.8353 C   0  0  0  0  0  0  0  0  0  0  0  0
  149.3604  131.1974  154.8338 C   0  0  0  0  0  0  0  0  0  0  0  0
  146.1566  134.3352  153.2884 C   0  0  0  0  0  0  0  0  0  0  0  0
  145.3129  135.0470  152.2161 C   0  0  0  0  0  0  0  0  0  0  0  0
  144.1914  132.4184  152.2249 H   0  0  0  0  0  0  0  0  0  0  0  0
  143.6023  132.4636  150.5681 H   0  0  0  0  0  0  0  0  0  0  0  0
  142.9564  133.5809  151.7600 H   0  0  0  0  0  0  0  0  0  0  0  0
  144.5229  134.7284  150.2532 H   0  0  0  0  0  0  0  0  0  0  0  0
  145.9752  132.7398  149.7101 H   0  0  0  0  0  0  0  0  0  0  0  0
  146.8416  134.2207  150.0160 H   0  0  0  0  0  0  0  0  0  0  0  0
  146.5018  131.9142  151.9886 H   0  0  0  0  0  0  0  0  0  0  0  0
  147.9709  132.3794  151.1597 H   0  0  0  0  0  0  0  0  0  0  0  0
  149.3741  133.3087  153.1533 H   0  0  0  0  0  0  0  0  0  0  0  0
  147.5546  134.3570  155.3710 H   0  0  0  0  0  0  0  0  0  0  0  0
  149.1321  133.7073  155.6952 H   0  0  0  0  0  0  0  0  0  0  0  0
  149.2021  135.7928  153.7040 H   0  0  0  0  0  0  0  0  0  0  0  0
  150.0223  137.7300  154.0249 H   0  0  0  0  0  0  0  0  0  0  0  0
  149.5846  138.5098  155.5377 H   0  0  0  0  0  0  0  0  0  0  0  0
  151.7058  139.6157  156.6001 H   0  0  0  0  0  0  0  0  0  0  0  0
  148.0900  131.2095  153.1151 H   0  0  0  0  0  0  0  0  0  0  0  0
  146.8468  132.1902  155.7250 H   0  0  0  0  0  0  0  0  0  0  0  0
  146.7959  130.5238  155.1632 H   0  0  0  0  0  0  0  0  0  0  0  0
  145.9924  131.7676  154.2395 H   0  0  0  0  0  0  0  0  0  0  0  0
  149.5347  131.7556  155.7542 H   0  0  0  0  0  0  0  0  0  0  0  0
  150.2864  131.2020  154.2586 H   0  0  0  0  0  0  0  0  0  0  0  0
  149.1698  130.1599  155.1101 H   0  0  0  0  0  0  0  0  0  0  0  0
  145.5541  133.5776  153.7854 H   0  0  0  0  0  0  0  0  0  0  0  0
  146.4423  135.0608  154.0508 H   0  0  0  0  0  0  0  0  0  0  0  0
  145.8765  135.8978  151.8305 H   0  0  0  0  0  0  0  0  0  0  0  0
  144.4099  135.4623  152.6648 H   0  0  0  0  0  0  0  0  0  0  0  0
  147.8160  134.5062  152.2187 H   0  0  0  0  0  0  0  0  0  0  0  0
  1  2  1  0  0  0  0
  1 22  1  0  0  0  0
  1 23  1  0  0  0  0
  1 24  1  0  0  0  0
  2 21  1  0  0  0  0
  2  3  1  0  0  0  0
  2 25  1  0  0  0  0
  3  4  1  0  0  0  0
  3 26  1  0  0  0  0
  3 27  1  0  0  0  0
  4  5  1  0  0  0  0
  4 28  1  0  0  0  0
  4 29  1  0  0  0  0
  5  6  1  0  0  0  0
  5 20  1  0  0  0  0
  5 48  1  0  0  0  0
  6  7  1  0  0  0  0
  6 17  1  0  0  0  0
  6 30  1  0  0  0  0
  7  8  1  0  0  0  0
  7 31  1  0  0  0  0
  7 32  1  0  0  0  0
  8  9  1  0  0  0  0
  8 33  1  0  0  0  0
  9 10  2  0  0  0  0
  9 11  1  0  0  0  0
 11 12  1  0  0  0  0
 11 34  1  0  0  0  0
 11 35  1  0  0  0  0
 12 16  1  0  0  0  0
 12 13  1  0  0  0  0
 13 14  2  0  0  0  0
 13 36  1  0  0  0  0
 14 15  1  0  0  0  0
 15 16  2  0  0  0  0
 17 18  1  0  0  0  0
 17 19  1  0  0  0  0
 17 37  1  0  0  0  0
 18 38  1  0  0  0  0
 18 39  1  0  0  0  0
 18 40  1  0  0  0  0
 19 41  1  0  0  0  0
 19 42  1  0  0  0  0
 19 43  1  0  0  0  0
 20 21  1  0  0  0  0
 20 44  1  0  0  0  0
 20 45  1  0  0  0  0
 21 46  1  0  0  0  0
 21 47  1  0  0  0  0
M  CHG  1   5   1
M  END
> <s_m_source_file>
AV-unprocessed.smi

> <i_m_source_file_index>
1536

> <i_lp_mmshare_version>
43012

> <i_f3d_flags>
0

> <s_epik_input>
W0NIM11bQ0hdMVtDSDJdW0NIMl1OKFtDSDJdW0NIMl0xKVtDQEBIXShbQ0hdKFtDSDNdKVtDSDNdKVtDSDJdW05IXUMoPU8pW0NIMl1uMltjSF1ubm4y

> <s_epik_cmdline>
J2VwaWtfcHl0aG9uJywgJy1waCcsICc3LjAnLCAnLXRuJywgJzgnLCAnLW1hJywgJzIwMCcsICctbWV0YWxfYmluZGluZycsICctaW1hZScsICc8aW5maWxlLm1hZT4nLCAnLW9tYWUnLCAnPG91dGZpbGUubWFlPic=

> <r_lp_tautomer_probability>
1

> <r_epik_Ionization_Penalty>
0.00109671

> <r_epik_Ionization_Penalty_Charging>
0.00109273

> <r_epik_Ionization_Penalty_Neutral>
3.97951e-06

> <r_epik_State_Penalty>
0.000716588

> <r_epik_Charging_Adjusted_Penalty>
0.00180932

> <i_epik_Tot_Q>
1

> <i_epik_Tot_abs_Q>
1

> <r_epik_Metal_State_Penalty>
-0

> <b_epik_Metal_Only>
0

> <s_lp_Force_Field>
OPLS_2005

> <r_lp_Energy>
37.5817

> <b_lp_Chiralities_Consistent>
1

> <s_lp_Variant>
AV-unprocessed.smi:1536-4

> <Gold.Version>
5.8.1

> <Gold.Id.Protein>
6NUR|6NUR_protein|mol2

> <Gold.PLP.Fitness>
47.9583

> <Gold.PLP.PLP>
-34.8940

> <Gold.PLP.part.hbond>
-4.7566

> <Gold.PLP.part.metal>
0.0000

> <Gold.PLP.part.buried>
-3.6619

> <Gold.PLP.part.nonpolar>
-26.8117

> <Gold.PLP.part.repulsive>
0.1501

> <Gold.PLP.ligand.clash>
0.0000

> <Gold.PLP.ligand.torsion>
0.6794

> <Gold.PLP.Chemscore.Hbond>
4.5968

> <Gold.PLP.Chemscore.CHOScore>
0.0000

> <Gold.PLP.Chemscore.Metal>
0.0000

> <Gold.Chemscore.Hbonds>
donor molecule, donor type, donor heavy atom, donor atom, acceptor molecule, acceptor atom, score
      L1  H     5    48       P1  7948  1.92
      L1  H     8    33       P1  7948  1.00
      P1  H  7997  8010       L1    14  0.83
      P1  H 10752 10765       L1    16  0.40

> <Gold.PLP.Chemscore.Internal.Correction>
0.6328

> <Gold.Rescore>
     Score         DG    S(hbond)    S(metal)    S(lipo)     H(rot)  DE(clash)    DE(int)     intcor
     12.93     -13.88       2.60        0.00      58.32       2.77       0.02       0.94       ----

> <Gold.Chemscore.Fitness>
12.9289

> <Gold.Chemscore.DG>
-13.8828

> <Gold.Chemscore.ZeroCoef>
-5.4800

> <Gold.Chemscore.Hbond>
2.5968

> <Gold.Chemscore.Metal>
0.0000

> <Gold.Chemscore.Lipo>
58.3167

> <Gold.Chemscore.Internal_Hbond>
0.0000

> <Gold.Chemscore.DEClash>
0.0180

> <Gold.Chemscore.DEInternal>
0.9360

> <Gold.Chemscore.Rot>
2.7709

> <Gold.Chemscore.Internal.Correction>
   9.000000E+99

> <Gold.Chemscore.Hbonds>
donor molecule, donor type, donor heavy atom, donor atom, acceptor molecule, acceptor atom, score
      L1  H     5    48       P1  7948  0.41
      L1  H     8    33       P1  7948  0.74
      P1  H  7997  8010       L1    14  0.62
      P1  H 10752 10765       L1    16  0.08

> <Gold.Chemscore.Hbond.Weighted>
-8.6733

> <Gold.Chemscore.Metal.Weighted>
-0.0000

> <Gold.Chemscore.Lipo.Weighted>
-6.8231

> <Gold.Chemscore.Internal_Hbond.Weighted>
0.0000

> <Gold.Chemscore.DEClash.Weighted>
0.0180

> <Gold.Chemscore.DEInternal.Weighted>
0.9360

> <Gold.Chemscore.Rot.Weighted>
7.0935

> <Gold.Chemscore.Internal.Correction.Weighted>
   9.000000E+99

> <Gold.Protein.RotatedTorsions>
[ 6907 6896 6895 6894 ] final  -30.14 input  -60.11 | X-H torsion
[ 7974 7965 7964 7962 ] final -176.53 input  175.53 | X-H torsion
[ 8008 7997 7996 7995 ] final   78.16 input   59.86 | X-H torsion
[ 10167 10162 10161 10158 ] final   -1.50 input  -65.29 | X-H torsion
[ 10718 10713 10712 10709 ] final -157.71 input   66.30 | X-H torsion
[ 10763 10752 10751 10750 ] final  151.09 input  -60.55 | X-H torsion
[ 11005 11000 10999 10996 ] final  -76.40 input  -57.11 | X-H torsion

> <Gold.Protein.ActiveResidues>
 VAL166  LYS551  ARG553  GLY616  TRP617  ASP618  TYR619  PRO620  LYS621  CYS622 
 ASP623  PHE694  ASN695  SER759  ASP760  ASP761  ALA762  ILE779  LEU786  VAL792 
 PHE793  MET794  SER795  GLU796  ALA797  LYS798  CYS799  TRP800  GLU811  SER814 

> <Gold.Protein.RotatedAtoms>
  151.1096  135.0019  159.8487 H   0  0  0  0  0  0  0  0  0  0  0  0  # atno 6907 bound_to 6896
  152.5442  134.1851  159.8661 H   0  0  0  0  0  0  0  0  0  0  0  0  # atno 6908 bound_to 6896
  151.1901  133.4628  159.2628 H   0  0  0  0  0  0  0  0  0  0  0  0  # atno 6909 bound_to 6896
  144.7127  140.1155  143.6408 H   0  0  0  0  0  0  0  0  0  0  0  0  # atno 7974 bound_to 7965
  155.8518  140.3458  155.5698 H   0  0  0  0  0  0  0  0  0  0  0  0  # atno 8008 bound_to 7997
  155.8029  140.0888  157.1966 H   0  0  0  0  0  0  0  0  0  0  0  0  # atno 8009 bound_to 7997
  154.4008  140.1462  156.3283 H   0  0  0  0  0  0  0  0  0  0  0  0  # atno 8010 bound_to 7997
  140.6812  143.6768  150.8139 H   0  0  0  0  0  0  0  0  0  0  0  0  # atno 10167 bound_to 10162
  156.5441  130.8576  151.2758 H   0  0  0  0  0  0  0  0  0  0  0  0  # atno 10718 bound_to 10713
  154.0981  135.2847  155.3257 H   0  0  0  0  0  0  0  0  0  0  0  0  # atno 10763 bound_to 10752
  154.6574  135.5347  153.7979 H   0  0  0  0  0  0  0  0  0  0  0  0  # atno 10764 bound_to 10752
  153.0389  135.6525  154.1146 H   0  0  0  0  0  0  0  0  0  0  0  0  # atno 10765 bound_to 10752
  141.1653  133.6982  156.7663 H   0  0  0  0  0  0  0  0  0  0  0  0  # atno 11005 bound_to 11000
  145.9417  139.2673  143.1265 LP  0  0  0  0  0  0  0  0  0  0  0  0  # atno 17320 bound_to 7965
  145.9417  140.8975  143.0304 LP  0  0  0  0  0  0  0  0  0  0  0  0  # atno 17321 bound_to 7965
  140.0469  143.5289  152.2692 LP  0  0  0  0  0  0  0  0  0  0  0  0  # atno 17342 bound_to 10162
  139.6137  144.7614  151.2894 LP  0  0  0  0  0  0  0  0  0  0  0  0  # atno 17343 bound_to 10162
  157.7400  130.9842  150.2348 LP  0  0  0  0  0  0  0  0  0  0  0  0  # atno 17370 bound_to 10713
  156.2945  130.3750  149.7810 LP  0  0  0  0  0  0  0  0  0  0  0  0  # atno 17371 bound_to 10713
  140.2497  134.8550  157.3655 LP  0  0  0  0  0  0  0  0  0  0  0  0  # atno 17394 bound_to 11000
  140.1715  134.4603  155.7829 LP  0  0  0  0  0  0  0  0  0  0  0  0  # atno 17395 bound_to 11000

$$$$
