AV-unprocessed.smi:1445|AV-procd|sdf|5885|dock5
  -GOLD-   22720 5563D 1   1.00000     0.00000
 Structure written by MMmdl.
 46 47  0  0  0  0  0  0  0  0  2 V2000
  152.4705  138.8438  154.8024 C   0  0  0  0  0  0  0  0  0  0  0  0
  151.1719  139.2021  154.3420 O   0  0  0  0  0  0  0  0  0  0  0  0
  150.3843  140.0042  155.1461 C   0  0  0  0  0  0  0  0  0  0  0  0
  150.9249  140.5028  156.2863 N   0  0  0  0  0  0  0  0  0  0  0  0
  150.1570  141.2820  157.0746 C   0  0  0  0  0  0  0  0  0  0  0  0
  148.8195  141.5982  156.7753 C   0  0  0  0  0  0  0  0  0  0  0  0
  148.2563  141.0825  155.5936 C   0  0  0  0  0  0  0  0  0  0  0  0
  149.0536  140.2732  154.7472 C   0  0  0  0  0  0  0  0  0  0  0  0
  148.5895  139.6857  153.5363 N   0  0  0  0  0  0  0  0  0  0  0  0
  147.3854  139.1595  153.2542 C   0  0  0  0  0  0  0  0  0  0  0  0
  146.4289  139.1013  154.0264 O   0  0  0  0  0  0  0  0  0  0  0  0
  147.3387  138.7070  151.9931 N   0  0  0  0  0  0  0  0  0  0  0  0
  146.1816  138.0667  151.3779 C   0  0  0  0  0  0  0  0  0  0  0  0
  145.5666  136.9940  152.2979 C   0  0  0  0  0  0  0  0  0  0  0  0
  146.2231  135.6720  152.1385 N   0  3  1  0  0  0  0  0  0  0  0  0
  146.3296  134.9383  153.4262 C   0  0  0  0  0  0  0  0  0  0  0  0
  147.1368  133.6413  153.2594 C   0  0  0  0  0  0  0  0  0  0  0  0
  146.5230  132.7485  152.1741 C   0  0  0  0  0  0  0  0  0  0  0  0
  146.3914  133.5276  150.8548 C   0  0  1  0  0  0  0  0  0  0  0  0
  145.7543  132.6649  149.7562 C   0  0  0  0  0  0  0  0  0  0  0  0
  145.5994  134.8315  151.0808 C   0  0  0  0  0  0  0  0  0  0  0  0
  152.9551  138.2139  154.0567 H   0  0  0  0  0  0  0  0  0  0  0  0
  152.4217  138.2764  155.7330 H   0  0  0  0  0  0  0  0  0  0  0  0
  153.0988  139.7234  154.9507 H   0  0  0  0  0  0  0  0  0  0  0  0
  150.6206  141.6606  157.9736 H   0  0  0  0  0  0  0  0  0  0  0  0
  148.2371  142.2196  157.4396 H   0  0  0  0  0  0  0  0  0  0  0  0
  147.2255  141.3096  155.3735 H   0  0  0  0  0  0  0  0  0  0  0  0
  149.2480  139.7147  152.7715 H   0  0  0  0  0  0  0  0  0  0  0  0
  148.1675  138.7989  151.4238 H   0  0  0  0  0  0  0  0  0  0  0  0
  145.4588  138.8512  151.1573 H   0  0  0  0  0  0  0  0  0  0  0  0
  146.4677  137.6294  150.4197 H   0  0  0  0  0  0  0  0  0  0  0  0
  145.6818  137.3228  153.3316 H   0  0  0  0  0  0  0  0  0  0  0  0
  144.4934  136.9001  152.1248 H   0  0  0  0  0  0  0  0  0  0  0  0
  146.8189  135.5668  154.1714 H   0  0  0  0  0  0  0  0  0  0  0  0
  145.3305  134.7155  153.8046 H   0  0  0  0  0  0  0  0  0  0  0  0
  148.1682  133.8817  152.9976 H   0  0  0  0  0  0  0  0  0  0  0  0
  147.1760  133.1022  154.2063 H   0  0  0  0  0  0  0  0  0  0  0  0
  147.1409  131.8613  152.0308 H   0  0  0  0  0  0  0  0  0  0  0  0
  145.5427  132.3973  152.4998 H   0  0  0  0  0  0  0  0  0  0  0  0
  147.3947  133.7963  150.5199 H   0  0  0  0  0  0  0  0  0  0  0  0
  144.7424  132.3613  150.0261 H   0  0  0  0  0  0  0  0  0  0  0  0
  146.3368  131.7600  149.5808 H   0  0  0  0  0  0  0  0  0  0  0  0
  145.6985  133.2076  148.8121 H   0  0  0  0  0  0  0  0  0  0  0  0
  144.5691  134.6035  151.3598 H   0  0  0  0  0  0  0  0  0  0  0  0
  145.5548  135.3842  150.1431 H   0  0  0  0  0  0  0  0  0  0  0  0
  147.1713  135.8598  151.8460 H   0  0  0  0  0  0  0  0  0  0  0  0
  1  2  1  0  0  0  0
  1 22  1  0  0  0  0
  1 23  1  0  0  0  0
  1 24  1  0  0  0  0
  2  3  1  0  0  0  0
  3  8  1  0  0  0  0
  3  4  2  0  0  0  0
  4  5  1  0  0  0  0
  5  6  2  0  0  0  0
  5 25  1  0  0  0  0
  6  7  1  0  0  0  0
  6 26  1  0  0  0  0
  7  8  2  0  0  0  0
  7 27  1  0  0  0  0
  8  9  1  0  0  0  0
  9 10  1  0  0  0  0
  9 28  1  0  0  0  0
 10 11  2  0  0  0  0
 10 12  1  0  0  0  0
 12 13  1  0  0  0  0
 12 29  1  0  0  0  0
 13 14  1  0  0  0  0
 13 30  1  0  0  0  0
 13 31  1  0  0  0  0
 14 15  1  0  0  0  0
 14 32  1  0  0  0  0
 14 33  1  0  0  0  0
 15 21  1  0  0  0  0
 15 16  1  0  0  0  0
 15 46  1  0  0  0  0
 16 17  1  0  0  0  0
 16 34  1  0  0  0  0
 16 35  1  0  0  0  0
 17 18  1  0  0  0  0
 17 36  1  0  0  0  0
 17 37  1  0  0  0  0
 18 19  1  0  0  0  0
 18 38  1  0  0  0  0
 18 39  1  0  0  0  0
 19 20  1  0  0  0  0
 19 21  1  0  0  0  0
 19 40  1  0  0  0  0
 20 41  1  0  0  0  0
 20 42  1  0  0  0  0
 20 43  1  0  0  0  0
 21 44  1  0  0  0  0
 21 45  1  0  0  0  0
M  CHG  1  15   1
M  END
> <s_m_source_file>
AV-unprocessed.smi

> <i_m_source_file_index>
1445

> <i_lp_mmshare_version>
43012

> <i_f3d_flags>
0

> <s_epik_input>
W0NIM11PYzFuW2NIXVtjSF1bY0hdYzFbTkhdQyg9TylbTkhdW0NIMl1bQ0gyXU4yW0NIMl1bQ0gyXVtDSDJdW0NAQEhdKFtDSDNdKVtDSDJdMg==

> <s_epik_cmdline>
J2VwaWtfcHl0aG9uJywgJy1waCcsICc3LjAnLCAnLXRuJywgJzgnLCAnLW1hJywgJzIwMCcsICctbWV0YWxfYmluZGluZycsICctaW1hZScsICc8aW5maWxlLm1hZT4nLCAnLW9tYWUnLCAnPG91dGZpbGUubWFlPic=

> <r_lp_tautomer_probability>
1

> <r_epik_Ionization_Penalty>
0.00179544

> <r_epik_Ionization_Penalty_Charging>
0.00171832

> <r_epik_Ionization_Penalty_Neutral>
7.71118e-05

> <r_epik_State_Penalty>
0.0011618

> <r_epik_Charging_Adjusted_Penalty>
0.00288012

> <i_epik_Tot_Q>
1

> <i_epik_Tot_abs_Q>
1

> <r_epik_Metal_State_Penalty>
-0

> <b_epik_Metal_Only>
0

> <s_lp_Force_Field>
OPLS_2005

> <r_lp_Energy>
18.8564

> <b_lp_Chiralities_Consistent>
1

> <s_lp_Variant>
AV-unprocessed.smi:1445-1

> <Gold.Version>
5.8.1

> <Gold.Id.Protein>
6NUR|6NUR_protein|mol2

> <Gold.PLP.Fitness>
46.9107

> <Gold.PLP.PLP>
-36.4275

> <Gold.PLP.part.hbond>
-5.0000

> <Gold.PLP.part.metal>
0.0000

> <Gold.PLP.part.buried>
-1.1400

> <Gold.PLP.part.nonpolar>
-29.9893

> <Gold.PLP.part.repulsive>
0.5075

> <Gold.PLP.ligand.clash>
0.0000

> <Gold.PLP.ligand.torsion>
0.9776

> <Gold.PLP.Chemscore.Hbond>
4.1390

> <Gold.PLP.Chemscore.CHOScore>
0.0000

> <Gold.PLP.Chemscore.Metal>
0.0000

> <Gold.Chemscore.Hbonds>
donor molecule, donor type, donor heavy atom, donor atom, acceptor molecule, acceptor atom, score
      L1  H     9    28       P1  7957  1.00
      L1  H    12    29       P1  7957  0.80
      L1  H    15    46       P1  7948  2.00
      P1  H  7989  7998       L1     2  0.23

> <Gold.PLP.Chemscore.Internal.Correction>
0.0214

> <Gold.Rescore>
     Score         DG    S(hbond)    S(metal)    S(lipo)     H(rot)  DE(clash)    DE(int)     intcor
     16.85     -19.28       2.90        0.00      72.54       1.71       0.14       2.30       ----

> <Gold.Chemscore.Fitness>
16.8450

> <Gold.Chemscore.DG>
-19.2819

> <Gold.Chemscore.ZeroCoef>
-5.4800

> <Gold.Chemscore.Hbond>
2.9023

> <Gold.Chemscore.Metal>
0.0000

> <Gold.Chemscore.Lipo>
72.5440

> <Gold.Chemscore.Internal_Hbond>
0.0000

> <Gold.Chemscore.DEClash>
0.1353

> <Gold.Chemscore.DEInternal>
2.3016

> <Gold.Chemscore.Rot>
1.7107

> <Gold.Chemscore.Internal.Correction>
   9.000000E+99

> <Gold.Chemscore.Hbonds>
donor molecule, donor type, donor heavy atom, donor atom, acceptor molecule, acceptor atom, score
      L1  H     9    28       P1  7957  0.95
      L1  H    12    29       P1  7957  0.40
      L1  H    15    46       P1  7948  1.00

> <Gold.Chemscore.Hbond.Weighted>
-9.6937

> <Gold.Chemscore.Metal.Weighted>
-0.0000

> <Gold.Chemscore.Lipo.Weighted>
-8.4877

> <Gold.Chemscore.Internal_Hbond.Weighted>
0.0000

> <Gold.Chemscore.DEClash.Weighted>
0.1353

> <Gold.Chemscore.DEInternal.Weighted>
2.3016

> <Gold.Chemscore.Rot.Weighted>
4.3794

> <Gold.Chemscore.Internal.Correction.Weighted>
   9.000000E+99

> <Gold.Protein.RotatedTorsions>
[ 6907 6896 6895 6894 ] final  167.04 input  -60.11 | X-H torsion
[ 7974 7965 7964 7962 ] final  -52.92 input  175.53 | X-H torsion
[ 8008 7997 7996 7995 ] final  148.34 input   59.86 | X-H torsion
[ 10167 10162 10161 10158 ] final -160.05 input  -65.29 | X-H torsion
[ 10718 10713 10712 10709 ] final   41.00 input   66.30 | X-H torsion
[ 10763 10752 10751 10750 ] final -137.54 input  -60.55 | X-H torsion
[ 11005 11000 10999 10996 ] final -117.89 input  -57.11 | X-H torsion

> <Gold.Protein.ActiveResidues>
 VAL166  LYS551  ARG553  GLY616  TRP617  ASP618  TYR619  PRO620  LYS621  CYS622 
 ASP623  PHE694  ASN695  SER759  ASP760  ASP761  ALA762  ILE779  LEU786  VAL792 
 PHE793  MET794  SER795  GLU796  ALA797  LYS798  CYS799  TRP800  GLU811  SER814 

> <Gold.Protein.RotatedAtoms>
  151.8696  133.3473  159.3730 H   0  0  0  0  0  0  0  0  0  0  0  0  # atno 6907 bound_to 6896
  150.7156  134.5126  159.5624 H   0  0  0  0  0  0  0  0  0  0  0  0  # atno 6908 bound_to 6896
  152.2656  134.7988  160.0474 H   0  0  0  0  0  0  0  0  0  0  0  0  # atno 6909 bound_to 6896
  145.9026  140.7982  142.9736 H   0  0  0  0  0  0  0  0  0  0  0  0  # atno 7974 bound_to 7965
  156.2794  140.2131  156.5683 H   0  0  0  0  0  0  0  0  0  0  0  0  # atno 8008 bound_to 7997
  154.7157  140.0508  157.0615 H   0  0  0  0  0  0  0  0  0  0  0  0  # atno 8009 bound_to 7997
  155.0546  140.3160  155.4683 H   0  0  0  0  0  0  0  0  0  0  0  0  # atno 8010 bound_to 7997
  139.6568  143.9983  152.2199 H   0  0  0  0  0  0  0  0  0  0  0  0  # atno 10167 bound_to 10162
  157.3886  130.7794  149.7251 H   0  0  0  0  0  0  0  0  0  0  0  0  # atno 10718 bound_to 10713
  154.8659  135.3639  154.5240 H   0  0  0  0  0  0  0  0  0  0  0  0  # atno 10763 bound_to 10752
  153.5869  135.7016  153.5444 H   0  0  0  0  0  0  0  0  0  0  0  0  # atno 10764 bound_to 10752
  153.3408  135.4098  155.1532 H   0  0  0  0  0  0  0  0  0  0  0  0  # atno 10765 bound_to 10752
  141.0324  133.9961  157.3123 H   0  0  0  0  0  0  0  0  0  0  0  0  # atno 11005 bound_to 11000
  144.6737  140.1700  143.7415 LP  0  0  0  0  0  0  0  0  0  0  0  0  # atno 17320 bound_to 7965
  145.8772  139.2303  143.1626 LP  0  0  0  0  0  0  0  0  0  0  0  0  # atno 17321 bound_to 7965
  139.9712  144.6492  150.7987 LP  0  0  0  0  0  0  0  0  0  0  0  0  # atno 17342 bound_to 10162
  140.7563  143.3063  151.2955 LP  0  0  0  0  0  0  0  0  0  0  0  0  # atno 17343 bound_to 10162
  155.9793  130.4042  150.3597 LP  0  0  0  0  0  0  0  0  0  0  0  0  # atno 17370 bound_to 10713
  157.1711  131.0369  151.2795 LP  0  0  0  0  0  0  0  0  0  0  0  0  # atno 17371 bound_to 10713
  139.9217  135.0200  156.8087 LP  0  0  0  0  0  0  0  0  0  0  0  0  # atno 17394 bound_to 11000
  140.6383  133.9842  155.7695 LP  0  0  0  0  0  0  0  0  0  0  0  0  # atno 17395 bound_to 11000

$$$$
