AV-unprocessed.smi:2032|AV-procd|sdf|8237|dock2
  -GOLD-   2272010503D 1   1.00000     0.00000
 Structure written by MMmdl.
 43 44  0  0  0  0  0  0  0  0  2 V2000
  151.6495  137.5408  154.6168 C   0  0  0  0  0  0  0  0  0  0  0  0
  150.6756  138.6740  154.9591 C   0  0  2  0  0  0  0  0  0  0  0  0
  149.5360  138.7862  153.9285 C   0  0  0  0  0  0  0  0  0  0  0  0
  148.6594  139.9515  154.2257 N   0  3  2  0  0  0  0  0  0  0  0  0
  147.4557  140.1158  153.3451 C   0  0  2  0  0  0  0  0  0  0  0  0
  146.8443  141.5198  153.5569 C   0  0  0  0  0  0  0  0  0  0  0  0
  146.3809  139.0086  153.5362 C   0  0  0  0  0  0  0  0  0  0  0  0
  146.6924  137.7769  152.8138 N   0  0  0  0  0  0  0  0  0  0  0  0
  145.8153  136.8054  152.5189 C   0  0  0  0  0  0  0  0  0  0  0  0
  144.6236  136.8529  152.8248 O   0  0  0  0  0  0  0  0  0  0  0  0
  146.4071  135.7999  151.8507 N   0  0  0  0  0  0  0  0  0  0  0  0
  145.8046  134.6351  151.3070 C   0  0  0  0  0  0  0  0  0  0  0  0
  144.4868  134.4766  151.1364 N   0  0  0  0  0  0  0  0  0  0  0  0
  144.1767  133.2374  150.5707 C   0  0  0  0  0  0  0  0  0  0  0  0
  145.2783  132.4598  150.3144 C   0  0  0  0  0  0  0  0  0  0  0  0
  146.7580  133.2571  150.7772 S   0  0  0  0  0  0  0  0  0  0  0  0
  149.4897  141.1851  154.2884 C   0  0  0  0  0  0  0  0  0  0  0  0
  150.6428  141.0453  155.2994 C   0  0  1  0  0  0  0  0  0  0  0  0
  150.1830  141.0805  156.7681 C   0  0  0  0  0  0  0  0  0  0  0  0
  151.4173  139.8881  154.9960 O   0  0  0  0  0  0  0  0  0  0  0  0
  151.1399  136.5772  154.5947 H   0  0  0  0  0  0  0  0  0  0  0  0
  152.4475  137.4761  155.3570 H   0  0  0  0  0  0  0  0  0  0  0  0
  152.1124  137.6973  153.6419 H   0  0  0  0  0  0  0  0  0  0  0  0
  150.2577  138.4689  155.9449 H   0  0  0  0  0  0  0  0  0  0  0  0
  149.9408  138.8822  152.9196 H   0  0  0  0  0  0  0  0  0  0  0  0
  148.9728  137.8543  153.9698 H   0  0  0  0  0  0  0  0  0  0  0  0
  147.7952  140.0460  152.3104 H   0  0  0  0  0  0  0  0  0  0  0  0
  146.0343  141.7176  152.8554 H   0  0  0  0  0  0  0  0  0  0  0  0
  147.5638  142.3228  153.4098 H   0  0  0  0  0  0  0  0  0  0  0  0
  146.4402  141.6223  154.5646 H   0  0  0  0  0  0  0  0  0  0  0  0
  146.3175  138.7162  154.5843 H   0  0  0  0  0  0  0  0  0  0  0  0
  145.3939  139.3818  153.2567 H   0  0  0  0  0  0  0  0  0  0  0  0
  147.6509  137.6526  152.5218 H   0  0  0  0  0  0  0  0  0  0  0  0
  147.3997  135.8876  151.6908 H   0  0  0  0  0  0  0  0  0  0  0  0
  143.1424  132.9902  150.3823 H   0  0  0  0  0  0  0  0  0  0  0  0
  145.3083  131.4705  149.8827 H   0  0  0  0  0  0  0  0  0  0  0  0
  149.9016  141.3829  153.2975 H   0  0  0  0  0  0  0  0  0  0  0  0
  148.8946  142.0572  154.5520 H   0  0  0  0  0  0  0  0  0  0  0  0
  151.3100  141.8964  155.1596 H   0  0  0  0  0  0  0  0  0  0  0  0
  149.7130  142.0361  157.0019 H   0  0  0  0  0  0  0  0  0  0  0  0
  151.0298  140.9571  157.4435 H   0  0  0  0  0  0  0  0  0  0  0  0
  149.4567  140.3007  156.9955 H   0  0  0  0  0  0  0  0  0  0  0  0
  148.3011  139.7903  155.1562 H   0  0  0  0  0  0  0  0  0  0  0  0
  1  2  1  0  0  0  0
  1 21  1  0  0  0  0
  1 22  1  0  0  0  0
  1 23  1  0  0  0  0
  2 20  1  0  0  0  0
  2  3  1  0  0  0  0
  2 24  1  0  0  0  0
  3  4  1  0  0  0  0
  3 25  1  0  0  0  0
  3 26  1  0  0  0  0
  4  5  1  0  0  0  0
  4 17  1  0  0  0  0
  4 43  1  0  0  0  0
  5  6  1  0  0  0  0
  5  7  1  0  0  0  0
  5 27  1  0  0  0  0
  6 28  1  0  0  0  0
  6 29  1  0  0  0  0
  6 30  1  0  0  0  0
  7  8  1  0  0  0  0
  7 31  1  0  0  0  0
  7 32  1  0  0  0  0
  8  9  1  0  0  0  0
  8 33  1  0  0  0  0
  9 10  2  0  0  0  0
  9 11  1  0  0  0  0
 11 12  1  0  0  0  0
 11 34  1  0  0  0  0
 12 16  1  0  0  0  0
 12 13  2  0  0  0  0
 13 14  1  0  0  0  0
 14 15  2  0  0  0  0
 14 35  1  0  0  0  0
 15 16  1  0  0  0  0
 15 36  1  0  0  0  0
 17 18  1  0  0  0  0
 17 37  1  0  0  0  0
 17 38  1  0  0  0  0
 18 19  1  0  0  0  0
 18 20  1  0  0  0  0
 18 39  1  0  0  0  0
 19 40  1  0  0  0  0
 19 41  1  0  0  0  0
 19 42  1  0  0  0  0
M  CHG  1   4   1
M  END
> <s_m_source_file>
AV-unprocessed.smi

> <i_m_source_file_index>
2032

> <i_lp_mmshare_version>
43012

> <i_f3d_flags>
0

> <s_epik_input>
W0NIM11bQ0BASF0xW0NIMl1OKFtDSDJdW0NASF0oTzEpW0NIM10pW0NASF0oW0NIM10pW0NIMl1bTkhdQyg9TylbTkhdYzJuW2NIXVtjSF1zMg==

> <s_epik_cmdline>
J2VwaWtfcHl0aG9uJywgJy1waCcsICc3LjAnLCAnLXRuJywgJzgnLCAnLW1hJywgJzIwMCcsICctbWV0YWxfYmluZGluZycsICctaW1hZScsICc8aW5maWxlLm1hZT4nLCAnLW9tYWUnLCAnPG91dGZpbGUubWFlPic=

> <r_lp_tautomer_probability>
0.999

> <r_epik_Ionization_Penalty>
0.695838

> <r_epik_Ionization_Penalty_Charging>
0.695697

> <r_epik_Ionization_Penalty_Neutral>
0.000141198

> <r_epik_State_Penalty>
0.717972

> <r_epik_Charging_Adjusted_Penalty>
1.41367

> <i_epik_Tot_Q>
1

> <i_epik_Tot_abs_Q>
1

> <r_epik_Metal_State_Penalty>
0.756405

> <b_epik_Metal_Only>
0

> <s_lp_Force_Field>
OPLS_2005

> <r_lp_Energy>
21.5501

> <b_lp_Chiralities_Consistent>
1

> <s_lp_Variant>
AV-unprocessed.smi:2032-7

> <Gold.Version>
5.8.1

> <Gold.Id.Protein>
6NUR|6NUR_protein|mol2

> <Gold.PLP.Fitness>
40.9170

> <Gold.PLP.PLP>
-33.4886

> <Gold.PLP.part.hbond>
-2.6267

> <Gold.PLP.part.metal>
0.0000

> <Gold.PLP.part.buried>
-2.8756

> <Gold.PLP.part.nonpolar>
-28.1560

> <Gold.PLP.part.repulsive>
0.5815

> <Gold.PLP.ligand.clash>
0.0000

> <Gold.PLP.ligand.torsion>
0.6174

> <Gold.PLP.Chemscore.Hbond>
1.8580

> <Gold.PLP.Chemscore.CHOScore>
1.0000

> <Gold.PLP.Chemscore.Metal>
0.0000

> <Gold.Chemscore.Hbonds>
donor molecule, donor type, donor heavy atom, donor atom, acceptor molecule, acceptor atom, score
      L1  H     8    33       P1  7948  0.85
      L1  H    11    34       P1  7948  1.00
      L1  C    14    35       P1 10186  0.57

> <Gold.PLP.Chemscore.Internal.Correction>
0.0891

> <Gold.Rescore>
     Score         DG    S(hbond)    S(metal)    S(lipo)     H(rot)  DE(clash)    DE(int)     intcor
     15.40     -17.31       1.89        0.00      82.32       1.61       0.09       1.83       ----

> <Gold.Chemscore.Fitness>
15.3956

> <Gold.Chemscore.DG>
-17.3082

> <Gold.Chemscore.ZeroCoef>
-5.4800

> <Gold.Chemscore.Hbond>
1.8926

> <Gold.Chemscore.Metal>
0.0000

> <Gold.Chemscore.Lipo>
82.3177

> <Gold.Chemscore.Internal_Hbond>
0.0000

> <Gold.Chemscore.DEClash>
0.0863

> <Gold.Chemscore.DEInternal>
1.8263

> <Gold.Chemscore.Rot>
1.6110

> <Gold.Chemscore.Internal.Correction>
   9.000000E+99

> <Gold.Chemscore.Hbonds>
donor molecule, donor type, donor heavy atom, donor atom, acceptor molecule, acceptor atom, score
      L1  H     8    33       P1  7948  0.78
      L1  H    11    34       P1  7948  0.97

> <Gold.Chemscore.Hbond.Weighted>
-6.3212

> <Gold.Chemscore.Metal.Weighted>
-0.0000

> <Gold.Chemscore.Lipo.Weighted>
-9.6312

> <Gold.Chemscore.Internal_Hbond.Weighted>
0.0000

> <Gold.Chemscore.DEClash.Weighted>
0.0863

> <Gold.Chemscore.DEInternal.Weighted>
1.8263

> <Gold.Chemscore.Rot.Weighted>
4.1242

> <Gold.Chemscore.Internal.Correction.Weighted>
   9.000000E+99

> <Gold.Protein.RotatedTorsions>
[ 6907 6896 6895 6894 ] final  131.97 input  -60.11 | X-H torsion
[ 7974 7965 7964 7962 ] final  -19.13 input  175.53 | X-H torsion
[ 8008 7997 7996 7995 ] final  167.52 input   59.86 | X-H torsion
[ 10167 10162 10161 10158 ] final  107.83 input  -65.29 | X-H torsion
[ 10718 10713 10712 10709 ] final -161.91 input   66.30 | X-H torsion
[ 10763 10752 10751 10750 ] final  138.75 input  -60.55 | X-H torsion
[ 11005 11000 10999 10996 ] final -168.21 input  -57.11 | X-H torsion

> <Gold.Protein.ActiveResidues>
 VAL166  LYS551  ARG553  GLY616  TRP617  ASP618  TYR619  PRO620  LYS621  CYS622 
 ASP623  PHE694  ASN695  SER759  ASP760  ASP761  ALA762  ILE779  LEU786  VAL792 
 PHE793  MET794  SER795  GLU796  ALA797  LYS798  CYS799  TRP800  GLU811  SER814 

> <Gold.Protein.RotatedAtoms>
  152.3372  133.6025  159.5850 H   0  0  0  0  0  0  0  0  0  0  0  0  # atno 6907 bound_to 6896
  150.7457  133.9777  159.3575 H   0  0  0  0  0  0  0  0  0  0  0  0  # atno 6908 bound_to 6896
  151.7646  135.0802  160.0402 H   0  0  0  0  0  0  0  0  0  0  0  0  # atno 6909 bound_to 6896
  146.1857  140.4019  142.8477 H   0  0  0  0  0  0  0  0  0  0  0  0  # atno 7974 bound_to 7965
  156.1626  140.1614  156.8585 H   0  0  0  0  0  0  0  0  0  0  0  0  # atno 8008 bound_to 7997
  154.5176  140.0786  156.8146 H   0  0  0  0  0  0  0  0  0  0  0  0  # atno 8009 bound_to 7997
  155.3675  140.3398  155.4244 H   0  0  0  0  0  0  0  0  0  0  0  0  # atno 8010 bound_to 7997
  139.6895  144.7109  151.1373 H   0  0  0  0  0  0  0  0  0  0  0  0  # atno 10167 bound_to 10162
  156.6030  130.8818  151.2918 H   0  0  0  0  0  0  0  0  0  0  0  0  # atno 10718 bound_to 10713
  153.8947  135.3029  155.3448 H   0  0  0  0  0  0  0  0  0  0  0  0  # atno 10763 bound_to 10752
  154.7699  135.4891  153.9631 H   0  0  0  0  0  0  0  0  0  0  0  0  # atno 10764 bound_to 10752
  153.1278  135.6797  153.9328 H   0  0  0  0  0  0  0  0  0  0  0  0  # atno 10765 bound_to 10752
  140.5445  134.5489  157.5108 H   0  0  0  0  0  0  0  0  0  0  0  0  # atno 11005 bound_to 11000
  144.8393  140.6832  143.6240 LP  0  0  0  0  0  0  0  0  0  0  0  0  # atno 17320 bound_to 7965
  145.3945  139.1610  143.4211 LP  0  0  0  0  0  0  0  0  0  0  0  0  # atno 17321 bound_to 7965
  140.7678  143.5580  150.9130 LP  0  0  0  0  0  0  0  0  0  0  0  0  # atno 17342 bound_to 10162
  139.9257  143.6553  152.3087 LP  0  0  0  0  0  0  0  0  0  0  0  0  # atno 17343 bound_to 10162
  157.7274  130.9643  150.1700 LP  0  0  0  0  0  0  0  0  0  0  0  0  # atno 17370 bound_to 10713
  156.2453  130.3695  149.8291 LP  0  0  0  0  0  0  0  0  0  0  0  0  # atno 17371 bound_to 10713
  139.9487  134.7656  156.0501 LP  0  0  0  0  0  0  0  0  0  0  0  0  # atno 17394 bound_to 11000
  141.1208  133.6613  156.3209 LP  0  0  0  0  0  0  0  0  0  0  0  0  # atno 17395 bound_to 11000

$$$$
