AV-unprocessed.smi:2039|AV-procd|sdf|8284|dock1
  -GOLD-   2272010553D 1   1.00000     0.00000
 Structure written by MMmdl.
 32 33  0  0  0  0  0  0  0  0  2 V2000
  151.4334  129.1283  155.5690 C   0  0  0  0  0  0  0  0  0  0  0  0
  150.8616  130.4595  155.2198 C   0  0  0  0  0  0  0  0  0  0  0  0
  151.2740  131.5949  155.7889 N   0  0  0  0  0  0  0  0  0  0  0  0
  150.5953  132.7017  155.2989 N   0  0  0  0  0  0  0  0  0  0  0  0
  149.6906  132.3902  154.3597 C   0  0  0  0  0  0  0  0  0  0  0  0
  148.9277  133.3163  153.7555 N   0  5  0  0  0  0  0  0  0  0  0  0
  147.8381  132.9365  153.0496 C   0  0  0  0  0  0  0  0  0  0  0  0
  147.2221  131.8753  153.1734 O   0  0  0  0  0  0  0  0  0  0  0  0
  147.4364  133.8437  152.1470 N   0  0  0  0  0  0  0  0  0  0  0  0
  146.2889  133.7188  151.2519 C   0  0  2  0  0  0  0  0  0  0  0  0
  144.9761  133.6506  152.0587 C   0  0  0  0  0  0  0  0  0  0  0  0
  143.7617  133.4441  151.1388 C   0  0  0  0  0  0  0  0  0  0  0  0
  143.9364  132.1942  150.2588 C   0  0  1  0  0  0  0  0  0  0  0  0
  142.8397  132.0811  149.3762 O   0  0  0  0  0  0  0  0  0  0  0  0
  145.2419  132.2651  149.4481 C   0  0  0  0  0  0  0  0  0  0  0  0
  146.4549  132.4664  150.3704 C   0  0  0  0  0  0  0  0  0  0  0  0
  149.5941  130.6621  154.0225 S   0  0  0  0  0  0  0  0  0  0  0  0
  152.4138  129.0115  155.1066 H   0  0  0  0  0  0  0  0  0  0  0  0
  150.7810  128.3304  155.2137 H   0  0  0  0  0  0  0  0  0  0  0  0
  151.5403  129.0355  156.6501 H   0  0  0  0  0  0  0  0  0  0  0  0
  147.9734  134.6959  152.0807 H   0  0  0  0  0  0  0  0  0  0  0  0
  146.2518  134.5886  150.5930 H   0  0  0  0  0  0  0  0  0  0  0  0
  145.0278  132.8326  152.7789 H   0  0  0  0  0  0  0  0  0  0  0  0
  144.8436  134.5640  152.6395 H   0  0  0  0  0  0  0  0  0  0  0  0
  142.8556  133.3570  151.7395 H   0  0  0  0  0  0  0  0  0  0  0  0
  143.6334  134.3263  150.5099 H   0  0  0  0  0  0  0  0  0  0  0  0
  143.9515  131.3057  150.8913 H   0  0  0  0  0  0  0  0  0  0  0  0
  142.3881  132.9109  149.3530 H   0  0  0  0  0  0  0  0  0  0  0  0
  145.3714  131.3542  148.8625 H   0  0  0  0  0  0  0  0  0  0  0  0
  145.1924  133.0885  148.7338 H   0  0  0  0  0  0  0  0  0  0  0  0
  147.3619  132.5496  149.7703 H   0  0  0  0  0  0  0  0  0  0  0  0
  146.5801  131.5840  150.9997 H   0  0  0  0  0  0  0  0  0  0  0  0
  1  2  1  0  0  0  0
  1 18  1  0  0  0  0
  1 19  1  0  0  0  0
  1 20  1  0  0  0  0
  2 17  1  0  0  0  0
  2  3  2  0  0  0  0
  3  4  1  0  0  0  0
  4  5  2  0  0  0  0
  5  6  1  0  0  0  0
  5 17  1  0  0  0  0
  6  7  1  0  0  0  0
  7  8  2  0  0  0  0
  7  9  1  0  0  0  0
  9 10  1  0  0  0  0
  9 21  1  0  0  0  0
 10 16  1  0  0  0  0
 10 11  1  0  0  0  0
 10 22  1  0  0  0  0
 11 12  1  0  0  0  0
 11 23  1  0  0  0  0
 11 24  1  0  0  0  0
 12 13  1  0  0  0  0
 12 25  1  0  0  0  0
 12 26  1  0  0  0  0
 13 14  1  0  0  0  0
 13 15  1  0  0  0  0
 13 27  1  0  0  0  0
 14 28  1  0  0  0  0
 15 16  1  0  0  0  0
 15 29  1  0  0  0  0
 15 30  1  0  0  0  0
 16 31  1  0  0  0  0
 16 32  1  0  0  0  0
M  CHG  1   6  -1
M  END
> <s_m_source_file>
AV-unprocessed.smi

> <i_m_source_file_index>
2039

> <i_lp_mmshare_version>
43012

> <i_f3d_flags>
0

> <s_epik_input>
W0NIM11jMW5uYyhzMSlbTkhdQyg9TylbTkhdW0NAQEhdMltDSDJdW0NIMl1bQ0BASF0oW09IXSlbQ0gyXVtDSDJdMg==

> <s_epik_cmdline>
J2VwaWtfcHl0aG9uJywgJy1waCcsICc3LjAnLCAnLXRuJywgJzgnLCAnLW1hJywgJzIwMCcsICctbWV0YWxfYmluZGluZycsICctaW1hZScsICc8aW5maWxlLm1hZT4nLCAnLW9tYWUnLCAnPG91dGZpbGUubWFlPic=

> <r_lp_tautomer_probability>
1

> <r_epik_Ionization_Penalty>
4.54927

> <r_epik_Ionization_Penalty_Charging>
4.39069

> <r_epik_Ionization_Penalty_Neutral>
0.158583

> <r_epik_State_Penalty>
4.39033

> <r_epik_Charging_Adjusted_Penalty>
8.78102

> <i_epik_Tot_Q>
-1

> <i_epik_Tot_abs_Q>
1

> <r_epik_Metal_State_Penalty>
0.767247

> <b_epik_Metal_Only>
1

> <s_lp_Force_Field>
OPLS_2005

> <r_lp_Energy>
5.24327

> <b_lp_Chiralities_Consistent>
1

> <s_lp_Variant>
AV-unprocessed.smi:2039-3

> <Gold.Version>
5.8.1

> <Gold.Id.Protein>
6NUR|6NUR_protein|mol2

> <Gold.PLP.Fitness>
40.2210

> <Gold.PLP.PLP>
-32.0599

> <Gold.PLP.part.hbond>
-3.9079

> <Gold.PLP.part.metal>
0.0000

> <Gold.PLP.part.buried>
-4.3517

> <Gold.PLP.part.nonpolar>
-24.7000

> <Gold.PLP.part.repulsive>
0.2844

> <Gold.PLP.ligand.clash>
0.0000

> <Gold.PLP.ligand.torsion>
0.1580

> <Gold.PLP.Chemscore.Hbond>
2.8233

> <Gold.PLP.Chemscore.CHOScore>
0.0000

> <Gold.PLP.Chemscore.Metal>
0.0000

> <Gold.Chemscore.Hbonds>
donor molecule, donor type, donor heavy atom, donor atom, acceptor molecule, acceptor atom, score
      L1  H     9    21       P1  7948  1.00
      L1  H    14    28       P1 10186  0.96
      P1  H 10785 10796       L1    14  0.80

> <Gold.PLP.Chemscore.Internal.Correction>
0.0074

> <Gold.Rescore>
     Score         DG    S(hbond)    S(metal)    S(lipo)     H(rot)  DE(clash)    DE(int)     intcor
     12.37     -15.08       1.93        0.00      59.35       1.49       0.00       2.70       ----

> <Gold.Chemscore.Fitness>
12.3737

> <Gold.Chemscore.DG>
-15.0784

> <Gold.Chemscore.ZeroCoef>
-5.4800

> <Gold.Chemscore.Hbond>
1.9348

> <Gold.Chemscore.Metal>
0.0000

> <Gold.Chemscore.Lipo>
59.3483

> <Gold.Chemscore.Internal_Hbond>
0.0000

> <Gold.Chemscore.DEClash>
0.0000

> <Gold.Chemscore.DEInternal>
2.7047

> <Gold.Chemscore.Rot>
1.4873

> <Gold.Chemscore.Internal.Correction>
   9.000000E+99

> <Gold.Chemscore.Hbonds>
donor molecule, donor type, donor heavy atom, donor atom, acceptor molecule, acceptor atom, score
      L1  H     9    21       P1  7948  0.35
      L1  H    14    28       P1 10186  0.90
      P1  H 10785 10796       L1    14  0.16

> <Gold.Chemscore.Hbond.Weighted>
-6.4621

> <Gold.Chemscore.Metal.Weighted>
-0.0000

> <Gold.Chemscore.Lipo.Weighted>
-6.9438

> <Gold.Chemscore.Internal_Hbond.Weighted>
0.0000

> <Gold.Chemscore.DEClash.Weighted>
0.0000

> <Gold.Chemscore.DEInternal.Weighted>
2.7047

> <Gold.Chemscore.Rot.Weighted>
3.8075

> <Gold.Chemscore.Internal.Correction.Weighted>
   9.000000E+99

> <Gold.Protein.RotatedTorsions>
[ 6907 6896 6895 6894 ] final  -50.63 input  -60.11 | X-H torsion
[ 7974 7965 7964 7962 ] final -107.20 input  175.53 | X-H torsion
[ 8008 7997 7996 7995 ] final  173.67 input   59.86 | X-H torsion
[ 10167 10162 10161 10158 ] final    6.50 input  -65.29 | X-H torsion
[ 10718 10713 10712 10709 ] final  -10.31 input   66.30 | X-H torsion
[ 10763 10752 10751 10750 ] final    8.35 input  -60.55 | X-H torsion
[ 11005 11000 10999 10996 ] final   64.88 input  -57.11 | X-H torsion

> <Gold.Protein.ActiveResidues>
 VAL166  LYS551  ARG553  GLY616  TRP617  ASP618  TYR619  PRO620  LYS621  CYS622 
 ASP623  PHE694  ASN695  SER759  ASP760  ASP761  ALA762  ILE779  LEU786  VAL792 
 PHE793  MET794  SER795  GLU796  ALA797  LYS798  CYS799  TRP800  GLU811  SER814 

> <Gold.Protein.RotatedAtoms>
  150.8689  134.8058  159.7139 H   0  0  0  0  0  0  0  0  0  0  0  0  # atno 6907 bound_to 6896
  152.4700  134.4979  159.9725 H   0  0  0  0  0  0  0  0  0  0  0  0  # atno 6908 bound_to 6896
  151.5071  133.3454  159.2914 H   0  0  0  0  0  0  0  0  0  0  0  0  # atno 6909 bound_to 6896
  145.2083  140.9085  143.3329 H   0  0  0  0  0  0  0  0  0  0  0  0  # atno 7974 bound_to 7965
  156.1052  140.1454  156.9413 H   0  0  0  0  0  0  0  0  0  0  0  0  # atno 8008 bound_to 7997
  154.4729  140.0904  156.7235 H   0  0  0  0  0  0  0  0  0  0  0  0  # atno 8009 bound_to 7997
  155.4691  140.3441  155.4325 H   0  0  0  0  0  0  0  0  0  0  0  0  # atno 8010 bound_to 7997
  140.6424  143.7742  150.7448 H   0  0  0  0  0  0  0  0  0  0  0  0  # atno 10167 bound_to 10162
  156.6754  130.5021  149.5987 H   0  0  0  0  0  0  0  0  0  0  0  0  # atno 10718 bound_to 10713
  153.2260  135.6887  153.7944 H   0  0  0  0  0  0  0  0  0  0  0  0  # atno 10763 bound_to 10752
  153.7126  135.3280  155.3250 H   0  0  0  0  0  0  0  0  0  0  0  0  # atno 10764 bound_to 10752
  154.8292  135.4594  154.1127 H   0  0  0  0  0  0  0  0  0  0  0  0  # atno 10765 bound_to 10752
  139.9930  134.6561  156.0058 H   0  0  0  0  0  0  0  0  0  0  0  0  # atno 11005 bound_to 11000
  144.9880  139.3717  143.6229 LP  0  0  0  0  0  0  0  0  0  0  0  0  # atno 17320 bound_to 7965
  146.3403  139.9050  142.8788 LP  0  0  0  0  0  0  0  0  0  0  0  0  # atno 17321 bound_to 7965
  140.1376  143.4470  152.2214 LP  0  0  0  0  0  0  0  0  0  0  0  0  # atno 17342 bound_to 10162
  139.5634  144.7420  151.4091 LP  0  0  0  0  0  0  0  0  0  0  0  0  # atno 17343 bound_to 10162
  156.1907  130.6558  151.1058 LP  0  0  0  0  0  0  0  0  0  0  0  0  # atno 17370 bound_to 10713
  157.7062  131.0755  150.6657 LP  0  0  0  0  0  0  0  0  0  0  0  0  # atno 17371 bound_to 10713
  141.1581  133.6541  156.4229 LP  0  0  0  0  0  0  0  0  0  0  0  0  # atno 17394 bound_to 11000
  140.4872  134.6609  157.5196 LP  0  0  0  0  0  0  0  0  0  0  0  0  # atno 17395 bound_to 11000

$$$$
