AV-unprocessed.smi:19|AV-procd|sdf|109|dock4
  -GOLD-   2262015273D 1   1.00000     0.00000
 Structure written by MMmdl.
 57 60  0  0  0  0  0  0  0  0  1 V2000
  155.0697  139.3809  160.5032 C   0  0  0  0  0  0  0  0  0  0  0  0
  154.6597  140.1856  159.4088 O   0  0  0  0  0  0  0  0  0  0  0  0
  154.0744  141.4265  159.7819 C   0  0  0  0  0  0  0  0  0  0  0  0
  152.5582  141.2942  160.0536 C   0  0  2  0  0  0  0  0  0  0  0  0
  151.8275  140.3980  159.0357 C   0  0  0  0  0  0  0  0  0  0  0  0
  151.6857  141.0832  157.7560 N   0  0  0  0  0  0  0  0  0  0  0  0
  151.3486  140.2890  156.7091 C   0  0  0  0  0  0  0  0  0  0  0  0
  150.8550  140.8409  155.5684 N   0  0  0  0  0  0  0  0  0  0  0  0
  150.5128  140.0640  154.5366 C   0  0  0  0  0  0  0  0  0  0  0  0
  150.5874  138.7364  154.4315 N   0  0  0  0  0  0  0  0  0  0  0  0
  151.0943  138.1764  155.5667 C   0  0  0  0  0  0  0  0  0  0  0  0
  151.4918  138.8731  156.7429 C   0  0  0  0  0  0  0  0  0  0  0  0
  151.9590  137.9710  157.6910 N   0  0  0  0  0  0  0  0  0  0  0  0
  151.8315  136.8080  157.1142 C   0  0  0  0  0  0  0  0  0  0  0  0
  151.3381  136.8385  155.8287 N   0  0  0  0  0  0  0  0  0  0  0  0
  151.1009  135.6938  154.9590 C   0  0  0  0  0  0  0  0  0  0  0  0
  150.1281  134.6209  155.5344 C   0  0  0  0  0  0  0  0  0  0  0  0
  148.7414  135.2513  155.8501 C   0  0  0  0  0  0  0  0  0  0  0  0
  148.1668  135.8758  154.7197 O   0  0  0  0  0  0  0  0  0  0  0  0
  149.9502  133.4660  154.5154 C   0  0  0  0  0  0  0  0  0  0  0  0
  149.2786  132.2195  155.1220 C   0  0  0  0  0  0  0  0  0  0  0  0
  150.0024  131.7766  156.2620 O   0  0  0  0  0  0  0  0  0  0  0  0
  150.0434  132.7478  157.2992 C   0  0  0  0  0  0  0  0  0  0  0  0
  150.7741  134.0078  156.8030 C   0  0  0  0  0  0  0  0  0  0  0  0
  151.0410  142.3866  157.8753 C   0  0  0  0  0  0  0  0  0  0  0  0
  151.8062  143.2614  158.8840 C   0  0  1  0  0  0  0  0  0  0  0  0
  151.0947  144.5936  159.1405 C   0  0  0  0  0  0  0  0  0  0  0  0
  151.9171  142.5704  160.1287 O   0  0  0  0  0  0  0  0  0  0  0  0
  155.5299  138.4673  160.1269 H   0  0  0  0  0  0  0  0  0  0  0  0
  154.2311  139.0913  161.1360 H   0  0  0  0  0  0  0  0  0  0  0  0
  155.8091  139.8971  161.1167 H   0  0  0  0  0  0  0  0  0  0  0  0
  154.5874  141.8395  160.6519 H   0  0  0  0  0  0  0  0  0  0  0  0
  154.2507  142.1250  158.9641 H   0  0  0  0  0  0  0  0  0  0  0  0
  152.4264  140.8522  161.0401 H   0  0  0  0  0  0  0  0  0  0  0  0
  152.3520  139.4483  158.9360 H   0  0  0  0  0  0  0  0  0  0  0  0
  150.8296  140.1622  159.4084 H   0  0  0  0  0  0  0  0  0  0  0  0
  150.1236  140.5800  153.6714 H   0  0  0  0  0  0  0  0  0  0  0  0
  152.1061  135.8893  157.6120 H   0  0  0  0  0  0  0  0  0  0  0  0
  150.7158  136.0785  154.0137 H   0  0  0  0  0  0  0  0  0  0  0  0
  152.0645  135.2432  154.7185 H   0  0  0  0  0  0  0  0  0  0  0  0
  148.0466  134.4961  156.2180 H   0  0  0  0  0  0  0  0  0  0  0  0
  148.8087  136.0017  156.6359 H   0  0  0  0  0  0  0  0  0  0  0  0
  148.6511  135.6124  153.9519 H   0  0  0  0  0  0  0  0  0  0  0  0
  149.3710  133.7983  153.6535 H   0  0  0  0  0  0  0  0  0  0  0  0
  150.9268  133.1694  154.1306 H   0  0  0  0  0  0  0  0  0  0  0  0
  148.2386  132.4109  155.3873 H   0  0  0  0  0  0  0  0  0  0  0  0
  149.2657  131.4146  154.3869 H   0  0  0  0  0  0  0  0  0  0  0  0
  149.0356  132.9778  157.6462 H   0  0  0  0  0  0  0  0  0  0  0  0
  150.5763  132.3230  158.1499 H   0  0  0  0  0  0  0  0  0  0  0  0
  151.8064  133.7300  156.5849 H   0  0  0  0  0  0  0  0  0  0  0  0
  150.8310  134.7436  157.6058 H   0  0  0  0  0  0  0  0  0  0  0  0
  151.0144  142.8841  156.9048 H   0  0  0  0  0  0  0  0  0  0  0  0
  150.0088  142.2495  158.2008 H   0  0  0  0  0  0  0  0  0  0  0  0
  152.8015  143.4797  158.4961 H   0  0  0  0  0  0  0  0  0  0  0  0
  150.9932  145.1675  158.2189 H   0  0  0  0  0  0  0  0  0  0  0  0
  151.6529  145.2032  159.8515 H   0  0  0  0  0  0  0  0  0  0  0  0
  150.0959  144.4354  159.5484 H   0  0  0  0  0  0  0  0  0  0  0  0
  1  2  1  0  0  0  0
  1 29  1  0  0  0  0
  1 30  1  0  0  0  0
  1 31  1  0  0  0  0
  2  3  1  0  0  0  0
  3  4  1  0  0  0  0
  3 32  1  0  0  0  0
  3 33  1  0  0  0  0
  4 28  1  0  0  0  0
  4  5  1  0  0  0  0
  4 34  1  0  0  0  0
  5  6  1  0  0  0  0
  5 35  1  0  0  0  0
  5 36  1  0  0  0  0
  6  7  1  0  0  0  0
  6 25  1  0  0  0  0
  7 12  1  0  0  0  0
  7  8  2  0  0  0  0
  8  9  1  0  0  0  0
  9 10  2  0  0  0  0
  9 37  1  0  0  0  0
 10 11  1  0  0  0  0
 11 15  1  0  0  0  0
 11 12  2  0  0  0  0
 12 13  1  0  0  0  0
 13 14  2  0  0  0  0
 14 15  1  0  0  0  0
 14 38  1  0  0  0  0
 15 16  1  0  0  0  0
 16 17  1  0  0  0  0
 16 39  1  0  0  0  0
 16 40  1  0  0  0  0
 17 24  1  0  0  0  0
 17 18  1  0  0  0  0
 17 20  1  0  0  0  0
 18 19  1  0  0  0  0
 18 41  1  0  0  0  0
 18 42  1  0  0  0  0
 19 43  1  0  0  0  0
 20 21  1  0  0  0  0
 20 44  1  0  0  0  0
 20 45  1  0  0  0  0
 21 22  1  0  0  0  0
 21 46  1  0  0  0  0
 21 47  1  0  0  0  0
 22 23  1  0  0  0  0
 23 24  1  0  0  0  0
 23 48  1  0  0  0  0
 23 49  1  0  0  0  0
 24 50  1  0  0  0  0
 24 51  1  0  0  0  0
 25 26  1  0  0  0  0
 25 52  1  0  0  0  0
 25 53  1  0  0  0  0
 26 27  1  0  0  0  0
 26 28  1  0  0  0  0
 26 54  1  0  0  0  0
 27 55  1  0  0  0  0
 27 56  1  0  0  0  0
 27 57  1  0  0  0  0
M  END
> <s_m_source_file>
AV-unprocessed.smi

> <i_m_source_file_index>
19

> <i_lp_mmshare_version>
43012

> <i_f3d_flags>
0

> <s_epik_input>
W0NIM11PW0NIMl1bQ0BASF0xW0NIMl1OKFtDSDJdW0NASF0oTzEpW0NIM10pYyhuW2NIXW4yKWMoYzIzKW5bY0hdbjNbQ0gyXUM0KFtDSDJdW09IXSlbQ0gyXVtDSDJdT1tDSDJdW0NIMl00

> <s_epik_cmdline>
J2VwaWtfcHl0aG9uJywgJy1waCcsICc3LjAnLCAnLXRuJywgJzgnLCAnLW1hJywgJzIwMCcsICctbWV0YWxfYmluZGluZycsICctaW1hZScsICc8aW5maWxlLm1hZT4nLCAnLW9tYWUnLCAnPG91dGZpbGUubWFlPic=

> <r_lp_tautomer_probability>
1

> <r_epik_Ionization_Penalty>
6.20357e-05

> <r_epik_Ionization_Penalty_Charging>
0

> <r_epik_Ionization_Penalty_Neutral>
6.20357e-05

> <r_epik_State_Penalty>
-0

> <r_epik_Charging_Adjusted_Penalty>
0

> <i_epik_Tot_Q>
0

> <i_epik_Tot_abs_Q>
0

> <r_epik_Metal_State_Penalty>
-0

> <b_epik_Metal_Only>
0

> <s_lp_Force_Field>
OPLS_2005

> <r_lp_Energy>
39.3548

> <b_lp_Chiralities_Consistent>
1

> <s_lp_Variant>
AV-unprocessed.smi:19-1

> <Gold.Version>
5.8.1

> <Gold.Id.Protein>
6NUR|6NUR_protein|mol2

> <Gold.PLP.Fitness>
46.0201

> <Gold.PLP.PLP>
-38.3195

> <Gold.PLP.part.hbond>
-3.0000

> <Gold.PLP.part.metal>
0.0000

> <Gold.PLP.part.buried>
-1.8475

> <Gold.PLP.part.nonpolar>
-33.8902

> <Gold.PLP.part.repulsive>
0.2696

> <Gold.PLP.ligand.clash>
0.0000

> <Gold.PLP.ligand.torsion>
0.8690

> <Gold.PLP.Chemscore.Hbond>
2.0000

> <Gold.PLP.Chemscore.CHOScore>
0.9971

> <Gold.PLP.Chemscore.Metal>
0.0000

> <Gold.Chemscore.Hbonds>
donor molecule, donor type, donor heavy atom, donor atom, acceptor molecule, acceptor atom, score
      L1  H    19    43       P1  7948  0.50
      P1  H  7997  8010       L1     2  0.68
      L1  C     9    37       P1  7957  0.79

> <Gold.PLP.Chemscore.Internal.Correction>
0.4474

> <Gold.Rescore>
     Score         DG    S(hbond)    S(metal)    S(lipo)     H(rot)  DE(clash)    DE(int)     intcor
     11.94     -15.48       1.87        0.00      95.10       2.87       1.25       2.29       ----

> <Gold.Chemscore.Fitness>
11.9350

> <Gold.Chemscore.DG>
-15.4834

> <Gold.Chemscore.ZeroCoef>
-5.4800

> <Gold.Chemscore.Hbond>
1.8655

> <Gold.Chemscore.Metal>
0.0000

> <Gold.Chemscore.Lipo>
95.1040

> <Gold.Chemscore.Internal_Hbond>
0.0000

> <Gold.Chemscore.DEClash>
1.2539

> <Gold.Chemscore.DEInternal>
2.2944

> <Gold.Chemscore.Rot>
2.8729

> <Gold.Chemscore.Internal.Correction>
   9.000000E+99

> <Gold.Chemscore.Hbonds>
donor molecule, donor type, donor heavy atom, donor atom, acceptor molecule, acceptor atom, score
      L1  H    19    43       P1  7948  0.50
      P1  H  7997  8010       L1     2  0.57

> <Gold.Chemscore.Hbond.Weighted>
-6.2308

> <Gold.Chemscore.Metal.Weighted>
-0.0000

> <Gold.Chemscore.Lipo.Weighted>
-11.1272

> <Gold.Chemscore.Internal_Hbond.Weighted>
0.0000

> <Gold.Chemscore.DEClash.Weighted>
1.2539

> <Gold.Chemscore.DEInternal.Weighted>
2.2944

> <Gold.Chemscore.Rot.Weighted>
7.3546

> <Gold.Chemscore.Internal.Correction.Weighted>
   9.000000E+99

> <Gold.Protein.RotatedTorsions>
[ 6907 6896 6895 6894 ] final -148.95 input  -60.11 | X-H torsion
[ 7974 7965 7964 7962 ] final  130.87 input  175.53 | X-H torsion
[ 8008 7997 7996 7995 ] final    5.73 input   59.86 | X-H torsion
[ 10167 10162 10161 10158 ] final  103.39 input  -65.29 | X-H torsion
[ 10718 10713 10712 10709 ] final  121.06 input   66.30 | X-H torsion
[ 10763 10752 10751 10750 ] final   87.74 input  -60.55 | X-H torsion
[ 11005 11000 10999 10996 ] final  -93.63 input  -57.11 | X-H torsion

> <Gold.Protein.ActiveResidues>
 VAL166  LYS551  ARG553  GLY616  TRP617  ASP618  TYR619  PRO620  LYS621  CYS622 
 ASP623  PHE694  ASN695  SER759  ASP760  ASP761  ALA762  ILE779  LEU786  VAL792 
 PHE793  MET794  SER795  GLU796  ALA797  LYS798  CYS799  TRP800  GLU811  SER814 

> <Gold.Protein.RotatedAtoms>
  151.1771  133.4748  159.2593 H   0  0  0  0  0  0  0  0  0  0  0  0  # atno 6907 bound_to 6896
  151.1297  135.0123  159.8587 H   0  0  0  0  0  0  0  0  0  0  0  0  # atno 6908 bound_to 6896
  152.5459  134.1675  159.8636 H   0  0  0  0  0  0  0  0  0  0  0  0  # atno 6909 bound_to 6896
  145.0133  139.4200  143.5234 H   0  0  0  0  0  0  0  0  0  0  0  0  # atno 7974 bound_to 7965
  154.7321  140.2732  155.6447 H   0  0  0  0  0  0  0  0  0  0  0  0  # atno 8008 bound_to 7997
  156.2852  140.2714  156.1949 H   0  0  0  0  0  0  0  0  0  0  0  0  # atno 8009 bound_to 7997
  155.0368  140.0371  157.2485 H   0  0  0  0  0  0  0  0  0  0  0  0  # atno 8010 bound_to 7997
  139.7267  144.7046  151.0787 H   0  0  0  0  0  0  0  0  0  0  0  0  # atno 10167 bound_to 10162
  157.5845  131.1071  150.8121 H   0  0  0  0  0  0  0  0  0  0  0  0  # atno 10718 bound_to 10713
  153.1698  135.4532  154.9887 H   0  0  0  0  0  0  0  0  0  0  0  0  # atno 10763 bound_to 10752
  154.7958  135.3237  154.7673 H   0  0  0  0  0  0  0  0  0  0  0  0  # atno 10764 bound_to 10752
  153.8151  135.6951  153.4890 H   0  0  0  0  0  0  0  0  0  0  0  0  # atno 10765 bound_to 10752
  141.1492  133.7901  157.0186 H   0  0  0  0  0  0  0  0  0  0  0  0  # atno 11005 bound_to 11000
  146.3473  139.9590  142.8719 LP  0  0  0  0  0  0  0  0  0  0  0  0  # atno 17320 bound_to 7965
  145.1993  140.9847  143.4165 LP  0  0  0  0  0  0  0  0  0  0  0  0  # atno 17321 bound_to 7965
  140.7764  143.5096  150.9669 LP  0  0  0  0  0  0  0  0  0  0  0  0  # atno 17342 bound_to 10162
  139.8784  143.7103  152.3159 LP  0  0  0  0  0  0  0  0  0  0  0  0  # atno 17343 bound_to 10162
  156.8559  130.5096  149.5308 LP  0  0  0  0  0  0  0  0  0  0  0  0  # atno 17370 bound_to 10713
  156.0893  130.5883  150.9705 LP  0  0  0  0  0  0  0  0  0  0  0  0  # atno 17371 bound_to 10713
  140.0830  134.9637  157.1655 LP  0  0  0  0  0  0  0  0  0  0  0  0  # atno 17394 bound_to 11000
  140.3550  134.2557  155.7194 LP  0  0  0  0  0  0  0  0  0  0  0  0  # atno 17395 bound_to 11000

$$$$
