AV-unprocessed.smi:1801|AV-procd|sdf|7268|dock9
  -GOLD-   22720 8523D 1   1.00000     0.00000
 Structure written by MMmdl.
 38 39  0  0  0  0  0  0  0  0  2 V2000
  144.7148  135.6954  154.4470 C   0  0  0  0  0  0  0  0  0  0  0  0
  144.6456  135.3873  152.9412 C   0  0  1  0  0  0  0  0  0  0  0  0
  145.0254  136.6243  152.0935 C   0  0  0  0  0  0  0  0  0  0  0  0
  146.3825  137.0882  152.3628 N   0  0  0  0  0  0  0  0  0  0  0  0
  146.6873  138.2657  152.9273 C   0  0  0  0  0  0  0  0  0  0  0  0
  145.8381  139.0869  153.2751 O   0  0  0  0  0  0  0  0  0  0  0  0
  148.0152  138.4152  153.0584 N   0  0  0  0  0  0  0  0  0  0  0  0
  148.7176  139.5110  153.6197 C   0  0  0  0  0  0  0  0  0  0  0  0
  149.9791  139.3104  154.0189 N   0  0  0  0  0  0  0  0  0  0  0  0
  150.5467  140.4626  154.5493 N   0  0  0  0  0  0  0  0  0  0  0  0
  149.6897  141.4879  154.5295 C   0  0  0  0  0  0  0  0  0  0  0  0
  148.1029  141.1491  153.8613 S   0  0  0  0  0  0  0  0  0  0  0  0
  145.5333  134.1708  152.6017 C   0  0  0  0  0  0  0  0  0  0  0  0
  145.4724  133.8012  151.1665 N   0  3  0  0  0  0  0  0  0  0  0  0
  146.0868  132.4975  150.8492 C   0  0  0  0  0  0  0  0  0  0  0  0
  145.4750  132.0958  149.5115 C   0  0  0  0  0  0  0  0  0  0  0  0
  144.0373  132.5942  149.6294 C   0  0  0  0  0  0  0  0  0  0  0  0
  144.1189  133.8122  150.5602 C   0  0  0  0  0  0  0  0  0  0  0  0
  145.7248  135.9757  154.7481 H   0  0  0  0  0  0  0  0  0  0  0  0
  144.4206  134.8281  155.0386 H   0  0  0  0  0  0  0  0  0  0  0  0
  144.0471  136.5124  154.7212 H   0  0  0  0  0  0  0  0  0  0  0  0
  143.6111  135.1209  152.7225 H   0  0  0  0  0  0  0  0  0  0  0  0
  144.9482  136.3885  151.0317 H   0  0  0  0  0  0  0  0  0  0  0  0
  144.3319  137.4477  152.2710 H   0  0  0  0  0  0  0  0  0  0  0  0
  147.1384  136.4702  152.1044 H   0  0  0  0  0  0  0  0  0  0  0  0
  148.5920  137.6572  152.7239 H   0  0  0  0  0  0  0  0  0  0  0  0
  149.9943  142.4508  154.9122 H   0  0  0  0  0  0  0  0  0  0  0  0
  146.5678  134.3954  152.8659 H   0  0  0  0  0  0  0  0  0  0  0  0
  145.2415  133.3068  153.2009 H   0  0  0  0  0  0  0  0  0  0  0  0
  147.1747  132.5622  150.8119 H   0  0  0  0  0  0  0  0  0  0  0  0
  145.8155  131.7654  151.6119 H   0  0  0  0  0  0  0  0  0  0  0  0
  145.9840  132.6171  148.6994 H   0  0  0  0  0  0  0  0  0  0  0  0
  145.5397  131.0245  149.3187 H   0  0  0  0  0  0  0  0  0  0  0  0
  143.5984  132.8343  148.6605 H   0  0  0  0  0  0  0  0  0  0  0  0
  143.4190  131.8224  150.0902 H   0  0  0  0  0  0  0  0  0  0  0  0
  143.3338  133.7608  151.3160 H   0  0  0  0  0  0  0  0  0  0  0  0
  143.9864  134.7435  150.0083 H   0  0  0  0  0  0  0  0  0  0  0  0
  146.0111  134.4884  150.6586 H   0  0  0  0  0  0  0  0  0  0  0  0
  1  2  1  0  0  0  0
  1 19  1  0  0  0  0
  1 20  1  0  0  0  0
  1 21  1  0  0  0  0
  2  3  1  0  0  0  0
  2 13  1  0  0  0  0
  2 22  1  0  0  0  0
  3  4  1  0  0  0  0
  3 23  1  0  0  0  0
  3 24  1  0  0  0  0
  4  5  1  0  0  0  0
  4 25  1  0  0  0  0
  5  6  2  0  0  0  0
  5  7  1  0  0  0  0
  7  8  1  0  0  0  0
  7 26  1  0  0  0  0
  8 12  1  0  0  0  0
  8  9  2  0  0  0  0
  9 10  1  0  0  0  0
 10 11  2  0  0  0  0
 11 12  1  0  0  0  0
 11 27  1  0  0  0  0
 13 14  1  0  0  0  0
 13 28  1  0  0  0  0
 13 29  1  0  0  0  0
 14 18  1  0  0  0  0
 14 15  1  0  0  0  0
 14 38  1  0  0  0  0
 15 16  1  0  0  0  0
 15 30  1  0  0  0  0
 15 31  1  0  0  0  0
 16 17  1  0  0  0  0
 16 32  1  0  0  0  0
 16 33  1  0  0  0  0
 17 18  1  0  0  0  0
 17 34  1  0  0  0  0
 17 35  1  0  0  0  0
 18 36  1  0  0  0  0
 18 37  1  0  0  0  0
M  CHG  1  14   1
M  END
> <s_m_source_file>
AV-unprocessed.smi

> <i_m_source_file_index>
1801

> <i_lp_mmshare_version>
43012

> <i_f3d_flags>
0

> <s_epik_input>
W0NIMl0xW0NIMl1bQ0gyXVtDSDJdTjFbQ0gyXVtDQEhdKFtDSDNdKVtDSDJdW05IXUMoPU8pW05IXWMybm5bY0hdczI=

> <s_epik_cmdline>
J2VwaWtfcHl0aG9uJywgJy1waCcsICc3LjAnLCAnLXRuJywgJzgnLCAnLW1hJywgJzIwMCcsICctbWV0YWxfYmluZGluZycsICctaW1hZScsICc8aW5maWxlLm1hZT4nLCAnLW9tYWUnLCAnPG91dGZpbGUubWFlPic=

> <r_lp_tautomer_probability>
1

> <r_epik_Ionization_Penalty>
0.00281598

> <r_epik_Ionization_Penalty_Charging>
0.000371708

> <r_epik_Ionization_Penalty_Neutral>
0.00244427

> <r_epik_State_Penalty>
-0

> <r_epik_Charging_Adjusted_Penalty>
0.000371708

> <i_epik_Tot_Q>
1

> <i_epik_Tot_abs_Q>
1

> <r_epik_Metal_State_Penalty>
0.350595

> <b_epik_Metal_Only>
0

> <s_lp_Force_Field>
OPLS_2005

> <r_lp_Energy>
27.8609

> <b_lp_Chiralities_Consistent>
1

> <s_lp_Variant>
AV-unprocessed.smi:1801-2

> <Gold.Version>
5.8.1

> <Gold.Id.Protein>
6NUR|6NUR_protein|mol2

> <Gold.PLP.Fitness>
39.0736

> <Gold.PLP.PLP>
-27.4439

> <Gold.PLP.part.hbond>
-3.6414

> <Gold.PLP.part.metal>
0.0000

> <Gold.PLP.part.buried>
-3.3680

> <Gold.PLP.part.nonpolar>
-22.8717

> <Gold.PLP.part.repulsive>
2.9190

> <Gold.PLP.ligand.clash>
0.0000

> <Gold.PLP.ligand.torsion>
0.2073

> <Gold.PLP.Chemscore.Hbond>
3.0000

> <Gold.PLP.Chemscore.CHOScore>
1.0000

> <Gold.PLP.Chemscore.Metal>
0.0000

> <Gold.Chemscore.Hbonds>
donor molecule, donor type, donor heavy atom, donor atom, acceptor molecule, acceptor atom, score
      L1  H     4    25       P1  7948  0.98
      L1  H     7    26       P1  7948  1.00
      P1  H  7989  7998       L1    10  1.00
      L1  C    11    27       P1  8028  0.76

> <Gold.PLP.Chemscore.Internal.Correction>
0.0443

> <Gold.Rescore>
     Score         DG    S(hbond)    S(metal)    S(lipo)     H(rot)  DE(clash)    DE(int)     intcor
     14.58     -15.00       2.11        0.00      64.03       1.97       0.10       0.31       ----

> <Gold.Chemscore.Fitness>
14.5843

> <Gold.Chemscore.DG>
-14.9989

> <Gold.Chemscore.ZeroCoef>
-5.4800

> <Gold.Chemscore.Hbond>
2.1144

> <Gold.Chemscore.Metal>
0.0000

> <Gold.Chemscore.Lipo>
64.0321

> <Gold.Chemscore.Internal_Hbond>
0.0000

> <Gold.Chemscore.DEClash>
0.1034

> <Gold.Chemscore.DEInternal>
0.3112

> <Gold.Chemscore.Rot>
1.9667

> <Gold.Chemscore.Internal.Correction>
   9.000000E+99

> <Gold.Chemscore.Hbonds>
donor molecule, donor type, donor heavy atom, donor atom, acceptor molecule, acceptor atom, score
      L1  H     4    25       P1  7948  0.93
      L1  H     7    26       P1  7948  0.99
      P1  H  7989  7998       L1    10  0.16

> <Gold.Chemscore.Hbond.Weighted>
-7.0620

> <Gold.Chemscore.Metal.Weighted>
-0.0000

> <Gold.Chemscore.Lipo.Weighted>
-7.4918

> <Gold.Chemscore.Internal_Hbond.Weighted>
0.0000

> <Gold.Chemscore.DEClash.Weighted>
0.1034

> <Gold.Chemscore.DEInternal.Weighted>
0.3112

> <Gold.Chemscore.Rot.Weighted>
5.0348

> <Gold.Chemscore.Internal.Correction.Weighted>
   9.000000E+99

> <Gold.Protein.RotatedTorsions>
[ 6907 6896 6895 6894 ] final   -0.48 input  -60.11 | X-H torsion
[ 7974 7965 7964 7962 ] final   12.46 input  175.53 | X-H torsion
[ 8008 7997 7996 7995 ] final   43.94 input   59.86 | X-H torsion
[ 10167 10162 10161 10158 ] final -164.93 input  -65.29 | X-H torsion
[ 10718 10713 10712 10709 ] final -168.19 input   66.30 | X-H torsion
[ 10763 10752 10751 10750 ] final  -97.97 input  -60.55 | X-H torsion
[ 11005 11000 10999 10996 ] final   82.38 input  -57.11 | X-H torsion

> <Gold.Protein.ActiveResidues>
 VAL166  LYS551  ARG553  GLY616  TRP617  ASP618  TYR619  PRO620  LYS621  CYS622 
 ASP623  PHE694  ASN695  SER759  ASP760  ASP761  ALA762  ILE779  LEU786  VAL792 
 PHE793  MET794  SER795  GLU796  ALA797  LYS798  CYS799  TRP800  GLU811  SER814 

> <Gold.Protein.RotatedAtoms>
  151.5616  135.1065  159.9973 H   0  0  0  0  0  0  0  0  0  0  0  0  # atno 6907 bound_to 6896
  152.4444  133.7504  159.6701 H   0  0  0  0  0  0  0  0  0  0  0  0  # atno 6908 bound_to 6896
  150.8356  133.7951  159.3105 H   0  0  0  0  0  0  0  0  0  0  0  0  # atno 6909 bound_to 6896
  146.2351  139.9334  142.8493 H   0  0  0  0  0  0  0  0  0  0  0  0  # atno 7974 bound_to 7965
  155.3111  140.3391  155.4244 H   0  0  0  0  0  0  0  0  0  0  0  0  # atno 8008 bound_to 7997
  156.1955  140.1713  156.8045 H   0  0  0  0  0  0  0  0  0  0  0  0  # atno 8009 bound_to 7997
  154.5493  140.0709  156.8626 H   0  0  0  0  0  0  0  0  0  0  0  0  # atno 8010 bound_to 7997
  139.6217  144.0612  152.1938 H   0  0  0  0  0  0  0  0  0  0  0  0  # atno 10167 bound_to 10162
  156.6933  130.9168  151.3071 H   0  0  0  0  0  0  0  0  0  0  0  0  # atno 10718 bound_to 10713
  154.7374  135.5026  153.9065 H   0  0  0  0  0  0  0  0  0  0  0  0  # atno 10763 bound_to 10752
  153.1009  135.6685  153.9683 H   0  0  0  0  0  0  0  0  0  0  0  0  # atno 10764 bound_to 10752
  153.9469  135.3062  155.3419 H   0  0  0  0  0  0  0  0  0  0  0  0  # atno 10765 bound_to 10752
  139.9065  134.8067  156.2167 H   0  0  0  0  0  0  0  0  0  0  0  0  # atno 11005 bound_to 11000
  145.2022  140.9859  143.4149 LP  0  0  0  0  0  0  0  0  0  0  0  0  # atno 17320 bound_to 7965
  144.9763  139.3828  143.6284 LP  0  0  0  0  0  0  0  0  0  0  0  0  # atno 17321 bound_to 7965
  140.0255  144.6120  150.7531 LP  0  0  0  0  0  0  0  0  0  0  0  0  # atno 17342 bound_to 10162
  140.7386  143.2780  151.3683 LP  0  0  0  0  0  0  0  0  0  0  0  0  # atno 17343 bound_to 10162
  157.7000  130.9323  150.0758 LP  0  0  0  0  0  0  0  0  0  0  0  0  # atno 17370 bound_to 10713
  156.1781  130.3649  149.9072 LP  0  0  0  0  0  0  0  0  0  0  0  0  # atno 17371 bound_to 10713
  141.0431  133.6927  156.1634 LP  0  0  0  0  0  0  0  0  0  0  0  0  # atno 17394 bound_to 11000
  140.6925  134.4651  157.5588 LP  0  0  0  0  0  0  0  0  0  0  0  0  # atno 17395 bound_to 11000

$$$$
