AV-unprocessed.smi:1417|AV-procd|sdf|5767|dock4
  -GOLD-   22720 5403D 1   1.00000     0.00000
 Structure written by MMmdl.
 40 41  0  0  0  0  0  0  0  0  2 V2000
  153.5139  142.1444  160.3946 C   0  0  0  0  0  0  0  0  0  0  0  0
  152.5753  141.9583  159.2519 C   0  0  0  0  0  0  0  0  0  0  0  0
  151.6095  142.7533  158.7022 C   0  0  0  0  0  0  0  0  0  0  0  0
  151.1042  141.9514  157.6377 C   0  0  0  0  0  0  0  0  0  0  0  0
  150.0692  142.3061  156.7345 N   0  0  0  0  0  0  0  0  0  0  0  0
  149.5436  141.5751  155.7374 C   0  0  0  0  0  0  0  0  0  0  0  0
  149.8827  140.4316  155.4342 O   0  0  0  0  0  0  0  0  0  0  0  0
  148.5832  142.2547  155.0934 N   0  0  0  0  0  0  0  0  0  0  0  0
  147.7995  141.7510  153.9656 C   0  0  2  0  0  0  0  0  0  0  0  0
  146.5440  142.6087  153.7096 C   0  0  0  0  0  0  0  0  0  0  0  0
  145.4906  142.4324  154.8172 C   0  0  0  0  0  0  0  0  0  0  0  0
  145.1213  141.0010  154.9807 N   0  3  2  0  0  0  0  0  0  0  0  0
  144.0057  140.7928  155.9398 C   0  0  0  0  0  0  0  0  0  0  0  0
  143.3781  139.3986  155.8374 C   0  0  0  0  0  0  0  0  0  0  0  0
  142.8740  139.0503  154.6513 N   0  0  0  0  0  0  0  0  0  0  0  0
  143.3326  138.6517  156.8133 O   0  0  0  0  0  0  0  0  0  0  0  0
  146.3065  140.1642  155.2987 C   0  0  0  0  0  0  0  0  0  0  0  0
  147.3867  140.2888  154.2083 C   0  0  0  0  0  0  0  0  0  0  0  0
  151.7055  140.7792  157.5536 N   0  0  0  0  0  0  0  0  0  0  0  0
  152.6520  140.7755  158.5849 O   0  0  0  0  0  0  0  0  0  0  0  0
  153.2987  143.0701  160.9285 H   0  0  0  0  0  0  0  0  0  0  0  0
  154.5450  142.1880  160.0437 H   0  0  0  0  0  0  0  0  0  0  0  0
  153.4308  141.3193  161.1020 H   0  0  0  0  0  0  0  0  0  0  0  0
  151.3258  143.7442  159.0232 H   0  0  0  0  0  0  0  0  0  0  0  0
  149.6809  143.2278  156.8688 H   0  0  0  0  0  0  0  0  0  0  0  0
  148.3674  143.1860  155.4177 H   0  0  0  0  0  0  0  0  0  0  0  0
  148.4337  141.7802  153.0774 H   0  0  0  0  0  0  0  0  0  0  0  0
  146.8094  143.6618  153.6100 H   0  0  0  0  0  0  0  0  0  0  0  0
  146.1040  142.3202  152.7539 H   0  0  0  0  0  0  0  0  0  0  0  0
  145.8676  142.8244  155.7629 H   0  0  0  0  0  0  0  0  0  0  0  0
  144.6088  143.0216  154.5646 H   0  0  0  0  0  0  0  0  0  0  0  0
  144.3764  140.8918  156.9609 H   0  0  0  0  0  0  0  0  0  0  0  0
  143.2473  141.5660  155.8056 H   0  0  0  0  0  0  0  0  0  0  0  0
  142.4517  138.1418  154.5240 H   0  0  0  0  0  0  0  0  0  0  0  0
  142.9205  139.6991  153.8782 H   0  0  0  0  0  0  0  0  0  0  0  0
  146.7089  140.4549  156.2702 H   0  0  0  0  0  0  0  0  0  0  0  0
  146.0067  139.1189  155.3817 H   0  0  0  0  0  0  0  0  0  0  0  0
  147.0007  139.8684  153.2784 H   0  0  0  0  0  0  0  0  0  0  0  0
  148.2578  139.6877  154.4724 H   0  0  0  0  0  0  0  0  0  0  0  0
  144.7811  140.6815  154.0843 H   0  0  0  0  0  0  0  0  0  0  0  0
  1  2  1  0  0  0  0
  1 21  1  0  0  0  0
  1 22  1  0  0  0  0
  1 23  1  0  0  0  0
  2 20  1  0  0  0  0
  2  3  2  0  0  0  0
  3  4  1  0  0  0  0
  3 24  1  0  0  0  0
  4  5  1  0  0  0  0
  4 19  2  0  0  0  0
  5  6  1  0  0  0  0
  5 25  1  0  0  0  0
  6  7  2  0  0  0  0
  6  8  1  0  0  0  0
  8  9  1  0  0  0  0
  8 26  1  0  0  0  0
  9 18  1  0  0  0  0
  9 10  1  0  0  0  0
  9 27  1  0  0  0  0
 10 11  1  0  0  0  0
 10 28  1  0  0  0  0
 10 29  1  0  0  0  0
 11 12  1  0  0  0  0
 11 30  1  0  0  0  0
 11 31  1  0  0  0  0
 12 13  1  0  0  0  0
 12 17  1  0  0  0  0
 12 40  1  0  0  0  0
 13 14  1  0  0  0  0
 13 32  1  0  0  0  0
 13 33  1  0  0  0  0
 14 15  1  0  0  0  0
 14 16  2  0  0  0  0
 15 34  1  0  0  0  0
 15 35  1  0  0  0  0
 17 18  1  0  0  0  0
 17 36  1  0  0  0  0
 17 37  1  0  0  0  0
 18 38  1  0  0  0  0
 18 39  1  0  0  0  0
 19 20  1  0  0  0  0
M  CHG  1  12   1
M  END
> <s_m_source_file>
AV-unprocessed.smi

> <i_m_source_file_index>
1417

> <i_lp_mmshare_version>
43012

> <i_f3d_flags>
0

> <s_epik_input>
W0NIM11jMVtjSF1jKG5vMSlbTkhdQyg9TylbTkhdW0NIXTJbQ0gyXVtDSDJdTihbQ0gyXVtDSDJdMilbQ0gyXUMoPU8pW05IMl0=

> <s_epik_cmdline>
J2VwaWtfcHl0aG9uJywgJy1waCcsICc3LjAnLCAnLXRuJywgJzgnLCAnLW1hJywgJzIwMCcsICctbWV0YWxfYmluZGluZycsICctaW1hZScsICc8aW5maWxlLm1hZT4nLCAnLW9tYWUnLCAnPG91dGZpbGUubWFlPic=

> <r_epik_Ionization_Penalty>
0.867698

> <r_epik_Ionization_Penalty_Charging>
0.867623

> <r_epik_Ionization_Penalty_Neutral>
7.46743e-05

> <r_epik_State_Penalty>
0.904669

> <r_epik_Charging_Adjusted_Penalty>
1.77229

> <i_epik_Tot_Q>
1

> <i_epik_Tot_abs_Q>
1

> <r_epik_Metal_State_Penalty>
0.930696

> <b_epik_Metal_Only>
0

> <s_lp_Force_Field>
OPLS_2005

> <r_lp_Energy>
12.5471

> <b_lp_Chiralities_Consistent>
1

> <s_lp_Variant>
AV-unprocessed.smi:1417-3

> <Gold.Version>
5.8.1

> <Gold.Id.Protein>
6NUR|6NUR_protein|mol2

> <Gold.PLP.Fitness>
44.2080

> <Gold.PLP.PLP>
-30.1266

> <Gold.PLP.part.hbond>
-4.0000

> <Gold.PLP.part.metal>
0.0000

> <Gold.PLP.part.buried>
-6.1017

> <Gold.PLP.part.nonpolar>
-20.4108

> <Gold.PLP.part.repulsive>
0.3174

> <Gold.PLP.ligand.clash>
0.0000

> <Gold.PLP.ligand.torsion>
0.2999

> <Gold.PLP.Chemscore.Hbond>
4.8800

> <Gold.PLP.Chemscore.CHOScore>
0.0000

> <Gold.PLP.Chemscore.Metal>
0.0000

> <Gold.Chemscore.Hbonds>
donor molecule, donor type, donor heavy atom, donor atom, acceptor molecule, acceptor atom, score
      L1  H     5    25       P1  8028  0.67
      L1  H     8    26       P1  8028  0.98
      L1  H    12    40       P1 10175  2.00
      L1  H    15    35       P1 10175  1.00

> <Gold.PLP.Chemscore.Internal.Correction>
0.0414

> <Gold.Rescore>
     Score         DG    S(hbond)    S(metal)    S(lipo)     H(rot)  DE(clash)    DE(int)     intcor
     16.45     -20.16       3.87        0.00      59.84       2.05       0.72       2.99       ----

> <Gold.Chemscore.Fitness>
16.4491

> <Gold.Chemscore.DG>
-20.1584

> <Gold.Chemscore.ZeroCoef>
-5.4800

> <Gold.Chemscore.Hbond>
3.8666

> <Gold.Chemscore.Metal>
0.0000

> <Gold.Chemscore.Lipo>
59.8381

> <Gold.Chemscore.Internal_Hbond>
0.0000

> <Gold.Chemscore.DEClash>
0.7168

> <Gold.Chemscore.DEInternal>
2.9925

> <Gold.Chemscore.Rot>
2.0457

> <Gold.Chemscore.Internal.Correction>
   9.000000E+99

> <Gold.Chemscore.Hbonds>
donor molecule, donor type, donor heavy atom, donor atom, acceptor molecule, acceptor atom, score
      L1  H     5    25       P1  8028  0.64
      L1  H     8    26       P1  8028  0.91
      L1  H    12    40       P1 10175  0.98
      L1  H    15    35       P1 10175  0.99

> <Gold.Chemscore.Hbond.Weighted>
-12.9144

> <Gold.Chemscore.Metal.Weighted>
-0.0000

> <Gold.Chemscore.Lipo.Weighted>
-7.0011

> <Gold.Chemscore.Internal_Hbond.Weighted>
0.0000

> <Gold.Chemscore.DEClash.Weighted>
0.7168

> <Gold.Chemscore.DEInternal.Weighted>
2.9925

> <Gold.Chemscore.Rot.Weighted>
5.2371

> <Gold.Chemscore.Internal.Correction.Weighted>
   9.000000E+99

> <Gold.Protein.RotatedTorsions>
[ 6907 6896 6895 6894 ] final  -52.52 input  -60.11 | X-H torsion
[ 7974 7965 7964 7962 ] final -135.68 input  175.53 | X-H torsion
[ 8008 7997 7996 7995 ] final   66.23 input   59.86 | X-H torsion
[ 10167 10162 10161 10158 ] final  -30.79 input  -65.29 | X-H torsion
[ 10718 10713 10712 10709 ] final   64.32 input   66.30 | X-H torsion
[ 10763 10752 10751 10750 ] final -121.53 input  -60.55 | X-H torsion
[ 11005 11000 10999 10996 ] final  -43.81 input  -57.11 | X-H torsion

> <Gold.Protein.ActiveResidues>
 VAL166  LYS551  ARG553  GLY616  TRP617  ASP618  TYR619  PRO620  LYS621  CYS622 
 ASP623  PHE694  ASN695  SER759  ASP760  ASP761  ALA762  ILE779  LEU786  VAL792 
 PHE793  MET794  SER795  GLU796  ALA797  LYS798  CYS799  TRP800  GLU811  SER814 

> <Gold.Protein.RotatedAtoms>
  150.8510  134.7835  159.7008 H   0  0  0  0  0  0  0  0  0  0  0  0  # atno 6907 bound_to 6896
  152.4575  134.5256  159.9805 H   0  0  0  0  0  0  0  0  0  0  0  0  # atno 6908 bound_to 6896
  151.5377  133.3400  159.2965 H   0  0  0  0  0  0  0  0  0  0  0  0  # atno 6909 bound_to 6896
  144.8993  140.6749  143.5095 H   0  0  0  0  0  0  0  0  0  0  0  0  # atno 7974 bound_to 7965
  155.6742  140.3497  155.4830 H   0  0  0  0  0  0  0  0  0  0  0  0  # atno 8008 bound_to 7997
  155.9662  140.1147  157.0875 H   0  0  0  0  0  0  0  0  0  0  0  0  # atno 8009 bound_to 7997
  154.4155  140.1166  156.5232 H   0  0  0  0  0  0  0  0  0  0  0  0  # atno 8010 bound_to 7997
  140.7245  143.3821  151.1582 H   0  0  0  0  0  0  0  0  0  0  0  0  # atno 10167 bound_to 10162
  157.6031  130.9153  149.9830 H   0  0  0  0  0  0  0  0  0  0  0  0  # atno 10718 bound_to 10713
  154.8670  135.4164  154.2636 H   0  0  0  0  0  0  0  0  0  0  0  0  # atno 10763 bound_to 10752
  153.3559  135.7001  153.6756 H   0  0  0  0  0  0  0  0  0  0  0  0  # atno 10764 bound_to 10752
  153.5677  135.3597  155.2797 H   0  0  0  0  0  0  0  0  0  0  0  0  # atno 10765 bound_to 10752
  141.0408  133.6780  156.2784 H   0  0  0  0  0  0  0  0  0  0  0  0  # atno 11005 bound_to 11000
  145.3644  139.1673  143.4366 LP  0  0  0  0  0  0  0  0  0  0  0  0  # atno 17320 bound_to 7965
  146.3099  140.3710  142.8674 LP  0  0  0  0  0  0  0  0  0  0  0  0  # atno 17321 bound_to 7965
  139.7411  143.8922  152.3050 LP  0  0  0  0  0  0  0  0  0  0  0  0  # atno 17342 bound_to 10162
  139.8744  144.7051  150.8950 LP  0  0  0  0  0  0  0  0  0  0  0  0  # atno 17343 bound_to 10162
  156.1110  130.3650  150.0050 LP  0  0  0  0  0  0  0  0  0  0  0  0  # atno 17370 bound_to 10713
  156.8148  130.9337  151.3643 LP  0  0  0  0  0  0  0  0  0  0  0  0  # atno 17371 bound_to 10713
  140.6237  134.5335  157.5551 LP  0  0  0  0  0  0  0  0  0  0  0  0  # atno 17394 bound_to 11000
  139.9274  134.8028  156.1027 LP  0  0  0  0  0  0  0  0  0  0  0  0  # atno 17395 bound_to 11000

$$$$
