AV-unprocessed.smi:613|AV-procd|sdf|3066|dock6
  -GOLD-   2262023593D 1   1.00000     0.00000
 Structure written by MMmdl.
 39 40  0  0  0  0  0  0  0  0  2 V2000
  149.4139  141.8206  156.6370 C   0  0  0  0  0  0  0  0  0  0  0  0
  150.4748  141.5719  157.6058 N   0  0  0  0  0  0  0  0  0  0  0  0
  151.0880  140.2436  157.6470 C   0  0  0  0  0  0  0  0  0  0  0  0
  150.5782  139.3190  156.5262 C   0  0  2  0  0  0  0  0  0  0  0  0
  150.9825  137.8510  156.7697 C   0  0  0  0  0  0  0  0  0  0  0  0
  150.5681  136.9789  155.6668 N   0  0  0  0  0  0  0  0  0  0  0  0
  150.9122  135.5639  155.8600 C   0  0  0  0  0  0  0  0  0  0  0  0
  150.0044  134.8160  156.8453 C   0  0  0  0  0  0  0  0  0  0  0  0
  149.4585  133.6725  156.4240 N   0  0  0  0  0  0  0  0  0  0  0  0
  149.8030  135.2624  157.9730 O   0  0  0  0  0  0  0  0  0  0  0  0
  151.1000  137.4928  154.4082 C   0  0  0  0  0  0  0  0  0  0  0  0
  150.7100  138.9621  154.1799 C   0  0  0  0  0  0  0  0  0  0  0  0
  151.1422  139.7435  155.2879 O   0  0  0  0  0  0  0  0  0  0  0  0
  151.1172  142.6773  158.2115 C   0  0  0  0  0  0  0  0  0  0  0  0
  152.2057  142.5376  159.1074 C   0  0  0  0  0  0  0  0  0  0  0  0
  152.7797  143.6933  159.6633 C   0  0  0  0  0  0  0  0  0  0  0  0
  152.2352  144.9336  159.2910 C   0  0  0  0  0  0  0  0  0  0  0  0
  151.2001  145.0574  158.4328 N   0  0  0  0  0  0  0  0  0  0  0  0
  150.6756  143.9316  157.9193 N   0  3  0  0  0  0  0  0  0  0  0  0
  148.5615  142.3040  157.1154 H   0  0  0  0  0  0  0  0  0  0  0  0
  149.0607  140.8880  156.1958 H   0  0  0  0  0  0  0  0  0  0  0  0
  149.7708  142.4575  155.8269 H   0  0  0  0  0  0  0  0  0  0  0  0
  152.1766  140.3010  157.6358 H   0  0  0  0  0  0  0  0  0  0  0  0
  150.8354  139.8020  158.6118 H   0  0  0  0  0  0  0  0  0  0  0  0
  149.4897  139.3814  156.4683 H   0  0  0  0  0  0  0  0  0  0  0  0
  152.0635  137.7858  156.9058 H   0  0  0  0  0  0  0  0  0  0  0  0
  150.5322  137.5259  157.7078 H   0  0  0  0  0  0  0  0  0  0  0  0
  150.8461  135.0383  154.9063 H   0  0  0  0  0  0  0  0  0  0  0  0
  151.9512  135.4771  156.1841 H   0  0  0  0  0  0  0  0  0  0  0  0
  148.8580  133.1422  157.0381 H   0  0  0  0  0  0  0  0  0  0  0  0
  149.6535  133.3394  155.4907 H   0  0  0  0  0  0  0  0  0  0  0  0
  152.1878  137.4042  154.3992 H   0  0  0  0  0  0  0  0  0  0  0  0
  150.7328  136.8930  153.5745 H   0  0  0  0  0  0  0  0  0  0  0  0
  151.1774  139.3427  153.2714 H   0  0  0  0  0  0  0  0  0  0  0  0
  149.6311  139.0628  154.0524 H   0  0  0  0  0  0  0  0  0  0  0  0
  152.6064  141.5719  159.3766 H   0  0  0  0  0  0  0  0  0  0  0  0
  153.6093  143.6313  160.3521 H   0  0  0  0  0  0  0  0  0  0  0  0
  152.6397  145.8521  159.6906 H   0  0  0  0  0  0  0  0  0  0  0  0
  149.8893  144.0201  157.2751 H   0  0  0  0  0  0  0  0  0  0  0  0
  1  2  1  0  0  0  0
  1 20  1  0  0  0  0
  1 21  1  0  0  0  0
  1 22  1  0  0  0  0
  2  3  1  0  0  0  0
  2 14  1  0  0  0  0
  3  4  1  0  0  0  0
  3 23  1  0  0  0  0
  3 24  1  0  0  0  0
  4 13  1  0  0  0  0
  4  5  1  0  0  0  0
  4 25  1  0  0  0  0
  5  6  1  0  0  0  0
  5 26  1  0  0  0  0
  5 27  1  0  0  0  0
  6  7  1  0  0  0  0
  6 11  1  0  0  0  0
  7  8  1  0  0  0  0
  7 28  1  0  0  0  0
  7 29  1  0  0  0  0
  8  9  1  0  0  0  0
  8 10  2  0  0  0  0
  9 30  1  0  0  0  0
  9 31  1  0  0  0  0
 11 12  1  0  0  0  0
 11 32  1  0  0  0  0
 11 33  1  0  0  0  0
 12 13  1  0  0  0  0
 12 34  1  0  0  0  0
 12 35  1  0  0  0  0
 14 19  1  0  0  0  0
 14 15  2  0  0  0  0
 15 16  1  0  0  0  0
 15 36  1  0  0  0  0
 16 17  2  0  0  0  0
 16 37  1  0  0  0  0
 17 18  1  0  0  0  0
 17 38  1  0  0  0  0
 18 19  2  0  0  0  0
 19 39  1  0  0  0  0
M  CHG  1  19   1
M  END
> <s_m_source_file>
AV-unprocessed.smi

> <i_m_source_file_index>
613

> <i_lp_mmshare_version>
43012

> <i_f3d_flags>
0

> <s_epik_input>
bjFuW2NIXVtjSF1bY0hdYzFOKFtDSDNdKVtDSDJdW0NAQEhdMltDSDJdTihbQ0gyXVtDSDJdTzIpW0NIMl1DKD1PKVtOSDJd

> <s_epik_cmdline>
J2VwaWtfcHl0aG9uJywgJy1waCcsICc3LjAnLCAnLXRuJywgJzgnLCAnLW1hJywgJzIwMCcsICctbWV0YWxfYmluZGluZycsICctaW1hZScsICc8aW5maWxlLm1hZT4nLCAnLW9tYWUnLCAnPG91dGZpbGUubWFlPic=

> <r_lp_tautomer_probability>
0.966961

> <r_epik_Ionization_Penalty>
1.86301

> <r_epik_Ionization_Penalty_Charging>
1.86058

> <r_epik_Ionization_Penalty_Neutral>
0.00243207

> <r_epik_State_Penalty>
1.48112

> <r_epik_Charging_Adjusted_Penalty>
3.3417

> <i_epik_Tot_Q>
1

> <i_epik_Tot_abs_Q>
1

> <r_epik_Metal_State_Penalty>
1.50193

> <b_epik_Metal_Only>
0

> <s_lp_Force_Field>
OPLS_2005

> <r_lp_Energy>
27.1625

> <b_lp_Chiralities_Consistent>
1

> <s_lp_Variant>
AV-unprocessed.smi:613-3

> <Gold.Version>
5.8.1

> <Gold.Id.Protein>
6NUR|6NUR_protein|mol2

> <Gold.PLP.Fitness>
38.7101

> <Gold.PLP.PLP>
-30.6533

> <Gold.PLP.part.hbond>
-2.5965

> <Gold.PLP.part.metal>
0.0000

> <Gold.PLP.part.buried>
-3.4510

> <Gold.PLP.part.nonpolar>
-24.2842

> <Gold.PLP.part.repulsive>
0.3360

> <Gold.PLP.ligand.clash>
0.0000

> <Gold.PLP.ligand.torsion>
0.5296

> <Gold.PLP.Chemscore.Hbond>
2.9600

> <Gold.PLP.Chemscore.CHOScore>
0.0000

> <Gold.PLP.Chemscore.Metal>
0.0000

> <Gold.Chemscore.Hbonds>
donor molecule, donor type, donor heavy atom, donor atom, acceptor molecule, acceptor atom, score
      L1  H    19    39       P1  8028  2.00
      P1  H  6896  6908       L1    10  0.99

> <Gold.PLP.Chemscore.Internal.Correction>
0.2360

> <Gold.Rescore>
     Score         DG    S(hbond)    S(metal)    S(lipo)     H(rot)  DE(clash)    DE(int)     intcor
     13.55     -15.33       1.94        0.00      77.77       2.23       0.14       1.64       ----

> <Gold.Chemscore.Fitness>
13.5498

> <Gold.Chemscore.DG>
-15.3286

> <Gold.Chemscore.ZeroCoef>
-5.4800

> <Gold.Chemscore.Hbond>
1.9372

> <Gold.Chemscore.Metal>
0.0000

> <Gold.Chemscore.Lipo>
77.7732

> <Gold.Chemscore.Internal_Hbond>
0.0000

> <Gold.Chemscore.DEClash>
0.1428

> <Gold.Chemscore.DEInternal>
1.6360

> <Gold.Chemscore.Rot>
2.2348

> <Gold.Chemscore.Internal.Correction>
   9.000000E+99

> <Gold.Chemscore.Hbonds>
donor molecule, donor type, donor heavy atom, donor atom, acceptor molecule, acceptor atom, score
      L1  H    19    39       P1  8028  0.66
      P1  H  6896  6908       L1    10  0.91

> <Gold.Chemscore.Hbond.Weighted>
-6.4702

> <Gold.Chemscore.Metal.Weighted>
-0.0000

> <Gold.Chemscore.Lipo.Weighted>
-9.0995

> <Gold.Chemscore.Internal_Hbond.Weighted>
0.0000

> <Gold.Chemscore.DEClash.Weighted>
0.1428

> <Gold.Chemscore.DEInternal.Weighted>
1.6360

> <Gold.Chemscore.Rot.Weighted>
5.7211

> <Gold.Chemscore.Internal.Correction.Weighted>
   9.000000E+99

> <Gold.Protein.RotatedTorsions>
[ 6907 6896 6895 6894 ] final  162.04 input  -60.11 | X-H torsion
[ 7974 7965 7964 7962 ] final   34.36 input  175.53 | X-H torsion
[ 8008 7997 7996 7995 ] final   37.41 input   59.86 | X-H torsion
[ 10167 10162 10161 10158 ] final   77.41 input  -65.29 | X-H torsion
[ 10718 10713 10712 10709 ] final  -77.57 input   66.30 | X-H torsion
[ 10763 10752 10751 10750 ] final  164.76 input  -60.55 | X-H torsion
[ 11005 11000 10999 10996 ] final -176.39 input  -57.11 | X-H torsion

> <Gold.Protein.ActiveResidues>
 VAL166  LYS551  ARG553  GLY616  TRP617  ASP618  TYR619  PRO620  LYS621  CYS622 
 ASP623  PHE694  ASN695  SER759  ASP760  ASP761  ALA762  ILE779  LEU786  VAL792 
 PHE793  MET794  SER795  GLU796  ALA797  LYS798  CYS799  TRP800  GLU811  SER814 

> <Gold.Protein.RotatedAtoms>
  151.9465  133.3653  159.3983 H   0  0  0  0  0  0  0  0  0  0  0  0  # atno 6907 bound_to 6896
  150.6988  134.4385  159.5290 H   0  0  0  0  0  0  0  0  0  0  0  0  # atno 6908 bound_to 6896
  152.2051  134.8553  160.0554 H   0  0  0  0  0  0  0  0  0  0  0  0  # atno 6909 bound_to 6896
  146.1358  139.6279  142.9196 H   0  0  0  0  0  0  0  0  0  0  0  0  # atno 7974 bound_to 7965
  155.2033  140.3317  155.4340 H   0  0  0  0  0  0  0  0  0  0  0  0  # atno 8008 bound_to 7997
  156.2398  140.1890  156.7068 H   0  0  0  0  0  0  0  0  0  0  0  0  # atno 8009 bound_to 7997
  154.6126  140.0606  156.9499 H   0  0  0  0  0  0  0  0  0  0  0  0  # atno 8010 bound_to 7997
  139.9818  144.5821  150.7894 H   0  0  0  0  0  0  0  0  0  0  0  0  # atno 10167 bound_to 10162
  156.0141  130.4495  150.3366 H   0  0  0  0  0  0  0  0  0  0  0  0  # atno 10718 bound_to 10713
  154.3139  135.2757  155.2553 H   0  0  0  0  0  0  0  0  0  0  0  0  # atno 10763 bound_to 10752
  154.4936  135.5827  153.6481 H   0  0  0  0  0  0  0  0  0  0  0  0  # atno 10764 bound_to 10752
  152.9884  135.6140  154.3318 H   0  0  0  0  0  0  0  0  0  0  0  0  # atno 10765 bound_to 10752
  140.4526  134.6329  157.4808 H   0  0  0  0  0  0  0  0  0  0  0  0  # atno 11005 bound_to 11000
  145.5159  141.0434  143.2462 LP  0  0  0  0  0  0  0  0  0  0  0  0  # atno 17320 bound_to 7965
  144.7738  139.6674  143.7183 LP  0  0  0  0  0  0  0  0  0  0  0  0  # atno 17321 bound_to 7965
  140.7486  143.2925  151.3292 LP  0  0  0  0  0  0  0  0  0  0  0  0  # atno 17342 bound_to 10162
  139.6404  144.0550  152.2550 LP  0  0  0  0  0  0  0  0  0  0  0  0  # atno 17343 bound_to 10162
  157.1462  131.0309  151.2905 LP  0  0  0  0  0  0  0  0  0  0  0  0  # atno 17370 bound_to 10713
  157.4430  130.7555  149.7086 LP  0  0  0  0  0  0  0  0  0  0  0  0  # atno 17371 bound_to 10713
  139.9997  134.6856  155.9551 LP  0  0  0  0  0  0  0  0  0  0  0  0  # atno 17394 bound_to 11000
  141.1657  133.6537  156.4472 LP  0  0  0  0  0  0  0  0  0  0  0  0  # atno 17395 bound_to 11000

$$$$
