AV-unprocessed.smi:1253|AV-procd|sdf|5268|dock3
  -GOLD-   22720 4383D 1   1.00000     0.00000
 Structure written by MMmdl.
 31 32  0  0  0  0  0  0  0  0  1 V2000
  153.7179  141.7160  160.6464 C   0  0  0  0  0  0  0  0  0  0  0  0
  152.9006  142.3160  159.5409 C   0  0  0  0  0  0  0  0  0  0  0  0
  151.9182  141.6769  158.7298 C   0  0  0  0  0  0  0  0  0  0  0  0
  151.5060  142.6870  157.9041 C   0  0  0  0  0  0  0  0  0  0  0  0
  150.5739  142.6571  156.9147 N   0  0  0  0  0  0  0  0  0  0  0  0
  150.3114  141.6730  156.0368 C   0  0  0  0  0  0  0  0  0  0  0  0
  150.8943  140.5899  155.9819 O   0  0  0  0  0  0  0  0  0  0  0  0
  149.3166  142.0182  155.2070 N   0  0  0  0  0  0  0  0  0  0  0  0
  148.7963  141.1813  154.1335 C   0  0  0  0  0  0  0  0  0  0  0  0
  147.3371  141.4149  153.7903 C   0  0  0  0  0  0  0  0  0  0  0  0
  146.6862  142.7579  154.0249 C   0  0  0  0  0  0  0  0  0  0  0  0
  146.3102  141.5757  154.8860 C   0  0  0  0  0  0  0  0  0  0  0  0
  152.2043  143.8316  158.2185 N   0  0  0  0  0  0  0  0  0  0  0  0
  152.1215  145.1524  157.6263 C   0  0  0  0  0  0  0  0  0  0  0  0
  153.0659  143.5973  159.2320 N   0  0  0  0  0  0  0  0  0  0  0  0
  153.5228  140.6480  160.7455 H   0  0  0  0  0  0  0  0  0  0  0  0
  153.4878  142.1854  161.6032 H   0  0  0  0  0  0  0  0  0  0  0  0
  154.7846  141.8416  160.4596 H   0  0  0  0  0  0  0  0  0  0  0  0
  151.5881  140.6497  158.7654 H   0  0  0  0  0  0  0  0  0  0  0  0
  150.0076  143.4885  156.8329 H   0  0  0  0  0  0  0  0  0  0  0  0
  148.8920  142.9269  155.3217 H   0  0  0  0  0  0  0  0  0  0  0  0
  149.3941  141.3299  153.2327 H   0  0  0  0  0  0  0  0  0  0  0  0
  148.9347  140.1385  154.4208 H   0  0  0  0  0  0  0  0  0  0  0  0
  146.9979  140.8630  152.9154 H   0  0  0  0  0  0  0  0  0  0  0  0
  147.2877  143.5411  154.4823 H   0  0  0  0  0  0  0  0  0  0  0  0
  145.9590  143.0974  153.2901 H   0  0  0  0  0  0  0  0  0  0  0  0
  145.3316  141.1277  154.7263 H   0  0  0  0  0  0  0  0  0  0  0  0
  146.6613  141.5739  155.9161 H   0  0  0  0  0  0  0  0  0  0  0  0
  151.1005  145.5265  157.7068 H   0  0  0  0  0  0  0  0  0  0  0  0
  152.4001  145.0988  156.5736 H   0  0  0  0  0  0  0  0  0  0  0  0
  152.7929  145.8453  158.1355 H   0  0  0  0  0  0  0  0  0  0  0  0
  1  2  1  0  0  0  0
  1 16  1  0  0  0  0
  1 17  1  0  0  0  0
  1 18  1  0  0  0  0
  2 15  2  0  0  0  0
  2  3  1  0  0  0  0
  3  4  2  0  0  0  0
  3 19  1  0  0  0  0
  4  5  1  0  0  0  0
  4 13  1  0  0  0  0
  5  6  1  0  0  0  0
  5 20  1  0  0  0  0
  6  7  2  0  0  0  0
  6  8  1  0  0  0  0
  8  9  1  0  0  0  0
  8 21  1  0  0  0  0
  9 10  1  0  0  0  0
  9 22  1  0  0  0  0
  9 23  1  0  0  0  0
 10 12  1  0  0  0  0
 10 11  1  0  0  0  0
 10 24  1  0  0  0  0
 11 12  1  0  0  0  0
 11 25  1  0  0  0  0
 11 26  1  0  0  0  0
 12 27  1  0  0  0  0
 12 28  1  0  0  0  0
 13 14  1  0  0  0  0
 13 15  1  0  0  0  0
 14 29  1  0  0  0  0
 14 30  1  0  0  0  0
 14 31  1  0  0  0  0
M  END
> <s_m_source_file>
AV-unprocessed.smi

> <i_m_source_file_index>
1253

> <i_lp_mmshare_version>
43012

> <i_f3d_flags>
0

> <s_epik_input>
W0NIM11jMVtjSF1jKG4objEpW0NIM10pW05IXUMoPU8pW05IXVtDSDJdW0NIXTJbQ0gyXVtDSDJdMg==

> <s_epik_cmdline>
J2VwaWtfcHl0aG9uJywgJy1waCcsICc3LjAnLCAnLXRuJywgJzgnLCAnLW1hJywgJzIwMCcsICctbWV0YWxfYmluZGluZycsICctaW1hZScsICc8aW5maWxlLm1hZT4nLCAnLW9tYWUnLCAnPG91dGZpbGUubWFlPic=

> <r_lp_tautomer_probability>
1

> <r_epik_Ionization_Penalty>
9.92667e-05

> <r_epik_Ionization_Penalty_Charging>
0

> <r_epik_Ionization_Penalty_Neutral>
9.92667e-05

> <r_epik_State_Penalty>
-0

> <r_epik_Charging_Adjusted_Penalty>
0

> <i_epik_Tot_Q>
0

> <i_epik_Tot_abs_Q>
0

> <r_epik_Metal_State_Penalty>
-0

> <b_epik_Metal_Only>
0

> <s_lp_Force_Field>
OPLS_2005

> <r_lp_Energy>
13.2565

> <b_lp_Chiralities_Consistent>
1

> <s_lp_Variant>
AV-unprocessed.smi:1253-1

> <Gold.Version>
5.8.1

> <Gold.Id.Protein>
6NUR|6NUR_protein|mol2

> <Gold.PLP.Fitness>
41.9565

> <Gold.PLP.PLP>
-36.9250

> <Gold.PLP.part.hbond>
-2.0000

> <Gold.PLP.part.metal>
0.0000

> <Gold.PLP.part.buried>
-6.4375

> <Gold.PLP.part.nonpolar>
-28.8237

> <Gold.PLP.part.repulsive>
0.2406

> <Gold.PLP.ligand.clash>
0.0000

> <Gold.PLP.ligand.torsion>
0.7412

> <Gold.PLP.Chemscore.Hbond>
1.9920

> <Gold.PLP.Chemscore.CHOScore>
0.0000

> <Gold.PLP.Chemscore.Metal>
0.0000

> <Gold.Chemscore.Hbonds>
donor molecule, donor type, donor heavy atom, donor atom, acceptor molecule, acceptor atom, score
      L1  H     5    20       P1  8028  0.99
      L1  H     8    21       P1  8028  1.00

> <Gold.PLP.Chemscore.Internal.Correction>
0.5380

> <Gold.Rescore>
     Score         DG    S(hbond)    S(metal)    S(lipo)     H(rot)  DE(clash)    DE(int)     intcor
     14.93     -17.15       1.92        0.00      71.44       1.21       1.48       0.74       ----

> <Gold.Chemscore.Fitness>
14.9274

> <Gold.Chemscore.DG>
-17.1496

> <Gold.Chemscore.ZeroCoef>
-5.4800

> <Gold.Chemscore.Hbond>
1.9191

> <Gold.Chemscore.Metal>
0.0000

> <Gold.Chemscore.Lipo>
71.4391

> <Gold.Chemscore.Internal_Hbond>
0.0000

> <Gold.Chemscore.DEClash>
1.4835

> <Gold.Chemscore.DEInternal>
0.7388

> <Gold.Chemscore.Rot>
1.2103

> <Gold.Chemscore.Internal.Correction>
   9.000000E+99

> <Gold.Chemscore.Hbonds>
donor molecule, donor type, donor heavy atom, donor atom, acceptor molecule, acceptor atom, score
      L1  H     5    20       P1  8028  0.87
      L1  H     8    21       P1  8028  0.99

> <Gold.Chemscore.Hbond.Weighted>
-6.4097

> <Gold.Chemscore.Metal.Weighted>
-0.0000

> <Gold.Chemscore.Lipo.Weighted>
-8.3584

> <Gold.Chemscore.Internal_Hbond.Weighted>
0.0000

> <Gold.Chemscore.DEClash.Weighted>
1.4835

> <Gold.Chemscore.DEInternal.Weighted>
0.7388

> <Gold.Chemscore.Rot.Weighted>
3.0984

> <Gold.Chemscore.Internal.Correction.Weighted>
   9.000000E+99

> <Gold.Protein.RotatedTorsions>
[ 6907 6896 6895 6894 ] final  -42.85 input  -60.11 | X-H torsion
[ 7974 7965 7964 7962 ] final   49.76 input  175.53 | X-H torsion
[ 8008 7997 7996 7995 ] final   76.25 input   59.86 | X-H torsion
[ 10167 10162 10161 10158 ] final   11.12 input  -65.29 | X-H torsion
[ 10718 10713 10712 10709 ] final   48.84 input   66.30 | X-H torsion
[ 10763 10752 10751 10750 ] final  -48.54 input  -60.55 | X-H torsion
[ 11005 11000 10999 10996 ] final   71.30 input  -57.11 | X-H torsion

> <Gold.Protein.ActiveResidues>
 VAL166  LYS551  ARG553  GLY616  TRP617  ASP618  TYR619  PRO620  LYS621  CYS622 
 ASP623  PHE694  ASN695  SER759  ASP760  ASP761  ALA762  ILE779  LEU786  VAL792 
 PHE793  MET794  SER795  GLU796  ALA797  LYS798  CYS799  TRP800  GLU811  SER814 

> <Gold.Protein.RotatedAtoms>
  150.9506  134.8906  159.7669 H   0  0  0  0  0  0  0  0  0  0  0  0  # atno 6907 bound_to 6896
  152.5118  134.3812  159.9362 H   0  0  0  0  0  0  0  0  0  0  0  0  # atno 6908 bound_to 6896
  151.3828  133.3775  159.2747 H   0  0  0  0  0  0  0  0  0  0  0  0  # atno 6909 bound_to 6896
  146.0078  139.4509  142.9975 H   0  0  0  0  0  0  0  0  0  0  0  0  # atno 7974 bound_to 7965
  155.8246  140.3468  155.5535 H   0  0  0  0  0  0  0  0  0  0  0  0  # atno 8008 bound_to 7997
  155.8306  140.0926  157.1814 H   0  0  0  0  0  0  0  0  0  0  0  0  # atno 8009 bound_to 7997
  154.4004  140.1413  156.3597 H   0  0  0  0  0  0  0  0  0  0  0  0  # atno 8010 bound_to 7997
  140.6152  143.8324  150.7110 H   0  0  0  0  0  0  0  0  0  0  0  0  # atno 10167 bound_to 10162
  157.4727  130.8265  149.8005 H   0  0  0  0  0  0  0  0  0  0  0  0  # atno 10718 bound_to 10713
  154.0795  135.6593  153.4836 H   0  0  0  0  0  0  0  0  0  0  0  0  # atno 10763 bound_to 10752
  153.0361  135.5176  154.7488 H   0  0  0  0  0  0  0  0  0  0  0  0  # atno 10764 bound_to 10752
  154.6578  135.3010  154.9873 H   0  0  0  0  0  0  0  0  0  0  0  0  # atno 10765 bound_to 10752
  139.9551  134.7159  156.0773 H   0  0  0  0  0  0  0  0  0  0  0  0  # atno 11005 bound_to 11000
  145.7389  141.0015  143.1311 LP  0  0  0  0  0  0  0  0  0  0  0  0  # atno 17320 bound_to 7965
  144.6942  139.9075  143.7462 LP  0  0  0  0  0  0  0  0  0  0  0  0  # atno 17321 bound_to 7965
  140.1901  143.4043  152.1869 LP  0  0  0  0  0  0  0  0  0  0  0  0  # atno 17342 bound_to 10162
  139.5392  144.7240  151.4789 LP  0  0  0  0  0  0  0  0  0  0  0  0  # atno 17343 bound_to 10162
  156.0081  130.3846  150.2359 LP  0  0  0  0  0  0  0  0  0  0  0  0  # atno 17370 bound_to 10713
  157.0542  131.0071  151.3244 LP  0  0  0  0  0  0  0  0  0  0  0  0  # atno 17371 bound_to 10713
  141.1221  133.6610  156.3240 LP  0  0  0  0  0  0  0  0  0  0  0  0  # atno 17394 bound_to 11000
  140.5629  134.5916  157.5438 LP  0  0  0  0  0  0  0  0  0  0  0  0  # atno 17395 bound_to 11000

$$$$
