AV-unprocessed.smi:2754|AV-procd|sdf|10616|dock10
  -GOLD-   2272015 63D 1   1.00000     0.00000
 Structure written by MMmdl.
 28 29  0  0  0  0  0  0  0  0  2 V2000
  150.3158  135.6125  155.1311 N   0  0  0  0  0  0  0  0  0  0  0  0
  150.8074  136.8938  155.0947 C   0  0  0  0  0  0  0  0  0  0  0  0
  152.0743  137.0591  155.4794 N   0  0  0  0  0  0  0  0  0  0  0  0
  152.5618  138.3181  155.4429 C   0  0  0  0  0  0  0  0  0  0  0  0
  151.7728  139.4081  155.0215 C   0  0  0  0  0  0  0  0  0  0  0  0
  150.4466  139.1098  154.6398 C   0  0  0  0  0  0  0  0  0  0  0  0
  149.4941  140.1998  154.1691 C   0  0  1  0  0  0  0  0  0  0  0  0
  148.0668  139.6667  153.9354 C   0  0  0  0  0  0  0  0  0  0  0  0
  147.1390  140.7995  153.4696 C   0  0  0  0  0  0  0  0  0  0  0  0
  147.1781  141.9816  154.4524 C   0  0  0  0  0  0  0  0  0  0  0  0
  148.5643  142.4648  154.6341 N   0  3  0  0  0  0  0  0  0  0  0  0
  149.4847  141.4139  155.1220 C   0  0  0  0  0  0  0  0  0  0  0  0
  149.9674  137.8445  154.6791 N   0  0  0  0  0  0  0  0  0  0  0  0
  149.3634  135.4256  154.8523 H   0  0  0  0  0  0  0  0  0  0  0  0
  150.8618  134.8673  155.5382 H   0  0  0  0  0  0  0  0  0  0  0  0
  153.5870  138.4571  155.7529 H   0  0  0  0  0  0  0  0  0  0  0  0
  152.1698  140.4122  154.9949 H   0  0  0  0  0  0  0  0  0  0  0  0
  149.8674  140.5505  153.2053 H   0  0  0  0  0  0  0  0  0  0  0  0
  148.0787  138.8668  153.1943 H   0  0  0  0  0  0  0  0  0  0  0  0
  147.6723  139.2333  154.8556 H   0  0  0  0  0  0  0  0  0  0  0  0
  147.4410  141.1369  152.4772 H   0  0  0  0  0  0  0  0  0  0  0  0
  146.1183  140.4286  153.3723 H   0  0  0  0  0  0  0  0  0  0  0  0
  146.5613  142.8013  154.0831 H   0  0  0  0  0  0  0  0  0  0  0  0
  146.7702  141.6859  155.4200 H   0  0  0  0  0  0  0  0  0  0  0  0
  148.9047  142.8036  153.7454 H   0  0  0  0  0  0  0  0  0  0  0  0
  149.1770  141.1159  156.1253 H   0  0  0  0  0  0  0  0  0  0  0  0
  150.4862  141.8365  155.2081 H   0  0  0  0  0  0  0  0  0  0  0  0
  148.5613  143.2294  155.2943 H   0  0  0  0  0  0  0  0  0  0  0  0
  1  2  1  0  0  0  0
  1 14  1  0  0  0  0
  1 15  1  0  0  0  0
  2 13  1  0  0  0  0
  2  3  2  0  0  0  0
  3  4  1  0  0  0  0
  4  5  2  0  0  0  0
  4 16  1  0  0  0  0
  5  6  1  0  0  0  0
  5 17  1  0  0  0  0
  6  7  1  0  0  0  0
  6 13  2  0  0  0  0
  7 12  1  0  0  0  0
  7  8  1  0  0  0  0
  7 18  1  0  0  0  0
  8  9  1  0  0  0  0
  8 19  1  0  0  0  0
  8 20  1  0  0  0  0
  9 10  1  0  0  0  0
  9 21  1  0  0  0  0
  9 22  1  0  0  0  0
 10 11  1  0  0  0  0
 10 23  1  0  0  0  0
 10 24  1  0  0  0  0
 11 12  1  0  0  0  0
 11 25  1  0  0  0  0
 11 28  1  0  0  0  0
 12 26  1  0  0  0  0
 12 27  1  0  0  0  0
M  CHG  1  11   1
M  END
> <s_m_source_file>
AV-unprocessed.smi

> <i_m_source_file_index>
2754

> <i_lp_mmshare_version>
43012

> <i_f3d_flags>
0

> <s_epik_input>
W05IMl1jMW5bY0hdW2NIXWMobjEpW0NAQEhdMltDSDJdW0NIMl1bQ0gyXVtOSF1bQ0gyXTI=

> <s_epik_cmdline>
J2VwaWtfcHl0aG9uJywgJy1waCcsICc3LjAnLCAnLXRuJywgJzgnLCAnLW1hJywgJzIwMCcsICctbWV0YWxfYmluZGluZycsICctaW1hZScsICc8aW5maWxlLm1hZT4nLCAnLW9tYWUnLCAnPG91dGZpbGUubWFlPic=

> <r_lp_tautomer_probability>
1

> <r_epik_Ionization_Penalty>
0.000528025

> <r_epik_Ionization_Penalty_Charging>
0.000372054

> <r_epik_Ionization_Penalty_Neutral>
0.000155972

> <r_epik_State_Penalty>
-0

> <r_epik_Charging_Adjusted_Penalty>
0.000372054

> <i_epik_Tot_Q>
1

> <i_epik_Tot_abs_Q>
1

> <r_epik_Metal_State_Penalty>
-0

> <b_epik_Metal_Only>
0

> <s_lp_Force_Field>
OPLS_2005

> <r_lp_Energy>
4.9837

> <b_lp_Chiralities_Consistent>
1

> <s_lp_Variant>
AV-unprocessed.smi:2754-2

> <Gold.Version>
5.8.1

> <Gold.Id.Protein>
6NUR|6NUR_protein|mol2

> <Gold.PLP.Fitness>
33.0735

> <Gold.PLP.PLP>
-24.5015

> <Gold.PLP.part.hbond>
-1.8432

> <Gold.PLP.part.metal>
0.0000

> <Gold.PLP.part.buried>
-0.1255

> <Gold.PLP.part.nonpolar>
-23.4828

> <Gold.PLP.part.repulsive>
1.0593

> <Gold.PLP.ligand.clash>
0.0000

> <Gold.PLP.ligand.torsion>
0.1476

> <Gold.PLP.Chemscore.Hbond>
2.9440

> <Gold.PLP.Chemscore.CHOScore>
0.0000

> <Gold.PLP.Chemscore.Metal>
0.0000

> <Gold.Chemscore.Hbonds>
donor molecule, donor type, donor heavy atom, donor atom, acceptor molecule, acceptor atom, score
      L1  H    11    28       P1  8028  1.98
      P1  H 10752 10763       L1     3  0.94

> <Gold.PLP.Chemscore.Internal.Correction>
0.0351

> <Gold.Rescore>
     Score         DG    S(hbond)    S(metal)    S(lipo)     H(rot)  DE(clash)    DE(int)     intcor
     14.81     -15.62       1.76        0.00      58.19       1.00       0.77       0.04       ----

> <Gold.Chemscore.Fitness>
14.8057

> <Gold.Chemscore.DG>
-15.6175

> <Gold.Chemscore.ZeroCoef>
-5.4800

> <Gold.Chemscore.Hbond>
1.7633

> <Gold.Chemscore.Metal>
0.0000

> <Gold.Chemscore.Lipo>
58.1876

> <Gold.Chemscore.Internal_Hbond>
0.0000

> <Gold.Chemscore.DEClash>
0.7729

> <Gold.Chemscore.DEInternal>
0.0389

> <Gold.Chemscore.Rot>
1.0000

> <Gold.Chemscore.Internal.Correction>
   9.000000E+99

> <Gold.Chemscore.Hbonds>
donor molecule, donor type, donor heavy atom, donor atom, acceptor molecule, acceptor atom, score
      L1  H    11    28       P1  8028  0.90
      P1  H 10752 10763       L1     3  0.45

> <Gold.Chemscore.Hbond.Weighted>
-5.8895

> <Gold.Chemscore.Metal.Weighted>
-0.0000

> <Gold.Chemscore.Lipo.Weighted>
-6.8079

> <Gold.Chemscore.Internal_Hbond.Weighted>
0.0000

> <Gold.Chemscore.DEClash.Weighted>
0.7729

> <Gold.Chemscore.DEInternal.Weighted>
0.0389

> <Gold.Chemscore.Rot.Weighted>
2.5600

> <Gold.Chemscore.Internal.Correction.Weighted>
   9.000000E+99

> <Gold.Protein.RotatedTorsions>
[ 6907 6896 6895 6894 ] final  173.28 input  -60.11 | X-H torsion
[ 7974 7965 7964 7962 ] final -174.93 input  175.53 | X-H torsion
[ 8008 7997 7996 7995 ] final   99.29 input   59.86 | X-H torsion
[ 10167 10162 10161 10158 ] final -150.98 input  -65.29 | X-H torsion
[ 10718 10713 10712 10709 ] final   80.69 input   66.30 | X-H torsion
[ 10763 10752 10751 10750 ] final   69.90 input  -60.55 | X-H torsion
[ 11005 11000 10999 10996 ] final  -95.59 input  -57.11 | X-H torsion

> <Gold.Protein.ActiveResidues>
 VAL166  LYS551  ARG553  GLY616  TRP617  ASP618  TYR619  PRO620  LYS621  CYS622 
 ASP623  PHE694  ASN695  SER759  ASP760  ASP761  ALA762  ILE779  LEU786  VAL792 
 PHE793  MET794  SER795  GLU796  ALA797  LYS798  CYS799  TRP800  GLU811  SER814 

> <Gold.Protein.RotatedAtoms>
  151.7708  133.3341  159.3443 H   0  0  0  0  0  0  0  0  0  0  0  0  # atno 6907 bound_to 6896
  150.7462  134.6020  159.6051 H   0  0  0  0  0  0  0  0  0  0  0  0  # atno 6908 bound_to 6896
  152.3342  134.7221  160.0333 H   0  0  0  0  0  0  0  0  0  0  0  0  # atno 6909 bound_to 6896
  144.7130  140.1398  143.6392 H   0  0  0  0  0  0  0  0  0  0  0  0  # atno 7974 bound_to 7965
  156.1090  140.3231  155.8046 H   0  0  0  0  0  0  0  0  0  0  0  0  # atno 8008 bound_to 7997
  155.4706  140.0546  157.2997 H   0  0  0  0  0  0  0  0  0  0  0  0  # atno 8009 bound_to 7997
  154.4747  140.2027  155.9922 H   0  0  0  0  0  0  0  0  0  0  0  0  # atno 8010 bound_to 7997
  139.7307  143.8813  152.2533 H   0  0  0  0  0  0  0  0  0  0  0  0  # atno 10167 bound_to 10162
  157.6813  130.9970  150.2116 H   0  0  0  0  0  0  0  0  0  0  0  0  # atno 10718 bound_to 10713
  153.0312  135.5193  154.7359 H   0  0  0  0  0  0  0  0  0  0  0  0  # atno 10763 bound_to 10752
  154.6373  135.2908  155.0148 H   0  0  0  0  0  0  0  0  0  0  0  0  # atno 10764 bound_to 10752
  154.1078  135.6626  153.4932 H   0  0  0  0  0  0  0  0  0  0  0  0  # atno 10765 bound_to 10752
  141.1437  133.8037  157.0456 H   0  0  0  0  0  0  0  0  0  0  0  0  # atno 11005 bound_to 11000
  145.9212  139.2547  143.1380 LP  0  0  0  0  0  0  0  0  0  0  0  0  # atno 17320 bound_to 7965
  145.9618  140.8829  143.0207 LP  0  0  0  0  0  0  0  0  0  0  0  0  # atno 17321 bound_to 7965
  139.8735  144.7055  150.8959 LP  0  0  0  0  0  0  0  0  0  0  0  0  # atno 17342 bound_to 10162
  140.7770  143.3718  151.1635 LP  0  0  0  0  0  0  0  0  0  0  0  0  # atno 17343 bound_to 10162
  156.2786  130.3730  149.7958 LP  0  0  0  0  0  0  0  0  0  0  0  0  # atno 17370 bound_to 10713
  156.5654  130.8401  151.3341 LP  0  0  0  0  0  0  0  0  0  0  0  0  # atno 17371 bound_to 10713
  140.0665  134.9726  157.1394 LP  0  0  0  0  0  0  0  0  0  0  0  0  # atno 17394 bound_to 11000
  140.3773  134.2325  155.7173 LP  0  0  0  0  0  0  0  0  0  0  0  0  # atno 17395 bound_to 11000

$$$$
