AV-unprocessed.smi:1830|AV-procd|sdf|7447|dock9
  -GOLD-   22720 9133D 1   1.00000     0.00000
 Structure written by MMmdl.
 54 57  0  0  0  0  0  0  0  0  3 V2000
  150.2904  134.9435  156.0724 O   0  0  0  0  0  0  0  0  0  0  0  0
  149.8829  135.2985  154.9670 C   0  0  0  0  0  0  0  0  0  0  0  0
  150.1943  136.4751  154.4062 N   0  0  0  0  0  0  0  0  0  0  0  0
  151.0209  137.5058  155.0279 C   0  0  0  0  0  0  0  0  0  0  0  0
  150.5531  138.9359  154.6923 C   0  0  1  0  0  0  0  0  0  0  0  0
  149.1009  138.9967  154.1840 C   0  0  0  0  0  0  0  0  0  0  0  0
  148.6698  140.3956  153.9331 N   0  3  1  0  0  0  0  0  0  0  0  0
  147.2068  140.5044  153.7371 C   0  0  0  0  0  0  0  0  0  0  0  0
  146.6111  140.9493  155.0855 C   0  0  0  0  0  0  0  0  0  0  0  0
  147.8093  141.1707  156.0152 C   0  0  0  0  0  0  0  0  0  0  0  0
  148.9867  141.3115  155.0509 C   0  0  1  0  0  0  0  0  0  0  0  0
  150.3871  141.0798  155.6533 C   0  0  0  0  0  0  0  0  0  0  0  0
  150.6239  139.6992  155.8887 O   0  0  0  0  0  0  0  0  0  0  0  0
  149.0981  134.5646  154.1608 N   0  0  0  0  0  0  0  0  0  0  0  0
  148.6047  133.2481  154.3861 C   0  0  0  0  0  0  0  0  0  0  0  0
  149.2028  132.3774  155.3330 C   0  0  0  0  0  0  0  0  0  0  0  0
  148.6555  131.0987  155.5518 C   0  0  0  0  0  0  0  0  0  0  0  0
  147.5122  130.7134  154.8296 C   0  0  0  0  0  0  0  0  0  0  0  0
  146.9577  131.5710  153.9478 N   0  3  0  0  0  0  0  0  0  0  0  0
  147.4394  132.8133  153.6962 C   0  0  0  0  0  0  0  0  0  0  0  0
  146.7890  133.6152  152.7338 N   0  0  0  0  0  0  0  0  0  0  0  0
  146.8964  133.1209  151.3638 C   0  0  0  0  0  0  0  0  0  0  0  0
  145.5846  133.4883  150.6682 C   0  0  0  0  0  0  0  0  0  0  0  0
  144.5850  133.5244  151.8174 C   0  0  0  0  0  0  0  0  0  0  0  0
  145.4218  134.0785  152.9693 C   0  0  0  0  0  0  0  0  0  0  0  0
  149.8159  136.6857  153.4940 H   0  0  0  0  0  0  0  0  0  0  0  0
  150.9958  137.3518  156.1070 H   0  0  0  0  0  0  0  0  0  0  0  0
  152.0600  137.3702  154.7234 H   0  0  0  0  0  0  0  0  0  0  0  0
  151.2260  139.3667  153.9486 H   0  0  0  0  0  0  0  0  0  0  0  0
  148.9924  138.4287  153.2595 H   0  0  0  0  0  0  0  0  0  0  0  0
  148.4420  138.5322  154.9197 H   0  0  0  0  0  0  0  0  0  0  0  0
  147.0181  141.2703  152.9838 H   0  0  0  0  0  0  0  0  0  0  0  0
  146.7638  139.5768  153.3711 H   0  0  0  0  0  0  0  0  0  0  0  0
  146.0450  141.8727  154.9587 H   0  0  0  0  0  0  0  0  0  0  0  0
  145.9315  140.2013  155.4947 H   0  0  0  0  0  0  0  0  0  0  0  0
  147.6872  142.0418  156.6597 H   0  0  0  0  0  0  0  0  0  0  0  0
  147.9480  140.2989  156.6563 H   0  0  0  0  0  0  0  0  0  0  0  0
  148.9570  142.3264  154.6503 H   0  0  0  0  0  0  0  0  0  0  0  0
  151.1555  141.4671  154.9825 H   0  0  0  0  0  0  0  0  0  0  0  0
  150.4905  141.6268  156.5906 H   0  0  0  0  0  0  0  0  0  0  0  0
  148.9161  134.9474  153.2444 H   0  0  0  0  0  0  0  0  0  0  0  0
  150.0653  132.6771  155.9091 H   0  0  0  0  0  0  0  0  0  0  0  0
  149.1031  130.4264  156.2692 H   0  0  0  0  0  0  0  0  0  0  0  0
  147.0250  129.7547  154.9322 H   0  0  0  0  0  0  0  0  0  0  0  0
  147.7509  133.5598  150.8487 H   0  0  0  0  0  0  0  0  0  0  0  0
  147.0268  132.0375  151.3669 H   0  0  0  0  0  0  0  0  0  0  0  0
  145.6666  134.4799  150.2206 H   0  0  0  0  0  0  0  0  0  0  0  0
  145.3088  132.7846  149.8824 H   0  0  0  0  0  0  0  0  0  0  0  0
  143.7053  134.1309  151.6013 H   0  0  0  0  0  0  0  0  0  0  0  0
  144.2517  132.5125  152.0518 H   0  0  0  0  0  0  0  0  0  0  0  0
  145.0043  133.8033  153.9376 H   0  0  0  0  0  0  0  0  0  0  0  0
  145.4312  135.1682  152.9290 H   0  0  0  0  0  0  0  0  0  0  0  0
  149.1481  140.7164  153.1033 H   0  0  0  0  0  0  0  0  0  0  0  0
  146.1287  131.2637  153.4385 H   0  0  0  0  0  0  0  0  0  0  0  0
  1  2  2  0  0  0  0
  2  3  1  0  0  0  0
  2 14  1  0  0  0  0
  3  4  1  0  0  0  0
  3 26  1  0  0  0  0
  4  5  1  0  0  0  0
  4 27  1  0  0  0  0
  4 28  1  0  0  0  0
  5 13  1  0  0  0  0
  5  6  1  0  0  0  0
  5 29  1  0  0  0  0
  6  7  1  0  0  0  0
  6 30  1  0  0  0  0
  6 31  1  0  0  0  0
  7 11  1  0  0  0  0
  7  8  1  0  0  0  0
  7 53  1  0  0  0  0
  8  9  1  0  0  0  0
  8 32  1  0  0  0  0
  8 33  1  0  0  0  0
  9 10  1  0  0  0  0
  9 34  1  0  0  0  0
  9 35  1  0  0  0  0
 10 11  1  0  0  0  0
 10 36  1  0  0  0  0
 10 37  1  0  0  0  0
 11 12  1  0  0  0  0
 11 38  1  0  0  0  0
 12 13  1  0  0  0  0
 12 39  1  0  0  0  0
 12 40  1  0  0  0  0
 14 15  1  0  0  0  0
 14 41  1  0  0  0  0
 15 20  1  0  0  0  0
 15 16  2  0  0  0  0
 16 17  1  0  0  0  0
 16 42  1  0  0  0  0
 17 18  2  0  0  0  0
 17 43  1  0  0  0  0
 18 19  1  0  0  0  0
 18 44  1  0  0  0  0
 19 20  2  0  0  0  0
 19 54  1  0  0  0  0
 20 21  1  0  0  0  0
 21 25  1  0  0  0  0
 21 22  1  0  0  0  0
 22 23  1  0  0  0  0
 22 45  1  0  0  0  0
 22 46  1  0  0  0  0
 23 24  1  0  0  0  0
 23 47  1  0  0  0  0
 23 48  1  0  0  0  0
 24 25  1  0  0  0  0
 24 49  1  0  0  0  0
 24 50  1  0  0  0  0
 25 51  1  0  0  0  0
 25 52  1  0  0  0  0
M  CHG  1   7   1
M  CHG  1  19   1
M  END
> <s_m_source_file>
AV-unprocessed.smi

> <i_m_source_file_index>
1830

> <i_lp_mmshare_version>
43012

> <i_f3d_flags>
0

> <s_epik_input>
W0NIMl0xW0NIMl1bQ0gyXVtDQEhdKE4xMilbQ0gyXU9bQ0BASF0oW0NIMl0yKVtDSDJdW05IXUMoPU8pW05IXWMzW2NIXVtjSF1bY0hdbmMzTjRbQ0gyXVtDSDJdW0NIMl1bQ0gyXTQ=

> <s_epik_cmdline>
J2VwaWtfcHl0aG9uJywgJy1waCcsICc3LjAnLCAnLXRuJywgJzgnLCAnLW1hJywgJzIwMCcsICctbWV0YWxfYmluZGluZycsICctaW1hZScsICc8aW5maWxlLm1hZT4nLCAnLW9tYWUnLCAnPG91dGZpbGUubWFlPic=

> <r_lp_tautomer_probability>
0.999994

> <r_epik_Ionization_Penalty>
1.29113

> <r_epik_Ionization_Penalty_Charging>
1.29111

> <r_epik_Ionization_Penalty_Neutral>
1.88144e-05

> <r_epik_State_Penalty>
1.32676

> <r_epik_Charging_Adjusted_Penalty>
2.61787

> <i_epik_Tot_Q>
2

> <i_epik_Tot_abs_Q>
2

> <r_epik_Metal_State_Penalty>
1.40425

> <b_epik_Metal_Only>
0

> <s_lp_Force_Field>
OPLS_2005

> <r_lp_Energy>
75.2676

> <b_lp_Chiralities_Consistent>
1

> <s_lp_Variant>
AV-unprocessed.smi:1830-16

> <Gold.Version>
5.8.1

> <Gold.Id.Protein>
6NUR|6NUR_protein|mol2

> <Gold.PLP.Fitness>
41.9252

> <Gold.PLP.PLP>
-35.3403

> <Gold.PLP.part.hbond>
-3.7533

> <Gold.PLP.part.metal>
0.0000

> <Gold.PLP.part.buried>
-4.5028

> <Gold.PLP.part.nonpolar>
-28.6216

> <Gold.PLP.part.repulsive>
0.3707

> <Gold.PLP.ligand.clash>
0.0000

> <Gold.PLP.ligand.torsion>
0.9434

> <Gold.PLP.Chemscore.Hbond>
2.7680

> <Gold.PLP.Chemscore.CHOScore>
0.0000

> <Gold.PLP.Chemscore.Metal>
0.0000

> <Gold.Chemscore.Hbonds>
donor molecule, donor type, donor heavy atom, donor atom, acceptor molecule, acceptor atom, score
      L1  H     3    26       P1  7948  1.00
      L1  H     7    53       P1  7957  0.65
      L1  H    14    41       P1  7948  1.00

> <Gold.PLP.Chemscore.Internal.Correction>
0.1677

> <Gold.Rescore>
     Score         DG    S(hbond)    S(metal)    S(lipo)     H(rot)  DE(clash)    DE(int)     intcor
     16.76     -19.08       2.16        0.00      85.75       1.43       0.12       2.19       ----

> <Gold.Chemscore.Fitness>
16.7645

> <Gold.Chemscore.DG>
-19.0776

> <Gold.Chemscore.ZeroCoef>
-5.4800

> <Gold.Chemscore.Hbond>
2.1616

> <Gold.Chemscore.Metal>
0.0000

> <Gold.Chemscore.Lipo>
85.7507

> <Gold.Chemscore.Internal_Hbond>
0.0000

> <Gold.Chemscore.DEClash>
0.1213

> <Gold.Chemscore.DEInternal>
2.1917

> <Gold.Chemscore.Rot>
1.4278

> <Gold.Chemscore.Internal.Correction>
   9.000000E+99

> <Gold.Chemscore.Hbonds>
donor molecule, donor type, donor heavy atom, donor atom, acceptor molecule, acceptor atom, score
      L1  H     3    26       P1  7948  0.34
      L1  H     7    53       P1  7957  0.64
      L1  H    14    41       P1  7948  0.25

> <Gold.Chemscore.Hbond.Weighted>
-7.2198

> <Gold.Chemscore.Metal.Weighted>
-0.0000

> <Gold.Chemscore.Lipo.Weighted>
-10.0328

> <Gold.Chemscore.Internal_Hbond.Weighted>
0.0000

> <Gold.Chemscore.DEClash.Weighted>
0.1213

> <Gold.Chemscore.DEInternal.Weighted>
2.1917

> <Gold.Chemscore.Rot.Weighted>
3.6551

> <Gold.Chemscore.Internal.Correction.Weighted>
   9.000000E+99

> <Gold.Protein.RotatedTorsions>
[ 6907 6896 6895 6894 ] final  -41.72 input  -60.11 | X-H torsion
[ 7974 7965 7964 7962 ] final  -95.82 input  175.53 | X-H torsion
[ 8008 7997 7996 7995 ] final -178.85 input   59.86 | X-H torsion
[ 10167 10162 10161 10158 ] final -157.37 input  -65.29 | X-H torsion
[ 10718 10713 10712 10709 ] final   95.62 input   66.30 | X-H torsion
[ 10763 10752 10751 10750 ] final  -90.71 input  -60.55 | X-H torsion
[ 11005 11000 10999 10996 ] final  -50.49 input  -57.11 | X-H torsion

> <Gold.Protein.ActiveResidues>
 VAL166  LYS551  ARG553  GLY616  TRP617  ASP618  TYR619  PRO620  LYS621  CYS622 
 ASP623  PHE694  ASN695  SER759  ASP760  ASP761  ALA762  ILE779  LEU786  VAL792 
 PHE793  MET794  SER795  GLU796  ALA797  LYS798  CYS799  TRP800  GLU811  SER814 

> <Gold.Protein.RotatedAtoms>
  150.9635  134.9019  159.7744 H   0  0  0  0  0  0  0  0  0  0  0  0  # atno 6907 bound_to 6896
  152.5165  134.3640  159.9305 H   0  0  0  0  0  0  0  0  0  0  0  0  # atno 6908 bound_to 6896
  151.3651  133.3834  159.2728 H   0  0  0  0  0  0  0  0  0  0  0  0  # atno 6909 bound_to 6896
  145.3549  140.9482  143.2533 H   0  0  0  0  0  0  0  0  0  0  0  0  # atno 7974 bound_to 7965
  156.0237  140.1266  157.0331 H   0  0  0  0  0  0  0  0  0  0  0  0  # atno 8008 bound_to 7997
  154.4321  140.1063  156.6070 H   0  0  0  0  0  0  0  0  0  0  0  0  # atno 8009 bound_to 7997
  155.5908  140.3469  155.4568 H   0  0  0  0  0  0  0  0  0  0  0  0  # atno 8010 bound_to 7997
  139.6776  143.9637  152.2319 H   0  0  0  0  0  0  0  0  0  0  0  0  # atno 10167 bound_to 10162
  157.6936  131.0551  150.4367 H   0  0  0  0  0  0  0  0  0  0  0  0  # atno 10718 bound_to 10713
  154.6686  135.5294  153.8109 H   0  0  0  0  0  0  0  0  0  0  0  0  # atno 10763 bound_to 10752
  153.0487  135.6523  154.0760 H   0  0  0  0  0  0  0  0  0  0  0  0  # atno 10764 bound_to 10752
  154.0661  135.2958  155.3296 H   0  0  0  0  0  0  0  0  0  0  0  0  # atno 10765 bound_to 10752
  141.0819  133.6651  156.3739 H   0  0  0  0  0  0  0  0  0  0  0  0  # atno 11005 bound_to 11000
  144.8689  139.5067  143.6777 LP  0  0  0  0  0  0  0  0  0  0  0  0  # atno 17320 bound_to 7965
  146.2952  139.7256  142.9132 LP  0  0  0  0  0  0  0  0  0  0  0  0  # atno 17321 bound_to 7965
  139.9418  144.6676  150.8258 LP  0  0  0  0  0  0  0  0  0  0  0  0  # atno 17342 bound_to 10162
  140.7641  143.3239  151.2559 LP  0  0  0  0  0  0  0  0  0  0  0  0  # atno 17343 bound_to 10162
  156.4729  130.4056  149.6507 LP  0  0  0  0  0  0  0  0  0  0  0  0  # atno 17370 bound_to 10713
  156.3581  130.7467  151.2436 LP  0  0  0  0  0  0  0  0  0  0  0  0  # atno 17371 bound_to 10713
  140.5450  134.6083  157.5391 LP  0  0  0  0  0  0  0  0  0  0  0  0  # atno 17394 bound_to 11000
  139.9633  134.7415  156.0190 LP  0  0  0  0  0  0  0  0  0  0  0  0  # atno 17395 bound_to 11000

$$$$
