AV-unprocessed.smi:223|AV-procd|sdf|1703|dock4
  -GOLD-   2262020163D 1   1.00000     0.00000
 Structure written by MMmdl.
 47 50  0  0  0  0  0  0  0  0  1 V2000
  150.2260  137.3305  155.2946 C   0  0  0  0  0  0  0  0  0  0  0  0
  150.3801  138.6162  154.4733 C   0  0  2  0  0  0  0  0  0  0  0  0
  151.7112  139.2034  154.7022 C   0  0  0  0  0  0  0  0  0  0  0  0
  152.7572  139.6645  154.8816 N   0  0  0  0  0  0  0  0  0  0  0  0
  149.2375  139.6061  154.7797 C   0  0  0  0  0  0  0  0  0  0  0  0
  148.1338  139.5482  153.8208 N   0  0  0  0  0  0  0  0  0  0  0  0
  147.2190  138.5561  153.9904 C   0  0  0  0  0  0  0  0  0  0  0  0
  146.9680  138.0896  155.2437 N   0  0  0  0  0  0  0  0  0  0  0  0
  146.0947  137.0978  155.4366 C   0  0  0  0  0  0  0  0  0  0  0  0
  145.3675  136.4403  154.5327 N   0  0  0  0  0  0  0  0  0  0  0  0
  145.6022  136.9085  153.2739 C   0  0  0  0  0  0  0  0  0  0  0  0
  146.5034  137.9523  152.9159 C   0  0  0  0  0  0  0  0  0  0  0  0
  146.4646  138.1520  151.5407 N   0  0  0  0  0  0  0  0  0  0  0  0
  145.6041  137.2705  151.1111 C   0  0  0  0  0  0  0  0  0  0  0  0
  145.0291  136.4878  152.0862 N   0  0  0  0  0  0  0  0  0  0  0  0
  144.0428  135.4354  151.8905 C   0  0  0  0  0  0  0  0  0  0  0  0
  144.4708  134.3692  150.8544 C   0  0  1  0  0  0  0  0  0  0  0  0
  144.1817  134.8504  149.5526 O   0  0  0  0  0  0  0  0  0  0  0  0
  145.9563  134.0379  150.9218 C   0  0  0  0  0  0  0  0  0  0  0  0
  146.0019  132.5999  150.4234 C   0  0  0  0  0  0  0  0  0  0  0  0
  144.8484  132.0228  151.0113 O   0  0  0  0  0  0  0  0  0  0  0  0
  143.8015  132.9895  151.0264 C   0  0  0  0  0  0  0  0  0  0  0  0
  147.6631  140.8214  153.2809 C   0  0  0  0  0  0  0  0  0  0  0  0
  147.9253  142.0928  154.0570 C   0  0  0  0  0  0  0  0  0  0  0  0
  146.5260  141.5284  153.9802 C   0  0  0  0  0  0  0  0  0  0  0  0
  151.0195  136.6203  155.0604 H   0  0  0  0  0  0  0  0  0  0  0  0
  149.2737  136.8417  155.0868 H   0  0  0  0  0  0  0  0  0  0  0  0
  150.2702  137.5383  156.3642 H   0  0  0  0  0  0  0  0  0  0  0  0
  150.3429  138.3430  153.4187 H   0  0  0  0  0  0  0  0  0  0  0  0
  148.8212  139.3724  155.7601 H   0  0  0  0  0  0  0  0  0  0  0  0
  149.6343  140.6152  154.8709 H   0  0  0  0  0  0  0  0  0  0  0  0
  145.9612  136.7848  156.4616 H   0  0  0  0  0  0  0  0  0  0  0  0
  145.3580  137.1706  150.0639 H   0  0  0  0  0  0  0  0  0  0  0  0
  143.8469  134.9674  152.8560 H   0  0  0  0  0  0  0  0  0  0  0  0
  143.1055  135.9003  151.5829 H   0  0  0  0  0  0  0  0  0  0  0  0
  144.7892  134.4550  148.9461 H   0  0  0  0  0  0  0  0  0  0  0  0
  146.5855  134.7141  150.3414 H   0  0  0  0  0  0  0  0  0  0  0  0
  146.3043  134.0653  151.9554 H   0  0  0  0  0  0  0  0  0  0  0  0
  145.9193  132.5585  149.3363 H   0  0  0  0  0  0  0  0  0  0  0  0
  146.9107  132.0768  150.7218 H   0  0  0  0  0  0  0  0  0  0  0  0
  143.2785  132.8990  151.9777 H   0  0  0  0  0  0  0  0  0  0  0  0
  143.0797  132.7775  150.2363 H   0  0  0  0  0  0  0  0  0  0  0  0
  147.6889  140.9148  152.1967 H   0  0  0  0  0  0  0  0  0  0  0  0
  148.4483  142.0102  155.0080 H   0  0  0  0  0  0  0  0  0  0  0  0
  148.1383  142.9929  153.4845 H   0  0  0  0  0  0  0  0  0  0  0  0
  145.8047  142.0541  153.3581 H   0  0  0  0  0  0  0  0  0  0  0  0
  146.1206  141.0730  154.8817 H   0  0  0  0  0  0  0  0  0  0  0  0
  1  2  1  0  0  0  0
  1 26  1  0  0  0  0
  1 27  1  0  0  0  0
  1 28  1  0  0  0  0
  2  3  1  0  0  0  0
  2  5  1  0  0  0  0
  2 29  1  0  0  0  0
  3  4  3  0  0  0  0
  5  6  1  0  0  0  0
  5 30  1  0  0  0  0
  5 31  1  0  0  0  0
  6  7  1  0  0  0  0
  6 23  1  0  0  0  0
  7 12  1  0  0  0  0
  7  8  2  0  0  0  0
  8  9  1  0  0  0  0
  9 10  2  0  0  0  0
  9 32  1  0  0  0  0
 10 11  1  0  0  0  0
 11 15  1  0  0  0  0
 11 12  2  0  0  0  0
 12 13  1  0  0  0  0
 13 14  2  0  0  0  0
 14 15  1  0  0  0  0
 14 33  1  0  0  0  0
 15 16  1  0  0  0  0
 16 17  1  0  0  0  0
 16 34  1  0  0  0  0
 16 35  1  0  0  0  0
 17 22  1  0  0  0  0
 17 18  1  0  0  0  0
 17 19  1  0  0  0  0
 18 36  1  0  0  0  0
 19 20  1  0  0  0  0
 19 37  1  0  0  0  0
 19 38  1  0  0  0  0
 20 21  1  0  0  0  0
 20 39  1  0  0  0  0
 20 40  1  0  0  0  0
 21 22  1  0  0  0  0
 22 41  1  0  0  0  0
 22 42  1  0  0  0  0
 23 25  1  0  0  0  0
 23 24  1  0  0  0  0
 23 43  1  0  0  0  0
 24 25  1  0  0  0  0
 24 44  1  0  0  0  0
 24 45  1  0  0  0  0
 25 46  1  0  0  0  0
 25 47  1  0  0  0  0
M  END
> <s_m_source_file>
AV-unprocessed.smi

> <i_m_source_file_index>
223

> <i_lp_mmshare_version>
43012

> <i_f3d_flags>
0

> <s_epik_input>
TiNDW0NAQEhdKFtDSDNdKVtDSDJdTihbQ0hdMVtDSDJdW0NIMl0xKWMobltjSF1uMiljKGMyMyluW2NIXW4zW0NIMl1bQ0BAXTQoW09IXSlbQ0gyXVtDSDJdT1tDSDJdNA==

> <s_epik_cmdline>
J2VwaWtfcHl0aG9uJywgJy1waCcsICc3LjAnLCAnLXRuJywgJzgnLCAnLW1hJywgJzIwMCcsICctbWV0YWxfYmluZGluZycsICctaW1hZScsICc8aW5maWxlLm1hZT4nLCAnLW9tYWUnLCAnPG91dGZpbGUubWFlPic=

> <r_lp_tautomer_probability>
1

> <r_epik_Ionization_Penalty>
0.000756152

> <r_epik_Ionization_Penalty_Charging>
0

> <r_epik_Ionization_Penalty_Neutral>
0.000756152

> <r_epik_State_Penalty>
0.00038036

> <r_epik_Charging_Adjusted_Penalty>
0.00038036

> <i_epik_Tot_Q>
0

> <i_epik_Tot_abs_Q>
0

> <r_epik_Metal_State_Penalty>
-0

> <b_epik_Metal_Only>
0

> <s_lp_Force_Field>
OPLS_2005

> <r_lp_Energy>
37.204

> <b_lp_Chiralities_Consistent>
1

> <s_lp_Variant>
AV-unprocessed.smi:223-1

> <Gold.Version>
5.8.1

> <Gold.Id.Protein>
6NUR|6NUR_protein|mol2

> <Gold.PLP.Fitness>
44.0396

> <Gold.PLP.PLP>
-39.2172

> <Gold.PLP.part.hbond>
-3.1216

> <Gold.PLP.part.metal>
0.0000

> <Gold.PLP.part.buried>
2.4904

> <Gold.PLP.part.nonpolar>
-38.5284

> <Gold.PLP.part.repulsive>
0.7120

> <Gold.PLP.ligand.clash>
0.0000

> <Gold.PLP.ligand.torsion>
2.3025

> <Gold.PLP.Chemscore.Hbond>
2.2080

> <Gold.PLP.Chemscore.CHOScore>
0.4846

> <Gold.PLP.Chemscore.Metal>
0.0000

> <Gold.Chemscore.Hbonds>
donor molecule, donor type, donor heavy atom, donor atom, acceptor molecule, acceptor atom, score
      L1  H    18    36       P1  7921  0.90
      P1  H  7954  7966       L1    13  0.11
      P1  H  7997  8008       L1     4  0.93
      L1  C    14    33       P1 10171  0.48

> <Gold.PLP.Chemscore.Internal.Correction>
1.3497

> <Gold.Rescore>
     Score         DG    S(hbond)    S(metal)    S(lipo)     H(rot)  DE(clash)    DE(int)     intcor
     10.16     -13.78       1.97        0.00      74.22       2.72       1.68       1.95       ----

> <Gold.Chemscore.Fitness>
10.1565

> <Gold.Chemscore.DG>
-13.7841

> <Gold.Chemscore.ZeroCoef>
-5.4800

> <Gold.Chemscore.Hbond>
1.9688

> <Gold.Chemscore.Metal>
0.0000

> <Gold.Chemscore.Lipo>
74.2223

> <Gold.Chemscore.Internal_Hbond>
0.0000

> <Gold.Chemscore.DEClash>
1.6809

> <Gold.Chemscore.DEInternal>
1.9467

> <Gold.Chemscore.Rot>
2.7171

> <Gold.Chemscore.Internal.Correction>
   9.000000E+99

> <Gold.Chemscore.Hbonds>
donor molecule, donor type, donor heavy atom, donor atom, acceptor molecule, acceptor atom, score
      L1  H    18    36       P1  7921  0.88
      P1  H  7954  7966       L1    13  0.03
      P1  H  7997  8008       L1     4  0.89

> <Gold.Chemscore.Hbond.Weighted>
-6.5758

> <Gold.Chemscore.Metal.Weighted>
-0.0000

> <Gold.Chemscore.Lipo.Weighted>
-8.6840

> <Gold.Chemscore.Internal_Hbond.Weighted>
0.0000

> <Gold.Chemscore.DEClash.Weighted>
1.6809

> <Gold.Chemscore.DEInternal.Weighted>
1.9467

> <Gold.Chemscore.Rot.Weighted>
6.9558

> <Gold.Chemscore.Internal.Correction.Weighted>
   9.000000E+99

> <Gold.Protein.RotatedTorsions>
[ 6907 6896 6895 6894 ] final -152.93 input  -60.11 | X-H torsion
[ 7974 7965 7964 7962 ] final  -27.93 input  175.53 | X-H torsion
[ 8008 7997 7996 7995 ] final  -25.10 input   59.86 | X-H torsion
[ 10167 10162 10161 10158 ] final   32.17 input  -65.29 | X-H torsion
[ 10718 10713 10712 10709 ] final  121.02 input   66.30 | X-H torsion
[ 10763 10752 10751 10750 ] final -114.17 input  -60.55 | X-H torsion
[ 11005 11000 10999 10996 ] final -141.06 input  -57.11 | X-H torsion

> <Gold.Protein.ActiveResidues>
 VAL166  LYS551  ARG553  GLY616  TRP617  ASP618  TYR619  PRO620  LYS621  CYS622 
 ASP623  PHE694  ASN695  SER759  ASP760  ASP761  ALA762  ILE779  LEU786  VAL792 
 PHE793  MET794  SER795  GLU796  ALA797  LYS798  CYS799  TRP800  GLU811  SER814 

> <Gold.Protein.RotatedAtoms>
  151.2350  133.4430  159.2604 H   0  0  0  0  0  0  0  0  0  0  0  0  # atno 6907 bound_to 6896
  151.0759  134.9828  159.8342 H   0  0  0  0  0  0  0  0  0  0  0  0  # atno 6908 bound_to 6896
  152.5418  134.2292  159.8871 H   0  0  0  0  0  0  0  0  0  0  0  0  # atno 6909 bound_to 6896
  146.1324  140.5216  142.8687 H   0  0  0  0  0  0  0  0  0  0  0  0  # atno 7974 bound_to 7965
  154.4494  140.1935  156.0567 H   0  0  0  0  0  0  0  0  0  0  0  0  # atno 8008 bound_to 7997
  156.0614  140.3296  155.7439 H   0  0  0  0  0  0  0  0  0  0  0  0  # atno 8009 bound_to 7997
  155.5406  140.0586  157.2861 H   0  0  0  0  0  0  0  0  0  0  0  0  # atno 8010 bound_to 7997
  140.4523  144.1030  150.6194 H   0  0  0  0  0  0  0  0  0  0  0  0  # atno 10167 bound_to 10162
  157.5848  131.1071  150.8116 H   0  0  0  0  0  0  0  0  0  0  0  0  # atno 10718 bound_to 10713
  154.8428  135.4427  154.1464 H   0  0  0  0  0  0  0  0  0  0  0  0  # atno 10763 bound_to 10752
  153.2636  135.6938  153.7559 H   0  0  0  0  0  0  0  0  0  0  0  0  # atno 10764 bound_to 10752
  153.6826  135.3400  155.3157 H   0  0  0  0  0  0  0  0  0  0  0  0  # atno 10765 bound_to 10752
  140.8362  134.2457  157.4833 H   0  0  0  0  0  0  0  0  0  0  0  0  # atno 11005 bound_to 11000
  144.7704  140.5625  143.6674 LP  0  0  0  0  0  0  0  0  0  0  0  0  # atno 17320 bound_to 7965
  145.5231  139.1476  143.3541 LP  0  0  0  0  0  0  0  0  0  0  0  0  # atno 17321 bound_to 7965
  140.4193  143.2619  151.9736 LP  0  0  0  0  0  0  0  0  0  0  0  0  # atno 17342 bound_to 10162
  139.4798  144.5845  151.7876 LP  0  0  0  0  0  0  0  0  0  0  0  0  # atno 17343 bound_to 10162
  156.8553  130.5094  149.5308 LP  0  0  0  0  0  0  0  0  0  0  0  0  # atno 17370 bound_to 10713
  156.0896  130.5885  150.9710 LP  0  0  0  0  0  0  0  0  0  0  0  0  # atno 17371 bound_to 10713
  139.8704  134.9612  156.4388 LP  0  0  0  0  0  0  0  0  0  0  0  0  # atno 17394 bound_to 11000
  140.8945  133.7824  155.9609 LP  0  0  0  0  0  0  0  0  0  0  0  0  # atno 17395 bound_to 11000

$$$$
