AV-unprocessed.smi:1671|AV-procd|sdf|6699|dock9
  -GOLD-   22720 7433D 1   1.00000     0.00000
 Structure written by MMmdl.
 44 45  0  0  0  0  0  0  0  0  1 V2000
  149.6577  132.3447  154.4205 C   0  0  0  0  0  0  0  0  0  0  0  0
  148.9555  133.9992  154.6618 S   0  0  0  0  0  0  0  0  0  0  0  0
  150.4466  134.9514  155.0798 C   0  0  2  0  0  0  0  0  0  0  0  0
  151.0643  134.4733  156.4065 C   0  0  0  0  0  0  0  0  0  0  0  0
  150.1434  136.4550  155.0961 C   0  0  0  0  0  0  0  0  0  0  0  0
  149.4498  136.9484  155.9866 O   0  0  0  0  0  0  0  0  0  0  0  0
  150.6655  137.1753  154.0925 N   0  0  0  0  0  0  0  0  0  0  0  0
  150.4698  138.6082  153.9144 C   0  0  0  0  0  0  0  0  0  0  0  0
  150.9195  139.4135  155.1201 C   0  0  0  0  0  0  0  0  0  0  0  0
  150.0900  140.3950  155.6986 C   0  0  0  0  0  0  0  0  0  0  0  0
  150.5609  141.1188  156.8107 C   0  0  0  0  0  0  0  0  0  0  0  0
  151.8524  140.8417  157.3211 C   0  0  0  0  0  0  0  0  0  0  0  0
  152.3490  141.5501  158.4386 N   0  0  0  0  0  0  0  0  0  0  0  0
  152.6425  140.7945  159.6556 C   0  0  0  0  0  0  0  0  0  0  0  0
  153.4491  141.6556  160.6411 C   0  0  0  0  0  0  0  0  0  0  0  0
  152.7521  142.8697  160.8983 O   0  0  0  0  0  0  0  0  0  0  0  0
  152.5793  143.6484  159.7178 C   0  0  2  0  0  0  0  0  0  0  0  0
  151.9098  144.9703  160.1078 C   0  0  0  0  0  0  0  0  0  0  0  0
  151.7383  142.8516  158.7012 C   0  0  0  0  0  0  0  0  0  0  0  0
  152.6502  139.9042  156.7509 N   0  0  0  0  0  0  0  0  0  0  0  0
  152.1956  139.2153  155.6832 C   0  0  0  0  0  0  0  0  0  0  0  0
  148.8801  131.6546  154.0933 H   0  0  0  0  0  0  0  0  0  0  0  0
  150.0818  131.9637  155.3491 H   0  0  0  0  0  0  0  0  0  0  0  0
  150.4394  132.3670  153.6610 H   0  0  0  0  0  0  0  0  0  0  0  0
  151.1757  134.7793  154.2865 H   0  0  0  0  0  0  0  0  0  0  0  0
  151.9171  135.0901  156.6926 H   0  0  0  0  0  0  0  0  0  0  0  0
  151.4236  133.4477  156.3291 H   0  0  0  0  0  0  0  0  0  0  0  0
  150.3391  134.5085  157.2205 H   0  0  0  0  0  0  0  0  0  0  0  0
  151.2172  136.6958  153.3960 H   0  0  0  0  0  0  0  0  0  0  0  0
  151.0133  138.9325  153.0259 H   0  0  0  0  0  0  0  0  0  0  0  0
  149.4137  138.8194  153.7388 H   0  0  0  0  0  0  0  0  0  0  0  0
  149.1089  140.5983  155.2948 H   0  0  0  0  0  0  0  0  0  0  0  0
  149.9342  141.8841  157.2425 H   0  0  0  0  0  0  0  0  0  0  0  0
  151.7063  140.4770  160.1169 H   0  0  0  0  0  0  0  0  0  0  0  0
  153.2121  139.8953  159.4181 H   0  0  0  0  0  0  0  0  0  0  0  0
  153.5878  141.1200  161.5803 H   0  0  0  0  0  0  0  0  0  0  0  0
  154.4439  141.8695  160.2469 H   0  0  0  0  0  0  0  0  0  0  0  0
  153.5588  143.8700  159.2894 H   0  0  0  0  0  0  0  0  0  0  0  0
  151.7638  145.6090  159.2362 H   0  0  0  0  0  0  0  0  0  0  0  0
  152.5213  145.5202  160.8235 H   0  0  0  0  0  0  0  0  0  0  0  0
  150.9347  144.7994  160.5649 H   0  0  0  0  0  0  0  0  0  0  0  0
  151.6364  143.4420  157.7921 H   0  0  0  0  0  0  0  0  0  0  0  0
  150.7313  142.6926  159.0895 H   0  0  0  0  0  0  0  0  0  0  0  0
  152.8728  138.4820  155.2704 H   0  0  0  0  0  0  0  0  0  0  0  0
  1  2  1  0  0  0  0
  1 22  1  0  0  0  0
  1 23  1  0  0  0  0
  1 24  1  0  0  0  0
  2  3  1  0  0  0  0
  3  4  1  0  0  0  0
  3  5  1  0  0  0  0
  3 25  1  0  0  0  0
  4 26  1  0  0  0  0
  4 27  1  0  0  0  0
  4 28  1  0  0  0  0
  5  6  2  0  0  0  0
  5  7  1  0  0  0  0
  7  8  1  0  0  0  0
  7 29  1  0  0  0  0
  8  9  1  0  0  0  0
  8 30  1  0  0  0  0
  8 31  1  0  0  0  0
  9 21  1  0  0  0  0
  9 10  2  0  0  0  0
 10 11  1  0  0  0  0
 10 32  1  0  0  0  0
 11 12  2  0  0  0  0
 11 33  1  0  0  0  0
 12 13  1  0  0  0  0
 12 20  1  0  0  0  0
 13 19  1  0  0  0  0
 13 14  1  0  0  0  0
 14 15  1  0  0  0  0
 14 34  1  0  0  0  0
 14 35  1  0  0  0  0
 15 16  1  0  0  0  0
 15 36  1  0  0  0  0
 15 37  1  0  0  0  0
 16 17  1  0  0  0  0
 17 18  1  0  0  0  0
 17 19  1  0  0  0  0
 17 38  1  0  0  0  0
 18 39  1  0  0  0  0
 18 40  1  0  0  0  0
 18 41  1  0  0  0  0
 19 42  1  0  0  0  0
 19 43  1  0  0  0  0
 20 21  2  0  0  0  0
 21 44  1  0  0  0  0
M  END
> <s_m_source_file>
AV-unprocessed.smi

> <i_m_source_file_index>
1671

> <i_lp_mmshare_version>
43012

> <i_f3d_flags>
0

> <s_epik_input>
W0NIM11TW0NASF0oW0NIM10pQyg9TylbTkhdW0NIMl1jMVtjSF1bY0hdYyhuW2NIXTEpTjJbQ0gyXVtDSDJdT1tDQEBIXShbQ0gzXSlbQ0gyXTI=

> <s_epik_cmdline>
J2VwaWtfcHl0aG9uJywgJy1waCcsICc3LjAnLCAnLXRuJywgJzgnLCAnLW1hJywgJzIwMCcsICctbWV0YWxfYmluZGluZycsICctaW1hZScsICc8aW5maWxlLm1hZT4nLCAnLW9tYWUnLCAnPG91dGZpbGUubWFlPic=

> <r_lp_tautomer_probability>
1

> <r_epik_Ionization_Penalty>
0.00480033

> <r_epik_Ionization_Penalty_Charging>
0

> <r_epik_Ionization_Penalty_Neutral>
0.00480033

> <r_epik_State_Penalty>
0.00347981

> <r_epik_Charging_Adjusted_Penalty>
0.00347981

> <i_epik_Tot_Q>
0

> <i_epik_Tot_abs_Q>
0

> <r_epik_Metal_State_Penalty>
-0

> <b_epik_Metal_Only>
0

> <s_lp_Force_Field>
OPLS_2005

> <r_lp_Energy>
17.324

> <b_lp_Chiralities_Consistent>
1

> <s_lp_Variant>
AV-unprocessed.smi:1671-3

> <Gold.Version>
5.8.1

> <Gold.Id.Protein>
6NUR|6NUR_protein|mol2

> <Gold.PLP.Fitness>
48.9792

> <Gold.PLP.PLP>
-44.2028

> <Gold.PLP.part.hbond>
-3.0000

> <Gold.PLP.part.metal>
0.0000

> <Gold.PLP.part.buried>
-4.6535

> <Gold.PLP.part.nonpolar>
-36.4599

> <Gold.PLP.part.repulsive>
0.1562

> <Gold.PLP.ligand.clash>
0.0000

> <Gold.PLP.ligand.torsion>
0.6062

> <Gold.PLP.Chemscore.Hbond>
1.8640

> <Gold.PLP.Chemscore.CHOScore>
0.0000

> <Gold.PLP.Chemscore.Metal>
0.0000

> <Gold.Chemscore.Hbonds>
donor molecule, donor type, donor heavy atom, donor atom, acceptor molecule, acceptor atom, score
      L1  H     7    29       P1  7949  0.86
      P1  H  7997  8008       L1    20  1.00

> <Gold.PLP.Chemscore.Internal.Correction>
0.3968

> <Gold.Rescore>
     Score         DG    S(hbond)    S(metal)    S(lipo)     H(rot)  DE(clash)    DE(int)     intcor
     18.24     -18.95       1.35        0.00     112.27       1.63       0.21       0.50       ----

> <Gold.Chemscore.Fitness>
18.2425

> <Gold.Chemscore.DG>
-18.9521

> <Gold.Chemscore.ZeroCoef>
-5.4800

> <Gold.Chemscore.Hbond>
1.3481

> <Gold.Chemscore.Metal>
0.0000

> <Gold.Chemscore.Lipo>
112.2665

> <Gold.Chemscore.Internal_Hbond>
0.0000

> <Gold.Chemscore.DEClash>
0.2131

> <Gold.Chemscore.DEInternal>
0.4965

> <Gold.Chemscore.Rot>
1.6272

> <Gold.Chemscore.Internal.Correction>
   9.000000E+99

> <Gold.Chemscore.Hbonds>
donor molecule, donor type, donor heavy atom, donor atom, acceptor molecule, acceptor atom, score
      L1  H     7    29       P1  7949  0.43
      P1  H  7997  8008       L1    20  0.44

> <Gold.Chemscore.Hbond.Weighted>
-4.5026

> <Gold.Chemscore.Metal.Weighted>
-0.0000

> <Gold.Chemscore.Lipo.Weighted>
-13.1352

> <Gold.Chemscore.Internal_Hbond.Weighted>
0.0000

> <Gold.Chemscore.DEClash.Weighted>
0.2131

> <Gold.Chemscore.DEInternal.Weighted>
0.4965

> <Gold.Chemscore.Rot.Weighted>
4.1657

> <Gold.Chemscore.Internal.Correction.Weighted>
   9.000000E+99

> <Gold.Protein.RotatedTorsions>
[ 6907 6896 6895 6894 ] final -144.98 input  -60.11 | X-H torsion
[ 7974 7965 7964 7962 ] final  139.55 input  175.53 | X-H torsion
[ 8008 7997 7996 7995 ] final  -45.77 input   59.86 | X-H torsion
[ 10167 10162 10161 10158 ] final   48.33 input  -65.29 | X-H torsion
[ 10718 10713 10712 10709 ] final  -47.57 input   66.30 | X-H torsion
[ 10763 10752 10751 10750 ] final  169.20 input  -60.55 | X-H torsion
[ 11005 11000 10999 10996 ] final   41.78 input  -57.11 | X-H torsion

> <Gold.Protein.ActiveResidues>
 VAL166  LYS551  ARG553  GLY616  TRP617  ASP618  TYR619  PRO620  LYS621  CYS622 
 ASP623  PHE694  ASN695  SER759  ASP760  ASP761  ALA762  ILE779  LEU786  VAL792 
 PHE793  MET794  SER795  GLU796  ALA797  LYS798  CYS799  TRP800  GLU811  SER814 

> <Gold.Protein.RotatedAtoms>
  151.1214  133.5101  159.2601 H   0  0  0  0  0  0  0  0  0  0  0  0  # atno 6907 bound_to 6896
  151.1857  135.0380  159.8821 H   0  0  0  0  0  0  0  0  0  0  0  0  # atno 6908 bound_to 6896
  152.5456  134.1061  159.8392 H   0  0  0  0  0  0  0  0  0  0  0  0  # atno 6909 bound_to 6896
  144.9268  139.5097  143.5637 H   0  0  0  0  0  0  0  0  0  0  0  0  # atno 7974 bound_to 7965
  154.4003  140.1388  156.3902 H   0  0  0  0  0  0  0  0  0  0  0  0  # atno 8008 bound_to 7997
  155.7921  140.3478  155.5335 H   0  0  0  0  0  0  0  0  0  0  0  0  # atno 8009 bound_to 7997
  155.8569  140.0950  157.1629 H   0  0  0  0  0  0  0  0  0  0  0  0  # atno 8010 bound_to 7997
  140.2944  144.3008  150.6233 H   0  0  0  0  0  0  0  0  0  0  0  0  # atno 10167 bound_to 10162
  156.2071  130.4159  149.9163 H   0  0  0  0  0  0  0  0  0  0  0  0  # atno 10718 bound_to 10713
  154.3797  135.2753  155.2218 H   0  0  0  0  0  0  0  0  0  0  0  0  # atno 10763 bound_to 10752
  154.4330  135.5972  153.6084 H   0  0  0  0  0  0  0  0  0  0  0  0  # atno 10764 bound_to 10752
  152.9835  135.6000  154.4038 H   0  0  0  0  0  0  0  0  0  0  0  0  # atno 10765 bound_to 10752
  140.1801  134.4114  155.8205 H   0  0  0  0  0  0  0  0  0  0  0  0  # atno 11005 bound_to 11000
  146.3230  139.8190  142.8930 LP  0  0  0  0  0  0  0  0  0  0  0  0  # atno 17320 bound_to 7965
  145.3205  141.0243  143.3503 LP  0  0  0  0  0  0  0  0  0  0  0  0  # atno 17321 bound_to 7965
  140.5705  143.2181  151.7608 LP  0  0  0  0  0  0  0  0  0  0  0  0  # atno 17342 bound_to 10162
  139.4930  144.4223  151.9964 LP  0  0  0  0  0  0  0  0  0  0  0  0  # atno 17343 bound_to 10162
  156.6854  130.8874  151.3581 LP  0  0  0  0  0  0  0  0  0  0  0  0  # atno 17370 bound_to 10713
  157.7018  130.9341  150.0809 LP  0  0  0  0  0  0  0  0  0  0  0  0  # atno 17371 bound_to 10713
  141.2222  133.6996  156.7916 LP  0  0  0  0  0  0  0  0  0  0  0  0  # atno 17394 bound_to 11000
  140.2277  134.8709  157.3444 LP  0  0  0  0  0  0  0  0  0  0  0  0  # atno 17395 bound_to 11000

$$$$
