AV-unprocessed.smi:1474|AV-procd|sdf|5974|dock8
  -GOLD-   22720 6 63D 1   1.00000     0.00000
 Structure written by MMmdl.
 43 44  0  0  0  0  0  0  0  0  1 V2000
  151.8750  143.8112  158.0787 C   0  0  0  0  0  0  0  0  0  0  0  0
  151.1903  143.2397  156.9778 O   0  0  0  0  0  0  0  0  0  0  0  0
  150.6904  141.9440  157.2627 C   0  0  0  0  0  0  0  0  0  0  0  0
  150.0124  141.3834  156.0100 C   0  0  0  0  0  0  0  0  0  0  0  0
  148.6698  141.0349  156.3338 O   0  0  0  0  0  0  0  0  0  0  0  0
  147.9579  140.2586  155.4423 C   0  0  0  0  0  0  0  0  0  0  0  0
  146.6205  139.9350  155.7499 C   0  0  0  0  0  0  0  0  0  0  0  0
  145.8931  139.1313  154.8515 C   0  0  0  0  0  0  0  0  0  0  0  0
  146.5252  138.6833  153.6741 C   0  0  0  0  0  0  0  0  0  0  0  0
  145.7933  137.7906  152.6887 C   0  0  0  0  0  0  0  0  0  0  0  0
  146.3341  136.4370  152.6610 N   0  0  0  0  0  0  0  0  0  0  0  0
  145.6934  135.3664  152.1657 C   0  0  0  0  0  0  0  0  0  0  0  0
  144.5414  135.4175  151.7334 O   0  0  0  0  0  0  0  0  0  0  0  0
  146.4784  134.0412  152.1617 C   0  0  2  0  0  0  0  0  0  0  0  0
  146.8010  133.5670  150.7324 C   0  0  0  0  0  0  0  0  0  0  0  0
  145.5577  133.0838  149.9617 C   0  0  0  0  0  0  0  0  0  0  0  0
  144.6197  132.1999  150.7972 C   0  0  0  0  0  0  0  0  0  0  0  0
  143.7715  131.5153  150.2301 O   0  0  0  0  0  0  0  0  0  0  0  0
  144.7190  132.2263  152.1380 N   0  0  0  0  0  0  0  0  0  0  0  0
  145.7523  132.9074  152.9213 C   0  0  0  0  0  0  0  0  0  0  0  0
  147.8647  139.0644  153.4508 C   0  0  0  0  0  0  0  0  0  0  0  0
  148.5694  139.8321  154.3089 N   0  0  0  0  0  0  0  0  0  0  0  0
  152.2436  144.8003  157.8074 H   0  0  0  0  0  0  0  0  0  0  0  0
  152.7309  143.2017  158.3709 H   0  0  0  0  0  0  0  0  0  0  0  0
  151.2140  143.9225  158.9391 H   0  0  0  0  0  0  0  0  0  0  0  0
  151.5071  141.2881  157.5688 H   0  0  0  0  0  0  0  0  0  0  0  0
  149.9756  141.9888  158.0859 H   0  0  0  0  0  0  0  0  0  0  0  0
  150.0314  142.1305  155.2150 H   0  0  0  0  0  0  0  0  0  0  0  0
  150.5574  140.5042  155.6622 H   0  0  0  0  0  0  0  0  0  0  0  0
  146.1637  140.2909  156.6615 H   0  0  0  0  0  0  0  0  0  0  0  0
  144.8700  138.8599  155.0663 H   0  0  0  0  0  0  0  0  0  0  0  0
  144.7428  137.7362  152.9759 H   0  0  0  0  0  0  0  0  0  0  0  0
  145.8165  138.2296  151.6898 H   0  0  0  0  0  0  0  0  0  0  0  0
  147.2742  136.3119  153.0076 H   0  0  0  0  0  0  0  0  0  0  0  0
  147.4213  134.2291  152.6782 H   0  0  0  0  0  0  0  0  0  0  0  0
  147.2899  134.3654  150.1722 H   0  0  0  0  0  0  0  0  0  0  0  0
  147.5263  132.7540  150.7834 H   0  0  0  0  0  0  0  0  0  0  0  0
  144.9807  133.9423  149.6167 H   0  0  0  0  0  0  0  0  0  0  0  0
  145.8644  132.5416  149.0667 H   0  0  0  0  0  0  0  0  0  0  0  0
  144.0580  131.6685  152.6593 H   0  0  0  0  0  0  0  0  0  0  0  0
  146.4798  132.1549  153.2274 H   0  0  0  0  0  0  0  0  0  0  0  0
  145.3027  133.2839  153.8411 H   0  0  0  0  0  0  0  0  0  0  0  0
  148.3901  138.7356  152.5664 H   0  0  0  0  0  0  0  0  0  0  0  0
  1  2  1  0  0  0  0
  1 23  1  0  0  0  0
  1 24  1  0  0  0  0
  1 25  1  0  0  0  0
  2  3  1  0  0  0  0
  3  4  1  0  0  0  0
  3 26  1  0  0  0  0
  3 27  1  0  0  0  0
  4  5  1  0  0  0  0
  4 28  1  0  0  0  0
  4 29  1  0  0  0  0
  5  6  1  0  0  0  0
  6 22  1  0  0  0  0
  6  7  2  0  0  0  0
  7  8  1  0  0  0  0
  7 30  1  0  0  0  0
  8  9  2  0  0  0  0
  8 31  1  0  0  0  0
  9 10  1  0  0  0  0
  9 21  1  0  0  0  0
 10 11  1  0  0  0  0
 10 32  1  0  0  0  0
 10 33  1  0  0  0  0
 11 12  1  0  0  0  0
 11 34  1  0  0  0  0
 12 13  2  0  0  0  0
 12 14  1  0  0  0  0
 14 20  1  0  0  0  0
 14 15  1  0  0  0  0
 14 35  1  0  0  0  0
 15 16  1  0  0  0  0
 15 36  1  0  0  0  0
 15 37  1  0  0  0  0
 16 17  1  0  0  0  0
 16 38  1  0  0  0  0
 16 39  1  0  0  0  0
 17 18  2  0  0  0  0
 17 19  1  0  0  0  0
 19 20  1  0  0  0  0
 19 40  1  0  0  0  0
 20 41  1  0  0  0  0
 20 42  1  0  0  0  0
 21 22  2  0  0  0  0
 21 43  1  0  0  0  0
M  END
> <s_m_source_file>
AV-unprocessed.smi

> <i_m_source_file_index>
1474

> <i_lp_mmshare_version>
43012

> <i_f3d_flags>
0

> <s_epik_input>
W0NIM11PW0NIMl1bQ0gyXU9jMVtjSF1bY0hdYyhbY0hdbjEpW0NIMl1bTkhdQyg9TylbQ0BASF0yW0NIMl1bQ0gyXUMoPU8pW05IXVtDSDJdMg==

> <s_epik_cmdline>
J2VwaWtfcHl0aG9uJywgJy1waCcsICc3LjAnLCAnLXRuJywgJzgnLCAnLW1hJywgJzIwMCcsICctbWV0YWxfYmluZGluZycsICctaW1hZScsICc8aW5maWxlLm1hZT4nLCAnLW9tYWUnLCAnPG91dGZpbGUubWFlPic=

> <r_lp_tautomer_probability>
1

> <r_epik_Ionization_Penalty>
6.19599e-05

> <r_epik_Ionization_Penalty_Charging>
0

> <r_epik_Ionization_Penalty_Neutral>
6.19599e-05

> <r_epik_State_Penalty>
-0

> <r_epik_Charging_Adjusted_Penalty>
0

> <i_epik_Tot_Q>
0

> <i_epik_Tot_abs_Q>
0

> <r_epik_Metal_State_Penalty>
-0

> <b_epik_Metal_Only>
0

> <s_lp_Force_Field>
OPLS_2005

> <r_lp_Energy>
10.5341

> <b_lp_Chiralities_Consistent>
1

> <s_lp_Variant>
AV-unprocessed.smi:1474-1

> <Gold.Version>
5.8.1

> <Gold.Id.Protein>
6NUR|6NUR_protein|mol2

> <Gold.PLP.Fitness>
34.7206

> <Gold.PLP.PLP>
-26.7807

> <Gold.PLP.part.hbond>
-2.1052

> <Gold.PLP.part.metal>
0.0000

> <Gold.PLP.part.buried>
-3.8681

> <Gold.PLP.part.nonpolar>
-21.8838

> <Gold.PLP.part.repulsive>
1.3895

> <Gold.PLP.ligand.clash>
0.0000

> <Gold.PLP.ligand.torsion>
0.6721

> <Gold.PLP.Chemscore.Hbond>
1.2082

> <Gold.PLP.Chemscore.CHOScore>
1.8462

> <Gold.PLP.Chemscore.Metal>
0.0000

> <Gold.Chemscore.Hbonds>
donor molecule, donor type, donor heavy atom, donor atom, acceptor molecule, acceptor atom, score
      L1  H    11    34       P1  7948  0.50
      P1  H 10785 10796       L1    18  0.66
      L1  C    21    43       P1  7948  0.73
      L1  C    21    43       P1  7957  0.95

> <Gold.PLP.Chemscore.Internal.Correction>
0.1210

> <Gold.Rescore>
     Score         DG    S(hbond)    S(metal)    S(lipo)     H(rot)  DE(clash)    DE(int)     intcor
     10.42     -11.95       1.38        0.00      70.88       2.52       0.83       0.69       ----

> <Gold.Chemscore.Fitness>
10.4233

> <Gold.Chemscore.DG>
-11.9467

> <Gold.Chemscore.ZeroCoef>
-5.4800

> <Gold.Chemscore.Hbond>
1.3847

> <Gold.Chemscore.Metal>
0.0000

> <Gold.Chemscore.Lipo>
70.8826

> <Gold.Chemscore.Internal_Hbond>
0.0000

> <Gold.Chemscore.DEClash>
0.8347

> <Gold.Chemscore.DEInternal>
0.6888

> <Gold.Chemscore.Rot>
2.5201

> <Gold.Chemscore.Internal.Correction>
   9.000000E+99

> <Gold.Chemscore.Hbonds>
donor molecule, donor type, donor heavy atom, donor atom, acceptor molecule, acceptor atom, score
      L1  H    11    34       P1  7948  0.47
      P1  H 10785 10796       L1    18  0.65

> <Gold.Chemscore.Hbond.Weighted>
-4.6249

> <Gold.Chemscore.Metal.Weighted>
-0.0000

> <Gold.Chemscore.Lipo.Weighted>
-8.2933

> <Gold.Chemscore.Internal_Hbond.Weighted>
0.0000

> <Gold.Chemscore.DEClash.Weighted>
0.8347

> <Gold.Chemscore.DEInternal.Weighted>
0.6888

> <Gold.Chemscore.Rot.Weighted>
6.4514

> <Gold.Chemscore.Internal.Correction.Weighted>
   9.000000E+99

> <Gold.Protein.RotatedTorsions>
[ 6907 6896 6895 6894 ] final   94.65 input  -60.11 | X-H torsion
[ 7974 7965 7964 7962 ] final  124.35 input  175.53 | X-H torsion
[ 8008 7997 7996 7995 ] final  146.42 input   59.86 | X-H torsion
[ 10167 10162 10161 10158 ] final   65.41 input  -65.29 | X-H torsion
[ 10718 10713 10712 10709 ] final  -62.45 input   66.30 | X-H torsion
[ 10763 10752 10751 10750 ] final  128.33 input  -60.55 | X-H torsion
[ 11005 11000 10999 10996 ] final -159.88 input  -57.11 | X-H torsion

> <Gold.Protein.ActiveResidues>
 VAL166  LYS551  ARG553  GLY616  TRP617  ASP618  TYR619  PRO620  LYS621  CYS622 
 ASP623  PHE694  ASN695  SER759  ASP760  ASP761  ALA762  ILE779  LEU786  VAL792 
 PHE793  MET794  SER795  GLU796  ALA797  LYS798  CYS799  TRP800  GLU811  SER814 

> <Gold.Protein.RotatedAtoms>
  152.5448  134.1160  159.8378 H   0  0  0  0  0  0  0  0  0  0  0  0  # atno 6907 bound_to 6896
  151.1221  133.5089  159.2609 H   0  0  0  0  0  0  0  0  0  0  0  0  # atno 6908 bound_to 6896
  151.1767  135.0352  159.8829 H   0  0  0  0  0  0  0  0  0  0  0  0  # atno 6909 bound_to 6896
  145.0854  139.3626  143.4888 H   0  0  0  0  0  0  0  0  0  0  0  0  # atno 7974 bound_to 7965
  156.2856  140.2183  156.5373 H   0  0  0  0  0  0  0  0  0  0  0  0  # atno 8008 bound_to 7997
  154.7399  140.0488  157.0824 H   0  0  0  0  0  0  0  0  0  0  0  0  # atno 8009 bound_to 7997
  155.0245  140.3128  155.4784 H   0  0  0  0  0  0  0  0  0  0  0  0  # atno 8010 bound_to 7997
  140.1116  144.4812  150.6974 H   0  0  0  0  0  0  0  0  0  0  0  0  # atno 10167 bound_to 10162
  156.0854  130.4209  150.1137 H   0  0  0  0  0  0  0  0  0  0  0  0  # atno 10718 bound_to 10713
  153.7238  135.3249  155.3272 H   0  0  0  0  0  0  0  0  0  0  0  0  # atno 10763 bound_to 10752
  154.8348  135.4506  154.1191 H   0  0  0  0  0  0  0  0  0  0  0  0  # atno 10764 bound_to 10752
  153.2319  135.6961  153.7961 H   0  0  0  0  0  0  0  0  0  0  0  0  # atno 10765 bound_to 10752
  140.6377  134.4585  157.5232 H   0  0  0  0  0  0  0  0  0  0  0  0  # atno 11005 bound_to 11000
  146.3531  140.0664  142.8626 LP  0  0  0  0  0  0  0  0  0  0  0  0  # atno 17320 bound_to 7965
  145.1128  140.9415  143.4646 LP  0  0  0  0  0  0  0  0  0  0  0  0  # atno 17321 bound_to 7965
  140.6922  143.2382  151.5099 LP  0  0  0  0  0  0  0  0  0  0  0  0  # atno 17342 bound_to 10162
  139.5616  144.2143  152.1700 LP  0  0  0  0  0  0  0  0  0  0  0  0  # atno 17343 bound_to 10162
  156.9159  130.9667  151.3556 LP  0  0  0  0  0  0  0  0  0  0  0  0  # atno 17370 bound_to 10713
  157.5987  130.8496  149.8768 LP  0  0  0  0  0  0  0  0  0  0  0  0  # atno 17371 bound_to 10713
  139.9092  134.8382  156.1591 LP  0  0  0  0  0  0  0  0  0  0  0  0  # atno 17394 bound_to 11000
  141.0630  133.6833  156.1989 LP  0  0  0  0  0  0  0  0  0  0  0  0  # atno 17395 bound_to 11000

$$$$
