AV-unprocessed.smi:157|AV-procd|sdf|1293|dock1
  -GOLD-   2262018573D 1   1.00000     0.00000
 Structure written by MMmdl.
 35 37  0  0  0  0  0  0  0  0  1 V2000
  151.7230  136.8569  153.9250 O   0  0  0  0  0  0  0  0  0  0  0  0
  152.1107  138.2093  154.0420 C   0  0  0  0  0  0  0  0  0  0  0  0
  151.4364  138.8447  155.2669 C   0  0  1  0  0  0  0  0  0  0  0  0
  151.9308  140.1674  155.4574 O   0  0  0  0  0  0  0  0  0  0  0  0
  150.9765  140.9484  156.1155 C   0  0  2  0  0  0  0  0  0  0  0  0
  151.4427  141.2071  157.5170 N   0  0  0  0  0  0  0  0  0  0  0  0
  151.7507  140.2897  158.4444 C   0  0  0  0  0  0  0  0  0  0  0  0
  152.1371  140.7904  159.6055 N   0  0  0  0  0  0  0  0  0  0  0  0
  152.0673  142.1691  159.4169 C   0  0  0  0  0  0  0  0  0  0  0  0
  151.6293  142.4492  158.1305 C   0  0  0  0  0  0  0  0  0  0  0  0
  151.3715  143.5877  157.3908 N   0  0  0  0  0  0  0  0  0  0  0  0
  151.2212  144.7076  158.0252 C   0  0  0  0  0  0  0  0  0  0  0  0
  151.3665  145.0024  159.3733 N   0  0  0  0  0  0  0  0  0  0  0  0
  152.5047  144.5772  160.1701 C   0  0  0  0  0  0  0  0  0  0  0  0
  152.4752  143.0876  160.5316 C   0  0  1  0  0  0  0  0  0  0  0  0
  151.5647  142.8804  161.5920 O   0  0  0  0  0  0  0  0  0  0  0  0
  149.6706  140.1473  156.1384 C   0  0  0  0  0  0  0  0  0  0  0  0
  149.9368  139.0876  155.0882 C   0  0  2  0  0  0  0  0  0  0  0  0
  149.1677  137.9284  155.3345 O   0  0  0  0  0  0  0  0  0  0  0  0
  151.6103  138.2535  156.1682 H   0  0  0  0  0  0  0  0  0  0  0  0
  150.8982  141.9275  155.6418 H   0  0  0  0  0  0  0  0  0  0  0  0
  153.4609  142.8039  160.9023 H   0  0  0  0  0  0  0  0  0  0  0  0
  149.7243  139.4799  154.0925 H   0  0  0  0  0  0  0  0  0  0  0  0
  151.6814  136.6345  153.0075 H   0  0  0  0  0  0  0  0  0  0  0  0
  153.1965  138.2909  154.0999 H   0  0  0  0  0  0  0  0  0  0  0  0
  151.7952  138.7202  153.1319 H   0  0  0  0  0  0  0  0  0  0  0  0
  151.6952  139.2260  158.2666 H   0  0  0  0  0  0  0  0  0  0  0  0
  150.9414  145.5924  157.4517 H   0  0  0  0  0  0  0  0  0  0  0  0
  150.9827  145.8699  159.7193 H   0  0  0  0  0  0  0  0  0  0  0  0
  153.4037  144.7798  159.5862 H   0  0  0  0  0  0  0  0  0  0  0  0
  152.5793  145.1922  161.0673 H   0  0  0  0  0  0  0  0  0  0  0  0
  152.0161  143.0517  162.4046 H   0  0  0  0  0  0  0  0  0  0  0  0
  149.5295  139.6961  157.1227 H   0  0  0  0  0  0  0  0  0  0  0  0
  148.8140  140.7833  155.9136 H   0  0  0  0  0  0  0  0  0  0  0  0
  148.8108  137.6247  154.5138 H   0  0  0  0  0  0  0  0  0  0  0  0
  1  2  1  0  0  0  0
  1 24  1  0  0  0  0
  2  3  1  0  0  0  0
  2 25  1  0  0  0  0
  2 26  1  0  0  0  0
  3 20  1  0  0  0  0
  3 18  1  0  0  0  0
  3  4  1  0  0  0  0
  4  5  1  0  0  0  0
  5 21  1  0  0  0  0
  5  6  1  0  0  0  0
  5 17  1  0  0  0  0
  6 10  1  0  0  0  0
  6  7  1  0  0  0  0
  7  8  2  0  0  0  0
  7 27  1  0  0  0  0
  8  9  1  0  0  0  0
  9 15  1  0  0  0  0
  9 10  2  0  0  0  0
 10 11  1  0  0  0  0
 11 12  2  0  0  0  0
 12 13  1  0  0  0  0
 12 28  1  0  0  0  0
 13 14  1  0  0  0  0
 13 29  1  0  0  0  0
 14 15  1  0  0  0  0
 14 30  1  0  0  0  0
 14 31  1  0  0  0  0
 15 22  1  0  0  0  0
 15 16  1  0  0  0  0
 16 32  1  0  0  0  0
 17 18  1  0  0  0  0
 17 33  1  0  0  0  0
 17 34  1  0  0  0  0
 18 23  1  0  0  0  0
 18 19  1  0  0  0  0
 19 35  1  0  0  0  0
M  END
> <s_m_source_file>
AV-unprocessed.smi

> <i_m_source_file_index>
157

> <i_lp_mmshare_version>
43012

> <i_f3d_flags>
0

> <s_epik_input>
W09IXVtDSDJdW0NASF0xT1tDQEhdKFtDSDJdW0NAQEhdMVtPSF0pbihbY0hdbjIpYyhjMjMpTj1bQ0hdW05IXVtDSDJdW0NASF0zW09IXQ==

> <s_epik_cmdline>
J2VwaWtfcHl0aG9uJywgJy1waCcsICc3LjAnLCAnLXRuJywgJzgnLCAnLW1hJywgJzIwMCcsICctbWV0YWxfYmluZGluZycsICctaW1hZScsICc8aW5maWxlLm1hZT4nLCAnLW9tYWUnLCAnPG91dGZpbGUubWFlPic=

> <r_lp_tautomer_probability>
1

> <r_epik_Ionization_Penalty>
0.0357149

> <r_epik_Ionization_Penalty_Charging>
0.0355056

> <r_epik_Ionization_Penalty_Neutral>
0.000209255

> <r_epik_State_Penalty>
0.0296046

> <r_epik_Charging_Adjusted_Penalty>
0.0651102

> <i_epik_Tot_Q>
0

> <i_epik_Tot_abs_Q>
0

> <r_epik_Metal_State_Penalty>
3.03559e-05

> <b_epik_Metal_Only>
0

> <s_epik_Chemistry_Notes>
This compound has an imine and may undergo hydrolysis. This compound contains an acetal/aminal-like group ( X-CH(R)-Y where X, Y are N, S, or O) that may be acid/base labile, releasing an aldehyde.

> <s_lp_Force_Field>
OPLS_2005

> <r_lp_Energy>
43.2358

> <b_lp_Chiralities_Consistent>
1

> <s_lp_Variant>
AV-unprocessed.smi:157-3

> <Gold.Version>
5.8.1

> <Gold.Id.Protein>
6NUR|6NUR_protein|mol2

> <Gold.PLP.Fitness>
45.3553

> <Gold.PLP.PLP>
-34.8689

> <Gold.PLP.part.hbond>
-4.4220

> <Gold.PLP.part.metal>
0.0000

> <Gold.PLP.part.buried>
-8.6723

> <Gold.PLP.part.nonpolar>
-21.9394

> <Gold.PLP.part.repulsive>
0.3045

> <Gold.PLP.ligand.clash>
0.0000

> <Gold.PLP.ligand.torsion>
0.0537

> <Gold.PLP.Chemscore.Hbond>
3.3915

> <Gold.PLP.Chemscore.CHOScore>
0.1333

> <Gold.PLP.Chemscore.Metal>
0.0000

> <Gold.Chemscore.Hbonds>
donor molecule, donor type, donor heavy atom, donor atom, acceptor molecule, acceptor atom, score
      L1  H     1    24       P1  7949  1.00
      P1  H  6933  6945       L1    16  0.58
      P1  H  7989  7998       L1     4  0.62
      P1  H 10752 10765       L1     1  0.85
      L1  C    12    28       P1  8028  0.12

> <Gold.PLP.Chemscore.Internal.Correction>
0.0195

> <Gold.Rescore>
     Score         DG    S(hbond)    S(metal)    S(lipo)     H(rot)  DE(clash)    DE(int)     intcor
      7.59      -7.84       1.48        0.00      57.42       3.64       0.19       0.06       ----

> <Gold.Chemscore.Fitness>
7.5885

> <Gold.Chemscore.DG>
-7.8403

> <Gold.Chemscore.ZeroCoef>
-5.4800

> <Gold.Chemscore.Hbond>
1.4824

> <Gold.Chemscore.Metal>
0.0000

> <Gold.Chemscore.Lipo>
57.4184

> <Gold.Chemscore.Internal_Hbond>
0.0000

> <Gold.Chemscore.DEClash>
0.1907

> <Gold.Chemscore.DEInternal>
0.0611

> <Gold.Chemscore.Rot>
3.6362

> <Gold.Chemscore.Internal.Correction>
   9.000000E+99

> <Gold.Chemscore.Hbonds>
donor molecule, donor type, donor heavy atom, donor atom, acceptor molecule, acceptor atom, score
      L1  H     1    24       P1  7949  0.99
      P1  H  6933  6945       L1    16  0.17
      P1  H  7989  7998       L1     4  0.03
      P1  H 10752 10765       L1     1  0.13

> <Gold.Chemscore.Hbond.Weighted>
-4.9511

> <Gold.Chemscore.Metal.Weighted>
-0.0000

> <Gold.Chemscore.Lipo.Weighted>
-6.7180

> <Gold.Chemscore.Internal_Hbond.Weighted>
0.0000

> <Gold.Chemscore.DEClash.Weighted>
0.1907

> <Gold.Chemscore.DEInternal.Weighted>
0.0611

> <Gold.Chemscore.Rot.Weighted>
9.3087

> <Gold.Chemscore.Internal.Correction.Weighted>
   9.000000E+99

> <Gold.Protein.RotatedTorsions>
[ 6907 6896 6895 6894 ] final  -34.00 input  -60.11 | X-H torsion
[ 7974 7965 7964 7962 ] final -162.05 input  175.53 | X-H torsion
[ 8008 7997 7996 7995 ] final   -9.62 input   59.86 | X-H torsion
[ 10167 10162 10161 10158 ] final  -97.91 input  -65.29 | X-H torsion
[ 10718 10713 10712 10709 ] final  -97.42 input   66.30 | X-H torsion
[ 10763 10752 10751 10750 ] final  169.57 input  -60.55 | X-H torsion
[ 11005 11000 10999 10996 ] final  164.75 input  -57.11 | X-H torsion

> <Gold.Protein.ActiveResidues>
 VAL166  LYS551  ARG553  GLY616  TRP617  ASP618  TYR619  PRO620  LYS621  CYS622 
 ASP623  PHE694  ASN695  SER759  ASP760  ASP761  ALA762  ILE779  LEU786  VAL792 
 PHE793  MET794  SER795  GLU796  ALA797  LYS798  CYS799  TRP800  GLU811  SER814 

> <Gold.Protein.RotatedAtoms>
  151.0583  134.9719  159.8246 H   0  0  0  0  0  0  0  0  0  0  0  0  # atno 6907 bound_to 6896
  152.5391  134.2450  159.8887 H   0  0  0  0  0  0  0  0  0  0  0  0  # atno 6908 bound_to 6896
  151.2469  133.4327  159.2643 H   0  0  0  0  0  0  0  0  0  0  0  0  # atno 6909 bound_to 6896
  144.7370  140.3309  143.6153 H   0  0  0  0  0  0  0  0  0  0  0  0  # atno 7974 bound_to 7965
  154.5630  140.2350  155.8306 H   0  0  0  0  0  0  0  0  0  0  0  0  # atno 8008 bound_to 7997
  156.2045  140.3043  155.9556 H   0  0  0  0  0  0  0  0  0  0  0  0  # atno 8009 bound_to 7997
  155.2853  140.0424  157.3009 H   0  0  0  0  0  0  0  0  0  0  0  0  # atno 8010 bound_to 7997
  140.2785  143.3297  152.0465 H   0  0  0  0  0  0  0  0  0  0  0  0  # atno 10167 bound_to 10162
  156.0083  130.5194  150.6372 H   0  0  0  0  0  0  0  0  0  0  0  0  # atno 10718 bound_to 10713
  154.3850  135.2753  155.2189 H   0  0  0  0  0  0  0  0  0  0  0  0  # atno 10763 bound_to 10752
  154.4279  135.5984  153.6054 H   0  0  0  0  0  0  0  0  0  0  0  0  # atno 10764 bound_to 10752
  152.9833  135.5988  154.4098 H   0  0  0  0  0  0  0  0  0  0  0  0  # atno 10765 bound_to 10752
  140.2491  134.7991  157.3484 H   0  0  0  0  0  0  0  0  0  0  0  0  # atno 11005 bound_to 11000
  145.7473  139.1782  143.2342 LP  0  0  0  0  0  0  0  0  0  0  0  0  # atno 17320 bound_to 7965
  146.1088  140.7454  142.9513 LP  0  0  0  0  0  0  0  0  0  0  0  0  # atno 17321 bound_to 7965
  139.4969  144.6608  151.6469 LP  0  0  0  0  0  0  0  0  0  0  0  0  # atno 17342 bound_to 10162
  140.5831  143.9910  150.6280 LP  0  0  0  0  0  0  0  0  0  0  0  0  # atno 17343 bound_to 10162
  157.4159  131.0830  151.1177 LP  0  0  0  0  0  0  0  0  0  0  0  0  # atno 17370 bound_to 10713
  157.1794  130.6302  149.5666 LP  0  0  0  0  0  0  0  0  0  0  0  0  # atno 17371 bound_to 10713
  140.1576  134.4770  155.7917 LP  0  0  0  0  0  0  0  0  0  0  0  0  # atno 17394 bound_to 11000
  141.2203  133.6888  156.7488 LP  0  0  0  0  0  0  0  0  0  0  0  0  # atno 17395 bound_to 11000

$$$$
