AV-unprocessed.smi:160|AV-procd|sdf|1360|dock3
  -GOLD-   2262019 73D 1   1.00000     0.00000
 Structure written by MMmdl.
 28 29  0  0  0  0  0  0  0  0  2 V2000
  140.1500  138.7092  154.7337 N   0  5  0  0  0  0  0  0  0  0  0  0
  139.6905  137.4562  154.5263 C   0  0  0  0  0  0  0  0  0  0  0  0
  138.5245  137.0803  154.6429 O   0  0  0  0  0  0  0  0  0  0  0  0
  140.7484  136.4600  154.1147 C   0  0  0  0  0  0  0  0  0  0  0  0
  140.4152  135.1597  153.8505 N   0  0  0  0  0  0  0  0  0  0  0  0
  141.6173  134.6899  153.5466 C   0  0  0  0  0  0  0  0  0  0  0  0
  142.5957  135.5966  153.6199 N   0  0  0  0  0  0  0  0  0  0  0  0
  144.0637  135.4428  153.3547 C   0  0  1  0  0  0  0  0  0  0  0  0
  144.2734  134.2123  152.7272 O   0  0  0  0  0  0  0  0  0  0  0  0
  144.5105  134.4137  151.3375 C   0  0  2  0  0  0  0  0  0  0  0  0
  145.2627  133.2063  150.7566 C   0  0  0  0  0  0  0  0  0  0  0  0
  144.9970  133.0855  149.3757 O   0  0  0  0  0  0  0  0  0  0  0  0
  145.3392  135.6995  151.3576 C   0  0  1  0  0  0  0  0  0  0  0  0
  145.4067  136.3341  150.0939 O   0  0  0  0  0  0  0  0  0  0  0  0
  144.6462  136.5390  152.4297 C   0  0  1  0  0  0  0  0  0  0  0  0
  143.6796  137.4276  151.8895 O   0  0  0  0  0  0  0  0  0  0  0  0
  142.0406  136.7782  153.9885 N   0  0  0  0  0  0  0  0  0  0  0  0
  144.5173  135.4311  154.3464 H   0  0  0  0  0  0  0  0  0  0  0  0
  143.5685  134.5852  150.8125 H   0  0  0  0  0  0  0  0  0  0  0  0
  146.3530  135.4702  151.6898 H   0  0  0  0  0  0  0  0  0  0  0  0
  145.3722  137.1300  152.9887 H   0  0  0  0  0  0  0  0  0  0  0  0
  140.8988  138.8469  155.4232 H   0  0  0  0  0  0  0  0  0  0  0  0
  141.7889  133.6607  153.2680 H   0  0  0  0  0  0  0  0  0  0  0  0
  146.3382  133.3448  150.8702 H   0  0  0  0  0  0  0  0  0  0  0  0
  144.9980  132.2853  151.2767 H   0  0  0  0  0  0  0  0  0  0  0  0
  145.3650  133.8335  148.9314 H   0  0  0  0  0  0  0  0  0  0  0  0
  144.8710  137.1118  150.1204 H   0  0  0  0  0  0  0  0  0  0  0  0
  144.0565  137.8696  151.1445 H   0  0  0  0  0  0  0  0  0  0  0  0
  1  2  1  0  0  0  0
  1 22  1  0  0  0  0
  2  3  2  0  0  0  0
  2  4  1  0  0  0  0
  4 17  2  0  0  0  0
  4  5  1  0  0  0  0
  5  6  2  0  0  0  0
  6  7  1  0  0  0  0
  6 23  1  0  0  0  0
  7  8  1  0  0  0  0
  7 17  1  0  0  0  0
  8 18  1  0  0  0  0
  8 15  1  0  0  0  0
  8  9  1  0  0  0  0
  9 10  1  0  0  0  0
 10 19  1  0  0  0  0
 10 11  1  0  0  0  0
 10 13  1  0  0  0  0
 11 12  1  0  0  0  0
 11 24  1  0  0  0  0
 11 25  1  0  0  0  0
 12 26  1  0  0  0  0
 13 20  1  0  0  0  0
 13 14  1  0  0  0  0
 13 15  1  0  0  0  0
 14 27  1  0  0  0  0
 15 21  1  0  0  0  0
 15 16  1  0  0  0  0
 16 28  1  0  0  0  0
M  CHG  1   1  -1
M  END
> <s_m_source_file>
AV-unprocessed.smi

> <i_m_source_file_index>
160

> <i_lp_mmshare_version>
43012

> <i_f3d_flags>
0

> <s_epik_input>
W05IMl1DKD1PKWMxbltjSF1uKG4xKVtDQEBIXTJPW0NASF0oW0NIMl1bT0hdKVtDQEBIXShbT0hdKVtDQEhdMltPSF0=

> <s_epik_cmdline>
J2VwaWtfcHl0aG9uJywgJy1waCcsICc3LjAnLCAnLXRuJywgJzgnLCAnLW1hJywgJzIwMCcsICctbWV0YWxfYmluZGluZycsICctaW1hZScsICc8aW5maWxlLm1hZT4nLCAnLW9tYWUnLCAnPG91dGZpbGUubWFlPic=

> <r_lp_tautomer_probability>
1

> <r_epik_Ionization_Penalty>
6.6993

> <r_epik_Ionization_Penalty_Charging>
6.6993

> <r_epik_Ionization_Penalty_Neutral>
6.01698e-06

> <r_epik_State_Penalty>
6.69929

> <r_epik_Charging_Adjusted_Penalty>
13.3986

> <i_epik_Tot_Q>
-1

> <i_epik_Tot_abs_Q>
1

> <r_epik_Metal_State_Penalty>
2.62798

> <b_epik_Metal_Only>
1

> <s_epik_Chemistry_Notes>
This compound contains an acetal/aminal-like group ( X-CH(R)-Y where X, Y are N, S, or O) that may be acid/base labile, releasing an aldehyde.

> <s_lp_Force_Field>
OPLS_2005

> <r_lp_Energy>
50.1609

> <b_lp_Chiralities_Consistent>
1

> <s_lp_Variant>
AV-unprocessed.smi:160-18

> <Gold.Version>
5.8.1

> <Gold.Id.Protein>
6NUR|6NUR_protein|mol2

> <Gold.PLP.Fitness>
40.7328

> <Gold.PLP.PLP>
-27.1980

> <Gold.PLP.part.hbond>
-6.4111

> <Gold.PLP.part.metal>
0.0000

> <Gold.PLP.part.buried>
-6.7533

> <Gold.PLP.part.nonpolar>
-16.0393

> <Gold.PLP.part.repulsive>
0.4318

> <Gold.PLP.ligand.clash>
0.0000

> <Gold.PLP.ligand.torsion>
0.6323

> <Gold.PLP.Chemscore.Hbond>
3.9833

> <Gold.PLP.Chemscore.CHOScore>
0.9447

> <Gold.PLP.Chemscore.Metal>
0.0000

> <Gold.Chemscore.Hbonds>
donor molecule, donor type, donor heavy atom, donor atom, acceptor molecule, acceptor atom, score
      L1  H    12    26       P1  7921  1.00
      L1  H    14    27       P1 10171  1.00
      L1  H    16    28       P1 10171  0.95
      P1  H 11000 11005       L1     5  0.91
      L1  C     6    23       P1 10957  0.89

> <Gold.PLP.Chemscore.Internal.Correction>
0.0155

> <Gold.Rescore>
     Score         DG    S(hbond)    S(metal)    S(lipo)     H(rot)  DE(clash)    DE(int)     intcor
      8.14      -9.91       3.64        0.00      22.50       4.04       0.02       1.75       ----

> <Gold.Chemscore.Fitness>
8.1392

> <Gold.Chemscore.DG>
-9.9126

> <Gold.Chemscore.ZeroCoef>
-5.4800

> <Gold.Chemscore.Hbond>
3.6357

> <Gold.Chemscore.Metal>
0.0000

> <Gold.Chemscore.Lipo>
22.4984

> <Gold.Chemscore.Internal_Hbond>
0.0000

> <Gold.Chemscore.DEClash>
0.0235

> <Gold.Chemscore.DEInternal>
1.7499

> <Gold.Chemscore.Rot>
4.0403

> <Gold.Chemscore.Internal.Correction>
   9.000000E+99

> <Gold.Chemscore.Hbonds>
donor molecule, donor type, donor heavy atom, donor atom, acceptor molecule, acceptor atom, score
      L1  H    12    26       P1  7921  0.74
      L1  H    14    27       P1 10171  1.00
      L1  H    16    28       P1 10171  0.85
      P1  H 11000 11005       L1     5  0.07

> <Gold.Chemscore.Hbond.Weighted>
-12.1433

> <Gold.Chemscore.Metal.Weighted>
-0.0000

> <Gold.Chemscore.Lipo.Weighted>
-2.6323

> <Gold.Chemscore.Internal_Hbond.Weighted>
0.0000

> <Gold.Chemscore.DEClash.Weighted>
0.0235

> <Gold.Chemscore.DEInternal.Weighted>
1.7499

> <Gold.Chemscore.Rot.Weighted>
10.3431

> <Gold.Chemscore.Internal.Correction.Weighted>
   9.000000E+99

> <Gold.Protein.RotatedTorsions>
[ 6907 6896 6895 6894 ] final  147.96 input  -60.11 | X-H torsion
[ 7974 7965 7964 7962 ] final  159.31 input  175.53 | X-H torsion
[ 8008 7997 7996 7995 ] final  -35.50 input   59.86 | X-H torsion
[ 10167 10162 10161 10158 ] final   27.40 input  -65.29 | X-H torsion
[ 10718 10713 10712 10709 ] final  101.47 input   66.30 | X-H torsion
[ 10763 10752 10751 10750 ] final  157.87 input  -60.55 | X-H torsion
[ 11005 11000 10999 10996 ] final   36.96 input  -57.11 | X-H torsion

> <Gold.Protein.ActiveResidues>
 VAL166  LYS551  ARG553  GLY616  TRP617  ASP618  TYR619  PRO620  LYS621  CYS622 
 ASP623  PHE694  ASN695  SER759  ASP760  ASP761  ALA762  ILE779  LEU786  VAL792 
 PHE793  MET794  SER795  GLU796  ALA797  LYS798  CYS799  TRP800  GLU811  SER814 

> <Gold.Protein.RotatedAtoms>
  152.1478  133.4503  159.4798 H   0  0  0  0  0  0  0  0  0  0  0  0  # atno 6907 bound_to 6896
  150.6892  134.2226  159.4412 H   0  0  0  0  0  0  0  0  0  0  0  0  # atno 6908 bound_to 6896
  152.0121  134.9870  160.0619 H   0  0  0  0  0  0  0  0  0  0  0  0  # atno 6909 bound_to 6896
  144.7797  139.7600  143.6264 H   0  0  0  0  0  0  0  0  0  0  0  0  # atno 7974 bound_to 7965
  154.4094  140.1655  156.2222 H   0  0  0  0  0  0  0  0  0  0  0  0  # atno 8008 bound_to 7997
  155.9354  140.3412  155.6260 H   0  0  0  0  0  0  0  0  0  0  0  0  # atno 8009 bound_to 7997
  155.7055  140.0750  157.2383 H   0  0  0  0  0  0  0  0  0  0  0  0  # atno 8010 bound_to 7997
  140.4941  144.0420  150.6308 H   0  0  0  0  0  0  0  0  0  0  0  0  # atno 10167 bound_to 10162
  157.6828  131.0727  150.5257 H   0  0  0  0  0  0  0  0  0  0  0  0  # atno 10718 bound_to 10713
  154.2070  135.2788  155.2971 H   0  0  0  0  0  0  0  0  0  0  0  0  # atno 10763 bound_to 10752
  154.5809  135.5590  153.7187 H   0  0  0  0  0  0  0  0  0  0  0  0  # atno 10764 bound_to 10752
  153.0073  135.6344  154.2209 H   0  0  0  0  0  0  0  0  0  0  0  0  # atno 10765 bound_to 10752
  140.2273  134.3569  155.7978 H   0  0  0  0  0  0  0  0  0  0  0  0  # atno 11005 bound_to 11000
  146.1998  139.5286  142.9751 LP  0  0  0  0  0  0  0  0  0  0  0  0  # atno 17320 bound_to 7965
  145.6085  141.0343  143.1979 LP  0  0  0  0  0  0  0  0  0  0  0  0  # atno 17321 bound_to 7965
  140.3697  143.2861  152.0291 LP  0  0  0  0  0  0  0  0  0  0  0  0  # atno 17342 bound_to 10162
  139.4857  144.6239  151.7202 LP  0  0  0  0  0  0  0  0  0  0  0  0  # atno 17343 bound_to 10162
  156.5569  130.4245  149.6081 LP  0  0  0  0  0  0  0  0  0  0  0  0  # atno 17370 bound_to 10713
  156.2855  130.7094  151.1930 LP  0  0  0  0  0  0  0  0  0  0  0  0  # atno 17371 bound_to 10713
  141.2220  133.7226  156.8675 LP  0  0  0  0  0  0  0  0  0  0  0  0  # atno 17394 bound_to 11000
  140.1786  134.9049  157.2921 LP  0  0  0  0  0  0  0  0  0  0  0  0  # atno 17395 bound_to 11000

$$$$
