AV-unprocessed.smi:3287|AV-procd|sdf|12595|dock5
  -GOLD-   2272018523D 1   1.00000     0.00000
 Structure written by MMmdl.
 43 44  0  0  0  0  0  0  0  0  2 V2000
  148.0772  141.6924  156.4850 C   0  0  0  0  0  0  0  0  0  0  0  0
  148.4602  141.8330  154.9979 C   0  0  1  0  0  0  0  0  0  0  0  0
  149.5574  140.8264  154.5943 C   0  0  0  0  0  0  0  0  0  0  0  0
  149.0219  139.3881  154.4910 C   0  0  0  0  0  0  0  0  0  0  0  0
  147.8355  139.2950  153.5151 C   0  0  1  0  0  0  0  0  0  0  0  0
  147.3386  137.9020  153.4617 N   0  3  0  0  0  0  0  0  0  0  0  0
  145.8810  137.7567  153.2550 C   0  0  0  0  0  0  0  0  0  0  0  0
  145.5457  137.4618  151.7827 C   0  0  1  0  0  0  0  0  0  0  0  0
  146.6954  137.7040  150.9951 O   0  0  0  0  0  0  0  0  0  0  0  0
  145.0340  136.0396  151.6135 C   0  0  0  0  0  0  0  0  0  0  0  0
  144.2478  135.4212  152.6103 C   0  0  0  0  0  0  0  0  0  0  0  0
  143.7955  134.1046  152.3917 C   0  0  0  0  0  0  0  0  0  0  0  0
  144.0731  133.4019  151.2730 N   0  0  0  0  0  0  0  0  0  0  0  0
  144.8228  133.9984  150.3221 C   0  0  0  0  0  0  0  0  0  0  0  0
  145.3248  135.3099  150.4418 C   0  0  0  0  0  0  0  0  0  0  0  0
  146.7247  140.2878  153.9206 C   0  0  0  0  0  0  0  0  0  0  0  0
  147.2609  141.7307  154.0211 C   0  0  1  0  0  0  0  0  0  0  0  0
  146.1389  142.7368  154.3262 C   0  0  0  0  0  0  0  0  0  0  0  0
  147.5746  140.7490  156.6948 H   0  0  0  0  0  0  0  0  0  0  0  0
  147.4164  142.4978  156.8048 H   0  0  0  0  0  0  0  0  0  0  0  0
  148.9622  141.7404  157.1199 H   0  0  0  0  0  0  0  0  0  0  0  0
  148.8888  142.8300  154.8862 H   0  0  0  0  0  0  0  0  0  0  0  0
  149.9741  141.1192  153.6298 H   0  0  0  0  0  0  0  0  0  0  0  0
  150.3859  140.8659  155.3024 H   0  0  0  0  0  0  0  0  0  0  0  0
  149.8249  138.7269  154.1630 H   0  0  0  0  0  0  0  0  0  0  0  0
  148.7220  139.0352  155.4785 H   0  0  0  0  0  0  0  0  0  0  0  0
  148.1998  139.5596  152.5211 H   0  0  0  0  0  0  0  0  0  0  0  0
  147.7991  137.4436  152.6885 H   0  0  0  0  0  0  0  0  0  0  0  0
  145.4886  136.9644  153.8929 H   0  0  0  0  0  0  0  0  0  0  0  0
  145.3921  138.6836  153.5583 H   0  0  0  0  0  0  0  0  0  0  0  0
  144.7690  138.1495  151.4447 H   0  0  0  0  0  0  0  0  0  0  0  0
  147.4553  137.4140  151.4777 H   0  0  0  0  0  0  0  0  0  0  0  0
  143.9929  135.9395  153.5232 H   0  0  0  0  0  0  0  0  0  0  0  0
  143.1921  133.6039  153.1344 H   0  0  0  0  0  0  0  0  0  0  0  0
  145.0272  133.4138  149.4373 H   0  0  0  0  0  0  0  0  0  0  0  0
  145.9182  135.7402  149.6483 H   0  0  0  0  0  0  0  0  0  0  0  0
  145.9176  140.2664  153.1887 H   0  0  0  0  0  0  0  0  0  0  0  0
  146.2816  139.9851  154.8702 H   0  0  0  0  0  0  0  0  0  0  0  0
  147.6411  141.9945  153.0327 H   0  0  0  0  0  0  0  0  0  0  0  0
  145.6308  142.5057  155.2624 H   0  0  0  0  0  0  0  0  0  0  0  0
  145.3860  142.7308  153.5376 H   0  0  0  0  0  0  0  0  0  0  0  0
  146.5295  143.7523  154.3971 H   0  0  0  0  0  0  0  0  0  0  0  0
  147.5980  137.4250  154.3136 H   0  0  0  0  0  0  0  0  0  0  0  0
  1  2  1  0  0  0  0
  1 19  1  0  0  0  0
  1 20  1  0  0  0  0
  1 21  1  0  0  0  0
  2 17  1  0  0  0  0
  2  3  1  0  0  0  0
  2 22  1  0  0  0  0
  3  4  1  0  0  0  0
  3 23  1  0  0  0  0
  3 24  1  0  0  0  0
  4  5  1  0  0  0  0
  4 25  1  0  0  0  0
  4 26  1  0  0  0  0
  5  6  1  0  0  0  0
  5 16  1  0  0  0  0
  5 27  1  0  0  0  0
  6  7  1  0  0  0  0
  6 28  1  0  0  0  0
  6 43  1  0  0  0  0
  7  8  1  0  0  0  0
  7 29  1  0  0  0  0
  7 30  1  0  0  0  0
  8  9  1  0  0  0  0
  8 10  1  0  0  0  0
  8 31  1  0  0  0  0
  9 32  1  0  0  0  0
 10 15  1  0  0  0  0
 10 11  2  0  0  0  0
 11 12  1  0  0  0  0
 11 33  1  0  0  0  0
 12 13  2  0  0  0  0
 12 34  1  0  0  0  0
 13 14  1  0  0  0  0
 14 15  2  0  0  0  0
 14 35  1  0  0  0  0
 15 36  1  0  0  0  0
 16 17  1  0  0  0  0
 16 37  1  0  0  0  0
 16 38  1  0  0  0  0
 17 18  1  0  0  0  0
 17 39  1  0  0  0  0
 18 40  1  0  0  0  0
 18 41  1  0  0  0  0
 18 42  1  0  0  0  0
M  CHG  1   6   1
M  END
> <s_m_source_file>
AV-unprocessed.smi

> <i_m_source_file_index>
3287

> <i_lp_mmshare_version>
43012

> <i_f3d_flags>
0

> <s_epik_input>
W0NIM11bQ0BASF0xW0NIMl1bQ0gyXVtDQEhdKFtDSDJdW0NASF0xW0NIM10pW05IXVtDSDJdW0NASF0oW09IXSljMltjSF1bY0hdbltjSF1bY0hdMg==

> <s_epik_cmdline>
J2VwaWtfcHl0aG9uJywgJy1waCcsICc3LjAnLCAnLXRuJywgJzgnLCAnLW1hJywgJzIwMCcsICctbWV0YWxfYmluZGluZycsICctaW1hZScsICc8aW5maWxlLm1hZT4nLCAnLW9tYWUnLCAnPG91dGZpbGUubWFlPic=

> <r_lp_tautomer_probability>
1

> <r_epik_Ionization_Penalty>
0.00537262

> <r_epik_Ionization_Penalty_Charging>
0.00321624

> <r_epik_Ionization_Penalty_Neutral>
0.00215638

> <r_epik_State_Penalty>
-0

> <r_epik_Charging_Adjusted_Penalty>
0.00321624

> <i_epik_Tot_Q>
1

> <i_epik_Tot_abs_Q>
1

> <r_epik_Metal_State_Penalty>
-0

> <b_epik_Metal_Only>
0

> <s_lp_Force_Field>
OPLS_2005

> <r_lp_Energy>
17.7653

> <b_lp_Chiralities_Consistent>
1

> <s_lp_Variant>
AV-unprocessed.smi:3287-6

> <Gold.Version>
5.8.1

> <Gold.Id.Protein>
6NUR|6NUR_protein|mol2

> <Gold.PLP.Fitness>
41.7708

> <Gold.PLP.PLP>
-32.1125

> <Gold.PLP.part.hbond>
-3.6175

> <Gold.PLP.part.metal>
0.0000

> <Gold.PLP.part.buried>
3.8609

> <Gold.PLP.part.nonpolar>
-32.0825

> <Gold.PLP.part.repulsive>
0.1792

> <Gold.PLP.ligand.clash>
0.0062

> <Gold.PLP.ligand.torsion>
2.1260

> <Gold.PLP.Chemscore.Hbond>
3.0000

> <Gold.PLP.Chemscore.CHOScore>
1.6320

> <Gold.PLP.Chemscore.Metal>
0.0000

> <Gold.Chemscore.Hbonds>
donor molecule, donor type, donor heavy atom, donor atom, acceptor molecule, acceptor atom, score
      L1  H     6    28       P1  7948  2.00
      L1  H     9    32       P1  7948  1.00
      L1  C    12    34       P1 10957  1.00
      L1  C    14    35       P1  7921  0.64

> <Gold.PLP.Chemscore.Internal.Correction>
0.0206

> <Gold.Rescore>
     Score         DG    S(hbond)    S(metal)    S(lipo)     H(rot)  DE(clash)    DE(int)     intcor
     13.69     -16.92       1.96        0.00      83.47       1.90       1.48       1.75       ----

> <Gold.Chemscore.Fitness>
13.6891

> <Gold.Chemscore.DG>
-16.9183

> <Gold.Chemscore.ZeroCoef>
-5.4800

> <Gold.Chemscore.Hbond>
1.9597

> <Gold.Chemscore.Metal>
0.0000

> <Gold.Chemscore.Lipo>
83.4681

> <Gold.Chemscore.Internal_Hbond>
0.0000

> <Gold.Chemscore.DEClash>
1.4793

> <Gold.Chemscore.DEInternal>
1.7499

> <Gold.Chemscore.Rot>
1.9035

> <Gold.Chemscore.Internal.Correction>
   9.000000E+99

> <Gold.Chemscore.Hbonds>
donor molecule, donor type, donor heavy atom, donor atom, acceptor molecule, acceptor atom, score
      L1  H     6    28       P1  7948  0.99
      L1  H     9    32       P1  7948  0.97

> <Gold.Chemscore.Hbond.Weighted>
-6.5454

> <Gold.Chemscore.Metal.Weighted>
-0.0000

> <Gold.Chemscore.Lipo.Weighted>
-9.7658

> <Gold.Chemscore.Internal_Hbond.Weighted>
0.0000

> <Gold.Chemscore.DEClash.Weighted>
1.4793

> <Gold.Chemscore.DEInternal.Weighted>
1.7499

> <Gold.Chemscore.Rot.Weighted>
4.8729

> <Gold.Chemscore.Internal.Correction.Weighted>
   9.000000E+99

> <Gold.Protein.RotatedTorsions>
[ 6907 6896 6895 6894 ] final -155.74 input  -60.11 | X-H torsion
[ 7974 7965 7964 7962 ] final  -63.99 input  175.53 | X-H torsion
[ 8008 7997 7996 7995 ] final  109.50 input   59.86 | X-H torsion
[ 10167 10162 10161 10158 ] final   71.88 input  -65.29 | X-H torsion
[ 10718 10713 10712 10709 ] final   28.76 input   66.30 | X-H torsion
[ 10763 10752 10751 10750 ] final  109.08 input  -60.55 | X-H torsion
[ 11005 11000 10999 10996 ] final   65.51 input  -57.11 | X-H torsion

> <Gold.Protein.ActiveResidues>
 VAL166  LYS551  ARG553  GLY616  TRP617  ASP618  TYR619  PRO620  LYS621  CYS622 
 ASP623  PHE694  ASN695  SER759  ASP760  ASP761  ALA762  ILE779  LEU786  VAL792 
 PHE793  MET794  SER795  GLU796  ALA797  LYS798  CYS799  TRP800  GLU811  SER814 

> <Gold.Protein.RotatedAtoms>
  151.2770  133.4228  159.2624 H   0  0  0  0  0  0  0  0  0  0  0  0  # atno 6907 bound_to 6896
  151.0394  134.9597  159.8164 H   0  0  0  0  0  0  0  0  0  0  0  0  # atno 6908 bound_to 6896
  152.5362  134.2728  159.9031 H   0  0  0  0  0  0  0  0  0  0  0  0  # atno 6909 bound_to 6896
  145.7722  140.8806  143.0374 H   0  0  0  0  0  0  0  0  0  0  0  0  # atno 7974 bound_to 7965
  156.1984  140.3056  155.9474 H   0  0  0  0  0  0  0  0  0  0  0  0  # atno 8008 bound_to 7997
  155.3012  140.0446  157.3046 H   0  0  0  0  0  0  0  0  0  0  0  0  # atno 8009 bound_to 7997
  154.5539  140.2300  155.8451 H   0  0  0  0  0  0  0  0  0  0  0  0  # atno 8010 bound_to 7997
  140.0414  144.5386  150.7431 H   0  0  0  0  0  0  0  0  0  0  0  0  # atno 10167 bound_to 10162
  157.2377  130.7054  149.6343 H   0  0  0  0  0  0  0  0  0  0  0  0  # atno 10718 bound_to 10713
  153.4296  135.3791  155.2162 H   0  0  0  0  0  0  0  0  0  0  0  0  # atno 10763 bound_to 10752
  154.8749  135.3837  154.4284 H   0  0  0  0  0  0  0  0  0  0  0  0  # atno 10764 bound_to 10752
  153.4814  135.7088  153.5999 H   0  0  0  0  0  0  0  0  0  0  0  0  # atno 10765 bound_to 10752
  139.9890  134.6622  156.0125 H   0  0  0  0  0  0  0  0  0  0  0  0  # atno 11005 bound_to 11000
  144.6810  139.9872  143.7484 LP  0  0  0  0  0  0  0  0  0  0  0  0  # atno 17320 bound_to 7965
  146.0158  139.3208  143.0843 LP  0  0  0  0  0  0  0  0  0  0  0  0  # atno 17321 bound_to 7965
  140.7258  143.2635  151.4123 LP  0  0  0  0  0  0  0  0  0  0  0  0  # atno 17342 bound_to 10162
  139.6012  144.1293  152.2199 LP  0  0  0  0  0  0  0  0  0  0  0  0  # atno 17343 bound_to 10162
  155.9671  130.4468  150.5556 LP  0  0  0  0  0  0  0  0  0  0  0  0  # atno 17370 bound_to 10713
  157.3412  131.0717  151.1787 LP  0  0  0  0  0  0  0  0  0  0  0  0  # atno 17371 bound_to 10713
  141.1549  133.6544  156.4131 LP  0  0  0  0  0  0  0  0  0  0  0  0  # atno 17394 bound_to 11000
  140.4946  134.6543  157.5224 LP  0  0  0  0  0  0  0  0  0  0  0  0  # atno 17395 bound_to 11000

$$$$
