AV-unprocessed.smi:2107|AV-procd|sdf|8600|dock5
  -GOLD-   2272011333D 1   1.00000     0.00000
 Structure written by MMmdl.
 46 47  0  0  0  0  0  0  0  0  1 V2000
  146.0842  134.0954  162.2972 C   0  0  0  0  0  0  0  0  0  0  0  0
  147.5657  134.2466  161.9266 C   0  0  0  0  0  0  0  0  0  0  0  0
  147.7343  134.7515  160.5484 N   0  0  0  0  0  0  0  0  0  0  0  0
  147.1932  133.8777  159.4912 C   0  0  0  0  0  0  0  0  0  0  0  0
  148.2925  133.0330  158.8311 C   0  0  0  0  0  0  0  0  0  0  0  0
  147.7189  136.4693  160.2810 S   0  0  0  0  0  0  0  0  0  0  0  0
  147.0666  136.7401  158.9900 O   0  0  0  0  0  0  0  0  0  0  0  0
  147.2669  137.1240  161.5180 O   0  0  0  0  0  0  0  0  0  0  0  0
  149.4155  136.7351  160.1063 N   0  0  0  0  0  0  0  0  0  0  0  0
  149.9383  137.3477  158.8828 C   0  0  0  0  0  0  0  0  0  0  0  0
  151.3792  137.8503  158.9866 C   0  0  0  0  0  0  0  0  0  0  0  0
  152.1852  137.4886  160.0905 C   0  0  0  0  0  0  0  0  0  0  0  0
  153.5003  137.9780  160.1791 C   0  0  0  0  0  0  0  0  0  0  0  0
  153.9646  138.8257  159.1586 C   0  0  0  0  0  0  0  0  0  0  0  0
  153.2088  139.1909  158.1037 N   0  0  0  0  0  0  0  0  0  0  0  0
  151.9405  138.7201  158.0128 C   0  0  0  0  0  0  0  0  0  0  0  0
  151.1910  139.1114  156.8896 N   0  0  0  0  0  0  0  0  0  0  0  0
  151.7126  138.5640  155.6440 C   0  0  0  0  0  0  0  0  0  0  0  0
  150.7336  138.8528  154.4934 C   0  0  0  0  0  0  0  0  0  0  0  0
  150.4873  140.2542  154.4131 O   0  0  0  0  0  0  0  0  0  0  0  0
  149.9109  140.7672  155.6112 C   0  0  0  0  0  0  0  0  0  0  0  0
  150.8736  140.5317  156.7875 C   0  0  0  0  0  0  0  0  0  0  0  0
  145.9785  133.8149  163.3452 H   0  0  0  0  0  0  0  0  0  0  0  0
  145.5975  133.3209  161.7065 H   0  0  0  0  0  0  0  0  0  0  0  0
  145.5372  135.0265  162.1484 H   0  0  0  0  0  0  0  0  0  0  0  0
  148.0547  134.9155  162.6356 H   0  0  0  0  0  0  0  0  0  0  0  0
  148.0696  133.2855  162.0297 H   0  0  0  0  0  0  0  0  0  0  0  0
  146.4115  133.2417  159.9081 H   0  0  0  0  0  0  0  0  0  0  0  0
  146.7172  134.4828  158.7205 H   0  0  0  0  0  0  0  0  0  0  0  0
  147.8843  132.4514  158.0044 H   0  0  0  0  0  0  0  0  0  0  0  0
  148.7429  132.3297  159.5313 H   0  0  0  0  0  0  0  0  0  0  0  0
  149.0856  133.6653  158.4309 H   0  0  0  0  0  0  0  0  0  0  0  0
  149.8586  137.0811  160.9571 H   0  0  0  0  0  0  0  0  0  0  0  0
  149.8169  136.6333  158.0694 H   0  0  0  0  0  0  0  0  0  0  0  0
  149.3095  138.2027  158.6351 H   0  0  0  0  0  0  0  0  0  0  0  0
  151.8087  136.8445  160.8692 H   0  0  0  0  0  0  0  0  0  0  0  0
  154.1353  137.7122  161.0111 H   0  0  0  0  0  0  0  0  0  0  0  0
  154.9678  139.2235  159.1913 H   0  0  0  0  0  0  0  0  0  0  0  0
  152.6834  139.0136  155.4309 H   0  0  0  0  0  0  0  0  0  0  0  0
  151.8719  137.4899  155.7370 H   0  0  0  0  0  0  0  0  0  0  0  0
  151.1531  138.5098  153.5476 H   0  0  0  0  0  0  0  0  0  0  0  0
  149.7945  138.3163  154.6394 H   0  0  0  0  0  0  0  0  0  0  0  0
  149.7222  141.8336  155.4874 H   0  0  0  0  0  0  0  0  0  0  0  0
  148.9466  140.2911  155.7961 H   0  0  0  0  0  0  0  0  0  0  0  0
  150.4227  140.8777  157.7185 H   0  0  0  0  0  0  0  0  0  0  0  0
  151.7870  141.1080  156.6339 H   0  0  0  0  0  0  0  0  0  0  0  0
  1  2  1  0  0  0  0
  1 23  1  0  0  0  0
  1 24  1  0  0  0  0
  1 25  1  0  0  0  0
  2  3  1  0  0  0  0
  2 26  1  0  0  0  0
  2 27  1  0  0  0  0
  3  4  1  0  0  0  0
  3  6  1  0  0  0  0
  4  5  1  0  0  0  0
  4 28  1  0  0  0  0
  4 29  1  0  0  0  0
  5 30  1  0  0  0  0
  5 31  1  0  0  0  0
  5 32  1  0  0  0  0
  6  7  2  0  0  0  0
  6  8  2  0  0  0  0
  6  9  1  0  0  0  0
  9 10  1  0  0  0  0
  9 33  1  0  0  0  0
 10 11  1  0  0  0  0
 10 34  1  0  0  0  0
 10 35  1  0  0  0  0
 11 16  1  0  0  0  0
 11 12  2  0  0  0  0
 12 13  1  0  0  0  0
 12 36  1  0  0  0  0
 13 14  2  0  0  0  0
 13 37  1  0  0  0  0
 14 15  1  0  0  0  0
 14 38  1  0  0  0  0
 15 16  2  0  0  0  0
 16 17  1  0  0  0  0
 17 22  1  0  0  0  0
 17 18  1  0  0  0  0
 18 19  1  0  0  0  0
 18 39  1  0  0  0  0
 18 40  1  0  0  0  0
 19 20  1  0  0  0  0
 19 41  1  0  0  0  0
 19 42  1  0  0  0  0
 20 21  1  0  0  0  0
 21 22  1  0  0  0  0
 21 43  1  0  0  0  0
 21 44  1  0  0  0  0
 22 45  1  0  0  0  0
 22 46  1  0  0  0  0
M  END
> <s_m_source_file>
AV-unprocessed.smi

> <i_m_source_file_index>
2107

> <i_lp_mmshare_version>
43012

> <i_f3d_flags>
0

> <s_epik_input>
W0NIM11bQ0gyXU4oW0NIMl1bQ0gzXSlTKD1PKSg9TylbTkhdW0NIMl1jMVtjSF1bY0hdW2NIXW5jMU4yW0NIMl1bQ0gyXU9bQ0gyXVtDSDJdMg==

> <s_epik_cmdline>
J2VwaWtfcHl0aG9uJywgJy1waCcsICc3LjAnLCAnLXRuJywgJzgnLCAnLW1hJywgJzIwMCcsICctbWV0YWxfYmluZGluZycsICctaW1hZScsICc8aW5maWxlLm1hZT4nLCAnLW9tYWUnLCAnPG91dGZpbGUubWFlPic=

> <r_lp_tautomer_probability>
1

> <r_epik_Ionization_Penalty>
0.0173886

> <r_epik_Ionization_Penalty_Charging>
0

> <r_epik_Ionization_Penalty_Neutral>
0.0173886

> <r_epik_State_Penalty>
0.0135122

> <r_epik_Charging_Adjusted_Penalty>
0.0135122

> <i_epik_Tot_Q>
0

> <i_epik_Tot_abs_Q>
0

> <r_epik_Metal_State_Penalty>
0.283451

> <b_epik_Metal_Only>
0

> <s_lp_Force_Field>
OPLS_2005

> <r_lp_Energy>
23.0208

> <b_lp_Chiralities_Consistent>
1

> <s_lp_Variant>
AV-unprocessed.smi:2107-1

> <Gold.Version>
5.8.1

> <Gold.Id.Protein>
6NUR|6NUR_protein|mol2

> <Gold.PLP.Fitness>
47.2606

> <Gold.PLP.PLP>
-36.1222

> <Gold.PLP.part.hbond>
-5.0618

> <Gold.PLP.part.metal>
0.0000

> <Gold.PLP.part.buried>
-5.4189

> <Gold.PLP.part.nonpolar>
-26.3283

> <Gold.PLP.part.repulsive>
0.1064

> <Gold.PLP.ligand.clash>
0.0000

> <Gold.PLP.ligand.torsion>
1.6981

> <Gold.PLP.Chemscore.Hbond>
3.8416

> <Gold.PLP.Chemscore.CHOScore>
0.0000

> <Gold.PLP.Chemscore.Metal>
0.0000

> <Gold.Chemscore.Hbonds>
donor molecule, donor type, donor heavy atom, donor atom, acceptor molecule, acceptor atom, score
      P1  H  6896  6907       L1     9  0.05
      P1  H  6931  6943       L1     8  0.63
      P1  H  6934  6947       L1     8  0.96
      P1  H  7989  7998       L1    20  1.00
      P1  H  7997  8009       L1    15  0.95

> <Gold.PLP.Chemscore.Internal.Correction>
3.0100

> <Gold.Rescore>
     Score         DG    S(hbond)    S(metal)    S(lipo)     H(rot)  DE(clash)    DE(int)     intcor
     16.84     -18.62       2.67        0.00      78.36       1.93       0.02       1.76       ----

> <Gold.Chemscore.Fitness>
16.8433

> <Gold.Chemscore.DG>
-18.6218

> <Gold.Chemscore.ZeroCoef>
-5.4800

> <Gold.Chemscore.Hbond>
2.6688

> <Gold.Chemscore.Metal>
0.0000

> <Gold.Chemscore.Lipo>
78.3555

> <Gold.Chemscore.Internal_Hbond>
0.0000

> <Gold.Chemscore.DEClash>
0.0202

> <Gold.Chemscore.DEInternal>
1.7583

> <Gold.Chemscore.Rot>
1.9295

> <Gold.Chemscore.Internal.Correction>
   9.000000E+99

> <Gold.Chemscore.Hbonds>
donor molecule, donor type, donor heavy atom, donor atom, acceptor molecule, acceptor atom, score
      P1  H  6931  6943       L1     8  0.12
      P1  H  6934  6947       L1     8  0.31
      P1  H  7989  7998       L1    20  0.58
      P1  H  7997  8009       L1    15  0.21

> <Gold.Chemscore.Hbond.Weighted>
-8.9137

> <Gold.Chemscore.Metal.Weighted>
-0.0000

> <Gold.Chemscore.Lipo.Weighted>
-9.1676

> <Gold.Chemscore.Internal_Hbond.Weighted>
0.0000

> <Gold.Chemscore.DEClash.Weighted>
0.0202

> <Gold.Chemscore.DEInternal.Weighted>
1.7583

> <Gold.Chemscore.Rot.Weighted>
4.9395

> <Gold.Chemscore.Internal.Correction.Weighted>
   9.000000E+99

> <Gold.Protein.RotatedTorsions>
[ 6907 6896 6895 6894 ] final  -37.99 input  -60.11 | X-H torsion
[ 7974 7965 7964 7962 ] final -118.69 input  175.53 | X-H torsion
[ 8008 7997 7996 7995 ] final  155.11 input   59.86 | X-H torsion
[ 10167 10162 10161 10158 ] final  151.30 input  -65.29 | X-H torsion
[ 10718 10713 10712 10709 ] final -108.42 input   66.30 | X-H torsion
[ 10763 10752 10751 10750 ] final -168.67 input  -60.55 | X-H torsion
[ 11005 11000 10999 10996 ] final  -77.03 input  -57.11 | X-H torsion

> <Gold.Protein.ActiveResidues>
 VAL166  LYS551  ARG553  GLY616  TRP617  ASP618  TYR619  PRO620  LYS621  CYS622 
 ASP623  PHE694  ASN695  SER759  ASP760  ASP761  ALA762  ILE779  LEU786  VAL792 
 PHE793  MET794  SER795  GLU796  ALA797  LYS798  CYS799  TRP800  GLU811  SER814 

> <Gold.Protein.RotatedAtoms>
  151.0079  134.9374  159.7990 H   0  0  0  0  0  0  0  0  0  0  0  0  # atno 6907 bound_to 6896
  152.5295  134.3067  159.9108 H   0  0  0  0  0  0  0  0  0  0  0  0  # atno 6908 bound_to 6896
  151.3073  133.4054  159.2678 H   0  0  0  0  0  0  0  0  0  0  0  0  # atno 6909 bound_to 6896
  145.0710  140.8359  143.4096 H   0  0  0  0  0  0  0  0  0  0  0  0  # atno 7974 bound_to 7965
  156.2495  140.1948  156.6751 H   0  0  0  0  0  0  0  0  0  0  0  0  # atno 8008 bound_to 7997
  154.6364  140.0589  156.9819 H   0  0  0  0  0  0  0  0  0  0  0  0  # atno 8009 bound_to 7997
  155.1631  140.3261  155.4410 H   0  0  0  0  0  0  0  0  0  0  0  0  # atno 8010 bound_to 7997
  139.4842  144.5452  151.7497 H   0  0  0  0  0  0  0  0  0  0  0  0  # atno 10167 bound_to 10162
  156.0485  130.5712  150.7958 H   0  0  0  0  0  0  0  0  0  0  0  0  # atno 10718 bound_to 10713
  154.6604  135.2924  154.9874 H   0  0  0  0  0  0  0  0  0  0  0  0  # atno 10763 bound_to 10752
  154.0936  135.6587  153.4860 H   0  0  0  0  0  0  0  0  0  0  0  0  # atno 10764 bound_to 10752
  153.0426  135.5226  154.7552 H   0  0  0  0  0  0  0  0  0  0  0  0  # atno 10765 bound_to 10752
  141.1658  133.7006  156.7759 H   0  0  0  0  0  0  0  0  0  0  0  0  # atno 11005 bound_to 11000
  145.1293  139.2642  143.5548 LP  0  0  0  0  0  0  0  0  0  0  0  0  # atno 17320 bound_to 7965
  146.3528  140.0939  142.8611 LP  0  0  0  0  0  0  0  0  0  0  0  0  # atno 17321 bound_to 7965
  140.4997  144.1187  150.5968 LP  0  0  0  0  0  0  0  0  0  0  0  0  # atno 17342 bound_to 10162
  140.4076  143.2672  151.9872 LP  0  0  0  0  0  0  0  0  0  0  0  0  # atno 17343 bound_to 10162
  157.5386  131.0940  150.9858 LP  0  0  0  0  0  0  0  0  0  0  0  0  # atno 17370 bound_to 10713
  157.0147  130.5650  149.5324 LP  0  0  0  0  0  0  0  0  0  0  0  0  # atno 17371 bound_to 10713
  140.2430  134.8599  157.3592 LP  0  0  0  0  0  0  0  0  0  0  0  0  # atno 17394 bound_to 11000
  140.1777  134.4528  155.7791 LP  0  0  0  0  0  0  0  0  0  0  0  0  # atno 17395 bound_to 11000

$$$$
