AV-unprocessed.smi:1115|AV-procd|sdf|4806|dock1
  -GOLD-   22720 3353D 1   1.00000     0.00000
 Structure written by MMmdl.
 51 52  0  0  0  0  0  0  0  0  4 V2000
  152.3897  144.8128  158.5358 C   0  0  0  0  0  0  0  0  0  0  0  0
  152.1419  143.5147  159.1490 N   0  0  0  0  0  0  0  0  0  0  0  0
  152.6732  143.2153  160.4739 C   0  0  0  0  0  0  0  0  0  0  0  0
  151.5261  142.4922  158.3951 C   0  0  0  0  0  0  0  0  0  0  0  0
  151.0309  142.6880  157.0825 C   0  0  0  0  0  0  0  0  0  0  0  0
  150.4291  141.6157  156.3926 C   0  0  0  0  0  0  0  0  0  0  0  0
  150.3140  140.3564  157.0156 C   0  0  0  0  0  0  0  0  0  0  0  0
  149.7219  139.3007  156.2709 N   0  0  0  0  0  0  0  0  0  0  0  0
  149.6881  139.1130  154.9393 C   0  0  0  0  0  0  0  0  0  0  0  0
  150.2626  139.9024  154.1814 O   0  0  0  0  0  0  0  0  0  0  0  0
  148.9934  137.9948  154.5993 N   0  5  0  0  0  0  0  0  0  0  0  0
  148.4468  137.0326  155.5629 C   0  0  0  0  0  0  0  0  0  0  0  0
  149.0749  135.6088  155.3580 C   0  0  0  0  0  0  0  0  0  0  0  0
  150.5927  135.7311  155.0451 C   0  0  0  0  0  0  0  0  0  0  0  0
  148.9843  134.8299  156.7077 C   0  0  0  0  0  0  0  0  0  0  0  0
  148.3449  134.9018  154.2326 N   0  3  0  0  0  0  0  0  0  0  0  0
  148.8394  133.5368  153.8750 C   0  0  0  0  0  0  0  0  0  0  0  0
  148.1908  133.0536  152.5703 C   0  0  0  0  0  0  0  0  0  0  0  0
  146.7807  133.0217  152.7361 O   0  0  0  0  0  0  0  0  0  0  0  0
  146.2569  134.3145  153.0036 C   0  0  0  0  0  0  0  0  0  0  0  0
  146.8562  134.8767  154.3051 C   0  0  0  0  0  0  0  0  0  0  0  0
  150.8345  140.2066  158.3225 C   0  0  0  0  0  0  0  0  0  0  0  0
  151.4035  141.2602  158.9472 N   0  3  0  0  0  0  0  0  0  0  0  0
  152.9901  144.7025  157.6326 H   0  0  0  0  0  0  0  0  0  0  0  0
  152.9273  145.4758  159.2139 H   0  0  0  0  0  0  0  0  0  0  0  0
  151.4492  145.2974  158.2728 H   0  0  0  0  0  0  0  0  0  0  0  0
  153.4640  142.4676  160.4088 H   0  0  0  0  0  0  0  0  0  0  0  0
  151.8867  142.8343  161.1256 H   0  0  0  0  0  0  0  0  0  0  0  0
  153.0908  144.1059  160.9440 H   0  0  0  0  0  0  0  0  0  0  0  0
  151.1021  143.6458  156.5895 H   0  0  0  0  0  0  0  0  0  0  0  0
  150.0537  141.7645  155.3906 H   0  0  0  0  0  0  0  0  0  0  0  0
  149.3145  138.5579  156.8197 H   0  0  0  0  0  0  0  0  0  0  0  0
  148.6397  137.3571  156.5860 H   0  0  0  0  0  0  0  0  0  0  0  0
  147.3612  136.9604  155.4864 H   0  0  0  0  0  0  0  0  0  0  0  0
  151.1509  136.1544  155.8830 H   0  0  0  0  0  0  0  0  0  0  0  0
  150.8126  136.3556  154.1770 H   0  0  0  0  0  0  0  0  0  0  0  0
  151.0269  134.7501  154.8494 H   0  0  0  0  0  0  0  0  0  0  0  0
  149.4638  135.3632  157.5319 H   0  0  0  0  0  0  0  0  0  0  0  0
  149.4990  133.8702  156.6502 H   0  0  0  0  0  0  0  0  0  0  0  0
  147.9567  134.6259  157.0158 H   0  0  0  0  0  0  0  0  0  0  0  0
  149.9218  133.5242  153.7490 H   0  0  0  0  0  0  0  0  0  0  0  0
  148.6022  132.8305  154.6716 H   0  0  0  0  0  0  0  0  0  0  0  0
  148.4643  133.6984  151.7333 H   0  0  0  0  0  0  0  0  0  0  0  0
  148.5389  132.0494  152.3277 H   0  0  0  0  0  0  0  0  0  0  0  0
  146.4631  134.9809  152.1644 H   0  0  0  0  0  0  0  0  0  0  0  0
  145.1727  134.2434  153.0911 H   0  0  0  0  0  0  0  0  0  0  0  0
  146.5392  134.2783  155.1603 H   0  0  0  0  0  0  0  0  0  0  0  0
  146.4421  135.8754  154.4320 H   0  0  0  0  0  0  0  0  0  0  0  0
  150.8333  139.2883  158.8901 H   0  0  0  0  0  0  0  0  0  0  0  0
  151.7661  141.1169  159.8897 H   0  0  0  0  0  0  0  0  0  0  0  0
  148.5509  135.4832  153.4313 H   0  0  0  0  0  0  0  0  0  0  0  0
  1  2  1  0  0  0  0
  1 24  1  0  0  0  0
  1 25  1  0  0  0  0
  1 26  1  0  0  0  0
  2  3  1  0  0  0  0
  2  4  1  0  0  0  0
  3 27  1  0  0  0  0
  3 28  1  0  0  0  0
  3 29  1  0  0  0  0
  4 23  1  0  0  0  0
  4  5  2  0  0  0  0
  5  6  1  0  0  0  0
  5 30  1  0  0  0  0
  6  7  2  0  0  0  0
  6 31  1  0  0  0  0
  7  8  1  0  0  0  0
  7 22  1  0  0  0  0
  8  9  1  0  0  0  0
  8 32  1  0  0  0  0
  9 10  2  0  0  0  0
  9 11  1  0  0  0  0
 11 12  1  0  0  0  0
 12 13  1  0  0  0  0
 12 33  1  0  0  0  0
 12 34  1  0  0  0  0
 13 14  1  0  0  0  0
 13 15  1  0  0  0  0
 13 16  1  0  0  0  0
 14 35  1  0  0  0  0
 14 36  1  0  0  0  0
 14 37  1  0  0  0  0
 15 38  1  0  0  0  0
 15 39  1  0  0  0  0
 15 40  1  0  0  0  0
 16 21  1  0  0  0  0
 16 17  1  0  0  0  0
 16 51  1  0  0  0  0
 17 18  1  0  0  0  0
 17 41  1  0  0  0  0
 17 42  1  0  0  0  0
 18 19  1  0  0  0  0
 18 43  1  0  0  0  0
 18 44  1  0  0  0  0
 19 20  1  0  0  0  0
 20 21  1  0  0  0  0
 20 45  1  0  0  0  0
 20 46  1  0  0  0  0
 21 47  1  0  0  0  0
 21 48  1  0  0  0  0
 22 23  2  0  0  0  0
 22 49  1  0  0  0  0
 23 50  1  0  0  0  0
M  CHG  1  11  -1
M  CHG  1  16   1
M  CHG  1  23   1
M  END
> <s_m_source_file>
AV-unprocessed.smi

> <i_m_source_file_index>
1115

> <i_lp_mmshare_version>
43012

> <i_f3d_flags>
0

> <s_epik_input>
W0NIM11OKFtDSDNdKWMxW2NIXVtjSF1jKFtjSF1uMSlbTkhdQyg9TylbTkhdW0NIMl1DKFtDSDNdKShbQ0gzXSlOMltDSDJdW0NIMl1PW0NIMl1bQ0gyXTI=

> <s_epik_cmdline>
J2VwaWtfcHl0aG9uJywgJy1waCcsICc3LjAnLCAnLXRuJywgJzgnLCAnLW1hJywgJzIwMCcsICctbWV0YWxfYmluZGluZycsICctaW1hZScsICc8aW5maWxlLm1hZT4nLCAnLW9tYWUnLCAnPG91dGZpbGUubWFlPic=

> <r_lp_tautomer_probability>
0.999994

> <r_epik_Ionization_Penalty>
7.4335

> <r_epik_Ionization_Penalty_Charging>
7.4335

> <r_epik_Ionization_Penalty_Neutral>
3.43851e-06

> <r_epik_State_Penalty>
7.6346

> <r_epik_Charging_Adjusted_Penalty>
15.0681

> <i_epik_Tot_Q>
1

> <i_epik_Tot_abs_Q>
3

> <r_epik_Metal_State_Penalty>
3.83601

> <b_epik_Metal_Only>
1

> <s_lp_Force_Field>
OPLS_2005

> <r_lp_Energy>
31.3993

> <b_lp_Chiralities_Consistent>
1

> <s_lp_Variant>
AV-unprocessed.smi:1115-5

> <Gold.Version>
5.8.1

> <Gold.Id.Protein>
6NUR|6NUR_protein|mol2

> <Gold.PLP.Fitness>
44.7439

> <Gold.PLP.PLP>
-38.3566

> <Gold.PLP.part.hbond>
-2.0000

> <Gold.PLP.part.metal>
0.0000

> <Gold.PLP.part.buried>
-5.1187

> <Gold.PLP.part.nonpolar>
-32.4200

> <Gold.PLP.part.repulsive>
0.7730

> <Gold.PLP.ligand.clash>
1.9253

> <Gold.PLP.ligand.torsion>
0.6095

> <Gold.PLP.Chemscore.Hbond>
3.0000

> <Gold.PLP.Chemscore.CHOScore>
0.0000

> <Gold.PLP.Chemscore.Metal>
0.0000

> <Gold.Chemscore.Hbonds>
donor molecule, donor type, donor heavy atom, donor atom, acceptor molecule, acceptor atom, score
      L1  H    16    51       P1  7948  2.00
      P1  H  7989  7998       L1    10  1.00

> <Gold.PLP.Chemscore.Internal.Correction>
0.5316

> <Gold.Rescore>
     Score         DG    S(hbond)    S(metal)    S(lipo)     H(rot)  DE(clash)    DE(int)     intcor
     15.88     -17.87       1.97        0.00      81.88       1.46       0.03       1.96       ----

> <Gold.Chemscore.Fitness>
15.8810

> <Gold.Chemscore.DG>
-17.8739

> <Gold.Chemscore.ZeroCoef>
-5.4800

> <Gold.Chemscore.Hbond>
1.9651

> <Gold.Chemscore.Metal>
0.0000

> <Gold.Chemscore.Lipo>
81.8825

> <Gold.Chemscore.Internal_Hbond>
0.0000

> <Gold.Chemscore.DEClash>
0.0309

> <Gold.Chemscore.DEInternal>
1.9620

> <Gold.Chemscore.Rot>
1.4648

> <Gold.Chemscore.Internal.Correction>
   9.000000E+99

> <Gold.Chemscore.Hbonds>
donor molecule, donor type, donor heavy atom, donor atom, acceptor molecule, acceptor atom, score
      L1  H    16    51       P1  7948  0.98
      P1  H  7989  7998       L1    10  0.98

> <Gold.Chemscore.Hbond.Weighted>
-6.5636

> <Gold.Chemscore.Metal.Weighted>
-0.0000

> <Gold.Chemscore.Lipo.Weighted>
-9.5803

> <Gold.Chemscore.Internal_Hbond.Weighted>
0.0000

> <Gold.Chemscore.DEClash.Weighted>
0.0309

> <Gold.Chemscore.DEInternal.Weighted>
1.9620

> <Gold.Chemscore.Rot.Weighted>
3.7499

> <Gold.Chemscore.Internal.Correction.Weighted>
   9.000000E+99

> <Gold.Protein.RotatedTorsions>
[ 6907 6896 6895 6894 ] final -154.17 input  -60.11 | X-H torsion
[ 7974 7965 7964 7962 ] final   96.79 input  175.53 | X-H torsion
[ 8008 7997 7996 7995 ] final  -85.93 input   59.86 | X-H torsion
[ 10167 10162 10161 10158 ] final   82.56 input  -65.29 | X-H torsion
[ 10718 10713 10712 10709 ] final  159.98 input   66.30 | X-H torsion
[ 10763 10752 10751 10750 ] final  -68.81 input  -60.55 | X-H torsion
[ 11005 11000 10999 10996 ] final  149.79 input  -57.11 | X-H torsion

> <Gold.Protein.ActiveResidues>
 VAL166  LYS551  ARG553  GLY616  TRP617  ASP618  TYR619  PRO620  LYS621  CYS622 
 ASP623  PHE694  ASN695  SER759  ASP760  ASP761  ALA762  ILE779  LEU786  VAL792 
 PHE793  MET794  SER795  GLU796  ALA797  LYS798  CYS799  TRP800  GLU811  SER814 

> <Gold.Protein.RotatedAtoms>
  151.2535  133.4338  159.2612 H   0  0  0  0  0  0  0  0  0  0  0  0  # atno 6907 bound_to 6896
  151.0595  134.9727  159.8263 H   0  0  0  0  0  0  0  0  0  0  0  0  # atno 6908 bound_to 6896
  152.5396  134.2486  159.8943 H   0  0  0  0  0  0  0  0  0  0  0  0  # atno 6909 bound_to 6896
  145.4341  139.2307  143.3128 H   0  0  0  0  0  0  0  0  0  0  0  0  # atno 7974 bound_to 7965
  154.6462  140.0585  156.9903 H   0  0  0  0  0  0  0  0  0  0  0  0  # atno 8008 bound_to 7997
  155.1441  140.3268  155.4427 H   0  0  0  0  0  0  0  0  0  0  0  0  # atno 8009 bound_to 7997
  156.2555  140.1959  156.6555 H   0  0  0  0  0  0  0  0  0  0  0  0  # atno 8010 bound_to 7997
  139.9275  144.6173  150.8378 H   0  0  0  0  0  0  0  0  0  0  0  0  # atno 10167 bound_to 10162
  157.1567  131.0577  151.2253 H   0  0  0  0  0  0  0  0  0  0  0  0  # atno 10718 bound_to 10713
  154.3944  135.6045  153.5861 H   0  0  0  0  0  0  0  0  0  0  0  0  # atno 10763 bound_to 10752
  152.9787  135.5891  154.4258 H   0  0  0  0  0  0  0  0  0  0  0  0  # atno 10764 bound_to 10752
  154.4048  135.2843  155.2052 H   0  0  0  0  0  0  0  0  0  0  0  0  # atno 10765 bound_to 10752
  140.1075  134.8945  157.1887 H   0  0  0  0  0  0  0  0  0  0  0  0  # atno 11005 bound_to 11000
  146.2591  140.5082  142.8861 LP  0  0  0  0  0  0  0  0  0  0  0  0  # atno 17320 bound_to 7965
  144.8163  140.6474  143.6382 LP  0  0  0  0  0  0  0  0  0  0  0  0  # atno 17321 bound_to 7965
  140.7646  143.3253  151.2530 LP  0  0  0  0  0  0  0  0  0  0  0  0  # atno 17342 bound_to 10162
  139.6809  143.9855  152.2808 LP  0  0  0  0  0  0  0  0  0  0  0  0  # atno 17343 bound_to 10162
  157.4170  130.7417  149.6883 LP  0  0  0  0  0  0  0  0  0  0  0  0  # atno 17370 bound_to 10713
  155.9761  130.4080  150.3804 LP  0  0  0  0  0  0  0  0  0  0  0  0  # atno 17371 bound_to 10713
  140.3136  134.2996  155.7261 LP  0  0  0  0  0  0  0  0  0  0  0  0  # atno 17394 bound_to 11000
  141.2122  133.7666  156.9812 LP  0  0  0  0  0  0  0  0  0  0  0  0  # atno 17395 bound_to 11000

$$$$
