AV-unprocessed.smi:1349|AV-procd|sdf|5518|dock7
  -GOLD-   22720 5103D 1   1.00000     0.00000
 Structure written by MMmdl.
 42 44  0  0  0  0  0  0  0  0  1 V2000
  149.5355  141.0356  153.3414 O   0  0  0  0  0  0  0  0  0  0  0  0
  148.6547  141.0090  154.4453 C   0  0  0  0  0  0  0  0  0  0  0  0
  149.1616  140.0384  155.5219 C   0  0  0  0  0  0  0  0  0  0  0  0
  150.6897  140.0649  155.6957 C   0  0  0  0  0  0  0  0  0  0  0  0
  151.1360  141.0733  156.7153 C   0  0  0  0  0  0  0  0  0  0  0  0
  150.9573  142.3790  156.5063 N   0  0  0  0  0  0  0  0  0  0  0  0
  151.5039  142.9507  157.6369 C   0  0  0  0  0  0  0  0  0  0  0  0
  151.6323  144.3081  158.0095 C   0  0  0  0  0  0  0  0  0  0  0  0
  152.2374  144.6580  159.2343 C   0  0  0  0  0  0  0  0  0  0  0  0
  152.7209  143.6577  160.1023 C   0  0  0  0  0  0  0  0  0  0  0  0
  152.6007  142.2993  159.7504 C   0  0  0  0  0  0  0  0  0  0  0  0
  151.9964  141.9551  158.5259 C   0  0  0  0  0  0  0  0  0  0  0  0
  151.7263  140.7433  157.8960 N   0  0  0  0  0  0  0  0  0  0  0  0
  152.0337  139.4289  158.4468 C   0  0  0  0  0  0  0  0  0  0  0  0
  153.4279  139.3684  159.0852 C   0  0  0  0  0  0  0  0  0  0  0  0
  153.4933  138.3054  160.0264 O   0  0  0  0  0  0  0  0  0  0  0  0
  154.1568  138.5301  161.2146 C   0  0  0  0  0  0  0  0  0  0  0  0
  154.2100  137.4621  162.1347 C   0  0  0  0  0  0  0  0  0  0  0  0
  154.8667  137.6058  163.3720 C   0  0  0  0  0  0  0  0  0  0  0  0
  155.4824  138.8263  163.7038 C   0  0  0  0  0  0  0  0  0  0  0  0
  155.4387  139.9007  162.7963 C   0  0  0  0  0  0  0  0  0  0  0  0
  154.7803  139.7567  161.5593 C   0  0  0  0  0  0  0  0  0  0  0  0
  149.2562  140.3827  152.7179 H   0  0  0  0  0  0  0  0  0  0  0  0
  148.5868  142.0172  154.8547 H   0  0  0  0  0  0  0  0  0  0  0  0
  147.6559  140.7290  154.1088 H   0  0  0  0  0  0  0  0  0  0  0  0
  148.6730  140.2532  156.4719 H   0  0  0  0  0  0  0  0  0  0  0  0
  148.8540  139.0280  155.2503 H   0  0  0  0  0  0  0  0  0  0  0  0
  151.0391  139.0820  156.0137 H   0  0  0  0  0  0  0  0  0  0  0  0
  151.1615  140.2498  154.7340 H   0  0  0  0  0  0  0  0  0  0  0  0
  151.2647  145.0809  157.3509 H   0  0  0  0  0  0  0  0  0  0  0  0
  152.3309  145.6987  159.5087 H   0  0  0  0  0  0  0  0  0  0  0  0
  153.1837  143.9334  161.0386 H   0  0  0  0  0  0  0  0  0  0  0  0
  152.9701  141.5314  160.4137 H   0  0  0  0  0  0  0  0  0  0  0  0
  151.2843  139.1993  159.2046 H   0  0  0  0  0  0  0  0  0  0  0  0
  151.9168  138.6592  157.6863 H   0  0  0  0  0  0  0  0  0  0  0  0
  154.1788  139.2309  158.3055 H   0  0  0  0  0  0  0  0  0  0  0  0
  153.6316  140.3173  159.5835 H   0  0  0  0  0  0  0  0  0  0  0  0
  153.7398  136.5211  161.8932 H   0  0  0  0  0  0  0  0  0  0  0  0
  154.8972  136.7792  164.0663 H   0  0  0  0  0  0  0  0  0  0  0  0
  155.9869  138.9384  164.6522 H   0  0  0  0  0  0  0  0  0  0  0  0
  155.9113  140.8383  163.0489 H   0  0  0  0  0  0  0  0  0  0  0  0
  154.7694  140.6045  160.8917 H   0  0  0  0  0  0  0  0  0  0  0  0
  1  2  1  0  0  0  0
  1 23  1  0  0  0  0
  2  3  1  0  0  0  0
  2 24  1  0  0  0  0
  2 25  1  0  0  0  0
  3  4  1  0  0  0  0
  3 26  1  0  0  0  0
  3 27  1  0  0  0  0
  4  5  1  0  0  0  0
  4 28  1  0  0  0  0
  4 29  1  0  0  0  0
  5 13  1  0  0  0  0
  5  6  2  0  0  0  0
  6  7  1  0  0  0  0
  7 12  2  0  0  0  0
  7  8  1  0  0  0  0
  8  9  2  0  0  0  0
  8 30  1  0  0  0  0
  9 10  1  0  0  0  0
  9 31  1  0  0  0  0
 10 11  2  0  0  0  0
 10 32  1  0  0  0  0
 11 12  1  0  0  0  0
 11 33  1  0  0  0  0
 12 13  1  0  0  0  0
 13 14  1  0  0  0  0
 14 15  1  0  0  0  0
 14 34  1  0  0  0  0
 14 35  1  0  0  0  0
 15 16  1  0  0  0  0
 15 36  1  0  0  0  0
 15 37  1  0  0  0  0
 16 17  1  0  0  0  0
 17 22  1  0  0  0  0
 17 18  2  0  0  0  0
 18 19  1  0  0  0  0
 18 38  1  0  0  0  0
 19 20  2  0  0  0  0
 19 39  1  0  0  0  0
 20 21  1  0  0  0  0
 20 40  1  0  0  0  0
 21 22  2  0  0  0  0
 21 41  1  0  0  0  0
 22 42  1  0  0  0  0
M  END
> <s_m_source_file>
AV-unprocessed.smi

> <i_m_source_file_index>
1349

> <i_lp_mmshare_version>
43012

> <i_f3d_flags>
0

> <s_epik_input>
W09IXVtDSDJdW0NIMl1bQ0gyXWMobjEpbihjKGMxMilbY0hdW2NIXVtjSF1bY0hdMilbQ0gyXVtDSDJdT2MzW2NIXVtjSF1bY0hdW2NIXVtjSF0z

> <s_epik_cmdline>
J2VwaWtfcHl0aG9uJywgJy1waCcsICc3LjAnLCAnLXRuJywgJzgnLCAnLW1hJywgJzIwMCcsICctbWV0YWxfYmluZGluZycsICctaW1hZScsICc8aW5maWxlLm1hZT4nLCAnLW9tYWUnLCAnPG91dGZpbGUubWFlPic=

> <r_lp_tautomer_probability>
1

> <r_epik_Ionization_Penalty>
0.159315

> <r_epik_Ionization_Penalty_Charging>
0

> <r_epik_Ionization_Penalty_Neutral>
0.159315

> <r_epik_State_Penalty>
0.148622

> <r_epik_Charging_Adjusted_Penalty>
0.148622

> <i_epik_Tot_Q>
0

> <i_epik_Tot_abs_Q>
0

> <r_epik_Metal_State_Penalty>
0.0001689

> <b_epik_Metal_Only>
0

> <s_lp_Force_Field>
OPLS_2005

> <r_lp_Energy>
15.4549

> <b_lp_Chiralities_Consistent>
1

> <s_lp_Variant>
AV-unprocessed.smi:1349-1

> <Gold.Version>
5.8.1

> <Gold.Id.Protein>
6NUR|6NUR_protein|mol2

> <Gold.PLP.Fitness>
53.1023

> <Gold.PLP.PLP>
-49.3064

> <Gold.PLP.part.hbond>
-2.7003

> <Gold.PLP.part.metal>
0.0000

> <Gold.PLP.part.buried>
-5.4203

> <Gold.PLP.part.nonpolar>
-41.2759

> <Gold.PLP.part.repulsive>
0.1092

> <Gold.PLP.ligand.clash>
0.0000

> <Gold.PLP.ligand.torsion>
0.9499

> <Gold.PLP.Chemscore.Hbond>
1.8630

> <Gold.PLP.Chemscore.CHOScore>
0.0000

> <Gold.PLP.Chemscore.Metal>
0.0000

> <Gold.Chemscore.Hbonds>
donor molecule, donor type, donor heavy atom, donor atom, acceptor molecule, acceptor atom, score
      L1  H     1    23       P1  7957  0.70
      P1  H  7989  7998       L1     1  0.17
      P1  H  8011  8017       L1     1  1.00

> <Gold.PLP.Chemscore.Internal.Correction>
0.1067

> <Gold.Rescore>
     Score         DG    S(hbond)    S(metal)    S(lipo)     H(rot)  DE(clash)    DE(int)     intcor
     19.42     -20.61       1.41        0.00     142.06       2.42       0.13       1.07       ----

> <Gold.Chemscore.Fitness>
19.4167

> <Gold.Chemscore.DG>
-20.6132

> <Gold.Chemscore.ZeroCoef>
-5.4800

> <Gold.Chemscore.Hbond>
1.4095

> <Gold.Chemscore.Metal>
0.0000

> <Gold.Chemscore.Lipo>
142.0582

> <Gold.Chemscore.Internal_Hbond>
0.0000

> <Gold.Chemscore.DEClash>
0.1305

> <Gold.Chemscore.DEInternal>
1.0660

> <Gold.Chemscore.Rot>
2.4201

> <Gold.Chemscore.Internal.Correction>
   9.000000E+99

> <Gold.Chemscore.Hbonds>
donor molecule, donor type, donor heavy atom, donor atom, acceptor molecule, acceptor atom, score
      L1  H     1    23       P1  7957  0.70
      P1  H  7989  7998       L1     1  0.11
      P1  H  8011  8017       L1     1  0.34

> <Gold.Chemscore.Hbond.Weighted>
-4.7078

> <Gold.Chemscore.Metal.Weighted>
-0.0000

> <Gold.Chemscore.Lipo.Weighted>
-16.6208

> <Gold.Chemscore.Internal_Hbond.Weighted>
0.0000

> <Gold.Chemscore.DEClash.Weighted>
0.1305

> <Gold.Chemscore.DEInternal.Weighted>
1.0660

> <Gold.Chemscore.Rot.Weighted>
6.1954

> <Gold.Chemscore.Internal.Correction.Weighted>
   9.000000E+99

> <Gold.Protein.RotatedTorsions>
[ 6907 6896 6895 6894 ] final  177.05 input  -60.11 | X-H torsion
[ 7974 7965 7964 7962 ] final -175.23 input  175.53 | X-H torsion
[ 8008 7997 7996 7995 ] final   22.31 input   59.86 | X-H torsion
[ 10167 10162 10161 10158 ] final -113.07 input  -65.29 | X-H torsion
[ 10718 10713 10712 10709 ] final   97.88 input   66.30 | X-H torsion
[ 10763 10752 10751 10750 ] final  147.26 input  -60.55 | X-H torsion
[ 11005 11000 10999 10996 ] final   78.77 input  -57.11 | X-H torsion

> <Gold.Protein.ActiveResidues>
 VAL166  LYS551  ARG553  GLY616  TRP617  ASP618  TYR619  PRO620  LYS621  CYS622 
 ASP623  PHE694  ASN695  SER759  ASP760  ASP761  ALA762  ILE779  LEU786  VAL792 
 PHE793  MET794  SER795  GLU796  ALA797  LYS798  CYS799  TRP800  GLU811  SER814 

> <Gold.Protein.RotatedAtoms>
  151.7103  133.3312  159.3288 H   0  0  0  0  0  0  0  0  0  0  0  0  # atno 6907 bound_to 6896
  150.7697  134.6538  159.6312 H   0  0  0  0  0  0  0  0  0  0  0  0  # atno 6908 bound_to 6896
  152.3716  134.6729  160.0226 H   0  0  0  0  0  0  0  0  0  0  0  0  # atno 6909 bound_to 6896
  144.7129  140.1353  143.6396 H   0  0  0  0  0  0  0  0  0  0  0  0  # atno 7974 bound_to 7965
  154.9637  140.3081  155.5019 H   0  0  0  0  0  0  0  0  0  0  0  0  # atno 8008 bound_to 7997
  156.2974  140.2296  156.4663 H   0  0  0  0  0  0  0  0  0  0  0  0  # atno 8009 bound_to 7997
  154.7941  140.0438  157.1211 H   0  0  0  0  0  0  0  0  0  0  0  0  # atno 8010 bound_to 7997
  140.1158  143.4487  152.1723 H   0  0  0  0  0  0  0  0  0  0  0  0  # atno 10167 bound_to 10162
  157.6905  131.0623  150.4711 H   0  0  0  0  0  0  0  0  0  0  0  0  # atno 10718 bound_to 10713
  154.0353  135.2894  155.3363 H   0  0  0  0  0  0  0  0  0  0  0  0  # atno 10763 bound_to 10752
  154.6962  135.5206  153.8465 H   0  0  0  0  0  0  0  0  0  0  0  0  # atno 10764 bound_to 10752
  153.0622  135.6618  154.0562 H   0  0  0  0  0  0  0  0  0  0  0  0  # atno 10765 bound_to 10752
  139.9199  134.7790  156.1693 H   0  0  0  0  0  0  0  0  0  0  0  0  # atno 11005 bound_to 11000
  145.9250  139.2570  143.1358 LP  0  0  0  0  0  0  0  0  0  0  0  0  # atno 17320 bound_to 7965
  145.9581  140.8857  143.0225 LP  0  0  0  0  0  0  0  0  0  0  0  0  # atno 17321 bound_to 7965
  139.5595  144.7396  151.4197 LP  0  0  0  0  0  0  0  0  0  0  0  0  # atno 17342 bound_to 10162
  140.6900  143.7884  150.7241 LP  0  0  0  0  0  0  0  0  0  0  0  0  # atno 17343 bound_to 10162
  156.5049  130.4126  149.6333 LP  0  0  0  0  0  0  0  0  0  0  0  0  # atno 17370 bound_to 10713
  156.3294  130.7323  151.2250 LP  0  0  0  0  0  0  0  0  0  0  0  0  # atno 17371 bound_to 10713
  141.0710  133.6797  156.2141 LP  0  0  0  0  0  0  0  0  0  0  0  0  # atno 17394 bound_to 11000
  140.6506  134.5070  157.5577 LP  0  0  0  0  0  0  0  0  0  0  0  0  # atno 17395 bound_to 11000

$$$$
