AV-unprocessed.smi:1024|AV-procd|sdf|4465|dock10
  -GOLD-   22720 2443D 1   1.00000     0.00000
 Structure written by MMmdl.
 47 49  0  0  0  0  0  0  0  0  1 V2000
  145.9870  139.6400  154.8567 O   0  0  0  0  0  0  0  0  0  0  0  0
  146.9992  140.0415  154.2805 C   0  0  0  0  0  0  0  0  0  0  0  0
  147.2873  139.6858  153.0170 N   0  0  0  0  0  0  0  0  0  0  0  0
  146.4881  138.7900  152.1898 C   0  0  0  0  0  0  0  0  0  0  0  0
  146.0182  137.5599  152.9829 C   0  0  0  0  0  0  0  0  0  0  0  0
  145.2599  136.6497  152.1493 N   0  0  0  0  0  0  0  0  0  0  0  0
  145.6918  136.0176  150.9909 C   0  0  0  0  0  0  0  0  0  0  0  0
  144.6360  135.2564  150.5424 C   0  0  0  0  0  0  0  0  0  0  0  0
  143.5512  135.4053  151.4034 N   0  0  0  0  0  0  0  0  0  0  0  0
  143.9953  136.2448  152.3300 C   0  0  0  0  0  0  0  0  0  0  0  0
  147.8902  140.8940  154.8483 N   0  0  0  0  0  0  0  0  0  0  0  0
  149.2087  141.2622  154.3095 C   0  0  0  0  0  0  0  0  0  0  0  0
  150.2963  140.5417  155.1300 C   0  0  0  0  0  0  0  0  0  0  0  0
  150.2261  140.8600  156.6500 C   0  0  0  0  0  0  0  0  0  0  0  0
  151.1612  139.8723  157.3962 C   0  0  0  0  0  0  0  0  0  0  0  0
  151.3320  140.1976  158.8909 C   0  0  0  0  0  0  0  0  0  0  0  0
  151.8450  141.6295  159.0912 C   0  0  0  0  0  0  0  0  0  0  0  0
  150.9290  142.6453  158.3962 C   0  0  0  0  0  0  0  0  0  0  0  0
  150.7426  142.3055  156.9058 C   0  0  0  0  0  0  0  0  0  0  0  0
  148.7548  140.6754  157.1282 C   0  0  0  0  0  0  0  0  0  0  0  0
  147.7301  141.3841  156.2209 C   0  0  0  0  0  0  0  0  0  0  0  0
  148.1266  140.0627  152.6012 H   0  0  0  0  0  0  0  0  0  0  0  0
  145.6353  139.3267  151.7705 H   0  0  0  0  0  0  0  0  0  0  0  0
  147.1019  138.4752  151.3454 H   0  0  0  0  0  0  0  0  0  0  0  0
  146.8730  137.0217  153.3949 H   0  0  0  0  0  0  0  0  0  0  0  0
  145.3934  137.8578  153.8261 H   0  0  0  0  0  0  0  0  0  0  0  0
  146.6860  136.1582  150.5927 H   0  0  0  0  0  0  0  0  0  0  0  0
  144.5741  134.6187  149.6728 H   0  0  0  0  0  0  0  0  0  0  0  0
  143.3861  136.5739  153.1591 H   0  0  0  0  0  0  0  0  0  0  0  0
  149.3355  141.0251  153.2535 H   0  0  0  0  0  0  0  0  0  0  0  0
  149.3342  142.3436  154.3707 H   0  0  0  0  0  0  0  0  0  0  0  0
  150.1813  139.4672  154.9779 H   0  0  0  0  0  0  0  0  0  0  0  0
  151.2811  140.7919  154.7337 H   0  0  0  0  0  0  0  0  0  0  0  0
  150.7949  138.8506  157.2882 H   0  0  0  0  0  0  0  0  0  0  0  0
  152.1465  139.8845  156.9277 H   0  0  0  0  0  0  0  0  0  0  0  0
  150.3854  140.0662  159.4157 H   0  0  0  0  0  0  0  0  0  0  0  0
  152.0297  139.4920  159.3427 H   0  0  0  0  0  0  0  0  0  0  0  0
  151.9157  141.8563  160.1554 H   0  0  0  0  0  0  0  0  0  0  0  0
  152.8552  141.7140  158.6886 H   0  0  0  0  0  0  0  0  0  0  0  0
  149.9637  142.6801  158.9006 H   0  0  0  0  0  0  0  0  0  0  0  0
  151.3531  143.6451  158.4929 H   0  0  0  0  0  0  0  0  0  0  0  0
  151.7054  142.4333  156.4091 H   0  0  0  0  0  0  0  0  0  0  0  0
  150.0828  143.0449  156.4543 H   0  0  0  0  0  0  0  0  0  0  0  0
  148.5131  139.6116  157.1440 H   0  0  0  0  0  0  0  0  0  0  0  0
  148.6240  141.0167  158.1539 H   0  0  0  0  0  0  0  0  0  0  0  0
  147.8742  142.4645  156.2423 H   0  0  0  0  0  0  0  0  0  0  0  0
  146.7231  141.2217  156.6077 H   0  0  0  0  0  0  0  0  0  0  0  0
  1  2  2  0  0  0  0
  2  3  1  0  0  0  0
  2 11  1  0  0  0  0
  3  4  1  0  0  0  0
  3 22  1  0  0  0  0
  4  5  1  0  0  0  0
  4 23  1  0  0  0  0
  4 24  1  0  0  0  0
  5  6  1  0  0  0  0
  5 25  1  0  0  0  0
  5 26  1  0  0  0  0
  6 10  1  0  0  0  0
  6  7  1  0  0  0  0
  7  8  2  0  0  0  0
  7 27  1  0  0  0  0
  8  9  1  0  0  0  0
  8 28  1  0  0  0  0
  9 10  2  0  0  0  0
 10 29  1  0  0  0  0
 11 21  1  0  0  0  0
 11 12  1  0  0  0  0
 12 13  1  0  0  0  0
 12 30  1  0  0  0  0
 12 31  1  0  0  0  0
 13 14  1  0  0  0  0
 13 32  1  0  0  0  0
 13 33  1  0  0  0  0
 14 19  1  0  0  0  0
 14 15  1  0  0  0  0
 14 20  1  0  0  0  0
 15 16  1  0  0  0  0
 15 34  1  0  0  0  0
 15 35  1  0  0  0  0
 16 17  1  0  0  0  0
 16 36  1  0  0  0  0
 16 37  1  0  0  0  0
 17 18  1  0  0  0  0
 17 38  1  0  0  0  0
 17 39  1  0  0  0  0
 18 19  1  0  0  0  0
 18 40  1  0  0  0  0
 18 41  1  0  0  0  0
 19 42  1  0  0  0  0
 19 43  1  0  0  0  0
 20 21  1  0  0  0  0
 20 44  1  0  0  0  0
 20 45  1  0  0  0  0
 21 46  1  0  0  0  0
 21 47  1  0  0  0  0
M  END
> <s_m_source_file>
AV-unprocessed.smi

> <i_m_source_file_index>
1024

> <i_lp_mmshare_version>
43012

> <i_f3d_flags>
0

> <s_epik_input>
W2NIXTFuW2NIXVtjSF1uMVtDSDJdW0NIMl1bTkhdQyg9TylOKFtDSDJdW0NIMl0yKVtDSDJdW0NIMl1DMjNbQ0gyXVtDSDJdW0NIMl1bQ0gyXVtDSDJdMw==

> <s_epik_cmdline>
J2VwaWtfcHl0aG9uJywgJy1waCcsICc3LjAnLCAnLXRuJywgJzgnLCAnLW1hJywgJzIwMCcsICctbWV0YWxfYmluZGluZycsICctaW1hZScsICc8aW5maWxlLm1hZT4nLCAnLW9tYWUnLCAnPG91dGZpbGUubWFlPic=

> <r_lp_tautomer_probability>
1

> <r_epik_Ionization_Penalty>
0.632392

> <r_epik_Ionization_Penalty_Charging>
0.632323

> <r_epik_Ionization_Penalty_Neutral>
6.90503e-05

> <r_epik_State_Penalty>
0.649284

> <r_epik_Charging_Adjusted_Penalty>
1.28161

> <i_epik_Tot_Q>
0

> <i_epik_Tot_abs_Q>
0

> <r_epik_Metal_State_Penalty>
0.309626

> <b_epik_Metal_Only>
0

> <s_lp_Force_Field>
OPLS_2005

> <r_lp_Energy>
42.875

> <b_lp_Chiralities_Consistent>
1

> <s_lp_Variant>
AV-unprocessed.smi:1024-2

> <Gold.Version>
5.8.1

> <Gold.Id.Protein>
6NUR|6NUR_protein|mol2

> <Gold.PLP.Fitness>
43.2612

> <Gold.PLP.PLP>
-34.8609

> <Gold.PLP.part.hbond>
-1.0000

> <Gold.PLP.part.metal>
0.0000

> <Gold.PLP.part.buried>
-2.8588

> <Gold.PLP.part.nonpolar>
-32.7072

> <Gold.PLP.part.repulsive>
0.3377

> <Gold.PLP.ligand.clash>
0.0000

> <Gold.PLP.ligand.torsion>
0.1341

> <Gold.PLP.Chemscore.Hbond>
1.0000

> <Gold.PLP.Chemscore.CHOScore>
1.8792

> <Gold.PLP.Chemscore.Metal>
0.0000

> <Gold.Chemscore.Hbonds>
donor molecule, donor type, donor heavy atom, donor atom, acceptor molecule, acceptor atom, score
      L1  H     3    22       P1  7957  0.94
      L1  C     7    27       P1  7948  0.97
      L1  C     8    28       P1  7921  0.78

> <Gold.PLP.Chemscore.Internal.Correction>
0.0310

> <Gold.Rescore>
     Score         DG    S(hbond)    S(metal)    S(lipo)     H(rot)  DE(clash)    DE(int)     intcor
     13.10     -15.01       0.97        0.00      86.94       1.52       0.38       1.53       ----

> <Gold.Chemscore.Fitness>
13.1022

> <Gold.Chemscore.DG>
-15.0085

> <Gold.Chemscore.ZeroCoef>
-5.4800

> <Gold.Chemscore.Hbond>
0.9746

> <Gold.Chemscore.Metal>
0.0000

> <Gold.Chemscore.Lipo>
86.9357

> <Gold.Chemscore.Internal_Hbond>
0.0000

> <Gold.Chemscore.DEClash>
0.3771

> <Gold.Chemscore.DEInternal>
1.5292

> <Gold.Chemscore.Rot>
1.5227

> <Gold.Chemscore.Internal.Correction>
   9.000000E+99

> <Gold.Chemscore.Hbonds>
donor molecule, donor type, donor heavy atom, donor atom, acceptor molecule, acceptor atom, score
      L1  H     3    22       P1  7957  0.86

> <Gold.Chemscore.Hbond.Weighted>
-3.2550

> <Gold.Chemscore.Metal.Weighted>
-0.0000

> <Gold.Chemscore.Lipo.Weighted>
-10.1715

> <Gold.Chemscore.Internal_Hbond.Weighted>
0.0000

> <Gold.Chemscore.DEClash.Weighted>
0.3771

> <Gold.Chemscore.DEInternal.Weighted>
1.5292

> <Gold.Chemscore.Rot.Weighted>
3.8980

> <Gold.Chemscore.Internal.Correction.Weighted>
   9.000000E+99

> <Gold.Protein.RotatedTorsions>
[ 6907 6896 6895 6894 ] final -145.87 input  -60.11 | X-H torsion
[ 7974 7965 7964 7962 ] final   83.20 input  175.53 | X-H torsion
[ 8008 7997 7996 7995 ] final  -69.60 input   59.86 | X-H torsion
[ 10167 10162 10161 10158 ] final  -66.53 input  -65.29 | X-H torsion
[ 10718 10713 10712 10709 ] final   60.68 input   66.30 | X-H torsion
[ 10763 10752 10751 10750 ] final   73.98 input  -60.55 | X-H torsion
[ 11005 11000 10999 10996 ] final  166.27 input  -57.11 | X-H torsion

> <Gold.Protein.ActiveResidues>
 VAL166  LYS551  ARG553  GLY616  TRP617  ASP618  TYR619  PRO620  LYS621  CYS622 
 ASP623  PHE694  ASN695  SER759  ASP760  ASP761  ALA762  ILE779  LEU786  VAL792 
 PHE793  MET794  SER795  GLU796  ALA797  LYS798  CYS799  TRP800  GLU811  SER814 

> <Gold.Protein.RotatedAtoms>
  151.1338  133.5019  159.2598 H   0  0  0  0  0  0  0  0  0  0  0  0  # atno 6907 bound_to 6896
  151.1729  135.0326  159.8769 H   0  0  0  0  0  0  0  0  0  0  0  0  # atno 6908 bound_to 6896
  152.5460  134.1199  159.8447 H   0  0  0  0  0  0  0  0  0  0  0  0  # atno 6909 bound_to 6896
  145.6150  139.2375  143.2171 H   0  0  0  0  0  0  0  0  0  0  0  0  # atno 7974 bound_to 7965
  154.4950  140.0850  156.7677 H   0  0  0  0  0  0  0  0  0  0  0  0  # atno 8008 bound_to 7997
  155.4138  140.3442  155.4247 H   0  0  0  0  0  0  0  0  0  0  0  0  # atno 8009 bound_to 7997
  156.1382  140.1521  156.8950 H   0  0  0  0  0  0  0  0  0  0  0  0  # atno 8010 bound_to 7997
  140.5650  143.2314  151.6652 H   0  0  0  0  0  0  0  0  0  0  0  0  # atno 10167 bound_to 10162
  157.5771  130.8952  149.9366 H   0  0  0  0  0  0  0  0  0  0  0  0  # atno 10718 bound_to 10713
  153.0557  135.5042  154.7975 H   0  0  0  0  0  0  0  0  0  0  0  0  # atno 10763 bound_to 10752
  154.6803  135.2967  154.9625 H   0  0  0  0  0  0  0  0  0  0  0  0  # atno 10764 bound_to 10752
  154.0413  135.6716  153.4843 H   0  0  0  0  0  0  0  0  0  0  0  0  # atno 10765 bound_to 10752
  140.2647  134.7874  157.3622 H   0  0  0  0  0  0  0  0  0  0  0  0  # atno 11005 bound_to 11000
  146.1475  140.6972  142.9338 LP  0  0  0  0  0  0  0  0  0  0  0  0  # atno 17320 bound_to 7965
  144.7254  140.4508  143.6977 LP  0  0  0  0  0  0  0  0  0  0  0  0  # atno 17321 bound_to 7965
  139.5088  144.3597  152.0574 LP  0  0  0  0  0  0  0  0  0  0  0  0  # atno 17342 bound_to 10162
  140.2728  144.3946  150.6145 LP  0  0  0  0  0  0  0  0  0  0  0  0  # atno 17343 bound_to 10162
  156.0816  130.3672  150.0570 LP  0  0  0  0  0  0  0  0  0  0  0  0  # atno 17370 bound_to 10713
  156.8714  130.9525  151.3609 LP  0  0  0  0  0  0  0  0  0  0  0  0  # atno 17371 bound_to 10713
  140.1430  134.4947  155.8017 LP  0  0  0  0  0  0  0  0  0  0  0  0  # atno 17394 bound_to 11000
  141.2185  133.6833  156.7244 LP  0  0  0  0  0  0  0  0  0  0  0  0  # atno 17395 bound_to 11000

$$$$
