AV-unprocessed.smi:3112|AV-procd|sdf|11838|dock10
  -GOLD-   2272017213D 1   1.00000     0.00000
 Structure written by MMmdl.
 37 37  0  0  0  0  0  0  0  0  2 V2000
  146.9980  139.7495  153.9506 C   0  0  0  0  0  0  0  0  0  0  0  0
  147.3996  141.2310  153.9571 C   0  0  0  0  0  0  0  0  0  0  0  0
  148.8599  141.4677  154.3831 C   0  0  2  0  0  0  0  0  0  0  0  0
  149.6778  140.4849  153.7789 O   0  0  0  0  0  0  0  0  0  0  0  0
  149.0375  141.3738  155.9080 C   0  0  0  0  0  0  0  0  0  0  0  0
  149.9908  142.3933  156.3947 N   0  3  0  0  0  0  0  0  0  0  0  0
  150.5399  142.1681  157.7529 C   0  0  1  0  0  0  0  0  0  0  0  0
  151.4680  140.9378  157.7754 C   0  0  0  0  0  0  0  0  0  0  0  0
  151.2501  143.4419  158.2833 C   0  0  2  0  0  0  0  0  0  0  0  0
  152.2447  144.0433  157.2722 C   0  0  0  0  0  0  0  0  0  0  0  0
  151.8596  143.2540  159.5967 N   0  0  0  0  0  0  0  0  0  0  0  0
  152.9287  142.4472  159.9306 C   0  0  0  0  0  0  0  0  0  0  0  0
  153.1605  142.6047  161.2669 C   0  0  0  0  0  0  0  0  0  0  0  0
  152.1725  143.5434  161.6728 C   0  0  0  0  0  0  0  0  0  0  0  0
  151.3989  143.9325  160.6726 N   0  0  0  0  0  0  0  0  0  0  0  0
  145.9705  139.6293  153.6067 H   0  0  0  0  0  0  0  0  0  0  0  0
  147.0643  139.3125  154.9471 H   0  0  0  0  0  0  0  0  0  0  0  0
  147.6396  139.1700  153.2863 H   0  0  0  0  0  0  0  0  0  0  0  0
  147.2515  141.6283  152.9523 H   0  0  0  0  0  0  0  0  0  0  0  0
  146.7249  141.7909  154.6062 H   0  0  0  0  0  0  0  0  0  0  0  0
  149.1804  142.4522  154.0385 H   0  0  0  0  0  0  0  0  0  0  0  0
  149.4414  140.4156  152.8659 H   0  0  0  0  0  0  0  0  0  0  0  0
  148.0784  141.5385  156.4004 H   0  0  0  0  0  0  0  0  0  0  0  0
  149.3716  140.3736  156.1839 H   0  0  0  0  0  0  0  0  0  0  0  0
  150.7582  142.4648  155.7415 H   0  0  0  0  0  0  0  0  0  0  0  0
  149.6996  141.9689  158.4198 H   0  0  0  0  0  0  0  0  0  0  0  0
  151.9202  140.8095  158.7593 H   0  0  0  0  0  0  0  0  0  0  0  0
  152.2765  141.0291  157.0493 H   0  0  0  0  0  0  0  0  0  0  0  0
  150.9271  140.0185  157.5526 H   0  0  0  0  0  0  0  0  0  0  0  0
  150.4728  144.1957  158.4190 H   0  0  0  0  0  0  0  0  0  0  0  0
  151.7537  144.2600  156.3231 H   0  0  0  0  0  0  0  0  0  0  0  0
  153.0783  143.3712  157.0673 H   0  0  0  0  0  0  0  0  0  0  0  0
  152.6616  144.9791  157.6458 H   0  0  0  0  0  0  0  0  0  0  0  0
  153.4321  141.8340  159.1974 H   0  0  0  0  0  0  0  0  0  0  0  0
  153.9211  142.1234  161.8637 H   0  0  0  0  0  0  0  0  0  0  0  0
  151.9968  143.9522  162.6570 H   0  0  0  0  0  0  0  0  0  0  0  0
  149.5051  143.2785  156.4052 H   0  0  0  0  0  0  0  0  0  0  0  0
  1  2  1  0  0  0  0
  1 16  1  0  0  0  0
  1 17  1  0  0  0  0
  1 18  1  0  0  0  0
  2  3  1  0  0  0  0
  2 19  1  0  0  0  0
  2 20  1  0  0  0  0
  3  4  1  0  0  0  0
  3  5  1  0  0  0  0
  3 21  1  0  0  0  0
  4 22  1  0  0  0  0
  5  6  1  0  0  0  0
  5 23  1  0  0  0  0
  5 24  1  0  0  0  0
  6  7  1  0  0  0  0
  6 25  1  0  0  0  0
  6 37  1  0  0  0  0
  7  8  1  0  0  0  0
  7  9  1  0  0  0  0
  7 26  1  0  0  0  0
  8 27  1  0  0  0  0
  8 28  1  0  0  0  0
  8 29  1  0  0  0  0
  9 10  1  0  0  0  0
  9 11  1  0  0  0  0
  9 30  1  0  0  0  0
 10 31  1  0  0  0  0
 10 32  1  0  0  0  0
 10 33  1  0  0  0  0
 11 15  1  0  0  0  0
 11 12  1  0  0  0  0
 12 13  2  0  0  0  0
 12 34  1  0  0  0  0
 13 14  1  0  0  0  0
 13 35  1  0  0  0  0
 14 15  2  0  0  0  0
 14 36  1  0  0  0  0
M  CHG  1   6   1
M  END
> <s_m_source_file>
AV-unprocessed.smi

> <i_m_source_file_index>
3112

> <i_lp_mmshare_version>
43012

> <i_f3d_flags>
0

> <s_epik_input>
W0NIM11bQ0gyXVtDQEhdKFtPSF0pW0NIMl1bTkhdW0NASF0oW0NIM10pW0NASF0oW0NIM10pbjFbY0hdW2NIXVtjSF1uMQ==

> <s_epik_cmdline>
J2VwaWtfcHl0aG9uJywgJy1waCcsICc3LjAnLCAnLXRuJywgJzgnLCAnLW1hJywgJzIwMCcsICctbWV0YWxfYmluZGluZycsICctaW1hZScsICc8aW5maWxlLm1hZT4nLCAnLW9tYWUnLCAnPG91dGZpbGUubWFlPic=

> <r_lp_tautomer_probability>
1

> <r_epik_Ionization_Penalty>
0.0154842

> <r_epik_Ionization_Penalty_Charging>
0.0154724

> <r_epik_Ionization_Penalty_Neutral>
1.17979e-05

> <r_epik_State_Penalty>
0.0121607

> <r_epik_Charging_Adjusted_Penalty>
0.0276331

> <i_epik_Tot_Q>
1

> <i_epik_Tot_abs_Q>
1

> <r_epik_Metal_State_Penalty>
0.0121863

> <b_epik_Metal_Only>
0

> <s_lp_Force_Field>
OPLS_2005

> <r_lp_Energy>
12.0711

> <b_lp_Chiralities_Consistent>
1

> <s_lp_Variant>
AV-unprocessed.smi:3112-3

> <Gold.Version>
5.8.1

> <Gold.Id.Protein>
6NUR|6NUR_protein|mol2

> <Gold.PLP.Fitness>
47.0754

> <Gold.PLP.PLP>
-38.5878

> <Gold.PLP.part.hbond>
-3.8521

> <Gold.PLP.part.metal>
0.0000

> <Gold.PLP.part.buried>
-3.7968

> <Gold.PLP.part.nonpolar>
-30.9626

> <Gold.PLP.part.repulsive>
0.2047

> <Gold.PLP.ligand.clash>
0.0000

> <Gold.PLP.ligand.torsion>
0.9768

> <Gold.PLP.Chemscore.Hbond>
3.4160

> <Gold.PLP.Chemscore.CHOScore>
0.0000

> <Gold.PLP.Chemscore.Metal>
0.0000

> <Gold.Chemscore.Hbonds>
donor molecule, donor type, donor heavy atom, donor atom, acceptor molecule, acceptor atom, score
      L1  H     4    22       P1  7957  1.00
      L1  H     6    37       P1  8028  2.00
      P1  H  7989  7998       L1     4  0.46

> <Gold.PLP.Chemscore.Internal.Correction>
0.1932

> <Gold.Rescore>
     Score         DG    S(hbond)    S(metal)    S(lipo)     H(rot)  DE(clash)    DE(int)     intcor
     16.10     -17.74       2.09        0.00      97.92       2.41       1.19       0.45       ----

> <Gold.Chemscore.Fitness>
16.0998

> <Gold.Chemscore.DG>
-17.7361

> <Gold.Chemscore.ZeroCoef>
-5.4800

> <Gold.Chemscore.Hbond>
2.0857

> <Gold.Chemscore.Metal>
0.0000

> <Gold.Chemscore.Lipo>
97.9193

> <Gold.Chemscore.Internal_Hbond>
0.0000

> <Gold.Chemscore.DEClash>
1.1893

> <Gold.Chemscore.DEInternal>
0.4470

> <Gold.Chemscore.Rot>
2.4089

> <Gold.Chemscore.Internal.Correction>
   9.000000E+99

> <Gold.Chemscore.Hbonds>
donor molecule, donor type, donor heavy atom, donor atom, acceptor molecule, acceptor atom, score
      L1  H     4    22       P1  7957  0.99
      L1  H     6    37       P1  8028  0.98
      P1  H  7989  7998       L1     4  0.06

> <Gold.Chemscore.Hbond.Weighted>
-6.9663

> <Gold.Chemscore.Metal.Weighted>
-0.0000

> <Gold.Chemscore.Lipo.Weighted>
-11.4566

> <Gold.Chemscore.Internal_Hbond.Weighted>
0.0000

> <Gold.Chemscore.DEClash.Weighted>
1.1893

> <Gold.Chemscore.DEInternal.Weighted>
0.4470

> <Gold.Chemscore.Rot.Weighted>
6.1667

> <Gold.Chemscore.Internal.Correction.Weighted>
   9.000000E+99

> <Gold.Protein.RotatedTorsions>
[ 6907 6896 6895 6894 ] final -116.70 input  -60.11 | X-H torsion
[ 7974 7965 7964 7962 ] final   55.56 input  175.53 | X-H torsion
[ 8008 7997 7996 7995 ] final  112.60 input   59.86 | X-H torsion
[ 10167 10162 10161 10158 ] final   27.13 input  -65.29 | X-H torsion
[ 10718 10713 10712 10709 ] final   64.27 input   66.30 | X-H torsion
[ 10763 10752 10751 10750 ] final  -88.21 input  -60.55 | X-H torsion
[ 11005 11000 10999 10996 ] final   -0.01 input  -57.11 | X-H torsion

> <Gold.Protein.ActiveResidues>
 VAL166  LYS551  ARG553  GLY616  TRP617  ASP618  TYR619  PRO620  LYS621  CYS622 
 ASP623  PHE694  ASN695  SER759  ASP760  ASP761  ALA762  ILE779  LEU786  VAL792 
 PHE793  MET794  SER795  GLU796  ALA797  LYS798  CYS799  TRP800  GLU811  SER814 

> <Gold.Protein.RotatedAtoms>
  150.8077  133.8480  159.3197 H   0  0  0  0  0  0  0  0  0  0  0  0  # atno 6907 bound_to 6896
  151.6275  135.1024  160.0124 H   0  0  0  0  0  0  0  0  0  0  0  0  # atno 6908 bound_to 6896
  152.4168  133.7011  159.6481 H   0  0  0  0  0  0  0  0  0  0  0  0  # atno 6909 bound_to 6896
  145.9491  139.3956  143.0317 H   0  0  0  0  0  0  0  0  0  0  0  0  # atno 7974 bound_to 7965
  156.2203  140.2996  155.9936 H   0  0  0  0  0  0  0  0  0  0  0  0  # atno 8008 bound_to 7997
  155.2500  140.0425  157.3002 H   0  0  0  0  0  0  0  0  0  0  0  0  # atno 8009 bound_to 7997
  154.5830  140.2380  155.8035 H   0  0  0  0  0  0  0  0  0  0  0  0  # atno 8010 bound_to 7997
  140.4964  144.0385  150.6316 H   0  0  0  0  0  0  0  0  0  0  0  0  # atno 10167 bound_to 10162
  157.6028  130.9150  149.9823 H   0  0  0  0  0  0  0  0  0  0  0  0  # atno 10718 bound_to 10713
  154.6421  135.5385  153.7801 H   0  0  0  0  0  0  0  0  0  0  0  0  # atno 10763 bound_to 10752
  153.0339  135.6461  154.1144 H   0  0  0  0  0  0  0  0  0  0  0  0  # atno 10764 bound_to 10752
  154.1068  135.2929  155.3219 H   0  0  0  0  0  0  0  0  0  0  0  0  # atno 10765 bound_to 10752
  140.6315  133.9571  155.8277 H   0  0  0  0  0  0  0  0  0  0  0  0  # atno 11005 bound_to 11000
  145.8196  140.9686  143.0906 LP  0  0  0  0  0  0  0  0  0  0  0  0  # atno 17320 bound_to 7965
  144.6792  140.0024  143.7484 LP  0  0  0  0  0  0  0  0  0  0  0  0  # atno 17321 bound_to 7965
  140.3668  143.2877  152.0322 LP  0  0  0  0  0  0  0  0  0  0  0  0  # atno 17342 bound_to 10162
  139.4862  144.6260  151.7162 LP  0  0  0  0  0  0  0  0  0  0  0  0  # atno 17343 bound_to 10162
  156.1106  130.3650  150.0056 LP  0  0  0  0  0  0  0  0  0  0  0  0  # atno 17370 bound_to 10713
  156.8156  130.9340  151.3643 LP  0  0  0  0  0  0  0  0  0  0  0  0  # atno 17371 bound_to 10713
  141.0672  134.0259  157.3577 LP  0  0  0  0  0  0  0  0  0  0  0  0  # atno 17394 bound_to 11000
  139.9114  135.0190  156.7707 LP  0  0  0  0  0  0  0  0  0  0  0  0  # atno 17395 bound_to 11000

$$$$
