AV-unprocessed.smi:47|AV-procd|sdf|429|dock2
  -GOLD-   2262016303D 1   1.00000     0.00000
 Structure written by MMmdl.
 31 33  0  0  0  0  0  0  0  0  3 V2000
  146.0907  139.7362  153.8888 O   0  0  0  0  0  0  0  0  0  0  0  0
  147.0724  140.7485  153.9613 C   0  0  1  0  0  0  0  0  0  0  0  0
  146.8754  141.6624  155.1748 C   0  0  0  0  0  0  0  0  0  0  0  0
  148.2224  142.1292  155.5584 N   0  3  0  0  0  0  0  0  0  0  0  0
  149.2221  141.3711  154.7798 C   0  0  1  0  0  0  0  0  0  0  0  0
  150.4125  140.9664  155.6239 C   0  0  0  0  0  0  0  0  0  0  0  0
  151.4593  140.2425  155.1795 N   0  0  0  0  0  0  0  0  0  0  0  0
  152.2880  140.1341  156.1994 N   0  5  0  0  0  0  0  0  0  0  0  0
  151.7501  140.7952  157.2359 C   0  0  0  0  0  0  0  0  0  0  0  0
  152.4220  140.8866  158.5486 C   0  0  0  0  0  0  0  0  0  0  0  0
  152.3345  142.0711  159.3165 C   0  0  0  0  0  0  0  0  0  0  0  0
  152.9711  142.1742  160.5686 C   0  0  0  0  0  0  0  0  0  0  0  0
  153.7088  141.0888  161.0747 C   0  0  0  0  0  0  0  0  0  0  0  0
  153.8067  139.9026  160.3253 C   0  0  0  0  0  0  0  0  0  0  0  0
  153.1680  139.8044  159.0736 C   0  0  0  0  0  0  0  0  0  0  0  0
  150.5824  141.3281  156.9040 N   0  0  0  0  0  0  0  0  0  0  0  0
  148.4705  140.1800  154.1806 C   0  0  0  0  0  0  0  0  0  0  0  0
  147.0556  141.3401  153.0448 H   0  0  0  0  0  0  0  0  0  0  0  0
  149.5642  142.0202  153.9723 H   0  0  0  0  0  0  0  0  0  0  0  0
  145.3675  140.0522  153.3681 H   0  0  0  0  0  0  0  0  0  0  0  0
  146.2039  142.4956  154.9666 H   0  0  0  0  0  0  0  0  0  0  0  0
  146.4664  141.1024  156.0174 H   0  0  0  0  0  0  0  0  0  0  0  0
  148.3296  143.1163  155.3751 H   0  0  0  0  0  0  0  0  0  0  0  0
  151.7732  142.9158  158.9452 H   0  0  0  0  0  0  0  0  0  0  0  0
  152.8925  143.0874  161.1398 H   0  0  0  0  0  0  0  0  0  0  0  0
  154.1979  141.1658  162.0345 H   0  0  0  0  0  0  0  0  0  0  0  0
  154.3721  139.0665  160.7092 H   0  0  0  0  0  0  0  0  0  0  0  0
  153.2578  138.8838  158.5160 H   0  0  0  0  0  0  0  0  0  0  0  0
  148.4257  139.3665  154.9074 H   0  0  0  0  0  0  0  0  0  0  0  0
  148.9349  139.7939  153.2726 H   0  0  0  0  0  0  0  0  0  0  0  0
  148.3660  141.9479  156.5421 H   0  0  0  0  0  0  0  0  0  0  0  0
  1  2  1  0  0  0  0
  1 20  1  0  0  0  0
  2 18  1  0  0  0  0
  2 17  1  0  0  0  0
  2  3  1  0  0  0  0
  3  4  1  0  0  0  0
  3 21  1  0  0  0  0
  3 22  1  0  0  0  0
  4  5  1  0  0  0  0
  4 23  1  0  0  0  0
  4 31  1  0  0  0  0
  5 19  1  0  0  0  0
  5  6  1  0  0  0  0
  5 17  1  0  0  0  0
  6 16  1  0  0  0  0
  6  7  2  0  0  0  0
  7  8  1  0  0  0  0
  8  9  1  0  0  0  0
  9 10  1  0  0  0  0
  9 16  2  0  0  0  0
 10 15  1  0  0  0  0
 10 11  2  0  0  0  0
 11 12  1  0  0  0  0
 11 24  1  0  0  0  0
 12 13  2  0  0  0  0
 12 25  1  0  0  0  0
 13 14  1  0  0  0  0
 13 26  1  0  0  0  0
 14 15  2  0  0  0  0
 14 27  1  0  0  0  0
 15 28  1  0  0  0  0
 17 29  1  0  0  0  0
 17 30  1  0  0  0  0
M  CHG  1   4   1
M  CHG  1   8  -1
M  END
> <s_m_source_file>
AV-unprocessed.smi

> <i_m_source_file_index>
47

> <i_lp_mmshare_version>
43012

> <i_f3d_flags>
0

> <s_epik_input>
W09IXVtDQEhdMVtDSDJdW05IXVtDQEBIXShbQ0gyXTEpYzJuW25IXWMobjIpLWMzW2NIXVtjSF1bY0hdW2NIXVtjSF0z

> <s_epik_cmdline>
J2VwaWtfcHl0aG9uJywgJy1waCcsICc3LjAnLCAnLXRuJywgJzgnLCAnLW1hJywgJzIwMCcsICctbWV0YWxfYmluZGluZycsICctaW1hZScsICc8aW5maWxlLm1hZT4nLCAnLW9tYWUnLCAnPG91dGZpbGUubWFlPic=

> <r_lp_tautomer_probability>
1

> <r_epik_Ionization_Penalty>
1.09593

> <r_epik_Ionization_Penalty_Charging>
1.09593

> <r_epik_Ionization_Penalty_Neutral>
3.91329e-08

> <r_epik_State_Penalty>
0.690005

> <r_epik_Charging_Adjusted_Penalty>
1.78594

> <i_epik_Tot_Q>
0

> <i_epik_Tot_abs_Q>
2

> <r_epik_Metal_State_Penalty>
0.213596

> <b_epik_Metal_Only>
0

> <s_lp_Force_Field>
OPLS_2005

> <r_lp_Energy>
21.6155

> <b_lp_Chiralities_Consistent>
1

> <s_lp_Variant>
AV-unprocessed.smi:47-7

> <Gold.Version>
5.8.1

> <Gold.Id.Protein>
6NUR|6NUR_protein|mol2

> <Gold.PLP.Fitness>
50.9740

> <Gold.PLP.PLP>
-34.0550

> <Gold.PLP.part.hbond>
-4.0000

> <Gold.PLP.part.metal>
0.0000

> <Gold.PLP.part.buried>
-3.9421

> <Gold.PLP.part.nonpolar>
-26.9216

> <Gold.PLP.part.repulsive>
0.1852

> <Gold.PLP.ligand.clash>
0.0000

> <Gold.PLP.ligand.torsion>
0.5442

> <Gold.PLP.Chemscore.Hbond>
6.0000

> <Gold.PLP.Chemscore.CHOScore>
0.0000

> <Gold.PLP.Chemscore.Metal>
0.0000

> <Gold.Chemscore.Hbonds>
donor molecule, donor type, donor heavy atom, donor atom, acceptor molecule, acceptor atom, score
      L1  H     1    20       P1 10175  1.00
      L1  H     4    23       P1  8028  2.00
      P1  H  7989  7998       L1     7  0.99
      P1  H  7997  8009       L1     8  1.92

> <Gold.PLP.Chemscore.Internal.Correction>
0.0073

> <Gold.Rescore>
     Score         DG    S(hbond)    S(metal)    S(lipo)     H(rot)  DE(clash)    DE(int)     intcor
     20.30     -20.72       3.03        0.00      76.12       1.48       0.04       0.38       ----

> <Gold.Chemscore.Fitness>
20.2979

> <Gold.Chemscore.DG>
-20.7186

> <Gold.Chemscore.ZeroCoef>
-5.4800

> <Gold.Chemscore.Hbond>
3.0308

> <Gold.Chemscore.Metal>
0.0000

> <Gold.Chemscore.Lipo>
76.1170

> <Gold.Chemscore.Internal_Hbond>
0.0000

> <Gold.Chemscore.DEClash>
0.0392

> <Gold.Chemscore.DEInternal>
0.3816

> <Gold.Chemscore.Rot>
1.4804

> <Gold.Chemscore.Internal.Correction>
   9.000000E+99

> <Gold.Chemscore.Hbonds>
donor molecule, donor type, donor heavy atom, donor atom, acceptor molecule, acceptor atom, score
      L1  H     1    20       P1 10175  0.99
      L1  H     4    23       P1  8028  0.98
      P1  H  7989  7998       L1     7  0.33
      P1  H  7997  8009       L1     8  0.67

> <Gold.Chemscore.Hbond.Weighted>
-10.1228

> <Gold.Chemscore.Metal.Weighted>
-0.0000

> <Gold.Chemscore.Lipo.Weighted>
-8.9057

> <Gold.Chemscore.Internal_Hbond.Weighted>
0.0000

> <Gold.Chemscore.DEClash.Weighted>
0.0392

> <Gold.Chemscore.DEInternal.Weighted>
0.3816

> <Gold.Chemscore.Rot.Weighted>
3.7899

> <Gold.Chemscore.Internal.Correction.Weighted>
   9.000000E+99

> <Gold.Protein.RotatedTorsions>
[ 6907 6896 6895 6894 ] final  -21.01 input  -60.11 | X-H torsion
[ 7974 7965 7964 7962 ] final   76.58 input  175.53 | X-H torsion
[ 8008 7997 7996 7995 ] final -163.18 input   59.86 | X-H torsion
[ 10167 10162 10161 10158 ] final   -4.18 input  -65.29 | X-H torsion
[ 10718 10713 10712 10709 ] final   75.28 input   66.30 | X-H torsion
[ 10763 10752 10751 10750 ] final  -94.47 input  -60.55 | X-H torsion
[ 11005 11000 10999 10996 ] final -162.03 input  -57.11 | X-H torsion

> <Gold.Protein.ActiveResidues>
 VAL166  LYS551  ARG553  GLY616  TRP617  ASP618  TYR619  PRO620  LYS621  CYS622 
 ASP623  PHE694  ASN695  SER759  ASP760  ASP761  ALA762  ILE779  LEU786  VAL792 
 PHE793  MET794  SER795  GLU796  ALA797  LYS798  CYS799  TRP800  GLU811  SER814 

> <Gold.Protein.RotatedAtoms>
  151.2397  135.0584  159.9019 H   0  0  0  0  0  0  0  0  0  0  0  0  # atno 6907 bound_to 6896
  152.5394  134.0448  159.8093 H   0  0  0  0  0  0  0  0  0  0  0  0  # atno 6908 bound_to 6896
  151.0639  133.5472  159.2663 H   0  0  0  0  0  0  0  0  0  0  0  0  # atno 6909 bound_to 6896
  145.7011  139.2583  143.1705 H   0  0  0  0  0  0  0  0  0  0  0  0  # atno 7974 bound_to 7965
  155.8175  140.0914  157.1868 H   0  0  0  0  0  0  0  0  0  0  0  0  # atno 8008 bound_to 7997
  154.3979  140.1443  156.3520 H   0  0  0  0  0  0  0  0  0  0  0  0  # atno 8009 bound_to 7997
  155.8301  140.3443  155.5569 H   0  0  0  0  0  0  0  0  0  0  0  0  # atno 8010 bound_to 7997
  140.6918  143.6453  150.8398 H   0  0  0  0  0  0  0  0  0  0  0  0  # atno 10167 bound_to 10162
  157.6627  130.9719  150.1331 H   0  0  0  0  0  0  0  0  0  0  0  0  # atno 10718 bound_to 10713
  154.7058  135.5156  153.8593 H   0  0  0  0  0  0  0  0  0  0  0  0  # atno 10763 bound_to 10752
  153.0740  135.6610  154.0195 H   0  0  0  0  0  0  0  0  0  0  0  0  # atno 10764 bound_to 10752
  154.0046  135.3008  155.3378 H   0  0  0  0  0  0  0  0  0  0  0  0  # atno 10765 bound_to 10752
  140.6139  134.4821  157.5218 H   0  0  0  0  0  0  0  0  0  0  0  0  # atno 11005 bound_to 11000
  146.0797  140.7778  142.9647 LP  0  0  0  0  0  0  0  0  0  0  0  0  # atno 17320 bound_to 7965
  144.6968  140.3470  143.7189 LP  0  0  0  0  0  0  0  0  0  0  0  0  # atno 17321 bound_to 7965
  140.0167  143.5585  152.2817 LP  0  0  0  0  0  0  0  0  0  0  0  0  # atno 17342 bound_to 10162
  139.6329  144.7646  151.2499 LP  0  0  0  0  0  0  0  0  0  0  0  0  # atno 17343 bound_to 10162
  156.2173  130.3671  149.8598 LP  0  0  0  0  0  0  0  0  0  0  0  0  # atno 17370 bound_to 10713
  156.6461  130.8724  151.3523 LP  0  0  0  0  0  0  0  0  0  0  0  0  # atno 17371 bound_to 10713
  139.9181  134.8205  156.1300 LP  0  0  0  0  0  0  0  0  0  0  0  0  # atno 17394 bound_to 11000
  141.0789  133.6763  156.2295 LP  0  0  0  0  0  0  0  0  0  0  0  0  # atno 17395 bound_to 11000

$$$$
