AV-unprocessed.smi:72|AV-procd|sdf|729|dock1
  -GOLD-   2262017 53D 1   1.00000     0.00000
 Structure written by MMmdl.
 28 29  0  0  0  0  0  0  0  0  2 V2000
  150.1924  134.2012  156.1686 N   0  0  0  0  0  0  0  0  0  0  0  0
  150.0969  135.3785  155.7278 C   0  0  0  0  0  0  0  0  0  0  0  0
  148.8184  136.0546  155.7412 N   0  0  0  0  0  0  0  0  0  0  0  0
  148.7616  137.2532  155.2473 C   0  0  0  0  0  0  0  0  0  0  0  0
  149.9331  137.9082  154.6740 N   0  0  0  0  0  0  0  0  0  0  0  0
  149.8848  139.3127  154.0892 C   0  0  2  0  0  0  0  0  0  0  0  0
  150.7524  140.1556  154.7935 O   0  0  0  0  0  0  0  0  0  0  0  0
  150.0215  140.9018  155.7626 C   0  0  1  0  0  0  0  0  0  0  0  0
  150.8245  142.1187  156.2545 C   0  0  0  0  0  0  0  0  0  0  0  0
  150.0823  142.8313  157.2213 O   0  0  0  0  0  0  0  0  0  0  0  0
  148.7291  141.2190  155.0046 C   0  0  1  0  0  0  0  0  0  0  0  0
  148.9162  142.3338  154.1470 O   0  0  0  0  0  0  0  0  0  0  0  0
  148.4726  139.9222  154.2371 C   0  0  1  0  0  0  0  0  0  0  0  0
  147.8223  140.1443  152.9995 O   0  0  0  0  0  0  0  0  0  0  0  0
  151.1846  137.2359  154.7213 C   0  0  0  0  0  0  0  0  0  0  0  0
  152.1749  137.8223  154.2837 O   0  0  0  0  0  0  0  0  0  0  0  0
  151.2377  135.9800  155.2459 N   0  5  0  0  0  0  0  0  0  0  0  0
  150.2317  139.2080  153.0596 H   0  0  0  0  0  0  0  0  0  0  0  0
  149.7692  140.2566  156.6064 H   0  0  0  0  0  0  0  0  0  0  0  0
  147.9081  141.4493  155.6843 H   0  0  0  0  0  0  0  0  0  0  0  0
  147.8562  139.2624  154.8499 H   0  0  0  0  0  0  0  0  0  0  0  0
  151.1321  133.8372  156.1085 H   0  0  0  0  0  0  0  0  0  0  0  0
  147.8382  137.8318  155.2358 H   0  0  0  0  0  0  0  0  0  0  0  0
  151.7897  141.8200  156.6647 H   0  0  0  0  0  0  0  0  0  0  0  0
  151.0187  142.7999  155.4255 H   0  0  0  0  0  0  0  0  0  0  0  0
  149.8101  143.6537  156.8440 H   0  0  0  0  0  0  0  0  0  0  0  0
  148.6608  143.1126  154.6181 H   0  0  0  0  0  0  0  0  0  0  0  0
  148.4642  140.0562  152.3104 H   0  0  0  0  0  0  0  0  0  0  0  0
  1  2  2  0  0  0  0
  1 22  1  0  0  0  0
  2 17  1  0  0  0  0
  2  3  1  0  0  0  0
  3  4  2  0  0  0  0
  4  5  1  0  0  0  0
  4 23  1  0  0  0  0
  5  6  1  0  0  0  0
  5 15  1  0  0  0  0
  6 18  1  0  0  0  0
  6 13  1  0  0  0  0
  6  7  1  0  0  0  0
  7  8  1  0  0  0  0
  8 19  1  0  0  0  0
  8  9  1  0  0  0  0
  8 11  1  0  0  0  0
  9 10  1  0  0  0  0
  9 24  1  0  0  0  0
  9 25  1  0  0  0  0
 10 26  1  0  0  0  0
 11 20  1  0  0  0  0
 11 12  1  0  0  0  0
 11 13  1  0  0  0  0
 12 27  1  0  0  0  0
 13 21  1  0  0  0  0
 13 14  1  0  0  0  0
 14 28  1  0  0  0  0
 15 16  2  0  0  0  0
 15 17  1  0  0  0  0
M  CHG  1  17  -1
M  END
> <s_m_source_file>
AV-unprocessed.smi

> <i_m_source_file_index>
72

> <i_lp_mmshare_version>
43012

> <i_f3d_flags>
0

> <s_epik_input>
W05IMl1jMW5bY0hdbihjKD1PKW4xKVtDQEBIXTJPW0NASF0oW0NIMl1bT0hdKVtDQEBIXShbT0hdKVtDQEhdMltPSF0=

> <s_epik_cmdline>
J2VwaWtfcHl0aG9uJywgJy1waCcsICc3LjAnLCAnLXRuJywgJzgnLCAnLW1hJywgJzIwMCcsICctbWV0YWxfYmluZGluZycsICctaW1hZScsICc8aW5maWxlLm1hZT4nLCAnLW9tYWUnLCAnPG91dGZpbGUubWFlPic=

> <r_lp_tautomer_probability>
7.17554e-07

> <r_epik_Ionization_Penalty>
12.8705

> <r_epik_Ionization_Penalty_Charging>
5.64144

> <r_epik_Ionization_Penalty_Neutral>
7.22905

> <r_epik_State_Penalty>
3.30104

> <r_epik_Charging_Adjusted_Penalty>
8.94249

> <i_epik_Tot_Q>
-1

> <i_epik_Tot_abs_Q>
1

> <r_epik_Metal_State_Penalty>
0.529074

> <b_epik_Metal_Only>
1

> <s_epik_Chemistry_Notes>
This compound contains an acetal/aminal-like group ( X-CH(R)-Y where X, Y are N, S, or O) that may be acid/base labile, releasing an aldehyde.

> <s_lp_Force_Field>
OPLS_2005

> <r_lp_Energy>
36.9813

> <b_lp_Chiralities_Consistent>
1

> <s_lp_Variant>
AV-unprocessed.smi:72-67

> <Gold.Version>
5.8.1

> <Gold.Id.Protein>
6NUR|6NUR_protein|mol2

> <Gold.PLP.Fitness>
45.9518

> <Gold.PLP.PLP>
-27.2575

> <Gold.PLP.part.hbond>
-6.8358

> <Gold.PLP.part.metal>
0.0000

> <Gold.PLP.part.buried>
-4.7959

> <Gold.PLP.part.nonpolar>
-16.3685

> <Gold.PLP.part.repulsive>
0.3620

> <Gold.PLP.ligand.clash>
0.0000

> <Gold.PLP.ligand.torsion>
0.0241

> <Gold.PLP.Chemscore.Hbond>
6.2400

> <Gold.PLP.Chemscore.CHOScore>
0.0000

> <Gold.PLP.Chemscore.Metal>
0.0000

> <Gold.Chemscore.Hbonds>
donor molecule, donor type, donor heavy atom, donor atom, acceptor molecule, acceptor atom, score
      L1  H    10    26       P1  8028  1.00
      L1  H    12    27       P1  8028  1.00
      L1  H    14    28       P1  7957  1.00
      P1  H  7989  7998       L1     7  1.00
      P1  H  8011  8017       L1    12  0.22
      P1  H 10752 10765       L1    17  2.00

> <Gold.PLP.Chemscore.Internal.Correction>
0.0226

> <Gold.Rescore>
     Score         DG    S(hbond)    S(metal)    S(lipo)     H(rot)  DE(clash)    DE(int)     intcor
     11.90     -13.36       4.54        0.00      26.31       4.04       0.04       1.42       ----

> <Gold.Chemscore.Fitness>
11.8987

> <Gold.Chemscore.DG>
-13.3621

> <Gold.Chemscore.ZeroCoef>
-5.4800

> <Gold.Chemscore.Hbond>
4.5350

> <Gold.Chemscore.Metal>
0.0000

> <Gold.Chemscore.Lipo>
26.3094

> <Gold.Chemscore.Internal_Hbond>
0.0000

> <Gold.Chemscore.DEClash>
0.0392

> <Gold.Chemscore.DEInternal>
1.4243

> <Gold.Chemscore.Rot>
4.0403

> <Gold.Chemscore.Internal.Correction>
   9.000000E+99

> <Gold.Chemscore.Hbonds>
donor molecule, donor type, donor heavy atom, donor atom, acceptor molecule, acceptor atom, score
      L1  H    10    26       P1  8028  0.98
      L1  H    12    27       P1  8028  0.99
      L1  H    14    28       P1  7957  0.99
      P1  H  7989  7998       L1     7  0.30
      P1  H  8011  8017       L1    12  0.21
      P1  H 10752 10765       L1    17  0.34

> <Gold.Chemscore.Hbond.Weighted>
-15.1470

> <Gold.Chemscore.Metal.Weighted>
-0.0000

> <Gold.Chemscore.Lipo.Weighted>
-3.0782

> <Gold.Chemscore.Internal_Hbond.Weighted>
0.0000

> <Gold.Chemscore.DEClash.Weighted>
0.0392

> <Gold.Chemscore.DEInternal.Weighted>
1.4243

> <Gold.Chemscore.Rot.Weighted>
10.3431

> <Gold.Chemscore.Internal.Correction.Weighted>
   9.000000E+99

> <Gold.Protein.RotatedTorsions>
[ 6907 6896 6895 6894 ] final  -58.94 input  -60.11 | X-H torsion
[ 7974 7965 7964 7962 ] final  -81.14 input  175.53 | X-H torsion
[ 8008 7997 7996 7995 ] final -157.64 input   59.86 | X-H torsion
[ 10167 10162 10161 10158 ] final  -83.27 input  -65.29 | X-H torsion
[ 10718 10713 10712 10709 ] final -122.19 input   66.30 | X-H torsion
[ 10763 10752 10751 10750 ] final -158.67 input  -60.55 | X-H torsion
[ 11005 11000 10999 10996 ] final -137.92 input  -57.11 | X-H torsion

> <Gold.Protein.ActiveResidues>
 VAL166  LYS551  ARG553  GLY616  TRP617  ASP618  TYR619  PRO620  LYS621  CYS622 
 ASP623  PHE694  ASN695  SER759  ASP760  ASP761  ALA762  ILE779  LEU786  VAL792 
 PHE793  MET794  SER795  GLU796  ALA797  LYS798  CYS799  TRP800  GLU811  SER814 

> <Gold.Protein.RotatedAtoms>
  150.7968  134.7033  159.6562 H   0  0  0  0  0  0  0  0  0  0  0  0  # atno 6907 bound_to 6896
  152.4081  134.6168  160.0050 H   0  0  0  0  0  0  0  0  0  0  0  0  # atno 6908 bound_to 6896
  151.6420  133.3288  159.3168 H   0  0  0  0  0  0  0  0  0  0  0  0  # atno 6909 bound_to 6896
  145.5506  140.9497  143.1501 H   0  0  0  0  0  0  0  0  0  0  0  0  # atno 7974 bound_to 7965
  155.7355  140.0807  157.2269 H   0  0  0  0  0  0  0  0  0  0  0  0  # atno 8008 bound_to 7997
  154.4028  140.1587  156.2612 H   0  0  0  0  0  0  0  0  0  0  0  0  # atno 8009 bound_to 7997
  155.9069  140.3406  155.6071 H   0  0  0  0  0  0  0  0  0  0  0  0  # atno 8010 bound_to 7997
  140.4243  143.2573  151.8848 H   0  0  0  0  0  0  0  0  0  0  0  0  # atno 10167 bound_to 10162
  156.1398  130.6457  150.9753 H   0  0  0  0  0  0  0  0  0  0  0  0  # atno 10718 bound_to 10713
  154.7538  135.3099  154.8509 H   0  0  0  0  0  0  0  0  0  0  0  0  # atno 10763 bound_to 10752
  153.9289  135.6787  153.4750 H   0  0  0  0  0  0  0  0  0  0  0  0  # atno 10764 bound_to 10752
  153.1134  135.4856  154.9003 H   0  0  0  0  0  0  0  0  0  0  0  0  # atno 10765 bound_to 10752
  140.8665  134.2104  157.4677 H   0  0  0  0  0  0  0  0  0  0  0  0  # atno 11005 bound_to 11000
  144.7531  139.7142  143.7265 LP  0  0  0  0  0  0  0  0  0  0  0  0  # atno 17320 bound_to 7965
  146.1919  139.5164  142.9799 LP  0  0  0  0  0  0  0  0  0  0  0  0  # atno 17321 bound_to 7965
  139.4783  144.5404  151.8536 LP  0  0  0  0  0  0  0  0  0  0  0  0  # atno 17342 bound_to 10162
  140.4499  144.1869  150.5896 LP  0  0  0  0  0  0  0  0  0  0  0  0  # atno 17343 bound_to 10162
  157.6565  131.0888  150.7935 LP  0  0  0  0  0  0  0  0  0  0  0  0  # atno 17370 bound_to 10713
  156.8012  130.4921  149.5369 LP  0  0  0  0  0  0  0  0  0  0  0  0  # atno 17371 bound_to 10713
  139.8709  134.9754  156.4882 LP  0  0  0  0  0  0  0  0  0  0  0  0  # atno 17394 bound_to 11000
  140.8623  133.8051  155.9277 LP  0  0  0  0  0  0  0  0  0  0  0  0  # atno 17395 bound_to 11000

$$$$
