AV-unprocessed.smi:2252|AV-procd|sdf|9103|dock10
  -GOLD-   2272012303D 1   1.00000     0.00000
 Structure written by MMmdl.
 46 48  0  0  0  0  0  0  0  0  3 V2000
  152.9944  141.7359  159.0746 C   0  0  0  0  0  0  0  0  0  0  0  0
  152.2137  142.9106  158.6820 N   0  0  0  0  0  0  0  0  0  0  0  0
  152.2378  144.1446  159.2798 C   0  0  0  0  0  0  0  0  0  0  0  0
  151.3606  144.9354  158.5849 C   0  0  0  0  0  0  0  0  0  0  0  0
  150.8370  144.1520  157.5926 N   0  3  0  0  0  0  0  0  0  0  0  0
  151.3499  142.9174  157.6532 C   0  0  0  0  0  0  0  0  0  0  0  0
  151.0203  141.7950  156.7193 C   0  0  0  0  0  0  0  0  0  0  0  0
  149.5877  141.2698  156.9109 C   0  0  0  0  0  0  0  0  0  0  0  0
  149.2622  140.2164  155.9567 N   0  0  0  0  0  0  0  0  0  0  0  0
  149.3142  140.3439  154.6215 C   0  0  0  0  0  0  0  0  0  0  0  0
  149.6404  141.3888  154.0570 O   0  0  0  0  0  0  0  0  0  0  0  0
  148.9590  139.0984  153.7949 C   0  0  2  0  0  0  0  0  0  0  0  0
  147.4778  138.7442  154.0474 C   0  0  0  0  0  0  0  0  0  0  0  0
  146.4640  138.7625  152.9240 C   0  0  0  0  0  0  0  0  0  0  0  0
  146.4044  139.8115  154.0043 C   0  0  0  0  0  0  0  0  0  0  0  0
  149.8559  137.9503  154.1122 N   0  3  0  0  0  0  0  0  0  0  0  0
  151.2936  138.2808  154.2138 C   0  0  0  0  0  0  0  0  0  0  0  0
  151.9392  137.1429  155.0115 C   0  0  0  0  0  0  0  0  0  0  0  0
  150.7821  136.4140  155.7014 C   0  0  0  0  0  0  0  0  0  0  0  0
  149.5331  137.2283  155.3623 C   0  0  0  0  0  0  0  0  0  0  0  0
  153.6967  142.0110  159.8622 H   0  0  0  0  0  0  0  0  0  0  0  0
  153.5490  141.3627  158.2132 H   0  0  0  0  0  0  0  0  0  0  0  0
  152.3203  140.9633  159.4453 H   0  0  0  0  0  0  0  0  0  0  0  0
  152.8631  144.3647  160.1332 H   0  0  0  0  0  0  0  0  0  0  0  0
  151.0787  145.9699  158.7175 H   0  0  0  0  0  0  0  0  0  0  0  0
  151.1784  142.1499  155.7008 H   0  0  0  0  0  0  0  0  0  0  0  0
  151.7556  141.0109  156.9042 H   0  0  0  0  0  0  0  0  0  0  0  0
  149.4476  140.9020  157.9289 H   0  0  0  0  0  0  0  0  0  0  0  0
  148.8724  142.0808  156.7730 H   0  0  0  0  0  0  0  0  0  0  0  0
  148.9941  139.3212  156.3406 H   0  0  0  0  0  0  0  0  0  0  0  0
  149.0863  139.3397  152.7375 H   0  0  0  0  0  0  0  0  0  0  0  0
  147.3358  137.9761  154.8061 H   0  0  0  0  0  0  0  0  0  0  0  0
  146.7991  139.0801  151.9387 H   0  0  0  0  0  0  0  0  0  0  0  0
  145.6975  137.9903  152.9289 H   0  0  0  0  0  0  0  0  0  0  0  0
  145.5960  139.7411  154.7293 H   0  0  0  0  0  0  0  0  0  0  0  0
  146.6994  140.8232  153.7329 H   0  0  0  0  0  0  0  0  0  0  0  0
  151.7513  138.4032  153.2316 H   0  0  0  0  0  0  0  0  0  0  0  0
  151.4131  139.2176  154.7606 H   0  0  0  0  0  0  0  0  0  0  0  0
  152.4683  136.4584  154.3472 H   0  0  0  0  0  0  0  0  0  0  0  0
  152.6638  137.5280  155.7300 H   0  0  0  0  0  0  0  0  0  0  0  0
  150.6905  135.4049  155.2975 H   0  0  0  0  0  0  0  0  0  0  0  0
  150.9291  136.3254  156.7785 H   0  0  0  0  0  0  0  0  0  0  0  0
  149.3390  137.9481  156.1591 H   0  0  0  0  0  0  0  0  0  0  0  0
  148.6506  136.5961  155.2582 H   0  0  0  0  0  0  0  0  0  0  0  0
  149.7677  137.2809  153.3608 H   0  0  0  0  0  0  0  0  0  0  0  0
  150.1591  144.4613  156.9073 H   0  0  0  0  0  0  0  0  0  0  0  0
  1  2  1  0  0  0  0
  1 21  1  0  0  0  0
  1 22  1  0  0  0  0
  1 23  1  0  0  0  0
  2  6  1  0  0  0  0
  2  3  1  0  0  0  0
  3  4  2  0  0  0  0
  3 24  1  0  0  0  0
  4  5  1  0  0  0  0
  4 25  1  0  0  0  0
  5  6  2  0  0  0  0
  5 46  1  0  0  0  0
  6  7  1  0  0  0  0
  7  8  1  0  0  0  0
  7 26  1  0  0  0  0
  7 27  1  0  0  0  0
  8  9  1  0  0  0  0
  8 28  1  0  0  0  0
  8 29  1  0  0  0  0
  9 10  1  0  0  0  0
  9 30  1  0  0  0  0
 10 11  2  0  0  0  0
 10 12  1  0  0  0  0
 12 13  1  0  0  0  0
 12 16  1  0  0  0  0
 12 31  1  0  0  0  0
 13 15  1  0  0  0  0
 13 14  1  0  0  0  0
 13 32  1  0  0  0  0
 14 15  1  0  0  0  0
 14 33  1  0  0  0  0
 14 34  1  0  0  0  0
 15 35  1  0  0  0  0
 15 36  1  0  0  0  0
 16 20  1  0  0  0  0
 16 17  1  0  0  0  0
 16 45  1  0  0  0  0
 17 18  1  0  0  0  0
 17 37  1  0  0  0  0
 17 38  1  0  0  0  0
 18 19  1  0  0  0  0
 18 39  1  0  0  0  0
 18 40  1  0  0  0  0
 19 20  1  0  0  0  0
 19 41  1  0  0  0  0
 19 42  1  0  0  0  0
 20 43  1  0  0  0  0
 20 44  1  0  0  0  0
M  CHG  1   5   1
M  CHG  1  16   1
M  END
> <s_m_source_file>
AV-unprocessed.smi

> <i_m_source_file_index>
2252

> <i_lp_mmshare_version>
43012

> <i_f3d_flags>
0

> <s_epik_input>
W0NIM11uMVtjSF1bY0hdbmMxW0NIMl1bQ0gyXVtOSF1DKD1PKVtDQEhdKFtDSF0yW0NIMl1bQ0gyXTIpTjNbQ0gyXVtDSDJdW0NIMl1bQ0gyXTM=

> <s_epik_cmdline>
J2VwaWtfcHl0aG9uJywgJy1waCcsICc3LjAnLCAnLXRuJywgJzgnLCAnLW1hJywgJzIwMCcsICctbWV0YWxfYmluZGluZycsICctaW1hZScsICc8aW5maWxlLm1hZT4nLCAnLW9tYWUnLCAnPG91dGZpbGUubWFlPic=

> <r_lp_tautomer_probability>
1

> <r_epik_Ionization_Penalty>
0.116886

> <r_epik_Ionization_Penalty_Charging>
0.00955009

> <r_epik_Ionization_Penalty_Neutral>
0.107336

> <r_epik_State_Penalty>
0.0956868

> <r_epik_Charging_Adjusted_Penalty>
0.105237

> <i_epik_Tot_Q>
2

> <i_epik_Tot_abs_Q>
2

> <r_epik_Metal_State_Penalty>
0.438836

> <b_epik_Metal_Only>
0

> <s_lp_Force_Field>
OPLS_2005

> <r_lp_Energy>
40.5803

> <b_lp_Chiralities_Consistent>
1

> <s_lp_Variant>
AV-unprocessed.smi:2252-1

> <Gold.Version>
5.8.1

> <Gold.Id.Protein>
6NUR|6NUR_protein|mol2

> <Gold.PLP.Fitness>
49.7196

> <Gold.PLP.PLP>
-35.7420

> <Gold.PLP.part.hbond>
-4.0000

> <Gold.PLP.part.metal>
0.0000

> <Gold.PLP.part.buried>
0.0420

> <Gold.PLP.part.nonpolar>
-32.4571

> <Gold.PLP.part.repulsive>
0.2904

> <Gold.PLP.ligand.clash>
0.0000

> <Gold.PLP.ligand.torsion>
1.1731

> <Gold.PLP.Chemscore.Hbond>
5.0496

> <Gold.PLP.Chemscore.CHOScore>
0.0000

> <Gold.PLP.Chemscore.Metal>
0.0000

> <Gold.Chemscore.Hbonds>
donor molecule, donor type, donor heavy atom, donor atom, acceptor molecule, acceptor atom, score
      L1  H     5    46       P1  8028  2.00
      L1  H    16    45       P1  7948  2.00
      P1  H  7989  7998       L1    11  0.24
      P1  H  8011  8017       L1    11  0.69

> <Gold.PLP.Chemscore.Internal.Correction>
1.1751

> <Gold.Rescore>
     Score         DG    S(hbond)    S(metal)    S(lipo)     H(rot)  DE(clash)    DE(int)     intcor
     16.85     -19.20       2.60        0.00      87.80       2.05       0.94       1.41       ----

> <Gold.Chemscore.Fitness>
16.8487

> <Gold.Chemscore.DG>
-19.1968

> <Gold.Chemscore.ZeroCoef>
-5.4800

> <Gold.Chemscore.Hbond>
2.5992

> <Gold.Chemscore.Metal>
0.0000

> <Gold.Chemscore.Lipo>
87.7975

> <Gold.Chemscore.Internal_Hbond>
0.0000

> <Gold.Chemscore.DEClash>
0.9386

> <Gold.Chemscore.DEInternal>
1.4094

> <Gold.Chemscore.Rot>
2.0456

> <Gold.Chemscore.Internal.Correction>
   9.000000E+99

> <Gold.Chemscore.Hbonds>
donor molecule, donor type, donor heavy atom, donor atom, acceptor molecule, acceptor atom, score
      L1  H     5    46       P1  8028  0.78
      L1  H    16    45       P1  7948  0.59
      P1  H  7989  7998       L1    11  0.07
      P1  H  8011  8017       L1    11  0.67

> <Gold.Chemscore.Hbond.Weighted>
-8.6813

> <Gold.Chemscore.Metal.Weighted>
-0.0000

> <Gold.Chemscore.Lipo.Weighted>
-10.2723

> <Gold.Chemscore.Internal_Hbond.Weighted>
0.0000

> <Gold.Chemscore.DEClash.Weighted>
0.9386

> <Gold.Chemscore.DEInternal.Weighted>
1.4094

> <Gold.Chemscore.Rot.Weighted>
5.2368

> <Gold.Chemscore.Internal.Correction.Weighted>
   9.000000E+99

> <Gold.Protein.RotatedTorsions>
[ 6907 6896 6895 6894 ] final  -98.92 input  -60.11 | X-H torsion
[ 7974 7965 7964 7962 ] final  147.64 input  175.53 | X-H torsion
[ 8008 7997 7996 7995 ] final   40.53 input   59.86 | X-H torsion
[ 10167 10162 10161 10158 ] final  110.96 input  -65.29 | X-H torsion
[ 10718 10713 10712 10709 ] final -166.34 input   66.30 | X-H torsion
[ 10763 10752 10751 10750 ] final   85.33 input  -60.55 | X-H torsion
[ 11005 11000 10999 10996 ] final   20.50 input  -57.11 | X-H torsion

> <Gold.Protein.ActiveResidues>
 VAL166  LYS551  ARG553  GLY616  TRP617  ASP618  TYR619  PRO620  LYS621  CYS622 
 ASP623  PHE694  ASN695  SER759  ASP760  ASP761  ALA762  ILE779  LEU786  VAL792 
 PHE793  MET794  SER795  GLU796  ALA797  LYS798  CYS799  TRP800  GLU811  SER814 

> <Gold.Protein.RotatedAtoms>
  150.7062  134.1121  159.4003 H   0  0  0  0  0  0  0  0  0  0  0  0  # atno 6907 bound_to 6896
  151.9107  135.0337  160.0523 H   0  0  0  0  0  0  0  0  0  0  0  0  # atno 6908 bound_to 6896
  152.2338  133.5044  159.5267 H   0  0  0  0  0  0  0  0  0  0  0  0  # atno 6909 bound_to 6896
  144.8576  139.6054  143.5945 H   0  0  0  0  0  0  0  0  0  0  0  0  # atno 7974 bound_to 7965
  155.2547  140.3355  155.4279 H   0  0  0  0  0  0  0  0  0  0  0  0  # atno 8008 bound_to 7997
  156.2200  140.1805  156.7542 H   0  0  0  0  0  0  0  0  0  0  0  0  # atno 8009 bound_to 7997
  154.5811  140.0653  156.9091 H   0  0  0  0  0  0  0  0  0  0  0  0  # atno 8010 bound_to 7997
  139.6648  144.7128  151.1797 H   0  0  0  0  0  0  0  0  0  0  0  0  # atno 10167 bound_to 10162
  156.6665  130.9067  151.3037 H   0  0  0  0  0  0  0  0  0  0  0  0  # atno 10718 bound_to 10713
  153.1464  135.4621  154.9573 H   0  0  0  0  0  0  0  0  0  0  0  0  # atno 10763 bound_to 10752
  154.7790  135.3182  154.8033 H   0  0  0  0  0  0  0  0  0  0  0  0  # atno 10764 bound_to 10752
  153.8546  135.6918  153.4843 H   0  0  0  0  0  0  0  0  0  0  0  0  # atno 10765 bound_to 10752
  140.4019  134.1709  155.7664 H   0  0  0  0  0  0  0  0  0  0  0  0  # atno 11005 bound_to 11000
  146.2835  139.6941  142.9212 LP  0  0  0  0  0  0  0  0  0  0  0  0  # atno 17320 bound_to 7965
  145.4376  141.0420  143.2876 LP  0  0  0  0  0  0  0  0  0  0  0  0  # atno 17321 bound_to 7965
  140.7595  143.5937  150.8770 LP  0  0  0  0  0  0  0  0  0  0  0  0  # atno 17342 bound_to 10162
  139.9597  143.6178  152.3006 LP  0  0  0  0  0  0  0  0  0  0  0  0  # atno 17343 bound_to 10162
  157.7092  130.9420  150.1032 LP  0  0  0  0  0  0  0  0  0  0  0  0  # atno 17370 bound_to 10713
  156.1971  130.3658  149.8835 LP  0  0  0  0  0  0  0  0  0  0  0  0  # atno 17371 bound_to 10713
  141.1853  133.8325  157.1108 LP  0  0  0  0  0  0  0  0  0  0  0  0  # atno 17394 bound_to 11000
  140.0330  134.9892  157.0817 LP  0  0  0  0  0  0  0  0  0  0  0  0  # atno 17395 bound_to 11000

$$$$
