AV-unprocessed.smi:290|AV-procd|sdf|2239|dock8
  -GOLD-   2262022113D 1   1.00000     0.00000
 Structure written by MMmdl.
 59 62  0  0  0  0  0  0  0  0  2 V2000
  149.4706  138.1284  155.1301 C   0  0  0  0  0  0  0  0  0  0  0  0
  150.1156  139.4977  154.8867 C   0  0  2  0  0  0  0  0  0  0  0  0
  150.9315  139.8157  156.0071 O   0  0  0  0  0  0  0  0  0  0  0  0
  151.1635  141.2104  155.9840 C   0  0  0  0  0  0  0  0  0  0  0  0
  149.7777  141.7522  155.6697 C   0  0  0  0  0  0  0  0  0  0  0  0
  149.1895  140.7364  154.6856 C   0  0  1  0  0  0  0  0  0  0  0  0
  149.4208  141.2352  153.3801 O   0  0  0  0  0  0  0  0  0  0  0  0
  147.6591  140.5769  154.9328 C   0  0  0  0  0  0  0  0  0  0  0  0
  146.9779  139.5719  154.1242 N   0  0  0  0  0  0  0  0  0  0  0  0
  147.0925  139.3868  152.7658 C   0  0  0  0  0  0  0  0  0  0  0  0
  146.3881  138.4053  152.2753 N   0  0  0  0  0  0  0  0  0  0  0  0
  145.7746  137.8290  153.3820 C   0  0  0  0  0  0  0  0  0  0  0  0
  144.8914  136.7240  153.5813 C   0  0  0  0  0  0  0  0  0  0  0  0
  144.4139  135.9077  152.6036 N   0  0  0  0  0  0  0  0  0  0  0  0
  144.7453  136.1327  151.2074 C   0  0  0  0  0  0  0  0  0  0  0  0
  144.8004  134.7386  150.5980 C   0  0  0  0  0  0  0  0  0  0  0  0
  143.7759  133.9284  151.4093 C   0  0  1  0  0  0  0  0  0  0  0  0
  144.0512  132.4575  151.3518 N   0  3  2  0  0  0  0  0  0  0  0  0
  145.4920  132.1636  151.5706 C   0  0  0  0  0  0  0  0  0  0  0  0
  143.5127  131.7701  150.1423 C   0  0  0  0  0  0  0  0  0  0  0  0
  143.7169  132.5520  148.8306 C   0  0  0  0  0  0  0  0  0  0  0  0
  142.5379  132.5175  148.0540 O   0  0  0  0  0  0  0  0  0  0  0  0
  143.8560  134.5756  152.8186 C   0  0  2  0  0  0  0  0  0  0  0  0
  142.4755  134.6837  153.5038 C   0  0  0  0  0  0  0  0  0  0  0  0
  144.5021  136.4652  154.8573 N   0  0  0  0  0  0  0  0  0  0  0  0
  144.9436  137.2149  155.8701 C   0  0  0  0  0  0  0  0  0  0  0  0
  145.7637  138.2647  155.8325 N   0  0  0  0  0  0  0  0  0  0  0  0
  146.1495  138.5476  154.5554 C   0  0  0  0  0  0  0  0  0  0  0  0
  142.7846  134.1179  150.9929 H   0  0  0  0  0  0  0  0  0  0  0  0
  144.5577  134.0106  153.4310 H   0  0  0  0  0  0  0  0  0  0  0  0
  148.9430  137.7816  154.2435 H   0  0  0  0  0  0  0  0  0  0  0  0
  148.7796  138.1455  155.9723 H   0  0  0  0  0  0  0  0  0  0  0  0
  150.2344  137.3831  155.3529 H   0  0  0  0  0  0  0  0  0  0  0  0
  150.7935  139.3990  154.0360 H   0  0  0  0  0  0  0  0  0  0  0  0
  151.5532  141.5713  156.9358 H   0  0  0  0  0  0  0  0  0  0  0  0
  151.8762  141.4600  155.1961 H   0  0  0  0  0  0  0  0  0  0  0  0
  149.1972  141.7608  156.5934 H   0  0  0  0  0  0  0  0  0  0  0  0
  149.7984  142.7753  155.2912 H   0  0  0  0  0  0  0  0  0  0  0  0
  149.2450  140.5454  152.7582 H   0  0  0  0  0  0  0  0  0  0  0  0
  147.4596  140.3763  155.9857 H   0  0  0  0  0  0  0  0  0  0  0  0
  147.1668  141.5277  154.7228 H   0  0  0  0  0  0  0  0  0  0  0  0
  147.7157  140.0087  152.1400 H   0  0  0  0  0  0  0  0  0  0  0  0
  143.9571  136.7298  150.7475 H   0  0  0  0  0  0  0  0  0  0  0  0
  145.6942  136.6543  151.0765 H   0  0  0  0  0  0  0  0  0  0  0  0
  144.5904  134.7582  149.5284 H   0  0  0  0  0  0  0  0  0  0  0  0
  145.8003  134.3252  150.7383 H   0  0  0  0  0  0  0  0  0  0  0  0
  146.0903  132.4977  150.7221 H   0  0  0  0  0  0  0  0  0  0  0  0
  145.6703  131.1000  151.7187 H   0  0  0  0  0  0  0  0  0  0  0  0
  145.8766  132.6519  152.4648 H   0  0  0  0  0  0  0  0  0  0  0  0
  144.0082  130.8119  150.0009 H   0  0  0  0  0  0  0  0  0  0  0  0
  142.4524  131.5602  150.2894 H   0  0  0  0  0  0  0  0  0  0  0  0
  143.9376  133.5944  149.0619 H   0  0  0  0  0  0  0  0  0  0  0  0
  144.5618  132.1863  148.2490 H   0  0  0  0  0  0  0  0  0  0  0  0
  141.9484  133.1864  148.3693 H   0  0  0  0  0  0  0  0  0  0  0  0
  142.0044  133.7142  153.6523 H   0  0  0  0  0  0  0  0  0  0  0  0
  141.7906  135.2857  152.9058 H   0  0  0  0  0  0  0  0  0  0  0  0
  142.5448  135.1566  154.4828 H   0  0  0  0  0  0  0  0  0  0  0  0
  144.5892  136.9328  156.8507 H   0  0  0  0  0  0  0  0  0  0  0  0
  143.5536  132.0549  152.1335 H   0  0  0  0  0  0  0  0  0  0  0  0
  1  2  1  0  0  0  0
  1 31  1  0  0  0  0
  1 32  1  0  0  0  0
  1 33  1  0  0  0  0
  2  6  1  0  0  0  0
  2  3  1  0  0  0  0
  2 34  1  0  0  0  0
  3  4  1  0  0  0  0
  4  5  1  0  0  0  0
  4 35  1  0  0  0  0
  4 36  1  0  0  0  0
  5  6  1  0  0  0  0
  5 37  1  0  0  0  0
  5 38  1  0  0  0  0
  6  7  1  0  0  0  0
  6  8  1  0  0  0  0
  7 39  1  0  0  0  0
  8  9  1  0  0  0  0
  8 40  1  0  0  0  0
  8 41  1  0  0  0  0
  9 28  1  0  0  0  0
  9 10  1  0  0  0  0
 10 11  2  0  0  0  0
 10 42  1  0  0  0  0
 11 12  1  0  0  0  0
 12 28  2  0  0  0  0
 12 13  1  0  0  0  0
 13 14  1  0  0  0  0
 13 25  2  0  0  0  0
 14 23  1  0  0  0  0
 14 15  1  0  0  0  0
 15 16  1  0  0  0  0
 15 43  1  0  0  0  0
 15 44  1  0  0  0  0
 16 17  1  0  0  0  0
 16 45  1  0  0  0  0
 16 46  1  0  0  0  0
 17 29  1  0  0  0  0
 17 18  1  0  0  0  0
 17 23  1  0  0  0  0
 18 19  1  0  0  0  0
 18 20  1  0  0  0  0
 18 59  1  0  0  0  0
 19 47  1  0  0  0  0
 19 48  1  0  0  0  0
 19 49  1  0  0  0  0
 20 21  1  0  0  0  0
 20 50  1  0  0  0  0
 20 51  1  0  0  0  0
 21 22  1  0  0  0  0
 21 52  1  0  0  0  0
 21 53  1  0  0  0  0
 22 54  1  0  0  0  0
 23 30  1  0  0  0  0
 23 24  1  0  0  0  0
 24 55  1  0  0  0  0
 24 56  1  0  0  0  0
 24 57  1  0  0  0  0
 25 26  1  0  0  0  0
 26 27  2  0  0  0  0
 26 58  1  0  0  0  0
 27 28  1  0  0  0  0
M  CHG  1  18   1
M  END
> <s_m_source_file>
AV-unprocessed.smi

> <i_m_source_file_index>
290

> <i_lp_mmshare_version>
43012

> <i_f3d_flags>
0

> <s_epik_input>
W0NIMl0xW0NIMl1PW0NAQEhdKFtDSDNdKVtDQEBdMShbT0hdKVtDSDJdbihbY0hdbjIpYyhjMjMpbltjSF1uYzNONFtDSDJdW0NIMl1bQ0BIXShbQ0BIXTRbQ0gzXSlOKFtDSDNdKVtDSDJdW0NIMl1bT0hd

> <s_epik_cmdline>
J2VwaWtfcHl0aG9uJywgJy1waCcsICc3LjAnLCAnLXRuJywgJzgnLCAnLW1hJywgJzIwMCcsICctbWV0YWxfYmluZGluZycsICctaW1hZScsICc8aW5maWxlLm1hZT4nLCAnLW9tYWUnLCAnPG91dGZpbGUubWFlPic=

> <r_lp_tautomer_probability>
1

> <r_epik_Ionization_Penalty>
0.0036983

> <r_epik_Ionization_Penalty_Charging>
0.0032725

> <r_epik_Ionization_Penalty_Neutral>
0.000425798

> <r_epik_State_Penalty>
-0

> <r_epik_Charging_Adjusted_Penalty>
0.0032725

> <i_epik_Tot_Q>
1

> <i_epik_Tot_abs_Q>
1

> <r_epik_Metal_State_Penalty>
-0

> <b_epik_Metal_Only>
0

> <s_lp_Force_Field>
OPLS_2005

> <r_lp_Energy>
66.2506

> <b_lp_Chiralities_Consistent>
1

> <s_lp_Variant>
AV-unprocessed.smi:290-25

> <Gold.Version>
5.8.1

> <Gold.Id.Protein>
6NUR|6NUR_protein|mol2

> <Gold.PLP.Fitness>
51.9495

> <Gold.PLP.PLP>
-42.1975

> <Gold.PLP.part.hbond>
-5.6545

> <Gold.PLP.part.metal>
0.0000

> <Gold.PLP.part.buried>
-1.7070

> <Gold.PLP.part.nonpolar>
-36.5432

> <Gold.PLP.part.repulsive>
0.3923

> <Gold.PLP.ligand.clash>
0.0000

> <Gold.PLP.ligand.torsion>
1.0519

> <Gold.PLP.Chemscore.Hbond>
2.9088

> <Gold.PLP.Chemscore.CHOScore>
0.9789

> <Gold.PLP.Chemscore.Metal>
0.0000

> <Gold.Chemscore.Hbonds>
donor molecule, donor type, donor heavy atom, donor atom, acceptor molecule, acceptor atom, score
      L1  H     7    39       P1  7957  0.83
      L1  H    22    54       P1 10186  1.00
      P1  H  7989  7998       L1     7  0.04
      P1  H  8011  8017       L1     7  0.90
      L1  C    10    42       P1  7957  1.00

> <Gold.PLP.Chemscore.Internal.Correction>
0.1929

> <Gold.Rescore>
     Score         DG    S(hbond)    S(metal)    S(lipo)     H(rot)  DE(clash)    DE(int)     intcor
      9.83     -15.05       2.22        0.00      91.77       3.35       0.45       4.77       ----

> <Gold.Chemscore.Fitness>
9.8312

> <Gold.Chemscore.DG>
-15.0539

> <Gold.Chemscore.ZeroCoef>
-5.4800

> <Gold.Chemscore.Hbond>
2.2208

> <Gold.Chemscore.Metal>
0.0000

> <Gold.Chemscore.Lipo>
91.7705

> <Gold.Chemscore.Internal_Hbond>
0.0000

> <Gold.Chemscore.DEClash>
0.4527

> <Gold.Chemscore.DEInternal>
4.7701

> <Gold.Chemscore.Rot>
3.3518

> <Gold.Chemscore.Internal.Correction>
   9.000000E+99

> <Gold.Chemscore.Hbonds>
donor molecule, donor type, donor heavy atom, donor atom, acceptor molecule, acceptor atom, score
      L1  H     7    39       P1  7957  0.81
      L1  H    22    54       P1 10186  0.99
      P1  H  8011  8017       L1     7  0.17

> <Gold.Chemscore.Hbond.Weighted>
-7.4173

> <Gold.Chemscore.Metal.Weighted>
-0.0000

> <Gold.Chemscore.Lipo.Weighted>
-10.7371

> <Gold.Chemscore.Internal_Hbond.Weighted>
0.0000

> <Gold.Chemscore.DEClash.Weighted>
0.4527

> <Gold.Chemscore.DEInternal.Weighted>
4.7701

> <Gold.Chemscore.Rot.Weighted>
8.5806

> <Gold.Chemscore.Internal.Correction.Weighted>
   9.000000E+99

> <Gold.Protein.RotatedTorsions>
[ 6907 6896 6895 6894 ] final  104.03 input  -60.11 | X-H torsion
[ 7974 7965 7964 7962 ] final  -26.82 input  175.53 | X-H torsion
[ 8008 7997 7996 7995 ] final   26.12 input   59.86 | X-H torsion
[ 10167 10162 10161 10158 ] final   77.73 input  -65.29 | X-H torsion
[ 10718 10713 10712 10709 ] final  -71.98 input   66.30 | X-H torsion
[ 10763 10752 10751 10750 ] final -169.27 input  -60.55 | X-H torsion
[ 11005 11000 10999 10996 ] final -177.48 input  -57.11 | X-H torsion

> <Gold.Protein.ActiveResidues>
 VAL166  LYS551  ARG553  GLY616  TRP617  ASP618  TYR619  PRO620  LYS621  CYS622 
 ASP623  PHE694  ASN695  SER759  ASP760  ASP761  ALA762  ILE779  LEU786  VAL792 
 PHE793  MET794  SER795  GLU796  ALA797  LYS798  CYS799  TRP800  GLU811  SER814 

> <Gold.Protein.RotatedAtoms>
  152.5277  133.9737  159.7773 H   0  0  0  0  0  0  0  0  0  0  0  0  # atno 6907 bound_to 6896
  151.0004  133.6054  159.2703 H   0  0  0  0  0  0  0  0  0  0  0  0  # atno 6908 bound_to 6896
  151.3165  135.0814  159.9344 H   0  0  0  0  0  0  0  0  0  0  0  0  # atno 6909 bound_to 6896
  146.1399  140.5071  142.8656 H   0  0  0  0  0  0  0  0  0  0  0  0  # atno 7974 bound_to 7965
  155.0223  140.3149  155.4789 H   0  0  0  0  0  0  0  0  0  0  0  0  # atno 8008 bound_to 7997
  156.2890  140.2195  156.5283 H   0  0  0  0  0  0  0  0  0  0  0  0  # atno 8009 bound_to 7997
  154.7441  140.0471  157.0825 H   0  0  0  0  0  0  0  0  0  0  0  0  # atno 8010 bound_to 7997
  139.9784  144.5844  150.7922 H   0  0  0  0  0  0  0  0  0  0  0  0  # atno 10167 bound_to 10162
  156.0340  130.4362  150.2524 H   0  0  0  0  0  0  0  0  0  0  0  0  # atno 10718 bound_to 10713
  154.6540  135.2915  154.9951 H   0  0  0  0  0  0  0  0  0  0  0  0  # atno 10763 bound_to 10752
  154.1034  135.6573  153.4876 H   0  0  0  0  0  0  0  0  0  0  0  0  # atno 10764 bound_to 10752
  153.0392  135.5248  154.7461 H   0  0  0  0  0  0  0  0  0  0  0  0  # atno 10765 bound_to 10752
  140.4404  134.6437  157.4755 H   0  0  0  0  0  0  0  0  0  0  0  0  # atno 11005 bound_to 11000
  144.7781  140.5782  143.6624 LP  0  0  0  0  0  0  0  0  0  0  0  0  # atno 17320 bound_to 7965
  145.5070  139.1481  143.3626 LP  0  0  0  0  0  0  0  0  0  0  0  0  # atno 17321 bound_to 7965
  140.7498  143.2944  151.3244 LP  0  0  0  0  0  0  0  0  0  0  0  0  # atno 17342 bound_to 10162
  139.6428  144.0507  152.2568 LP  0  0  0  0  0  0  0  0  0  0  0  0  # atno 17343 bound_to 10162
  157.0625  131.0094  151.3218 LP  0  0  0  0  0  0  0  0  0  0  0  0  # atno 17370 bound_to 10713
  157.5060  130.7909  149.7654 LP  0  0  0  0  0  0  0  0  0  0  0  0  # atno 17371 bound_to 10713
  140.0074  134.6743  155.9434 LP  0  0  0  0  0  0  0  0  0  0  0  0  # atno 17394 bound_to 11000
  141.1708  133.6537  156.4644 LP  0  0  0  0  0  0  0  0  0  0  0  0  # atno 17395 bound_to 11000

$$$$
