AV-unprocessed.smi:287|AV-procd|sdf|2201|dock6
  -GOLD-   2262022 13D 1   1.00000     0.00000
 Structure written by MMmdl.
 55 58  0  0  0  0  0  0  0  0  1 V2000
  154.2981  140.6615  161.0698 C   0  0  0  0  0  0  0  0  0  0  0  0
  153.3346  141.1293  160.0337 C   0  0  0  0  0  0  0  0  0  0  0  0
  152.4117  140.5005  159.2499 C   0  0  0  0  0  0  0  0  0  0  0  0
  151.7897  141.4973  158.4402 C   0  0  0  0  0  0  0  0  0  0  0  0
  150.6937  141.2543  157.4113 C   0  0  1  0  0  0  0  0  0  0  0  0
  151.1370  141.7920  156.0405 C   0  0  0  0  0  0  0  0  0  0  0  0
  150.4263  139.8804  157.2050 O   0  0  0  0  0  0  0  0  0  0  0  0
  149.3489  141.8958  157.8228 C   0  0  0  0  0  0  0  0  0  0  0  0
  148.5085  142.2333  156.6811 N   0  0  0  0  0  0  0  0  0  0  0  0
  147.8656  141.2753  155.9812 C   0  0  0  0  0  0  0  0  0  0  0  0
  148.0997  141.2754  154.6473 N   0  0  0  0  0  0  0  0  0  0  0  0
  147.5160  140.3660  153.8629 C   0  0  0  0  0  0  0  0  0  0  0  0
  146.6790  139.3857  154.2045 N   0  0  0  0  0  0  0  0  0  0  0  0
  146.4331  139.3782  155.5465 C   0  0  0  0  0  0  0  0  0  0  0  0
  146.9822  140.2824  156.5015 C   0  0  0  0  0  0  0  0  0  0  0  0
  146.4994  139.9600  157.7659 N   0  0  0  0  0  0  0  0  0  0  0  0
  145.7206  138.9325  157.5651 C   0  0  0  0  0  0  0  0  0  0  0  0
  145.6189  138.5185  156.2570 N   0  0  0  0  0  0  0  0  0  0  0  0
  144.8054  137.3809  155.7213 C   0  0  2  0  0  0  0  0  0  0  0  0
  145.6231  136.6010  154.9074 O   0  0  0  0  0  0  0  0  0  0  0  0
  144.8508  136.0868  153.8296 C   0  0  2  0  0  0  0  0  0  0  0  0
  145.7535  135.6078  152.6786 C   0  0  0  0  0  0  0  0  0  0  0  0
  146.7881  134.7901  153.1823 O   0  0  0  0  0  0  0  0  0  0  0  0
  143.9053  137.2494  153.4934 C   0  0  2  0  0  0  0  0  0  0  0  0
  144.5276  138.1784  152.6220 O   0  0  0  0  0  0  0  0  0  0  0  0
  143.6013  137.8397  154.8703 C   0  0  2  0  0  0  0  0  0  0  0  0
  143.3533  139.2364  154.8533 O   0  0  0  0  0  0  0  0  0  0  0  0
  152.3906  142.6761  158.8123 C   0  0  0  0  0  0  0  0  0  0  0  0
  152.2306  144.1009  158.3941 C   0  0  0  0  0  0  0  0  0  0  0  0
  153.3299  142.4610  159.7754 O   0  0  0  0  0  0  0  0  0  0  0  0
  144.5042  136.8156  156.6044 H   0  0  0  0  0  0  0  0  0  0  0  0
  144.2473  135.2569  154.2033 H   0  0  0  0  0  0  0  0  0  0  0  0
  142.9989  136.8932  153.0029 H   0  0  0  0  0  0  0  0  0  0  0  0
  142.7196  137.3458  155.2804 H   0  0  0  0  0  0  0  0  0  0  0  0
  154.3642  139.5735  161.0766 H   0  0  0  0  0  0  0  0  0  0  0  0
  153.9861  140.9879  162.0621 H   0  0  0  0  0  0  0  0  0  0  0  0
  155.2954  141.0587  160.8797 H   0  0  0  0  0  0  0  0  0  0  0  0
  152.2066  139.4401  159.2527 H   0  0  0  0  0  0  0  0  0  0  0  0
  151.3327  142.8641  156.0802 H   0  0  0  0  0  0  0  0  0  0  0  0
  150.3723  141.6284  155.2801 H   0  0  0  0  0  0  0  0  0  0  0  0
  152.0516  141.3047  155.6998 H   0  0  0  0  0  0  0  0  0  0  0  0
  149.8970  139.7914  156.4275 H   0  0  0  0  0  0  0  0  0  0  0  0
  148.7953  141.1757  158.4268 H   0  0  0  0  0  0  0  0  0  0  0  0
  149.5138  142.7750  158.4473 H   0  0  0  0  0  0  0  0  0  0  0  0
  148.4786  143.2126  156.4360 H   0  0  0  0  0  0  0  0  0  0  0  0
  147.7528  140.4333  152.8113 H   0  0  0  0  0  0  0  0  0  0  0  0
  145.1917  138.4475  158.3726 H   0  0  0  0  0  0  0  0  0  0  0  0
  145.1775  135.0064  151.9747 H   0  0  0  0  0  0  0  0  0  0  0  0
  146.1716  136.4487  152.1242 H   0  0  0  0  0  0  0  0  0  0  0  0
  147.5699  134.9496  152.6758 H   0  0  0  0  0  0  0  0  0  0  0  0
  143.9649  138.9350  152.5434 H   0  0  0  0  0  0  0  0  0  0  0  0
  143.6216  139.5792  154.0145 H   0  0  0  0  0  0  0  0  0  0  0  0
  151.1947  144.4219  158.5046 H   0  0  0  0  0  0  0  0  0  0  0  0
  152.5173  144.2314  157.3506 H   0  0  0  0  0  0  0  0  0  0  0  0
  152.8515  144.7628  158.9984 H   0  0  0  0  0  0  0  0  0  0  0  0
  1  2  1  0  0  0  0
  1 35  1  0  0  0  0
  1 36  1  0  0  0  0
  1 37  1  0  0  0  0
  2 30  1  0  0  0  0
  2  3  2  0  0  0  0
  3  4  1  0  0  0  0
  3 38  1  0  0  0  0
  4  5  1  0  0  0  0
  4 28  2  0  0  0  0
  5  6  1  0  0  0  0
  5  7  1  0  0  0  0
  5  8  1  0  0  0  0
  6 39  1  0  0  0  0
  6 40  1  0  0  0  0
  6 41  1  0  0  0  0
  7 42  1  0  0  0  0
  8  9  1  0  0  0  0
  8 43  1  0  0  0  0
  8 44  1  0  0  0  0
  9 10  1  0  0  0  0
  9 45  1  0  0  0  0
 10 15  1  0  0  0  0
 10 11  2  0  0  0  0
 11 12  1  0  0  0  0
 12 13  2  0  0  0  0
 12 46  1  0  0  0  0
 13 14  1  0  0  0  0
 14 18  1  0  0  0  0
 14 15  2  0  0  0  0
 15 16  1  0  0  0  0
 16 17  2  0  0  0  0
 17 18  1  0  0  0  0
 17 47  1  0  0  0  0
 18 19  1  0  0  0  0
 19 31  1  0  0  0  0
 19 26  1  0  0  0  0
 19 20  1  0  0  0  0
 20 21  1  0  0  0  0
 21 32  1  0  0  0  0
 21 22  1  0  0  0  0
 21 24  1  0  0  0  0
 22 23  1  0  0  0  0
 22 48  1  0  0  0  0
 22 49  1  0  0  0  0
 23 50  1  0  0  0  0
 24 33  1  0  0  0  0
 24 25  1  0  0  0  0
 24 26  1  0  0  0  0
 25 51  1  0  0  0  0
 26 34  1  0  0  0  0
 26 27  1  0  0  0  0
 27 52  1  0  0  0  0
 28 29  1  0  0  0  0
 28 30  1  0  0  0  0
 29 53  1  0  0  0  0
 29 54  1  0  0  0  0
 29 55  1  0  0  0  0
M  END
> <s_m_source_file>
AV-unprocessed.smi

> <i_m_source_file_index>
287

> <i_lp_mmshare_version>
43012

> <i_f3d_flags>
0

> <s_epik_input>
W0NIM11jMVtjSF1jKGMobzEpW0NIM10pW0NAQF0oW0NIM10pKFtPSF0pW0NIMl1bTkhdYyhuW2NIXW4yKWMoYzIzKW5bY0hdbjNbQ0BASF00T1tDQEhdKFtDSDJdW09IXSlbQ0BASF0oW09IXSlbQ0BIXTRbT0hd

> <s_epik_cmdline>
J2VwaWtfcHl0aG9uJywgJy1waCcsICc3LjAnLCAnLXRuJywgJzgnLCAnLW1hJywgJzIwMCcsICctbWV0YWxfYmluZGluZycsICctaW1hZScsICc8aW5maWxlLm1hZT4nLCAnLW9tYWUnLCAnPG91dGZpbGUubWFlPic=

> <r_lp_tautomer_probability>
1

> <r_epik_Ionization_Penalty>
0.000992612

> <r_epik_Ionization_Penalty_Charging>
0

> <r_epik_Ionization_Penalty_Neutral>
0.000992612

> <r_epik_State_Penalty>
-0

> <r_epik_Charging_Adjusted_Penalty>
0

> <i_epik_Tot_Q>
0

> <i_epik_Tot_abs_Q>
0

> <r_epik_Metal_State_Penalty>
-0

> <b_epik_Metal_Only>
0

> <s_epik_Chemistry_Notes>
This compound contains an acetal/aminal-like group ( X-CH(R)-Y where X, Y are N, S, or O) that may be acid/base labile, releasing an aldehyde.

> <s_lp_Force_Field>
OPLS_2005

> <r_lp_Energy>
50.9422

> <b_lp_Chiralities_Consistent>
1

> <s_lp_Variant>
AV-unprocessed.smi:287-25

> <Gold.Version>
5.8.1

> <Gold.Id.Protein>
6NUR|6NUR_protein|mol2

> <Gold.PLP.Fitness>
49.3688

> <Gold.PLP.PLP>
-37.3271

> <Gold.PLP.part.hbond>
-4.9474

> <Gold.PLP.part.metal>
0.0000

> <Gold.PLP.part.buried>
-7.3235

> <Gold.PLP.part.nonpolar>
-25.1600

> <Gold.PLP.part.repulsive>
0.2748

> <Gold.PLP.ligand.clash>
0.3169

> <Gold.PLP.ligand.torsion>
1.4173

> <Gold.PLP.Chemscore.Hbond>
4.0000

> <Gold.PLP.Chemscore.CHOScore>
0.9993

> <Gold.PLP.Chemscore.Metal>
0.0000

> <Gold.Chemscore.Hbonds>
donor molecule, donor type, donor heavy atom, donor atom, acceptor molecule, acceptor atom, score
      L1  H     9    45       P1  8028  1.00
      L1  H    23    50       P1  7948  1.00
      L1  H    25    51       P1 10175  1.00
      L1  H    27    52       P1 10175  1.00
      L1  C    12    46       P1  7957  1.00

> <Gold.PLP.Chemscore.Internal.Correction>
0.1953

> <Gold.Rescore>
     Score         DG    S(hbond)    S(metal)    S(lipo)     H(rot)  DE(clash)    DE(int)     intcor
     12.57     -14.93       3.91        0.00      84.29       5.27       0.00       2.35       ----

> <Gold.Chemscore.Fitness>
12.5747

> <Gold.Chemscore.DG>
-14.9341

> <Gold.Chemscore.ZeroCoef>
-5.4800

> <Gold.Chemscore.Hbond>
3.9149

> <Gold.Chemscore.Metal>
0.0000

> <Gold.Chemscore.Lipo>
84.2928

> <Gold.Chemscore.Internal_Hbond>
0.0000

> <Gold.Chemscore.DEClash>
0.0048

> <Gold.Chemscore.DEInternal>
2.3546

> <Gold.Chemscore.Rot>
5.2672

> <Gold.Chemscore.Internal.Correction>
   9.000000E+99

> <Gold.Chemscore.Hbonds>
donor molecule, donor type, donor heavy atom, donor atom, acceptor molecule, acceptor atom, score
      L1  H     9    45       P1  8028  0.74
      L1  H    23    50       P1  7948  0.88
      L1  H    25    51       P1 10175  0.92
      L1  H    27    52       P1 10175  1.00

> <Gold.Chemscore.Hbond.Weighted>
-13.0758

> <Gold.Chemscore.Metal.Weighted>
-0.0000

> <Gold.Chemscore.Lipo.Weighted>
-9.8623

> <Gold.Chemscore.Internal_Hbond.Weighted>
0.0000

> <Gold.Chemscore.DEClash.Weighted>
0.0048

> <Gold.Chemscore.DEInternal.Weighted>
2.3546

> <Gold.Chemscore.Rot.Weighted>
13.4839

> <Gold.Chemscore.Internal.Correction.Weighted>
   9.000000E+99

> <Gold.Protein.RotatedTorsions>
[ 6907 6896 6895 6894 ] final -145.18 input  -60.11 | X-H torsion
[ 7974 7965 7964 7962 ] final   63.86 input  175.53 | X-H torsion
[ 8008 7997 7996 7995 ] final  -49.83 input   59.86 | X-H torsion
[ 10167 10162 10161 10158 ] final    3.15 input  -65.29 | X-H torsion
[ 10718 10713 10712 10709 ] final  -37.74 input   66.30 | X-H torsion
[ 10763 10752 10751 10750 ] final  -86.45 input  -60.55 | X-H torsion
[ 11005 11000 10999 10996 ] final  -69.20 input  -57.11 | X-H torsion

> <Gold.Protein.ActiveResidues>
 VAL166  LYS551  ARG553  GLY616  TRP617  ASP618  TYR619  PRO620  LYS621  CYS622 
 ASP623  PHE694  ASN695  SER759  ASP760  ASP761  ALA762  ILE779  LEU786  VAL792 
 PHE793  MET794  SER795  GLU796  ALA797  LYS798  CYS799  TRP800  GLU811  SER814 

> <Gold.Protein.RotatedAtoms>
  151.1242  133.5082  159.2600 H   0  0  0  0  0  0  0  0  0  0  0  0  # atno 6907 bound_to 6896
  151.1828  135.0368  159.8810 H   0  0  0  0  0  0  0  0  0  0  0  0  # atno 6908 bound_to 6896
  152.5457  134.1092  159.8404 H   0  0  0  0  0  0  0  0  0  0  0  0  # atno 6909 bound_to 6896
  145.8569  139.3290  143.0842 H   0  0  0  0  0  0  0  0  0  0  0  0  # atno 7974 bound_to 7965
  154.4051  140.1287  156.4567 H   0  0  0  0  0  0  0  0  0  0  0  0  # atno 8008 bound_to 7997
  155.7313  140.3491  155.5041 H   0  0  0  0  0  0  0  0  0  0  0  0  # atno 8009 bound_to 7997
  155.9125  140.1038  157.1259 H   0  0  0  0  0  0  0  0  0  0  0  0  # atno 8010 bound_to 7997
  140.6600  143.7328  150.7722 H   0  0  0  0  0  0  0  0  0  0  0  0  # atno 10167 bound_to 10162
  156.3118  130.4253  149.8043 H   0  0  0  0  0  0  0  0  0  0  0  0  # atno 10718 bound_to 10713
  154.6226  135.5449  153.7591 H   0  0  0  0  0  0  0  0  0  0  0  0  # atno 10763 bound_to 10752
  153.0245  135.6416  154.1419 H   0  0  0  0  0  0  0  0  0  0  0  0  # atno 10764 bound_to 10752
  154.1352  135.2911  155.3155 H   0  0  0  0  0  0  0  0  0  0  0  0  # atno 10765 bound_to 10752
  141.1549  133.6759  156.6563 H   0  0  0  0  0  0  0  0  0  0  0  0  # atno 11005 bound_to 11000
  145.9293  140.9060  143.0364 LP  0  0  0  0  0  0  0  0  0  0  0  0  # atno 17320 bound_to 7965
  144.6727  140.1396  143.7438 LP  0  0  0  0  0  0  0  0  0  0  0  0  # atno 17321 bound_to 7965
  140.0995  143.4801  152.2433 LP  0  0  0  0  0  0  0  0  0  0  0  0  # atno 17342 bound_to 10162
  139.5831  144.7519  151.3588 LP  0  0  0  0  0  0  0  0  0  0  0  0  # atno 17343 bound_to 10162
  156.5384  130.8289  151.3260 LP  0  0  0  0  0  0  0  0  0  0  0  0  # atno 17370 bound_to 10713
  157.7392  130.9828  150.2302 LP  0  0  0  0  0  0  0  0  0  0  0  0  # atno 17371 bound_to 10713
  140.3282  134.7951  157.4305 LP  0  0  0  0  0  0  0  0  0  0  0  0  # atno 17394 bound_to 11000
  140.1039  134.5435  155.8327 LP  0  0  0  0  0  0  0  0  0  0  0  0  # atno 17395 bound_to 11000

$$$$
