AV-unprocessed.smi:1564|AV-procd|sdf|6295|dock2
  -GOLD-   22720 6493D 1   1.00000     0.00000
 Structure written by MMmdl.
 43 44  0  0  0  0  0  0  0  0  2 V2000
  150.7704  141.9474  155.9024 C   0  0  0  0  0  0  0  0  0  0  0  0
  150.7515  140.8194  155.0345 O   0  0  0  0  0  0  0  0  0  0  0  0
  149.5303  140.3530  154.5929 C   0  0  0  0  0  0  0  0  0  0  0  0
  149.3980  138.9808  154.3027 C   0  0  0  0  0  0  0  0  0  0  0  0
  148.1553  138.5011  153.8485 C   0  0  0  0  0  0  0  0  0  0  0  0
  147.0846  139.4036  153.6879 C   0  0  0  0  0  0  0  0  0  0  0  0
  145.8405  138.8831  153.2387 N   0  0  0  0  0  0  0  0  0  0  0  0
  145.5012  137.6052  152.9975 C   0  0  0  0  0  0  0  0  0  0  0  0
  146.2372  136.6297  153.1411 O   0  0  0  0  0  0  0  0  0  0  0  0
  144.2291  137.5114  152.5868 N   0  0  0  0  0  0  0  0  0  0  0  0
  143.5549  136.2613  152.2524 C   0  0  2  0  0  0  0  0  0  0  0  0
  143.6330  135.1917  153.3422 C   0  0  0  0  0  0  0  0  0  0  0  0
  143.6169  133.8582  152.5766 C   0  0  0  0  0  0  0  0  0  0  0  0
  143.7143  134.1798  151.1294 N   0  3  2  0  0  0  0  0  0  0  0  0
  144.4704  133.1900  150.3111 C   0  0  0  0  0  0  0  0  0  0  0  0
  143.9991  131.7485  150.5817 C   0  0  0  0  0  0  0  0  0  0  0  0
  145.9851  133.2947  150.5710 C   0  0  0  0  0  0  0  0  0  0  0  0
  144.2032  135.5718  151.0571 C   0  0  0  0  0  0  0  0  0  0  0  0
  147.3143  140.7619  154.0185 C   0  0  0  0  0  0  0  0  0  0  0  0
  148.5032  141.2278  154.4571 N   0  0  0  0  0  0  0  0  0  0  0  0
  151.8030  142.1977  156.1453 H   0  0  0  0  0  0  0  0  0  0  0  0
  150.2513  141.7378  156.8388 H   0  0  0  0  0  0  0  0  0  0  0  0
  150.3208  142.8229  155.4315 H   0  0  0  0  0  0  0  0  0  0  0  0
  150.2342  138.3088  154.4259 H   0  0  0  0  0  0  0  0  0  0  0  0
  148.0309  137.4521  153.6220 H   0  0  0  0  0  0  0  0  0  0  0  0
  145.1018  139.5639  153.1396 H   0  0  0  0  0  0  0  0  0  0  0  0
  143.6920  138.3619  152.5000 H   0  0  0  0  0  0  0  0  0  0  0  0
  142.5075  136.4584  152.0141 H   0  0  0  0  0  0  0  0  0  0  0  0
  144.5666  135.2806  153.9003 H   0  0  0  0  0  0  0  0  0  0  0  0
  142.8127  135.2725  154.0565 H   0  0  0  0  0  0  0  0  0  0  0  0
  144.4545  133.2395  152.9029 H   0  0  0  0  0  0  0  0  0  0  0  0
  142.6985  133.3009  152.7642 H   0  0  0  0  0  0  0  0  0  0  0  0
  144.2885  133.4112  149.2581 H   0  0  0  0  0  0  0  0  0  0  0  0
  144.5906  131.0315  150.0118 H   0  0  0  0  0  0  0  0  0  0  0  0
  142.9592  131.5967  150.2918 H   0  0  0  0  0  0  0  0  0  0  0  0
  144.0955  131.4905  151.6369 H   0  0  0  0  0  0  0  0  0  0  0  0
  146.5333  132.5556  149.9860 H   0  0  0  0  0  0  0  0  0  0  0  0
  146.2200  133.1223  151.6218 H   0  0  0  0  0  0  0  0  0  0  0  0
  146.3825  134.2717  150.2964 H   0  0  0  0  0  0  0  0  0  0  0  0
  143.9292  136.0518  150.1169 H   0  0  0  0  0  0  0  0  0  0  0  0
  145.2914  135.5859  151.1472 H   0  0  0  0  0  0  0  0  0  0  0  0
  146.5378  141.5075  153.9562 H   0  0  0  0  0  0  0  0  0  0  0  0
  142.7669  134.1992  150.7796 H   0  0  0  0  0  0  0  0  0  0  0  0
  1  2  1  0  0  0  0
  1 21  1  0  0  0  0
  1 22  1  0  0  0  0
  1 23  1  0  0  0  0
  2  3  1  0  0  0  0
  3 20  1  0  0  0  0
  3  4  2  0  0  0  0
  4  5  1  0  0  0  0
  4 24  1  0  0  0  0
  5  6  2  0  0  0  0
  5 25  1  0  0  0  0
  6  7  1  0  0  0  0
  6 19  1  0  0  0  0
  7  8  1  0  0  0  0
  7 26  1  0  0  0  0
  8  9  2  0  0  0  0
  8 10  1  0  0  0  0
 10 11  1  0  0  0  0
 10 27  1  0  0  0  0
 11 18  1  0  0  0  0
 11 12  1  0  0  0  0
 11 28  1  0  0  0  0
 12 13  1  0  0  0  0
 12 29  1  0  0  0  0
 12 30  1  0  0  0  0
 13 14  1  0  0  0  0
 13 31  1  0  0  0  0
 13 32  1  0  0  0  0
 14 15  1  0  0  0  0
 14 18  1  0  0  0  0
 14 43  1  0  0  0  0
 15 16  1  0  0  0  0
 15 17  1  0  0  0  0
 15 33  1  0  0  0  0
 16 34  1  0  0  0  0
 16 35  1  0  0  0  0
 16 36  1  0  0  0  0
 17 37  1  0  0  0  0
 17 38  1  0  0  0  0
 17 39  1  0  0  0  0
 18 40  1  0  0  0  0
 18 41  1  0  0  0  0
 19 20  2  0  0  0  0
 19 42  1  0  0  0  0
M  CHG  1  14   1
M  END
> <s_m_source_file>
AV-unprocessed.smi

> <i_m_source_file_index>
1564

> <i_lp_mmshare_version>
43012

> <i_f3d_flags>
0

> <s_epik_input>
W0NIM11PYzFbY0hdW2NIXWMoW2NIXW4xKVtOSF1DKD1PKVtOSF1bQ0BASF0yW0NIMl1bQ0gyXU4oW0NIMl0yKVtDSF0oW0NIM10pW0NIM10=

> <s_epik_cmdline>
J2VwaWtfcHl0aG9uJywgJy1waCcsICc3LjAnLCAnLXRuJywgJzgnLCAnLW1hJywgJzIwMCcsICctbWV0YWxfYmluZGluZycsICctaW1hZScsICc8aW5maWxlLm1hZT4nLCAnLW9tYWUnLCAnPG91dGZpbGUubWFlPic=

> <r_lp_tautomer_probability>
1

> <r_epik_Ionization_Penalty>
0.000679474

> <r_epik_Ionization_Penalty_Charging>
0.000606352

> <r_epik_Ionization_Penalty_Neutral>
7.31222e-05

> <r_epik_State_Penalty>
0.000382168

> <r_epik_Charging_Adjusted_Penalty>
0.00098852

> <i_epik_Tot_Q>
1

> <i_epik_Tot_abs_Q>
1

> <r_epik_Metal_State_Penalty>
-0

> <b_epik_Metal_Only>
0

> <s_lp_Force_Field>
OPLS_2005

> <r_lp_Energy>
32.1587

> <b_lp_Chiralities_Consistent>
1

> <s_lp_Variant>
AV-unprocessed.smi:1564-3

> <Gold.Version>
5.8.1

> <Gold.Id.Protein>
6NUR|6NUR_protein|mol2

> <Gold.PLP.Fitness>
47.3309

> <Gold.PLP.PLP>
-34.1338

> <Gold.PLP.part.hbond>
-5.0000

> <Gold.PLP.part.metal>
0.0000

> <Gold.PLP.part.buried>
-4.4040

> <Gold.PLP.part.nonpolar>
-26.1607

> <Gold.PLP.part.repulsive>
0.7633

> <Gold.PLP.ligand.clash>
0.0000

> <Gold.PLP.ligand.torsion>
0.5226

> <Gold.PLP.Chemscore.Hbond>
4.7400

> <Gold.PLP.Chemscore.CHOScore>
0.0000

> <Gold.PLP.Chemscore.Metal>
0.0000

> <Gold.Chemscore.Hbonds>
donor molecule, donor type, donor heavy atom, donor atom, acceptor molecule, acceptor atom, score
      L1  H     7    26       P1 10175  1.00
      L1  H    10    27       P1 10175  0.89
      L1  H    14    43       P1 10186  1.40
      P1  H  7989  7998       L1     2  0.83

> <Gold.PLP.Chemscore.Internal.Correction>
0.0222

> <Gold.Rescore>
     Score         DG    S(hbond)    S(metal)    S(lipo)     H(rot)  DE(clash)    DE(int)     intcor
     16.30     -19.76       2.68        0.00      77.22       1.44       0.56       2.90       ----

> <Gold.Chemscore.Fitness>
16.3008

> <Gold.Chemscore.DG>
-19.7625

> <Gold.Chemscore.ZeroCoef>
-5.4800

> <Gold.Chemscore.Hbond>
2.6784

> <Gold.Chemscore.Metal>
0.0000

> <Gold.Chemscore.Lipo>
77.2168

> <Gold.Chemscore.Internal_Hbond>
0.0000

> <Gold.Chemscore.DEClash>
0.5638

> <Gold.Chemscore.DEInternal>
2.8978

> <Gold.Chemscore.Rot>
1.4445

> <Gold.Chemscore.Internal.Correction>
   9.000000E+99

> <Gold.Chemscore.Hbonds>
donor molecule, donor type, donor heavy atom, donor atom, acceptor molecule, acceptor atom, score
      L1  H     7    26       P1 10175  1.00
      L1  H    10    27       P1 10175  0.81
      L1  H    14    43       P1 10186  0.39
      P1  H  7989  7998       L1     2  0.20

> <Gold.Chemscore.Hbond.Weighted>
-8.9460

> <Gold.Chemscore.Metal.Weighted>
-0.0000

> <Gold.Chemscore.Lipo.Weighted>
-9.0344

> <Gold.Chemscore.Internal_Hbond.Weighted>
0.0000

> <Gold.Chemscore.DEClash.Weighted>
0.5638

> <Gold.Chemscore.DEInternal.Weighted>
2.8978

> <Gold.Chemscore.Rot.Weighted>
3.6979

> <Gold.Chemscore.Internal.Correction.Weighted>
   9.000000E+99

> <Gold.Protein.RotatedTorsions>
[ 6907 6896 6895 6894 ] final   44.98 input  -60.11 | X-H torsion
[ 7974 7965 7964 7962 ] final  -19.03 input  175.53 | X-H torsion
[ 8008 7997 7996 7995 ] final   -6.24 input   59.86 | X-H torsion
[ 10167 10162 10161 10158 ] final  126.50 input  -65.29 | X-H torsion
[ 10718 10713 10712 10709 ] final   13.37 input   66.30 | X-H torsion
[ 10763 10752 10751 10750 ] final -143.82 input  -60.55 | X-H torsion
[ 11005 11000 10999 10996 ] final -176.02 input  -57.11 | X-H torsion

> <Gold.Protein.ActiveResidues>
 VAL166  LYS551  ARG553  GLY616  TRP617  ASP618  TYR619  PRO620  LYS621  CYS622 
 ASP623  PHE694  ASN695  SER759  ASP760  ASP761  ALA762  ILE779  LEU786  VAL792 
 PHE793  MET794  SER795  GLU796  ALA797  LYS798  CYS799  TRP800  GLU811  SER814 

> <Gold.Protein.RotatedAtoms>
  152.2391  134.8246  160.0462 H   0  0  0  0  0  0  0  0  0  0  0  0  # atno 6907 bound_to 6896
  151.8968  133.3523  159.3825 H   0  0  0  0  0  0  0  0  0  0  0  0  # atno 6908 bound_to 6896
  150.7048  134.4795  159.5507 H   0  0  0  0  0  0  0  0  0  0  0  0  # atno 6909 bound_to 6896
  146.1862  140.4004  142.8475 H   0  0  0  0  0  0  0  0  0  0  0  0  # atno 7974 bound_to 7965
  154.5957  140.2438  155.7860 H   0  0  0  0  0  0  0  0  0  0  0  0  # atno 8008 bound_to 7997
  156.2277  140.2977  156.0063 H   0  0  0  0  0  0  0  0  0  0  0  0  # atno 8009 bound_to 7997
  155.2297  140.0403  157.2951 H   0  0  0  0  0  0  0  0  0  0  0  0  # atno 8010 bound_to 7997
  139.5628  144.6892  151.3996 H   0  0  0  0  0  0  0  0  0  0  0  0  # atno 10167 bound_to 10162
  157.0237  130.6165  149.5725 H   0  0  0  0  0  0  0  0  0  0  0  0  # atno 10718 bound_to 10713
  154.8454  135.3457  154.6248 H   0  0  0  0  0  0  0  0  0  0  0  0  # atno 10763 bound_to 10752
  153.6857  135.6977  153.5109 H   0  0  0  0  0  0  0  0  0  0  0  0  # atno 10764 bound_to 10752
  153.2633  135.4316  155.0872 H   0  0  0  0  0  0  0  0  0  0  0  0  # atno 10765 bound_to 10752
  140.4568  134.6292  157.4825 H   0  0  0  0  0  0  0  0  0  0  0  0  # atno 11005 bound_to 11000
  144.8402  140.6845  143.6234 LP  0  0  0  0  0  0  0  0  0  0  0  0  # atno 17320 bound_to 7965
  145.3930  139.1612  143.4218 LP  0  0  0  0  0  0  0  0  0  0  0  0  # atno 17321 bound_to 7965
  140.6909  143.7864  150.7254 LP  0  0  0  0  0  0  0  0  0  0  0  0  # atno 17342 bound_to 10162
  140.1346  143.4495  152.2233 LP  0  0  0  0  0  0  0  0  0  0  0  0  # atno 17343 bound_to 10162
  156.0093  130.5183  150.7937 LP  0  0  0  0  0  0  0  0  0  0  0  0  # atno 17370 bound_to 10713
  157.5230  131.0932  151.0053 LP  0  0  0  0  0  0  0  0  0  0  0  0  # atno 17371 bound_to 10713
  139.9971  134.6894  155.9591 LP  0  0  0  0  0  0  0  0  0  0  0  0  # atno 17394 bound_to 11000
  141.1639  133.6537  156.4414 LP  0  0  0  0  0  0  0  0  0  0  0  0  # atno 17395 bound_to 11000

$$$$
