AV-unprocessed.smi:1644|AV-procd|sdf|6587|dock4
  -GOLD-   22720 7283D 1   1.00000     0.00000
 Structure written by MMmdl.
 49 51  0  0  0  0  0  0  0  0  1 V2000
  144.6905  136.2908  155.1175 C   0  0  0  0  0  0  0  0  0  0  0  0
  144.7563  137.3550  156.2178 C   0  0  0  0  0  0  0  0  0  0  0  0
  144.8064  138.7871  155.6478 C   0  0  0  0  0  0  0  0  0  0  0  0
  146.0437  139.1239  154.7848 C   0  0  1  0  0  0  0  0  0  0  0  0
  146.0250  140.4728  154.2586 N   0  0  0  0  0  0  0  0  0  0  0  0
  147.1036  141.1792  154.6204 C   0  0  0  0  0  0  0  0  0  0  0  0
  147.3153  142.3503  154.3099 O   0  0  0  0  0  0  0  0  0  0  0  0
  147.8998  140.3919  155.3699 N   0  0  0  0  0  0  0  0  0  0  0  0
  149.1822  140.8150  155.9512 C   0  0  0  0  0  0  0  0  0  0  0  0
  150.4001  139.9720  155.4921 C   0  0  1  0  0  0  0  0  0  0  0  0
  150.3721  139.9097  154.0818 O   0  0  0  0  0  0  0  0  0  0  0  0
  151.7940  140.5005  155.9030 C   0  0  0  0  0  0  0  0  0  0  0  0
  152.0526  140.4668  157.3322 N   0  0  0  0  0  0  0  0  0  0  0  0
  152.2783  139.3699  158.0813 C   0  0  0  0  0  0  0  0  0  0  0  0
  152.5049  139.5527  159.3785 N   0  0  0  0  0  0  0  0  0  0  0  0
  152.3908  140.9269  159.4895 C   0  0  0  0  0  0  0  0  0  0  0  0
  152.5345  141.7674  160.6146 C   0  0  0  0  0  0  0  0  0  0  0  0
  152.3769  143.1665  160.4988 C   0  0  0  0  0  0  0  0  0  0  0  0
  152.5497  144.0340  161.7328 C   0  0  0  0  0  0  0  0  0  0  0  0
  152.0598  143.7433  159.2433 C   0  0  0  0  0  0  0  0  0  0  0  0
  151.8863  145.2443  159.0931 C   0  0  0  0  0  0  0  0  0  0  0  0
  151.9067  142.9174  158.1106 C   0  0  0  0  0  0  0  0  0  0  0  0
  152.0855  141.5279  158.2330 C   0  0  0  0  0  0  0  0  0  0  0  0
  147.3490  139.1840  155.5560 C   0  0  0  0  0  0  0  0  0  0  0  0
  147.7948  138.2520  156.2251 O   0  0  0  0  0  0  0  0  0  0  0  0
  144.6422  135.2905  155.5482 H   0  0  0  0  0  0  0  0  0  0  0  0
  145.5700  136.3341  154.4747 H   0  0  0  0  0  0  0  0  0  0  0  0
  143.8087  136.4260  154.4907 H   0  0  0  0  0  0  0  0  0  0  0  0
  143.8881  137.2429  156.8679 H   0  0  0  0  0  0  0  0  0  0  0  0
  145.6330  137.1653  156.8378 H   0  0  0  0  0  0  0  0  0  0  0  0
  143.9061  138.9703  155.0597 H   0  0  0  0  0  0  0  0  0  0  0  0
  144.7638  139.4946  156.4768 H   0  0  0  0  0  0  0  0  0  0  0  0
  146.1435  138.4143  153.9625 H   0  0  0  0  0  0  0  0  0  0  0  0
  145.2722  140.8302  153.6884 H   0  0  0  0  0  0  0  0  0  0  0  0
  149.3294  141.8544  155.6524 H   0  0  0  0  0  0  0  0  0  0  0  0
  149.1403  140.8331  157.0415 H   0  0  0  0  0  0  0  0  0  0  0  0
  150.2893  138.9435  155.8303 H   0  0  0  0  0  0  0  0  0  0  0  0
  150.0359  139.0645  153.8253 H   0  0  0  0  0  0  0  0  0  0  0  0
  152.5732  139.9158  155.4122 H   0  0  0  0  0  0  0  0  0  0  0  0
  151.9149  141.5282  155.5566 H   0  0  0  0  0  0  0  0  0  0  0  0
  152.2986  138.3814  157.6460 H   0  0  0  0  0  0  0  0  0  0  0  0
  152.7718  141.3262  161.5714 H   0  0  0  0  0  0  0  0  0  0  0  0
  151.6362  144.5920  161.9388 H   0  0  0  0  0  0  0  0  0  0  0  0
  153.3648  144.7436  161.5893 H   0  0  0  0  0  0  0  0  0  0  0  0
  152.7807  143.4336  162.6132 H   0  0  0  0  0  0  0  0  0  0  0  0
  151.6732  145.5185  158.0597 H   0  0  0  0  0  0  0  0  0  0  0  0
  152.7939  145.7664  159.3962 H   0  0  0  0  0  0  0  0  0  0  0  0
  151.0601  145.5965  159.7106 H   0  0  0  0  0  0  0  0  0  0  0  0
  151.6673  143.3493  157.1508 H   0  0  0  0  0  0  0  0  0  0  0  0
  1  2  1  0  0  0  0
  1 26  1  0  0  0  0
  1 27  1  0  0  0  0
  1 28  1  0  0  0  0
  2  3  1  0  0  0  0
  2 29  1  0  0  0  0
  2 30  1  0  0  0  0
  3  4  1  0  0  0  0
  3 31  1  0  0  0  0
  3 32  1  0  0  0  0
  4 24  1  0  0  0  0
  4  5  1  0  0  0  0
  4 33  1  0  0  0  0
  5  6  1  0  0  0  0
  5 34  1  0  0  0  0
  6  7  2  0  0  0  0
  6  8  1  0  0  0  0
  8  9  1  0  0  0  0
  8 24  1  0  0  0  0
  9 10  1  0  0  0  0
  9 35  1  0  0  0  0
  9 36  1  0  0  0  0
 10 11  1  0  0  0  0
 10 12  1  0  0  0  0
 10 37  1  0  0  0  0
 11 38  1  0  0  0  0
 12 13  1  0  0  0  0
 12 39  1  0  0  0  0
 12 40  1  0  0  0  0
 13 23  1  0  0  0  0
 13 14  1  0  0  0  0
 14 15  2  0  0  0  0
 14 41  1  0  0  0  0
 15 16  1  0  0  0  0
 16 23  2  0  0  0  0
 16 17  1  0  0  0  0
 17 18  2  0  0  0  0
 17 42  1  0  0  0  0
 18 19  1  0  0  0  0
 18 20  1  0  0  0  0
 19 43  1  0  0  0  0
 19 44  1  0  0  0  0
 19 45  1  0  0  0  0
 20 21  1  0  0  0  0
 20 22  2  0  0  0  0
 21 46  1  0  0  0  0
 21 47  1  0  0  0  0
 21 48  1  0  0  0  0
 22 23  1  0  0  0  0
 22 49  1  0  0  0  0
 24 25  2  0  0  0  0
M  END
> <s_m_source_file>
AV-unprocessed.smi

> <i_m_source_file_index>
1644

> <i_lp_mmshare_version>
43012

> <i_f3d_flags>
0

> <s_epik_input>
W0NIM11bQ0gyXVtDSDJdW0NAQEhdMVtOSF1DKD1PKU4oQzE9TylbQ0gyXVtDQEhdKFtPSF0pW0NIMl1uKFtjSF1uMiljKGMyMylbY0hdYyhbQ0gzXSljKFtjSF0zKVtDSDNd

> <s_epik_cmdline>
J2VwaWtfcHl0aG9uJywgJy1waCcsICc3LjAnLCAnLXRuJywgJzgnLCAnLW1hJywgJzIwMCcsICctbWV0YWxfYmluZGluZycsICctaW1hZScsICc8aW5maWxlLm1hZT4nLCAnLW9tYWUnLCAnPG91dGZpbGUubWFlPic=

> <r_lp_tautomer_probability>
1

> <r_epik_Ionization_Penalty>
0.10693

> <r_epik_Ionization_Penalty_Charging>
0

> <r_epik_Ionization_Penalty_Neutral>
0.10693

> <r_epik_State_Penalty>
0.096713

> <r_epik_Charging_Adjusted_Penalty>
0.096713

> <i_epik_Tot_Q>
0

> <i_epik_Tot_abs_Q>
0

> <r_epik_Metal_State_Penalty>
0.102757

> <b_epik_Metal_Only>
0

> <s_lp_Force_Field>
OPLS_2005

> <r_lp_Energy>
20.3603

> <b_lp_Chiralities_Consistent>
1

> <s_lp_Variant>
AV-unprocessed.smi:1644-4

> <Gold.Version>
5.8.1

> <Gold.Id.Protein>
6NUR|6NUR_protein|mol2

> <Gold.PLP.Fitness>
45.9799

> <Gold.PLP.PLP>
-40.3227

> <Gold.PLP.part.hbond>
-3.0000

> <Gold.PLP.part.metal>
0.0000

> <Gold.PLP.part.buried>
-6.8681

> <Gold.PLP.part.nonpolar>
-30.8622

> <Gold.PLP.part.repulsive>
0.2094

> <Gold.PLP.ligand.clash>
0.0000

> <Gold.PLP.ligand.torsion>
0.2348

> <Gold.PLP.Chemscore.Hbond>
2.0000

> <Gold.PLP.Chemscore.CHOScore>
0.0000

> <Gold.PLP.Chemscore.Metal>
0.0000

> <Gold.Chemscore.Hbonds>
donor molecule, donor type, donor heavy atom, donor atom, acceptor molecule, acceptor atom, score
      L1  H     5    34       P1 10175  1.00
      P1  H  7989  7998       L1    11  1.00

> <Gold.PLP.Chemscore.Internal.Correction>
0.1269

> <Gold.Rescore>
     Score         DG    S(hbond)    S(metal)    S(lipo)     H(rot)  DE(clash)    DE(int)     intcor
     16.35     -16.50       1.77        0.00     103.16       2.72       0.00       0.15       ----

> <Gold.Chemscore.Fitness>
16.3482

> <Gold.Chemscore.DG>
-16.5031

> <Gold.Chemscore.ZeroCoef>
-5.4800

> <Gold.Chemscore.Hbond>
1.7725

> <Gold.Chemscore.Metal>
0.0000

> <Gold.Chemscore.Lipo>
103.1567

> <Gold.Chemscore.Internal_Hbond>
0.0000

> <Gold.Chemscore.DEClash>
0.0024

> <Gold.Chemscore.DEInternal>
0.1525

> <Gold.Chemscore.Rot>
2.7212

> <Gold.Chemscore.Internal.Correction>
   9.000000E+99

> <Gold.Chemscore.Hbonds>
donor molecule, donor type, donor heavy atom, donor atom, acceptor molecule, acceptor atom, score
      L1  H     5    34       P1 10175  0.79
      P1  H  7989  7998       L1    11  0.69

> <Gold.Chemscore.Hbond.Weighted>
-5.9200

> <Gold.Chemscore.Metal.Weighted>
-0.0000

> <Gold.Chemscore.Lipo.Weighted>
-12.0693

> <Gold.Chemscore.Internal_Hbond.Weighted>
0.0000

> <Gold.Chemscore.DEClash.Weighted>
0.0024

> <Gold.Chemscore.DEInternal.Weighted>
0.1525

> <Gold.Chemscore.Rot.Weighted>
6.9663

> <Gold.Chemscore.Internal.Correction.Weighted>
   9.000000E+99

> <Gold.Protein.RotatedTorsions>
[ 6907 6896 6895 6894 ] final  -26.12 input  -60.11 | X-H torsion
[ 7974 7965 7964 7962 ] final   11.80 input  175.53 | X-H torsion
[ 8008 7997 7996 7995 ] final -139.88 input   59.86 | X-H torsion
[ 10167 10162 10161 10158 ] final -133.52 input  -65.29 | X-H torsion
[ 10718 10713 10712 10709 ] final   80.36 input   66.30 | X-H torsion
[ 10763 10752 10751 10750 ] final -131.43 input  -60.55 | X-H torsion
[ 11005 11000 10999 10996 ] final   69.03 input  -57.11 | X-H torsion

> <Gold.Protein.ActiveResidues>
 VAL166  LYS551  ARG553  GLY616  TRP617  ASP618  TYR619  PRO620  LYS621  CYS622 
 ASP623  PHE694  ASN695  SER759  ASP760  ASP761  ALA762  ILE779  LEU786  VAL792 
 PHE793  MET794  SER795  GLU796  ALA797  LYS798  CYS799  TRP800  GLU811  SER814 

> <Gold.Protein.RotatedAtoms>
  151.1655  135.0293  159.8728 H   0  0  0  0  0  0  0  0  0  0  0  0  # atno 6907 bound_to 6896
  152.5450  134.1230  159.8417 H   0  0  0  0  0  0  0  0  0  0  0  0  # atno 6908 bound_to 6896
  151.1330  133.4977  159.2631 H   0  0  0  0  0  0  0  0  0  0  0  0  # atno 6909 bound_to 6896
  146.2364  139.9431  142.8480 H   0  0  0  0  0  0  0  0  0  0  0  0  # atno 7974 bound_to 7965
  155.4521  140.0539  157.3000 H   0  0  0  0  0  0  0  0  0  0  0  0  # atno 8008 bound_to 7997
  154.4773  140.2066  155.9804 H   0  0  0  0  0  0  0  0  0  0  0  0  # atno 8009 bound_to 7997
  156.1151  140.3197  155.8132 H   0  0  0  0  0  0  0  0  0  0  0  0  # atno 8010 bound_to 7997
  139.8974  143.6649  152.2601 H   0  0  0  0  0  0  0  0  0  0  0  0  # atno 10167 bound_to 10162
  157.6803  130.9956  150.2067 H   0  0  0  0  0  0  0  0  0  0  0  0  # atno 10718 bound_to 10713
  154.8751  135.3830  154.4245 H   0  0  0  0  0  0  0  0  0  0  0  0  # atno 10763 bound_to 10752
  153.4945  135.7030  153.5871 H   0  0  0  0  0  0  0  0  0  0  0  0  # atno 10764 bound_to 10752
  153.4230  135.3897  155.2090 H   0  0  0  0  0  0  0  0  0  0  0  0  # atno 10765 bound_to 10752
  139.9677  134.6953  156.0511 H   0  0  0  0  0  0  0  0  0  0  0  0  # atno 11005 bound_to 11000
  145.1933  140.9822  143.4198 LP  0  0  0  0  0  0  0  0  0  0  0  0  # atno 17320 bound_to 7965
  144.9837  139.3757  143.6249 LP  0  0  0  0  0  0  0  0  0  0  0  0  # atno 17321 bound_to 7965
  139.7055  144.7628  151.1200 LP  0  0  0  0  0  0  0  0  0  0  0  0  # atno 17342 bound_to 10162
  140.7714  143.5400  150.9324 LP  0  0  0  0  0  0  0  0  0  0  0  0  # atno 17343 bound_to 10162
  156.2746  130.3726  149.7996 LP  0  0  0  0  0  0  0  0  0  0  0  0  # atno 17370 bound_to 10713
  156.5703  130.8422  151.3354 LP  0  0  0  0  0  0  0  0  0  0  0  0  # atno 17371 bound_to 10713
  141.1357  133.6576  156.3586 LP  0  0  0  0  0  0  0  0  0  0  0  0  # atno 17394 bound_to 11000
  140.5361  134.6166  157.5365 LP  0  0  0  0  0  0  0  0  0  0  0  0  # atno 17395 bound_to 11000

$$$$
