AV-unprocessed.smi:1574|AV-procd|sdf|6336|dock9
  -GOLD-   22720 6553D 1   1.00000     0.00000
 Structure written by MMmdl.
 40 41  0  0  0  0  0  0  0  0  1 V2000
  151.7417  144.7112  158.2052 C   0  0  0  0  0  0  0  0  0  0  0  0
  152.5377  144.0871  159.3615 C   0  0  1  0  0  0  0  0  0  0  0  0
  151.7905  144.2246  160.7031 C   0  0  0  0  0  0  0  0  0  0  0  0
  152.6087  143.6448  161.8676 C   0  0  0  0  0  0  0  0  0  0  0  0
  152.9986  142.1828  161.6034 C   0  0  0  0  0  0  0  0  0  0  0  0
  153.7442  142.0371  160.2659 C   0  0  0  0  0  0  0  0  0  0  0  0
  152.9336  142.6156  159.0917 C   0  0  1  0  0  0  0  0  0  0  0  0
  151.7659  141.8179  158.9434 O   0  0  0  0  0  0  0  0  0  0  0  0
  151.9160  140.6952  158.0893 C   0  0  0  0  0  0  0  0  0  0  0  0
  150.5591  140.3639  157.4526 C   0  0  0  0  0  0  0  0  0  0  0  0
  150.6894  139.3425  156.4187 N   0  0  0  0  0  0  0  0  0  0  0  0
  151.5559  139.3823  155.3942 C   0  0  0  0  0  0  0  0  0  0  0  0
  152.3397  140.3109  155.1993 O   0  0  0  0  0  0  0  0  0  0  0  0
  151.5358  138.1911  154.4376 C   0  0  0  0  0  0  0  0  0  0  0  0
  151.1193  136.9856  155.1274 N   0  0  0  0  0  0  0  0  0  0  0  0
  149.9949  136.2717  155.0435 C   0  0  0  0  0  0  0  0  0  0  0  0
  150.0119  135.2349  155.8674 N   0  0  0  0  0  0  0  0  0  0  0  0
  151.2453  135.3460  156.4876 N   0  0  0  0  0  0  0  0  0  0  0  0
  151.9069  136.3832  156.0528 N   0  0  0  0  0  0  0  0  0  0  0  0
  150.7722  144.2282  158.0812 H   0  0  0  0  0  0  0  0  0  0  0  0
  152.2832  144.6246  157.2630 H   0  0  0  0  0  0  0  0  0  0  0  0
  151.5602  145.7712  158.3842 H   0  0  0  0  0  0  0  0  0  0  0  0
  153.4640  144.6572  159.4462 H   0  0  0  0  0  0  0  0  0  0  0  0
  151.5710  145.2742  160.9012 H   0  0  0  0  0  0  0  0  0  0  0  0
  150.8273  143.7164  160.6456 H   0  0  0  0  0  0  0  0  0  0  0  0
  153.5095  144.2419  162.0139 H   0  0  0  0  0  0  0  0  0  0  0  0
  152.0370  143.7146  162.7935 H   0  0  0  0  0  0  0  0  0  0  0  0
  153.6212  141.8114  162.4178 H   0  0  0  0  0  0  0  0  0  0  0  0
  152.1016  141.5619  161.5945 H   0  0  0  0  0  0  0  0  0  0  0  0
  154.7036  142.5519  160.3307 H   0  0  0  0  0  0  0  0  0  0  0  0
  153.9725  140.9873  160.0795 H   0  0  0  0  0  0  0  0  0  0  0  0
  153.5551  142.5654  158.1952 H   0  0  0  0  0  0  0  0  0  0  0  0
  152.6580  140.8870  157.3129 H   0  0  0  0  0  0  0  0  0  0  0  0
  152.2702  139.8463  158.6757 H   0  0  0  0  0  0  0  0  0  0  0  0
  149.8877  139.9729  158.2172 H   0  0  0  0  0  0  0  0  0  0  0  0
  150.0862  141.2646  157.0575 H   0  0  0  0  0  0  0  0  0  0  0  0
  150.0803  138.5407  156.4925 H   0  0  0  0  0  0  0  0  0  0  0  0
  150.8407  138.3847  153.6195 H   0  0  0  0  0  0  0  0  0  0  0  0
  152.5211  138.0374  153.9943 H   0  0  0  0  0  0  0  0  0  0  0  0
  149.1711  136.5123  154.3879 H   0  0  0  0  0  0  0  0  0  0  0  0
  1  2  1  0  0  0  0
  1 20  1  0  0  0  0
  1 21  1  0  0  0  0
  1 22  1  0  0  0  0
  2  7  1  0  0  0  0
  2  3  1  0  0  0  0
  2 23  1  0  0  0  0
  3  4  1  0  0  0  0
  3 24  1  0  0  0  0
  3 25  1  0  0  0  0
  4  5  1  0  0  0  0
  4 26  1  0  0  0  0
  4 27  1  0  0  0  0
  5  6  1  0  0  0  0
  5 28  1  0  0  0  0
  5 29  1  0  0  0  0
  6  7  1  0  0  0  0
  6 30  1  0  0  0  0
  6 31  1  0  0  0  0
  7  8  1  0  0  0  0
  7 32  1  0  0  0  0
  8  9  1  0  0  0  0
  9 10  1  0  0  0  0
  9 33  1  0  0  0  0
  9 34  1  0  0  0  0
 10 11  1  0  0  0  0
 10 35  1  0  0  0  0
 10 36  1  0  0  0  0
 11 12  1  0  0  0  0
 11 37  1  0  0  0  0
 12 13  2  0  0  0  0
 12 14  1  0  0  0  0
 14 15  1  0  0  0  0
 14 38  1  0  0  0  0
 14 39  1  0  0  0  0
 15 19  1  0  0  0  0
 15 16  1  0  0  0  0
 16 17  2  0  0  0  0
 16 40  1  0  0  0  0
 17 18  1  0  0  0  0
 18 19  2  0  0  0  0
M  END
> <s_m_source_file>
AV-unprocessed.smi

> <i_m_source_file_index>
1574

> <i_lp_mmshare_version>
43012

> <i_f3d_flags>
0

> <s_epik_input>
W0NIM11bQ0BASF0xW0NIMl1bQ0gyXVtDSDJdW0NIMl1bQ0BIXTFPW0NIMl1bQ0gyXVtOSF1DKD1PKVtDSDJdbjJbY0hdbm5uMg==

> <s_epik_cmdline>
J2VwaWtfcHl0aG9uJywgJy1waCcsICc3LjAnLCAnLXRuJywgJzgnLCAnLW1hJywgJzIwMCcsICctbWV0YWxfYmluZGluZycsICctaW1hZScsICc8aW5maWxlLm1hZT4nLCAnLW9tYWUnLCAnPG91dGZpbGUubWFlPic=

> <r_lp_tautomer_probability>
1

> <r_epik_Ionization_Penalty>
1.44269e-06

> <r_epik_Ionization_Penalty_Charging>
0

> <r_epik_Ionization_Penalty_Neutral>
1.44269e-06

> <r_epik_State_Penalty>
-0

> <r_epik_Charging_Adjusted_Penalty>
0

> <i_epik_Tot_Q>
0

> <i_epik_Tot_abs_Q>
0

> <r_epik_Metal_State_Penalty>
-0

> <b_epik_Metal_Only>
0

> <s_lp_Force_Field>
OPLS_2005

> <r_lp_Energy>
13.6049

> <b_lp_Chiralities_Consistent>
1

> <s_lp_Variant>
AV-unprocessed.smi:1574-2

> <Gold.Version>
5.8.1

> <Gold.Id.Protein>
6NUR|6NUR_protein|mol2

> <Gold.PLP.Fitness>
52.2468

> <Gold.PLP.PLP>
-44.0883

> <Gold.PLP.part.hbond>
-3.0000

> <Gold.PLP.part.metal>
0.0000

> <Gold.PLP.part.buried>
-3.5107

> <Gold.PLP.part.nonpolar>
-36.7180

> <Gold.PLP.part.repulsive>
0.1154

> <Gold.PLP.ligand.clash>
0.0000

> <Gold.PLP.ligand.torsion>
1.0543

> <Gold.PLP.Chemscore.Hbond>
2.4031

> <Gold.PLP.Chemscore.CHOScore>
1.0000

> <Gold.PLP.Chemscore.Metal>
0.0000

> <Gold.Chemscore.Hbonds>
donor molecule, donor type, donor heavy atom, donor atom, acceptor molecule, acceptor atom, score
      P1  H  7989  7998       L1    13  0.55
      P1  H  7997  8010       L1    13  0.55
      P1  H 10752 10763       L1    19  0.85
      L1  C    16    40       P1  7948  0.97

> <Gold.PLP.Chemscore.Internal.Correction>
0.0577

> <Gold.Rescore>
     Score         DG    S(hbond)    S(metal)    S(lipo)     H(rot)  DE(clash)    DE(int)     intcor
     13.58     -16.41       1.86        0.00     103.92       2.90       0.33       2.50       ----

> <Gold.Chemscore.Fitness>
13.5807

> <Gold.Chemscore.DG>
-16.4130

> <Gold.Chemscore.ZeroCoef>
-5.4800

> <Gold.Chemscore.Hbond>
1.8596

> <Gold.Chemscore.Metal>
0.0000

> <Gold.Chemscore.Lipo>
103.9185

> <Gold.Chemscore.Internal_Hbond>
0.0000

> <Gold.Chemscore.DEClash>
0.3275

> <Gold.Chemscore.DEInternal>
2.5049

> <Gold.Chemscore.Rot>
2.9050

> <Gold.Chemscore.Internal.Correction>
   9.000000E+99

> <Gold.Chemscore.Hbonds>
donor molecule, donor type, donor heavy atom, donor atom, acceptor molecule, acceptor atom, score
      P1  H  7989  7998       L1    13  0.12
      P1  H  7997  8010       L1    13  0.52
      P1  H 10752 10763       L1    19  0.09

> <Gold.Chemscore.Hbond.Weighted>
-6.2112

> <Gold.Chemscore.Metal.Weighted>
-0.0000

> <Gold.Chemscore.Lipo.Weighted>
-12.1585

> <Gold.Chemscore.Internal_Hbond.Weighted>
0.0000

> <Gold.Chemscore.DEClash.Weighted>
0.3275

> <Gold.Chemscore.DEInternal.Weighted>
2.5049

> <Gold.Chemscore.Rot.Weighted>
7.4367

> <Gold.Chemscore.Internal.Correction.Weighted>
   9.000000E+99

> <Gold.Protein.RotatedTorsions>
[ 6907 6896 6895 6894 ] final  176.46 input  -60.11 | X-H torsion
[ 7974 7965 7964 7962 ] final  -89.05 input  175.53 | X-H torsion
[ 8008 7997 7996 7995 ] final   98.37 input   59.86 | X-H torsion
[ 10167 10162 10161 10158 ] final   42.74 input  -65.29 | X-H torsion
[ 10718 10713 10712 10709 ] final   54.93 input   66.30 | X-H torsion
[ 10763 10752 10751 10750 ] final   97.13 input  -60.55 | X-H torsion
[ 11005 11000 10999 10996 ] final -102.32 input  -57.11 | X-H torsion

> <Gold.Protein.ActiveResidues>
 VAL166  LYS551  ARG553  GLY616  TRP617  ASP618  TYR619  PRO620  LYS621  CYS622 
 ASP623  PHE694  ASN695  SER759  ASP760  ASP761  ALA762  ILE779  LEU786  VAL792 
 PHE793  MET794  SER795  GLU796  ALA797  LYS798  CYS799  TRP800  GLU811  SER814 

> <Gold.Protein.RotatedAtoms>
  151.7198  133.3314  159.3312 H   0  0  0  0  0  0  0  0  0  0  0  0  # atno 6907 bound_to 6896
  150.7657  134.6458  159.6271 H   0  0  0  0  0  0  0  0  0  0  0  0  # atno 6908 bound_to 6896
  152.3659  134.6807  160.0244 H   0  0  0  0  0  0  0  0  0  0  0  0  # atno 6909 bound_to 6896
  145.4450  140.9560  143.2054 H   0  0  0  0  0  0  0  0  0  0  0  0  # atno 7974 bound_to 7965
  156.0997  140.3245  155.7926 H   0  0  0  0  0  0  0  0  0  0  0  0  # atno 8008 bound_to 7997
  155.4857  140.0557  157.2978 H   0  0  0  0  0  0  0  0  0  0  0  0  # atno 8009 bound_to 7997
  154.4689  140.2002  156.0061 H   0  0  0  0  0  0  0  0  0  0  0  0  # atno 8010 bound_to 7997
  140.3514  144.2345  150.6145 H   0  0  0  0  0  0  0  0  0  0  0  0  # atno 10167 bound_to 10162
  157.5300  130.8624  149.8675 H   0  0  0  0  0  0  0  0  0  0  0  0  # atno 10718 bound_to 10713
  153.2733  135.4194  155.1008 H   0  0  0  0  0  0  0  0  0  0  0  0  # atno 10763 bound_to 10752
  154.8463  135.3477  154.6214 H   0  0  0  0  0  0  0  0  0  0  0  0  # atno 10764 bound_to 10752
  153.6634  135.7047  153.5227 H   0  0  0  0  0  0  0  0  0  0  0  0  # atno 10765 bound_to 10752
  141.1194  133.8549  157.1345 H   0  0  0  0  0  0  0  0  0  0  0  0  # atno 11005 bound_to 11000
  144.8097  139.5985  143.7035 LP  0  0  0  0  0  0  0  0  0  0  0  0  # atno 17320 bound_to 7965
  146.2535  139.6252  142.9410 LP  0  0  0  0  0  0  0  0  0  0  0  0  # atno 17321 bound_to 7965
  140.5215  143.2264  151.8381 LP  0  0  0  0  0  0  0  0  0  0  0  0  # atno 17342 bound_to 10162
  139.4826  144.4831  151.9282 LP  0  0  0  0  0  0  0  0  0  0  0  0  # atno 17343 bound_to 10162
  156.0415  130.3738  150.1422 LP  0  0  0  0  0  0  0  0  0  0  0  0  # atno 17370 bound_to 10713
  156.9607  130.9804  151.3479 LP  0  0  0  0  0  0  0  0  0  0  0  0  # atno 17371 bound_to 10713
  140.0140  134.9976  157.0454 LP  0  0  0  0  0  0  0  0  0  0  0  0  # atno 17394 bound_to 11000
  140.4552  134.1541  155.7185 LP  0  0  0  0  0  0  0  0  0  0  0  0  # atno 17395 bound_to 11000

$$$$
