AV-unprocessed.smi:427|AV-procd|sdf|2543|dock4
  -GOLD-   2262022503D 1   1.00000     0.00000
 Structure written by MMmdl.
 51 52  0  0  0  0  0  0  0  0  1 V2000
  154.5913  140.5104  161.3358 C   0  0  0  0  0  0  0  0  0  0  0  0
  153.7175  141.7470  161.2332 C   0  0  0  0  0  0  0  0  0  0  0  0
  153.0149  142.0072  160.0381 C   0  0  0  0  0  0  0  0  0  0  0  0
  152.1928  143.1527  159.9080 C   0  0  0  0  0  0  0  0  0  0  0  0
  151.4103  143.4667  158.6181 C   0  0  0  0  0  0  0  0  0  0  0  0
  151.4934  142.2633  157.6561 C   0  0  0  0  0  0  0  0  0  0  0  0
  151.9530  144.7044  157.8679 C   0  0  0  0  0  0  0  0  0  0  0  0
  149.9311  143.7406  158.9620 C   0  0  0  0  0  0  0  0  0  0  0  0
  152.0970  144.0296  161.0125 C   0  0  0  0  0  0  0  0  0  0  0  0
  152.7951  143.7754  162.2073 C   0  0  0  0  0  0  0  0  0  0  0  0
  153.6149  142.6282  162.3315 C   0  0  0  0  0  0  0  0  0  0  0  0
  154.3275  142.3123  163.4691 O   0  0  0  0  0  0  0  0  0  0  0  0
  154.2860  143.2098  164.5715 C   0  0  0  0  0  0  0  0  0  0  0  0
  155.3972  142.8517  165.5722 C   0  0  1  0  0  0  0  0  0  0  0  0
  156.5991  142.7018  164.8438 O   0  0  0  0  0  0  0  0  0  0  0  0
  155.5673  143.9108  166.6840 C   0  0  0  0  0  0  0  0  0  0  0  0
  156.1295  143.3716  167.9109 N   0  0  0  0  0  0  0  0  0  0  0  0
  157.3837  143.8705  168.3426 C   0  0  0  0  0  0  0  0  0  0  0  0
  157.9983  144.7347  167.7167 O   0  0  0  0  0  0  0  0  0  0  0  0
  157.8895  143.2698  169.5722 C   0  0  0  0  0  0  0  0  0  0  0  0
  157.1918  142.3067  170.2128 C   0  0  0  0  0  0  0  0  0  0  0  0
  155.9786  141.8310  169.7553 N   0  0  0  0  0  0  0  0  0  0  0  0
  155.2480  140.8021  170.4375 C   0  0  0  0  0  0  0  0  0  0  0  0
  155.4076  142.3500  168.5729 C   0  0  0  0  0  0  0  0  0  0  0  0
  154.3343  141.9217  168.1387 O   0  0  0  0  0  0  0  0  0  0  0  0
  154.5613  139.9194  160.4201 H   0  0  0  0  0  0  0  0  0  0  0  0
  154.2569  139.8775  162.1581 H   0  0  0  0  0  0  0  0  0  0  0  0
  155.6274  140.7946  161.5216 H   0  0  0  0  0  0  0  0  0  0  0  0
  153.1246  141.3052  159.2267 H   0  0  0  0  0  0  0  0  0  0  0  0
  150.9639  142.4639  156.7241 H   0  0  0  0  0  0  0  0  0  0  0  0
  151.0534  141.3627  158.0846 H   0  0  0  0  0  0  0  0  0  0  0  0
  152.5284  142.0329  157.4011 H   0  0  0  0  0  0  0  0  0  0  0  0
  152.9911  144.5682  157.5621 H   0  0  0  0  0  0  0  0  0  0  0  0
  151.8948  145.6054  158.4798 H   0  0  0  0  0  0  0  0  0  0  0  0
  151.3790  144.8996  156.9613 H   0  0  0  0  0  0  0  0  0  0  0  0
  149.3554  143.9861  158.0687 H   0  0  0  0  0  0  0  0  0  0  0  0
  149.8356  144.5789  159.6531 H   0  0  0  0  0  0  0  0  0  0  0  0
  149.4494  142.8785  159.4234 H   0  0  0  0  0  0  0  0  0  0  0  0
  151.4811  144.9144  160.9543 H   0  0  0  0  0  0  0  0  0  0  0  0
  152.6828  144.4801  163.0168 H   0  0  0  0  0  0  0  0  0  0  0  0
  154.4587  144.2241  164.2084 H   0  0  0  0  0  0  0  0  0  0  0  0
  153.3101  143.1932  165.0601 H   0  0  0  0  0  0  0  0  0  0  0  0
  155.1563  141.8808  166.0072 H   0  0  0  0  0  0  0  0  0  0  0  0
  157.3224  142.7128  165.4519 H   0  0  0  0  0  0  0  0  0  0  0  0
  156.1694  144.7624  166.3626 H   0  0  0  0  0  0  0  0  0  0  0  0
  154.6064  144.3516  166.9556 H   0  0  0  0  0  0  0  0  0  0  0  0
  158.8362  143.6003  169.9736 H   0  0  0  0  0  0  0  0  0  0  0  0
  157.6066  141.8912  171.1196 H   0  0  0  0  0  0  0  0  0  0  0  0
  154.2836  141.2220  170.7287 H   0  0  0  0  0  0  0  0  0  0  0  0
  155.8216  140.5084  171.3171 H   0  0  0  0  0  0  0  0  0  0  0  0
  155.1414  139.9618  169.7496 H   0  0  0  0  0  0  0  0  0  0  0  0
  1  2  1  0  0  0  0
  1 26  1  0  0  0  0
  1 27  1  0  0  0  0
  1 28  1  0  0  0  0
  2 11  1  0  0  0  0
  2  3  2  0  0  0  0
  3  4  1  0  0  0  0
  3 29  1  0  0  0  0
  4  5  1  0  0  0  0
  4  9  2  0  0  0  0
  5  6  1  0  0  0  0
  5  7  1  0  0  0  0
  5  8  1  0  0  0  0
  6 30  1  0  0  0  0
  6 31  1  0  0  0  0
  6 32  1  0  0  0  0
  7 33  1  0  0  0  0
  7 34  1  0  0  0  0
  7 35  1  0  0  0  0
  8 36  1  0  0  0  0
  8 37  1  0  0  0  0
  8 38  1  0  0  0  0
  9 10  1  0  0  0  0
  9 39  1  0  0  0  0
 10 11  2  0  0  0  0
 10 40  1  0  0  0  0
 11 12  1  0  0  0  0
 12 13  1  0  0  0  0
 13 14  1  0  0  0  0
 13 41  1  0  0  0  0
 13 42  1  0  0  0  0
 14 15  1  0  0  0  0
 14 16  1  0  0  0  0
 14 43  1  0  0  0  0
 15 44  1  0  0  0  0
 16 17  1  0  0  0  0
 16 45  1  0  0  0  0
 16 46  1  0  0  0  0
 17 24  1  0  0  0  0
 17 18  1  0  0  0  0
 18 19  2  0  0  0  0
 18 20  1  0  0  0  0
 20 21  2  0  0  0  0
 20 47  1  0  0  0  0
 21 22  1  0  0  0  0
 21 48  1  0  0  0  0
 22 23  1  0  0  0  0
 22 24  1  0  0  0  0
 23 49  1  0  0  0  0
 23 50  1  0  0  0  0
 23 51  1  0  0  0  0
 24 25  2  0  0  0  0
M  END
> <s_m_source_file>
AV-unprocessed.smi

> <i_m_source_file_index>
427

> <i_lp_mmshare_version>
43012

> <i_f3d_flags>
0

> <s_epik_input>
W0NIM11jMVtjSF1jKEMoW0NIM10pKFtDSDNdKVtDSDNdKVtjSF1bY0hdYzFPW0NIMl1bQ0BIXShbT0hdKVtDSDJdbjJjKD1PKVtjSF1bY0hdbihbQ0gzXSljMj1P

> <s_epik_cmdline>
J2VwaWtfcHl0aG9uJywgJy1waCcsICc3LjAnLCAnLXRuJywgJzgnLCAnLW1hJywgJzIwMCcsICctbWV0YWxfYmluZGluZycsICctaW1hZScsICc8aW5maWxlLm1hZT4nLCAnLW9tYWUnLCAnPG91dGZpbGUubWFlPic=

> <r_lp_tautomer_probability>
1

> <r_epik_Ionization_Penalty>
2.02112e-07

> <r_epik_Ionization_Penalty_Charging>
8.49383e-08

> <r_epik_Ionization_Penalty_Neutral>
1.17174e-07

> <r_epik_State_Penalty>
-0

> <r_epik_Charging_Adjusted_Penalty>
8.49383e-08

> <i_epik_Tot_Q>
0

> <i_epik_Tot_abs_Q>
0

> <r_epik_Metal_State_Penalty>
-0

> <b_epik_Metal_Only>
0

> <s_lp_Force_Field>
OPLS_2005

> <r_lp_Energy>
28.8364

> <b_lp_Chiralities_Consistent>
1

> <s_lp_Variant>
AV-unprocessed.smi:427-2

> <Gold.Version>
5.8.1

> <Gold.Id.Protein>
6NUR|6NUR_protein|mol2

> <Gold.PLP.Fitness>
54.6468

> <Gold.PLP.PLP>
-55.8702

> <Gold.PLP.part.hbond>
-3.7935

> <Gold.PLP.part.metal>
0.0000

> <Gold.PLP.part.buried>
-8.3874

> <Gold.PLP.part.nonpolar>
-43.1384

> <Gold.PLP.part.repulsive>
0.5666

> <Gold.PLP.ligand.clash>
0.0000

> <Gold.PLP.ligand.torsion>
0.6314

> <Gold.PLP.Chemscore.Hbond>
0.0000

> <Gold.PLP.Chemscore.CHOScore>
0.0000

> <Gold.PLP.Chemscore.Metal>
0.0000

> <Gold.PLP.Chemscore.Internal.Correction>
0.0393

> <Gold.Rescore>
     Score         DG    S(hbond)    S(metal)    S(lipo)     H(rot)  DE(clash)    DE(int)     intcor
     14.02     -17.44       0.00        0.00     156.69       2.49       2.10       1.32       ----

> <Gold.Chemscore.Fitness>
14.0217

> <Gold.Chemscore.DG>
-17.4400

> <Gold.Chemscore.ZeroCoef>
-5.4800

> <Gold.Chemscore.Hbond>
0.0000

> <Gold.Chemscore.Metal>
0.0000

> <Gold.Chemscore.Lipo>
156.6902

> <Gold.Chemscore.Internal_Hbond>
0.0000

> <Gold.Chemscore.DEClash>
2.0989

> <Gold.Chemscore.DEInternal>
1.3193

> <Gold.Chemscore.Rot>
2.4894

> <Gold.Chemscore.Internal.Correction>
   9.000000E+99

> <Gold.Chemscore.Hbond.Weighted>
-0.0000

> <Gold.Chemscore.Metal.Weighted>
-0.0000

> <Gold.Chemscore.Lipo.Weighted>
-18.3328

> <Gold.Chemscore.Internal_Hbond.Weighted>
0.0000

> <Gold.Chemscore.DEClash.Weighted>
2.0989

> <Gold.Chemscore.DEInternal.Weighted>
1.3193

> <Gold.Chemscore.Rot.Weighted>
6.3728

> <Gold.Chemscore.Internal.Correction.Weighted>
   9.000000E+99

> <Gold.Protein.RotatedTorsions>
[ 6907 6896 6895 6894 ] final -113.55 input  -60.11 | X-H torsion
[ 7974 7965 7964 7962 ] final  -80.57 input  175.53 | X-H torsion
[ 8008 7997 7996 7995 ] final   84.54 input   59.86 | X-H torsion
[ 10167 10162 10161 10158 ] final   51.75 input  -65.29 | X-H torsion
[ 10718 10713 10712 10709 ] final  115.26 input   66.30 | X-H torsion
[ 10763 10752 10751 10750 ] final -118.83 input  -60.55 | X-H torsion
[ 11005 11000 10999 10996 ] final  -83.51 input  -57.11 | X-H torsion

> <Gold.Protein.ActiveResidues>
 VAL166  LYS551  ARG553  GLY616  TRP617  ASP618  TYR619  PRO620  LYS621  CYS622 
 ASP623  PHE694  ASN695  SER759  ASP760  ASP761  ALA762  ILE779  LEU786  VAL792 
 PHE793  MET794  SER795  GLU796  ALA797  LYS798  CYS799  TRP800  GLU811  SER814 

> <Gold.Protein.RotatedAtoms>
  150.7837  133.8928  159.3318 H   0  0  0  0  0  0  0  0  0  0  0  0  # atno 6907 bound_to 6896
  151.6784  135.0963  160.0221 H   0  0  0  0  0  0  0  0  0  0  0  0  # atno 6908 bound_to 6896
  152.3896  133.6621  159.6262 H   0  0  0  0  0  0  0  0  0  0  0  0  # atno 6909 bound_to 6896
  145.5582  140.9486  143.1462 H   0  0  0  0  0  0  0  0  0  0  0  0  # atno 7974 bound_to 7965
  155.9384  140.3410  155.6307 H   0  0  0  0  0  0  0  0  0  0  0  0  # atno 8008 bound_to 7997
  155.7070  140.0767  157.2405 H   0  0  0  0  0  0  0  0  0  0  0  0  # atno 8009 bound_to 7997
  154.4098  140.1629  156.2242 H   0  0  0  0  0  0  0  0  0  0  0  0  # atno 8010 bound_to 7997
  140.2587  144.3398  150.6325 H   0  0  0  0  0  0  0  0  0  0  0  0  # atno 10167 bound_to 10162
  157.6232  131.1010  150.7305 H   0  0  0  0  0  0  0  0  0  0  0  0  # atno 10718 bound_to 10713
  154.8599  135.4260  154.2202 H   0  0  0  0  0  0  0  0  0  0  0  0  # atno 10763 bound_to 10752
  153.3208  135.6982  153.7038 H   0  0  0  0  0  0  0  0  0  0  0  0  # atno 10764 bound_to 10752
  153.6093  135.3522  155.2947 H   0  0  0  0  0  0  0  0  0  0  0  0  # atno 10765 bound_to 10752
  141.1657  133.7298  156.8731 H   0  0  0  0  0  0  0  0  0  0  0  0  # atno 11005 bound_to 11000
  144.7496  139.7229  143.7278 LP  0  0  0  0  0  0  0  0  0  0  0  0  # atno 17320 bound_to 7965
  146.1870  139.5090  142.9830 LP  0  0  0  0  0  0  0  0  0  0  0  0  # atno 17321 bound_to 7965
  140.5983  143.2167  151.7121 LP  0  0  0  0  0  0  0  0  0  0  0  0  # atno 17342 bound_to 10162
  139.5023  144.3832  152.0355 LP  0  0  0  0  0  0  0  0  0  0  0  0  # atno 17343 bound_to 10162
  156.7658  130.4813  149.5428 LP  0  0  0  0  0  0  0  0  0  0  0  0  # atno 17370 bound_to 10713
  156.1389  130.6231  151.0440 LP  0  0  0  0  0  0  0  0  0  0  0  0  # atno 17371 bound_to 10713
  140.1767  134.9062  157.2900 LP  0  0  0  0  0  0  0  0  0  0  0  0  # atno 17394 bound_to 11000
  140.2440  134.3761  155.7469 LP  0  0  0  0  0  0  0  0  0  0  0  0  # atno 17395 bound_to 11000

$$$$
