AV-unprocessed.smi:1570|AV-procd|sdf|6321|dock8
  -GOLD-   22720 6533D 1   1.00000     0.00000
 Structure written by MMmdl.
 52 54  0  0  0  0  0  0  0  0  2 V2000
  155.9959  139.9425  160.7621 C   0  0  0  0  0  0  0  0  0  0  0  0
  154.5367  139.5835  160.4533 C   0  0  0  0  0  0  0  0  0  0  0  0
  153.7186  140.7840  160.3009 N   0  0  0  0  0  0  0  0  0  0  0  0
  153.0087  141.1423  159.2059 C   0  0  0  0  0  0  0  0  0  0  0  0
  152.9482  140.5205  158.1450 O   0  0  0  0  0  0  0  0  0  0  0  0
  152.3575  142.2965  159.4847 N   0  0  0  0  0  0  0  0  0  0  0  0
  151.4711  143.0299  158.5821 C   0  0  0  0  0  0  0  0  0  0  0  0
  150.6049  142.0786  157.7317 C   0  0  1  0  0  0  0  0  0  0  0  0
  149.2856  142.5877  157.7027 O   0  0  0  0  0  0  0  0  0  0  0  0
  151.1067  141.9968  156.2762 C   0  0  0  0  0  0  0  0  0  0  0  0
  150.4487  140.9033  155.5179 N   0  3  1  0  0  0  0  0  0  0  0  0
  150.3653  139.6410  156.2890 C   0  0  0  0  0  0  0  0  0  0  0  0
  149.7475  138.5122  155.4399 C   0  0  2  0  0  0  0  0  0  0  0  0
  150.6990  137.9648  154.3610 C   0  0  0  0  0  0  0  0  0  0  0  0
  148.4966  138.9324  154.8945 O   0  0  0  0  0  0  0  0  0  0  0  0
  148.5491  140.1302  154.1233 C   0  0  1  0  0  0  0  0  0  0  0  0
  147.1313  140.4350  153.6268 C   0  0  0  0  0  0  0  0  0  0  0  0
  149.1132  141.2705  154.9887 C   0  0  0  0  0  0  0  0  0  0  0  0
  152.6491  142.6813  160.8017 C   0  0  0  0  0  0  0  0  0  0  0  0
  152.2156  143.7796  161.5652 C   0  0  0  0  0  0  0  0  0  0  0  0
  152.6980  143.8761  162.8916 C   0  0  0  0  0  0  0  0  0  0  0  0
  153.5803  142.8973  163.4179 C   0  0  0  0  0  0  0  0  0  0  0  0
  153.9982  141.8000  162.6293 C   0  0  0  0  0  0  0  0  0  0  0  0
  153.5058  141.7290  161.3145 C   0  0  0  0  0  0  0  0  0  0  0  0
  156.6006  139.0427  160.8765 H   0  0  0  0  0  0  0  0  0  0  0  0
  156.0745  140.5153  161.6865 H   0  0  0  0  0  0  0  0  0  0  0  0
  156.4345  140.5373  159.9602 H   0  0  0  0  0  0  0  0  0  0  0  0
  154.4826  138.9858  159.5429 H   0  0  0  0  0  0  0  0  0  0  0  0
  154.1331  138.9571  161.2503 H   0  0  0  0  0  0  0  0  0  0  0  0
  150.8554  143.7479  159.1246 H   0  0  0  0  0  0  0  0  0  0  0  0
  152.1067  143.6288  157.9275 H   0  0  0  0  0  0  0  0  0  0  0  0
  150.5922  141.0854  158.1791 H   0  0  0  0  0  0  0  0  0  0  0  0
  149.2334  143.2580  157.0380 H   0  0  0  0  0  0  0  0  0  0  0  0
  150.9260  142.9562  155.7882 H   0  0  0  0  0  0  0  0  0  0  0  0
  152.1868  141.8443  156.2482 H   0  0  0  0  0  0  0  0  0  0  0  0
  151.3562  139.3441  156.6356 H   0  0  0  0  0  0  0  0  0  0  0  0
  149.7562  139.8081  157.1789 H   0  0  0  0  0  0  0  0  0  0  0  0
  149.5203  137.6814  156.1088 H   0  0  0  0  0  0  0  0  0  0  0  0
  151.5868  137.5254  154.8165 H   0  0  0  0  0  0  0  0  0  0  0  0
  151.0384  138.7400  153.6743 H   0  0  0  0  0  0  0  0  0  0  0  0
  150.2125  137.1862  153.7732 H   0  0  0  0  0  0  0  0  0  0  0  0
  149.1871  139.9808  153.2518 H   0  0  0  0  0  0  0  0  0  0  0  0
  147.1140  141.3390  153.0173 H   0  0  0  0  0  0  0  0  0  0  0  0
  146.4431  140.5801  154.4601 H   0  0  0  0  0  0  0  0  0  0  0  0
  146.7476  139.6165  153.0172 H   0  0  0  0  0  0  0  0  0  0  0  0
  148.4378  141.4827  155.8196 H   0  0  0  0  0  0  0  0  0  0  0  0
  149.1754  142.1799  154.3920 H   0  0  0  0  0  0  0  0  0  0  0  0
  151.5407  144.5209  161.1644 H   0  0  0  0  0  0  0  0  0  0  0  0
  152.3895  144.7044  163.5124 H   0  0  0  0  0  0  0  0  0  0  0  0
  153.9354  142.9899  164.4337 H   0  0  0  0  0  0  0  0  0  0  0  0
  154.6663  141.0497  163.0257 H   0  0  0  0  0  0  0  0  0  0  0  0
  151.0434  140.7116  154.7236 H   0  0  0  0  0  0  0  0  0  0  0  0
  1  2  1  0  0  0  0
  1 25  1  0  0  0  0
  1 26  1  0  0  0  0
  1 27  1  0  0  0  0
  2  3  1  0  0  0  0
  2 28  1  0  0  0  0
  2 29  1  0  0  0  0
  3 24  1  0  0  0  0
  3  4  1  0  0  0  0
  4  5  2  0  0  0  0
  4  6  1  0  0  0  0
  6  7  1  0  0  0  0
  6 19  1  0  0  0  0
  7  8  1  0  0  0  0
  7 30  1  0  0  0  0
  7 31  1  0  0  0  0
  8  9  1  0  0  0  0
  8 10  1  0  0  0  0
  8 32  1  0  0  0  0
  9 33  1  0  0  0  0
 10 11  1  0  0  0  0
 10 34  1  0  0  0  0
 10 35  1  0  0  0  0
 11 18  1  0  0  0  0
 11 12  1  0  0  0  0
 11 52  1  0  0  0  0
 12 13  1  0  0  0  0
 12 36  1  0  0  0  0
 12 37  1  0  0  0  0
 13 14  1  0  0  0  0
 13 15  1  0  0  0  0
 13 38  1  0  0  0  0
 14 39  1  0  0  0  0
 14 40  1  0  0  0  0
 14 41  1  0  0  0  0
 15 16  1  0  0  0  0
 16 17  1  0  0  0  0
 16 18  1  0  0  0  0
 16 42  1  0  0  0  0
 17 43  1  0  0  0  0
 17 44  1  0  0  0  0
 17 45  1  0  0  0  0
 18 46  1  0  0  0  0
 18 47  1  0  0  0  0
 19 24  2  0  0  0  0
 19 20  1  0  0  0  0
 20 21  2  0  0  0  0
 20 48  1  0  0  0  0
 21 22  1  0  0  0  0
 21 49  1  0  0  0  0
 22 23  2  0  0  0  0
 22 50  1  0  0  0  0
 23 24  1  0  0  0  0
 23 51  1  0  0  0  0
M  CHG  1  11   1
M  END
> <s_m_source_file>
AV-unprocessed.smi

> <i_m_source_file_index>
1570

> <i_lp_mmshare_version>
43012

> <i_f3d_flags>
0

> <s_epik_input>
W2NIXTFbY0hdW2NIXVtjSF1jKGMxMiluKFtDSDJdW0NIM10pYyg9TyluMltDSDJdW0NASF0oW09IXSlbQ0gyXU4zW0NIMl1bQ0BASF0oW0NIM10pT1tDQEBIXShbQ0gzXSlbQ0gyXTM=

> <s_epik_cmdline>
J2VwaWtfcHl0aG9uJywgJy1waCcsICc3LjAnLCAnLXRuJywgJzgnLCAnLW1hJywgJzIwMCcsICctbWV0YWxfYmluZGluZycsICctaW1hZScsICc8aW5maWxlLm1hZT4nLCAnLW9tYWUnLCAnPG91dGZpbGUubWFlPic=

> <r_epik_Ionization_Penalty>
0.706332

> <r_epik_Ionization_Penalty_Charging>
0.706318

> <r_epik_Ionization_Penalty_Neutral>
1.42224e-05

> <r_epik_State_Penalty>
0.729493

> <r_epik_Charging_Adjusted_Penalty>
1.43581

> <i_epik_Tot_Q>
1

> <i_epik_Tot_abs_Q>
1

> <r_epik_Metal_State_Penalty>
0.729493

> <b_epik_Metal_Only>
0

> <s_lp_Force_Field>
OPLS_2005

> <r_lp_Energy>
54.8336

> <b_lp_Chiralities_Consistent>
1

> <s_lp_Variant>
AV-unprocessed.smi:1570-10

> <Gold.Version>
5.8.1

> <Gold.Id.Protein>
6NUR|6NUR_protein|mol2

> <Gold.PLP.Fitness>
54.3003

> <Gold.PLP.PLP>
-51.1848

> <Gold.PLP.part.hbond>
-2.0000

> <Gold.PLP.part.metal>
0.0000

> <Gold.PLP.part.buried>
-2.4581

> <Gold.PLP.part.nonpolar>
-46.3839

> <Gold.PLP.part.repulsive>
0.3176

> <Gold.PLP.ligand.clash>
0.0000

> <Gold.PLP.ligand.torsion>
1.1649

> <Gold.PLP.Chemscore.Hbond>
1.7771

> <Gold.PLP.Chemscore.CHOScore>
0.0000

> <Gold.PLP.Chemscore.Metal>
0.0000

> <Gold.Chemscore.Hbonds>
donor molecule, donor type, donor heavy atom, donor atom, acceptor molecule, acceptor atom, score
      L1  H     9    33       P1  8028  0.99
      P1  H  7997  8010       L1     5  0.80

> <Gold.PLP.Chemscore.Internal.Correction>
0.1139

> <Gold.Rescore>
     Score         DG    S(hbond)    S(metal)    S(lipo)     H(rot)  DE(clash)    DE(int)     intcor
     18.91     -22.77       1.72        0.00     145.40       2.13       1.27       2.59       ----

> <Gold.Chemscore.Fitness>
18.9126

> <Gold.Chemscore.DG>
-22.7744

> <Gold.Chemscore.ZeroCoef>
-5.4800

> <Gold.Chemscore.Hbond>
1.7174

> <Gold.Chemscore.Metal>
0.0000

> <Gold.Chemscore.Lipo>
145.3996

> <Gold.Chemscore.Internal_Hbond>
0.0000

> <Gold.Chemscore.DEClash>
1.2681

> <Gold.Chemscore.DEInternal>
2.5937

> <Gold.Chemscore.Rot>
2.1303

> <Gold.Chemscore.Internal.Correction>
   9.000000E+99

> <Gold.Chemscore.Hbonds>
donor molecule, donor type, donor heavy atom, donor atom, acceptor molecule, acceptor atom, score
      L1  H     9    33       P1  8028  0.85
      P1  H  7997  8010       L1     5  0.74

> <Gold.Chemscore.Hbond.Weighted>
-5.7362

> <Gold.Chemscore.Metal.Weighted>
-0.0000

> <Gold.Chemscore.Lipo.Weighted>
-17.0117

> <Gold.Chemscore.Internal_Hbond.Weighted>
0.0000

> <Gold.Chemscore.DEClash.Weighted>
1.2681

> <Gold.Chemscore.DEInternal.Weighted>
2.5937

> <Gold.Chemscore.Rot.Weighted>
5.4535

> <Gold.Chemscore.Internal.Correction.Weighted>
   9.000000E+99

> <Gold.Protein.RotatedTorsions>
[ 6907 6896 6895 6894 ] final   89.63 input  -60.11 | X-H torsion
[ 7974 7965 7964 7962 ] final  -70.84 input  175.53 | X-H torsion
[ 8008 7997 7996 7995 ] final   38.56 input   59.86 | X-H torsion
[ 10167 10162 10161 10158 ] final   91.95 input  -65.29 | X-H torsion
[ 10718 10713 10712 10709 ] final   87.79 input   66.30 | X-H torsion
[ 10763 10752 10751 10750 ] final  -68.62 input  -60.55 | X-H torsion
[ 11005 11000 10999 10996 ] final   53.23 input  -57.11 | X-H torsion

> <Gold.Protein.ActiveResidues>
 VAL166  LYS551  ARG553  GLY616  TRP617  ASP618  TYR619  PRO620  LYS621  CYS622 
 ASP623  PHE694  ASN695  SER759  ASP760  ASP761  ALA762  ILE779  LEU786  VAL792 
 PHE793  MET794  SER795  GLU796  ALA797  LYS798  CYS799  TRP800  GLU811  SER814 

> <Gold.Protein.RotatedAtoms>
  152.5438  134.1936  159.8683 H   0  0  0  0  0  0  0  0  0  0  0  0  # atno 6907 bound_to 6896
  151.1929  133.4649  159.2602 H   0  0  0  0  0  0  0  0  0  0  0  0  # atno 6908 bound_to 6896
  151.1065  135.0014  159.8529 H   0  0  0  0  0  0  0  0  0  0  0  0  # atno 6909 bound_to 6896
  145.6857  140.9171  143.0808 H   0  0  0  0  0  0  0  0  0  0  0  0  # atno 7974 bound_to 7965
  155.2221  140.3332  155.4314 H   0  0  0  0  0  0  0  0  0  0  0  0  # atno 8008 bound_to 7997
  156.2329  140.1859  156.7243 H   0  0  0  0  0  0  0  0  0  0  0  0  # atno 8009 bound_to 7997
  154.6008  140.0623  156.9351 H   0  0  0  0  0  0  0  0  0  0  0  0  # atno 8010 bound_to 7997
  139.8324  144.6681  150.9383 H   0  0  0  0  0  0  0  0  0  0  0  0  # atno 10167 bound_to 10162
  157.6943  131.0269  150.3177 H   0  0  0  0  0  0  0  0  0  0  0  0  # atno 10718 bound_to 10713
  154.3917  135.6051  153.5847 H   0  0  0  0  0  0  0  0  0  0  0  0  # atno 10763 bound_to 10752
  152.9787  135.5885  154.4290 H   0  0  0  0  0  0  0  0  0  0  0  0  # atno 10764 bound_to 10752
  154.4075  135.2843  155.2036 H   0  0  0  0  0  0  0  0  0  0  0  0  # atno 10765 bound_to 10752
  140.0784  134.5373  155.8972 H   0  0  0  0  0  0  0  0  0  0  0  0  # atno 11005 bound_to 11000
  144.7012  139.8755  143.7443 LP  0  0  0  0  0  0  0  0  0  0  0  0  # atno 17320 bound_to 7965
  146.0925  139.3916  143.0397 LP  0  0  0  0  0  0  0  0  0  0  0  0  # atno 17321 bound_to 7965
  140.7805  143.3988  151.1184 LP  0  0  0  0  0  0  0  0  0  0  0  0  # atno 17342 bound_to 10162
  139.7641  143.8592  152.3107 LP  0  0  0  0  0  0  0  0  0  0  0  0  # atno 17343 bound_to 10162
  156.3669  130.3856  149.7206 LP  0  0  0  0  0  0  0  0  0  0  0  0  # atno 17370 bound_to 10713
  156.4634  130.7962  151.2982 LP  0  0  0  0  0  0  0  0  0  0  0  0  # atno 17371 bound_to 10713
  141.2038  133.6634  156.6082 LP  0  0  0  0  0  0  0  0  0  0  0  0  # atno 17394 bound_to 11000
  140.3524  134.7757  157.4476 LP  0  0  0  0  0  0  0  0  0  0  0  0  # atno 17395 bound_to 11000

$$$$
