AV-unprocessed.smi:716|AV-procd|sdf|3487|dock1
  -GOLD-   22720 0483D 1   1.00000     0.00000
 Structure written by MMmdl.
 48 50  0  0  0  0  0  0  0  0  1 V2000
  152.6632  143.4332  159.8772 C   0  0  0  0  0  0  0  0  0  0  0  0
  152.7355  141.9698  159.4367 C   0  0  0  0  0  0  0  0  0  0  0  0
  151.8926  141.7877  158.3109 O   0  0  0  0  0  0  0  0  0  0  0  0
  151.8496  140.4438  157.8556 C   0  0  1  0  0  0  0  0  0  0  0  0
  151.2704  139.5025  158.9138 C   0  0  0  0  0  0  0  0  0  0  0  0
  150.6529  138.7426  157.7408 C   0  0  1  0  0  0  0  0  0  0  0  0
  149.3349  138.2007  158.0516 N   0  0  0  0  0  0  0  0  0  0  0  0
  149.0875  137.3349  159.0443 C   0  0  0  0  0  0  0  0  0  0  0  0
  149.9630  136.9152  159.8029 O   0  0  0  0  0  0  0  0  0  0  0  0
  147.6301  136.8691  159.1743 C   0  0  0  0  0  0  0  0  0  0  0  0
  147.4197  135.8807  160.2419 N   0  0  0  0  0  0  0  0  0  0  0  0
  147.4244  134.5667  159.8032 N   0  0  0  0  0  0  0  0  0  0  0  0
  147.2673  133.5869  160.6317 C   0  0  0  0  0  0  0  0  0  0  0  0
  147.2878  132.1956  160.0718 C   0  0  0  0  0  0  0  0  0  0  0  0
  147.0805  133.8670  162.0425 C   0  0  0  0  0  0  0  0  0  0  0  0
  147.0735  135.1487  162.4674 C   0  0  0  0  0  0  0  0  0  0  0  0
  147.2513  136.2658  161.5419 C   0  0  0  0  0  0  0  0  0  0  0  0
  147.2530  137.4440  161.8976 O   0  0  0  0  0  0  0  0  0  0  0  0
  150.6498  140.0761  156.9426 C   0  0  0  0  0  0  0  0  0  0  0  0
  150.8944  139.9765  155.4380 C   0  0  0  0  0  0  0  0  0  0  0  0
  149.5380  140.0867  154.7317 C   0  0  0  0  0  0  0  0  0  0  0  0
  148.5616  140.6614  155.7615 C   0  0  0  0  0  0  0  0  0  0  0  0
  149.4011  140.9693  157.0027 C   0  0  0  0  0  0  0  0  0  0  0  0
  153.2923  143.6082  160.7504 H   0  0  0  0  0  0  0  0  0  0  0  0
  151.6424  143.7132  160.1384 H   0  0  0  0  0  0  0  0  0  0  0  0
  153.0013  144.0984  159.0823 H   0  0  0  0  0  0  0  0  0  0  0  0
  153.7650  141.7101  159.1899 H   0  0  0  0  0  0  0  0  0  0  0  0
  152.4163  141.3199  160.2529 H   0  0  0  0  0  0  0  0  0  0  0  0
  152.8085  140.0794  157.4790 H   0  0  0  0  0  0  0  0  0  0  0  0
  152.0123  138.9417  159.4828 H   0  0  0  0  0  0  0  0  0  0  0  0
  150.5379  139.9848  159.5642 H   0  0  0  0  0  0  0  0  0  0  0  0
  151.3512  138.0064  157.3343 H   0  0  0  0  0  0  0  0  0  0  0  0
  148.5652  138.4969  157.4690 H   0  0  0  0  0  0  0  0  0  0  0  0
  146.9905  137.7395  159.3314 H   0  0  0  0  0  0  0  0  0  0  0  0
  147.3205  136.4497  158.2152 H   0  0  0  0  0  0  0  0  0  0  0  0
  147.1237  131.4532  160.8531 H   0  0  0  0  0  0  0  0  0  0  0  0
  148.2486  131.9803  159.6028 H   0  0  0  0  0  0  0  0  0  0  0  0
  146.5075  132.0673  159.3209 H   0  0  0  0  0  0  0  0  0  0  0  0
  146.9487  133.0527  162.7397 H   0  0  0  0  0  0  0  0  0  0  0  0
  146.9344  135.3563  163.5181 H   0  0  0  0  0  0  0  0  0  0  0  0
  151.5394  140.7907  155.1076 H   0  0  0  0  0  0  0  0  0  0  0  0
  151.4017  139.0511  155.1634 H   0  0  0  0  0  0  0  0  0  0  0  0
  149.6087  140.7214  153.8478 H   0  0  0  0  0  0  0  0  0  0  0  0
  149.1965  139.1054  154.4006 H   0  0  0  0  0  0  0  0  0  0  0  0
  148.0506  141.5505  155.3909 H   0  0  0  0  0  0  0  0  0  0  0  0
  147.7962  139.9214  155.9982 H   0  0  0  0  0  0  0  0  0  0  0  0
  148.8235  140.8398  157.9183 H   0  0  0  0  0  0  0  0  0  0  0  0
  149.6888  142.0202  156.9711 H   0  0  0  0  0  0  0  0  0  0  0  0
  1  2  1  0  0  0  0
  1 24  1  0  0  0  0
  1 25  1  0  0  0  0
  1 26  1  0  0  0  0
  2  3  1  0  0  0  0
  2 27  1  0  0  0  0
  2 28  1  0  0  0  0
  3  4  1  0  0  0  0
  4 19  1  0  0  0  0
  4  5  1  0  0  0  0
  4 29  1  0  0  0  0
  5  6  1  0  0  0  0
  5 30  1  0  0  0  0
  5 31  1  0  0  0  0
  6  7  1  0  0  0  0
  6 19  1  0  0  0  0
  6 32  1  0  0  0  0
  7  8  1  0  0  0  0
  7 33  1  0  0  0  0
  8  9  2  0  0  0  0
  8 10  1  0  0  0  0
 10 11  1  0  0  0  0
 10 34  1  0  0  0  0
 10 35  1  0  0  0  0
 11 17  1  0  0  0  0
 11 12  1  0  0  0  0
 12 13  2  0  0  0  0
 13 14  1  0  0  0  0
 13 15  1  0  0  0  0
 14 36  1  0  0  0  0
 14 37  1  0  0  0  0
 14 38  1  0  0  0  0
 15 16  2  0  0  0  0
 15 39  1  0  0  0  0
 16 17  1  0  0  0  0
 16 40  1  0  0  0  0
 17 18  2  0  0  0  0
 19 23  1  0  0  0  0
 19 20  1  0  0  0  0
 20 21  1  0  0  0  0
 20 41  1  0  0  0  0
 20 42  1  0  0  0  0
 21 22  1  0  0  0  0
 21 43  1  0  0  0  0
 21 44  1  0  0  0  0
 22 23  1  0  0  0  0
 22 45  1  0  0  0  0
 22 46  1  0  0  0  0
 23 47  1  0  0  0  0
 23 48  1  0  0  0  0
M  END
> <s_m_source_file>
AV-unprocessed.smi

> <i_m_source_file_index>
716

> <i_lp_mmshare_version>
43012

> <i_f3d_flags>
0

> <s_epik_input>
W0NIMl0xW0NIMl1bQ0gyXVtDSDJdQzEyW0NASF0oT1tDSDJdW0NIM10pW0NIMl1bQ0BIXTJbTkhdQyg9TylbQ0gyXW4zbmMoW0NIM10pW2NIXVtjSF1jMz1P

> <s_epik_cmdline>
J2VwaWtfcHl0aG9uJywgJy1waCcsICc3LjAnLCAnLXRuJywgJzgnLCAnLW1hJywgJzIwMCcsICctbWV0YWxfYmluZGluZycsICctaW1hZScsICc8aW5maWxlLm1hZT4nLCAnLW9tYWUnLCAnPG91dGZpbGUubWFlPic=

> <r_lp_tautomer_probability>
1

> <r_epik_Ionization_Penalty>
4.75561e-08

> <r_epik_Ionization_Penalty_Charging>
2.86617e-08

> <r_epik_Ionization_Penalty_Neutral>
1.88944e-08

> <r_epik_State_Penalty>
-0

> <r_epik_Charging_Adjusted_Penalty>
2.86617e-08

> <i_epik_Tot_Q>
0

> <i_epik_Tot_abs_Q>
0

> <r_epik_Metal_State_Penalty>
-0

> <b_epik_Metal_Only>
0

> <s_lp_Force_Field>
OPLS_2005

> <r_lp_Energy>
50.2142

> <b_lp_Chiralities_Consistent>
1

> <s_lp_Variant>
AV-unprocessed.smi:716-2

> <Gold.Version>
5.8.1

> <Gold.Id.Protein>
6NUR|6NUR_protein|mol2

> <Gold.PLP.Fitness>
49.7879

> <Gold.PLP.PLP>
-42.8225

> <Gold.PLP.part.hbond>
-3.7893

> <Gold.PLP.part.metal>
0.0000

> <Gold.PLP.part.buried>
-3.4955

> <Gold.PLP.part.nonpolar>
-36.2283

> <Gold.PLP.part.repulsive>
0.1157

> <Gold.PLP.ligand.clash>
0.0000

> <Gold.PLP.ligand.torsion>
0.5703

> <Gold.PLP.Chemscore.Hbond>
2.5840

> <Gold.PLP.Chemscore.CHOScore>
0.0000

> <Gold.PLP.Chemscore.Metal>
0.0000

> <Gold.Chemscore.Hbonds>
donor molecule, donor type, donor heavy atom, donor atom, acceptor molecule, acceptor atom, score
      P1  H  6896  6908       L1     9  0.65
      P1  H  6931  6943       L1    18  0.75
      P1  H  6934  6947       L1    18  0.74

> <Gold.PLP.Chemscore.Internal.Correction>
0.3539

> <Gold.Rescore>
     Score         DG    S(hbond)    S(metal)    S(lipo)     H(rot)  DE(clash)    DE(int)     intcor
     19.86     -21.35       2.75        0.00      95.19       1.73       0.92       0.58       ----

> <Gold.Chemscore.Fitness>
19.8552

> <Gold.Chemscore.DG>
-21.3510

> <Gold.Chemscore.ZeroCoef>
-5.4800

> <Gold.Chemscore.Hbond>
2.7470

> <Gold.Chemscore.Metal>
0.0000

> <Gold.Chemscore.Lipo>
95.1889

> <Gold.Chemscore.Internal_Hbond>
0.0000

> <Gold.Chemscore.DEClash>
0.9189

> <Gold.Chemscore.DEInternal>
0.5769

> <Gold.Chemscore.Rot>
1.7348

> <Gold.Chemscore.Internal.Correction>
   9.000000E+99

> <Gold.Chemscore.Hbonds>
donor molecule, donor type, donor heavy atom, donor atom, acceptor molecule, acceptor atom, score
      P1  H  6896  6908       L1     9  0.65
      P1  H  6931  6943       L1    18  0.65
      P1  H  6934  6947       L1    18  0.74

> <Gold.Chemscore.Hbond.Weighted>
-9.1750

> <Gold.Chemscore.Metal.Weighted>
-0.0000

> <Gold.Chemscore.Lipo.Weighted>
-11.1371

> <Gold.Chemscore.Internal_Hbond.Weighted>
0.0000

> <Gold.Chemscore.DEClash.Weighted>
0.9189

> <Gold.Chemscore.DEInternal.Weighted>
0.5769

> <Gold.Chemscore.Rot.Weighted>
4.4411

> <Gold.Chemscore.Internal.Correction.Weighted>
   9.000000E+99

> <Gold.Protein.RotatedTorsions>
[ 6907 6896 6895 6894 ] final -158.55 input  -60.11 | X-H torsion
[ 7974 7965 7964 7962 ] final  135.33 input  175.53 | X-H torsion
[ 8008 7997 7996 7995 ] final   30.82 input   59.86 | X-H torsion
[ 10167 10162 10161 10158 ] final  -37.41 input  -65.29 | X-H torsion
[ 10718 10713 10712 10709 ] final   31.50 input   66.30 | X-H torsion
[ 10763 10752 10751 10750 ] final  174.45 input  -60.55 | X-H torsion
[ 11005 11000 10999 10996 ] final  -11.45 input  -57.11 | X-H torsion

> <Gold.Protein.ActiveResidues>
 VAL166  LYS551  ARG553  GLY616  TRP617  ASP618  TYR619  PRO620  LYS621  CYS622 
 ASP623  PHE694  ASN695  SER759  ASP760  ASP761  ALA762  ILE779  LEU786  VAL792 
 PHE793  MET794  SER795  GLU796  ALA797  LYS798  CYS799  TRP800  GLU811  SER814 

> <Gold.Protein.RotatedAtoms>
  151.3199  133.4044  159.2653 H   0  0  0  0  0  0  0  0  0  0  0  0  # atno 6907 bound_to 6896
  151.0043  134.9348  159.7982 H   0  0  0  0  0  0  0  0  0  0  0  0  # atno 6908 bound_to 6896
  152.5284  134.3163  159.9184 H   0  0  0  0  0  0  0  0  0  0  0  0  # atno 6909 bound_to 6896
  144.9674  139.4642  143.5449 H   0  0  0  0  0  0  0  0  0  0  0  0  # atno 7974 bound_to 7965
  155.0965  140.3225  155.4559 H   0  0  0  0  0  0  0  0  0  0  0  0  # atno 8008 bound_to 7997
  156.2728  140.2068  156.6038 H   0  0  0  0  0  0  0  0  0  0  0  0  # atno 8009 bound_to 7997
  154.6862  140.0521  157.0304 H   0  0  0  0  0  0  0  0  0  0  0  0  # atno 8010 bound_to 7997
  140.7119  143.3343  151.2497 H   0  0  0  0  0  0  0  0  0  0  0  0  # atno 10167 bound_to 10162
  157.2733  130.7218  149.6516 H   0  0  0  0  0  0  0  0  0  0  0  0  # atno 10718 bound_to 10713
  154.4541  135.2765  155.1760 H   0  0  0  0  0  0  0  0  0  0  0  0  # atno 10763 bound_to 10752
  154.3575  135.6136  153.5677 H   0  0  0  0  0  0  0  0  0  0  0  0  # atno 10764 bound_to 10752
  152.9849  135.5826  154.4891 H   0  0  0  0  0  0  0  0  0  0  0  0  # atno 10765 bound_to 10752
  140.7554  133.8558  155.9079 H   0  0  0  0  0  0  0  0  0  0  0  0  # atno 11005 bound_to 11000
  146.3372  139.8865  142.8816 LP  0  0  0  0  0  0  0  0  0  0  0  0  # atno 17320 bound_to 7965
  145.2609  141.0076  143.3827 LP  0  0  0  0  0  0  0  0  0  0  0  0  # atno 17321 bound_to 7965
  139.6834  143.9815  152.2821 LP  0  0  0  0  0  0  0  0  0  0  0  0  # atno 17342 bound_to 10162
  139.9452  144.6656  150.8226 LP  0  0  0  0  0  0  0  0  0  0  0  0  # atno 17343 bound_to 10162
  155.9663  130.4361  150.5119 LP  0  0  0  0  0  0  0  0  0  0  0  0  # atno 17370 bound_to 10713
  157.3048  131.0652  151.2043 LP  0  0  0  0  0  0  0  0  0  0  0  0  # atno 17371 bound_to 10713
  140.9713  134.1528  157.4574 LP  0  0  0  0  0  0  0  0  0  0  0  0  # atno 17394 bound_to 11000
  139.8780  134.9979  156.5873 LP  0  0  0  0  0  0  0  0  0  0  0  0  # atno 17395 bound_to 11000

$$$$
