AV-unprocessed.smi:2547|AV-procd|sdf|10002|dock8
  -GOLD-   2272014 53D 1   1.00000     0.00000
 Structure written by MMmdl.
 44 45  0  0  0  0  0  0  0  0  2 V2000
  143.9935  142.8952  154.9928 C   0  0  0  0  0  0  0  0  0  0  0  0
  145.1443  142.0155  154.6969 N   0  3  2  0  0  0  0  0  0  0  0  0
  145.7513  141.4466  155.9259 C   0  0  0  0  0  0  0  0  0  0  0  0
  146.8616  140.4367  155.5815 C   0  0  0  0  0  0  0  0  0  0  0  0
  147.9371  141.0492  154.6664 C   0  0  2  0  0  0  0  0  0  0  0  0
  148.7541  142.0097  155.4078 N   0  0  0  0  0  0  0  0  0  0  0  0
  149.5725  141.7060  156.4262 C   0  0  0  0  0  0  0  0  0  0  0  0
  149.7342  140.5595  156.8454 O   0  0  0  0  0  0  0  0  0  0  0  0
  150.1778  142.8057  156.9091 N   0  0  0  0  0  0  0  0  0  0  0  0
  151.1120  142.8940  157.9753 C   0  0  0  0  0  0  0  0  0  0  0  0
  151.2453  144.1734  158.5539 C   0  0  0  0  0  0  0  0  0  0  0  0
  152.1486  144.3547  159.6163 C   0  0  0  0  0  0  0  0  0  0  0  0
  152.8946  143.2538  160.0733 C   0  0  0  0  0  0  0  0  0  0  0  0
  152.7126  141.9964  159.4492 C   0  0  0  0  0  0  0  0  0  0  0  0
  153.4333  140.8529  159.8628 N   0  0  0  0  0  0  0  0  0  0  0  0
  154.5829  141.0036  160.7498 C   0  0  0  0  0  0  0  0  0  0  0  0
  153.1064  139.5431  159.3135 C   0  0  0  0  0  0  0  0  0  0  0  0
  151.8378  141.8424  158.4256 N   0  0  0  0  0  0  0  0  0  0  0  0
  147.2687  141.6933  153.4344 C   0  0  0  0  0  0  0  0  0  0  0  0
  146.1529  142.6760  153.8318 C   0  0  0  0  0  0  0  0  0  0  0  0
  144.3061  143.7700  155.5648 H   0  0  0  0  0  0  0  0  0  0  0  0
  143.2383  142.3606  155.5698 H   0  0  0  0  0  0  0  0  0  0  0  0
  143.5240  143.2388  154.0704 H   0  0  0  0  0  0  0  0  0  0  0  0
  146.1498  142.2528  156.5436 H   0  0  0  0  0  0  0  0  0  0  0  0
  144.9808  140.9489  156.5161 H   0  0  0  0  0  0  0  0  0  0  0  0
  147.3159  140.0512  156.4951 H   0  0  0  0  0  0  0  0  0  0  0  0
  146.4153  139.5765  155.0804 H   0  0  0  0  0  0  0  0  0  0  0  0
  148.5915  140.2427  154.3298 H   0  0  0  0  0  0  0  0  0  0  0  0
  148.6799  142.9787  155.1348 H   0  0  0  0  0  0  0  0  0  0  0  0
  149.9449  143.6809  156.4645 H   0  0  0  0  0  0  0  0  0  0  0  0
  150.6650  145.0095  158.1918 H   0  0  0  0  0  0  0  0  0  0  0  0
  152.2679  145.3254  160.0746 H   0  0  0  0  0  0  0  0  0  0  0  0
  153.5884  143.3957  160.8879 H   0  0  0  0  0  0  0  0  0  0  0  0
  155.3623  141.5951  160.2686 H   0  0  0  0  0  0  0  0  0  0  0  0
  155.0113  140.0369  161.0144 H   0  0  0  0  0  0  0  0  0  0  0  0
  154.2922  141.5015  161.6754 H   0  0  0  0  0  0  0  0  0  0  0  0
  153.1940  139.5498  158.2267 H   0  0  0  0  0  0  0  0  0  0  0  0
  152.0886  139.2582  159.5813 H   0  0  0  0  0  0  0  0  0  0  0  0
  153.7775  138.7739  159.6960 H   0  0  0  0  0  0  0  0  0  0  0  0
  148.0089  142.1988  152.8130 H   0  0  0  0  0  0  0  0  0  0  0  0
  146.8423  140.9072  152.8099 H   0  0  0  0  0  0  0  0  0  0  0  0
  145.6683  143.0557  152.9314 H   0  0  0  0  0  0  0  0  0  0  0  0
  146.5742  143.5386  154.3509 H   0  0  0  0  0  0  0  0  0  0  0  0
  144.7793  141.2358  154.1685 H   0  0  0  0  0  0  0  0  0  0  0  0
  1  2  1  0  0  0  0
  1 21  1  0  0  0  0
  1 22  1  0  0  0  0
  1 23  1  0  0  0  0
  2 20  1  0  0  0  0
  2  3  1  0  0  0  0
  2 44  1  0  0  0  0
  3  4  1  0  0  0  0
  3 24  1  0  0  0  0
  3 25  1  0  0  0  0
  4  5  1  0  0  0  0
  4 26  1  0  0  0  0
  4 27  1  0  0  0  0
  5  6  1  0  0  0  0
  5 19  1  0  0  0  0
  5 28  1  0  0  0  0
  6  7  1  0  0  0  0
  6 29  1  0  0  0  0
  7  8  2  0  0  0  0
  7  9  1  0  0  0  0
  9 10  1  0  0  0  0
  9 30  1  0  0  0  0
 10 18  1  0  0  0  0
 10 11  2  0  0  0  0
 11 12  1  0  0  0  0
 11 31  1  0  0  0  0
 12 13  2  0  0  0  0
 12 32  1  0  0  0  0
 13 14  1  0  0  0  0
 13 33  1  0  0  0  0
 14 15  1  0  0  0  0
 14 18  2  0  0  0  0
 15 16  1  0  0  0  0
 15 17  1  0  0  0  0
 16 34  1  0  0  0  0
 16 35  1  0  0  0  0
 16 36  1  0  0  0  0
 17 37  1  0  0  0  0
 17 38  1  0  0  0  0
 17 39  1  0  0  0  0
 19 20  1  0  0  0  0
 19 40  1  0  0  0  0
 19 41  1  0  0  0  0
 20 42  1  0  0  0  0
 20 43  1  0  0  0  0
M  CHG  1   2   1
M  END
> <s_m_source_file>
AV-unprocessed.smi

> <i_m_source_file_index>
2547

> <i_lp_mmshare_version>
43012

> <i_f3d_flags>
0

> <s_epik_input>
W0NIM11OMVtDSDJdW0NIMl1bQ0hdKFtDSDJdW0NIMl0xKVtOSF1DKD1PKVtOSF1jMltjSF1bY0hdW2NIXWMobjIpTihbQ0gzXSlbQ0gzXQ==

> <s_epik_cmdline>
J2VwaWtfcHl0aG9uJywgJy1waCcsICc3LjAnLCAnLXRuJywgJzgnLCAnLW1hJywgJzIwMCcsICctbWV0YWxfYmluZGluZycsICctaW1hZScsICc8aW5maWxlLm1hZT4nLCAnLW9tYWUnLCAnPG91dGZpbGUubWFlPic=

> <r_lp_tautomer_probability>
1

> <r_epik_Ionization_Penalty>
0.0212039

> <r_epik_Ionization_Penalty_Charging>
0.00366825

> <r_epik_Ionization_Penalty_Neutral>
0.0175357

> <r_epik_State_Penalty>
0.0137702

> <r_epik_Charging_Adjusted_Penalty>
0.0174385

> <i_epik_Tot_Q>
1

> <i_epik_Tot_abs_Q>
1

> <r_epik_Metal_State_Penalty>
0.0148742

> <b_epik_Metal_Only>
0

> <s_lp_Force_Field>
OPLS_2005

> <r_lp_Energy>
18.1173

> <b_lp_Chiralities_Consistent>
1

> <s_lp_Variant>
AV-unprocessed.smi:2547-2

> <Gold.Version>
5.8.1

> <Gold.Id.Protein>
6NUR|6NUR_protein|mol2

> <Gold.PLP.Fitness>
49.3660

> <Gold.PLP.PLP>
-39.4501

> <Gold.PLP.part.hbond>
-2.9494

> <Gold.PLP.part.metal>
0.0000

> <Gold.PLP.part.buried>
-5.3369

> <Gold.PLP.part.nonpolar>
-32.1152

> <Gold.PLP.part.repulsive>
0.1941

> <Gold.PLP.ligand.clash>
0.0000

> <Gold.PLP.ligand.torsion>
0.1882

> <Gold.PLP.Chemscore.Hbond>
3.4270

> <Gold.PLP.Chemscore.CHOScore>
0.0000

> <Gold.PLP.Chemscore.Metal>
0.0000

> <Gold.Chemscore.Hbonds>
donor molecule, donor type, donor heavy atom, donor atom, acceptor molecule, acceptor atom, score
      L1  H     2    44       P1 10175  1.46
      L1  H     6    29       P1  8028  0.94
      L1  H     9    30       P1  8028  1.00

> <Gold.PLP.Chemscore.Internal.Correction>
0.0112

> <Gold.Rescore>
     Score         DG    S(hbond)    S(metal)    S(lipo)     H(rot)  DE(clash)    DE(int)     intcor
     19.09     -20.48       2.68        0.00      73.65       1.00       0.03       1.36       ----

> <Gold.Chemscore.Fitness>
19.0912

> <Gold.Chemscore.DG>
-20.4814

> <Gold.Chemscore.ZeroCoef>
-5.4800

> <Gold.Chemscore.Hbond>
2.6781

> <Gold.Chemscore.Metal>
0.0000

> <Gold.Chemscore.Lipo>
73.6467

> <Gold.Chemscore.Internal_Hbond>
0.0000

> <Gold.Chemscore.DEClash>
0.0310

> <Gold.Chemscore.DEInternal>
1.3593

> <Gold.Chemscore.Rot>
1.0000

> <Gold.Chemscore.Internal.Correction>
   9.000000E+99

> <Gold.Chemscore.Hbonds>
donor molecule, donor type, donor heavy atom, donor atom, acceptor molecule, acceptor atom, score
      L1  H     2    44       P1 10175  0.48
      L1  H     6    29       P1  8028  0.91
      L1  H     9    30       P1  8028  0.97

> <Gold.Chemscore.Hbond.Weighted>
-8.9448

> <Gold.Chemscore.Metal.Weighted>
-0.0000

> <Gold.Chemscore.Lipo.Weighted>
-8.6167

> <Gold.Chemscore.Internal_Hbond.Weighted>
0.0000

> <Gold.Chemscore.DEClash.Weighted>
0.0310

> <Gold.Chemscore.DEInternal.Weighted>
1.3593

> <Gold.Chemscore.Rot.Weighted>
2.5600

> <Gold.Chemscore.Internal.Correction.Weighted>
   9.000000E+99

> <Gold.Protein.RotatedTorsions>
[ 6907 6896 6895 6894 ] final  -45.23 input  -60.11 | X-H torsion
[ 7974 7965 7964 7962 ] final  -66.23 input  175.53 | X-H torsion
[ 8008 7997 7996 7995 ] final  -24.46 input   59.86 | X-H torsion
[ 10167 10162 10161 10158 ] final  -83.34 input  -65.29 | X-H torsion
[ 10718 10713 10712 10709 ] final   68.38 input   66.30 | X-H torsion
[ 10763 10752 10751 10750 ] final  173.12 input  -60.55 | X-H torsion
[ 11005 11000 10999 10996 ] final  174.42 input  -57.11 | X-H torsion

> <Gold.Protein.ActiveResidues>
 VAL166  LYS551  ARG553  GLY616  TRP617  ASP618  TYR619  PRO620  LYS621  CYS622 
 ASP623  PHE694  ASN695  SER759  ASP760  ASP761  ALA762  ILE779  LEU786  VAL792 
 PHE793  MET794  SER795  GLU796  ALA797  LYS798  CYS799  TRP800  GLU811  SER814 

> <Gold.Protein.RotatedAtoms>
  150.9242  134.8659  159.7508 H   0  0  0  0  0  0  0  0  0  0  0  0  # atno 6907 bound_to 6896
  152.5007  134.4173  159.9479 H   0  0  0  0  0  0  0  0  0  0  0  0  # atno 6908 bound_to 6896
  151.4205  133.3660  159.2790 H   0  0  0  0  0  0  0  0  0  0  0  0  # atno 6909 bound_to 6896
  145.7444  140.8938  143.0513 H   0  0  0  0  0  0  0  0  0  0  0  0  # atno 7974 bound_to 7965
  154.4528  140.1953  156.0468 H   0  0  0  0  0  0  0  0  0  0  0  0  # atno 8008 bound_to 7997
  156.0683  140.3288  155.7517 H   0  0  0  0  0  0  0  0  0  0  0  0  # atno 8009 bound_to 7997
  155.5303  140.0577  157.2881 H   0  0  0  0  0  0  0  0  0  0  0  0  # atno 8010 bound_to 7997
  140.4236  143.2575  151.8857 H   0  0  0  0  0  0  0  0  0  0  0  0  # atno 10167 bound_to 10162
  157.6286  130.9370  150.0369 H   0  0  0  0  0  0  0  0  0  0  0  0  # atno 10718 bound_to 10713
  154.4356  135.2761  155.1883 H   0  0  0  0  0  0  0  0  0  0  0  0  # atno 10763 bound_to 10752
  154.3771  135.6096  153.5774 H   0  0  0  0  0  0  0  0  0  0  0  0  # atno 10764 bound_to 10752
  152.9838  135.5871  154.4674 H   0  0  0  0  0  0  0  0  0  0  0  0  # atno 10765 bound_to 10752
  140.3511  134.7194  157.4268 H   0  0  0  0  0  0  0  0  0  0  0  0  # atno 11005 bound_to 11000
  144.6863  139.9505  143.7478 LP  0  0  0  0  0  0  0  0  0  0  0  0  # atno 17320 bound_to 7965
  146.0417  139.3428  143.0693 LP  0  0  0  0  0  0  0  0  0  0  0  0  # atno 17321 bound_to 7965
  139.4783  144.5411  151.8526 LP  0  0  0  0  0  0  0  0  0  0  0  0  # atno 17342 bound_to 10162
  140.4506  144.1860  150.5897 LP  0  0  0  0  0  0  0  0  0  0  0  0  # atno 17343 bound_to 10162
  156.1473  130.3642  149.9490 LP  0  0  0  0  0  0  0  0  0  0  0  0  # atno 17370 bound_to 10713
  156.7518  130.9118  151.3637 LP  0  0  0  0  0  0  0  0  0  0  0  0  # atno 17371 bound_to 10713
  140.0702  134.5873  155.8650 LP  0  0  0  0  0  0  0  0  0  0  0  0  # atno 17394 bound_to 11000
  141.2012  133.6617  156.5936 LP  0  0  0  0  0  0  0  0  0  0  0  0  # atno 17395 bound_to 11000

$$$$
