AV-unprocessed.smi:1163|AV-procd|sdf|4921|dock8
  -GOLD-   22720 3503D 1   1.00000     0.00000
 Structure written by MMmdl.
 39 40  0  0  0  0  0  0  0  0  1 V2000
  143.6790  132.7022  148.4056 C   0  0  0  0  0  0  0  0  0  0  0  0
  144.3645  132.4117  149.6189 O   0  0  0  0  0  0  0  0  0  0  0  0
  144.8210  133.4672  150.3819 C   0  0  0  0  0  0  0  0  0  0  0  0
  145.6567  133.1921  151.4824 C   0  0  0  0  0  0  0  0  0  0  0  0
  146.1276  134.2660  152.2610 C   0  0  0  0  0  0  0  0  0  0  0  0
  145.7586  135.5814  151.9148 C   0  0  0  0  0  0  0  0  0  0  0  0
  146.2377  136.6426  152.7293 N   0  0  0  0  0  0  0  0  0  0  0  0
  146.6311  137.8731  152.3584 C   0  0  0  0  0  0  0  0  0  0  0  0
  146.6627  138.2919  151.2016 O   0  0  0  0  0  0  0  0  0  0  0  0
  147.0119  138.5959  153.4209 N   0  0  0  0  0  0  0  0  0  0  0  0
  147.5157  139.9660  153.3861 C   0  0  1  0  0  0  0  0  0  0  0  0
  146.6075  140.9369  154.1363 C   0  0  0  0  0  0  0  0  0  0  0  0
  147.5932  141.8397  154.8690 C   0  0  0  0  0  0  0  0  0  0  0  0
  148.6383  140.9101  155.2681 N   0  0  0  0  0  0  0  0  0  0  0  0
  149.8312  141.6109  155.7389 C   0  0  0  0  0  0  0  0  0  0  0  0
  150.8244  140.6876  156.4716 C   0  0  0  0  0  0  0  0  0  0  0  0
  151.6243  141.4383  157.2277 F   0  0  0  0  0  0  0  0  0  0  0  0
  150.1721  139.8346  157.2623 F   0  0  0  0  0  0  0  0  0  0  0  0
  151.5835  140.0039  155.6152 F   0  0  0  0  0  0  0  0  0  0  0  0
  148.8740  140.0698  154.0965 C   0  0  0  0  0  0  0  0  0  0  0  0
  144.9038  135.7532  150.7987 C   0  0  0  0  0  0  0  0  0  0  0  0
  144.4476  134.7274  150.0489 N   0  0  0  0  0  0  0  0  0  0  0  0
  143.3958  131.7692  147.9186 H   0  0  0  0  0  0  0  0  0  0  0  0
  144.3116  133.2578  147.7116 H   0  0  0  0  0  0  0  0  0  0  0  0
  142.7655  133.2693  148.5909 H   0  0  0  0  0  0  0  0  0  0  0  0
  145.9307  132.1759  151.7244 H   0  0  0  0  0  0  0  0  0  0  0  0
  146.7681  134.0789  153.1108 H   0  0  0  0  0  0  0  0  0  0  0  0
  146.3435  136.4209  153.7084 H   0  0  0  0  0  0  0  0  0  0  0  0
  146.9543  138.1630  154.3310 H   0  0  0  0  0  0  0  0  0  0  0  0
  147.6415  140.3152  152.3597 H   0  0  0  0  0  0  0  0  0  0  0  0
  145.9466  141.4929  153.4708 H   0  0  0  0  0  0  0  0  0  0  0  0
  145.9853  140.4109  154.8624 H   0  0  0  0  0  0  0  0  0  0  0  0
  147.9950  142.5927  154.1887 H   0  0  0  0  0  0  0  0  0  0  0  0
  147.1452  142.3462  155.7244 H   0  0  0  0  0  0  0  0  0  0  0  0
  150.3234  142.1218  154.9099 H   0  0  0  0  0  0  0  0  0  0  0  0
  149.5099  142.3869  156.4352 H   0  0  0  0  0  0  0  0  0  0  0  0
  149.2790  139.0990  154.3846 H   0  0  0  0  0  0  0  0  0  0  0  0
  149.5931  140.5482  153.4293 H   0  0  0  0  0  0  0  0  0  0  0  0
  144.5476  136.7242  150.4927 H   0  0  0  0  0  0  0  0  0  0  0  0
  1  2  1  0  0  0  0
  1 23  1  0  0  0  0
  1 24  1  0  0  0  0
  1 25  1  0  0  0  0
  2  3  1  0  0  0  0
  3 22  1  0  0  0  0
  3  4  2  0  0  0  0
  4  5  1  0  0  0  0
  4 26  1  0  0  0  0
  5  6  2  0  0  0  0
  5 27  1  0  0  0  0
  6  7  1  0  0  0  0
  6 21  1  0  0  0  0
  7  8  1  0  0  0  0
  7 28  1  0  0  0  0
  8  9  2  0  0  0  0
  8 10  1  0  0  0  0
 10 11  1  0  0  0  0
 10 29  1  0  0  0  0
 11 20  1  0  0  0  0
 11 12  1  0  0  0  0
 11 30  1  0  0  0  0
 12 13  1  0  0  0  0
 12 31  1  0  0  0  0
 12 32  1  0  0  0  0
 13 14  1  0  0  0  0
 13 33  1  0  0  0  0
 13 34  1  0  0  0  0
 14 15  1  0  0  0  0
 14 20  1  0  0  0  0
 15 16  1  0  0  0  0
 15 35  1  0  0  0  0
 15 36  1  0  0  0  0
 16 17  1  0  0  0  0
 16 18  1  0  0  0  0
 16 19  1  0  0  0  0
 20 37  1  0  0  0  0
 20 38  1  0  0  0  0
 21 22  2  0  0  0  0
 21 39  1  0  0  0  0
M  END
> <s_m_source_file>
AV-unprocessed.smi

> <i_m_source_file_index>
1163

> <i_lp_mmshare_version>
43012

> <i_f3d_flags>
0

> <s_epik_input>
W0NIM11PYzFbY0hdW2NIXWMoW2NIXW4xKVtOSF1DKD1PKVtOSF1bQ0BASF0yW0NIMl1bQ0gyXU4oW0NIMl0yKVtDSDJdQyhGKShGKUY=

> <s_epik_cmdline>
J2VwaWtfcHl0aG9uJywgJy1waCcsICc3LjAnLCAnLXRuJywgJzgnLCAnLW1hJywgJzIwMCcsICctbWV0YWxfYmluZGluZycsICctaW1hZScsICc8aW5maWxlLm1hZT4nLCAnLW9tYWUnLCAnPG91dGZpbGUubWFlPic=

> <r_lp_tautomer_probability>
1

> <r_epik_Ionization_Penalty>
0.0970123

> <r_epik_Ionization_Penalty_Charging>
0

> <r_epik_Ionization_Penalty_Neutral>
0.0970123

> <r_epik_State_Penalty>
0.0870533

> <r_epik_Charging_Adjusted_Penalty>
0.0870533

> <i_epik_Tot_Q>
0

> <i_epik_Tot_abs_Q>
0

> <r_epik_Metal_State_Penalty>
0.0870519

> <b_epik_Metal_Only>
0

> <s_lp_Force_Field>
OPLS_2005

> <r_lp_Energy>
29.6524

> <b_lp_Chiralities_Consistent>
1

> <s_lp_Variant>
AV-unprocessed.smi:1163-2

> <Gold.Version>
5.8.1

> <Gold.Id.Protein>
6NUR|6NUR_protein|mol2

> <Gold.PLP.Fitness>
39.3121

> <Gold.PLP.PLP>
-34.3230

> <Gold.PLP.part.hbond>
-2.0000

> <Gold.PLP.part.metal>
0.0000

> <Gold.PLP.part.buried>
-0.1530

> <Gold.PLP.part.nonpolar>
-34.2241

> <Gold.PLP.part.repulsive>
2.2748

> <Gold.PLP.ligand.clash>
0.0000

> <Gold.PLP.ligand.torsion>
0.7567

> <Gold.PLP.Chemscore.Hbond>
1.0000

> <Gold.PLP.Chemscore.CHOScore>
1.0000

> <Gold.PLP.Chemscore.Metal>
0.0000

> <Gold.Chemscore.Hbonds>
donor molecule, donor type, donor heavy atom, donor atom, acceptor molecule, acceptor atom, score
      P1  H  7954  7966       L1     9  0.99
      L1  C    21    39       P1 10171  1.00

> <Gold.PLP.Chemscore.Internal.Correction>
0.5026

> <Gold.Rescore>
     Score         DG    S(hbond)    S(metal)    S(lipo)     H(rot)  DE(clash)    DE(int)     intcor
     10.47     -12.20       0.76        0.00      71.76       1.65       0.96       0.76       ----

> <Gold.Chemscore.Fitness>
10.4726

> <Gold.Chemscore.DG>
-12.1967

> <Gold.Chemscore.ZeroCoef>
-5.4800

> <Gold.Chemscore.Hbond>
0.7631

> <Gold.Chemscore.Metal>
0.0000

> <Gold.Chemscore.Lipo>
71.7590

> <Gold.Chemscore.Internal_Hbond>
0.0000

> <Gold.Chemscore.DEClash>
0.9649

> <Gold.Chemscore.DEInternal>
0.7592

> <Gold.Chemscore.Rot>
1.6515

> <Gold.Chemscore.Internal.Correction>
   9.000000E+99

> <Gold.Chemscore.Hbonds>
donor molecule, donor type, donor heavy atom, donor atom, acceptor molecule, acceptor atom, score
      P1  H  7954  7966       L1     9  0.91

> <Gold.Chemscore.Hbond.Weighted>
-2.5487

> <Gold.Chemscore.Metal.Weighted>
-0.0000

> <Gold.Chemscore.Lipo.Weighted>
-8.3958

> <Gold.Chemscore.Internal_Hbond.Weighted>
0.0000

> <Gold.Chemscore.DEClash.Weighted>
0.9649

> <Gold.Chemscore.DEInternal.Weighted>
0.7592

> <Gold.Chemscore.Rot.Weighted>
4.2279

> <Gold.Chemscore.Internal.Correction.Weighted>
   9.000000E+99

> <Gold.Protein.RotatedTorsions>
[ 6907 6896 6895 6894 ] final  169.26 input  -60.11 | X-H torsion
[ 7974 7965 7964 7962 ] final   32.10 input  175.53 | X-H torsion
[ 8008 7997 7996 7995 ] final -169.56 input   59.86 | X-H torsion
[ 10167 10162 10161 10158 ] final  -16.01 input  -65.29 | X-H torsion
[ 10718 10713 10712 10709 ] final   91.71 input   66.30 | X-H torsion
[ 10763 10752 10751 10750 ] final   54.84 input  -60.55 | X-H torsion
[ 11005 11000 10999 10996 ] final -109.72 input  -57.11 | X-H torsion

> <Gold.Protein.ActiveResidues>
 VAL166  LYS551  ARG553  GLY616  TRP617  ASP618  TYR619  PRO620  LYS621  CYS622 
 ASP623  PHE694  ASN695  SER759  ASP760  ASP761  ALA762  ILE779  LEU786  VAL792 
 PHE793  MET794  SER795  GLU796  ALA797  LYS798  CYS799  TRP800  GLU811  SER814 

> <Gold.Protein.RotatedAtoms>
  151.8346  133.3414  159.3623 H   0  0  0  0  0  0  0  0  0  0  0  0  # atno 6907 bound_to 6896
  150.7253  134.5450  159.5775 H   0  0  0  0  0  0  0  0  0  0  0  0  # atno 6908 bound_to 6896
  152.2910  134.7722  160.0429 H   0  0  0  0  0  0  0  0  0  0  0  0  # atno 6909 bound_to 6896
  146.1508  139.6570  142.9100 H   0  0  0  0  0  0  0  0  0  0  0  0  # atno 7974 bound_to 7965
  155.9066  140.1050  157.1310 H   0  0  0  0  0  0  0  0  0  0  0  0  # atno 8008 bound_to 7997
  154.4033  140.1282  156.4569 H   0  0  0  0  0  0  0  0  0  0  0  0  # atno 8009 bound_to 7997
  155.7359  140.3467  155.5084 H   0  0  0  0  0  0  0  0  0  0  0  0  # atno 8010 bound_to 7997
  140.7227  143.5160  150.9691 H   0  0  0  0  0  0  0  0  0  0  0  0  # atno 10167 bound_to 10162
  157.6960  131.0417  150.3771 H   0  0  0  0  0  0  0  0  0  0  0  0  # atno 10718 bound_to 10713
  152.9809  135.5731  154.4969 H   0  0  0  0  0  0  0  0  0  0  0  0  # atno 10763 bound_to 10752
  154.4495  135.2778  155.1793 H   0  0  0  0  0  0  0  0  0  0  0  0  # atno 10764 bound_to 10752
  154.3427  135.6226  153.5657 H   0  0  0  0  0  0  0  0  0  0  0  0  # atno 10765 bound_to 10752
  141.0832  133.9184  157.2244 H   0  0  0  0  0  0  0  0  0  0  0  0  # atno 11005 bound_to 11000
  145.4828  141.0438  143.2636 LP  0  0  0  0  0  0  0  0  0  0  0  0  # atno 17320 bound_to 7965
  144.7901  139.6345  143.7117 LP  0  0  0  0  0  0  0  0  0  0  0  0  # atno 17321 bound_to 7965
  139.8876  143.6994  152.3149 LP  0  0  0  0  0  0  0  0  0  0  0  0  # atno 17342 bound_to 10162
  139.7298  144.7585  151.0820 LP  0  0  0  0  0  0  0  0  0  0  0  0  # atno 17343 bound_to 10162
  156.4189  130.3949  149.6839 LP  0  0  0  0  0  0  0  0  0  0  0  0  # atno 17370 bound_to 10713
  156.4097  130.7716  151.2728 LP  0  0  0  0  0  0  0  0  0  0  0  0  # atno 17371 bound_to 10713
  139.9647  135.0145  156.9356 LP  0  0  0  0  0  0  0  0  0  0  0  0  # atno 17394 bound_to 11000
  140.5422  134.0709  155.7345 LP  0  0  0  0  0  0  0  0  0  0  0  0  # atno 17395 bound_to 11000

$$$$
