AV-unprocessed.smi:3338|AV-procd|sdf|12871|dock7
  -GOLD-   2272019273D 1   1.00000     0.00000
 Structure written by MMmdl.
 44 45  0  0  0  0  0  0  0  0  2 V2000
  147.9398  133.9085  152.9446 C   0  0  0  0  0  0  0  0  0  0  0  0
  146.4763  134.1702  153.3418 C   0  0  2  0  0  0  0  0  0  0  0  0
  145.5237  134.1918  152.1322 C   0  0  0  0  0  0  0  0  0  0  0  0
  145.6861  135.4835  151.3187 C   0  0  0  0  0  0  0  0  0  0  0  0
  145.5423  136.7230  152.2158 C   0  0  0  0  0  0  0  0  0  0  0  0
  146.5050  136.6799  153.3465 N   0  3  1  0  0  0  0  0  0  0  0  0
  146.4979  137.9335  154.1415 C   0  0  0  0  0  0  0  0  0  0  0  0
  147.1749  139.1002  153.3965 C   0  0  0  0  0  0  0  0  0  0  0  0
  148.5833  139.2205  153.7531 N   0  0  0  0  0  0  0  0  0  0  0  0
  149.2063  140.3731  154.0466 C   0  0  0  0  0  0  0  0  0  0  0  0
  148.6252  141.4590  154.0694 O   0  0  0  0  0  0  0  0  0  0  0  0
  150.7078  140.2746  154.3647 C   0  0  2  0  0  0  0  0  0  0  0  0
  151.2433  138.8302  154.2967 C   0  0  0  0  0  0  0  0  0  0  0  0
  151.0013  140.9012  155.6485 N   0  0  0  0  0  0  0  0  0  0  0  0
  150.5435  142.1121  156.1270 C   0  0  0  0  0  0  0  0  0  0  0  0
  151.0537  142.2769  157.3828 C   0  0  0  0  0  0  0  0  0  0  0  0
  151.8182  141.0961  157.5945 C   0  0  0  0  0  0  0  0  0  0  0  0
  151.7807  140.2732  156.5597 N   0  0  0  0  0  0  0  0  0  0  0  0
  146.3201  135.4583  154.1762 C   0  0  0  0  0  0  0  0  0  0  0  0
  148.3453  134.7094  152.3263 H   0  0  0  0  0  0  0  0  0  0  0  0
  148.0327  132.9778  152.3841 H   0  0  0  0  0  0  0  0  0  0  0  0
  148.5741  133.8228  153.8273 H   0  0  0  0  0  0  0  0  0  0  0  0
  146.1771  133.3332  153.9743 H   0  0  0  0  0  0  0  0  0  0  0  0
  145.6882  133.3204  151.4973 H   0  0  0  0  0  0  0  0  0  0  0  0
  144.4940  134.1213  152.4853 H   0  0  0  0  0  0  0  0  0  0  0  0
  146.6595  135.4953  150.8275 H   0  0  0  0  0  0  0  0  0  0  0  0
  144.9428  135.5149  150.5215 H   0  0  0  0  0  0  0  0  0  0  0  0
  145.7162  137.6164  151.6144 H   0  0  0  0  0  0  0  0  0  0  0  0
  144.5248  136.7942  152.6033 H   0  0  0  0  0  0  0  0  0  0  0  0
  145.4648  138.2141  154.3502 H   0  0  0  0  0  0  0  0  0  0  0  0
  146.9704  137.7631  155.1103 H   0  0  0  0  0  0  0  0  0  0  0  0
  147.1263  138.9549  152.3180 H   0  0  0  0  0  0  0  0  0  0  0  0
  146.6587  140.0387  153.6063 H   0  0  0  0  0  0  0  0  0  0  0  0
  149.1312  138.3722  153.7532 H   0  0  0  0  0  0  0  0  0  0  0  0
  151.2332  140.8482  153.5992 H   0  0  0  0  0  0  0  0  0  0  0  0
  151.0801  138.3958  153.3098 H   0  0  0  0  0  0  0  0  0  0  0  0
  150.7621  138.1803  155.0287 H   0  0  0  0  0  0  0  0  0  0  0  0
  152.3160  138.8047  154.4902 H   0  0  0  0  0  0  0  0  0  0  0  0
  149.8991  142.7500  155.5403 H   0  0  0  0  0  0  0  0  0  0  0  0
  150.9024  143.1126  158.0497 H   0  0  0  0  0  0  0  0  0  0  0  0
  152.3926  140.8128  158.4642 H   0  0  0  0  0  0  0  0  0  0  0  0
  145.3271  135.4848  154.6281 H   0  0  0  0  0  0  0  0  0  0  0  0
  147.0323  135.4409  155.0005 H   0  0  0  0  0  0  0  0  0  0  0  0
  147.4218  136.6157  152.9276 H   0  0  0  0  0  0  0  0  0  0  0  0
  1  2  1  0  0  0  0
  1 20  1  0  0  0  0
  1 21  1  0  0  0  0
  1 22  1  0  0  0  0
  2 19  1  0  0  0  0
  2  3  1  0  0  0  0
  2 23  1  0  0  0  0
  3  4  1  0  0  0  0
  3 24  1  0  0  0  0
  3 25  1  0  0  0  0
  4  5  1  0  0  0  0
  4 26  1  0  0  0  0
  4 27  1  0  0  0  0
  5  6  1  0  0  0  0
  5 28  1  0  0  0  0
  5 29  1  0  0  0  0
  6  7  1  0  0  0  0
  6 19  1  0  0  0  0
  6 44  1  0  0  0  0
  7  8  1  0  0  0  0
  7 30  1  0  0  0  0
  7 31  1  0  0  0  0
  8  9  1  0  0  0  0
  8 32  1  0  0  0  0
  8 33  1  0  0  0  0
  9 10  1  0  0  0  0
  9 34  1  0  0  0  0
 10 11  2  0  0  0  0
 10 12  1  0  0  0  0
 12 13  1  0  0  0  0
 12 14  1  0  0  0  0
 12 35  1  0  0  0  0
 13 36  1  0  0  0  0
 13 37  1  0  0  0  0
 13 38  1  0  0  0  0
 14 18  1  0  0  0  0
 14 15  1  0  0  0  0
 15 16  2  0  0  0  0
 15 39  1  0  0  0  0
 16 17  1  0  0  0  0
 16 40  1  0  0  0  0
 17 18  2  0  0  0  0
 17 41  1  0  0  0  0
 19 42  1  0  0  0  0
 19 43  1  0  0  0  0
M  CHG  1   6   1
M  END
> <s_m_source_file>
AV-unprocessed.smi

> <i_m_source_file_index>
3338

> <i_lp_mmshare_version>
43012

> <i_f3d_flags>
0

> <s_epik_input>
W0NIM11bQ0BASF0xW0NIMl1bQ0gyXVtDSDJdTihbQ0gyXTEpW0NIMl1bQ0gyXVtOSF1DKD1PKVtDQEhdKFtDSDNdKW4yW2NIXVtjSF1bY0hdbjI=

> <s_epik_cmdline>
J2VwaWtfcHl0aG9uJywgJy1waCcsICc3LjAnLCAnLXRuJywgJzgnLCAnLW1hJywgJzIwMCcsICctbWV0YWxfYmluZGluZycsICctaW1hZScsICc8aW5maWxlLm1hZT4nLCAnLW9tYWUnLCAnPG91dGZpbGUubWFlPic=

> <r_lp_tautomer_probability>
1

> <r_epik_Ionization_Penalty>
0.00225707

> <r_epik_Ionization_Penalty_Charging>
0.00223709

> <r_epik_Ionization_Penalty_Neutral>
1.99775e-05

> <r_epik_State_Penalty>
0.00153978

> <r_epik_Charging_Adjusted_Penalty>
0.00377687

> <i_epik_Tot_Q>
1

> <i_epik_Tot_abs_Q>
1

> <r_epik_Metal_State_Penalty>
-0

> <b_epik_Metal_Only>
0

> <s_lp_Force_Field>
OPLS_2005

> <r_lp_Energy>
22.4515

> <b_lp_Chiralities_Consistent>
1

> <s_lp_Variant>
AV-unprocessed.smi:3338-3

> <Gold.Version>
5.8.1

> <Gold.Id.Protein>
6NUR|6NUR_protein|mol2

> <Gold.PLP.Fitness>
39.9524

> <Gold.PLP.PLP>
-30.1600

> <Gold.PLP.part.hbond>
-3.5966

> <Gold.PLP.part.metal>
0.0000

> <Gold.PLP.part.buried>
3.4022

> <Gold.PLP.part.nonpolar>
-29.3739

> <Gold.PLP.part.repulsive>
0.5523

> <Gold.PLP.ligand.clash>
0.2581

> <Gold.PLP.ligand.torsion>
0.7261

> <Gold.PLP.Chemscore.Hbond>
2.7840

> <Gold.PLP.Chemscore.CHOScore>
1.0000

> <Gold.PLP.Chemscore.Metal>
0.0000

> <Gold.Chemscore.Hbonds>
donor molecule, donor type, donor heavy atom, donor atom, acceptor molecule, acceptor atom, score
      L1  H     6    44       P1  7948  2.00
      P1  H  8011  8017       L1    11  0.18
      L1  C    15    39       P1  8028  1.00

> <Gold.PLP.Chemscore.Internal.Correction>
0.1506

> <Gold.Rescore>
     Score         DG    S(hbond)    S(metal)    S(lipo)     H(rot)  DE(clash)    DE(int)     intcor
      9.37     -14.87       1.69        0.00      70.51       1.76       3.70       1.79       ----

> <Gold.Chemscore.Fitness>
9.3723

> <Gold.Chemscore.DG>
-14.8661

> <Gold.Chemscore.ZeroCoef>
-5.4800

> <Gold.Chemscore.Hbond>
1.6871

> <Gold.Chemscore.Metal>
0.0000

> <Gold.Chemscore.Lipo>
70.5064

> <Gold.Chemscore.Internal_Hbond>
0.0000

> <Gold.Chemscore.DEClash>
3.7011

> <Gold.Chemscore.DEInternal>
1.7926

> <Gold.Chemscore.Rot>
1.7570

> <Gold.Chemscore.Internal.Correction>
   9.000000E+99

> <Gold.Chemscore.Hbonds>
donor molecule, donor type, donor heavy atom, donor atom, acceptor molecule, acceptor atom, score
      L1  H     6    44       P1  7948  1.00
      P1  H  8011  8017       L1    11  0.03

> <Gold.Chemscore.Hbond.Weighted>
-5.6348

> <Gold.Chemscore.Metal.Weighted>
-0.0000

> <Gold.Chemscore.Lipo.Weighted>
-8.2492

> <Gold.Chemscore.Internal_Hbond.Weighted>
0.0000

> <Gold.Chemscore.DEClash.Weighted>
3.7011

> <Gold.Chemscore.DEInternal.Weighted>
1.7926

> <Gold.Chemscore.Rot.Weighted>
4.4979

> <Gold.Chemscore.Internal.Correction.Weighted>
   9.000000E+99

> <Gold.Protein.RotatedTorsions>
[ 6907 6896 6895 6894 ] final  -97.06 input  -60.11 | X-H torsion
[ 7974 7965 7964 7962 ] final   67.39 input  175.53 | X-H torsion
[ 8008 7997 7996 7995 ] final   64.90 input   59.86 | X-H torsion
[ 10167 10162 10161 10158 ] final   11.01 input  -65.29 | X-H torsion
[ 10718 10713 10712 10709 ] final  174.01 input   66.30 | X-H torsion
[ 10763 10752 10751 10750 ] final   48.12 input  -60.55 | X-H torsion
[ 11005 11000 10999 10996 ] final -179.20 input  -57.11 | X-H torsion

> <Gold.Protein.ActiveResidues>
 VAL166  LYS551  ARG553  GLY616  TRP617  ASP618  TYR619  PRO620  LYS621  CYS622 
 ASP623  PHE694  ASN695  SER759  ASP760  ASP761  ALA762  ILE779  LEU786  VAL792 
 PHE793  MET794  SER795  GLU796  ALA797  LYS798  CYS799  TRP800  GLU811  SER814 

> <Gold.Protein.RotatedAtoms>
  150.7006  134.1407  159.4103 H   0  0  0  0  0  0  0  0  0  0  0  0  # atno 6907 bound_to 6896
  151.9391  135.0219  160.0544 H   0  0  0  0  0  0  0  0  0  0  0  0  # atno 6908 bound_to 6896
  152.2109  133.4875  159.5146 H   0  0  0  0  0  0  0  0  0  0  0  0  # atno 6909 bound_to 6896
  145.8152  139.3054  143.1076 H   0  0  0  0  0  0  0  0  0  0  0  0  # atno 7974 bound_to 7965
  155.6533  140.3497  155.4756 H   0  0  0  0  0  0  0  0  0  0  0  0  # atno 8008 bound_to 7997
  155.9830  140.1178  157.0732 H   0  0  0  0  0  0  0  0  0  0  0  0  # atno 8009 bound_to 7997
  154.4197  140.1134  156.5447 H   0  0  0  0  0  0  0  0  0  0  0  0  # atno 8010 bound_to 7997
  140.6158  143.8310  150.7117 H   0  0  0  0  0  0  0  0  0  0  0  0  # atno 10167 bound_to 10162
  156.9559  131.0045  151.2938 H   0  0  0  0  0  0  0  0  0  0  0  0  # atno 10718 bound_to 10713
  152.9794  135.5954  154.3874 H   0  0  0  0  0  0  0  0  0  0  0  0  # atno 10763 bound_to 10752
  154.3533  135.2767  155.2362 H   0  0  0  0  0  0  0  0  0  0  0  0  # atno 10764 bound_to 10752
  154.4392  135.6017  153.6173 H   0  0  0  0  0  0  0  0  0  0  0  0  # atno 10765 bound_to 10752
  140.4213  134.6603  157.4665 H   0  0  0  0  0  0  0  0  0  0  0  0  # atno 11005 bound_to 11000
  145.9735  140.8741  143.0150 LP  0  0  0  0  0  0  0  0  0  0  0  0  # atno 17320 bound_to 7965
  144.6753  140.1979  143.7390 LP  0  0  0  0  0  0  0  0  0  0  0  0  # atno 17321 bound_to 7965
  140.1889  143.4053  152.1878 LP  0  0  0  0  0  0  0  0  0  0  0  0  # atno 17342 bound_to 10162
  139.5398  144.7245  151.4772 LP  0  0  0  0  0  0  0  0  0  0  0  0  # atno 17343 bound_to 10162
  157.5691  130.8298  149.8367 LP  0  0  0  0  0  0  0  0  0  0  0  0  # atno 17370 bound_to 10713
  156.0343  130.3756  150.1603 LP  0  0  0  0  0  0  0  0  0  0  0  0  # atno 17371 bound_to 10713
  140.0198  134.6564  155.9256 LP  0  0  0  0  0  0  0  0  0  0  0  0  # atno 17394 bound_to 11000
  141.1783  133.6543  156.4916 LP  0  0  0  0  0  0  0  0  0  0  0  0  # atno 17395 bound_to 11000

$$$$
