AV-unprocessed.smi:549|AV-procd|sdf|2893|dock6
  -GOLD-   2262023383D 1   1.00000     0.00000
 Structure written by MMmdl.
 44 45  0  0  0  0  0  0  0  0  2 V2000
  151.1541  141.5685  156.5574 C   0  0  0  0  0  0  0  0  0  0  0  0
  149.9931  142.1919  155.9454 N   0  0  0  0  0  0  0  0  0  0  0  0
  149.1006  141.4336  155.1769 C   0  0  0  0  0  0  0  0  0  0  0  0
  149.2349  140.0459  154.9363 C   0  0  0  0  0  0  0  0  0  0  0  0
  148.2720  139.3842  154.1467 C   0  0  0  0  0  0  0  0  0  0  0  0
  147.1925  140.1100  153.5990 C   0  0  0  0  0  0  0  0  0  0  0  0
  146.2408  139.3943  152.8220 N   0  0  0  0  0  0  0  0  0  0  0  0
  145.9993  138.0719  152.7991 C   0  0  0  0  0  0  0  0  0  0  0  0
  146.5614  137.2334  153.5029 O   0  0  0  0  0  0  0  0  0  0  0  0
  145.0397  137.7684  151.9134 N   0  0  0  0  0  0  0  0  0  0  0  0
  144.5395  136.4227  151.6462 C   0  0  0  0  0  0  0  0  0  0  0  0
  144.3455  135.6652  152.9678 C   0  0  0  0  0  0  0  0  0  0  0  0
  143.8706  134.2220  152.7227 C   0  0  0  0  0  0  0  0  0  0  0  0
  144.7705  133.5006  151.8004 N   0  0  0  0  0  0  0  0  0  0  0  0
  145.9351  132.3701  152.4287 S   0  0  0  0  0  0  0  0  0  0  0  0
  145.5124  130.7830  151.6005 C   0  0  0  0  0  0  0  0  0  0  0  0
  147.2658  132.7898  151.9632 O   0  0  0  0  0  0  0  0  0  0  0  0
  145.6817  132.2174  153.8696 O   0  0  0  0  0  0  0  0  0  0  0  0
  145.0321  134.1964  150.5243 C   0  0  0  0  0  0  0  0  0  0  0  0
  145.5153  135.6395  150.7514 C   0  0  0  0  0  0  0  0  0  0  0  0
  147.1048  141.4953  153.8812 C   0  0  0  0  0  0  0  0  0  0  0  0
  148.0475  142.0904  154.6438 N   0  3  0  0  0  0  0  0  0  0  0  0
  151.7209  142.3116  157.1184 H   0  0  0  0  0  0  0  0  0  0  0  0
  151.8100  141.1421  155.7978 H   0  0  0  0  0  0  0  0  0  0  0  0
  150.8527  140.7796  157.2471 H   0  0  0  0  0  0  0  0  0  0  0  0
  149.8508  143.1852  156.0601 H   0  0  0  0  0  0  0  0  0  0  0  0
  150.0584  139.4804  155.3463 H   0  0  0  0  0  0  0  0  0  0  0  0
  148.3678  138.3241  153.9615 H   0  0  0  0  0  0  0  0  0  0  0  0
  145.6461  139.9616  152.2357 H   0  0  0  0  0  0  0  0  0  0  0  0
  144.6270  138.5196  151.3800 H   0  0  0  0  0  0  0  0  0  0  0  0
  143.5718  136.4937  151.1453 H   0  0  0  0  0  0  0  0  0  0  0  0
  145.2771  135.6582  153.5328 H   0  0  0  0  0  0  0  0  0  0  0  0
  143.6164  136.1848  153.5906 H   0  0  0  0  0  0  0  0  0  0  0  0
  143.7841  133.6855  153.6671 H   0  0  0  0  0  0  0  0  0  0  0  0
  142.8714  134.2367  152.2857 H   0  0  0  0  0  0  0  0  0  0  0  0
  146.1988  130.0096  151.9445 H   0  0  0  0  0  0  0  0  0  0  0  0
  145.6125  130.8886  150.5219 H   0  0  0  0  0  0  0  0  0  0  0  0
  144.4955  130.4903  151.8554 H   0  0  0  0  0  0  0  0  0  0  0  0
  145.7584  133.6420  149.9306 H   0  0  0  0  0  0  0  0  0  0  0  0
  144.1085  134.2099  149.9446 H   0  0  0  0  0  0  0  0  0  0  0  0
  145.6230  136.1370  149.7870 H   0  0  0  0  0  0  0  0  0  0  0  0
  146.5078  135.6336  151.2011 H   0  0  0  0  0  0  0  0  0  0  0  0
  146.3189  142.1533  153.5432 H   0  0  0  0  0  0  0  0  0  0  0  0
  147.9549  143.0898  154.8274 H   0  0  0  0  0  0  0  0  0  0  0  0
  1  2  1  0  0  0  0
  1 23  1  0  0  0  0
  1 24  1  0  0  0  0
  1 25  1  0  0  0  0
  2  3  1  0  0  0  0
  2 26  1  0  0  0  0
  3 22  1  0  0  0  0
  3  4  2  0  0  0  0
  4  5  1  0  0  0  0
  4 27  1  0  0  0  0
  5  6  2  0  0  0  0
  5 28  1  0  0  0  0
  6  7  1  0  0  0  0
  6 21  1  0  0  0  0
  7  8  1  0  0  0  0
  7 29  1  0  0  0  0
  8  9  2  0  0  0  0
  8 10  1  0  0  0  0
 10 11  1  0  0  0  0
 10 30  1  0  0  0  0
 11 20  1  0  0  0  0
 11 12  1  0  0  0  0
 11 31  1  0  0  0  0
 12 13  1  0  0  0  0
 12 32  1  0  0  0  0
 12 33  1  0  0  0  0
 13 14  1  0  0  0  0
 13 34  1  0  0  0  0
 13 35  1  0  0  0  0
 14 15  1  0  0  0  0
 14 19  1  0  0  0  0
 15 16  1  0  0  0  0
 15 17  2  0  0  0  0
 15 18  2  0  0  0  0
 16 36  1  0  0  0  0
 16 37  1  0  0  0  0
 16 38  1  0  0  0  0
 19 20  1  0  0  0  0
 19 39  1  0  0  0  0
 19 40  1  0  0  0  0
 20 41  1  0  0  0  0
 20 42  1  0  0  0  0
 21 22  2  0  0  0  0
 21 43  1  0  0  0  0
 22 44  1  0  0  0  0
M  CHG  1  22   1
M  END
> <s_m_source_file>
AV-unprocessed.smi

> <i_m_source_file_index>
549

> <i_lp_mmshare_version>
43012

> <i_f3d_flags>
0

> <s_epik_input>
W0NIM11bTkhdYzFbY0hdW2NIXWMoW2NIXW4xKVtOSF1DKD1PKVtOSF1bQ0hdMltDSDJdW0NIMl1OKFMoPU8pKD1PKVtDSDNdKVtDSDJdW0NIMl0y

> <s_epik_cmdline>
J2VwaWtfcHl0aG9uJywgJy1waCcsICc3LjAnLCAnLXRuJywgJzgnLCAnLW1hJywgJzIwMCcsICctbWV0YWxfYmluZGluZycsICctaW1hZScsICc8aW5maWxlLm1hZT4nLCAnLW9tYWUnLCAnPG91dGZpbGUubWFlPic=

> <r_lp_tautomer_probability>
0.999994

> <r_epik_Ionization_Penalty>
0.450019

> <r_epik_Ionization_Penalty_Charging>
0.449999

> <r_epik_Ionization_Penalty_Neutral>
1.96337e-05

> <r_epik_State_Penalty>
0.452724

> <r_epik_Charging_Adjusted_Penalty>
0.902724

> <i_epik_Tot_Q>
1

> <i_epik_Tot_abs_Q>
1

> <r_epik_Metal_State_Penalty>
0.680753

> <b_epik_Metal_Only>
0

> <s_lp_Force_Field>
OPLS_2005

> <r_lp_Energy>
8.99887

> <b_lp_Chiralities_Consistent>
1

> <s_lp_Variant>
AV-unprocessed.smi:549-2

> <Gold.Version>
5.8.1

> <Gold.Id.Protein>
6NUR|6NUR_protein|mol2

> <Gold.PLP.Fitness>
48.3750

> <Gold.PLP.PLP>
-33.6201

> <Gold.PLP.part.hbond>
-4.9129

> <Gold.PLP.part.metal>
0.0000

> <Gold.PLP.part.buried>
-5.7908

> <Gold.PLP.part.nonpolar>
-26.9952

> <Gold.PLP.part.repulsive>
1.4866

> <Gold.PLP.ligand.clash>
0.0000

> <Gold.PLP.ligand.torsion>
1.3690

> <Gold.PLP.Chemscore.Hbond>
5.1467

> <Gold.PLP.Chemscore.CHOScore>
0.0000

> <Gold.PLP.Chemscore.Metal>
0.0000

> <Gold.Chemscore.Hbonds>
donor molecule, donor type, donor heavy atom, donor atom, acceptor molecule, acceptor atom, score
      L1  H     2    26       P1  8028  1.98
      L1  H     7    29       P1 10175  0.62
      L1  H    10    30       P1 10171  0.69
      L1  H    22    44       P1  8028  1.82

> <Gold.PLP.Chemscore.Internal.Correction>
2.0528

> <Gold.Rescore>
     Score         DG    S(hbond)    S(metal)    S(lipo)     H(rot)  DE(clash)    DE(int)     intcor
     15.39     -19.76       2.71        0.00      66.51       1.00       0.29       4.08       ----

> <Gold.Chemscore.Fitness>
15.3851

> <Gold.Chemscore.DG>
-19.7592

> <Gold.Chemscore.ZeroCoef>
-5.4800

> <Gold.Chemscore.Hbond>
2.7119

> <Gold.Chemscore.Metal>
0.0000

> <Gold.Chemscore.Lipo>
66.5082

> <Gold.Chemscore.Internal_Hbond>
0.0000

> <Gold.Chemscore.DEClash>
0.2910

> <Gold.Chemscore.DEInternal>
4.0830

> <Gold.Chemscore.Rot>
1.0000

> <Gold.Chemscore.Internal.Correction>
   9.000000E+99

> <Gold.Chemscore.Hbonds>
donor molecule, donor type, donor heavy atom, donor atom, acceptor molecule, acceptor atom, score
      L1  H     2    26       P1  8028  0.94
      L1  H     7    29       P1 10175  0.47
      L1  H    10    30       P1 10171  0.68
      L1  H    22    44       P1  8028  0.75

> <Gold.Chemscore.Hbond.Weighted>
-9.0577

> <Gold.Chemscore.Metal.Weighted>
-0.0000

> <Gold.Chemscore.Lipo.Weighted>
-7.7815

> <Gold.Chemscore.Internal_Hbond.Weighted>
0.0000

> <Gold.Chemscore.DEClash.Weighted>
0.2910

> <Gold.Chemscore.DEInternal.Weighted>
4.0830

> <Gold.Chemscore.Rot.Weighted>
2.5600

> <Gold.Chemscore.Internal.Correction.Weighted>
   9.000000E+99

> <Gold.Protein.RotatedTorsions>
[ 6907 6896 6895 6894 ] final  139.25 input  -60.11 | X-H torsion
[ 7974 7965 7964 7962 ] final  110.69 input  175.53 | X-H torsion
[ 8008 7997 7996 7995 ] final  -59.69 input   59.86 | X-H torsion
[ 10167 10162 10161 10158 ] final  -38.33 input  -65.29 | X-H torsion
[ 10718 10713 10712 10709 ] final  104.63 input   66.30 | X-H torsion
[ 10763 10752 10751 10750 ] final  -20.99 input  -60.55 | X-H torsion
[ 11005 11000 10999 10996 ] final   61.74 input  -57.11 | X-H torsion

> <Gold.Protein.ActiveResidues>
 VAL166  LYS551  ARG553  GLY616  TRP617  ASP618  TYR619  PRO620  LYS621  CYS622 
 ASP623  PHE694  ASN695  SER759  ASP760  ASP761  ALA762  ILE779  LEU786  VAL792 
 PHE793  MET794  SER795  GLU796  ALA797  LYS798  CYS799  TRP800  GLU811  SER814 

> <Gold.Protein.RotatedAtoms>
  152.2572  133.5265  159.5359 H   0  0  0  0  0  0  0  0  0  0  0  0  # atno 6907 bound_to 6896
  150.7113  134.0880  159.3930 H   0  0  0  0  0  0  0  0  0  0  0  0  # atno 6908 bound_to 6896
  151.8798  135.0458  160.0538 H   0  0  0  0  0  0  0  0  0  0  0  0  # atno 6909 bound_to 6896
  145.2517  139.2737  143.4064 H   0  0  0  0  0  0  0  0  0  0  0  0  # atno 7974 bound_to 7965
  154.4364  140.1056  156.6156 H   0  0  0  0  0  0  0  0  0  0  0  0  # atno 8008 bound_to 7997
  155.5762  140.3490  155.4509 H   0  0  0  0  0  0  0  0  0  0  0  0  # atno 8009 bound_to 7997
  156.0352  140.1269  157.0204 H   0  0  0  0  0  0  0  0  0  0  0  0  # atno 8010 bound_to 7997
  140.7095  143.3284  151.2626 H   0  0  0  0  0  0  0  0  0  0  0  0  # atno 10167 bound_to 10162
  157.6733  131.0808  150.5736 H   0  0  0  0  0  0  0  0  0  0  0  0  # atno 10718 bound_to 10713
  153.6291  135.6990  153.5282 H   0  0  0  0  0  0  0  0  0  0  0  0  # atno 10763 bound_to 10752
  153.2874  135.4167  155.1135 H   0  0  0  0  0  0  0  0  0  0  0  0  # atno 10764 bound_to 10752
  154.8526  135.3617  154.5833 H   0  0  0  0  0  0  0  0  0  0  0  0  # atno 10765 bound_to 10752
  140.0140  134.6253  155.9738 H   0  0  0  0  0  0  0  0  0  0  0  0  # atno 11005 bound_to 11000
  146.3300  140.2909  142.8615 LP  0  0  0  0  0  0  0  0  0  0  0  0  # atno 17320 bound_to 7965
  144.9497  140.8165  143.5579 LP  0  0  0  0  0  0  0  0  0  0  0  0  # atno 17321 bound_to 7965
  139.6759  143.9939  152.2780 LP  0  0  0  0  0  0  0  0  0  0  0  0  # atno 17342 bound_to 10162
  139.9553  144.6594  150.8132 LP  0  0  0  0  0  0  0  0  0  0  0  0  # atno 17343 bound_to 10162
  156.6037  130.4361  149.5887 LP  0  0  0  0  0  0  0  0  0  0  0  0  # atno 17370 bound_to 10713
  156.2486  130.6893  151.1623 LP  0  0  0  0  0  0  0  0  0  0  0  0  # atno 17371 bound_to 10713
  141.1730  133.6538  156.4723 LP  0  0  0  0  0  0  0  0  0  0  0  0  # atno 17394 bound_to 11000
  140.4504  134.6934  157.5036 LP  0  0  0  0  0  0  0  0  0  0  0  0  # atno 17395 bound_to 11000

$$$$
