AV-unprocessed.smi:1817|AV-procd|sdf|7377|dock5
  -GOLD-   22720 9 43D 1   1.00000     0.00000
 Structure written by MMmdl.
 42 43  0  0  0  0  0  0  0  0  3 V2000
  144.5691  131.8842  150.1147 C   0  0  0  0  0  0  0  0  0  0  0  0
  144.4025  133.2354  150.8254 C   0  0  0  0  0  0  0  0  0  0  0  0
  145.5378  134.1282  150.5803 N   0  0  0  0  0  0  0  0  0  0  0  0
  145.4642  135.4248  151.2634 C   0  0  0  0  0  0  0  0  0  0  0  0
  145.6494  135.2939  152.7899 C   0  0  0  0  0  0  0  0  0  0  0  0
  146.9457  134.6398  153.0945 N   0  3  0  0  0  0  0  0  0  0  0  0
  147.2980  134.6449  154.5434 C   0  0  1  0  0  0  0  0  0  0  0  0
  146.4277  133.6851  155.3841 C   0  0  0  0  0  0  0  0  0  0  0  0
  148.8125  134.3978  154.7318 C   0  0  0  0  0  0  0  0  0  0  0  0
  149.6155  135.5724  154.4078 N   0  0  0  0  0  0  0  0  0  0  0  0
  150.4775  136.1812  155.2342 C   0  0  0  0  0  0  0  0  0  0  0  0
  150.6230  135.7639  156.3855 O   0  0  0  0  0  0  0  0  0  0  0  0
  151.1211  137.2290  154.6734 N   0  5  0  0  0  0  0  0  0  0  0  0
  150.5524  138.4461  154.6774 C   0  0  0  0  0  0  0  0  0  0  0  0
  151.2641  139.5686  154.8675 N   0  0  0  0  0  0  0  0  0  0  0  0
  150.4881  140.7193  154.8345 N   0  0  0  0  0  0  0  0  0  0  0  0
  149.2056  140.4342  154.6103 C   0  0  0  0  0  0  0  0  0  0  0  0
  148.8302  138.7350  154.4157 S   0  0  0  0  0  0  0  0  0  0  0  0
  147.0320  133.3233  152.4117 C   0  0  0  0  0  0  0  0  0  0  0  0
  146.8237  133.4976  150.8926 C   0  0  0  0  0  0  0  0  0  0  0  0
  143.7825  131.1944  150.4211 H   0  0  0  0  0  0  0  0  0  0  0  0
  145.5255  131.4215  150.3608 H   0  0  0  0  0  0  0  0  0  0  0  0
  144.5068  131.9802  149.0311 H   0  0  0  0  0  0  0  0  0  0  0  0
  143.4578  133.6970  150.5401 H   0  0  0  0  0  0  0  0  0  0  0  0
  144.3409  133.0440  151.8973 H   0  0  0  0  0  0  0  0  0  0  0  0
  146.2478  136.0680  150.8606 H   0  0  0  0  0  0  0  0  0  0  0  0
  144.5241  135.9262  151.0365 H   0  0  0  0  0  0  0  0  0  0  0  0
  145.6318  136.2909  153.2310 H   0  0  0  0  0  0  0  0  0  0  0  0
  144.8248  134.7412  153.2398 H   0  0  0  0  0  0  0  0  0  0  0  0
  147.1000  135.6549  154.9052 H   0  0  0  0  0  0  0  0  0  0  0  0
  146.6031  133.8311  156.4503 H   0  0  0  0  0  0  0  0  0  0  0  0
  146.6470  132.6405  155.1631 H   0  0  0  0  0  0  0  0  0  0  0  0
  145.3642  133.8499  155.2137 H   0  0  0  0  0  0  0  0  0  0  0  0
  149.0324  134.1342  155.7659 H   0  0  0  0  0  0  0  0  0  0  0  0
  149.1406  133.5531  154.1235 H   0  0  0  0  0  0  0  0  0  0  0  0
  149.5228  135.9493  153.4755 H   0  0  0  0  0  0  0  0  0  0  0  0
  148.4771  141.2292  154.5555 H   0  0  0  0  0  0  0  0  0  0  0  0
  148.0109  132.8775  152.5847 H   0  0  0  0  0  0  0  0  0  0  0  0
  146.2967  132.6281  152.8175 H   0  0  0  0  0  0  0  0  0  0  0  0
  146.8941  132.5339  150.3868 H   0  0  0  0  0  0  0  0  0  0  0  0
  147.6239  134.1161  150.4838 H   0  0  0  0  0  0  0  0  0  0  0  0
  147.6417  135.2255  152.6555 H   0  0  0  0  0  0  0  0  0  0  0  0
  1  2  1  0  0  0  0
  1 21  1  0  0  0  0
  1 22  1  0  0  0  0
  1 23  1  0  0  0  0
  2  3  1  0  0  0  0
  2 24  1  0  0  0  0
  2 25  1  0  0  0  0
  3 20  1  0  0  0  0
  3  4  1  0  0  0  0
  4  5  1  0  0  0  0
  4 26  1  0  0  0  0
  4 27  1  0  0  0  0
  5  6  1  0  0  0  0
  5 28  1  0  0  0  0
  5 29  1  0  0  0  0
  6  7  1  0  0  0  0
  6 19  1  0  0  0  0
  6 42  1  0  0  0  0
  7  8  1  0  0  0  0
  7  9  1  0  0  0  0
  7 30  1  0  0  0  0
  8 31  1  0  0  0  0
  8 32  1  0  0  0  0
  8 33  1  0  0  0  0
  9 10  1  0  0  0  0
  9 34  1  0  0  0  0
  9 35  1  0  0  0  0
 10 11  1  0  0  0  0
 10 36  1  0  0  0  0
 11 12  2  0  0  0  0
 11 13  1  0  0  0  0
 13 14  1  0  0  0  0
 14 18  1  0  0  0  0
 14 15  2  0  0  0  0
 15 16  1  0  0  0  0
 16 17  2  0  0  0  0
 17 18  1  0  0  0  0
 17 37  1  0  0  0  0
 19 20  1  0  0  0  0
 19 38  1  0  0  0  0
 19 39  1  0  0  0  0
 20 40  1  0  0  0  0
 20 41  1  0  0  0  0
M  CHG  1   6   1
M  CHG  1  13  -1
M  END
> <s_m_source_file>
AV-unprocessed.smi

> <i_m_source_file_index>
1817

> <i_lp_mmshare_version>
43012

> <i_f3d_flags>
0

> <s_epik_input>
W0NIM11bQ0gyXU4xW0NIMl1bQ0gyXU4oW0NIMl1bQ0gyXTEpW0NASF0oW0NIM10pW0NIMl1bTkhdQyg9TylbTkhdYzJubltjSF1zMg==

> <s_epik_cmdline>
J2VwaWtfcHl0aG9uJywgJy1waCcsICc3LjAnLCAnLXRuJywgJzgnLCAnLW1hJywgJzIwMCcsICctbWV0YWxfYmluZGluZycsICctaW1hZScsICc8aW5maWxlLm1hZT4nLCAnLW9tYWUnLCAnPG91dGZpbGUubWFlPic=

> <r_epik_Ionization_Penalty>
3.16835

> <r_epik_Ionization_Penalty_Charging>
3.13468

> <r_epik_Ionization_Penalty_Neutral>
0.0336711

> <r_epik_State_Penalty>
3.95884

> <r_epik_Charging_Adjusted_Penalty>
7.09351

> <i_epik_Tot_Q>
0

> <i_epik_Tot_abs_Q>
2

> <r_epik_Metal_State_Penalty>
1.39003

> <b_epik_Metal_Only>
1

> <s_lp_Force_Field>
OPLS_2005

> <r_lp_Energy>
12.939

> <b_lp_Chiralities_Consistent>
1

> <s_lp_Variant>
AV-unprocessed.smi:1817-10

> <Gold.Version>
5.8.1

> <Gold.Id.Protein>
6NUR|6NUR_protein|mol2

> <Gold.PLP.Fitness>
47.0506

> <Gold.PLP.PLP>
-32.6943

> <Gold.PLP.part.hbond>
-4.6116

> <Gold.PLP.part.metal>
0.0000

> <Gold.PLP.part.buried>
-6.0960

> <Gold.PLP.part.nonpolar>
-22.8708

> <Gold.PLP.part.repulsive>
1.0857

> <Gold.PLP.ligand.clash>
0.0000

> <Gold.PLP.ligand.torsion>
1.3816

> <Gold.PLP.Chemscore.Hbond>
5.6500

> <Gold.PLP.Chemscore.CHOScore>
0.0000

> <Gold.PLP.Chemscore.Metal>
0.0000

> <Gold.Chemscore.Hbonds>
donor molecule, donor type, donor heavy atom, donor atom, acceptor molecule, acceptor atom, score
      L1  H     6    42       P1  7948  2.00
      L1  H    10    36       P1  7948  1.00

> <Gold.PLP.Chemscore.Internal.Correction>
0.1695

> <Gold.Rescore>
     Score         DG    S(hbond)    S(metal)    S(lipo)     H(rot)  DE(clash)    DE(int)     intcor
     12.14     -13.52       1.91        0.00      55.53       1.88       0.00       1.38       ----

> <Gold.Chemscore.Fitness>
12.1443

> <Gold.Chemscore.DG>
-13.5238

> <Gold.Chemscore.ZeroCoef>
-5.4800

> <Gold.Chemscore.Hbond>
1.9061

> <Gold.Chemscore.Metal>
0.0000

> <Gold.Chemscore.Lipo>
55.5257

> <Gold.Chemscore.Internal_Hbond>
0.0000

> <Gold.Chemscore.DEClash>
0.0000

> <Gold.Chemscore.DEInternal>
1.3795

> <Gold.Chemscore.Rot>
1.8825

> <Gold.Chemscore.Internal.Correction>
   9.000000E+99

> <Gold.Chemscore.Hbonds>
donor molecule, donor type, donor heavy atom, donor atom, acceptor molecule, acceptor atom, score
      L1  H     6    42       P1  7948  1.00
      L1  H    10    36       P1  7948  0.35

> <Gold.Chemscore.Hbond.Weighted>
-6.3665

> <Gold.Chemscore.Metal.Weighted>
-0.0000

> <Gold.Chemscore.Lipo.Weighted>
-6.4965

> <Gold.Chemscore.Internal_Hbond.Weighted>
0.0000

> <Gold.Chemscore.DEClash.Weighted>
0.0000

> <Gold.Chemscore.DEInternal.Weighted>
1.3795

> <Gold.Chemscore.Rot.Weighted>
4.8191

> <Gold.Chemscore.Internal.Correction.Weighted>
   9.000000E+99

> <Gold.Protein.RotatedTorsions>
[ 6907 6896 6895 6894 ] final -163.77 input  -60.11 | X-H torsion
[ 7974 7965 7964 7962 ] final  143.67 input  175.53 | X-H torsion
[ 8008 7997 7996 7995 ] final   -5.09 input   59.86 | X-H torsion
[ 10167 10162 10161 10158 ] final   18.96 input  -65.29 | X-H torsion
[ 10718 10713 10712 10709 ] final  142.52 input   66.30 | X-H torsion
[ 10763 10752 10751 10750 ] final   28.96 input  -60.55 | X-H torsion
[ 11005 11000 10999 10996 ] final  107.59 input  -57.11 | X-H torsion

> <Gold.Protein.ActiveResidues>
 VAL166  LYS551  ARG553  GLY616  TRP617  ASP618  TYR619  PRO620  LYS621  CYS622 
 ASP623  PHE694  ASN695  SER759  ASP760  ASP761  ALA762  ILE779  LEU786  VAL792 
 PHE793  MET794  SER795  GLU796  ALA797  LYS798  CYS799  TRP800  GLU811  SER814 

> <Gold.Protein.RotatedAtoms>
  151.4012  133.3757  159.2732 H   0  0  0  0  0  0  0  0  0  0  0  0  # atno 6907 bound_to 6896
  150.9432  134.8840  159.7636 H   0  0  0  0  0  0  0  0  0  0  0  0  # atno 6908 bound_to 6896
  152.5080  134.3964  159.9453 H   0  0  0  0  0  0  0  0  0  0  0  0  # atno 6909 bound_to 6896
  144.8901  139.5571  143.5802 H   0  0  0  0  0  0  0  0  0  0  0  0  # atno 7974 bound_to 7965
  154.6075  140.2467  155.7712 H   0  0  0  0  0  0  0  0  0  0  0  0  # atno 8008 bound_to 7997
  156.2350  140.2953  156.0239 H   0  0  0  0  0  0  0  0  0  0  0  0  # atno 8009 bound_to 7997
  155.2107  140.0397  157.2923 H   0  0  0  0  0  0  0  0  0  0  0  0  # atno 8010 bound_to 7997
  140.5615  143.9329  150.6646 H   0  0  0  0  0  0  0  0  0  0  0  0  # atno 10167 bound_to 10162
  157.3796  131.0990  151.0751 H   0  0  0  0  0  0  0  0  0  0  0  0  # atno 10718 bound_to 10713
  153.0459  135.6500  154.0818 H   0  0  0  0  0  0  0  0  0  0  0  0  # atno 10763 bound_to 10752
  154.0515  135.2895  155.3341 H   0  0  0  0  0  0  0  0  0  0  0  0  # atno 10764 bound_to 10752
  154.6716  135.5354  153.8212 H   0  0  0  0  0  0  0  0  0  0  0  0  # atno 10765 bound_to 10752
  139.8830  134.9405  156.5843 H   0  0  0  0  0  0  0  0  0  0  0  0  # atno 11005 bound_to 11000
  146.3048  139.7544  142.9064 LP  0  0  0  0  0  0  0  0  0  0  0  0  # atno 17320 bound_to 7965
  145.3799  141.0356  143.3183 LP  0  0  0  0  0  0  0  0  0  0  0  0  # atno 17321 bound_to 7965
  140.2781  143.3409  152.1176 LP  0  0  0  0  0  0  0  0  0  0  0  0  # atno 17342 bound_to 10162
  139.5072  144.6828  151.5965 LP  0  0  0  0  0  0  0  0  0  0  0  0  # atno 17343 bound_to 10162
  157.1825  130.6315  149.5676 LP  0  0  0  0  0  0  0  0  0  0  0  0  # atno 17370 bound_to 10713
  155.9773  130.4749  150.6583 LP  0  0  0  0  0  0  0  0  0  0  0  0  # atno 17371 bound_to 10713
  140.8004  133.8510  155.8721 LP  0  0  0  0  0  0  0  0  0  0  0  0  # atno 17394 bound_to 11000
  140.9598  134.1670  157.4663 LP  0  0  0  0  0  0  0  0  0  0  0  0  # atno 17395 bound_to 11000

$$$$
