AV-unprocessed.smi:1615|AV-procd|sdf|6481|dock3
  -GOLD-   22720 7143D 1   1.00000     0.00000
 Structure written by MMmdl.
 32 33  0  0  0  0  0  0  0  0  1 V2000
  151.3754  141.2151  156.1513 O   0  0  0  0  0  0  0  0  0  0  0  0
  150.5265  142.1031  156.0806 C   0  0  0  0  0  0  0  0  0  0  0  0
  149.3633  141.9690  155.0972 C   0  0  0  0  0  0  0  0  0  0  0  0
  149.1771  140.5858  154.6960 N   0  0  0  0  0  0  0  0  0  0  0  0
  148.1462  139.7293  155.0343 C   0  0  0  0  0  0  0  0  0  0  0  0
  148.4352  138.5516  154.4158 C   0  0  0  0  0  0  0  0  0  0  0  0
  147.4081  136.9517  154.4778 Br  0  0  0  0  0  0  0  0  0  0  0  0
  149.6530  138.7531  153.7180 C   0  0  0  0  0  0  0  0  0  0  0  0
  150.0958  139.9897  153.8923 N   0  0  0  0  0  0  0  0  0  0  0  0
  150.5446  143.2152  156.8324 N   0  0  0  0  0  0  0  0  0  0  0  0
  151.5299  143.5406  157.8594 C   0  0  0  0  0  0  0  0  0  0  0  0
  151.6282  142.3774  158.8646 C   0  0  0  0  0  0  0  0  0  0  0  0
  152.5855  142.7104  160.0203 C   0  0  0  0  0  0  0  0  0  0  0  0
  152.1776  144.0144  160.7235 C   0  0  0  0  0  0  0  0  0  0  0  0
  152.0926  145.1781  159.7235 C   0  0  0  0  0  0  0  0  0  0  0  0
  151.1341  144.8510  158.5667 C   0  0  0  0  0  0  0  0  0  0  0  0
  148.4408  142.3329  155.5519 H   0  0  0  0  0  0  0  0  0  0  0  0
  149.5486  142.5823  154.2138 H   0  0  0  0  0  0  0  0  0  0  0  0
  147.3232  140.0243  155.6684 H   0  0  0  0  0  0  0  0  0  0  0  0
  150.2162  138.0634  153.1069 H   0  0  0  0  0  0  0  0  0  0  0  0
  149.8042  143.8873  156.6927 H   0  0  0  0  0  0  0  0  0  0  0  0
  152.5147  143.6825  157.4106 H   0  0  0  0  0  0  0  0  0  0  0  0
  150.6403  142.1531  159.2694 H   0  0  0  0  0  0  0  0  0  0  0  0
  151.9660  141.4731  158.3567 H   0  0  0  0  0  0  0  0  0  0  0  0
  152.6014  141.8899  160.7380 H   0  0  0  0  0  0  0  0  0  0  0  0
  153.6021  142.8053  159.6365 H   0  0  0  0  0  0  0  0  0  0  0  0
  151.2121  143.8804  161.2128 H   0  0  0  0  0  0  0  0  0  0  0  0
  152.8932  144.2521  161.5112 H   0  0  0  0  0  0  0  0  0  0  0  0
  151.7641  146.0839  160.2336 H   0  0  0  0  0  0  0  0  0  0  0  0
  153.0858  145.3905  159.3255 H   0  0  0  0  0  0  0  0  0  0  0  0
  151.1277  145.6742  157.8511 H   0  0  0  0  0  0  0  0  0  0  0  0
  150.1175  144.7703  158.9542 H   0  0  0  0  0  0  0  0  0  0  0  0
  1  2  2  0  0  0  0
  2  3  1  0  0  0  0
  2 10  1  0  0  0  0
  3  4  1  0  0  0  0
  3 17  1  0  0  0  0
  3 18  1  0  0  0  0
  4  9  1  0  0  0  0
  4  5  1  0  0  0  0
  5  6  2  0  0  0  0
  5 19  1  0  0  0  0
  6  7  1  0  0  0  0
  6  8  1  0  0  0  0
  8  9  2  0  0  0  0
  8 20  1  0  0  0  0
 10 11  1  0  0  0  0
 10 21  1  0  0  0  0
 11 16  1  0  0  0  0
 11 12  1  0  0  0  0
 11 22  1  0  0  0  0
 12 13  1  0  0  0  0
 12 23  1  0  0  0  0
 12 24  1  0  0  0  0
 13 14  1  0  0  0  0
 13 25  1  0  0  0  0
 13 26  1  0  0  0  0
 14 15  1  0  0  0  0
 14 27  1  0  0  0  0
 14 28  1  0  0  0  0
 15 16  1  0  0  0  0
 15 29  1  0  0  0  0
 15 30  1  0  0  0  0
 16 31  1  0  0  0  0
 16 32  1  0  0  0  0
M  END
> <s_m_source_file>
AV-unprocessed.smi

> <i_m_source_file_index>
1615

> <i_lp_mmshare_version>
43012

> <i_f3d_flags>
0

> <s_epik_input>
bjFbY0hdYyhCcilbY0hdbjFbQ0gyXUMoPU8pW05IXVtDSF0yW0NIMl1bQ0gyXVtDSDJdW0NIMl1bQ0gyXTI=

> <s_epik_cmdline>
J2VwaWtfcHl0aG9uJywgJy1waCcsICc3LjAnLCAnLXRuJywgJzgnLCAnLW1hJywgJzIwMCcsICctbWV0YWxfYmluZGluZycsICctaW1hZScsICc8aW5maWxlLm1hZT4nLCAnLW9tYWUnLCAnPG91dGZpbGUubWFlPic=

> <r_lp_tautomer_probability>
1

> <r_epik_Ionization_Penalty>
2.45271e-07

> <r_epik_Ionization_Penalty_Charging>
0

> <r_epik_Ionization_Penalty_Neutral>
2.45271e-07

> <r_epik_State_Penalty>
-0

> <r_epik_Charging_Adjusted_Penalty>
0

> <i_epik_Tot_Q>
0

> <i_epik_Tot_abs_Q>
0

> <r_epik_Metal_State_Penalty>
-0

> <b_epik_Metal_Only>
0

> <s_lp_Force_Field>
OPLS_2005

> <r_lp_Energy>
11.9835

> <b_lp_Chiralities_Consistent>
1

> <s_lp_Variant>
AV-unprocessed.smi:1615-1

> <Gold.Version>
5.8.1

> <Gold.Id.Protein>
6NUR|6NUR_protein|mol2

> <Gold.PLP.Fitness>
41.6015

> <Gold.PLP.PLP>
-34.0123

> <Gold.PLP.part.hbond>
-2.0000

> <Gold.PLP.part.metal>
0.0000

> <Gold.PLP.part.buried>
-2.5073

> <Gold.PLP.part.nonpolar>
-29.2589

> <Gold.PLP.part.repulsive>
0.3732

> <Gold.PLP.ligand.clash>
0.0000

> <Gold.PLP.ligand.torsion>
0.4108

> <Gold.PLP.Chemscore.Hbond>
2.0000

> <Gold.PLP.Chemscore.CHOScore>
0.8012

> <Gold.PLP.Chemscore.Metal>
0.0000

> <Gold.Chemscore.Hbonds>
donor molecule, donor type, donor heavy atom, donor atom, acceptor molecule, acceptor atom, score
      L1  H    10    21       P1  8028  0.98
      P1  H  7989  7998       L1     9  0.90
      L1  C     8    20       P1  7948  0.76
      L1  C     8    20       P1  7949  0.10
      L1  C     8    20       P1  7957  0.01

> <Gold.PLP.Chemscore.Internal.Correction>
0.0071

> <Gold.Rescore>
     Score         DG    S(hbond)    S(metal)    S(lipo)     H(rot)  DE(clash)    DE(int)     intcor
     15.61     -18.90       1.78        0.00      94.59       1.40       0.32       2.98       ----

> <Gold.Chemscore.Fitness>
15.6070

> <Gold.Chemscore.DG>
-18.9044

> <Gold.Chemscore.ZeroCoef>
-5.4800

> <Gold.Chemscore.Hbond>
1.7762

> <Gold.Chemscore.Metal>
0.0000

> <Gold.Chemscore.Lipo>
94.5857

> <Gold.Chemscore.Internal_Hbond>
0.0000

> <Gold.Chemscore.DEClash>
0.3216

> <Gold.Chemscore.DEInternal>
2.9758

> <Gold.Chemscore.Rot>
1.3963

> <Gold.Chemscore.Internal.Correction>
   9.000000E+99

> <Gold.Chemscore.Hbonds>
donor molecule, donor type, donor heavy atom, donor atom, acceptor molecule, acceptor atom, score
      L1  H    10    21       P1  8028  0.91
      P1  H  7989  7998       L1     9  0.86

> <Gold.Chemscore.Hbond.Weighted>
-5.9324

> <Gold.Chemscore.Metal.Weighted>
-0.0000

> <Gold.Chemscore.Lipo.Weighted>
-11.0665

> <Gold.Chemscore.Internal_Hbond.Weighted>
0.0000

> <Gold.Chemscore.DEClash.Weighted>
0.3216

> <Gold.Chemscore.DEInternal.Weighted>
2.9758

> <Gold.Chemscore.Rot.Weighted>
3.5746

> <Gold.Chemscore.Internal.Correction.Weighted>
   9.000000E+99

> <Gold.Protein.RotatedTorsions>
[ 6907 6896 6895 6894 ] final   -9.04 input  -60.11 | X-H torsion
[ 7974 7965 7964 7962 ] final  -68.50 input  175.53 | X-H torsion
[ 8008 7997 7996 7995 ] final -179.89 input   59.86 | X-H torsion
[ 10167 10162 10161 10158 ] final -153.13 input  -65.29 | X-H torsion
[ 10718 10713 10712 10709 ] final   33.04 input   66.30 | X-H torsion
[ 10763 10752 10751 10750 ] final  -21.28 input  -60.55 | X-H torsion
[ 11005 11000 10999 10996 ] final  -16.46 input  -57.11 | X-H torsion

> <Gold.Protein.ActiveResidues>
 VAL166  LYS551  ARG553  GLY616  TRP617  ASP618  TYR619  PRO620  LYS621  CYS622 
 ASP623  PHE694  ASN695  SER759  ASP760  ASP761  ALA762  ILE779  LEU786  VAL792 
 PHE793  MET794  SER795  GLU796  ALA797  LYS798  CYS799  TRP800  GLU811  SER814 

> <Gold.Protein.RotatedAtoms>
  151.4241  135.1001  159.9622 H   0  0  0  0  0  0  0  0  0  0  0  0  # atno 6907 bound_to 6896
  152.4978  133.8679  159.7294 H   0  0  0  0  0  0  0  0  0  0  0  0  # atno 6908 bound_to 6896
  150.9202  133.6832  159.2862 H   0  0  0  0  0  0  0  0  0  0  0  0  # atno 6909 bound_to 6896
  145.7157  140.9059  143.0657 H   0  0  0  0  0  0  0  0  0  0  0  0  # atno 7974 bound_to 7965
  156.0358  140.1292  157.0210 H   0  0  0  0  0  0  0  0  0  0  0  0  # atno 8008 bound_to 7997
  154.4369  140.1040  156.6235 H   0  0  0  0  0  0  0  0  0  0  0  0  # atno 8009 bound_to 7997
  155.5740  140.3467  155.4525 H   0  0  0  0  0  0  0  0  0  0  0  0  # atno 8010 bound_to 7997
  139.7123  143.9089  152.2473 H   0  0  0  0  0  0  0  0  0  0  0  0  # atno 10167 bound_to 10162
  157.2928  130.7311  149.6621 H   0  0  0  0  0  0  0  0  0  0  0  0  # atno 10718 bound_to 10713
  153.6337  135.6988  153.5266 H   0  0  0  0  0  0  0  0  0  0  0  0  # atno 10763 bound_to 10752
  153.2839  135.4177  155.1104 H   0  0  0  0  0  0  0  0  0  0  0  0  # atno 10764 bound_to 10752
  154.8516  135.3608  154.5880 H   0  0  0  0  0  0  0  0  0  0  0  0  # atno 10765 bound_to 10752
  140.8070  133.8169  155.9526 H   0  0  0  0  0  0  0  0  0  0  0  0  # atno 11005 bound_to 11000
  144.6930  139.9135  143.7464 LP  0  0  0  0  0  0  0  0  0  0  0  0  # atno 17320 bound_to 7965
  146.0671  139.3662  143.0545 LP  0  0  0  0  0  0  0  0  0  0  0  0  # atno 17321 bound_to 7965
  139.8961  144.6938  150.8716 LP  0  0  0  0  0  0  0  0  0  0  0  0  # atno 17342 bound_to 10162
  140.7736  143.3549  151.1941 LP  0  0  0  0  0  0  0  0  0  0  0  0  # atno 17343 bound_to 10162
  155.9668  130.4303  150.4872 LP  0  0  0  0  0  0  0  0  0  0  0  0  # atno 17370 bound_to 10713
  157.2838  131.0612  151.2180 LP  0  0  0  0  0  0  0  0  0  0  0  0  # atno 17371 bound_to 10713
  140.9236  134.2110  157.4910 LP  0  0  0  0  0  0  0  0  0  0  0  0  # atno 17394 bound_to 11000
  139.8717  134.9803  156.5070 LP  0  0  0  0  0  0  0  0  0  0  0  0  # atno 17395 bound_to 11000

$$$$
