AV-unprocessed.smi:1617|AV-procd|sdf|6485|dock2
  -GOLD-   22720 7143D 1   1.00000     0.00000
 Structure written by MMmdl.
 47 49  0  0  0  0  0  0  0  0  1 V2000
  149.2380  135.3975  156.3358 O   0  0  0  0  0  0  0  0  0  0  0  0
  149.2920  135.6947  155.1426 C   0  0  0  0  0  0  0  0  0  0  0  0
  149.7046  136.8760  154.6525 N   0  0  0  0  0  0  0  0  0  0  0  0
  150.1903  138.0072  155.3619 C   0  0  0  0  0  0  0  0  0  0  0  0
  151.2495  138.7403  154.7935 C   0  0  0  0  0  0  0  0  0  0  0  0
  151.7625  139.8561  155.4809 C   0  0  0  0  0  0  0  0  0  0  0  0
  151.2069  140.2105  156.7327 C   0  0  0  0  0  0  0  0  0  0  0  0
  151.7034  141.3273  157.4396 N   0  0  0  0  0  0  0  0  0  0  0  0
  150.8891  142.5378  157.3637 C   0  0  0  0  0  0  0  0  0  0  0  0
  151.6755  143.7467  157.8999 C   0  0  0  0  0  0  0  0  0  0  0  0
  152.1407  143.4746  159.2176 O   0  0  0  0  0  0  0  0  0  0  0  0
  153.0230  142.3575  159.2467 C   0  0  0  0  0  0  0  0  0  0  0  0
  152.2821  141.0998  158.7626 C   0  0  0  0  0  0  0  0  0  0  0  0
  150.2021  139.4911  157.2898 N   0  0  0  0  0  0  0  0  0  0  0  0
  149.7100  138.4237  156.6259 C   0  0  0  0  0  0  0  0  0  0  0  0
  148.9210  134.8651  154.1559 N   0  0  0  0  0  0  0  0  0  0  0  0
  148.4380  133.4939  154.3360 C   0  0  1  0  0  0  0  0  0  0  0  0
  148.2566  132.8740  152.9315 C   0  0  0  0  0  0  0  0  0  0  0  0
  147.2801  131.6855  152.8995 C   0  0  0  0  0  0  0  0  0  0  0  0
  147.7368  130.4490  153.6880 C   0  0  0  0  0  0  0  0  0  0  0  0
  147.8951  130.7011  155.1973 C   0  0  0  0  0  0  0  0  0  0  0  0
  149.1297  131.4089  155.5088 N   0  0  0  0  0  0  0  0  0  0  0  0
  149.4621  132.6536  155.1342 C   0  0  0  0  0  0  0  0  0  0  0  0
  150.5680  133.1134  155.4186 O   0  0  0  0  0  0  0  0  0  0  0  0
  149.6152  136.9976  153.6543 H   0  0  0  0  0  0  0  0  0  0  0  0
  151.6669  138.4544  153.8391 H   0  0  0  0  0  0  0  0  0  0  0  0
  152.5805  140.4135  155.0500 H   0  0  0  0  0  0  0  0  0  0  0  0
  150.5690  142.7474  156.3442 H   0  0  0  0  0  0  0  0  0  0  0  0
  149.9850  142.3897  157.9557 H   0  0  0  0  0  0  0  0  0  0  0  0
  152.5171  143.9828  157.2466 H   0  0  0  0  0  0  0  0  0  0  0  0
  151.0356  144.6287  157.9243 H   0  0  0  0  0  0  0  0  0  0  0  0
  153.8993  142.5558  158.6273 H   0  0  0  0  0  0  0  0  0  0  0  0
  153.3804  142.2129  160.2663 H   0  0  0  0  0  0  0  0  0  0  0  0
  151.4884  140.8404  159.4647 H   0  0  0  0  0  0  0  0  0  0  0  0
  152.9783  140.2607  158.7308 H   0  0  0  0  0  0  0  0  0  0  0  0
  148.9289  137.8920  157.1461 H   0  0  0  0  0  0  0  0  0  0  0  0
  149.0005  135.1942  153.2051 H   0  0  0  0  0  0  0  0  0  0  0  0
  147.4818  133.5193  154.8622 H   0  0  0  0  0  0  0  0  0  0  0  0
  147.8558  133.6327  152.2572 H   0  0  0  0  0  0  0  0  0  0  0  0
  149.2185  132.5846  152.5040 H   0  0  0  0  0  0  0  0  0  0  0  0
  146.3049  132.0086  153.2656 H   0  0  0  0  0  0  0  0  0  0  0  0
  147.1234  131.3935  151.8607 H   0  0  0  0  0  0  0  0  0  0  0  0
  146.9932  129.6642  153.5458 H   0  0  0  0  0  0  0  0  0  0  0  0
  148.6664  130.0579  153.2717 H   0  0  0  0  0  0  0  0  0  0  0  0
  147.0343  131.2351  155.6022 H   0  0  0  0  0  0  0  0  0  0  0  0
  147.9348  129.7441  155.7177 H   0  0  0  0  0  0  0  0  0  0  0  0
  149.8167  130.8925  156.0390 H   0  0  0  0  0  0  0  0  0  0  0  0
  1  2  2  0  0  0  0
  2  3  1  0  0  0  0
  2 16  1  0  0  0  0
  3  4  1  0  0  0  0
  3 25  1  0  0  0  0
  4 15  1  0  0  0  0
  4  5  2  0  0  0  0
  5  6  1  0  0  0  0
  5 26  1  0  0  0  0
  6  7  2  0  0  0  0
  6 27  1  0  0  0  0
  7  8  1  0  0  0  0
  7 14  1  0  0  0  0
  8 13  1  0  0  0  0
  8  9  1  0  0  0  0
  9 10  1  0  0  0  0
  9 28  1  0  0  0  0
  9 29  1  0  0  0  0
 10 11  1  0  0  0  0
 10 30  1  0  0  0  0
 10 31  1  0  0  0  0
 11 12  1  0  0  0  0
 12 13  1  0  0  0  0
 12 32  1  0  0  0  0
 12 33  1  0  0  0  0
 13 34  1  0  0  0  0
 13 35  1  0  0  0  0
 14 15  2  0  0  0  0
 15 36  1  0  0  0  0
 16 17  1  0  0  0  0
 16 37  1  0  0  0  0
 17 23  1  0  0  0  0
 17 18  1  0  0  0  0
 17 38  1  0  0  0  0
 18 19  1  0  0  0  0
 18 39  1  0  0  0  0
 18 40  1  0  0  0  0
 19 20  1  0  0  0  0
 19 41  1  0  0  0  0
 19 42  1  0  0  0  0
 20 21  1  0  0  0  0
 20 43  1  0  0  0  0
 20 44  1  0  0  0  0
 21 22  1  0  0  0  0
 21 45  1  0  0  0  0
 21 46  1  0  0  0  0
 22 23  1  0  0  0  0
 22 47  1  0  0  0  0
 23 24  2  0  0  0  0
M  END
> <s_m_source_file>
AV-unprocessed.smi

> <i_m_source_file_index>
1617

> <i_lp_mmshare_version>
43012

> <i_f3d_flags>
0

> <s_epik_input>
Tz1DMVtOSF1bQ0gyXVtDSDJdW0NIMl1bQ0gyXVtDQEhdMVtOSF1DKD1PKVtOSF1jMltjSF1bY0hdYyhuW2NIXTIpTjNbQ0gyXVtDSDJdT1tDSDJdW0NIMl0z

> <s_epik_cmdline>
J2VwaWtfcHl0aG9uJywgJy1waCcsICc3LjAnLCAnLXRuJywgJzgnLCAnLW1hJywgJzIwMCcsICctbWV0YWxfYmluZGluZycsICctaW1hZScsICc8aW5maWxlLm1hZT4nLCAnLW9tYWUnLCAnPG91dGZpbGUubWFlPic=

> <r_lp_tautomer_probability>
1

> <r_epik_Ionization_Penalty>
0.00171733

> <r_epik_Ionization_Penalty_Charging>
0

> <r_epik_Ionization_Penalty_Neutral>
0.00171733

> <r_epik_State_Penalty>
0.00113787

> <r_epik_Charging_Adjusted_Penalty>
0.00113787

> <i_epik_Tot_Q>
0

> <i_epik_Tot_abs_Q>
0

> <r_epik_Metal_State_Penalty>
-0

> <b_epik_Metal_Only>
0

> <s_lp_Force_Field>
OPLS_2005

> <r_lp_Energy>
26.8457

> <b_lp_Chiralities_Consistent>
1

> <s_lp_Variant>
AV-unprocessed.smi:1617-2

> <Gold.Version>
5.8.1

> <Gold.Id.Protein>
6NUR|6NUR_protein|mol2

> <Gold.PLP.Fitness>
40.7355

> <Gold.PLP.PLP>
-35.5593

> <Gold.PLP.part.hbond>
-2.0000

> <Gold.PLP.part.metal>
0.0000

> <Gold.PLP.part.buried>
-1.7805

> <Gold.PLP.part.nonpolar>
-31.0420

> <Gold.PLP.part.repulsive>
0.0714

> <Gold.PLP.ligand.clash>
0.0000

> <Gold.PLP.ligand.torsion>
0.5474

> <Gold.PLP.Chemscore.Hbond>
1.9760

> <Gold.PLP.Chemscore.CHOScore>
0.0000

> <Gold.PLP.Chemscore.Metal>
0.0000

> <Gold.Chemscore.Hbonds>
donor molecule, donor type, donor heavy atom, donor atom, acceptor molecule, acceptor atom, score
      L1  H     3    25       P1  7948  0.96
      L1  H    16    37       P1  7948  1.00

> <Gold.PLP.Chemscore.Internal.Correction>
0.3430

> <Gold.Rescore>
     Score         DG    S(hbond)    S(metal)    S(lipo)     H(rot)  DE(clash)    DE(int)     intcor
     13.06     -17.79       1.82        0.00      81.07       1.27       0.01       4.72       ----

> <Gold.Chemscore.Fitness>
13.0600

> <Gold.Chemscore.DG>
-17.7931

> <Gold.Chemscore.ZeroCoef>
-5.4800

> <Gold.Chemscore.Hbond>
1.8189

> <Gold.Chemscore.Metal>
0.0000

> <Gold.Chemscore.Lipo>
81.0683

> <Gold.Chemscore.Internal_Hbond>
0.0000

> <Gold.Chemscore.DEClash>
0.0150

> <Gold.Chemscore.DEInternal>
4.7181

> <Gold.Chemscore.Rot>
1.2684

> <Gold.Chemscore.Internal.Correction>
   9.000000E+99

> <Gold.Chemscore.Hbonds>
donor molecule, donor type, donor heavy atom, donor atom, acceptor molecule, acceptor atom, score
      L1  H     3    25       P1  7948  0.68
      L1  H    16    37       P1  7948  0.35

> <Gold.Chemscore.Hbond.Weighted>
-6.0752

> <Gold.Chemscore.Metal.Weighted>
-0.0000

> <Gold.Chemscore.Lipo.Weighted>
-9.4850

> <Gold.Chemscore.Internal_Hbond.Weighted>
0.0000

> <Gold.Chemscore.DEClash.Weighted>
0.0150

> <Gold.Chemscore.DEInternal.Weighted>
4.7181

> <Gold.Chemscore.Rot.Weighted>
3.2471

> <Gold.Chemscore.Internal.Correction.Weighted>
   9.000000E+99

> <Gold.Protein.RotatedTorsions>
[ 6907 6896 6895 6894 ] final   18.24 input  -60.11 | X-H torsion
[ 7974 7965 7964 7962 ] final -139.89 input  175.53 | X-H torsion
[ 8008 7997 7996 7995 ] final  -61.97 input   59.86 | X-H torsion
[ 10167 10162 10161 10158 ] final   10.41 input  -65.29 | X-H torsion
[ 10718 10713 10712 10709 ] final   -3.87 input   66.30 | X-H torsion
[ 10763 10752 10751 10750 ] final  -21.39 input  -60.55 | X-H torsion
[ 11005 11000 10999 10996 ] final   13.81 input  -57.11 | X-H torsion

> <Gold.Protein.ActiveResidues>
 VAL166  LYS551  ARG553  GLY616  TRP617  ASP618  TYR619  PRO620  LYS621  CYS622 
 ASP623  PHE694  ASN695  SER759  ASP760  ASP761  ALA762  ILE779  LEU786  VAL792 
 PHE793  MET794  SER795  GLU796  ALA797  LYS798  CYS799  TRP800  GLU811  SER814 

> <Gold.Protein.RotatedAtoms>
  151.8622  135.0520  160.0470 H   0  0  0  0  0  0  0  0  0  0  0  0  # atno 6907 bound_to 6896
  152.2654  133.5330  159.5415 H   0  0  0  0  0  0  0  0  0  0  0  0  # atno 6908 bound_to 6896
  150.7131  134.0688  159.3899 H   0  0  0  0  0  0  0  0  0  0  0  0  # atno 6909 bound_to 6896
  144.8640  140.6265  143.5309 H   0  0  0  0  0  0  0  0  0  0  0  0  # atno 7974 bound_to 7965
  154.4475  140.1006  156.6515 H   0  0  0  0  0  0  0  0  0  0  0  0  # atno 8008 bound_to 7997
  155.5393  140.3483  155.4424 H   0  0  0  0  0  0  0  0  0  0  0  0  # atno 8009 bound_to 7997
  156.0609  140.1326  156.9931 H   0  0  0  0  0  0  0  0  0  0  0  0  # atno 8010 bound_to 7997
  140.6196  143.8234  150.7159 H   0  0  0  0  0  0  0  0  0  0  0  0  # atno 10167 bound_to 10162
  156.7697  130.5296  149.5769 H   0  0  0  0  0  0  0  0  0  0  0  0  # atno 10718 bound_to 10713
  153.6354  135.6987  153.5260 H   0  0  0  0  0  0  0  0  0  0  0  0  # atno 10763 bound_to 10752
  153.2826  135.4181  155.1092 H   0  0  0  0  0  0  0  0  0  0  0  0  # atno 10764 bound_to 10752
  154.8512  135.3605  154.5897 H   0  0  0  0  0  0  0  0  0  0  0  0  # atno 10765 bound_to 10752
  140.4765  134.0978  155.7742 H   0  0  0  0  0  0  0  0  0  0  0  0  # atno 11005 bound_to 11000
  145.4256  139.1557  143.4050 LP  0  0  0  0  0  0  0  0  0  0  0  0  # atno 17320 bound_to 7965
  146.2882  140.4369  142.8749 LP  0  0  0  0  0  0  0  0  0  0  0  0  # atno 17321 bound_to 7965
  140.1821  143.4106  152.1925 LP  0  0  0  0  0  0  0  0  0  0  0  0  # atno 17342 bound_to 10162
  139.5427  144.7271  151.4681 LP  0  0  0  0  0  0  0  0  0  0  0  0  # atno 17343 bound_to 10162
  156.1286  130.6161  151.0300 LP  0  0  0  0  0  0  0  0  0  0  0  0  # atno 17370 bound_to 10713
  157.6697  131.0864  150.7643 LP  0  0  0  0  0  0  0  0  0  0  0  0  # atno 17371 bound_to 10713
  141.1552  133.8896  157.1996 LP  0  0  0  0  0  0  0  0  0  0  0  0  # atno 17394 bound_to 11000
  139.9853  135.0084  156.9847 LP  0  0  0  0  0  0  0  0  0  0  0  0  # atno 17395 bound_to 11000

$$$$
