AV-unprocessed.smi:1610|AV-procd|sdf|6470|dock10
  -GOLD-   22720 7123D 1   1.00000     0.00000
 Structure written by MMmdl.
 44 45  0  0  0  0  0  0  0  0  1 V2000
  144.5423  135.5444  150.5120 C   0  0  0  0  0  0  0  0  0  0  0  0
  144.6116  135.5779  152.3498 S   0  0  0  0  0  0  0  0  0  0  0  0
  143.4554  136.3347  152.8541 O   0  0  0  0  0  0  0  0  0  0  0  0
  144.8718  134.2116  152.8272 O   0  0  0  0  0  0  0  0  0  0  0  0
  146.0293  136.5096  152.6628 N   0  0  0  0  0  0  0  0  0  0  0  0
  145.9380  137.9101  153.0794 C   0  0  0  0  0  0  0  0  0  0  0  0
  146.7070  138.8122  152.0925 C   0  0  0  0  0  0  0  0  0  0  0  0
  146.7655  140.2622  152.6073 C   0  0  0  0  0  0  0  0  0  0  0  0
  147.3699  140.2683  153.9516 N   0  0  0  0  0  0  0  0  0  0  0  0
  148.6220  140.6860  154.2678 C   0  0  0  0  0  0  0  0  0  0  0  0
  149.5149  140.8341  153.4319 O   0  0  0  0  0  0  0  0  0  0  0  0
  148.8316  140.8991  155.5782 N   0  0  0  0  0  0  0  0  0  0  0  0
  150.0917  141.3364  156.1672 C   0  0  0  0  0  0  0  0  0  0  0  0
  149.9747  141.5019  157.6909 C   0  0  0  0  0  0  0  0  0  0  0  0
  151.2420  142.0646  158.3025 C   0  0  0  0  0  0  0  0  0  0  0  0
  151.9724  141.3270  159.2569 C   0  0  0  0  0  0  0  0  0  0  0  0
  153.1430  141.8915  159.7991 C   0  0  0  0  0  0  0  0  0  0  0  0
  153.5334  143.1733  159.3628 C   0  0  0  0  0  0  0  0  0  0  0  0
  152.8411  143.8893  158.4506 N   0  0  0  0  0  0  0  0  0  0  0  0
  151.7198  143.3406  157.9355 C   0  0  0  0  0  0  0  0  0  0  0  0
  146.5255  139.5532  154.9179 C   0  0  0  0  0  0  0  0  0  0  0  0
  146.4587  138.0673  154.5216 C   0  0  0  0  0  0  0  0  0  0  0  0
  143.6844  134.9520  150.1943 H   0  0  0  0  0  0  0  0  0  0  0  0
  145.4554  135.0971  150.1199 H   0  0  0  0  0  0  0  0  0  0  0  0
  144.4395  136.5591  150.1285 H   0  0  0  0  0  0  0  0  0  0  0  0
  146.8357  136.2691  152.0868 H   0  0  0  0  0  0  0  0  0  0  0  0
  144.8897  138.2113  153.0692 H   0  0  0  0  0  0  0  0  0  0  0  0
  147.7232  138.4377  151.9594 H   0  0  0  0  0  0  0  0  0  0  0  0
  146.2342  138.7841  151.1103 H   0  0  0  0  0  0  0  0  0  0  0  0
  147.2871  140.8875  151.8830 H   0  0  0  0  0  0  0  0  0  0  0  0
  145.7571  140.6738  152.6686 H   0  0  0  0  0  0  0  0  0  0  0  0
  148.0603  140.7464  156.2115 H   0  0  0  0  0  0  0  0  0  0  0  0
  150.8520  140.5915  155.9308 H   0  0  0  0  0  0  0  0  0  0  0  0
  150.4164  142.2695  155.7036 H   0  0  0  0  0  0  0  0  0  0  0  0
  149.1434  142.1636  157.9384 H   0  0  0  0  0  0  0  0  0  0  0  0
  149.7511  140.5408  158.1560 H   0  0  0  0  0  0  0  0  0  0  0  0
  151.6422  140.3473  159.5695 H   0  0  0  0  0  0  0  0  0  0  0  0
  153.7273  141.3555  160.5322 H   0  0  0  0  0  0  0  0  0  0  0  0
  154.4255  143.6360  159.7581 H   0  0  0  0  0  0  0  0  0  0  0  0
  151.1874  143.9388  157.2106 H   0  0  0  0  0  0  0  0  0  0  0  0
  146.8827  139.6498  155.9440 H   0  0  0  0  0  0  0  0  0  0  0  0
  145.5244  139.9865  154.9141 H   0  0  0  0  0  0  0  0  0  0  0  0
  145.8147  137.5243  155.2143 H   0  0  0  0  0  0  0  0  0  0  0  0
  147.4528  137.6259  154.6103 H   0  0  0  0  0  0  0  0  0  0  0  0
  1  2  1  0  0  0  0
  1 23  1  0  0  0  0
  1 24  1  0  0  0  0
  1 25  1  0  0  0  0
  2  3  2  0  0  0  0
  2  4  2  0  0  0  0
  2  5  1  0  0  0  0
  5  6  1  0  0  0  0
  5 26  1  0  0  0  0
  6 22  1  0  0  0  0
  6  7  1  0  0  0  0
  6 27  1  0  0  0  0
  7  8  1  0  0  0  0
  7 28  1  0  0  0  0
  7 29  1  0  0  0  0
  8  9  1  0  0  0  0
  8 30  1  0  0  0  0
  8 31  1  0  0  0  0
  9 10  1  0  0  0  0
  9 21  1  0  0  0  0
 10 11  2  0  0  0  0
 10 12  1  0  0  0  0
 12 13  1  0  0  0  0
 12 32  1  0  0  0  0
 13 14  1  0  0  0  0
 13 33  1  0  0  0  0
 13 34  1  0  0  0  0
 14 15  1  0  0  0  0
 14 35  1  0  0  0  0
 14 36  1  0  0  0  0
 15 20  1  0  0  0  0
 15 16  2  0  0  0  0
 16 17  1  0  0  0  0
 16 37  1  0  0  0  0
 17 18  2  0  0  0  0
 17 38  1  0  0  0  0
 18 19  1  0  0  0  0
 18 39  1  0  0  0  0
 19 20  2  0  0  0  0
 20 40  1  0  0  0  0
 21 22  1  0  0  0  0
 21 41  1  0  0  0  0
 21 42  1  0  0  0  0
 22 43  1  0  0  0  0
 22 44  1  0  0  0  0
M  END
> <s_m_source_file>
AV-unprocessed.smi

> <i_m_source_file_index>
1610

> <i_lp_mmshare_version>
43012

> <i_f3d_flags>
0

> <s_epik_input>
W0NIM11TKD1PKSg9TylbTkhdW0NIXTFbQ0gyXVtDSDJdTihbQ0gyXVtDSDJdMSlDKD1PKVtOSF1bQ0gyXVtDSDJdYzJbY0hdW2NIXVtjSF1uW2NIXTI=

> <s_epik_cmdline>
J2VwaWtfcHl0aG9uJywgJy1waCcsICc3LjAnLCAnLXRuJywgJzgnLCAnLW1hJywgJzIwMCcsICctbWV0YWxfYmluZGluZycsICctaW1hZScsICc8aW5maWxlLm1hZT4nLCAnLW9tYWUnLCAnPG91dGZpbGUubWFlPic=

> <r_epik_Ionization_Penalty>
0.0145188

> <r_epik_Ionization_Penalty_Charging>
0

> <r_epik_Ionization_Penalty_Neutral>
0.0145188

> <r_epik_State_Penalty>
0.0113046

> <r_epik_Charging_Adjusted_Penalty>
0.0113046

> <i_epik_Tot_Q>
0

> <i_epik_Tot_abs_Q>
0

> <r_epik_Metal_State_Penalty>
0.0179141

> <b_epik_Metal_Only>
0

> <s_lp_Force_Field>
OPLS_2005

> <r_lp_Energy>
22.3117

> <b_lp_Chiralities_Consistent>
1

> <s_lp_Variant>
AV-unprocessed.smi:1610-1

> <Gold.Version>
5.8.1

> <Gold.Id.Protein>
6NUR|6NUR_protein|mol2

> <Gold.PLP.Fitness>
44.5413

> <Gold.PLP.PLP>
-35.4234

> <Gold.PLP.part.hbond>
-3.0000

> <Gold.PLP.part.metal>
0.0000

> <Gold.PLP.part.buried>
-2.5612

> <Gold.PLP.part.nonpolar>
-34.9053

> <Gold.PLP.part.repulsive>
5.5179

> <Gold.PLP.ligand.clash>
0.0000

> <Gold.PLP.ligand.torsion>
0.7452

> <Gold.PLP.Chemscore.Hbond>
2.1724

> <Gold.PLP.Chemscore.CHOScore>
1.0000

> <Gold.PLP.Chemscore.Metal>
0.0000

> <Gold.Chemscore.Hbonds>
donor molecule, donor type, donor heavy atom, donor atom, acceptor molecule, acceptor atom, score
      L1  H     5    26       P1  7948  0.79
      P1  H  7989  7998       L1    11  0.27
      P1  H  8011  8017       L1    11  1.00
      L1  C    20    40       P1  8028  0.18

> <Gold.PLP.Chemscore.Internal.Correction>
1.0912

> <Gold.Rescore>
     Score         DG    S(hbond)    S(metal)    S(lipo)     H(rot)  DE(clash)    DE(int)     intcor
     16.96     -19.62       2.22        0.00      95.32       1.73       1.75       0.92       ----

> <Gold.Chemscore.Fitness>
16.9590

> <Gold.Chemscore.DG>
-19.6247

> <Gold.Chemscore.ZeroCoef>
-5.4800

> <Gold.Chemscore.Hbond>
2.2199

> <Gold.Chemscore.Metal>
0.0000

> <Gold.Chemscore.Lipo>
95.3226

> <Gold.Chemscore.Internal_Hbond>
0.0000

> <Gold.Chemscore.DEClash>
1.7468

> <Gold.Chemscore.DEInternal>
0.9188

> <Gold.Chemscore.Rot>
1.7276

> <Gold.Chemscore.Internal.Correction>
   9.000000E+99

> <Gold.Chemscore.Hbonds>
donor molecule, donor type, donor heavy atom, donor atom, acceptor molecule, acceptor atom, score
      L1  H     5    26       P1  7948  0.74
      P1  H  7989  7998       L1    11  0.26
      P1  H  8011  8017       L1    11  0.98

> <Gold.Chemscore.Hbond.Weighted>
-7.4145

> <Gold.Chemscore.Metal.Weighted>
-0.0000

> <Gold.Chemscore.Lipo.Weighted>
-11.1527

> <Gold.Chemscore.Internal_Hbond.Weighted>
0.0000

> <Gold.Chemscore.DEClash.Weighted>
1.7468

> <Gold.Chemscore.DEInternal.Weighted>
0.9188

> <Gold.Chemscore.Rot.Weighted>
4.4226

> <Gold.Chemscore.Internal.Correction.Weighted>
   9.000000E+99

> <Gold.Protein.RotatedTorsions>
[ 6907 6896 6895 6894 ] final  -60.28 input  -60.11 | X-H torsion
[ 7974 7965 7964 7962 ] final  -69.91 input  175.53 | X-H torsion
[ 8008 7997 7996 7995 ] final -104.93 input   59.86 | X-H torsion
[ 10167 10162 10161 10158 ] final -162.84 input  -65.29 | X-H torsion
[ 10718 10713 10712 10709 ] final  -86.01 input   66.30 | X-H torsion
[ 10763 10752 10751 10750 ] final  113.67 input  -60.55 | X-H torsion
[ 11005 11000 10999 10996 ] final  -89.00 input  -57.11 | X-H torsion

> <Gold.Protein.ActiveResidues>
 VAL166  LYS551  ARG553  GLY616  TRP617  ASP618  TYR619  PRO620  LYS621  CYS622 
 ASP623  PHE694  ASN695  SER759  ASP760  ASP761  ALA762  ILE779  LEU786  VAL792 
 PHE793  MET794  SER795  GLU796  ALA797  LYS798  CYS799  TRP800  GLU811  SER814 

> <Gold.Protein.RotatedAtoms>
  150.7868  134.6858  159.6468 H   0  0  0  0  0  0  0  0  0  0  0  0  # atno 6907 bound_to 6896
  152.3965  134.6353  160.0096 H   0  0  0  0  0  0  0  0  0  0  0  0  # atno 6908 bound_to 6896
  151.6637  133.3279  159.3216 H   0  0  0  0  0  0  0  0  0  0  0  0  # atno 6909 bound_to 6896
  145.6977  140.9129  143.0748 H   0  0  0  0  0  0  0  0  0  0  0  0  # atno 7974 bound_to 7965
  154.8925  140.0415  157.1846 H   0  0  0  0  0  0  0  0  0  0  0  0  # atno 8008 bound_to 7997
  154.8526  140.2931  155.5567 H   0  0  0  0  0  0  0  0  0  0  0  0  # atno 8009 bound_to 7997
  156.2996  140.2462  156.3488 H   0  0  0  0  0  0  0  0  0  0  0  0  # atno 8010 bound_to 7997
  139.6363  144.0344  152.2057 H   0  0  0  0  0  0  0  0  0  0  0  0  # atno 10167 bound_to 10162
  155.9992  130.4750  150.4650 H   0  0  0  0  0  0  0  0  0  0  0  0  # atno 10718 bound_to 10713
  153.4959  135.3648  155.2515 H   0  0  0  0  0  0  0  0  0  0  0  0  # atno 10763 bound_to 10752
  154.8750  135.3988  154.3535 H   0  0  0  0  0  0  0  0  0  0  0  0  # atno 10764 bound_to 10752
  153.4163  135.7079  153.6391 H   0  0  0  0  0  0  0  0  0  0  0  0  # atno 10765 bound_to 10752
  141.1592  133.7604  156.9533 H   0  0  0  0  0  0  0  0  0  0  0  0  # atno 11005 bound_to 11000
  144.6978  139.8906  143.7453 LP  0  0  0  0  0  0  0  0  0  0  0  0  # atno 17320 bound_to 7965
  146.0826  139.3813  143.0455 LP  0  0  0  0  0  0  0  0  0  0  0  0  # atno 17321 bound_to 7965
  140.0022  144.6285  150.7720 LP  0  0  0  0  0  0  0  0  0  0  0  0  # atno 17342 bound_to 10162
  140.7467  143.2895  151.3371 LP  0  0  0  0  0  0  0  0  0  0  0  0  # atno 17343 bound_to 10162
  157.2671  131.0579  151.2284 LP  0  0  0  0  0  0  0  0  0  0  0  0  # atno 17370 bound_to 10713
  157.3378  130.7017  149.6363 LP  0  0  0  0  0  0  0  0  0  0  0  0  # atno 17371 bound_to 10713
  140.1243  134.9397  157.2247 LP  0  0  0  0  0  0  0  0  0  0  0  0  # atno 17394 bound_to 11000
  140.3033  134.3107  155.7284 LP  0  0  0  0  0  0  0  0  0  0  0  0  # atno 17395 bound_to 11000

$$$$
