AV-unprocessed.smi:265|AV-procd|sdf|2030|dock4
  -GOLD-   2262021233D 1   1.00000     0.00000
 Structure written by MMmdl.
 52 56  0  0  0  0  0  0  0  0  1 V2000
  152.7860  141.7807  159.5769 C   0  0  0  0  0  0  0  0  0  0  0  0
  151.7673  142.9037  159.3278 C   0  0  1  0  0  0  0  0  0  0  0  0
  152.4035  144.1406  159.6400 O   0  0  0  0  0  0  0  0  0  0  0  0
  151.8588  145.1583  158.8193 C   0  0  0  0  0  0  0  0  0  0  0  0
  151.7127  144.4536  157.4798 C   0  0  0  0  0  0  0  0  0  0  0  0
  151.2351  143.0587  157.8749 C   0  0  2  0  0  0  0  0  0  0  0  0
  149.8191  143.0882  157.9374 O   0  0  0  0  0  0  0  0  0  0  0  0
  151.6489  141.9541  156.8668 C   0  0  0  0  0  0  0  0  0  0  0  0
  150.9845  140.6806  157.0983 N   0  0  0  0  0  0  0  0  0  0  0  0
  150.5882  140.1660  158.3121 C   0  0  0  0  0  0  0  0  0  0  0  0
  150.0118  138.9968  158.2592 N   0  0  0  0  0  0  0  0  0  0  0  0
  149.9950  138.6864  156.9041 C   0  0  0  0  0  0  0  0  0  0  0  0
  149.5187  137.5789  156.1463 C   0  0  0  0  0  0  0  0  0  0  0  0
  148.8964  136.5140  156.7133 N   0  0  0  0  0  0  0  0  0  0  0  0
  149.6469  135.2565  156.8076 C   0  0  0  0  0  0  0  0  0  0  0  0
  148.9596  134.2617  157.7629 C   0  0  0  0  0  0  0  0  0  0  0  0
  147.4942  134.0680  157.3521 C   0  0  1  0  0  0  0  0  0  0  0  0
  146.7895  133.2379  158.2629 O   0  0  0  0  0  0  0  0  0  0  0  0
  145.4663  132.9108  157.8241 C   0  0  0  0  0  0  0  0  0  0  0  0
  144.6804  134.1418  157.3239 C   0  0  0  0  0  0  0  0  0  0  0  0
  143.4662  134.0647  157.1516 O   0  0  0  0  0  0  0  0  0  0  0  0
  145.3666  135.2630  157.0487 N   0  0  0  0  0  0  0  0  0  0  0  0
  146.7812  135.4289  157.3538 C   0  0  2  0  0  0  0  0  0  0  0  0
  147.4772  136.3846  156.3733 C   0  0  0  0  0  0  0  0  0  0  0  0
  149.7039  137.6184  154.7994 N   0  0  0  0  0  0  0  0  0  0  0  0
  150.2982  138.6709  154.2295 C   0  0  0  0  0  0  0  0  0  0  0  0
  150.7766  139.7734  154.8084 N   0  0  0  0  0  0  0  0  0  0  0  0
  150.6075  139.7349  156.1609 C   0  0  0  0  0  0  0  0  0  0  0  0
  147.4653  133.6190  156.3567 H   0  0  0  0  0  0  0  0  0  0  0  0
  146.8366  135.8593  158.3554 H   0  0  0  0  0  0  0  0  0  0  0  0
  152.3574  140.7999  159.3702 H   0  0  0  0  0  0  0  0  0  0  0  0
  153.1092  141.7808  160.6181 H   0  0  0  0  0  0  0  0  0  0  0  0
  153.6762  141.9035  158.9599 H   0  0  0  0  0  0  0  0  0  0  0  0
  150.9375  142.7742  160.0255 H   0  0  0  0  0  0  0  0  0  0  0  0
  150.8891  145.4710  159.2096 H   0  0  0  0  0  0  0  0  0  0  0  0
  152.5118  146.0297  158.7700 H   0  0  0  0  0  0  0  0  0  0  0  0
  151.0446  144.9721  156.7905 H   0  0  0  0  0  0  0  0  0  0  0  0
  152.6948  144.3938  157.0086 H   0  0  0  0  0  0  0  0  0  0  0  0
  149.4949  143.5505  157.1797 H   0  0  0  0  0  0  0  0  0  0  0  0
  151.4170  142.2622  155.8471 H   0  0  0  0  0  0  0  0  0  0  0  0
  152.7263  141.7882  156.9019 H   0  0  0  0  0  0  0  0  0  0  0  0
  150.7458  140.6863  159.2456 H   0  0  0  0  0  0  0  0  0  0  0  0
  149.7322  134.8149  155.8136 H   0  0  0  0  0  0  0  0  0  0  0  0
  150.6603  135.4531  157.1603 H   0  0  0  0  0  0  0  0  0  0  0  0
  149.4852  133.3067  157.7518 H   0  0  0  0  0  0  0  0  0  0  0  0
  149.0122  134.6369  158.7859 H   0  0  0  0  0  0  0  0  0  0  0  0
  145.5269  132.1830  157.0140 H   0  0  0  0  0  0  0  0  0  0  0  0
  144.9266  132.4365  158.6440 H   0  0  0  0  0  0  0  0  0  0  0  0
  144.8666  136.0627  156.6883 H   0  0  0  0  0  0  0  0  0  0  0  0
  146.9718  137.3493  156.3899 H   0  0  0  0  0  0  0  0  0  0  0  0
  147.3930  136.0055  155.3539 H   0  0  0  0  0  0  0  0  0  0  0  0
  150.4047  138.6241  153.1558 H   0  0  0  0  0  0  0  0  0  0  0  0
  1  2  1  0  0  0  0
  1 31  1  0  0  0  0
  1 32  1  0  0  0  0
  1 33  1  0  0  0  0
  2  6  1  0  0  0  0
  2  3  1  0  0  0  0
  2 34  1  0  0  0  0
  3  4  1  0  0  0  0
  4  5  1  0  0  0  0
  4 35  1  0  0  0  0
  4 36  1  0  0  0  0
  5  6  1  0  0  0  0
  5 37  1  0  0  0  0
  5 38  1  0  0  0  0
  6  7  1  0  0  0  0
  6  8  1  0  0  0  0
  7 39  1  0  0  0  0
  8  9  1  0  0  0  0
  8 40  1  0  0  0  0
  8 41  1  0  0  0  0
  9 28  1  0  0  0  0
  9 10  1  0  0  0  0
 10 11  2  0  0  0  0
 10 42  1  0  0  0  0
 11 12  1  0  0  0  0
 12 28  2  0  0  0  0
 12 13  1  0  0  0  0
 13 14  1  0  0  0  0
 13 25  2  0  0  0  0
 14 24  1  0  0  0  0
 14 15  1  0  0  0  0
 15 16  1  0  0  0  0
 15 43  1  0  0  0  0
 15 44  1  0  0  0  0
 16 17  1  0  0  0  0
 16 45  1  0  0  0  0
 16 46  1  0  0  0  0
 17 29  1  0  0  0  0
 17 23  1  0  0  0  0
 17 18  1  0  0  0  0
 18 19  1  0  0  0  0
 19 20  1  0  0  0  0
 19 47  1  0  0  0  0
 19 48  1  0  0  0  0
 20 21  2  0  0  0  0
 20 22  1  0  0  0  0
 22 23  1  0  0  0  0
 22 49  1  0  0  0  0
 23 30  1  0  0  0  0
 23 24  1  0  0  0  0
 24 50  1  0  0  0  0
 24 51  1  0  0  0  0
 25 26  1  0  0  0  0
 26 27  2  0  0  0  0
 26 52  1  0  0  0  0
 27 28  1  0  0  0  0
M  END
> <s_m_source_file>
AV-unprocessed.smi

> <i_m_source_file_index>
265

> <i_lp_mmshare_version>
43012

> <i_f3d_flags>
0

> <s_epik_input>
W0NIMl0xW0NIMl1PW0NAQEhdKFtDSDNdKVtDQEBdMShbT0hdKVtDSDJdbihbY0hdbjIpYyhjMjMpbltjSF1uYzNOKFtDSDJdW0NIMl00KVtDSDJdW0NAQEhdKFtDQEhdNDUpW05IXUMoPU8pW0NIMl1PNQ==

> <s_epik_cmdline>
J2VwaWtfcHl0aG9uJywgJy1waCcsICc3LjAnLCAnLXRuJywgJzgnLCAnLW1hJywgJzIwMCcsICctbWV0YWxfYmluZGluZycsICctaW1hZScsICc8aW5maWxlLm1hZT4nLCAnLW9tYWUnLCAnPG91dGZpbGUubWFlPic=

> <r_lp_tautomer_probability>
1

> <r_epik_Ionization_Penalty>
0.00221504

> <r_epik_Ionization_Penalty_Charging>
0

> <r_epik_Ionization_Penalty_Neutral>
0.00221504

> <r_epik_State_Penalty>
-0

> <r_epik_Charging_Adjusted_Penalty>
0

> <i_epik_Tot_Q>
0

> <i_epik_Tot_abs_Q>
0

> <r_epik_Metal_State_Penalty>
-0

> <b_epik_Metal_Only>
0

> <s_lp_Force_Field>
OPLS_2005

> <r_lp_Energy>
44.2788

> <b_lp_Chiralities_Consistent>
1

> <s_lp_Variant>
AV-unprocessed.smi:265-16

> <Gold.Version>
5.8.1

> <Gold.Id.Protein>
6NUR|6NUR_protein|mol2

> <Gold.PLP.Fitness>
42.2189

> <Gold.PLP.PLP>
-31.8801

> <Gold.PLP.part.hbond>
-3.0000

> <Gold.PLP.part.metal>
0.0000

> <Gold.PLP.part.buried>
-7.3295

> <Gold.PLP.part.nonpolar>
-22.9049

> <Gold.PLP.part.repulsive>
0.3548

> <Gold.PLP.ligand.clash>
0.0000

> <Gold.PLP.ligand.torsion>
0.6827

> <Gold.PLP.Chemscore.Hbond>
2.7613

> <Gold.PLP.Chemscore.CHOScore>
1.0000

> <Gold.PLP.Chemscore.Metal>
0.0000

> <Gold.Chemscore.Hbonds>
donor molecule, donor type, donor heavy atom, donor atom, acceptor molecule, acceptor atom, score
      L1  H     7    39       P1  8028  1.00
      P1  H  7989  7998       L1    27  1.00
      P1  H 11000 11005       L1    21  0.40
      L1  C    26    52       P1  7957  0.94

> <Gold.PLP.Chemscore.Internal.Correction>
0.4203

> <Gold.Rescore>
     Score         DG    S(hbond)    S(metal)    S(lipo)     H(rot)  DE(clash)    DE(int)     intcor
     14.35     -17.61       2.74        0.00      74.49       2.25       1.55       1.71       ----

> <Gold.Chemscore.Fitness>
14.3543

> <Gold.Chemscore.DG>
-17.6136

> <Gold.Chemscore.ZeroCoef>
-5.4800

> <Gold.Chemscore.Hbond>
2.7445

> <Gold.Chemscore.Metal>
0.0000

> <Gold.Chemscore.Lipo>
74.4852

> <Gold.Chemscore.Internal_Hbond>
0.0000

> <Gold.Chemscore.DEClash>
1.5498

> <Gold.Chemscore.DEInternal>
1.7095

> <Gold.Chemscore.Rot>
2.2453

> <Gold.Chemscore.Internal.Correction>
   9.000000E+99

> <Gold.Chemscore.Hbonds>
donor molecule, donor type, donor heavy atom, donor atom, acceptor molecule, acceptor atom, score
      L1  H     7    39       P1  8028  0.82
      P1  H  7989  7998       L1    27  0.74
      P1  H 11000 11005       L1    21  0.39

> <Gold.Chemscore.Hbond.Weighted>
-9.1668

> <Gold.Chemscore.Metal.Weighted>
-0.0000

> <Gold.Chemscore.Lipo.Weighted>
-8.7148

> <Gold.Chemscore.Internal_Hbond.Weighted>
0.0000

> <Gold.Chemscore.DEClash.Weighted>
1.5498

> <Gold.Chemscore.DEInternal.Weighted>
1.7095

> <Gold.Chemscore.Rot.Weighted>
5.7479

> <Gold.Chemscore.Internal.Correction.Weighted>
   9.000000E+99

> <Gold.Protein.RotatedTorsions>
[ 6907 6896 6895 6894 ] final -163.03 input  -60.11 | X-H torsion
[ 7974 7965 7964 7962 ] final   13.43 input  175.53 | X-H torsion
[ 8008 7997 7996 7995 ] final   67.12 input   59.86 | X-H torsion
[ 10167 10162 10161 10158 ] final  118.56 input  -65.29 | X-H torsion
[ 10718 10713 10712 10709 ] final   54.84 input   66.30 | X-H torsion
[ 10763 10752 10751 10750 ] final   70.11 input  -60.55 | X-H torsion
[ 11005 11000 10999 10996 ] final  -91.47 input  -57.11 | X-H torsion

> <Gold.Protein.ActiveResidues>
 VAL166  LYS551  ARG553  GLY616  TRP617  ASP618  TYR619  PRO620  LYS621  CYS622 
 ASP623  PHE694  ASN695  SER759  ASP760  ASP761  ALA762  ILE779  LEU786  VAL792 
 PHE793  MET794  SER795  GLU796  ALA797  LYS798  CYS799  TRP800  GLU811  SER814 

> <Gold.Protein.RotatedAtoms>
  151.3896  133.3793  159.2719 H   0  0  0  0  0  0  0  0  0  0  0  0  # atno 6907 bound_to 6896
  150.9515  134.8916  159.7685 H   0  0  0  0  0  0  0  0  0  0  0  0  # atno 6908 bound_to 6896
  152.5114  134.3851  159.9417 H   0  0  0  0  0  0  0  0  0  0  0  0  # atno 6909 bound_to 6896
  146.2329  139.9190  142.8513 H   0  0  0  0  0  0  0  0  0  0  0  0  # atno 7974 bound_to 7965
  155.6880  140.3496  155.4882 H   0  0  0  0  0  0  0  0  0  0  0  0  # atno 8008 bound_to 7997
  155.9549  140.1126  157.0967 H   0  0  0  0  0  0  0  0  0  0  0  0  # atno 8009 bound_to 7997
  154.4130  140.1187  156.5088 H   0  0  0  0  0  0  0  0  0  0  0  0  # atno 8010 bound_to 7997
  139.6104  144.7080  151.2858 H   0  0  0  0  0  0  0  0  0  0  0  0  # atno 10167 bound_to 10162
  157.5292  130.8619  149.8664 H   0  0  0  0  0  0  0  0  0  0  0  0  # atno 10718 bound_to 10713
  153.0324  135.5186  154.7392 H   0  0  0  0  0  0  0  0  0  0  0  0  # atno 10763 bound_to 10752
  154.6396  135.2910  155.0121 H   0  0  0  0  0  0  0  0  0  0  0  0  # atno 10764 bound_to 10752
  154.1044  135.6631  153.4926 H   0  0  0  0  0  0  0  0  0  0  0  0  # atno 10765 bound_to 10752
  141.1544  133.7758  156.9884 H   0  0  0  0  0  0  0  0  0  0  0  0  # atno 11005 bound_to 11000
  145.2155  140.9913  143.4076 LP  0  0  0  0  0  0  0  0  0  0  0  0  # atno 17320 bound_to 7965
  144.9654  139.3935  143.6335 LP  0  0  0  0  0  0  0  0  0  0  0  0  # atno 17321 bound_to 7965
  140.7315  143.6851  150.7969 LP  0  0  0  0  0  0  0  0  0  0  0  0  # atno 17342 bound_to 10162
  140.0444  143.5313  152.2703 LP  0  0  0  0  0  0  0  0  0  0  0  0  # atno 17343 bound_to 10162
  156.0410  130.3739  150.1436 LP  0  0  0  0  0  0  0  0  0  0  0  0  # atno 17370 bound_to 10713
  156.9621  130.9808  151.3477 LP  0  0  0  0  0  0  0  0  0  0  0  0  # atno 17371 bound_to 10713
  140.1019  134.9530  157.1936 LP  0  0  0  0  0  0  0  0  0  0  0  0  # atno 17394 bound_to 11000
  140.3307  134.2813  155.7228 LP  0  0  0  0  0  0  0  0  0  0  0  0  # atno 17395 bound_to 11000

$$$$
