AV-unprocessed.smi:2192|AV-procd|sdf|8896|dock7
  -GOLD-   2272012103D 1   1.00000     0.00000
 Structure written by MMmdl.
 42 44  0  0  0  0  0  0  0  0  1 V2000
  153.5641  138.3000  155.7958 C   0  0  0  0  0  0  0  0  0  0  0  0
  152.5831  139.2826  156.2934 N   0  0  0  0  0  0  0  0  0  0  0  0
  151.6000  139.7059  155.4377 C   0  0  0  0  0  0  0  0  0  0  0  0
  151.4646  139.3273  154.2735 O   0  0  0  0  0  0  0  0  0  0  0  0
  150.6823  140.6837  156.0286 C   0  0  0  0  0  0  0  0  0  0  0  0
  150.7940  141.1248  157.3044 C   0  0  0  0  0  0  0  0  0  0  0  0
  149.7980  142.0451  157.6113 N   0  0  0  0  0  0  0  0  0  0  0  0
  149.1179  142.1104  156.4657 C   0  0  0  0  0  0  0  0  0  0  0  0
  149.5834  141.3309  155.4680 N   0  0  0  0  0  0  0  0  0  0  0  0
  149.0317  141.2188  154.1269 C   0  0  0  0  0  0  0  0  0  0  0  0
  147.6365  140.5623  154.1128 C   0  0  2  0  0  0  0  0  0  0  0  0
  147.2777  140.2248  152.7870 O   0  0  0  0  0  0  0  0  0  0  0  0
  146.5522  141.4808  154.6935 C   0  0  0  0  0  0  0  0  0  0  0  0
  146.1623  142.4154  153.6958 O   0  0  0  0  0  0  0  0  0  0  0  0
  145.2849  143.4186  154.0463 C   0  0  0  0  0  0  0  0  0  0  0  0
  145.1253  144.4773  153.1281 C   0  0  0  0  0  0  0  0  0  0  0  0
  144.2486  145.5445  153.4031 C   0  0  0  0  0  0  0  0  0  0  0  0
  143.5208  145.5640  154.6070 C   0  0  0  0  0  0  0  0  0  0  0  0
  142.6778  146.5894  154.8741 F   0  0  0  0  0  0  0  0  0  0  0  0
  143.6714  144.5151  155.5332 C   0  0  0  0  0  0  0  0  0  0  0  0
  144.5471  143.4469  155.2572 C   0  0  0  0  0  0  0  0  0  0  0  0
  151.8471  140.6212  158.1073 N   0  0  0  0  0  0  0  0  0  0  0  0
  151.9367  141.1205  159.4827 C   0  0  0  0  0  0  0  0  0  0  0  0
  152.7386  139.7042  157.6037 C   0  0  0  0  0  0  0  0  0  0  0  0
  153.6560  139.2679  158.3041 O   0  0  0  0  0  0  0  0  0  0  0  0
  153.4138  137.9822  154.7635 H   0  0  0  0  0  0  0  0  0  0  0  0
  153.5385  137.3944  156.4043 H   0  0  0  0  0  0  0  0  0  0  0  0
  154.5734  138.7115  155.8487 H   0  0  0  0  0  0  0  0  0  0  0  0
  148.2555  142.7500  156.3469 H   0  0  0  0  0  0  0  0  0  0  0  0
  148.9956  142.2147  153.6845 H   0  0  0  0  0  0  0  0  0  0  0  0
  149.7252  140.6414  153.5137 H   0  0  0  0  0  0  0  0  0  0  0  0
  147.6568  139.6366  154.6887 H   0  0  0  0  0  0  0  0  0  0  0  0
  147.9714  140.5020  152.2080 H   0  0  0  0  0  0  0  0  0  0  0  0
  145.6979  140.8887  155.0263 H   0  0  0  0  0  0  0  0  0  0  0  0
  146.9501  142.0177  155.5564 H   0  0  0  0  0  0  0  0  0  0  0  0
  145.6809  144.4700  152.2018 H   0  0  0  0  0  0  0  0  0  0  0  0
  144.1354  146.3478  152.6900 H   0  0  0  0  0  0  0  0  0  0  0  0
  143.1143  144.5291  156.4582 H   0  0  0  0  0  0  0  0  0  0  0  0
  144.6355  142.6614  155.9922 H   0  0  0  0  0  0  0  0  0  0  0  0
  152.7710  140.7160  160.0564 H   0  0  0  0  0  0  0  0  0  0  0  0
  151.0224  140.8785  160.0255 H   0  0  0  0  0  0  0  0  0  0  0  0
  152.0444  142.2058  159.4784 H   0  0  0  0  0  0  0  0  0  0  0  0
  1  2  1  0  0  0  0
  1 26  1  0  0  0  0
  1 27  1  0  0  0  0
  1 28  1  0  0  0  0
  2 24  1  0  0  0  0
  2  3  1  0  0  0  0
  3  4  2  0  0  0  0
  3  5  1  0  0  0  0
  5  9  1  0  0  0  0
  5  6  2  0  0  0  0
  6  7  1  0  0  0  0
  6 22  1  0  0  0  0
  7  8  2  0  0  0  0
  8  9  1  0  0  0  0
  8 29  1  0  0  0  0
  9 10  1  0  0  0  0
 10 11  1  0  0  0  0
 10 30  1  0  0  0  0
 10 31  1  0  0  0  0
 11 12  1  0  0  0  0
 11 13  1  0  0  0  0
 11 32  1  0  0  0  0
 12 33  1  0  0  0  0
 13 14  1  0  0  0  0
 13 34  1  0  0  0  0
 13 35  1  0  0  0  0
 14 15  1  0  0  0  0
 15 21  1  0  0  0  0
 15 16  2  0  0  0  0
 16 17  1  0  0  0  0
 16 36  1  0  0  0  0
 17 18  2  0  0  0  0
 17 37  1  0  0  0  0
 18 19  1  0  0  0  0
 18 20  1  0  0  0  0
 20 21  2  0  0  0  0
 20 38  1  0  0  0  0
 21 39  1  0  0  0  0
 22 23  1  0  0  0  0
 22 24  1  0  0  0  0
 23 40  1  0  0  0  0
 23 41  1  0  0  0  0
 23 42  1  0  0  0  0
 24 25  2  0  0  0  0
M  END
> <s_m_source_file>
AV-unprocessed.smi

> <i_m_source_file_index>
2192

> <i_lp_mmshare_version>
43012

> <i_f3d_flags>
0

> <s_epik_input>
Tz1jMW4oW0NIM10pYyg9TyluKFtDSDNdKWMoYzEyKW5bY0hdbjJbQ0gyXVtDQEhdKFtPSF0pW0NIMl1PYzNbY0hdW2NIXWMoRilbY0hdW2NIXTM=

> <s_epik_cmdline>
J2VwaWtfcHl0aG9uJywgJy1waCcsICc3LjAnLCAnLXRuJywgJzgnLCAnLW1hJywgJzIwMCcsICctbWV0YWxfYmluZGluZycsICctaW1hZScsICc8aW5maWxlLm1hZT4nLCAnLW9tYWUnLCAnPG91dGZpbGUubWFlPic=

> <r_lp_tautomer_probability>
1

> <r_epik_Ionization_Penalty>
1.0344e-06

> <r_epik_Ionization_Penalty_Charging>
3.2247e-09

> <r_epik_Ionization_Penalty_Neutral>
1.03118e-06

> <r_epik_State_Penalty>
-0

> <r_epik_Charging_Adjusted_Penalty>
3.2247e-09

> <i_epik_Tot_Q>
0

> <i_epik_Tot_abs_Q>
0

> <r_epik_Metal_State_Penalty>
-0

> <b_epik_Metal_Only>
0

> <s_lp_Force_Field>
OPLS_2005

> <r_lp_Energy>
38.6998

> <b_lp_Chiralities_Consistent>
1

> <s_lp_Variant>
AV-unprocessed.smi:2192-1

> <Gold.Version>
5.8.1

> <Gold.Id.Protein>
6NUR|6NUR_protein|mol2

> <Gold.PLP.Fitness>
51.5583

> <Gold.PLP.PLP>
-42.8581

> <Gold.PLP.part.hbond>
-3.0000

> <Gold.PLP.part.metal>
0.0000

> <Gold.PLP.part.buried>
5.6102

> <Gold.PLP.part.nonpolar>
-43.9039

> <Gold.PLP.part.repulsive>
0.4647

> <Gold.PLP.ligand.clash>
0.0000

> <Gold.PLP.ligand.torsion>
0.4437

> <Gold.PLP.Chemscore.Hbond>
2.5000

> <Gold.PLP.Chemscore.CHOScore>
0.6876

> <Gold.PLP.Chemscore.Metal>
0.0000

> <Gold.Chemscore.Hbonds>
donor molecule, donor type, donor heavy atom, donor atom, acceptor molecule, acceptor atom, score
      L1  H    12    33       P1  7957  0.99
      P1  H  7989  7998       L1     4  0.95
      P1  H  7997  8008       L1    25  0.74
      L1  C     8    29       P1  8028  0.62

> <Gold.PLP.Chemscore.Internal.Correction>
0.0248

> <Gold.Rescore>
     Score         DG    S(hbond)    S(metal)    S(lipo)     H(rot)  DE(clash)    DE(int)     intcor
     10.49     -12.47       1.47        0.00      80.86       2.88       1.56       0.43       ----

> <Gold.Chemscore.Fitness>
10.4899

> <Gold.Chemscore.DG>
-12.4748

> <Gold.Chemscore.ZeroCoef>
-5.4800

> <Gold.Chemscore.Hbond>
1.4661

> <Gold.Chemscore.Metal>
0.0000

> <Gold.Chemscore.Lipo>
80.8650

> <Gold.Chemscore.Internal_Hbond>
0.0000

> <Gold.Chemscore.DEClash>
1.5554

> <Gold.Chemscore.DEInternal>
0.4295

> <Gold.Chemscore.Rot>
2.8762

> <Gold.Chemscore.Internal.Correction>
   9.000000E+99

> <Gold.Chemscore.Hbonds>
donor molecule, donor type, donor heavy atom, donor atom, acceptor molecule, acceptor atom, score
      L1  H    12    33       P1  7957  0.91
      P1  H  7989  7998       L1     4  0.21
      P1  H  7997  8008       L1    25  0.09

> <Gold.Chemscore.Hbond.Weighted>
-4.8968

> <Gold.Chemscore.Metal.Weighted>
-0.0000

> <Gold.Chemscore.Lipo.Weighted>
-9.4612

> <Gold.Chemscore.Internal_Hbond.Weighted>
0.0000

> <Gold.Chemscore.DEClash.Weighted>
1.5554

> <Gold.Chemscore.DEInternal.Weighted>
0.4295

> <Gold.Chemscore.Rot.Weighted>
7.3631

> <Gold.Chemscore.Internal.Correction.Weighted>
   9.000000E+99

> <Gold.Protein.RotatedTorsions>
[ 6907 6896 6895 6894 ] final   47.32 input  -60.11 | X-H torsion
[ 7974 7965 7964 7962 ] final  100.83 input  175.53 | X-H torsion
[ 8008 7997 7996 7995 ] final -114.72 input   59.86 | X-H torsion
[ 10167 10162 10161 10158 ] final   -0.52 input  -65.29 | X-H torsion
[ 10718 10713 10712 10709 ] final   25.72 input   66.30 | X-H torsion
[ 10763 10752 10751 10750 ] final   74.81 input  -60.55 | X-H torsion
[ 11005 11000 10999 10996 ] final    5.14 input  -57.11 | X-H torsion

> <Gold.Protein.ActiveResidues>
 VAL166  LYS551  ARG553  GLY616  TRP617  ASP618  TYR619  PRO620  LYS621  CYS622 
 ASP623  PHE694  ASN695  SER759  ASP760  ASP761  ALA762  ILE779  LEU786  VAL792 
 PHE793  MET794  SER795  GLU796  ALA797  LYS798  CYS799  TRP800  GLU811  SER814 

> <Gold.Protein.RotatedAtoms>
  152.2667  134.7976  160.0421 H   0  0  0  0  0  0  0  0  0  0  0  0  # atno 6907 bound_to 6896
  151.8603  133.3451  159.3710 H   0  0  0  0  0  0  0  0  0  0  0  0  # atno 6908 bound_to 6896
  150.7136  134.5140  159.5665 H   0  0  0  0  0  0  0  0  0  0  0  0  # atno 6909 bound_to 6896
  145.3803  139.2381  143.3407 H   0  0  0  0  0  0  0  0  0  0  0  0  # atno 7974 bound_to 7965
  155.0407  140.0392  157.2508 H   0  0  0  0  0  0  0  0  0  0  0  0  # atno 8008 bound_to 7997
  154.7219  140.2713  155.6510 H   0  0  0  0  0  0  0  0  0  0  0  0  # atno 8009 bound_to 7997
  156.2819  140.2701  156.1892 H   0  0  0  0  0  0  0  0  0  0  0  0  # atno 8010 bound_to 7997
  140.6771  143.6884  150.8048 H   0  0  0  0  0  0  0  0  0  0  0  0  # atno 10167 bound_to 10162
  157.1972  130.6873  149.6173 H   0  0  0  0  0  0  0  0  0  0  0  0  # atno 10718 bound_to 10713
  153.0612  135.5012  154.8097 H   0  0  0  0  0  0  0  0  0  0  0  0  # atno 10763 bound_to 10752
  154.6885  135.2980  154.9515 H   0  0  0  0  0  0  0  0  0  0  0  0  # atno 10764 bound_to 10752
  154.0278  135.6733  153.4831 H   0  0  0  0  0  0  0  0  0  0  0  0  # atno 10765 bound_to 10752
  140.5741  134.0075  155.8020 H   0  0  0  0  0  0  0  0  0  0  0  0  # atno 11005 bound_to 11000
  146.2845  140.4469  142.8763 LP  0  0  0  0  0  0  0  0  0  0  0  0  # atno 17320 bound_to 7965
  144.8512  140.7004  143.6167 LP  0  0  0  0  0  0  0  0  0  0  0  0  # atno 17321 bound_to 7965
  140.0579  143.5184  152.2642 LP  0  0  0  0  0  0  0  0  0  0  0  0  # atno 17342 bound_to 10162
  139.6070  144.7599  151.3039 LP  0  0  0  0  0  0  0  0  0  0  0  0  # atno 17343 bound_to 10162
  155.9704  130.4595  150.6038 LP  0  0  0  0  0  0  0  0  0  0  0  0  # atno 17370 bound_to 10713
  157.3803  131.0780  151.1482 LP  0  0  0  0  0  0  0  0  0  0  0  0  # atno 17371 bound_to 10713
  141.1038  133.9726  157.3033 LP  0  0  0  0  0  0  0  0  0  0  0  0  # atno 17394 bound_to 11000
  139.9348  135.0197  156.8519 LP  0  0  0  0  0  0  0  0  0  0  0  0  # atno 17395 bound_to 11000

$$$$
