AV-unprocessed.smi:2907|AV-procd|sdf|11166|dock10
  -GOLD-   2272016 53D 1   1.00000     0.00000
 Structure written by MMmdl.
 45 46  0  0  0  0  0  0  0  0  1 V2000
  147.0486  135.3170  162.3222 C   0  0  0  0  0  0  0  0  0  0  0  0
  147.7388  136.3540  161.4241 C   0  0  0  0  0  0  0  0  0  0  0  0
  147.3997  136.2127  159.9268 C   0  0  0  0  0  0  0  0  0  0  0  0
  147.8286  134.8375  159.3778 C   0  0  0  0  0  0  0  0  0  0  0  0
  146.9123  133.6817  159.8077 C   0  0  0  0  0  0  0  0  0  0  0  0
  148.0452  137.2717  159.1524 N   0  0  0  0  0  0  0  0  0  0  0  0
  149.3657  137.4141  158.9535 C   0  0  0  0  0  0  0  0  0  0  0  0
  150.2071  136.6016  159.3358 O   0  0  0  0  0  0  0  0  0  0  0  0
  149.8064  138.6865  158.2292 C   0  0  0  0  0  0  0  0  0  0  0  0
  151.2555  138.7335  158.1077 N   0  0  0  0  0  0  0  0  0  0  0  0
  151.9376  137.6825  157.5883 N   0  0  0  0  0  0  0  0  0  0  0  0
  153.1923  138.0251  157.5619 N   0  0  0  0  0  0  0  0  0  0  0  0
  153.3742  139.3022  158.0555 N   0  0  0  0  0  0  0  0  0  0  0  0
  152.1505  139.6926  158.3934 C   0  0  0  0  0  0  0  0  0  0  0  0
  151.7965  141.0427  158.9486 C   0  0  0  0  0  0  0  0  0  0  0  0
  150.9886  141.8822  157.9402 C   0  0  0  0  0  0  0  0  0  0  0  0
  150.6063  143.2502  158.5275 C   0  0  0  0  0  0  0  0  0  0  0  0
  151.8474  144.0141  159.0157 C   0  0  0  0  0  0  0  0  0  0  0  0
  152.6494  143.1820  160.0294 C   0  0  0  0  0  0  0  0  0  0  0  0
  153.0362  141.8128  159.4464 C   0  0  0  0  0  0  0  0  0  0  0  0
  147.3745  135.4249  163.3568 H   0  0  0  0  0  0  0  0  0  0  0  0
  147.2851  134.3016  162.0033 H   0  0  0  0  0  0  0  0  0  0  0  0
  145.9646  135.4303  162.3067 H   0  0  0  0  0  0  0  0  0  0  0  0
  147.4818  137.3566  161.7686 H   0  0  0  0  0  0  0  0  0  0  0  0
  148.8171  136.2578  161.5553 H   0  0  0  0  0  0  0  0  0  0  0  0
  146.3156  136.2809  159.8210 H   0  0  0  0  0  0  0  0  0  0  0  0
  147.8722  134.8723  158.2885 H   0  0  0  0  0  0  0  0  0  0  0  0
  148.8427  134.6183  159.7139 H   0  0  0  0  0  0  0  0  0  0  0  0
  147.2893  132.7303  159.4325 H   0  0  0  0  0  0  0  0  0  0  0  0
  145.8990  133.8055  159.4241 H   0  0  0  0  0  0  0  0  0  0  0  0
  146.8544  133.6101  160.8940 H   0  0  0  0  0  0  0  0  0  0  0  0
  147.4392  137.9940  158.7901 H   0  0  0  0  0  0  0  0  0  0  0  0
  149.3623  138.7361  157.2345 H   0  0  0  0  0  0  0  0  0  0  0  0
  149.4561  139.5621  158.7782 H   0  0  0  0  0  0  0  0  0  0  0  0
  151.1593  140.8882  159.8191 H   0  0  0  0  0  0  0  0  0  0  0  0
  151.5682  142.0264  157.0274 H   0  0  0  0  0  0  0  0  0  0  0  0
  150.0835  141.3471  157.6518 H   0  0  0  0  0  0  0  0  0  0  0  0
  150.0755  143.8399  157.7798 H   0  0  0  0  0  0  0  0  0  0  0  0
  149.9138  143.1090  159.3583 H   0  0  0  0  0  0  0  0  0  0  0  0
  152.4813  144.2634  158.1638 H   0  0  0  0  0  0  0  0  0  0  0  0
  151.5479  144.9607  159.4661 H   0  0  0  0  0  0  0  0  0  0  0  0
  153.5464  143.7248  160.3287 H   0  0  0  0  0  0  0  0  0  0  0  0
  152.0575  143.0399  160.9345 H   0  0  0  0  0  0  0  0  0  0  0  0
  153.5604  141.2273  160.2028 H   0  0  0  0  0  0  0  0  0  0  0  0
  153.7391  141.9576  158.6250 H   0  0  0  0  0  0  0  0  0  0  0  0
  1  2  1  0  0  0  0
  1 21  1  0  0  0  0
  1 22  1  0  0  0  0
  1 23  1  0  0  0  0
  2  3  1  0  0  0  0
  2 24  1  0  0  0  0
  2 25  1  0  0  0  0
  3  4  1  0  0  0  0
  3  6  1  0  0  0  0
  3 26  1  0  0  0  0
  4  5  1  0  0  0  0
  4 27  1  0  0  0  0
  4 28  1  0  0  0  0
  5 29  1  0  0  0  0
  5 30  1  0  0  0  0
  5 31  1  0  0  0  0
  6  7  1  0  0  0  0
  6 32  1  0  0  0  0
  7  8  2  0  0  0  0
  7  9  1  0  0  0  0
  9 10  1  0  0  0  0
  9 33  1  0  0  0  0
  9 34  1  0  0  0  0
 10 14  1  0  0  0  0
 10 11  1  0  0  0  0
 11 12  2  0  0  0  0
 12 13  1  0  0  0  0
 13 14  2  0  0  0  0
 14 15  1  0  0  0  0
 15 20  1  0  0  0  0
 15 16  1  0  0  0  0
 15 35  1  0  0  0  0
 16 17  1  0  0  0  0
 16 36  1  0  0  0  0
 16 37  1  0  0  0  0
 17 18  1  0  0  0  0
 17 38  1  0  0  0  0
 17 39  1  0  0  0  0
 18 19  1  0  0  0  0
 18 40  1  0  0  0  0
 18 41  1  0  0  0  0
 19 20  1  0  0  0  0
 19 42  1  0  0  0  0
 19 43  1  0  0  0  0
 20 44  1  0  0  0  0
 20 45  1  0  0  0  0
M  END
> <s_m_source_file>
AV-unprocessed.smi

> <i_m_source_file_index>
2907

> <i_lp_mmshare_version>
43012

> <i_f3d_flags>
0

> <s_epik_input>
W0NIM11bQ0gyXVtDSF0oW0NIMl1bQ0gzXSlbTkhdQyg9TylbQ0gyXW4xbm5uYzFbQ0hdMltDSDJdW0NIMl1bQ0gyXVtDSDJdW0NIMl0y

> <s_epik_cmdline>
J2VwaWtfcHl0aG9uJywgJy1waCcsICc3LjAnLCAnLXRuJywgJzgnLCAnLW1hJywgJzIwMCcsICctbWV0YWxfYmluZGluZycsICctaW1hZScsICc8aW5maWxlLm1hZT4nLCAnLW9tYWUnLCAnPG91dGZpbGUubWFlPic=

> <r_lp_tautomer_probability>
1

> <r_epik_Ionization_Penalty>
4.92512e-07

> <r_epik_Ionization_Penalty_Charging>
0

> <r_epik_Ionization_Penalty_Neutral>
4.92512e-07

> <r_epik_State_Penalty>
-0

> <r_epik_Charging_Adjusted_Penalty>
0

> <i_epik_Tot_Q>
0

> <i_epik_Tot_abs_Q>
0

> <r_epik_Metal_State_Penalty>
-0

> <b_epik_Metal_Only>
0

> <s_lp_Force_Field>
OPLS_2005

> <r_lp_Energy>
10.8377

> <b_lp_Chiralities_Consistent>
1

> <s_lp_Variant>
AV-unprocessed.smi:2907-1

> <Gold.Version>
5.8.1

> <Gold.Id.Protein>
6NUR|6NUR_protein|mol2

> <Gold.PLP.Fitness>
42.1086

> <Gold.PLP.PLP>
-36.9698

> <Gold.PLP.part.hbond>
-2.0431

> <Gold.PLP.part.metal>
0.0000

> <Gold.PLP.part.buried>
-4.8857

> <Gold.PLP.part.nonpolar>
-30.7126

> <Gold.PLP.part.repulsive>
0.1931

> <Gold.PLP.ligand.clash>
0.0000

> <Gold.PLP.ligand.torsion>
0.4796

> <Gold.PLP.Chemscore.Hbond>
2.0000

> <Gold.PLP.Chemscore.CHOScore>
0.0000

> <Gold.PLP.Chemscore.Metal>
0.0000

> <Gold.Chemscore.Hbonds>
donor molecule, donor type, donor heavy atom, donor atom, acceptor molecule, acceptor atom, score
      P1  H  6896  6909       L1     8  1.00
      P1  H  7997  8008       L1    13  1.00

> <Gold.PLP.Chemscore.Internal.Correction>
0.0980

> <Gold.Rescore>
     Score         DG    S(hbond)    S(metal)    S(lipo)     H(rot)  DE(clash)    DE(int)     intcor
     14.88     -18.44       1.94        0.00      94.55       1.79       0.03       3.52       ----

> <Gold.Chemscore.Fitness>
14.8795

> <Gold.Chemscore.DG>
-18.4361

> <Gold.Chemscore.ZeroCoef>
-5.4800

> <Gold.Chemscore.Hbond>
1.9423

> <Gold.Chemscore.Metal>
0.0000

> <Gold.Chemscore.Lipo>
94.5531

> <Gold.Chemscore.Internal_Hbond>
0.0000

> <Gold.Chemscore.DEClash>
0.0331

> <Gold.Chemscore.DEInternal>
3.5236

> <Gold.Chemscore.Rot>
1.7944

> <Gold.Chemscore.Internal.Correction>
   9.000000E+99

> <Gold.Chemscore.Hbonds>
donor molecule, donor type, donor heavy atom, donor atom, acceptor molecule, acceptor atom, score
      P1  H  6896  6909       L1     8  1.00
      P1  H  7997  8008       L1    13  0.55

> <Gold.Chemscore.Hbond.Weighted>
-6.4872

> <Gold.Chemscore.Metal.Weighted>
-0.0000

> <Gold.Chemscore.Lipo.Weighted>
-11.0627

> <Gold.Chemscore.Internal_Hbond.Weighted>
0.0000

> <Gold.Chemscore.DEClash.Weighted>
0.0331

> <Gold.Chemscore.DEInternal.Weighted>
3.5236

> <Gold.Chemscore.Rot.Weighted>
4.5938

> <Gold.Chemscore.Internal.Correction.Weighted>
   9.000000E+99

> <Gold.Protein.RotatedTorsions>
[ 6907 6896 6895 6894 ] final   81.01 input  -60.11 | X-H torsion
[ 7974 7965 7964 7962 ] final   70.38 input  175.53 | X-H torsion
[ 8008 7997 7996 7995 ] final  -86.86 input   59.86 | X-H torsion
[ 10167 10162 10161 10158 ] final -116.15 input  -65.29 | X-H torsion
[ 10718 10713 10712 10709 ] final  137.76 input   66.30 | X-H torsion
[ 10763 10752 10751 10750 ] final   12.37 input  -60.55 | X-H torsion
[ 11005 11000 10999 10996 ] final   14.34 input  -57.11 | X-H torsion

> <Gold.Protein.ActiveResidues>
 VAL166  LYS551  ARG553  GLY616  TRP617  ASP618  TYR619  PRO620  LYS621  CYS622 
 ASP623  PHE694  ASN695  SER759  ASP760  ASP761  ALA762  ILE779  LEU786  VAL792 
 PHE793  MET794  SER795  GLU796  ALA797  LYS798  CYS799  TRP800  GLU811  SER814 

> <Gold.Protein.RotatedAtoms>
  152.5254  134.3270  159.9168 H   0  0  0  0  0  0  0  0  0  0  0  0  # atno 6907 bound_to 6896
  151.3219  133.4030  159.2663 H   0  0  0  0  0  0  0  0  0  0  0  0  # atno 6908 bound_to 6896
  150.9952  134.9294  159.7980 H   0  0  0  0  0  0  0  0  0  0  0  0  # atno 6909 bound_to 6896
  145.7789  139.2878  143.1277 H   0  0  0  0  0  0  0  0  0  0  0  0  # atno 7974 bound_to 7965
  154.6566  140.0573  157.0016 H   0  0  0  0  0  0  0  0  0  0  0  0  # atno 8008 bound_to 7997
  155.1290  140.3255  155.4460 H   0  0  0  0  0  0  0  0  0  0  0  0  # atno 8009 bound_to 7997
  156.2600  140.1984  156.6410 H   0  0  0  0  0  0  0  0  0  0  0  0  # atno 8010 bound_to 7997
  140.0823  143.4776  152.1918 H   0  0  0  0  0  0  0  0  0  0  0  0  # atno 10167 bound_to 10162
  157.4326  131.1050  151.0233 H   0  0  0  0  0  0  0  0  0  0  0  0  # atno 10718 bound_to 10713
  153.1830  135.6830  153.8453 H   0  0  0  0  0  0  0  0  0  0  0  0  # atno 10763 bound_to 10752
  153.7778  135.3186  155.3362 H   0  0  0  0  0  0  0  0  0  0  0  0  # atno 10764 bound_to 10752
  154.8071  135.4741  154.0516 H   0  0  0  0  0  0  0  0  0  0  0  0  # atno 10765 bound_to 10752
  140.4706  134.1035  155.7732 H   0  0  0  0  0  0  0  0  0  0  0  0  # atno 11005 bound_to 11000
  146.0094  140.8449  142.9978 LP  0  0  0  0  0  0  0  0  0  0  0  0  # atno 17320 bound_to 7965
  144.6800  140.2468  143.7336 LP  0  0  0  0  0  0  0  0  0  0  0  0  # atno 17321 bound_to 7965
  139.5772  144.7493  151.3733 LP  0  0  0  0  0  0  0  0  0  0  0  0  # atno 17342 bound_to 10162
  140.7071  143.7485  150.7501 LP  0  0  0  0  0  0  0  0  0  0  0  0  # atno 17343 bound_to 10162
  157.1124  130.6027  149.5485 LP  0  0  0  0  0  0  0  0  0  0  0  0  # atno 17370 bound_to 10713
  155.9919  130.4975  150.7316 LP  0  0  0  0  0  0  0  0  0  0  0  0  # atno 17371 bound_to 10713
  141.1579  133.8849  157.1929 LP  0  0  0  0  0  0  0  0  0  0  0  0  # atno 17394 bound_to 11000
  139.9888  135.0072  156.9925 LP  0  0  0  0  0  0  0  0  0  0  0  0  # atno 17395 bound_to 11000

$$$$
