AV-unprocessed.smi:6|AV-procd|sdf|42|dock7
  -GOLD-   2262015153D 1   1.00000     0.00000
 Structure written by MMmdl.
 37 38  0  0  0  0  0  0  0  0  3 V2000
  145.9457  131.8513  149.5647 C   0  0  0  0  0  0  0  0  0  0  0  0
  144.5657  132.4994  149.7535 C   0  0  0  0  0  0  0  0  0  0  0  0
  143.7943  132.6641  148.4351 C   0  0  0  0  0  0  0  0  0  0  0  0
  144.6502  133.8054  150.5305 C   0  0  0  0  0  0  0  0  0  0  0  0
  145.3692  134.8193  150.0215 N   0  3  0  0  0  0  0  0  0  0  0  0
  145.4576  135.9883  150.7020 C   0  0  0  0  0  0  0  0  0  0  0  0
  144.8017  136.1446  151.9369 C   0  0  0  0  0  0  0  0  0  0  0  0
  144.0634  135.0463  152.4102 C   0  0  0  0  0  0  0  0  0  0  0  0
  143.3925  135.1427  153.6358 N   0  0  0  0  0  0  0  0  0  0  0  0
  143.2166  136.4559  154.2444 C   0  0  0  0  0  0  0  0  0  0  0  0
  141.7969  136.9868  154.1132 C   0  0  0  0  0  0  0  0  0  0  0  0
  141.5161  138.3064  154.1426 C   0  0  0  0  0  0  0  0  0  0  0  0
  140.2044  138.7986  154.0437 N   0  0  0  0  0  0  0  0  0  0  0  0
  140.0023  140.2490  154.0780 C   0  0  0  0  0  0  0  0  0  0  0  0
  139.1559  137.9369  153.9161 C   0  0  0  0  0  0  0  0  0  0  0  0
  138.0171  138.3970  153.8243 O   0  0  0  0  0  0  0  0  0  0  0  0
  139.4102  136.5929  153.8954 N   0  5  0  0  0  0  0  0  0  0  0  0
  140.6637  136.0615  153.9937 C   0  0  0  0  0  0  0  0  0  0  0  0
  140.8655  134.8473  153.9832 O   0  0  0  0  0  0  0  0  0  0  0  0
  144.0034  133.8968  151.7017 N   0  0  0  0  0  0  0  0  0  0  0  0
  146.4372  131.6878  150.5241 H   0  0  0  0  0  0  0  0  0  0  0  0
  146.6002  132.4772  148.9571 H   0  0  0  0  0  0  0  0  0  0  0  0
  145.8600  130.8841  149.0687 H   0  0  0  0  0  0  0  0  0  0  0  0
  143.9841  131.8058  150.3633 H   0  0  0  0  0  0  0  0  0  0  0  0
  142.7929  133.0570  148.6126 H   0  0  0  0  0  0  0  0  0  0  0  0
  143.6872  131.7085  147.9213 H   0  0  0  0  0  0  0  0  0  0  0  0
  144.3055  133.3484  147.7567 H   0  0  0  0  0  0  0  0  0  0  0  0
  146.0511  136.7609  150.2357 H   0  0  0  0  0  0  0  0  0  0  0  0
  144.8617  137.0694  152.4922 H   0  0  0  0  0  0  0  0  0  0  0  0
  143.4884  134.3642  154.2728 H   0  0  0  0  0  0  0  0  0  0  0  0
  143.4800  136.4063  155.3019 H   0  0  0  0  0  0  0  0  0  0  0  0
  143.9022  137.1639  153.7768 H   0  0  0  0  0  0  0  0  0  0  0  0
  142.2800  139.0635  154.2428 H   0  0  0  0  0  0  0  0  0  0  0  0
  139.3144  140.5231  154.8792 H   0  0  0  0  0  0  0  0  0  0  0  0
  139.5801  140.5955  153.1337 H   0  0  0  0  0  0  0  0  0  0  0  0
  140.9297  140.7979  154.2444 H   0  0  0  0  0  0  0  0  0  0  0  0
  145.8506  134.7189  149.1274 H   0  0  0  0  0  0  0  0  0  0  0  0
  1  2  1  0  0  0  0
  1 21  1  0  0  0  0
  1 22  1  0  0  0  0
  1 23  1  0  0  0  0
  2  3  1  0  0  0  0
  2  4  1  0  0  0  0
  2 24  1  0  0  0  0
  3 25  1  0  0  0  0
  3 26  1  0  0  0  0
  3 27  1  0  0  0  0
  4 20  1  0  0  0  0
  4  5  2  0  0  0  0
  5  6  1  0  0  0  0
  5 37  1  0  0  0  0
  6  7  2  0  0  0  0
  6 28  1  0  0  0  0
  7  8  1  0  0  0  0
  7 29  1  0  0  0  0
  8  9  1  0  0  0  0
  8 20  2  0  0  0  0
  9 10  1  0  0  0  0
  9 30  1  0  0  0  0
 10 11  1  0  0  0  0
 10 31  1  0  0  0  0
 10 32  1  0  0  0  0
 11 18  1  0  0  0  0
 11 12  2  0  0  0  0
 12 13  1  0  0  0  0
 12 33  1  0  0  0  0
 13 14  1  0  0  0  0
 13 15  1  0  0  0  0
 14 34  1  0  0  0  0
 14 35  1  0  0  0  0
 14 36  1  0  0  0  0
 15 16  2  0  0  0  0
 15 17  1  0  0  0  0
 17 18  1  0  0  0  0
 18 19  2  0  0  0  0
M  CHG  1   5   1
M  CHG  1  17  -1
M  END
> <s_m_source_file>
AV-unprocessed.smi

> <i_m_source_file_index>
6

> <i_lp_mmshare_version>
43012

> <i_f3d_flags>
0

> <s_epik_input>
W0NIM11bQ0hdKFtDSDNdKWMxbltjSF1bY0hdYyhuMSlbTkhdW0NIMl1jMltjSF1uKFtDSDNdKWMoPU8pW25IXWMyPU8=

> <s_epik_cmdline>
J2VwaWtfcHl0aG9uJywgJy1waCcsICc3LjAnLCAnLXRuJywgJzgnLCAnLW1hJywgJzIwMCcsICctbWV0YWxfYmluZGluZycsICctaW1hZScsICc8aW5maWxlLm1hZT4nLCAnLW9tYWUnLCAnPG91dGZpbGUubWFlPic=

> <r_lp_tautomer_probability>
0.998874

> <r_epik_Ionization_Penalty>
4.8157

> <r_epik_Ionization_Penalty_Charging>
0.866709

> <r_epik_Ionization_Penalty_Neutral>
3.94899

> <r_epik_State_Penalty>
4.49389

> <r_epik_Charging_Adjusted_Penalty>
5.3606

> <i_epik_Tot_Q>
0

> <i_epik_Tot_abs_Q>
2

> <r_epik_Metal_State_Penalty>
1.28929

> <b_epik_Metal_Only>
1

> <s_lp_Force_Field>
OPLS_2005

> <r_lp_Energy>
16.1184

> <b_lp_Chiralities_Consistent>
1

> <s_lp_Variant>
AV-unprocessed.smi:6-4

> <Gold.Version>
5.8.1

> <Gold.Id.Protein>
6NUR|6NUR_protein|mol2

> <Gold.PLP.Fitness>
45.1933

> <Gold.PLP.PLP>
-37.1984

> <Gold.PLP.part.hbond>
-2.6750

> <Gold.PLP.part.metal>
0.0000

> <Gold.PLP.part.buried>
-5.9324

> <Gold.PLP.part.nonpolar>
-28.7417

> <Gold.PLP.part.repulsive>
0.6038

> <Gold.PLP.ligand.clash>
0.0000

> <Gold.PLP.ligand.torsion>
0.5418

> <Gold.PLP.Chemscore.Hbond>
2.0000

> <Gold.PLP.Chemscore.CHOScore>
1.0000

> <Gold.PLP.Chemscore.Metal>
0.0000

> <Gold.Chemscore.Hbonds>
donor molecule, donor type, donor heavy atom, donor atom, acceptor molecule, acceptor atom, score
      L1  H     5    37       P1  7921  0.98
      P1  H 11000 11005       L1    19  1.00
      L1  C    12    33       P1 10175  0.83

> <Gold.PLP.Chemscore.Internal.Correction>
0.0784

> <Gold.Rescore>
     Score         DG    S(hbond)    S(metal)    S(lipo)     H(rot)  DE(clash)    DE(int)     intcor
     12.59     -15.04       1.87        0.00      64.47       1.65       0.21       2.23       ----

> <Gold.Chemscore.Fitness>
12.5919

> <Gold.Chemscore.DG>
-15.0370

> <Gold.Chemscore.ZeroCoef>
-5.4800

> <Gold.Chemscore.Hbond>
1.8660

> <Gold.Chemscore.Metal>
0.0000

> <Gold.Chemscore.Lipo>
64.4674

> <Gold.Chemscore.Internal_Hbond>
0.0000

> <Gold.Chemscore.DEClash>
0.2126

> <Gold.Chemscore.DEInternal>
2.2325

> <Gold.Chemscore.Rot>
1.6477

> <Gold.Chemscore.Internal.Correction>
   9.000000E+99

> <Gold.Chemscore.Hbonds>
donor molecule, donor type, donor heavy atom, donor atom, acceptor molecule, acceptor atom, score
      L1  H     5    37       P1  7921  0.80
      P1  H 11000 11005       L1    19  0.65

> <Gold.Chemscore.Hbond.Weighted>
-6.2323

> <Gold.Chemscore.Metal.Weighted>
-0.0000

> <Gold.Chemscore.Lipo.Weighted>
-7.5427

> <Gold.Chemscore.Internal_Hbond.Weighted>
0.0000

> <Gold.Chemscore.DEClash.Weighted>
0.2126

> <Gold.Chemscore.DEInternal.Weighted>
2.2325

> <Gold.Chemscore.Rot.Weighted>
4.2180

> <Gold.Chemscore.Internal.Correction.Weighted>
   9.000000E+99

> <Gold.Protein.RotatedTorsions>
[ 6907 6896 6895 6894 ] final  -79.63 input  -60.11 | X-H torsion
[ 7974 7965 7964 7962 ] final  -51.02 input  175.53 | X-H torsion
[ 8008 7997 7996 7995 ] final   15.78 input   59.86 | X-H torsion
[ 10167 10162 10161 10158 ] final -154.42 input  -65.29 | X-H torsion
[ 10718 10713 10712 10709 ] final   98.09 input   66.30 | X-H torsion
[ 10763 10752 10751 10750 ] final  150.50 input  -60.55 | X-H torsion
[ 11005 11000 10999 10996 ] final   18.11 input  -57.11 | X-H torsion

> <Gold.Protein.ActiveResidues>
 VAL166  LYS551  ARG553  GLY616  TRP617  ASP618  TYR619  PRO620  LYS621  CYS622 
 ASP623  PHE694  ASN695  SER759  ASP760  ASP761  ALA762  ILE779  LEU786  VAL792 
 PHE793  MET794  SER795  GLU796  ALA797  LYS798  CYS799  TRP800  GLU811  SER814 

> <Gold.Protein.RotatedAtoms>
  150.6945  134.4091  159.5153 H   0  0  0  0  0  0  0  0  0  0  0  0  # atno 6907 bound_to 6896
  152.1853  134.8717  160.0532 H   0  0  0  0  0  0  0  0  0  0  0  0  # atno 6908 bound_to 6896
  151.9692  133.3685  159.4101 H   0  0  0  0  0  0  0  0  0  0  0  0  # atno 6909 bound_to 6896
  145.9236  140.7812  142.9635 H   0  0  0  0  0  0  0  0  0  0  0  0  # atno 7974 bound_to 7965
  154.8676  140.2954  155.5501 H   0  0  0  0  0  0  0  0  0  0  0  0  # atno 8008 bound_to 7997
  156.3021  140.2466  156.3593 H   0  0  0  0  0  0  0  0  0  0  0  0  # atno 8009 bound_to 7997
  154.8851  140.0396  157.1795 H   0  0  0  0  0  0  0  0  0  0  0  0  # atno 8010 bound_to 7997
  139.7015  143.9255  152.2430 H   0  0  0  0  0  0  0  0  0  0  0  0  # atno 10167 bound_to 10162
  157.6902  131.0629  150.4743 H   0  0  0  0  0  0  0  0  0  0  0  0  # atno 10718 bound_to 10713
  154.0885  135.2854  155.3276 H   0  0  0  0  0  0  0  0  0  0  0  0  # atno 10763 bound_to 10752
  154.6636  135.5325  153.8052 H   0  0  0  0  0  0  0  0  0  0  0  0  # atno 10764 bound_to 10752
  153.0422  135.6540  154.1056 H   0  0  0  0  0  0  0  0  0  0  0  0  # atno 10765 bound_to 10752
  140.4285  134.1445  155.7678 H   0  0  0  0  0  0  0  0  0  0  0  0  # atno 11005 bound_to 11000
  144.6756  140.2014  143.7386 LP  0  0  0  0  0  0  0  0  0  0  0  0  # atno 17320 bound_to 7965
  145.8518  139.2179  143.1767 LP  0  0  0  0  0  0  0  0  0  0  0  0  # atno 17321 bound_to 7965
  139.9099  144.6862  150.8573 LP  0  0  0  0  0  0  0  0  0  0  0  0  # atno 17342 bound_to 10162
  140.7711  143.3451  151.2128 LP  0  0  0  0  0  0  0  0  0  0  0  0  # atno 17343 bound_to 10162
  156.5079  130.4132  149.6317 LP  0  0  0  0  0  0  0  0  0  0  0  0  # atno 17370 bound_to 10713
  156.3268  130.7310  151.2232 LP  0  0  0  0  0  0  0  0  0  0  0  0  # atno 17371 bound_to 10713
  141.1755  133.8522  157.1434 LP  0  0  0  0  0  0  0  0  0  0  0  0  # atno 17394 bound_to 11000
  140.0151  134.9971  157.0476 LP  0  0  0  0  0  0  0  0  0  0  0  0  # atno 17395 bound_to 11000

$$$$
