AV-unprocessed.smi:1830|AV-procd|sdf|7447|dock6
  -GOLD-   22720 9133D 1   1.00000     0.00000
 Structure written by MMmdl.
 54 57  0  0  0  0  0  0  0  0  3 V2000
  148.6217  136.8061  155.0288 O   0  0  0  0  0  0  0  0  0  0  0  0
  147.5894  137.4250  154.7730 C   0  0  0  0  0  0  0  0  0  0  0  0
  146.4290  136.8318  154.4608 N   0  0  0  0  0  0  0  0  0  0  0  0
  146.2302  135.3898  154.3467 C   0  0  0  0  0  0  0  0  0  0  0  0
  146.3165  134.8836  152.8931 C   0  0  1  0  0  0  0  0  0  0  0  0
  146.2506  133.3494  152.7790 C   0  0  0  0  0  0  0  0  0  0  0  0
  146.2729  132.9072  151.3614 N   0  3  1  0  0  0  0  0  0  0  0  0
  145.9114  131.4796  151.2141 C   0  0  0  0  0  0  0  0  0  0  0  0
  144.4228  131.4379  150.8222 C   0  0  0  0  0  0  0  0  0  0  0  0
  143.9931  132.9011  150.6695 C   0  0  0  0  0  0  0  0  0  0  0  0
  145.3178  133.6458  150.5064 C   0  0  1  0  0  0  0  0  0  0  0  0
  145.2834  135.1602  150.7946 C   0  0  0  0  0  0  0  0  0  0  0  0
  145.2032  135.4168  152.1893 O   0  0  0  0  0  0  0  0  0  0  0  0
  147.4663  138.7625  154.7903 N   0  0  0  0  0  0  0  0  0  0  0  0
  148.4601  139.7258  155.1248 C   0  0  0  0  0  0  0  0  0  0  0  0
  149.8111  139.3579  155.3524 C   0  0  0  0  0  0  0  0  0  0  0  0
  150.7678  140.3500  155.6402 C   0  0  0  0  0  0  0  0  0  0  0  0
  150.3627  141.6957  155.6850 C   0  0  0  0  0  0  0  0  0  0  0  0
  149.0732  142.0143  155.4480 N   0  3  0  0  0  0  0  0  0  0  0  0
  148.1091  141.1035  155.1655 C   0  0  0  0  0  0  0  0  0  0  0  0
  146.7869  141.5517  154.9578 N   0  0  0  0  0  0  0  0  0  0  0  0
  146.2442  142.3574  156.0483 C   0  0  0  0  0  0  0  0  0  0  0  0
  145.3224  143.3932  155.4026 C   0  0  0  0  0  0  0  0  0  0  0  0
  145.9230  143.5685  154.0134 C   0  0  0  0  0  0  0  0  0  0  0  0
  146.4113  142.1594  153.6815 C   0  0  0  0  0  0  0  0  0  0  0  0
  145.6296  137.4171  154.2654 H   0  0  0  0  0  0  0  0  0  0  0  0
  146.9879  134.8964  154.9561 H   0  0  0  0  0  0  0  0  0  0  0  0
  145.2656  135.1210  154.7806 H   0  0  0  0  0  0  0  0  0  0  0  0
  147.2395  135.2510  152.4409 H   0  0  0  0  0  0  0  0  0  0  0  0
  147.0903  132.8881  153.3000 H   0  0  0  0  0  0  0  0  0  0  0  0
  145.3415  132.9907  153.2648 H   0  0  0  0  0  0  0  0  0  0  0  0
  146.5130  131.0551  150.4095 H   0  0  0  0  0  0  0  0  0  0  0  0
  146.1221  130.8998  152.1141 H   0  0  0  0  0  0  0  0  0  0  0  0
  144.2976  130.8986  149.8826 H   0  0  0  0  0  0  0  0  0  0  0  0
  143.8198  130.9296  151.5751 H   0  0  0  0  0  0  0  0  0  0  0  0
  143.3173  133.0560  149.8278 H   0  0  0  0  0  0  0  0  0  0  0  0
  143.4811  133.2340  151.5734 H   0  0  0  0  0  0  0  0  0  0  0  0
  145.6413  133.5077  149.4732 H   0  0  0  0  0  0  0  0  0  0  0  0
  146.1755  135.6417  150.3912 H   0  0  0  0  0  0  0  0  0  0  0  0
  144.4308  135.6207  150.2952 H   0  0  0  0  0  0  0  0  0  0  0  0
  146.5359  139.1278  154.6471 H   0  0  0  0  0  0  0  0  0  0  0  0
  150.1333  138.3291  155.2941 H   0  0  0  0  0  0  0  0  0  0  0  0
  151.7994  140.0819  155.8167 H   0  0  0  0  0  0  0  0  0  0  0  0
  151.0260  142.5217  155.8972 H   0  0  0  0  0  0  0  0  0  0  0  0
  145.7019  141.7415  156.7658 H   0  0  0  0  0  0  0  0  0  0  0  0
  147.0540  142.8587  156.5811 H   0  0  0  0  0  0  0  0  0  0  0  0
  144.3121  142.9902  155.3185 H   0  0  0  0  0  0  0  0  0  0  0  0
  145.2688  144.3246  155.9668 H   0  0  0  0  0  0  0  0  0  0  0  0
  145.2103  143.9539  153.2840 H   0  0  0  0  0  0  0  0  0  0  0  0
  146.7692  144.2554  154.0584 H   0  0  0  0  0  0  0  0  0  0  0  0
  147.2008  142.1746  152.9304 H   0  0  0  0  0  0  0  0  0  0  0  0
  145.5921  141.5725  153.2651 H   0  0  0  0  0  0  0  0  0  0  0  0
  147.2082  133.0583  151.0110 H   0  0  0  0  0  0  0  0  0  0  0  0
  148.8087  142.9988  155.4873 H   0  0  0  0  0  0  0  0  0  0  0  0
  1  2  2  0  0  0  0
  2  3  1  0  0  0  0
  2 14  1  0  0  0  0
  3  4  1  0  0  0  0
  3 26  1  0  0  0  0
  4  5  1  0  0  0  0
  4 27  1  0  0  0  0
  4 28  1  0  0  0  0
  5 13  1  0  0  0  0
  5  6  1  0  0  0  0
  5 29  1  0  0  0  0
  6  7  1  0  0  0  0
  6 30  1  0  0  0  0
  6 31  1  0  0  0  0
  7 11  1  0  0  0  0
  7  8  1  0  0  0  0
  7 53  1  0  0  0  0
  8  9  1  0  0  0  0
  8 32  1  0  0  0  0
  8 33  1  0  0  0  0
  9 10  1  0  0  0  0
  9 34  1  0  0  0  0
  9 35  1  0  0  0  0
 10 11  1  0  0  0  0
 10 36  1  0  0  0  0
 10 37  1  0  0  0  0
 11 12  1  0  0  0  0
 11 38  1  0  0  0  0
 12 13  1  0  0  0  0
 12 39  1  0  0  0  0
 12 40  1  0  0  0  0
 14 15  1  0  0  0  0
 14 41  1  0  0  0  0
 15 20  1  0  0  0  0
 15 16  2  0  0  0  0
 16 17  1  0  0  0  0
 16 42  1  0  0  0  0
 17 18  2  0  0  0  0
 17 43  1  0  0  0  0
 18 19  1  0  0  0  0
 18 44  1  0  0  0  0
 19 20  2  0  0  0  0
 19 54  1  0  0  0  0
 20 21  1  0  0  0  0
 21 25  1  0  0  0  0
 21 22  1  0  0  0  0
 22 23  1  0  0  0  0
 22 45  1  0  0  0  0
 22 46  1  0  0  0  0
 23 24  1  0  0  0  0
 23 47  1  0  0  0  0
 23 48  1  0  0  0  0
 24 25  1  0  0  0  0
 24 49  1  0  0  0  0
 24 50  1  0  0  0  0
 25 51  1  0  0  0  0
 25 52  1  0  0  0  0
M  CHG  1   7   1
M  CHG  1  19   1
M  END
> <s_m_source_file>
AV-unprocessed.smi

> <i_m_source_file_index>
1830

> <i_lp_mmshare_version>
43012

> <i_f3d_flags>
0

> <s_epik_input>
W0NIMl0xW0NIMl1bQ0gyXVtDQEhdKE4xMilbQ0gyXU9bQ0BASF0oW0NIMl0yKVtDSDJdW05IXUMoPU8pW05IXWMzW2NIXVtjSF1bY0hdbmMzTjRbQ0gyXVtDSDJdW0NIMl1bQ0gyXTQ=

> <s_epik_cmdline>
J2VwaWtfcHl0aG9uJywgJy1waCcsICc3LjAnLCAnLXRuJywgJzgnLCAnLW1hJywgJzIwMCcsICctbWV0YWxfYmluZGluZycsICctaW1hZScsICc8aW5maWxlLm1hZT4nLCAnLW9tYWUnLCAnPG91dGZpbGUubWFlPic=

> <r_lp_tautomer_probability>
0.999994

> <r_epik_Ionization_Penalty>
1.29113

> <r_epik_Ionization_Penalty_Charging>
1.29111

> <r_epik_Ionization_Penalty_Neutral>
1.88144e-05

> <r_epik_State_Penalty>
1.32676

> <r_epik_Charging_Adjusted_Penalty>
2.61787

> <i_epik_Tot_Q>
2

> <i_epik_Tot_abs_Q>
2

> <r_epik_Metal_State_Penalty>
1.40425

> <b_epik_Metal_Only>
0

> <s_lp_Force_Field>
OPLS_2005

> <r_lp_Energy>
75.2676

> <b_lp_Chiralities_Consistent>
1

> <s_lp_Variant>
AV-unprocessed.smi:1830-16

> <Gold.Version>
5.8.1

> <Gold.Id.Protein>
6NUR|6NUR_protein|mol2

> <Gold.PLP.Fitness>
41.8864

> <Gold.PLP.PLP>
-36.5942

> <Gold.PLP.part.hbond>
-1.0000

> <Gold.PLP.part.metal>
0.0000

> <Gold.PLP.part.buried>
-6.4471

> <Gold.PLP.part.nonpolar>
-29.0199

> <Gold.PLP.part.repulsive>
0.5284

> <Gold.PLP.ligand.clash>
0.0000

> <Gold.PLP.ligand.torsion>
0.4421

> <Gold.PLP.Chemscore.Hbond>
2.0000

> <Gold.PLP.Chemscore.CHOScore>
0.0000

> <Gold.PLP.Chemscore.Metal>
0.0000

> <Gold.Chemscore.Hbonds>
donor molecule, donor type, donor heavy atom, donor atom, acceptor molecule, acceptor atom, score
      L1  H    19    54       P1  8028  2.00

> <Gold.PLP.Chemscore.Internal.Correction>
0.1764

> <Gold.Rescore>
     Score         DG    S(hbond)    S(metal)    S(lipo)     H(rot)  DE(clash)    DE(int)     intcor
     13.98     -15.85       1.00        0.00      91.42       1.43       0.12       1.75       ----

> <Gold.Chemscore.Fitness>
13.9793

> <Gold.Chemscore.DG>
-15.8547

> <Gold.Chemscore.ZeroCoef>
-5.4800

> <Gold.Chemscore.Hbond>
0.9981

> <Gold.Chemscore.Metal>
0.0000

> <Gold.Chemscore.Lipo>
91.4205

> <Gold.Chemscore.Internal_Hbond>
0.0000

> <Gold.Chemscore.DEClash>
0.1209

> <Gold.Chemscore.DEInternal>
1.7545

> <Gold.Chemscore.Rot>
1.4278

> <Gold.Chemscore.Internal.Correction>
   9.000000E+99

> <Gold.Chemscore.Hbonds>
donor molecule, donor type, donor heavy atom, donor atom, acceptor molecule, acceptor atom, score
      L1  H    19    54       P1  8028  1.00

> <Gold.Chemscore.Hbond.Weighted>
-3.3336

> <Gold.Chemscore.Metal.Weighted>
-0.0000

> <Gold.Chemscore.Lipo.Weighted>
-10.6962

> <Gold.Chemscore.Internal_Hbond.Weighted>
0.0000

> <Gold.Chemscore.DEClash.Weighted>
0.1209

> <Gold.Chemscore.DEInternal.Weighted>
1.7545

> <Gold.Chemscore.Rot.Weighted>
3.6551

> <Gold.Chemscore.Internal.Correction.Weighted>
   9.000000E+99

> <Gold.Protein.RotatedTorsions>
[ 6907 6896 6895 6894 ] final  -56.94 input  -60.11 | X-H torsion
[ 7974 7965 7964 7962 ] final   36.62 input  175.53 | X-H torsion
[ 8008 7997 7996 7995 ] final  147.40 input   59.86 | X-H torsion
[ 10167 10162 10161 10158 ] final  106.16 input  -65.29 | X-H torsion
[ 10718 10713 10712 10709 ] final   76.35 input   66.30 | X-H torsion
[ 10763 10752 10751 10750 ] final  -54.86 input  -60.55 | X-H torsion
[ 11005 11000 10999 10996 ] final -141.72 input  -57.11 | X-H torsion

> <Gold.Protein.ActiveResidues>
 VAL166  LYS551  ARG553  GLY616  TRP617  ASP618  TYR619  PRO620  LYS621  CYS622 
 ASP623  PHE694  ASN695  SER759  ASP760  ASP761  ALA762  ILE779  LEU786  VAL792 
 PHE793  MET794  SER795  GLU796  ALA797  LYS798  CYS799  TRP800  GLU811  SER814 

> <Gold.Protein.RotatedAtoms>
  150.8126  134.7290  159.6701 H   0  0  0  0  0  0  0  0  0  0  0  0  # atno 6907 bound_to 6896
  152.4246  134.5889  159.9978 H   0  0  0  0  0  0  0  0  0  0  0  0  # atno 6908 bound_to 6896
  151.6094  133.3311  159.3100 H   0  0  0  0  0  0  0  0  0  0  0  0  # atno 6909 bound_to 6896
  146.1198  139.5995  142.9297 H   0  0  0  0  0  0  0  0  0  0  0  0  # atno 7974 bound_to 7965
  156.2825  140.2156  156.5532 H   0  0  0  0  0  0  0  0  0  0  0  0  # atno 8008 bound_to 7997
  154.7274  140.0498  157.0717 H   0  0  0  0  0  0  0  0  0  0  0  0  # atno 8009 bound_to 7997
  155.0399  140.3144  155.4731 H   0  0  0  0  0  0  0  0  0  0  0  0  # atno 8010 bound_to 7997
  139.7032  144.7090  151.1150 H   0  0  0  0  0  0  0  0  0  0  0  0  # atno 10167 bound_to 10162
  157.6670  130.9770  150.1484 H   0  0  0  0  0  0  0  0  0  0  0  0  # atno 10718 bound_to 10713
  154.1816  135.6442  153.5035 H   0  0  0  0  0  0  0  0  0  0  0  0  # atno 10763 bound_to 10752
  153.0058  135.5407  154.6509 H   0  0  0  0  0  0  0  0  0  0  0  0  # atno 10764 bound_to 10752
  154.5874  135.2931  155.0643 H   0  0  0  0  0  0  0  0  0  0  0  0  # atno 10765 bound_to 10752
  140.8296  134.2533  157.4863 H   0  0  0  0  0  0  0  0  0  0  0  0  # atno 11005 bound_to 11000
  145.5490  141.0415  143.2289 LP  0  0  0  0  0  0  0  0  0  0  0  0  # atno 17320 bound_to 7965
  144.7586  139.7011  143.7243 LP  0  0  0  0  0  0  0  0  0  0  0  0  # atno 17321 bound_to 7965
  140.7715  143.5394  150.9330 LP  0  0  0  0  0  0  0  0  0  0  0  0  # atno 17342 bound_to 10162
  139.9077  143.6759  152.3121 LP  0  0  0  0  0  0  0  0  0  0  0  0  # atno 17343 bound_to 10162
  156.2289  130.3680  149.8468 LP  0  0  0  0  0  0  0  0  0  0  0  0  # atno 17370 bound_to 10713
  156.6300  130.8662  151.3493 LP  0  0  0  0  0  0  0  0  0  0  0  0  # atno 17371 bound_to 10713
  139.8705  134.9579  156.4283 LP  0  0  0  0  0  0  0  0  0  0  0  0  # atno 17394 bound_to 11000
  140.9012  133.7778  155.9682 LP  0  0  0  0  0  0  0  0  0  0  0  0  # atno 17395 bound_to 11000

$$$$
