AV-unprocessed.smi:1874|AV-procd|sdf|7611|dock5
  -GOLD-   22720 9333D 1   1.00000     0.00000
 Structure written by MMmdl.
 45 46  0  0  0  0  0  0  0  0  1 V2000
  151.6006  141.1093  158.2658 C   0  0  0  0  0  0  0  0  0  0  0  0
  152.0319  140.1044  157.1952 C   0  0  0  0  0  0  0  0  0  0  0  0
  152.8755  139.2614  157.5002 O   0  0  0  0  0  0  0  0  0  0  0  0
  151.4808  140.1749  155.9595 N   0  0  0  0  0  0  0  0  0  0  0  0
  151.7352  139.2357  154.8601 C   0  0  0  0  0  0  0  0  0  0  0  0
  150.4788  138.3735  154.6441 C   0  0  0  0  0  0  0  0  0  0  0  0
  149.2317  139.2504  154.3848 C   0  0  0  0  0  0  0  0  0  0  0  0
  148.0222  138.4336  154.3850 N   0  0  0  0  0  0  0  0  0  0  0  0
  147.6504  137.5990  155.3670 C   0  0  0  0  0  0  0  0  0  0  0  0
  148.3169  137.4200  156.3878 O   0  0  0  0  0  0  0  0  0  0  0  0
  146.3281  136.8492  155.1443 C   0  0  0  0  0  0  0  0  0  0  0  0
  146.4205  135.7884  154.1301 N   0  0  0  0  0  0  0  0  0  0  0  0
  145.6904  136.0402  152.9846 N   0  0  0  0  0  0  0  0  0  0  0  0
  145.6962  135.2170  151.9883 C   0  0  0  0  0  0  0  0  0  0  0  0
  144.8676  135.5990  150.7914 C   0  0  0  0  0  0  0  0  0  0  0  0
  146.4850  133.9916  152.0672 C   0  0  0  0  0  0  0  0  0  0  0  0
  146.4583  133.0627  150.8612 C   0  0  0  0  0  0  0  0  0  0  0  0
  147.1863  133.7484  153.2027 C   0  0  0  0  0  0  0  0  0  0  0  0
  147.9809  132.5750  153.3723 C   0  0  0  0  0  0  0  0  0  0  0  0
  148.6074  131.6118  153.5133 N   0  0  0  0  0  0  0  0  0  0  0  0
  147.1822  134.6753  154.3367 C   0  0  0  0  0  0  0  0  0  0  0  0
  147.8064  134.4849  155.3819 O   0  0  0  0  0  0  0  0  0  0  0  0
  149.1000  140.3703  155.4394 C   0  0  0  0  0  0  0  0  0  0  0  0
  150.4247  141.1338  155.6158 C   0  0  0  0  0  0  0  0  0  0  0  0
  151.8045  142.1307  157.9431 H   0  0  0  0  0  0  0  0  0  0  0  0
  152.1470  140.9388  159.1942 H   0  0  0  0  0  0  0  0  0  0  0  0
  150.5369  141.0099  158.4829 H   0  0  0  0  0  0  0  0  0  0  0  0
  151.9591  139.7987  153.9528 H   0  0  0  0  0  0  0  0  0  0  0  0
  152.6004  138.5953  155.0235 H   0  0  0  0  0  0  0  0  0  0  0  0
  150.6394  137.6900  153.8095 H   0  0  0  0  0  0  0  0  0  0  0  0
  150.3174  137.7509  155.5256 H   0  0  0  0  0  0  0  0  0  0  0  0
  149.3431  139.7283  153.4095 H   0  0  0  0  0  0  0  0  0  0  0  0
  147.4187  138.5153  153.5797 H   0  0  0  0  0  0  0  0  0  0  0  0
  145.9858  136.4299  156.0924 H   0  0  0  0  0  0  0  0  0  0  0  0
  145.5694  137.5797  154.8574 H   0  0  0  0  0  0  0  0  0  0  0  0
  144.1686  134.8034  150.5316 H   0  0  0  0  0  0  0  0  0  0  0  0
  145.5040  135.7871  149.9265 H   0  0  0  0  0  0  0  0  0  0  0  0
  144.2834  136.5025  150.9736 H   0  0  0  0  0  0  0  0  0  0  0  0
  147.1519  132.2292  150.9673 H   0  0  0  0  0  0  0  0  0  0  0  0
  146.7349  133.5999  149.9534 H   0  0  0  0  0  0  0  0  0  0  0  0
  145.4600  132.6465  150.7243 H   0  0  0  0  0  0  0  0  0  0  0  0
  148.3070  141.0624  155.1538 H   0  0  0  0  0  0  0  0  0  0  0  0
  148.8062  139.9426  156.3994 H   0  0  0  0  0  0  0  0  0  0  0  0
  150.3049  141.9172  156.3654 H   0  0  0  0  0  0  0  0  0  0  0  0
  150.6886  141.6476  154.6903 H   0  0  0  0  0  0  0  0  0  0  0  0
  1  2  1  0  0  0  0
  1 25  1  0  0  0  0
  1 26  1  0  0  0  0
  1 27  1  0  0  0  0
  2  3  2  0  0  0  0
  2  4  1  0  0  0  0
  4 24  1  0  0  0  0
  4  5  1  0  0  0  0
  5  6  1  0  0  0  0
  5 28  1  0  0  0  0
  5 29  1  0  0  0  0
  6  7  1  0  0  0  0
  6 30  1  0  0  0  0
  6 31  1  0  0  0  0
  7  8  1  0  0  0  0
  7 23  1  0  0  0  0
  7 32  1  0  0  0  0
  8  9  1  0  0  0  0
  8 33  1  0  0  0  0
  9 10  2  0  0  0  0
  9 11  1  0  0  0  0
 11 12  1  0  0  0  0
 11 34  1  0  0  0  0
 11 35  1  0  0  0  0
 12 21  1  0  0  0  0
 12 13  1  0  0  0  0
 13 14  2  0  0  0  0
 14 15  1  0  0  0  0
 14 16  1  0  0  0  0
 15 36  1  0  0  0  0
 15 37  1  0  0  0  0
 15 38  1  0  0  0  0
 16 17  1  0  0  0  0
 16 18  2  0  0  0  0
 17 39  1  0  0  0  0
 17 40  1  0  0  0  0
 17 41  1  0  0  0  0
 18 19  1  0  0  0  0
 18 21  1  0  0  0  0
 19 20  3  0  0  0  0
 21 22  2  0  0  0  0
 23 24  1  0  0  0  0
 23 42  1  0  0  0  0
 23 43  1  0  0  0  0
 24 44  1  0  0  0  0
 24 45  1  0  0  0  0
M  END
> <s_m_source_file>
AV-unprocessed.smi

> <i_m_source_file_index>
1874

> <i_lp_mmshare_version>
43012

> <i_f3d_flags>
0

> <s_epik_input>
W0NIM11DKD1PKU4xW0NIMl1bQ0gyXVtDSF0oW0NIMl1bQ0gyXTEpW05IXUMoPU8pW0NIMl1uMm5jKFtDSDNdKWMoW0NIM10pYyhDI04pYzI9Tw==

> <s_epik_cmdline>
J2VwaWtfcHl0aG9uJywgJy1waCcsICc3LjAnLCAnLXRuJywgJzgnLCAnLW1hJywgJzIwMCcsICctbWV0YWxfYmluZGluZycsICctaW1hZScsICc8aW5maWxlLm1hZT4nLCAnLW9tYWUnLCAnPG91dGZpbGUubWFlPic=

> <r_lp_tautomer_probability>
1

> <r_epik_Ionization_Penalty>
1.12408e-06

> <r_epik_Ionization_Penalty_Charging>
2.25008e-11

> <r_epik_Ionization_Penalty_Neutral>
1.12405e-06

> <r_epik_State_Penalty>
-0

> <r_epik_Charging_Adjusted_Penalty>
2.25008e-11

> <i_epik_Tot_Q>
0

> <i_epik_Tot_abs_Q>
0

> <r_epik_Metal_State_Penalty>
-0

> <b_epik_Metal_Only>
0

> <s_lp_Force_Field>
OPLS_2005

> <r_lp_Energy>
36.4073

> <b_lp_Chiralities_Consistent>
1

> <s_lp_Variant>
AV-unprocessed.smi:1874-1

> <Gold.Version>
5.8.1

> <Gold.Id.Protein>
6NUR|6NUR_protein|mol2

> <Gold.PLP.Fitness>
36.3169

> <Gold.PLP.PLP>
-33.8244

> <Gold.PLP.part.hbond>
-1.0000

> <Gold.PLP.part.metal>
0.0000

> <Gold.PLP.part.buried>
-3.1726

> <Gold.PLP.part.nonpolar>
-30.9374

> <Gold.PLP.part.repulsive>
0.2632

> <Gold.PLP.ligand.clash>
0.0000

> <Gold.PLP.ligand.torsion>
0.2631

> <Gold.PLP.Chemscore.Hbond>
1.0000

> <Gold.PLP.Chemscore.CHOScore>
0.0000

> <Gold.PLP.Chemscore.Metal>
0.0000

> <Gold.Chemscore.Hbonds>
donor molecule, donor type, donor heavy atom, donor atom, acceptor molecule, acceptor atom, score
      P1  H  7997  8009       L1     3  1.00

> <Gold.PLP.Chemscore.Internal.Correction>
0.0186

> <Gold.Rescore>
     Score         DG    S(hbond)    S(metal)    S(lipo)     H(rot)  DE(clash)    DE(int)     intcor
     10.29     -12.25       0.94        0.00      65.62       1.58       0.38       1.58       ----

> <Gold.Chemscore.Fitness>
10.2949

> <Gold.Chemscore.DG>
-12.2490

> <Gold.Chemscore.ZeroCoef>
-5.4800

> <Gold.Chemscore.Hbond>
0.9395

> <Gold.Chemscore.Metal>
0.0000

> <Gold.Chemscore.Lipo>
65.6246

> <Gold.Chemscore.Internal_Hbond>
0.0000

> <Gold.Chemscore.DEClash>
0.3773

> <Gold.Chemscore.DEInternal>
1.5768

> <Gold.Chemscore.Rot>
1.5808

> <Gold.Chemscore.Internal.Correction>
   9.000000E+99

> <Gold.Chemscore.Hbonds>
donor molecule, donor type, donor heavy atom, donor atom, acceptor molecule, acceptor atom, score
      P1  H  7997  8009       L1     3  0.30

> <Gold.Chemscore.Hbond.Weighted>
-3.1378

> <Gold.Chemscore.Metal.Weighted>
-0.0000

> <Gold.Chemscore.Lipo.Weighted>
-7.6781

> <Gold.Chemscore.Internal_Hbond.Weighted>
0.0000

> <Gold.Chemscore.DEClash.Weighted>
0.3773

> <Gold.Chemscore.DEInternal.Weighted>
1.5768

> <Gold.Chemscore.Rot.Weighted>
4.0469

> <Gold.Chemscore.Internal.Correction.Weighted>
   9.000000E+99

> <Gold.Protein.RotatedTorsions>
[ 6907 6896 6895 6894 ] final  -10.45 input  -60.11 | X-H torsion
[ 7974 7965 7964 7962 ] final  -14.19 input  175.53 | X-H torsion
[ 8008 7997 7996 7995 ] final  170.23 input   59.86 | X-H torsion
[ 10167 10162 10161 10158 ] final  -69.32 input  -65.29 | X-H torsion
[ 10718 10713 10712 10709 ] final  167.34 input   66.30 | X-H torsion
[ 10763 10752 10751 10750 ] final  147.57 input  -60.55 | X-H torsion
[ 11005 11000 10999 10996 ] final  161.42 input  -57.11 | X-H torsion

> <Gold.Protein.ActiveResidues>
 VAL166  LYS551  ARG553  GLY616  TRP617  ASP618  TYR619  PRO620  LYS621  CYS622 
 ASP623  PHE694  ASN695  SER759  ASP760  ASP761  ALA762  ILE779  LEU786  VAL792 
 PHE793  MET794  SER795  GLU796  ALA797  LYS798  CYS799  TRP800  GLU811  SER814 

> <Gold.Protein.RotatedAtoms>
  151.4017  135.0972  159.9557 H   0  0  0  0  0  0  0  0  0  0  0  0  # atno 6907 bound_to 6896
  152.5048  133.8881  159.7391 H   0  0  0  0  0  0  0  0  0  0  0  0  # atno 6908 bound_to 6896
  150.9357  133.6658  159.2829 H   0  0  0  0  0  0  0  0  0  0  0  0  # atno 6909 bound_to 6896
  146.2084  140.3312  142.8399 H   0  0  0  0  0  0  0  0  0  0  0  0  # atno 7974 bound_to 7965
  156.1384  140.1543  156.8958 H   0  0  0  0  0  0  0  0  0  0  0  0  # atno 8008 bound_to 7997
  154.4967  140.0836  156.7750 H   0  0  0  0  0  0  0  0  0  0  0  0  # atno 8009 bound_to 7997
  155.4124  140.3419  155.4267 H   0  0  0  0  0  0  0  0  0  0  0  0  # atno 8010 bound_to 7997
  140.5440  143.2314  151.7037 H   0  0  0  0  0  0  0  0  0  0  0  0  # atno 10167 bound_to 10162
  157.0529  131.0318  151.2674 H   0  0  0  0  0  0  0  0  0  0  0  0  # atno 10718 bound_to 10713
  154.0405  135.2890  155.3355 H   0  0  0  0  0  0  0  0  0  0  0  0  # atno 10763 bound_to 10752
  154.6932  135.5218  153.8424 H   0  0  0  0  0  0  0  0  0  0  0  0  # atno 10764 bound_to 10752
  153.0602  135.6611  154.0610 H   0  0  0  0  0  0  0  0  0  0  0  0  # atno 10765 bound_to 10752
  140.2156  134.8234  157.3167 H   0  0  0  0  0  0  0  0  0  0  0  0  # atno 11005 bound_to 11000
  144.8851  140.7451  143.5962 LP  0  0  0  0  0  0  0  0  0  0  0  0  # atno 17320 bound_to 7965
  145.3233  139.1782  143.4576 LP  0  0  0  0  0  0  0  0  0  0  0  0  # atno 17321 bound_to 7965
  139.5000  144.3924  152.0266 LP  0  0  0  0  0  0  0  0  0  0  0  0  # atno 17342 bound_to 10162
  140.3035  144.3619  150.6053 LP  0  0  0  0  0  0  0  0  0  0  0  0  # atno 17343 bound_to 10162
  157.5016  130.7883  149.7611 LP  0  0  0  0  0  0  0  0  0  0  0  0  # atno 17370 bound_to 10713
  156.0002  130.3884  150.2636 LP  0  0  0  0  0  0  0  0  0  0  0  0  # atno 17371 bound_to 10713
  140.1904  134.4379  155.7719 LP  0  0  0  0  0  0  0  0  0  0  0  0  # atno 17394 bound_to 11000
  141.2225  133.7024  156.8017 LP  0  0  0  0  0  0  0  0  0  0  0  0  # atno 17395 bound_to 11000

$$$$
