AV-unprocessed.smi:261|AV-procd|sdf|1992|dock10
  -GOLD-   2262021183D 1   1.00000     0.00000
 Structure written by MMmdl.
 51 54  0  0  0  0  0  0  0  0  1 V2000
  146.0328  128.9814  152.0631 C   0  0  0  0  0  0  0  0  0  0  0  0
  146.3617  130.3568  151.9578 O   0  0  0  0  0  0  0  0  0  0  0  0
  145.3641  131.1283  151.3048 C   0  0  2  0  0  0  0  0  0  0  0  0
  145.8754  131.8463  150.0549 C   0  0  0  0  0  0  0  0  0  0  0  0
  144.9421  133.0612  149.8991 C   0  0  1  0  0  0  0  0  0  0  0  0
  143.7894  132.7814  148.9219 C   0  0  0  0  0  0  0  0  0  0  0  0
  143.7114  133.5640  147.8431 N   0  0  0  0  0  0  0  0  0  0  0  0
  142.9908  131.8672  149.1217 O   0  0  0  0  0  0  0  0  0  0  0  0
  144.4204  133.3009  151.2478 N   0  0  0  0  0  0  0  0  0  0  0  0
  144.4276  134.5716  151.7046 C   0  0  0  0  0  0  0  0  0  0  0  0
  145.5388  135.3407  151.5622 N   0  0  0  0  0  0  0  0  0  0  0  0
  145.5447  136.5936  152.0283 C   0  0  0  0  0  0  0  0  0  0  0  0
  144.5696  137.2559  152.6559 N   0  0  0  0  0  0  0  0  0  0  0  0
  143.4559  136.4812  152.7994 C   0  0  0  0  0  0  0  0  0  0  0  0
  143.3026  135.1387  152.3559 C   0  0  0  0  0  0  0  0  0  0  0  0
  142.0341  134.6708  152.6721 N   0  0  0  0  0  0  0  0  0  0  0  0
  141.4652  135.6837  153.2670 C   0  0  0  0  0  0  0  0  0  0  0  0
  142.2510  136.8081  153.3959 N   0  0  0  0  0  0  0  0  0  0  0  0
  141.8742  138.0656  154.0219 C   0  0  0  0  0  0  0  0  0  0  0  0
  140.3531  138.2158  154.2486 C   0  0  2  0  0  0  0  0  0  0  0  0
  139.7274  138.4800  153.0086 O   0  0  0  0  0  0  0  0  0  0  0  0
  139.9734  139.3369  155.2378 C   0  0  1  0  0  0  0  0  0  0  0  0
  139.8607  140.7286  154.6125 C   0  0  0  0  0  0  0  0  0  0  0  0
  138.8815  141.4560  155.5227 C   0  0  0  0  0  0  0  0  0  0  0  0
  138.2675  140.3440  156.3769 C   0  0  0  0  0  0  0  0  0  0  0  0
  138.6626  139.1369  155.7428 O   0  0  0  0  0  0  0  0  0  0  0  0
  144.9305  132.3020  152.1776 C   0  0  0  0  0  0  0  0  0  0  0  0
  144.4917  130.5183  151.0626 H   0  0  0  0  0  0  0  0  0  0  0  0
  145.5133  133.9123  149.5230 H   0  0  0  0  0  0  0  0  0  0  0  0
  146.8309  128.4558  152.5871 H   0  0  0  0  0  0  0  0  0  0  0  0
  145.9178  128.5189  151.0823 H   0  0  0  0  0  0  0  0  0  0  0  0
  145.1105  128.8396  152.6277 H   0  0  0  0  0  0  0  0  0  0  0  0
  146.8941  132.1972  150.2258 H   0  0  0  0  0  0  0  0  0  0  0  0
  145.8980  131.1982  149.1778 H   0  0  0  0  0  0  0  0  0  0  0  0
  142.9733  133.4232  147.1686 H   0  0  0  0  0  0  0  0  0  0  0  0
  144.3936  134.2956  147.7062 H   0  0  0  0  0  0  0  0  0  0  0  0
  146.4621  137.1435  151.8782 H   0  0  0  0  0  0  0  0  0  0  0  0
  140.4526  135.6352  153.6409 H   0  0  0  0  0  0  0  0  0  0  0  0
  142.4106  138.1599  154.9671 H   0  0  0  0  0  0  0  0  0  0  0  0
  142.2331  138.8775  153.3884 H   0  0  0  0  0  0  0  0  0  0  0  0
  139.9662  137.2650  154.6163 H   0  0  0  0  0  0  0  0  0  0  0  0
  140.0960  139.2733  152.6501 H   0  0  0  0  0  0  0  0  0  0  0  0
  140.6717  139.3703  156.0764 H   0  0  0  0  0  0  0  0  0  0  0  0
  140.8249  141.2327  154.5390 H   0  0  0  0  0  0  0  0  0  0  0  0
  139.4410  140.6608  153.6078 H   0  0  0  0  0  0  0  0  0  0  0  0
  139.3842  142.1921  156.1510 H   0  0  0  0  0  0  0  0  0  0  0  0
  138.1230  141.9761  154.9365 H   0  0  0  0  0  0  0  0  0  0  0  0
  138.6763  140.3667  157.3883 H   0  0  0  0  0  0  0  0  0  0  0  0
  137.1821  140.4171  156.4464 H   0  0  0  0  0  0  0  0  0  0  0  0
  144.1656  132.0063  152.8962 H   0  0  0  0  0  0  0  0  0  0  0  0
  145.7821  132.6956  152.7359 H   0  0  0  0  0  0  0  0  0  0  0  0
  1  2  1  0  0  0  0
  1 30  1  0  0  0  0
  1 31  1  0  0  0  0
  1 32  1  0  0  0  0
  2  3  1  0  0  0  0
  3 28  1  0  0  0  0
  3 27  1  0  0  0  0
  3  4  1  0  0  0  0
  4  5  1  0  0  0  0
  4 33  1  0  0  0  0
  4 34  1  0  0  0  0
  5 29  1  0  0  0  0
  5  6  1  0  0  0  0
  5  9  1  0  0  0  0
  6  7  1  0  0  0  0
  6  8  2  0  0  0  0
  7 35  1  0  0  0  0
  7 36  1  0  0  0  0
  9 10  1  0  0  0  0
  9 27  1  0  0  0  0
 10 15  1  0  0  0  0
 10 11  2  0  0  0  0
 11 12  1  0  0  0  0
 12 13  2  0  0  0  0
 12 37  1  0  0  0  0
 13 14  1  0  0  0  0
 14 18  1  0  0  0  0
 14 15  2  0  0  0  0
 15 16  1  0  0  0  0
 16 17  2  0  0  0  0
 17 18  1  0  0  0  0
 17 38  1  0  0  0  0
 18 19  1  0  0  0  0
 19 20  1  0  0  0  0
 19 39  1  0  0  0  0
 19 40  1  0  0  0  0
 20 21  1  0  0  0  0
 20 22  1  0  0  0  0
 20 41  1  0  0  0  0
 21 42  1  0  0  0  0
 22 26  1  0  0  0  0
 22 23  1  0  0  0  0
 22 43  1  0  0  0  0
 23 24  1  0  0  0  0
 23 44  1  0  0  0  0
 23 45  1  0  0  0  0
 24 25  1  0  0  0  0
 24 46  1  0  0  0  0
 24 47  1  0  0  0  0
 25 26  1  0  0  0  0
 25 48  1  0  0  0  0
 25 49  1  0  0  0  0
 27 50  1  0  0  0  0
 27 51  1  0  0  0  0
M  END
> <s_m_source_file>
AV-unprocessed.smi

> <i_m_source_file_index>
261

> <i_lp_mmshare_version>
43012

> <i_f3d_flags>
0

> <s_epik_input>
W0NIM11PW0NASF0xW0NIMl1bQ0BASF0oQyg9TylbTkgyXSlOKFtDSDJdMSljKG5bY0hdbjIpYyhjMjMpbltjSF1uM1tDSDJdW0NASF0oW09IXSlbQ0BASF00W0NIMl1bQ0gyXVtDSDJdTzQ=

> <s_epik_cmdline>
J2VwaWtfcHl0aG9uJywgJy1waCcsICc3LjAnLCAnLXRuJywgJzgnLCAnLW1hJywgJzIwMCcsICctbWV0YWxfYmluZGluZycsICctaW1hZScsICc8aW5maWxlLm1hZT4nLCAnLW9tYWUnLCAnPG91dGZpbGUubWFlPic=

> <r_lp_tautomer_probability>
1

> <r_epik_Ionization_Penalty>
0.000713824

> <r_epik_Ionization_Penalty_Charging>
0

> <r_epik_Ionization_Penalty_Neutral>
0.000713824

> <r_epik_State_Penalty>
0.000402132

> <r_epik_Charging_Adjusted_Penalty>
0.000402132

> <i_epik_Tot_Q>
0

> <i_epik_Tot_abs_Q>
0

> <r_epik_Metal_State_Penalty>
-0

> <b_epik_Metal_Only>
0

> <s_lp_Force_Field>
OPLS_2005

> <r_lp_Energy>
43.7776

> <b_lp_Chiralities_Consistent>
1

> <s_lp_Variant>
AV-unprocessed.smi:261-10

> <Gold.Version>
5.8.1

> <Gold.Id.Protein>
6NUR|6NUR_protein|mol2

> <Gold.PLP.Fitness>
48.6908

> <Gold.PLP.PLP>
-37.6023

> <Gold.PLP.part.hbond>
-4.0000

> <Gold.PLP.part.metal>
0.0000

> <Gold.PLP.part.buried>
-8.4736

> <Gold.PLP.part.nonpolar>
-29.8660

> <Gold.PLP.part.repulsive>
4.7265

> <Gold.PLP.ligand.clash>
0.0000

> <Gold.PLP.ligand.torsion>
2.0249

> <Gold.PLP.Chemscore.Hbond>
3.9280

> <Gold.PLP.Chemscore.CHOScore>
0.9951

> <Gold.PLP.Chemscore.Metal>
0.0000

> <Gold.Chemscore.Hbonds>
donor molecule, donor type, donor heavy atom, donor atom, acceptor molecule, acceptor atom, score
      L1  H     7    35       P1 10195  1.00
      L1  H     7    36       P1  7921  0.99
      L1  H    21    42       P1 10160  0.54
      P1  H 10785 10796       L1     8  1.00
      L1  C    12    37       P1  7948  0.73

> <Gold.PLP.Chemscore.Internal.Correction>
0.3690

> <Gold.Rescore>
     Score         DG    S(hbond)    S(metal)    S(lipo)     H(rot)  DE(clash)    DE(int)     intcor
     14.01     -17.99       3.95        0.00      72.50       3.57       2.17       1.81       ----

> <Gold.Chemscore.Fitness>
14.0120

> <Gold.Chemscore.DG>
-17.9945

> <Gold.Chemscore.ZeroCoef>
-5.4800

> <Gold.Chemscore.Hbond>
3.9466

> <Gold.Chemscore.Metal>
0.0000

> <Gold.Chemscore.Lipo>
72.4989

> <Gold.Chemscore.Internal_Hbond>
0.0000

> <Gold.Chemscore.DEClash>
2.1677

> <Gold.Chemscore.DEInternal>
1.8148

> <Gold.Chemscore.Rot>
3.5740

> <Gold.Chemscore.Internal.Correction>
   9.000000E+99

> <Gold.Chemscore.Hbonds>
donor molecule, donor type, donor heavy atom, donor atom, acceptor molecule, acceptor atom, score
      L1  H     7    35       P1 10195  0.94
      L1  H     7    36       P1  7921  0.94
      L1  H    21    42       P1 10160  0.51
      P1  H 10785 10796       L1     8  0.99

> <Gold.Chemscore.Hbond.Weighted>
-13.1816

> <Gold.Chemscore.Metal.Weighted>
-0.0000

> <Gold.Chemscore.Lipo.Weighted>
-8.4824

> <Gold.Chemscore.Internal_Hbond.Weighted>
0.0000

> <Gold.Chemscore.DEClash.Weighted>
2.1677

> <Gold.Chemscore.DEInternal.Weighted>
1.8148

> <Gold.Chemscore.Rot.Weighted>
9.1495

> <Gold.Chemscore.Internal.Correction.Weighted>
   9.000000E+99

> <Gold.Protein.RotatedTorsions>
[ 6907 6896 6895 6894 ] final  -27.09 input  -60.11 | X-H torsion
[ 7974 7965 7964 7962 ] final   24.79 input  175.53 | X-H torsion
[ 8008 7997 7996 7995 ] final   20.41 input   59.86 | X-H torsion
[ 10167 10162 10161 10158 ] final  106.46 input  -65.29 | X-H torsion
[ 10718 10713 10712 10709 ] final -131.46 input   66.30 | X-H torsion
[ 10763 10752 10751 10750 ] final  153.66 input  -60.55 | X-H torsion
[ 11005 11000 10999 10996 ] final   74.12 input  -57.11 | X-H torsion

> <Gold.Protein.ActiveResidues>
 VAL166  LYS551  ARG553  GLY616  TRP617  ASP618  TYR619  PRO620  LYS621  CYS622 
 ASP623  PHE694  ASN695  SER759  ASP760  ASP761  ALA762  ILE779  LEU786  VAL792 
 PHE793  MET794  SER795  GLU796  ALA797  LYS798  CYS799  TRP800  GLU811  SER814 

> <Gold.Protein.RotatedAtoms>
  151.1518  135.0231  159.8671 H   0  0  0  0  0  0  0  0  0  0  0  0  # atno 6907 bound_to 6896
  152.5452  134.1380  159.8477 H   0  0  0  0  0  0  0  0  0  0  0  0  # atno 6908 bound_to 6896
  151.1466  133.4889  159.2628 H   0  0  0  0  0  0  0  0  0  0  0  0  # atno 6909 bound_to 6896
  146.1920  139.7556  142.8824 H   0  0  0  0  0  0  0  0  0  0  0  0  # atno 7974 bound_to 7965
  154.9352  140.3045  155.5148 H   0  0  0  0  0  0  0  0  0  0  0  0  # atno 8008 bound_to 7997
  156.3000  140.2346  156.4352 H   0  0  0  0  0  0  0  0  0  0  0  0  # atno 8009 bound_to 7997
  154.8199  140.0424  157.1392 H   0  0  0  0  0  0  0  0  0  0  0  0  # atno 8010 bound_to 7997
  139.7007  144.7094  151.1190 H   0  0  0  0  0  0  0  0  0  0  0  0  # atno 10167 bound_to 10162
  156.2247  130.7000  151.0794 H   0  0  0  0  0  0  0  0  0  0  0  0  # atno 10718 bound_to 10713
  154.1397  135.2821  155.3164 H   0  0  0  0  0  0  0  0  0  0  0  0  # atno 10763 bound_to 10752
  154.6296  135.5440  153.7669 H   0  0  0  0  0  0  0  0  0  0  0  0  # atno 10764 bound_to 10752
  153.0254  135.6459  154.1544 H   0  0  0  0  0  0  0  0  0  0  0  0  # atno 10765 bound_to 10752
  139.9406  134.7406  156.1109 H   0  0  0  0  0  0  0  0  0  0  0  0  # atno 11005 bound_to 11000
  145.3761  141.0351  143.3203 LP  0  0  0  0  0  0  0  0  0  0  0  0  # atno 17320 bound_to 7965
  144.8506  139.5328  143.6858 LP  0  0  0  0  0  0  0  0  0  0  0  0  # atno 17321 bound_to 7965
  140.7709  143.5428  150.9293 LP  0  0  0  0  0  0  0  0  0  0  0  0  # atno 17342 bound_to 10162
  139.9109  143.6721  152.3115 LP  0  0  0  0  0  0  0  0  0  0  0  0  # atno 17343 bound_to 10162
  157.7104  131.0736  150.6519 LP  0  0  0  0  0  0  0  0  0  0  0  0  # atno 17370 bound_to 10713
  156.6584  130.4505  149.5696 LP  0  0  0  0  0  0  0  0  0  0  0  0  # atno 17371 bound_to 10713
  141.1039  133.6667  156.2818 LP  0  0  0  0  0  0  0  0  0  0  0  0  # atno 17394 bound_to 11000
  140.5961  134.5602  157.5509 LP  0  0  0  0  0  0  0  0  0  0  0  0  # atno 17395 bound_to 11000

$$$$
