AV-unprocessed.smi:2289|AV-procd|sdf|9209|dock8
  -GOLD-   2272012423D 1   1.00000     0.00000
 Structure written by MMmdl.
 40 41  0  0  0  0  0  0  0  0  1 V2000
  145.9905  142.9836  154.0454 C   0  0  0  0  0  0  0  0  0  0  0  0
  146.9586  142.0252  154.7161 C   0  0  0  0  0  0  0  0  0  0  0  0
  148.0147  141.5768  153.9178 N   0  0  0  0  0  0  0  0  0  0  0  0
  148.8901  140.7607  154.4067 C   0  0  0  0  0  0  0  0  0  0  0  0
  148.8142  140.3021  155.7327 N   0  0  0  0  0  0  0  0  0  0  0  0
  149.8824  139.3857  156.1686 C   0  0  0  0  0  0  0  0  0  0  0  0
  151.2234  140.1205  156.3956 C   0  0  1  0  0  0  0  0  0  0  0  0
  151.7819  140.4347  155.1363 O   0  0  0  0  0  0  0  0  0  0  0  0
  151.0262  141.4404  157.1714 C   0  0  0  0  0  0  0  0  0  0  0  0
  151.8082  141.4948  158.4810 C   0  0  0  0  0  0  0  0  0  0  0  0
  152.5784  140.3632  158.8311 C   0  0  0  0  0  0  0  0  0  0  0  0
  153.3268  140.3389  160.0208 C   0  0  0  0  0  0  0  0  0  0  0  0
  153.3077  141.4505  160.8788 C   0  0  0  0  0  0  0  0  0  0  0  0
  152.5375  142.5800  160.5469 C   0  0  0  0  0  0  0  0  0  0  0  0
  151.7785  142.6202  159.3528 C   0  0  0  0  0  0  0  0  0  0  0  0
  150.9411  143.8629  159.0459 C   0  0  0  0  0  0  0  0  0  0  0  0
  151.0534  144.7842  160.0036 F   0  0  0  0  0  0  0  0  0  0  0  0
  151.3352  144.4231  157.9032 F   0  0  0  0  0  0  0  0  0  0  0  0
  149.6530  143.5317  158.9532 F   0  0  0  0  0  0  0  0  0  0  0  0
  147.8179  140.6918  156.5795 C   0  0  0  0  0  0  0  0  0  0  0  0
  147.7603  140.2896  157.7428 O   0  0  0  0  0  0  0  0  0  0  0  0
  146.8269  141.6186  156.0084 C   0  0  0  0  0  0  0  0  0  0  0  0
  145.6979  142.0742  156.9247 C   0  0  0  0  0  0  0  0  0  0  0  0
  144.9900  142.5521  154.0088 H   0  0  0  0  0  0  0  0  0  0  0  0
  146.2966  143.2066  153.0227 H   0  0  0  0  0  0  0  0  0  0  0  0
  145.9447  143.9260  154.5920 H   0  0  0  0  0  0  0  0  0  0  0  0
  149.7366  140.3851  153.8288 H   0  0  0  0  0  0  0  0  0  0  0  0
  149.5984  138.8212  157.0590 H   0  0  0  0  0  0  0  0  0  0  0  0
  150.0125  138.6187  155.4024 H   0  0  0  0  0  0  0  0  0  0  0  0
  151.9092  139.4721  156.9417 H   0  0  0  0  0  0  0  0  0  0  0  0
  152.7050  140.2331  155.1562 H   0  0  0  0  0  0  0  0  0  0  0  0
  151.2309  142.2911  156.5244 H   0  0  0  0  0  0  0  0  0  0  0  0
  149.9745  141.5396  157.4431 H   0  0  0  0  0  0  0  0  0  0  0  0
  152.5982  139.5012  158.1801 H   0  0  0  0  0  0  0  0  0  0  0  0
  153.9134  139.4681  160.2746 H   0  0  0  0  0  0  0  0  0  0  0  0
  153.8803  141.4364  161.7946 H   0  0  0  0  0  0  0  0  0  0  0  0
  152.5363  143.4166  161.2295 H   0  0  0  0  0  0  0  0  0  0  0  0
  146.1036  142.6196  157.7771 H   0  0  0  0  0  0  0  0  0  0  0  0
  145.1503  141.2114  157.3050 H   0  0  0  0  0  0  0  0  0  0  0  0
  144.9780  142.7241  156.4302 H   0  0  0  0  0  0  0  0  0  0  0  0
  1  2  1  0  0  0  0
  1 24  1  0  0  0  0
  1 25  1  0  0  0  0
  1 26  1  0  0  0  0
  2 22  2  0  0  0  0
  2  3  1  0  0  0  0
  3  4  2  0  0  0  0
  4  5  1  0  0  0  0
  4 27  1  0  0  0  0
  5  6  1  0  0  0  0
  5 20  1  0  0  0  0
  6  7  1  0  0  0  0
  6 28  1  0  0  0  0
  6 29  1  0  0  0  0
  7  8  1  0  0  0  0
  7  9  1  0  0  0  0
  7 30  1  0  0  0  0
  8 31  1  0  0  0  0
  9 10  1  0  0  0  0
  9 32  1  0  0  0  0
  9 33  1  0  0  0  0
 10 15  1  0  0  0  0
 10 11  2  0  0  0  0
 11 12  1  0  0  0  0
 11 34  1  0  0  0  0
 12 13  2  0  0  0  0
 12 35  1  0  0  0  0
 13 14  1  0  0  0  0
 13 36  1  0  0  0  0
 14 15  2  0  0  0  0
 14 37  1  0  0  0  0
 15 16  1  0  0  0  0
 16 17  1  0  0  0  0
 16 18  1  0  0  0  0
 16 19  1  0  0  0  0
 20 21  2  0  0  0  0
 20 22  1  0  0  0  0
 22 23  1  0  0  0  0
 23 38  1  0  0  0  0
 23 39  1  0  0  0  0
 23 40  1  0  0  0  0
M  END
> <s_m_source_file>
AV-unprocessed.smi

> <i_m_source_file_index>
2289

> <i_lp_mmshare_version>
43012

> <i_f3d_flags>
0

> <s_epik_input>
W0NIM11jMW5bY0hdbihjKD1PKWMxW0NIM10pW0NIMl1bQ0BIXShbT0hdKVtDSDJdYzJbY0hdW2NIXVtjSF1bY0hdYzJDKEYpKEYpRg==

> <s_epik_cmdline>
J2VwaWtfcHl0aG9uJywgJy1waCcsICc3LjAnLCAnLXRuJywgJzgnLCAnLW1hJywgJzIwMCcsICctbWV0YWxfYmluZGluZycsICctaW1hZScsICc8aW5maWxlLm1hZT4nLCAnLW9tYWUnLCAnPG91dGZpbGUubWFlPic=

> <r_lp_tautomer_probability>
1

> <r_epik_Ionization_Penalty>
8.92636e-05

> <r_epik_Ionization_Penalty_Charging>
8.63033e-08

> <r_epik_Ionization_Penalty_Neutral>
8.91773e-05

> <r_epik_State_Penalty>
-0

> <r_epik_Charging_Adjusted_Penalty>
8.63033e-08

> <i_epik_Tot_Q>
0

> <i_epik_Tot_abs_Q>
0

> <r_epik_Metal_State_Penalty>
-0

> <b_epik_Metal_Only>
0

> <s_lp_Force_Field>
OPLS_2005

> <r_lp_Energy>
23.2294

> <b_lp_Chiralities_Consistent>
1

> <s_lp_Variant>
AV-unprocessed.smi:2289-2

> <Gold.Version>
5.8.1

> <Gold.Id.Protein>
6NUR|6NUR_protein|mol2

> <Gold.PLP.Fitness>
53.5397

> <Gold.PLP.PLP>
-50.8763

> <Gold.PLP.part.hbond>
-1.9202

> <Gold.PLP.part.metal>
0.0000

> <Gold.PLP.part.buried>
-5.2382

> <Gold.PLP.part.nonpolar>
-42.4613

> <Gold.PLP.part.repulsive>
0.1788

> <Gold.PLP.ligand.clash>
1.3629

> <Gold.PLP.ligand.torsion>
1.0358

> <Gold.PLP.Chemscore.Hbond>
0.9982

> <Gold.PLP.Chemscore.CHOScore>
0.5502

> <Gold.PLP.Chemscore.Metal>
0.0000

> <Gold.Chemscore.Hbonds>
donor molecule, donor type, donor heavy atom, donor atom, acceptor molecule, acceptor atom, score
      P1  H  7989  7998       L1     8  0.71
      L1  C     4    27       P1  7957  0.51

> <Gold.PLP.Chemscore.Internal.Correction>
1.4526

> <Gold.Rescore>
     Score         DG    S(hbond)    S(metal)    S(lipo)     H(rot)  DE(clash)    DE(int)     intcor
     11.66     -13.86       0.73        0.00     102.46       2.37       0.16       2.03       ----

> <Gold.Chemscore.Fitness>
11.6628

> <Gold.Chemscore.DG>
-13.8571

> <Gold.Chemscore.ZeroCoef>
-5.4800

> <Gold.Chemscore.Hbond>
0.7342

> <Gold.Chemscore.Metal>
0.0000

> <Gold.Chemscore.Lipo>
102.4569

> <Gold.Chemscore.Internal_Hbond>
0.0000

> <Gold.Chemscore.DEClash>
0.1626

> <Gold.Chemscore.DEInternal>
2.0318

> <Gold.Chemscore.Rot>
2.3681

> <Gold.Chemscore.Internal.Correction>
   9.000000E+99

> <Gold.Chemscore.Hbonds>
donor molecule, donor type, donor heavy atom, donor atom, acceptor molecule, acceptor atom, score
      P1  H  7989  7998       L1     8  0.14

> <Gold.Chemscore.Hbond.Weighted>
-2.4521

> <Gold.Chemscore.Metal.Weighted>
-0.0000

> <Gold.Chemscore.Lipo.Weighted>
-11.9875

> <Gold.Chemscore.Internal_Hbond.Weighted>
0.0000

> <Gold.Chemscore.DEClash.Weighted>
0.1626

> <Gold.Chemscore.DEInternal.Weighted>
2.0318

> <Gold.Chemscore.Rot.Weighted>
6.0624

> <Gold.Chemscore.Internal.Correction.Weighted>
   9.000000E+99

> <Gold.Protein.RotatedTorsions>
[ 6907 6896 6895 6894 ] final  -82.29 input  -60.11 | X-H torsion
[ 7974 7965 7964 7962 ] final  151.19 input  175.53 | X-H torsion
[ 8008 7997 7996 7995 ] final   27.92 input   59.86 | X-H torsion
[ 10167 10162 10161 10158 ] final  128.07 input  -65.29 | X-H torsion
[ 10718 10713 10712 10709 ] final  150.80 input   66.30 | X-H torsion
[ 10763 10752 10751 10750 ] final   86.96 input  -60.55 | X-H torsion
[ 11005 11000 10999 10996 ] final  -84.55 input  -57.11 | X-H torsion

> <Gold.Protein.ActiveResidues>
 VAL166  LYS551  ARG553  GLY616  TRP617  ASP618  TYR619  PRO620  LYS621  CYS622 
 ASP623  PHE694  ASN695  SER759  ASP760  ASP761  ALA762  ILE779  LEU786  VAL792 
 PHE793  MET794  SER795  GLU796  ALA797  LYS798  CYS799  TRP800  GLU811  SER814 

> <Gold.Protein.RotatedAtoms>
  150.6899  134.3688  159.4982 H   0  0  0  0  0  0  0  0  0  0  0  0  # atno 6907 bound_to 6896
  152.1507  134.8988  160.0557 H   0  0  0  0  0  0  0  0  0  0  0  0  # atno 6908 bound_to 6896
  152.0087  133.3818  159.4248 H   0  0  0  0  0  0  0  0  0  0  0  0  # atno 6909 bound_to 6896
  144.8310  139.6506  143.6059 H   0  0  0  0  0  0  0  0  0  0  0  0  # atno 7974 bound_to 7965
  155.0505  140.3179  155.4693 H   0  0  0  0  0  0  0  0  0  0  0  0  # atno 8008 bound_to 7997
  156.2835  140.2147  156.5575 H   0  0  0  0  0  0  0  0  0  0  0  0  # atno 8009 bound_to 7997
  154.7214  140.0489  157.0630 H   0  0  0  0  0  0  0  0  0  0  0  0  # atno 8010 bound_to 7997
  139.5546  144.6839  151.4222 H   0  0  0  0  0  0  0  0  0  0  0  0  # atno 10167 bound_to 10162
  157.2788  131.0831  151.1546 H   0  0  0  0  0  0  0  0  0  0  0  0  # atno 10718 bound_to 10713
  153.1622  135.4561  154.9787 H   0  0  0  0  0  0  0  0  0  0  0  0  # atno 10763 bound_to 10752
  154.7905  135.3219  154.7789 H   0  0  0  0  0  0  0  0  0  0  0  0  # atno 10764 bound_to 10752
  153.8278  135.6941  153.4873 H   0  0  0  0  0  0  0  0  0  0  0  0  # atno 10765 bound_to 10752
  141.1649  133.7352  156.8885 H   0  0  0  0  0  0  0  0  0  0  0  0  # atno 11005 bound_to 11000
  146.2613  139.6416  142.9360 LP  0  0  0  0  0  0  0  0  0  0  0  0  # atno 17320 bound_to 7965
  145.4896  141.0438  143.2600 LP  0  0  0  0  0  0  0  0  0  0  0  0  # atno 17321 bound_to 7965
  140.6816  143.8069  150.7129 LP  0  0  0  0  0  0  0  0  0  0  0  0  # atno 17342 bound_to 10162
  140.1524  143.4346  152.2122 LP  0  0  0  0  0  0  0  0  0  0  0  0  # atno 17343 bound_to 10162
  157.2988  130.6833  149.6153 LP  0  0  0  0  0  0  0  0  0  0  0  0  # atno 17370 bound_to 10713
  155.9664  130.4398  150.5274 LP  0  0  0  0  0  0  0  0  0  0  0  0  # atno 17371 bound_to 10713
  140.1665  134.9129  157.2780 LP  0  0  0  0  0  0  0  0  0  0  0  0  # atno 17394 bound_to 11000
  140.2551  134.3637  155.7427 LP  0  0  0  0  0  0  0  0  0  0  0  0  # atno 17395 bound_to 11000

$$$$
