AV-unprocessed.smi:2161|AV-procd|sdf|8801|dock1
  -GOLD-   2272011583D 1   1.00000     0.00000
 Structure written by MMmdl.
 31 32  0  0  0  0  0  0  0  0  1 V2000
  146.7974  139.0778  152.2852 C   0  0  0  0  0  0  0  0  0  0  0  0
  147.3556  139.6315  153.5931 C   0  0  0  0  0  0  0  0  0  0  0  0
  146.5956  139.8057  154.5453 O   0  0  0  0  0  0  0  0  0  0  0  0
  148.6760  139.8931  153.6038 N   0  0  0  0  0  0  0  0  0  0  0  0
  149.4644  140.4002  154.6709 C   0  0  0  0  0  0  0  0  0  0  0  0
  148.7526  141.1419  155.6396 C   0  0  0  0  0  0  0  0  0  0  0  0
  149.4418  141.6875  156.7393 C   0  0  0  0  0  0  0  0  0  0  0  0
  150.8338  141.4789  156.8462 C   0  0  0  0  0  0  0  0  0  0  0  0
  151.5926  141.9918  157.9080 N   0  0  0  0  0  0  0  0  0  0  0  0
  150.8813  143.0026  158.6796 C   0  0  0  0  0  0  0  0  0  0  0  0
  151.8152  143.6113  159.7409 C   0  0  0  0  0  0  0  0  0  0  0  0
  152.3535  142.5752  160.5583 O   0  0  0  0  0  0  0  0  0  0  0  0
  153.1131  141.6370  159.8009 C   0  0  0  0  0  0  0  0  0  0  0  0
  152.2066  140.9729  158.7504 C   0  0  0  0  0  0  0  0  0  0  0  0
  151.4629  140.7328  155.8298 C   0  0  0  0  0  0  0  0  0  0  0  0
  150.8025  140.2077  154.7765 N   0  0  0  0  0  0  0  0  0  0  0  0
  147.4756  139.2609  151.4506 H   0  0  0  0  0  0  0  0  0  0  0  0
  145.8405  139.5460  152.0525 H   0  0  0  0  0  0  0  0  0  0  0  0
  146.6408  138.0023  152.3706 H   0  0  0  0  0  0  0  0  0  0  0  0
  149.1735  139.7102  152.7448 H   0  0  0  0  0  0  0  0  0  0  0  0
  147.6872  141.2944  155.5454 H   0  0  0  0  0  0  0  0  0  0  0  0
  148.9056  142.2594  157.4820 H   0  0  0  0  0  0  0  0  0  0  0  0
  150.5115  143.7848  158.0153 H   0  0  0  0  0  0  0  0  0  0  0  0
  150.0134  142.5524  159.1637 H   0  0  0  0  0  0  0  0  0  0  0  0
  152.6233  144.1741  159.2711 H   0  0  0  0  0  0  0  0  0  0  0  0
  151.2643  144.3105  160.3700 H   0  0  0  0  0  0  0  0  0  0  0  0
  153.9595  142.1360  159.3260 H   0  0  0  0  0  0  0  0  0  0  0  0
  153.5231  140.8841  160.4739 H   0  0  0  0  0  0  0  0  0  0  0  0
  151.4361  140.3864  159.2521 H   0  0  0  0  0  0  0  0  0  0  0  0
  152.7879  140.2860  158.1341 H   0  0  0  0  0  0  0  0  0  0  0  0
  152.5268  140.5479  155.8623 H   0  0  0  0  0  0  0  0  0  0  0  0
  1  2  1  0  0  0  0
  1 17  1  0  0  0  0
  1 18  1  0  0  0  0
  1 19  1  0  0  0  0
  2  3  2  0  0  0  0
  2  4  1  0  0  0  0
  4  5  1  0  0  0  0
  4 20  1  0  0  0  0
  5 16  1  0  0  0  0
  5  6  2  0  0  0  0
  6  7  1  0  0  0  0
  6 21  1  0  0  0  0
  7  8  2  0  0  0  0
  7 22  1  0  0  0  0
  8  9  1  0  0  0  0
  8 15  1  0  0  0  0
  9 14  1  0  0  0  0
  9 10  1  0  0  0  0
 10 11  1  0  0  0  0
 10 23  1  0  0  0  0
 10 24  1  0  0  0  0
 11 12  1  0  0  0  0
 11 25  1  0  0  0  0
 11 26  1  0  0  0  0
 12 13  1  0  0  0  0
 13 14  1  0  0  0  0
 13 27  1  0  0  0  0
 13 28  1  0  0  0  0
 14 29  1  0  0  0  0
 14 30  1  0  0  0  0
 15 16  2  0  0  0  0
 15 31  1  0  0  0  0
M  END
> <s_m_source_file>
AV-unprocessed.smi

> <i_m_source_file_index>
2161

> <i_lp_mmshare_version>
43012

> <i_f3d_flags>
0

> <s_epik_input>
W0NIM11DKD1PKVtOSF1jMVtjSF1bY0hdYyhbY0hdbjEpTjJbQ0gyXVtDSDJdT1tDSDJdW0NIMl0y

> <s_epik_cmdline>
J2VwaWtfcHl0aG9uJywgJy1waCcsICc3LjAnLCAnLXRuJywgJzgnLCAnLW1hJywgJzIwMCcsICctbWV0YWxfYmluZGluZycsICctaW1hZScsICc8aW5maWxlLm1hZT4nLCAnLW9tYWUnLCAnPG91dGZpbGUubWFlPic=

> <r_lp_tautomer_probability>
1

> <r_epik_Ionization_Penalty>
0.00240688

> <r_epik_Ionization_Penalty_Charging>
0

> <r_epik_Ionization_Penalty_Neutral>
0.00240688

> <r_epik_State_Penalty>
0.00372447

> <r_epik_Charging_Adjusted_Penalty>
0.00372447

> <i_epik_Tot_Q>
0

> <i_epik_Tot_abs_Q>
0

> <r_epik_Metal_State_Penalty>
-0

> <b_epik_Metal_Only>
0

> <s_lp_Force_Field>
OPLS_2005

> <r_lp_Energy>
25.1248

> <b_lp_Chiralities_Consistent>
1

> <s_lp_Variant>
AV-unprocessed.smi:2161-1

> <Gold.Version>
5.8.1

> <Gold.Id.Protein>
6NUR|6NUR_protein|mol2

> <Gold.PLP.Fitness>
36.3234

> <Gold.PLP.PLP>
-30.8638

> <Gold.PLP.part.hbond>
-2.0000

> <Gold.PLP.part.metal>
0.0000

> <Gold.PLP.part.buried>
-4.5254

> <Gold.PLP.part.nonpolar>
-24.6370

> <Gold.PLP.part.repulsive>
0.3232

> <Gold.PLP.ligand.clash>
0.0000

> <Gold.PLP.ligand.torsion>
0.3130

> <Gold.PLP.Chemscore.Hbond>
1.9920

> <Gold.PLP.Chemscore.CHOScore>
0.0000

> <Gold.PLP.Chemscore.Metal>
0.0000

> <Gold.Chemscore.Hbonds>
donor molecule, donor type, donor heavy atom, donor atom, acceptor molecule, acceptor atom, score
      L1  H     4    20       P1  7957  1.00
      P1  H  7989  7998       L1    16  1.00

> <Gold.PLP.Chemscore.Internal.Correction>
0.1096

> <Gold.Rescore>
     Score         DG    S(hbond)    S(metal)    S(lipo)     H(rot)  DE(clash)    DE(int)     intcor
     14.81     -16.47       1.70        0.00      67.22       1.00       0.05       1.62       ----

> <Gold.Chemscore.Fitness>
14.8079

> <Gold.Chemscore.DG>
-16.4735

> <Gold.Chemscore.ZeroCoef>
-5.4800

> <Gold.Chemscore.Hbond>
1.7034

> <Gold.Chemscore.Metal>
0.0000

> <Gold.Chemscore.Lipo>
67.2160

> <Gold.Chemscore.Internal_Hbond>
0.0000

> <Gold.Chemscore.DEClash>
0.0502

> <Gold.Chemscore.DEInternal>
1.6153

> <Gold.Chemscore.Rot>
1.0000

> <Gold.Chemscore.Internal.Correction>
   9.000000E+99

> <Gold.Chemscore.Hbonds>
donor molecule, donor type, donor heavy atom, donor atom, acceptor molecule, acceptor atom, score
      L1  H     4    20       P1  7957  0.97
      P1  H  7989  7998       L1    16  0.28

> <Gold.Chemscore.Hbond.Weighted>
-5.6892

> <Gold.Chemscore.Metal.Weighted>
-0.0000

> <Gold.Chemscore.Lipo.Weighted>
-7.8643

> <Gold.Chemscore.Internal_Hbond.Weighted>
0.0000

> <Gold.Chemscore.DEClash.Weighted>
0.0502

> <Gold.Chemscore.DEInternal.Weighted>
1.6153

> <Gold.Chemscore.Rot.Weighted>
2.5600

> <Gold.Chemscore.Internal.Correction.Weighted>
   9.000000E+99

> <Gold.Protein.RotatedTorsions>
[ 6907 6896 6895 6894 ] final -160.57 input  -60.11 | X-H torsion
[ 7974 7965 7964 7962 ] final -123.20 input  175.53 | X-H torsion
[ 8008 7997 7996 7995 ] final -108.58 input   59.86 | X-H torsion
[ 10167 10162 10161 10158 ] final  -95.98 input  -65.29 | X-H torsion
[ 10718 10713 10712 10709 ] final  -25.01 input   66.30 | X-H torsion
[ 10763 10752 10751 10750 ] final -162.66 input  -60.55 | X-H torsion
[ 11005 11000 10999 10996 ] final  138.20 input  -57.11 | X-H torsion

> <Gold.Protein.ActiveResidues>
 VAL166  LYS551  ARG553  GLY616  TRP617  ASP618  TYR619  PRO620  LYS621  CYS622 
 ASP623  PHE694  ASN695  SER759  ASP760  ASP761  ALA762  ILE779  LEU786  VAL792 
 PHE793  MET794  SER795  GLU796  ALA797  LYS798  CYS799  TRP800  GLU811  SER814 

> <Gold.Protein.RotatedAtoms>
  151.3512  133.3925  159.2680 H   0  0  0  0  0  0  0  0  0  0  0  0  # atno 6907 bound_to 6896
  150.9800  134.9158  159.7849 H   0  0  0  0  0  0  0  0  0  0  0  0  # atno 6908 bound_to 6896
  152.5214  134.3475  159.9291 H   0  0  0  0  0  0  0  0  0  0  0  0  # atno 6909 bound_to 6896
  145.0212  140.7990  143.4379 H   0  0  0  0  0  0  0  0  0  0  0  0  # atno 7974 bound_to 7965
  154.9465  140.0401  157.2123 H   0  0  0  0  0  0  0  0  0  0  0  0  # atno 8008 bound_to 7997
  154.8019  140.2853  155.5893 H   0  0  0  0  0  0  0  0  0  0  0  0  # atno 8009 bound_to 7997
  156.2962  140.2553  156.2889 H   0  0  0  0  0  0  0  0  0  0  0  0  # atno 8010 bound_to 7997
  140.2985  143.3177  152.0273 H   0  0  0  0  0  0  0  0  0  0  0  0  # atno 10167 bound_to 10162
  156.4701  130.4522  149.6875 H   0  0  0  0  0  0  0  0  0  0  0  0  # atno 10718 bound_to 10713
  154.7194  135.3022  154.9072 H   0  0  0  0  0  0  0  0  0  0  0  0  # atno 10763 bound_to 10752
  153.9948  135.6714  153.4760 H   0  0  0  0  0  0  0  0  0  0  0  0  # atno 10764 bound_to 10752
  153.0821  135.5003  154.8440 H   0  0  0  0  0  0  0  0  0  0  0  0  # atno 10765 bound_to 10752
  140.0167  134.9415  157.0390 H   0  0  0  0  0  0  0  0  0  0  0  0  # atno 11005 bound_to 11000
  145.1893  139.2310  143.5251 LP  0  0  0  0  0  0  0  0  0  0  0  0  # atno 17320 bound_to 7965
  146.3485  140.1685  142.8590 LP  0  0  0  0  0  0  0  0  0  0  0  0  # atno 17321 bound_to 7965
  139.4920  144.6473  151.6751 LP  0  0  0  0  0  0  0  0  0  0  0  0  # atno 17342 bound_to 10162
  140.5671  144.0171  150.6198 LP  0  0  0  0  0  0  0  0  0  0  0  0  # atno 17343 bound_to 10162
  156.3627  130.7490  151.2464 LP  0  0  0  0  0  0  0  0  0  0  0  0  # atno 17370 bound_to 10713
  157.7492  131.0345  150.4322 LP  0  0  0  0  0  0  0  0  0  0  0  0  # atno 17371 bound_to 10713
  140.4459  134.1633  155.7177 LP  0  0  0  0  0  0  0  0  0  0  0  0  # atno 17394 bound_to 11000
  141.1747  133.8538  157.1459 LP  0  0  0  0  0  0  0  0  0  0  0  0  # atno 17395 bound_to 11000

$$$$
