AV-unprocessed.smi:1135|AV-procd|sdf|4860|dock8
  -GOLD-   22720 3433D 1   1.00000     0.00000
 Structure written by MMmdl.
 46 47  0  0  0  0  0  0  0  0  2 V2000
  149.7983  141.8270  158.1701 C   0  0  0  0  0  0  0  0  0  0  0  0
  149.2904  141.0608  156.9405 C   0  0  2  0  0  0  0  0  0  0  0  0
  149.4569  139.5422  157.1124 C   0  0  0  0  0  0  0  0  0  0  0  0
  148.9470  138.7715  155.8816 C   0  0  0  0  0  0  0  0  0  0  0  0
  149.5945  139.2210  154.5471 C   0  0  1  0  0  0  0  0  0  0  0  0
  151.0634  138.7402  154.4718 C   0  0  0  0  0  0  0  0  0  0  0  0
  148.8093  138.5814  153.4828 N   0  0  0  0  0  0  0  0  0  0  0  0
  147.5068  138.7462  153.1996 C   0  0  0  0  0  0  0  0  0  0  0  0
  146.7594  139.5360  153.7771 O   0  0  0  0  0  0  0  0  0  0  0  0
  147.1002  137.9062  152.2366 N   0  0  0  0  0  0  0  0  0  0  0  0
  145.7196  137.7521  151.7816 C   0  0  0  0  0  0  0  0  0  0  0  0
  144.9818  136.6082  152.5089 C   0  0  0  0  0  0  0  0  0  0  0  0
  145.1925  135.2417  151.8783 C   0  0  0  0  0  0  0  0  0  0  0  0
  144.1176  134.4605  151.3996 C   0  0  0  0  0  0  0  0  0  0  0  0
  144.3868  133.2205  150.7839 C   0  0  0  0  0  0  0  0  0  0  0  0
  145.7227  132.7847  150.6652 C   0  0  0  0  0  0  0  0  0  0  0  0
  146.7569  133.6013  151.1666 C   0  0  0  0  0  0  0  0  0  0  0  0
  146.4588  134.7843  151.7475 N   0  3  0  0  0  0  0  0  0  0  0  0
  149.4865  140.7668  154.4197 C   0  0  0  0  0  0  0  0  0  0  0  0
  149.9978  141.5241  155.6571 C   0  0  0  0  0  0  0  0  0  0  0  0
  150.8632  141.6570  158.3316 H   0  0  0  0  0  0  0  0  0  0  0  0
  149.2704  141.5163  159.0723 H   0  0  0  0  0  0  0  0  0  0  0  0
  149.6466  142.9004  158.0532 H   0  0  0  0  0  0  0  0  0  0  0  0
  148.2256  141.2751  156.8363 H   0  0  0  0  0  0  0  0  0  0  0  0
  150.5040  139.3004  157.2965 H   0  0  0  0  0  0  0  0  0  0  0  0
  148.9116  139.2094  157.9962 H   0  0  0  0  0  0  0  0  0  0  0  0
  149.0994  137.7018  156.0327 H   0  0  0  0  0  0  0  0  0  0  0  0
  147.8660  138.9116  155.8241 H   0  0  0  0  0  0  0  0  0  0  0  0
  151.6635  139.1299  155.2931 H   0  0  0  0  0  0  0  0  0  0  0  0
  151.5509  139.0597  153.5509 H   0  0  0  0  0  0  0  0  0  0  0  0
  151.1255  137.6523  154.5146 H   0  0  0  0  0  0  0  0  0  0  0  0
  149.3102  137.9031  152.9275 H   0  0  0  0  0  0  0  0  0  0  0  0
  147.7880  137.2985  151.8154 H   0  0  0  0  0  0  0  0  0  0  0  0
  145.1735  138.6891  151.9038 H   0  0  0  0  0  0  0  0  0  0  0  0
  145.7360  137.5514  150.7102 H   0  0  0  0  0  0  0  0  0  0  0  0
  145.3055  136.5681  153.5498 H   0  0  0  0  0  0  0  0  0  0  0  0
  143.9128  136.8223  152.5346 H   0  0  0  0  0  0  0  0  0  0  0  0
  143.1002  134.8128  151.4876 H   0  0  0  0  0  0  0  0  0  0  0  0
  143.5784  132.6137  150.4028 H   0  0  0  0  0  0  0  0  0  0  0  0
  145.9508  131.8396  150.1945 H   0  0  0  0  0  0  0  0  0  0  0  0
  147.8061  133.3493  151.1152 H   0  0  0  0  0  0  0  0  0  0  0  0
  150.0289  141.1221  153.5433 H   0  0  0  0  0  0  0  0  0  0  0  0
  148.4433  141.0435  154.2587 H   0  0  0  0  0  0  0  0  0  0  0  0
  149.8419  142.5939  155.5141 H   0  0  0  0  0  0  0  0  0  0  0  0
  151.0750  141.3863  155.7561 H   0  0  0  0  0  0  0  0  0  0  0  0
  147.2245  135.3646  152.0908 H   0  0  0  0  0  0  0  0  0  0  0  0
  1  2  1  0  0  0  0
  1 21  1  0  0  0  0
  1 22  1  0  0  0  0
  1 23  1  0  0  0  0
  2 20  1  0  0  0  0
  2  3  1  0  0  0  0
  2 24  1  0  0  0  0
  3  4  1  0  0  0  0
  3 25  1  0  0  0  0
  3 26  1  0  0  0  0
  4  5  1  0  0  0  0
  4 27  1  0  0  0  0
  4 28  1  0  0  0  0
  5  6  1  0  0  0  0
  5  7  1  0  0  0  0
  5 19  1  0  0  0  0
  6 29  1  0  0  0  0
  6 30  1  0  0  0  0
  6 31  1  0  0  0  0
  7  8  1  0  0  0  0
  7 32  1  0  0  0  0
  8  9  2  0  0  0  0
  8 10  1  0  0  0  0
 10 11  1  0  0  0  0
 10 33  1  0  0  0  0
 11 12  1  0  0  0  0
 11 34  1  0  0  0  0
 11 35  1  0  0  0  0
 12 13  1  0  0  0  0
 12 36  1  0  0  0  0
 12 37  1  0  0  0  0
 13 18  1  0  0  0  0
 13 14  2  0  0  0  0
 14 15  1  0  0  0  0
 14 38  1  0  0  0  0
 15 16  2  0  0  0  0
 15 39  1  0  0  0  0
 16 17  1  0  0  0  0
 16 40  1  0  0  0  0
 17 18  2  0  0  0  0
 17 41  1  0  0  0  0
 18 46  1  0  0  0  0
 19 20  1  0  0  0  0
 19 42  1  0  0  0  0
 19 43  1  0  0  0  0
 20 44  1  0  0  0  0
 20 45  1  0  0  0  0
M  CHG  1  18   1
M  END
> <s_m_source_file>
AV-unprocessed.smi

> <i_m_source_file_index>
1135

> <i_lp_mmshare_version>
43012

> <i_f3d_flags>
0

> <s_epik_input>
W0NIMl0xW0NIMl1bQ0BIXShbQ0gzXSlbQ0gyXVtDSDJdW0NAQF0xKFtDSDNdKVtOSF1DKD1PKVtOSF1bQ0gyXVtDSDJdYzJbY0hdW2NIXVtjSF1bY0hdbjI=

> <s_epik_cmdline>
J2VwaWtfcHl0aG9uJywgJy1waCcsICc3LjAnLCAnLXRuJywgJzgnLCAnLW1hJywgJzIwMCcsICctbWV0YWxfYmluZGluZycsICctaW1hZScsICc8aW5maWxlLm1hZT4nLCAnLW9tYWUnLCAnPG91dGZpbGUubWFlPic=

> <r_epik_Ionization_Penalty>
1.55217

> <r_epik_Ionization_Penalty_Charging>
1.55211

> <r_epik_Ionization_Penalty_Neutral>
5.91929e-05

> <r_epik_State_Penalty>
1.64641

> <r_epik_Charging_Adjusted_Penalty>
3.19851

> <i_epik_Tot_Q>
1

> <i_epik_Tot_abs_Q>
1

> <r_epik_Metal_State_Penalty>
1.68848

> <b_epik_Metal_Only>
0

> <s_lp_Force_Field>
OPLS_2005

> <r_lp_Energy>
15.0823

> <b_lp_Chiralities_Consistent>
1

> <s_lp_Variant>
AV-unprocessed.smi:1135-3

> <Gold.Version>
5.8.1

> <Gold.Id.Protein>
6NUR|6NUR_protein|mol2

> <Gold.PLP.Fitness>
44.6555

> <Gold.PLP.PLP>
-33.8805

> <Gold.PLP.part.hbond>
-3.8892

> <Gold.PLP.part.metal>
0.0000

> <Gold.PLP.part.buried>
-1.6362

> <Gold.PLP.part.nonpolar>
-28.7294

> <Gold.PLP.part.repulsive>
0.3658

> <Gold.PLP.ligand.clash>
0.0000

> <Gold.PLP.ligand.torsion>
0.3420

> <Gold.PLP.Chemscore.Hbond>
3.8160

> <Gold.PLP.Chemscore.CHOScore>
0.0000

> <Gold.PLP.Chemscore.Metal>
0.0000

> <Gold.Chemscore.Hbonds>
donor molecule, donor type, donor heavy atom, donor atom, acceptor molecule, acceptor atom, score
      L1  H     7    32       P1  7948  0.82
      L1  H    10    33       P1  7948  1.00
      L1  H    18    46       P1  7948  1.98

> <Gold.PLP.Chemscore.Internal.Correction>
0.0111

> <Gold.Rescore>
     Score         DG    S(hbond)    S(metal)    S(lipo)     H(rot)  DE(clash)    DE(int)     intcor
     18.57     -20.74       2.69        0.00      86.54       1.51       1.24       0.93       ----

> <Gold.Chemscore.Fitness>
18.5685

> <Gold.Chemscore.DG>
-20.7372

> <Gold.Chemscore.ZeroCoef>
-5.4800

> <Gold.Chemscore.Hbond>
2.6928

> <Gold.Chemscore.Metal>
0.0000

> <Gold.Chemscore.Lipo>
86.5382

> <Gold.Chemscore.Internal_Hbond>
0.0000

> <Gold.Chemscore.DEClash>
1.2407

> <Gold.Chemscore.DEInternal>
0.9280

> <Gold.Chemscore.Rot>
1.5085

> <Gold.Chemscore.Internal.Correction>
   9.000000E+99

> <Gold.Chemscore.Hbonds>
donor molecule, donor type, donor heavy atom, donor atom, acceptor molecule, acceptor atom, score
      L1  H     7    32       P1  7948  0.76
      L1  H    10    33       P1  7948  0.94
      L1  H    18    46       P1  7948  0.94

> <Gold.Chemscore.Hbond.Weighted>
-8.9939

> <Gold.Chemscore.Metal.Weighted>
-0.0000

> <Gold.Chemscore.Lipo.Weighted>
-10.1250

> <Gold.Chemscore.Internal_Hbond.Weighted>
0.0000

> <Gold.Chemscore.DEClash.Weighted>
1.2407

> <Gold.Chemscore.DEInternal.Weighted>
0.9280

> <Gold.Chemscore.Rot.Weighted>
3.8617

> <Gold.Chemscore.Internal.Correction.Weighted>
   9.000000E+99

> <Gold.Protein.RotatedTorsions>
[ 6907 6896 6895 6894 ] final   29.91 input  -60.11 | X-H torsion
[ 7974 7965 7964 7962 ] final -118.05 input  175.53 | X-H torsion
[ 8008 7997 7996 7995 ] final -107.26 input   59.86 | X-H torsion
[ 10167 10162 10161 10158 ] final   71.39 input  -65.29 | X-H torsion
[ 10718 10713 10712 10709 ] final  111.09 input   66.30 | X-H torsion
[ 10763 10752 10751 10750 ] final  131.99 input  -60.55 | X-H torsion
[ 11005 11000 10999 10996 ] final -178.22 input  -57.11 | X-H torsion

> <Gold.Protein.ActiveResidues>
 VAL166  LYS551  ARG553  GLY616  TRP617  ASP618  TYR619  PRO620  LYS621  CYS622 
 ASP623  PHE694  ASN695  SER759  ASP760  ASP761  ALA762  ILE779  LEU786  VAL792 
 PHE793  MET794  SER795  GLU796  ALA797  LYS798  CYS799  TRP800  GLU811  SER814 

> <Gold.Protein.RotatedAtoms>
  152.0383  134.9726  160.0573 H   0  0  0  0  0  0  0  0  0  0  0  0  # atno 6907 bound_to 6896
  152.1175  133.4330  159.4668 H   0  0  0  0  0  0  0  0  0  0  0  0  # atno 6908 bound_to 6896
  150.6847  134.2493  159.4547 H   0  0  0  0  0  0  0  0  0  0  0  0  # atno 6909 bound_to 6896
  145.0782  140.8407  143.4054 H   0  0  0  0  0  0  0  0  0  0  0  0  # atno 7974 bound_to 7965
  154.9268  140.0406  157.2027 H   0  0  0  0  0  0  0  0  0  0  0  0  # atno 8008 bound_to 7997
  154.8200  140.2882  155.5772 H   0  0  0  0  0  0  0  0  0  0  0  0  # atno 8009 bound_to 7997
  156.2979  140.2520  156.3105 H   0  0  0  0  0  0  0  0  0  0  0  0  # atno 8010 bound_to 7997
  140.0466  144.5346  150.7394 H   0  0  0  0  0  0  0  0  0  0  0  0  # atno 10167 bound_to 10162
  157.6462  131.0944  150.6697 H   0  0  0  0  0  0  0  0  0  0  0  0  # atno 10718 bound_to 10713
  153.7834  135.3165  155.3369 H   0  0  0  0  0  0  0  0  0  0  0  0  # atno 10763 bound_to 10752
  154.8153  135.4640  154.0629 H   0  0  0  0  0  0  0  0  0  0  0  0  # atno 10764 bound_to 10752
  153.1925  135.6910  153.8420 H   0  0  0  0  0  0  0  0  0  0  0  0  # atno 10765 bound_to 10752
  140.4322  134.6509  157.4717 H   0  0  0  0  0  0  0  0  0  0  0  0  # atno 11005 bound_to 11000
  145.1209  139.2694  143.5589 LP  0  0  0  0  0  0  0  0  0  0  0  0  # atno 17320 bound_to 7965
  146.3530  140.0833  142.8616 LP  0  0  0  0  0  0  0  0  0  0  0  0  # atno 17321 bound_to 7965
  140.7236  143.2613  151.4197 LP  0  0  0  0  0  0  0  0  0  0  0  0  # atno 17342 bound_to 10162
  139.5979  144.1357  152.2165 LP  0  0  0  0  0  0  0  0  0  0  0  0  # atno 17343 bound_to 10162
  156.7014  130.4624  149.5572 LP  0  0  0  0  0  0  0  0  0  0  0  0  # atno 17370 bound_to 10713
  156.1792  130.6488  151.0931 LP  0  0  0  0  0  0  0  0  0  0  0  0  # atno 17371 bound_to 10713
  140.0127  134.6666  155.9357 LP  0  0  0  0  0  0  0  0  0  0  0  0  # atno 17394 bound_to 11000
  141.1741  133.6539  156.4761 LP  0  0  0  0  0  0  0  0  0  0  0  0  # atno 17395 bound_to 11000

$$$$
