AV-unprocessed.smi:2925|AV-procd|sdf|11225|dock5
  -GOLD-   2272016113D 1   1.00000     0.00000
 Structure written by MMmdl.
 44 45  0  0  0  0  0  0  0  0  1 V2000
  149.6977  135.7601  157.6569 C   0  0  0  0  0  0  0  0  0  0  0  0
  148.9345  135.6004  156.3336 C   0  0  0  0  0  0  0  0  0  0  0  0
  149.8014  135.0611  155.1765 C   0  0  1  0  0  0  0  0  0  0  0  0
  148.9620  134.8531  153.9969 N   0  0  0  0  0  0  0  0  0  0  0  0
  148.0759  133.8603  153.8343 C   0  0  0  0  0  0  0  0  0  0  0  0
  147.8474  132.9960  154.6818 O   0  0  0  0  0  0  0  0  0  0  0  0
  147.4983  133.9155  152.6213 N   0  0  0  0  0  0  0  0  0  0  0  0
  146.5738  132.9938  152.1068 C   0  0  0  0  0  0  0  0  0  0  0  0
  145.4823  133.4561  151.4420 C   0  0  0  0  0  0  0  0  0  0  0  0
  145.2582  134.9415  151.2068 C   0  0  0  0  0  0  0  0  0  0  0  0
  144.5210  132.5062  150.9216 C   0  0  0  0  0  0  0  0  0  0  0  0
  144.7216  131.1951  151.1103 C   0  0  0  0  0  0  0  0  0  0  0  0
  145.8343  130.7139  151.8154 N   0  0  0  0  0  0  0  0  0  0  0  0
  145.9545  129.2632  151.9843 C   0  0  0  0  0  0  0  0  0  0  0  0
  146.7659  131.5461  152.3635 C   0  0  0  0  0  0  0  0  0  0  0  0
  147.6923  131.0974  153.0426 O   0  0  0  0  0  0  0  0  0  0  0  0
  150.9624  136.0144  154.8181 C   0  0  1  0  0  0  0  0  0  0  0  0
  150.5539  137.4781  154.6307 C   0  0  0  0  0  0  0  0  0  0  0  0
  151.8364  138.2064  154.9592 C   0  0  0  0  0  0  0  0  0  0  0  0
  152.3687  137.3727  156.1182 C   0  0  0  0  0  0  0  0  0  0  0  0
  151.9367  136.0401  155.8623 O   0  0  0  0  0  0  0  0  0  0  0  0
  149.0544  136.1920  158.4236 H   0  0  0  0  0  0  0  0  0  0  0  0
  150.5580  136.4187  157.5361 H   0  0  0  0  0  0  0  0  0  0  0  0
  150.0584  134.8025  158.0329 H   0  0  0  0  0  0  0  0  0  0  0  0
  148.0766  134.9451  156.4891 H   0  0  0  0  0  0  0  0  0  0  0  0
  148.5256  136.5735  156.0609 H   0  0  0  0  0  0  0  0  0  0  0  0
  150.2266  134.1082  155.4978 H   0  0  0  0  0  0  0  0  0  0  0  0
  149.0803  135.5088  153.2389 H   0  0  0  0  0  0  0  0  0  0  0  0
  147.8532  134.5975  151.9675 H   0  0  0  0  0  0  0  0  0  0  0  0
  144.3475  135.1179  150.6338 H   0  0  0  0  0  0  0  0  0  0  0  0
  146.0924  135.3706  150.6507 H   0  0  0  0  0  0  0  0  0  0  0  0
  145.1656  135.4698  152.1562 H   0  0  0  0  0  0  0  0  0  0  0  0
  143.6513  132.8452  150.3778 H   0  0  0  0  0  0  0  0  0  0  0  0
  144.0420  130.4401  150.7431 H   0  0  0  0  0  0  0  0  0  0  0  0
  146.9346  128.9146  151.6552 H   0  0  0  0  0  0  0  0  0  0  0  0
  145.2094  128.7100  151.4115 H   0  0  0  0  0  0  0  0  0  0  0  0
  145.8319  128.9915  153.0336 H   0  0  0  0  0  0  0  0  0  0  0  0
  151.4660  135.6691  153.9135 H   0  0  0  0  0  0  0  0  0  0  0  0
  150.1894  137.6929  153.6258 H   0  0  0  0  0  0  0  0  0  0  0  0
  149.7763  137.7564  155.3438 H   0  0  0  0  0  0  0  0  0  0  0  0
  152.5228  138.1589  154.1129 H   0  0  0  0  0  0  0  0  0  0  0  0
  151.6835  139.2536  155.2210 H   0  0  0  0  0  0  0  0  0  0  0  0
  153.4533  137.4301  156.2116 H   0  0  0  0  0  0  0  0  0  0  0  0
  151.9285  137.7040  157.0596 H   0  0  0  0  0  0  0  0  0  0  0  0
  1  2  1  0  0  0  0
  1 22  1  0  0  0  0
  1 23  1  0  0  0  0
  1 24  1  0  0  0  0
  2  3  1  0  0  0  0
  2 25  1  0  0  0  0
  2 26  1  0  0  0  0
  3  4  1  0  0  0  0
  3 17  1  0  0  0  0
  3 27  1  0  0  0  0
  4  5  1  0  0  0  0
  4 28  1  0  0  0  0
  5  6  2  0  0  0  0
  5  7  1  0  0  0  0
  7  8  1  0  0  0  0
  7 29  1  0  0  0  0
  8 15  1  0  0  0  0
  8  9  2  0  0  0  0
  9 10  1  0  0  0  0
  9 11  1  0  0  0  0
 10 30  1  0  0  0  0
 10 31  1  0  0  0  0
 10 32  1  0  0  0  0
 11 12  2  0  0  0  0
 11 33  1  0  0  0  0
 12 13  1  0  0  0  0
 12 34  1  0  0  0  0
 13 14  1  0  0  0  0
 13 15  1  0  0  0  0
 14 35  1  0  0  0  0
 14 36  1  0  0  0  0
 14 37  1  0  0  0  0
 15 16  2  0  0  0  0
 17 21  1  0  0  0  0
 17 18  1  0  0  0  0
 17 38  1  0  0  0  0
 18 19  1  0  0  0  0
 18 39  1  0  0  0  0
 18 40  1  0  0  0  0
 19 20  1  0  0  0  0
 19 41  1  0  0  0  0
 19 42  1  0  0  0  0
 20 21  1  0  0  0  0
 20 43  1  0  0  0  0
 20 44  1  0  0  0  0
M  END
> <s_m_source_file>
AV-unprocessed.smi

> <i_m_source_file_index>
2925

> <i_lp_mmshare_version>
43012

> <i_f3d_flags>
0

> <s_epik_input>
TzFbQ0gyXVtDSDJdW0NIMl1bQ0BIXTFbQ0BIXShbQ0gyXVtDSDNdKVtOSF1DKD1PKVtOSF1jMmMoW0NIM10pW2NIXVtjSF1uKFtDSDNdKWMyPU8=

> <s_epik_cmdline>
J2VwaWtfcHl0aG9uJywgJy1waCcsICc3LjAnLCAnLXRuJywgJzgnLCAnLW1hJywgJzIwMCcsICctbWV0YWxfYmluZGluZycsICctaW1hZScsICc8aW5maWxlLm1hZT4nLCAnLW9tYWUnLCAnPG91dGZpbGUubWFlPic=

> <r_lp_tautomer_probability>
1

> <r_epik_Ionization_Penalty>
2.58789e-05

> <r_epik_Ionization_Penalty_Charging>
6.72534e-06

> <r_epik_Ionization_Penalty_Neutral>
1.91535e-05

> <r_epik_State_Penalty>
-0

> <r_epik_Charging_Adjusted_Penalty>
6.72534e-06

> <i_epik_Tot_Q>
0

> <i_epik_Tot_abs_Q>
0

> <r_epik_Metal_State_Penalty>
-0

> <b_epik_Metal_Only>
0

> <s_lp_Force_Field>
OPLS_2005

> <r_lp_Energy>
35.3317

> <b_lp_Chiralities_Consistent>
1

> <s_lp_Variant>
AV-unprocessed.smi:2925-4

> <Gold.Version>
5.8.1

> <Gold.Id.Protein>
6NUR|6NUR_protein|mol2

> <Gold.PLP.Fitness>
42.0412

> <Gold.PLP.PLP>
-34.0709

> <Gold.PLP.part.hbond>
-2.9477

> <Gold.PLP.part.metal>
0.0000

> <Gold.PLP.part.buried>
-3.7934

> <Gold.PLP.part.nonpolar>
-27.2272

> <Gold.PLP.part.repulsive>
0.1558

> <Gold.PLP.ligand.clash>
0.0000

> <Gold.PLP.ligand.torsion>
0.6519

> <Gold.PLP.Chemscore.Hbond>
2.8800

> <Gold.PLP.Chemscore.CHOScore>
0.0000

> <Gold.PLP.Chemscore.Metal>
0.0000

> <Gold.Chemscore.Hbonds>
donor molecule, donor type, donor heavy atom, donor atom, acceptor molecule, acceptor atom, score
      L1  H     4    28       P1  7948  0.99
      L1  H     7    29       P1  7948  0.86
      P1  H 10752 10765       L1    21  0.98

> <Gold.PLP.Chemscore.Internal.Correction>
0.6342

> <Gold.Rescore>
     Score         DG    S(hbond)    S(metal)    S(lipo)     H(rot)  DE(clash)    DE(int)     intcor
     10.69     -16.51       1.83        0.00      71.70       1.36       0.00       5.83       ----

> <Gold.Chemscore.Fitness>
10.6864

> <Gold.Chemscore.DG>
-16.5143

> <Gold.Chemscore.ZeroCoef>
-5.4800

> <Gold.Chemscore.Hbond>
1.8329

> <Gold.Chemscore.Metal>
0.0000

> <Gold.Chemscore.Lipo>
71.6984

> <Gold.Chemscore.Internal_Hbond>
0.0000

> <Gold.Chemscore.DEClash>
0.0000

> <Gold.Chemscore.DEInternal>
5.8278

> <Gold.Chemscore.Rot>
1.3579

> <Gold.Chemscore.Internal.Correction>
   9.000000E+99

> <Gold.Chemscore.Hbonds>
donor molecule, donor type, donor heavy atom, donor atom, acceptor molecule, acceptor atom, score
      L1  H     4    28       P1  7948  0.46
      L1  H     7    29       P1  7948  0.26
      P1  H 10752 10765       L1    21  0.12

> <Gold.Chemscore.Hbond.Weighted>
-6.1219

> <Gold.Chemscore.Metal.Weighted>
-0.0000

> <Gold.Chemscore.Lipo.Weighted>
-8.3887

> <Gold.Chemscore.Internal_Hbond.Weighted>
0.0000

> <Gold.Chemscore.DEClash.Weighted>
0.0000

> <Gold.Chemscore.DEInternal.Weighted>
5.8278

> <Gold.Chemscore.Rot.Weighted>
3.4763

> <Gold.Chemscore.Internal.Correction.Weighted>
   9.000000E+99

> <Gold.Protein.RotatedTorsions>
[ 6907 6896 6895 6894 ] final   74.59 input  -60.11 | X-H torsion
[ 7974 7965 7964 7962 ] final  126.42 input  175.53 | X-H torsion
[ 8008 7997 7996 7995 ] final -166.74 input   59.86 | X-H torsion
[ 10167 10162 10161 10158 ] final  120.33 input  -65.29 | X-H torsion
[ 10718 10713 10712 10709 ] final  176.60 input   66.30 | X-H torsion
[ 10763 10752 10751 10750 ] final -135.93 input  -60.55 | X-H torsion
[ 11005 11000 10999 10996 ] final  109.13 input  -57.11 | X-H torsion

> <Gold.Protein.ActiveResidues>
 VAL166  LYS551  ARG553  GLY616  TRP617  ASP618  TYR619  PRO620  LYS621  CYS622 
 ASP623  PHE694  ASN695  SER759  ASP760  ASP761  ALA762  ILE779  LEU786  VAL792 
 PHE793  MET794  SER795  GLU796  ALA797  LYS798  CYS799  TRP800  GLU811  SER814 

> <Gold.Protein.RotatedAtoms>
  152.4984  134.4248  159.9492 H   0  0  0  0  0  0  0  0  0  0  0  0  # atno 6907 bound_to 6896
  151.4223  133.3688  159.2765 H   0  0  0  0  0  0  0  0  0  0  0  0  # atno 6908 bound_to 6896
  150.9214  134.8654  159.7551 H   0  0  0  0  0  0  0  0  0  0  0  0  # atno 6909 bound_to 6896
  145.0619  139.3798  143.5001 H   0  0  0  0  0  0  0  0  0  0  0  0  # atno 7974 bound_to 7965
  155.8680  140.0989  157.1569 H   0  0  0  0  0  0  0  0  0  0  0  0  # atno 8008 bound_to 7997
  154.3995  140.1352  156.4105 H   0  0  0  0  0  0  0  0  0  0  0  0  # atno 8009 bound_to 7997
  155.7782  140.3459  155.5286 H   0  0  0  0  0  0  0  0  0  0  0  0  # atno 8010 bound_to 7997
  139.5989  144.7050  151.3109 H   0  0  0  0  0  0  0  0  0  0  0  0  # atno 10167 bound_to 10162
  156.9178  130.9930  151.3010 H   0  0  0  0  0  0  0  0  0  0  0  0  # atno 10718 bound_to 10713
  154.8694  135.3688  154.4978 H   0  0  0  0  0  0  0  0  0  0  0  0  # atno 10763 bound_to 10752
  153.5621  135.7022  153.5547 H   0  0  0  0  0  0  0  0  0  0  0  0  # atno 10764 bound_to 10752
  153.3619  135.4044  155.1688 H   0  0  0  0  0  0  0  0  0  0  0  0  # atno 10765 bound_to 10752
  139.8856  134.9450  156.6079 H   0  0  0  0  0  0  0  0  0  0  0  0  # atno 11005 bound_to 11000
  146.3525  140.0322  142.8649 LP  0  0  0  0  0  0  0  0  0  0  0  0  # atno 17320 bound_to 7965
  145.1398  140.9565  143.4495 LP  0  0  0  0  0  0  0  0  0  0  0  0  # atno 17321 bound_to 7965
  140.7234  143.7072  150.7798 LP  0  0  0  0  0  0  0  0  0  0  0  0  # atno 17342 bound_to 10162
  140.0644  143.5123  152.2611 LP  0  0  0  0  0  0  0  0  0  0  0  0  # atno 17343 bound_to 10162
  157.5927  130.8455  149.8683 LP  0  0  0  0  0  0  0  0  0  0  0  0  # atno 17370 bound_to 10713
  156.0505  130.3718  150.1212 LP  0  0  0  0  0  0  0  0  0  0  0  0  # atno 17371 bound_to 10713
  140.7834  133.8641  155.8586 LP  0  0  0  0  0  0  0  0  0  0  0  0  # atno 17394 bound_to 11000
  140.9740  134.1493  157.4552 LP  0  0  0  0  0  0  0  0  0  0  0  0  # atno 17395 bound_to 11000

$$$$
