AV-unprocessed.smi:109|AV-procd|sdf|1034|dock4
  -GOLD-   2262018 43D 1   1.00000     0.00000
 Structure written by MMmdl.
 58 61  0  0  0  0  0  0  0  0  1 V2000
  147.6387  139.9696  158.0342 O   0  0  0  0  0  0  0  0  0  0  0  0
  147.6304  141.3489  157.7360 C   0  0  0  0  0  0  0  0  0  0  0  0
  148.7685  141.6788  156.7569 C   0  0  0  0  0  0  0  0  0  0  0  0
  150.1520  141.2181  157.2668 C   0  0  1  0  0  0  0  0  0  0  0  0
  151.0710  141.0708  156.1380 N   0  0  0  0  0  0  0  0  0  0  0  0
  151.4513  139.8551  155.6852 C   0  0  0  0  0  0  0  0  0  0  0  0
  152.3204  139.7261  154.6491 N   0  0  0  0  0  0  0  0  0  0  0  0
  152.6843  138.5113  154.2291 C   0  0  0  0  0  0  0  0  0  0  0  0
  152.3075  137.3200  154.6973 N   0  0  0  0  0  0  0  0  0  0  0  0
  151.4333  137.4412  155.7384 C   0  0  0  0  0  0  0  0  0  0  0  0
  150.9601  138.6668  156.2857 C   0  0  0  0  0  0  0  0  0  0  0  0
  150.0878  138.4089  157.3347 N   0  0  0  0  0  0  0  0  0  0  0  0
  150.0525  137.1054  157.4022 C   0  0  0  0  0  0  0  0  0  0  0  0
  150.8349  136.4423  156.4829 N   0  0  0  0  0  0  0  0  0  0  0  0
  150.9950  134.9584  156.3344 C   0  0  1  0  0  0  0  0  0  0  0  0
  150.3718  134.3134  157.4078 O   0  0  0  0  0  0  0  0  0  0  0  0
  149.3944  133.3985  156.9196 C   0  0  2  0  0  0  0  0  0  0  0  0
  149.2083  132.2246  157.8972 C   0  0  0  0  0  0  0  0  0  0  0  0
  150.4372  131.7795  158.4335 O   0  0  0  0  0  0  0  0  0  0  0  0
  149.8528  133.0616  155.4985 C   0  0  1  0  0  0  0  0  0  0  0  0
  148.8205  132.5454  154.6791 O   0  0  0  0  0  0  0  0  0  0  0  0
  150.3857  134.4082  155.0266 C   0  0  1  0  0  0  0  0  0  0  0  0
  149.3733  135.2398  154.4792 O   0  0  0  0  0  0  0  0  0  0  0  0
  150.7639  142.1354  158.3613 C   0  0  0  0  0  0  0  0  0  0  0  0
  151.1411  143.5338  157.8254 C   0  0  0  0  0  0  0  0  0  0  0  0
  151.6474  144.4497  158.9516 C   0  0  0  0  0  0  0  0  0  0  0  0
  152.8356  143.8158  159.6916 C   0  0  0  0  0  0  0  0  0  0  0  0
  152.4746  142.4218  160.2281 C   0  0  0  0  0  0  0  0  0  0  0  0
  151.9649  141.5056  159.1032 C   0  0  0  0  0  0  0  0  0  0  0  0
  152.0703  134.7882  156.4009 H   0  0  0  0  0  0  0  0  0  0  0  0
  148.4540  133.9490  156.8642 H   0  0  0  0  0  0  0  0  0  0  0  0
  150.6775  132.3485  155.5201 H   0  0  0  0  0  0  0  0  0  0  0  0
  151.1709  134.2927  154.2789 H   0  0  0  0  0  0  0  0  0  0  0  0
  147.8294  139.4925  157.2409 H   0  0  0  0  0  0  0  0  0  0  0  0
  146.6641  141.6133  157.3055 H   0  0  0  0  0  0  0  0  0  0  0  0
  147.7378  141.9090  158.6654 H   0  0  0  0  0  0  0  0  0  0  0  0
  148.5559  141.2259  155.7877 H   0  0  0  0  0  0  0  0  0  0  0  0
  148.7709  142.7560  156.5956 H   0  0  0  0  0  0  0  0  0  0  0  0
  149.9996  140.2353  157.7144 H   0  0  0  0  0  0  0  0  0  0  0  0
  151.4045  141.9331  155.7315 H   0  0  0  0  0  0  0  0  0  0  0  0
  153.3778  138.4905  153.4015 H   0  0  0  0  0  0  0  0  0  0  0  0
  149.4521  136.5864  158.1350 H   0  0  0  0  0  0  0  0  0  0  0  0
  148.5343  132.5045  158.7071 H   0  0  0  0  0  0  0  0  0  0  0  0
  148.7483  131.3840  157.3774 H   0  0  0  0  0  0  0  0  0  0  0  0
  151.0923  131.8173  157.7534 H   0  0  0  0  0  0  0  0  0  0  0  0
  148.7772  133.0629  153.8897 H   0  0  0  0  0  0  0  0  0  0  0  0
  149.6260  135.4806  153.6013 H   0  0  0  0  0  0  0  0  0  0  0  0
  149.9847  142.3028  159.1065 H   0  0  0  0  0  0  0  0  0  0  0  0
  151.9150  143.4556  157.0622 H   0  0  0  0  0  0  0  0  0  0  0  0
  150.2774  143.9938  157.3440 H   0  0  0  0  0  0  0  0  0  0  0  0
  151.9387  145.4169  158.5413 H   0  0  0  0  0  0  0  0  0  0  0  0
  150.8385  144.6442  159.6569 H   0  0  0  0  0  0  0  0  0  0  0  0
  153.6876  143.7377  159.0148 H   0  0  0  0  0  0  0  0  0  0  0  0
  153.1501  144.4608  160.5124 H   0  0  0  0  0  0  0  0  0  0  0  0
  153.3444  141.9721  160.7078 H   0  0  0  0  0  0  0  0  0  0  0  0
  151.7092  142.5137  160.9999 H   0  0  0  0  0  0  0  0  0  0  0  0
  151.6851  140.5393  159.5235 H   0  0  0  0  0  0  0  0  0  0  0  0
  152.7811  141.3160  158.4056 H   0  0  0  0  0  0  0  0  0  0  0  0
  1  2  1  0  0  0  0
  1 34  1  0  0  0  0
  2  3  1  0  0  0  0
  2 35  1  0  0  0  0
  2 36  1  0  0  0  0
  3  4  1  0  0  0  0
  3 37  1  0  0  0  0
  3 38  1  0  0  0  0
  4  5  1  0  0  0  0
  4 24  1  0  0  0  0
  4 39  1  0  0  0  0
  5  6  1  0  0  0  0
  5 40  1  0  0  0  0
  6 11  1  0  0  0  0
  6  7  2  0  0  0  0
  7  8  1  0  0  0  0
  8  9  2  0  0  0  0
  8 41  1  0  0  0  0
  9 10  1  0  0  0  0
 10 14  1  0  0  0  0
 10 11  2  0  0  0  0
 11 12  1  0  0  0  0
 12 13  2  0  0  0  0
 13 14  1  0  0  0  0
 13 42  1  0  0  0  0
 14 15  1  0  0  0  0
 15 30  1  0  0  0  0
 15 22  1  0  0  0  0
 15 16  1  0  0  0  0
 16 17  1  0  0  0  0
 17 31  1  0  0  0  0
 17 18  1  0  0  0  0
 17 20  1  0  0  0  0
 18 19  1  0  0  0  0
 18 43  1  0  0  0  0
 18 44  1  0  0  0  0
 19 45  1  0  0  0  0
 20 32  1  0  0  0  0
 20 21  1  0  0  0  0
 20 22  1  0  0  0  0
 21 46  1  0  0  0  0
 22 33  1  0  0  0  0
 22 23  1  0  0  0  0
 23 47  1  0  0  0  0
 24 29  1  0  0  0  0
 24 25  1  0  0  0  0
 24 48  1  0  0  0  0
 25 26  1  0  0  0  0
 25 49  1  0  0  0  0
 25 50  1  0  0  0  0
 26 27  1  0  0  0  0
 26 51  1  0  0  0  0
 26 52  1  0  0  0  0
 27 28  1  0  0  0  0
 27 53  1  0  0  0  0
 27 54  1  0  0  0  0
 28 29  1  0  0  0  0
 28 55  1  0  0  0  0
 28 56  1  0  0  0  0
 29 57  1  0  0  0  0
 29 58  1  0  0  0  0
M  END
> <s_m_source_file>
AV-unprocessed.smi

> <i_m_source_file_index>
109

> <i_lp_mmshare_version>
43012

> <i_f3d_flags>
0

> <s_epik_input>
W0NIMl0xW0NIMl1bQ0gyXVtDSDJdW0NIMl1bQ0hdMVtDQEhdKFtDSDJdW0NIMl1bT0hdKVtOSF1jKG5bY0hdbjIpYyhjMjMpbltjSF1uM1tDQEBIXTRPW0NASF0oW0NIMl1bT0hdKVtDQEBIXShbT0hdKVtDQEhdNFtPSF0=

> <s_epik_cmdline>
J2VwaWtfcHl0aG9uJywgJy1waCcsICc3LjAnLCAnLXRuJywgJzgnLCAnLW1hJywgJzIwMCcsICctbWV0YWxfYmluZGluZycsICctaW1hZScsICc8aW5maWxlLm1hZT4nLCAnLW9tYWUnLCAnPG91dGZpbGUubWFlPic=

> <r_lp_tautomer_probability>
1

> <r_epik_Ionization_Penalty>
0.000793976

> <r_epik_Ionization_Penalty_Charging>
0

> <r_epik_Ionization_Penalty_Neutral>
0.000793976

> <r_epik_State_Penalty>
-0

> <r_epik_Charging_Adjusted_Penalty>
0

> <i_epik_Tot_Q>
0

> <i_epik_Tot_abs_Q>
0

> <r_epik_Metal_State_Penalty>
-0

> <b_epik_Metal_Only>
0

> <s_epik_Chemistry_Notes>
This compound contains an acetal/aminal-like group ( X-CH(R)-Y where X, Y are N, S, or O) that may be acid/base labile, releasing an aldehyde.

> <s_lp_Force_Field>
OPLS_2005

> <r_lp_Energy>
63.9822

> <b_lp_Chiralities_Consistent>
1

> <s_lp_Variant>
AV-unprocessed.smi:109-4

> <Gold.Version>
5.8.1

> <Gold.Id.Protein>
6NUR|6NUR_protein|mol2

> <Gold.PLP.Fitness>
53.0020

> <Gold.PLP.PLP>
-43.8255

> <Gold.PLP.part.hbond>
-5.8799

> <Gold.PLP.part.metal>
0.0000

> <Gold.PLP.part.buried>
-7.7032

> <Gold.PLP.part.nonpolar>
-31.3252

> <Gold.PLP.part.repulsive>
0.2801

> <Gold.PLP.ligand.clash>
0.0000

> <Gold.PLP.ligand.torsion>
0.6801

> <Gold.PLP.Chemscore.Hbond>
3.4480

> <Gold.PLP.Chemscore.CHOScore>
0.0000

> <Gold.PLP.Chemscore.Metal>
0.0000

> <Gold.Chemscore.Hbonds>
donor molecule, donor type, donor heavy atom, donor atom, acceptor molecule, acceptor atom, score
      L1  H    23    47       P1  7948  0.68
      P1  H  6896  6908       L1    16  0.70
      P1  H  7989  7998       L1     7  0.69
      P1  H 10752 10763       L1     9  0.72

> <Gold.PLP.Chemscore.Internal.Correction>
0.1926

> <Gold.Rescore>
     Score         DG    S(hbond)    S(metal)    S(lipo)     H(rot)  DE(clash)    DE(int)     intcor
     10.67     -12.68       3.27        0.00      87.70       5.47       0.15       1.86       ----

> <Gold.Chemscore.Fitness>
10.6698

> <Gold.Chemscore.DG>
-12.6803

> <Gold.Chemscore.ZeroCoef>
-5.4800

> <Gold.Chemscore.Hbond>
3.2732

> <Gold.Chemscore.Metal>
0.0000

> <Gold.Chemscore.Lipo>
87.7033

> <Gold.Chemscore.Internal_Hbond>
0.0000

> <Gold.Chemscore.DEClash>
0.1542

> <Gold.Chemscore.DEInternal>
1.8562

> <Gold.Chemscore.Rot>
5.4662

> <Gold.Chemscore.Internal.Correction>
   9.000000E+99

> <Gold.Chemscore.Hbonds>
donor molecule, donor type, donor heavy atom, donor atom, acceptor molecule, acceptor atom, score
      L1  H    23    47       P1  7948  0.08
      P1  H  6896  6908       L1    16  0.54
      P1  H  7989  7998       L1     7  0.24
      P1  H 10752 10763       L1     9  0.63

> <Gold.Chemscore.Hbond.Weighted>
-10.9325

> <Gold.Chemscore.Metal.Weighted>
-0.0000

> <Gold.Chemscore.Lipo.Weighted>
-10.2613

> <Gold.Chemscore.Internal_Hbond.Weighted>
0.0000

> <Gold.Chemscore.DEClash.Weighted>
0.1542

> <Gold.Chemscore.DEInternal.Weighted>
1.8562

> <Gold.Chemscore.Rot.Weighted>
13.9935

> <Gold.Chemscore.Internal.Correction.Weighted>
   9.000000E+99

> <Gold.Protein.RotatedTorsions>
[ 6907 6896 6895 6894 ] final  131.95 input  -60.11 | X-H torsion
[ 7974 7965 7964 7962 ] final  -42.89 input  175.53 | X-H torsion
[ 8008 7997 7996 7995 ] final -166.22 input   59.86 | X-H torsion
[ 10167 10162 10161 10158 ] final  147.00 input  -65.29 | X-H torsion
[ 10718 10713 10712 10709 ] final  -94.39 input   66.30 | X-H torsion
[ 10763 10752 10751 10750 ] final   53.60 input  -60.55 | X-H torsion
[ 11005 11000 10999 10996 ] final   28.71 input  -57.11 | X-H torsion

> <Gold.Protein.ActiveResidues>
 VAL166  LYS551  ARG553  GLY616  TRP617  ASP618  TYR619  PRO620  LYS621  CYS622 
 ASP623  PHE694  ASN695  SER759  ASP760  ASP761  ALA762  ILE779  LEU786  VAL792 
 PHE793  MET794  SER795  GLU796  ALA797  LYS798  CYS799  TRP800  GLU811  SER814 

> <Gold.Protein.RotatedAtoms>
  152.3374  133.6027  159.5851 H   0  0  0  0  0  0  0  0  0  0  0  0  # atno 6907 bound_to 6896
  150.7458  133.9775  159.3574 H   0  0  0  0  0  0  0  0  0  0  0  0  # atno 6908 bound_to 6896
  151.7643  135.0803  160.0401 H   0  0  0  0  0  0  0  0  0  0  0  0  # atno 6909 bound_to 6896
  146.0072  140.7006  142.9242 H   0  0  0  0  0  0  0  0  0  0  0  0  # atno 7974 bound_to 7965
  155.8608  140.0978  157.1615 H   0  0  0  0  0  0  0  0  0  0  0  0  # atno 8008 bound_to 7997
  154.3990  140.1365  156.4020 H   0  0  0  0  0  0  0  0  0  0  0  0  # atno 8009 bound_to 7997
  155.7859  140.3457  155.5325 H   0  0  0  0  0  0  0  0  0  0  0  0  # atno 8010 bound_to 7997
  139.4897  144.5788  151.6913 H   0  0  0  0  0  0  0  0  0  0  0  0  # atno 10167 bound_to 10162
  156.0026  130.5066  150.5919 H   0  0  0  0  0  0  0  0  0  0  0  0  # atno 10718 bound_to 10713
  152.9797  135.5773  154.4768 H   0  0  0  0  0  0  0  0  0  0  0  0  # atno 10763 bound_to 10752
  154.4323  135.2774  155.1906 H   0  0  0  0  0  0  0  0  0  0  0  0  # atno 10764 bound_to 10752
  154.3609  135.6189  153.5744 H   0  0  0  0  0  0  0  0  0  0  0  0  # atno 10765 bound_to 10752
  140.3127  134.2632  155.7731 H   0  0  0  0  0  0  0  0  0  0  0  0  # atno 11005 bound_to 11000
  144.6940  140.3335  143.7212 LP  0  0  0  0  0  0  0  0  0  0  0  0  # atno 17320 bound_to 7965
  145.7398  139.1761  143.2382 LP  0  0  0  0  0  0  0  0  0  0  0  0  # atno 17321 bound_to 7965
  140.5389  144.0610  150.6081 LP  0  0  0  0  0  0  0  0  0  0  0  0  # atno 17342 bound_to 10162
  140.3626  143.2899  152.0367 LP  0  0  0  0  0  0  0  0  0  0  0  0  # atno 17343 bound_to 10162
  157.3783  131.0777  151.1499 LP  0  0  0  0  0  0  0  0  0  0  0  0  # atno 17370 bound_to 10713
  157.2230  130.6490  149.5819 LP  0  0  0  0  0  0  0  0  0  0  0  0  # atno 17371 bound_to 10713
  141.2104  133.7719  156.9930 LP  0  0  0  0  0  0  0  0  0  0  0  0  # atno 17394 bound_to 11000
  140.1011  134.9535  157.1924 LP  0  0  0  0  0  0  0  0  0  0  0  0  # atno 17395 bound_to 11000

$$$$
