AV-unprocessed.smi:72|AV-procd|sdf|668|dock3
  -GOLD-   2262016573D 1   1.00000     0.00000
 Structure written by MMmdl.
 29 30  0  0  0  0  0  0  0  0  1 V2000
  149.4447  143.7197  158.5202 N   0  0  0  0  0  0  0  0  0  0  0  0
  150.0144  142.7337  157.9240 C   0  0  0  0  0  0  0  0  0  0  0  0
  150.8408  141.7819  158.5400 N   0  0  0  0  0  0  0  0  0  0  0  0
  151.3524  140.8365  157.8134 C   0  0  0  0  0  0  0  0  0  0  0  0
  151.0924  140.7294  156.3840 N   0  0  0  0  0  0  0  0  0  0  0  0
  151.6889  139.6268  155.5261 C   0  0  1  0  0  0  0  0  0  0  0  0
  152.5565  138.8395  156.2903 O   0  0  0  0  0  0  0  0  0  0  0  0
  151.9685  137.5673  156.5450 C   0  0  2  0  0  0  0  0  0  0  0  0
  153.0396  136.5189  156.8915 C   0  0  0  0  0  0  0  0  0  0  0  0
  152.4226  135.3216  157.3135 O   0  0  0  0  0  0  0  0  0  0  0  0
  151.1662  137.3010  155.2659 C   0  0  2  0  0  0  0  0  0  0  0  0
  152.0017  136.8169  154.2298 O   0  0  0  0  0  0  0  0  0  0  0  0
  150.6267  138.6808  154.9115 C   0  0  1  0  0  0  0  0  0  0  0  0
  149.3287  138.8391  155.4584 O   0  0  0  0  0  0  0  0  0  0  0  0
  150.2597  141.6828  155.7490 C   0  0  0  0  0  0  0  0  0  0  0  0
  150.0002  141.6329  154.5468 O   0  0  0  0  0  0  0  0  0  0  0  0
  149.7574  142.6474  156.5493 N   0  0  0  0  0  0  0  0  0  0  0  0
  152.2911  140.1391  154.7736 H   0  0  0  0  0  0  0  0  0  0  0  0
  151.2591  137.6593  157.3694 H   0  0  0  0  0  0  0  0  0  0  0  0
  150.3741  136.5683  155.4277 H   0  0  0  0  0  0  0  0  0  0  0  0
  150.5678  138.8408  153.8341 H   0  0  0  0  0  0  0  0  0  0  0  0
  148.9022  144.2638  157.8656 H   0  0  0  0  0  0  0  0  0  0  0  0
  152.0052  140.0710  158.2318 H   0  0  0  0  0  0  0  0  0  0  0  0
  153.6362  136.2851  156.0094 H   0  0  0  0  0  0  0  0  0  0  0  0
  153.7212  136.8843  157.6604 H   0  0  0  0  0  0  0  0  0  0  0  0
  151.4958  135.3828  157.1395 H   0  0  0  0  0  0  0  0  0  0  0  0
  151.4652  136.6219  153.4771 H   0  0  0  0  0  0  0  0  0  0  0  0
  149.0837  138.0311  155.8826 H   0  0  0  0  0  0  0  0  0  0  0  0
  149.1594  143.3402  156.1237 H   0  0  0  0  0  0  0  0  0  0  0  0
  1  2  2  0  0  0  0
  1 22  1  0  0  0  0
  2 17  1  0  0  0  0
  2  3  1  0  0  0  0
  3  4  2  0  0  0  0
  4  5  1  0  0  0  0
  4 23  1  0  0  0  0
  5  6  1  0  0  0  0
  5 15  1  0  0  0  0
  6 18  1  0  0  0  0
  6 13  1  0  0  0  0
  6  7  1  0  0  0  0
  7  8  1  0  0  0  0
  8 19  1  0  0  0  0
  8  9  1  0  0  0  0
  8 11  1  0  0  0  0
  9 10  1  0  0  0  0
  9 24  1  0  0  0  0
  9 25  1  0  0  0  0
 10 26  1  0  0  0  0
 11 20  1  0  0  0  0
 11 12  1  0  0  0  0
 11 13  1  0  0  0  0
 12 27  1  0  0  0  0
 13 21  1  0  0  0  0
 13 14  1  0  0  0  0
 14 28  1  0  0  0  0
 15 16  2  0  0  0  0
 15 17  1  0  0  0  0
 17 29  1  0  0  0  0
M  END
> <s_m_source_file>
AV-unprocessed.smi

> <i_m_source_file_index>
72

> <i_lp_mmshare_version>
43012

> <i_f3d_flags>
0

> <s_epik_input>
W05IMl1jMW5bY0hdbihjKD1PKW4xKVtDQEBIXTJPW0NASF0oW0NIMl1bT0hdKVtDQEBIXShbT0hdKVtDQEhdMltPSF0=

> <s_epik_cmdline>
J2VwaWtfcHl0aG9uJywgJy1waCcsICc3LjAnLCAnLXRuJywgJzgnLCAnLW1hJywgJzIwMCcsICctbWV0YWxfYmluZGluZycsICctaW1hZScsICc8aW5maWxlLm1hZT4nLCAnLW9tYWUnLCAnPG91dGZpbGUubWFlPic=

> <r_lp_tautomer_probability>
7.17554e-07

> <r_epik_Ionization_Penalty>
0.0066451

> <r_epik_Ionization_Penalty_Charging>
0.00663793

> <r_epik_Ionization_Penalty_Neutral>
7.17052e-06

> <r_epik_State_Penalty>
0.419231

> <r_epik_Charging_Adjusted_Penalty>
0.425868

> <i_epik_Tot_Q>
0

> <i_epik_Tot_abs_Q>
0

> <r_epik_Metal_State_Penalty>
1.44144

> <b_epik_Metal_Only>
0

> <s_epik_Chemistry_Notes>
This compound contains an acetal/aminal-like group ( X-CH(R)-Y where X, Y are N, S, or O) that may be acid/base labile, releasing an aldehyde.

> <s_lp_Force_Field>
OPLS_2005

> <r_lp_Energy>
43.5158

> <b_lp_Chiralities_Consistent>
1

> <s_lp_Variant>
AV-unprocessed.smi:72-6

> <Gold.Version>
5.8.1

> <Gold.Id.Protein>
6NUR|6NUR_protein|mol2

> <Gold.PLP.Fitness>
36.7096

> <Gold.PLP.PLP>
-22.8133

> <Gold.PLP.part.hbond>
-8.3454

> <Gold.PLP.part.metal>
0.0000

> <Gold.PLP.part.buried>
2.3252

> <Gold.PLP.part.nonpolar>
-16.9157

> <Gold.PLP.part.repulsive>
0.2710

> <Gold.PLP.ligand.clash>
0.0000

> <Gold.PLP.ligand.torsion>
0.0790

> <Gold.PLP.Chemscore.Hbond>
4.6611

> <Gold.PLP.Chemscore.CHOScore>
0.0000

> <Gold.PLP.Chemscore.Metal>
0.0000

> <Gold.Chemscore.Hbonds>
donor molecule, donor type, donor heavy atom, donor atom, acceptor molecule, acceptor atom, score
      L1  H     1    22       P1  8029  0.49
      L1  H    12    27       P1  7949  0.81
      L1  H    17    29       P1  8028  0.88
      P1  H  7989  7998       L1    16  0.29
      P1  H  7997  8009       L1     7  0.52
      P1  H  8011  8017       L1    16  0.09
      P1  H 10752 10765       L1    12  0.88

> <Gold.PLP.Chemscore.Internal.Correction>
0.0709

> <Gold.Rescore>
     Score         DG    S(hbond)    S(metal)    S(lipo)     H(rot)  DE(clash)    DE(int)     intcor
      5.73      -9.09       3.34        0.00      24.29       4.06       3.05       0.30       ----

> <Gold.Chemscore.Fitness>
5.7318

> <Gold.Chemscore.DG>
-9.0876

> <Gold.Chemscore.ZeroCoef>
-5.4800

> <Gold.Chemscore.Hbond>
3.3410

> <Gold.Chemscore.Metal>
0.0000

> <Gold.Chemscore.Lipo>
24.2935

> <Gold.Chemscore.Internal_Hbond>
0.0000

> <Gold.Chemscore.DEClash>
3.0549

> <Gold.Chemscore.DEInternal>
0.3010

> <Gold.Chemscore.Rot>
4.0600

> <Gold.Chemscore.Internal.Correction>
   9.000000E+99

> <Gold.Chemscore.Hbonds>
donor molecule, donor type, donor heavy atom, donor atom, acceptor molecule, acceptor atom, score
      L1  H     1    22       P1  8029  0.02
      L1  H    12    27       P1  7949  0.64
      L1  H    17    29       P1  8028  0.82
      P1  H  7989  7998       L1    16  0.21
      P1  H  7997  8009       L1     7  0.12
      P1  H  8011  8017       L1    16  0.09
      P1  H 10752 10765       L1    12  0.34

> <Gold.Chemscore.Hbond.Weighted>
-11.1589

> <Gold.Chemscore.Metal.Weighted>
-0.0000

> <Gold.Chemscore.Lipo.Weighted>
-2.8423

> <Gold.Chemscore.Internal_Hbond.Weighted>
0.0000

> <Gold.Chemscore.DEClash.Weighted>
3.0549

> <Gold.Chemscore.DEInternal.Weighted>
0.3010

> <Gold.Chemscore.Rot.Weighted>
10.3936

> <Gold.Chemscore.Internal.Correction.Weighted>
   9.000000E+99

> <Gold.Protein.RotatedTorsions>
[ 6907 6896 6895 6894 ] final  172.05 input  -60.11 | X-H torsion
[ 7974 7965 7964 7962 ] final  -84.08 input  175.53 | X-H torsion
[ 8008 7997 7996 7995 ] final -155.04 input   59.86 | X-H torsion
[ 10167 10162 10161 10158 ] final   63.51 input  -65.29 | X-H torsion
[ 10718 10713 10712 10709 ] final  140.64 input   66.30 | X-H torsion
[ 10763 10752 10751 10750 ] final  159.70 input  -60.55 | X-H torsion
[ 11005 11000 10999 10996 ] final -156.83 input  -57.11 | X-H torsion

> <Gold.Protein.ActiveResidues>
 VAL166  LYS551  ARG553  GLY616  TRP617  ASP618  TYR619  PRO620  LYS621  CYS622 
 ASP623  PHE694  ASN695  SER759  ASP760  ASP761  ALA762  ILE779  LEU786  VAL792 
 PHE793  MET794  SER795  GLU796  ALA797  LYS798  CYS799  TRP800  GLU811  SER814 

> <Gold.Protein.RotatedAtoms>
  151.7905  133.3359  159.3497 H   0  0  0  0  0  0  0  0  0  0  0  0  # atno 6907 bound_to 6896
  150.7393  134.5847  159.5966 H   0  0  0  0  0  0  0  0  0  0  0  0  # atno 6908 bound_to 6896
  152.3213  134.7377  160.0364 H   0  0  0  0  0  0  0  0  0  0  0  0  # atno 6909 bound_to 6896
  145.5114  140.9539  143.1705 H   0  0  0  0  0  0  0  0  0  0  0  0  # atno 7974 bound_to 7965
  155.6958  140.0761  157.2430 H   0  0  0  0  0  0  0  0  0  0  0  0  # atno 8008 bound_to 7997
  154.4081  140.1656  156.2189 H   0  0  0  0  0  0  0  0  0  0  0  0  # atno 8009 bound_to 7997
  155.9412  140.3384  155.6332 H   0  0  0  0  0  0  0  0  0  0  0  0  # atno 8010 bound_to 7997
  140.1322  144.4632  150.6858 H   0  0  0  0  0  0  0  0  0  0  0  0  # atno 10167 bound_to 10162
  157.4010  131.1017  151.0551 H   0  0  0  0  0  0  0  0  0  0  0  0  # atno 10718 bound_to 10713
  154.2359  135.2776  155.2872 H   0  0  0  0  0  0  0  0  0  0  0  0  # atno 10763 bound_to 10752
  154.5585  135.5654  153.6989 H   0  0  0  0  0  0  0  0  0  0  0  0  # atno 10764 bound_to 10752
  153.0010  135.6292  154.2502 H   0  0  0  0  0  0  0  0  0  0  0  0  # atno 10765 bound_to 10752
  140.6713  134.4244  157.5231 H   0  0  0  0  0  0  0  0  0  0  0  0  # atno 11005 bound_to 11000
  144.7725  139.6702  143.7188 LP  0  0  0  0  0  0  0  0  0  0  0  0  # atno 17320 bound_to 7965
  146.2164  139.5557  142.9647 LP  0  0  0  0  0  0  0  0  0  0  0  0  # atno 17321 bound_to 7965
  140.6810  143.2327  151.5384 LP  0  0  0  0  0  0  0  0  0  0  0  0  # atno 17342 bound_to 10162
  139.5514  144.2387  152.1536 LP  0  0  0  0  0  0  0  0  0  0  0  0  # atno 17343 bound_to 10162
  157.1550  130.6200  149.5593 LP  0  0  0  0  0  0  0  0  0  0  0  0  # atno 17370 bound_to 10713
  155.9823  130.4836  150.6875 LP  0  0  0  0  0  0  0  0  0  0  0  0  # atno 17371 bound_to 10713
  139.8981  134.8622  156.2017 LP  0  0  0  0  0  0  0  0  0  0  0  0  # atno 17394 bound_to 11000
  141.0390  133.6948  156.1563 LP  0  0  0  0  0  0  0  0  0  0  0  0  # atno 17395 bound_to 11000

$$$$
