AV-unprocessed.smi:1830|AV-procd|sdf|7454|dock3
  -GOLD-   22720 9143D 1   1.00000     0.00000
 Structure written by MMmdl.
 53 56  0  0  0  0  0  0  0  0  2 V2000
  147.1594  137.4157  155.7732 O   0  0  0  0  0  0  0  0  0  0  0  0
  147.6273  137.1767  154.6605 C   0  0  0  0  0  0  0  0  0  0  0  0
  148.9368  137.2096  154.3787 N   0  0  0  0  0  0  0  0  0  0  0  0
  149.9928  137.5768  155.3165 C   0  0  0  0  0  0  0  0  0  0  0  0
  150.8892  138.6929  154.7409 C   0  0  2  0  0  0  0  0  0  0  0  0
  151.9482  139.1936  155.7520 C   0  0  0  0  0  0  0  0  0  0  0  0
  151.3392  140.0475  156.7541 N   0  0  0  0  0  0  0  0  0  0  0  0
  152.2285  140.6611  157.7129 C   0  0  0  0  0  0  0  0  0  0  0  0
  151.3909  141.7872  158.3426 C   0  0  0  0  0  0  0  0  0  0  0  0
  150.2643  142.0473  157.3185 C   0  0  0  0  0  0  0  0  0  0  0  0
  150.6634  141.1574  156.1399 C   0  0  2  0  0  0  0  0  0  0  0  0
  149.5413  140.6629  155.2191 C   0  0  0  0  0  0  0  0  0  0  0  0
  150.1119  139.7917  154.2367 O   0  0  0  0  0  0  0  0  0  0  0  0
  146.9060  136.8348  153.5805 N   0  0  0  0  0  0  0  0  0  0  0  0
  145.4948  136.6709  153.4919 C   0  0  0  0  0  0  0  0  0  0  0  0
  144.6010  137.4751  154.2442 C   0  0  0  0  0  0  0  0  0  0  0  0
  143.2112  137.3061  154.0934 C   0  0  0  0  0  0  0  0  0  0  0  0
  142.7360  136.3439  153.1847 C   0  0  0  0  0  0  0  0  0  0  0  0
  143.6126  135.6050  152.4731 N   0  3  0  0  0  0  0  0  0  0  0  0
  144.9595  135.7240  152.5760 C   0  0  0  0  0  0  0  0  0  0  0  0
  145.7815  134.8803  151.7983 N   0  0  0  0  0  0  0  0  0  0  0  0
  146.6325  133.9876  152.5819 C   0  0  0  0  0  0  0  0  0  0  0  0
  146.6747  132.6545  151.8309 C   0  0  0  0  0  0  0  0  0  0  0  0
  145.3690  132.6548  151.0455 C   0  0  0  0  0  0  0  0  0  0  0  0
  145.2053  134.1295  150.6842 C   0  0  0  0  0  0  0  0  0  0  0  0
  149.2270  136.9912  153.4369 H   0  0  0  0  0  0  0  0  0  0  0  0
  149.5829  137.8567  156.2879 H   0  0  0  0  0  0  0  0  0  0  0  0
  150.5941  136.6848  155.4935 H   0  0  0  0  0  0  0  0  0  0  0  0
  151.4233  138.2723  153.8880 H   0  0  0  0  0  0  0  0  0  0  0  0
  152.4507  138.3513  156.2287 H   0  0  0  0  0  0  0  0  0  0  0  0
  152.7175  139.7521  155.2165 H   0  0  0  0  0  0  0  0  0  0  0  0
  152.5850  139.9407  158.4492 H   0  0  0  0  0  0  0  0  0  0  0  0
  153.0963  141.0846  157.2046 H   0  0  0  0  0  0  0  0  0  0  0  0
  150.9689  141.4730  159.2979 H   0  0  0  0  0  0  0  0  0  0  0  0
  151.9970  142.6762  158.5195 H   0  0  0  0  0  0  0  0  0  0  0  0
  149.3035  141.7358  157.7307 H   0  0  0  0  0  0  0  0  0  0  0  0
  150.1877  143.0970  157.0341 H   0  0  0  0  0  0  0  0  0  0  0  0
  151.3798  141.7140  155.5316 H   0  0  0  0  0  0  0  0  0  0  0  0
  148.7711  140.1441  155.7896 H   0  0  0  0  0  0  0  0  0  0  0  0
  149.0580  141.5006  154.7166 H   0  0  0  0  0  0  0  0  0  0  0  0
  147.4298  136.5733  152.7580 H   0  0  0  0  0  0  0  0  0  0  0  0
  144.9604  138.2327  154.9240 H   0  0  0  0  0  0  0  0  0  0  0  0
  142.5208  137.9114  154.6625 H   0  0  0  0  0  0  0  0  0  0  0  0
  141.6894  136.1464  153.0035 H   0  0  0  0  0  0  0  0  0  0  0  0
  147.6328  134.4032  152.7030 H   0  0  0  0  0  0  0  0  0  0  0  0
  146.2095  133.8411  153.5773 H   0  0  0  0  0  0  0  0  0  0  0  0
  147.5187  132.6460  151.1399 H   0  0  0  0  0  0  0  0  0  0  0  0
  146.7748  131.7962  152.4954 H   0  0  0  0  0  0  0  0  0  0  0  0
  145.3940  132.0027  150.1721 H   0  0  0  0  0  0  0  0  0  0  0  0
  144.5478  132.3338  151.6879 H   0  0  0  0  0  0  0  0  0  0  0  0
  144.1696  134.3774  150.4531 H   0  0  0  0  0  0  0  0  0  0  0  0
  145.7898  134.3596  149.7926 H   0  0  0  0  0  0  0  0  0  0  0  0
  143.2385  134.9139  151.8226 H   0  0  0  0  0  0  0  0  0  0  0  0
  1  2  2  0  0  0  0
  2  3  1  0  0  0  0
  2 14  1  0  0  0  0
  3  4  1  0  0  0  0
  3 26  1  0  0  0  0
  4  5  1  0  0  0  0
  4 27  1  0  0  0  0
  4 28  1  0  0  0  0
  5 13  1  0  0  0  0
  5  6  1  0  0  0  0
  5 29  1  0  0  0  0
  6  7  1  0  0  0  0
  6 30  1  0  0  0  0
  6 31  1  0  0  0  0
  7 11  1  0  0  0  0
  7  8  1  0  0  0  0
  8  9  1  0  0  0  0
  8 32  1  0  0  0  0
  8 33  1  0  0  0  0
  9 10  1  0  0  0  0
  9 34  1  0  0  0  0
  9 35  1  0  0  0  0
 10 11  1  0  0  0  0
 10 36  1  0  0  0  0
 10 37  1  0  0  0  0
 11 12  1  0  0  0  0
 11 38  1  0  0  0  0
 12 13  1  0  0  0  0
 12 39  1  0  0  0  0
 12 40  1  0  0  0  0
 14 15  1  0  0  0  0
 14 41  1  0  0  0  0
 15 20  1  0  0  0  0
 15 16  2  0  0  0  0
 16 17  1  0  0  0  0
 16 42  1  0  0  0  0
 17 18  2  0  0  0  0
 17 43  1  0  0  0  0
 18 19  1  0  0  0  0
 18 44  1  0  0  0  0
 19 20  2  0  0  0  0
 19 53  1  0  0  0  0
 20 21  1  0  0  0  0
 21 25  1  0  0  0  0
 21 22  1  0  0  0  0
 22 23  1  0  0  0  0
 22 45  1  0  0  0  0
 22 46  1  0  0  0  0
 23 24  1  0  0  0  0
 23 47  1  0  0  0  0
 23 48  1  0  0  0  0
 24 25  1  0  0  0  0
 24 49  1  0  0  0  0
 24 50  1  0  0  0  0
 25 51  1  0  0  0  0
 25 52  1  0  0  0  0
M  CHG  1  19   1
M  END
> <s_m_source_file>
AV-unprocessed.smi

> <i_m_source_file_index>
1830

> <i_lp_mmshare_version>
43012

> <i_f3d_flags>
0

> <s_epik_input>
W0NIMl0xW0NIMl1bQ0gyXVtDQEhdKE4xMilbQ0gyXU9bQ0BASF0oW0NIMl0yKVtDSDJdW05IXUMoPU8pW05IXWMzW2NIXVtjSF1bY0hdbmMzTjRbQ0gyXVtDSDJdW0NIMl1bQ0gyXTQ=

> <s_epik_cmdline>
J2VwaWtfcHl0aG9uJywgJy1waCcsICc3LjAnLCAnLXRuJywgJzgnLCAnLW1hJywgJzIwMCcsICctbWV0YWxfYmluZGluZycsICctaW1hZScsICc8aW5maWxlLm1hZT4nLCAnLW9tYWUnLCAnPG91dGZpbGUubWFlPic=

> <r_epik_Ionization_Penalty>
2.19264

> <r_epik_Ionization_Penalty_Charging>
1.12452

> <r_epik_Ionization_Penalty_Neutral>
1.06812

> <r_epik_State_Penalty>
2.334

> <r_epik_Charging_Adjusted_Penalty>
3.45852

> <i_epik_Tot_Q>
1

> <i_epik_Tot_abs_Q>
1

> <r_epik_Metal_State_Penalty>
2.41144

> <b_epik_Metal_Only>
0

> <s_lp_Force_Field>
OPLS_2005

> <r_lp_Energy>
83.5645

> <b_lp_Chiralities_Consistent>
1

> <s_lp_Variant>
AV-unprocessed.smi:1830-23

> <Gold.Version>
5.8.1

> <Gold.Id.Protein>
6NUR|6NUR_protein|mol2

> <Gold.PLP.Fitness>
43.4624

> <Gold.PLP.PLP>
-35.1727

> <Gold.PLP.part.hbond>
-3.0000

> <Gold.PLP.part.metal>
0.0000

> <Gold.PLP.part.buried>
-4.9274

> <Gold.PLP.part.nonpolar>
-27.9369

> <Gold.PLP.part.repulsive>
1.1845

> <Gold.PLP.ligand.clash>
0.0000

> <Gold.PLP.ligand.torsion>
0.4361

> <Gold.PLP.Chemscore.Hbond>
3.0000

> <Gold.PLP.Chemscore.CHOScore>
0.0000

> <Gold.PLP.Chemscore.Metal>
0.0000

> <Gold.Chemscore.Hbonds>
donor molecule, donor type, donor heavy atom, donor atom, acceptor molecule, acceptor atom, score
      L1  H     3    26       P1  7948  1.00
      L1  H    14    41       P1  7948  1.00
      P1  H  7989  7998       L1    13  0.90

> <Gold.PLP.Chemscore.Internal.Correction>
0.1619

> <Gold.Rescore>
     Score         DG    S(hbond)    S(metal)    S(lipo)     H(rot)  DE(clash)    DE(int)     intcor
     17.39     -19.10       2.11        0.00      86.58       1.40       0.08       1.63       ----

> <Gold.Chemscore.Fitness>
17.3868

> <Gold.Chemscore.DG>
-19.0961

> <Gold.Chemscore.ZeroCoef>
-5.4800

> <Gold.Chemscore.Hbond>
2.1136

> <Gold.Chemscore.Metal>
0.0000

> <Gold.Chemscore.Lipo>
86.5836

> <Gold.Chemscore.Internal_Hbond>
0.0000

> <Gold.Chemscore.DEClash>
0.0786

> <Gold.Chemscore.DEInternal>
1.6307

> <Gold.Chemscore.Rot>
1.3959

> <Gold.Chemscore.Internal.Correction>
   9.000000E+99

> <Gold.Chemscore.Hbonds>
donor molecule, donor type, donor heavy atom, donor atom, acceptor molecule, acceptor atom, score
      L1  H     3    26       P1  7948  0.95
      L1  H    14    41       P1  7948  0.98
      P1  H  7989  7998       L1    13  0.08

> <Gold.Chemscore.Hbond.Weighted>
-7.0594

> <Gold.Chemscore.Metal.Weighted>
-0.0000

> <Gold.Chemscore.Lipo.Weighted>
-10.1303

> <Gold.Chemscore.Internal_Hbond.Weighted>
0.0000

> <Gold.Chemscore.DEClash.Weighted>
0.0786

> <Gold.Chemscore.DEInternal.Weighted>
1.6307

> <Gold.Chemscore.Rot.Weighted>
3.5736

> <Gold.Chemscore.Internal.Correction.Weighted>
   9.000000E+99

> <Gold.Protein.RotatedTorsions>
[ 6907 6896 6895 6894 ] final  -55.22 input  -60.11 | X-H torsion
[ 7974 7965 7964 7962 ] final  -84.17 input  175.53 | X-H torsion
[ 8008 7997 7996 7995 ] final    3.12 input   59.86 | X-H torsion
[ 10167 10162 10161 10158 ] final   57.95 input  -65.29 | X-H torsion
[ 10718 10713 10712 10709 ] final -120.31 input   66.30 | X-H torsion
[ 10763 10752 10751 10750 ] final  -80.85 input  -60.55 | X-H torsion
[ 11005 11000 10999 10996 ] final   12.18 input  -57.11 | X-H torsion

> <Gold.Protein.ActiveResidues>
 VAL166  LYS551  ARG553  GLY616  TRP617  ASP618  TYR619  PRO620  LYS621  CYS622 
 ASP623  PHE694  ASN695  SER759  ASP760  ASP761  ALA762  ILE779  LEU786  VAL792 
 PHE793  MET794  SER795  GLU796  ALA797  LYS798  CYS799  TRP800  GLU811  SER814 

> <Gold.Protein.RotatedAtoms>
  150.8271  134.7506  159.6821 H   0  0  0  0  0  0  0  0  0  0  0  0  # atno 6907 bound_to 6896
  152.4380  134.5644  159.9913 H   0  0  0  0  0  0  0  0  0  0  0  0  # atno 6908 bound_to 6896
  151.5814  133.3340  159.3045 H   0  0  0  0  0  0  0  0  0  0  0  0  # atno 6909 bound_to 6896
  145.5102  140.9540  143.1711 H   0  0  0  0  0  0  0  0  0  0  0  0  # atno 7974 bound_to 7965
  154.6998  140.2670  155.6731 H   0  0  0  0  0  0  0  0  0  0  0  0  # atno 8008 bound_to 7997
  156.2761  140.2774  156.1528 H   0  0  0  0  0  0  0  0  0  0  0  0  # atno 8009 bound_to 7997
  155.0781  140.0372  157.2620 H   0  0  0  0  0  0  0  0  0  0  0  0  # atno 8010 bound_to 7997
  140.1924  144.4072  150.6565 H   0  0  0  0  0  0  0  0  0  0  0  0  # atno 10167 bound_to 10162
  156.1248  130.6351  150.9525 H   0  0  0  0  0  0  0  0  0  0  0  0  # atno 10718 bound_to 10713
  154.5564  135.5646  153.6967 H   0  0  0  0  0  0  0  0  0  0  0  0  # atno 10763 bound_to 10752
  153.0004  135.6263  154.2305 H   0  0  0  0  0  0  0  0  0  0  0  0  # atno 10764 bound_to 10752
  154.2241  135.2868  155.2894 H   0  0  0  0  0  0  0  0  0  0  0  0  # atno 10765 bound_to 10752
  140.4948  134.0804  155.7779 H   0  0  0  0  0  0  0  0  0  0  0  0  # atno 11005 bound_to 11000
  144.7731  139.6689  143.7186 LP  0  0  0  0  0  0  0  0  0  0  0  0  # atno 17320 bound_to 7965
  146.2171  139.5569  142.9643 LP  0  0  0  0  0  0  0  0  0  0  0  0  # atno 17321 bound_to 7965
  140.6446  143.2211  151.6213 LP  0  0  0  0  0  0  0  0  0  0  0  0  # atno 17342 bound_to 10162
  139.5250  144.3086  152.1012 LP  0  0  0  0  0  0  0  0  0  0  0  0  # atno 17343 bound_to 10162
  157.6430  131.0908  150.8211 LP  0  0  0  0  0  0  0  0  0  0  0  0  # atno 17370 bound_to 10713
  156.8303  130.5013  149.5332 LP  0  0  0  0  0  0  0  0  0  0  0  0  # atno 17371 bound_to 10713
  141.1466  133.9045  157.2201 LP  0  0  0  0  0  0  0  0  0  0  0  0  # atno 17394 bound_to 11000
  139.9748  135.0117  156.9602 LP  0  0  0  0  0  0  0  0  0  0  0  0  # atno 17395 bound_to 11000

$$$$
