AV-unprocessed.smi:1843|AV-procd|sdf|7502|dock1
  -GOLD-   22720 9203D 1   1.00000     0.00000
 Structure written by MMmdl.
 37 39  0  0  0  0  0  0  0  0  1 V2000
  145.5839  128.7745  152.3254 O   0  0  0  0  0  0  0  0  0  0  0  0
  146.6278  129.2072  151.8368 C   0  0  0  0  0  0  0  0  0  0  0  0
  147.7102  128.4693  151.5341 N   0  0  0  0  0  0  0  0  0  0  0  0
  147.8951  127.0707  151.6969 C   0  0  0  0  0  0  0  0  0  0  0  0
  147.6364  126.4126  152.8352 N   0  0  0  0  0  0  0  0  0  0  0  0
  147.9035  125.0555  152.7209 N   0  0  0  0  0  0  0  0  0  0  0  0
  148.3536  124.7267  151.5042 C   0  0  0  0  0  0  0  0  0  0  0  0
  148.7067  123.3236  151.1383 C   0  0  0  0  0  0  0  0  0  0  0  0
  148.0624  122.6256  149.9603 C   0  0  0  0  0  0  0  0  0  0  0  0
  147.7266  122.1956  151.3654 C   0  0  0  0  0  0  0  0  0  0  0  0
  148.4946  126.0756  150.3813 S   0  0  0  0  0  0  0  0  0  0  0  0
  146.8232  130.4999  151.5383 N   0  0  0  0  0  0  0  0  0  0  0  0
  145.8447  131.5683  151.7330 C   0  0  2  0  0  0  0  0  0  0  0  0
  144.5896  131.3119  150.8767 C   0  0  0  0  0  0  0  0  0  0  0  0
  143.5423  132.4179  151.0839 C   0  0  0  0  0  0  0  0  0  0  0  0
  144.1303  133.8074  150.7911 C   0  0  0  0  0  0  0  0  0  0  0  0
  145.3953  134.0733  151.6280 C   0  0  0  0  0  0  0  0  0  0  0  0
  146.4528  132.9653  151.4557 C   0  0  2  0  0  0  0  0  0  0  0  0
  146.9839  133.0336  150.1449 O   0  0  0  0  0  0  0  0  0  0  0  0
  148.4938  128.9653  151.1359 H   0  0  0  0  0  0  0  0  0  0  0  0
  149.7605  123.1302  151.3292 H   0  0  0  0  0  0  0  0  0  0  0  0
  147.2904  123.1550  149.4055 H   0  0  0  0  0  0  0  0  0  0  0  0
  148.6886  121.9616  149.3680 H   0  0  0  0  0  0  0  0  0  0  0  0
  148.1272  121.2447  151.7108 H   0  0  0  0  0  0  0  0  0  0  0  0
  146.7398  122.4519  151.7459 H   0  0  0  0  0  0  0  0  0  0  0  0
  147.7117  130.7683  151.1415 H   0  0  0  0  0  0  0  0  0  0  0  0
  145.5279  131.5425  152.7778 H   0  0  0  0  0  0  0  0  0  0  0  0
  144.8592  131.2575  149.8211 H   0  0  0  0  0  0  0  0  0  0  0  0
  144.1539  130.3456  151.1333 H   0  0  0  0  0  0  0  0  0  0  0  0
  142.6796  132.2370  150.4421 H   0  0  0  0  0  0  0  0  0  0  0  0
  143.1760  132.3854  152.1108 H   0  0  0  0  0  0  0  0  0  0  0  0
  144.3680  133.8860  149.7297 H   0  0  0  0  0  0  0  0  0  0  0  0
  143.3843  134.5758  150.9951 H   0  0  0  0  0  0  0  0  0  0  0  0
  145.8188  135.0443  151.3684 H   0  0  0  0  0  0  0  0  0  0  0  0
  145.1161  134.1369  152.6806 H   0  0  0  0  0  0  0  0  0  0  0  0
  147.2744  133.1532  152.1481 H   0  0  0  0  0  0  0  0  0  0  0  0
  147.7711  132.5117  150.1157 H   0  0  0  0  0  0  0  0  0  0  0  0
  1  2  2  0  0  0  0
  2  3  1  0  0  0  0
  2 12  1  0  0  0  0
  3  4  1  0  0  0  0
  3 20  1  0  0  0  0
  4 11  1  0  0  0  0
  4  5  2  0  0  0  0
  5  6  1  0  0  0  0
  6  7  2  0  0  0  0
  7  8  1  0  0  0  0
  7 11  1  0  0  0  0
  8 10  1  0  0  0  0
  8  9  1  0  0  0  0
  8 21  1  0  0  0  0
  9 10  1  0  0  0  0
  9 22  1  0  0  0  0
  9 23  1  0  0  0  0
 10 24  1  0  0  0  0
 10 25  1  0  0  0  0
 12 13  1  0  0  0  0
 12 26  1  0  0  0  0
 13 18  1  0  0  0  0
 13 14  1  0  0  0  0
 13 27  1  0  0  0  0
 14 15  1  0  0  0  0
 14 28  1  0  0  0  0
 14 29  1  0  0  0  0
 15 16  1  0  0  0  0
 15 30  1  0  0  0  0
 15 31  1  0  0  0  0
 16 17  1  0  0  0  0
 16 32  1  0  0  0  0
 16 33  1  0  0  0  0
 17 18  1  0  0  0  0
 17 34  1  0  0  0  0
 17 35  1  0  0  0  0
 18 19  1  0  0  0  0
 18 36  1  0  0  0  0
 19 37  1  0  0  0  0
M  END
> <s_m_source_file>
AV-unprocessed.smi

> <i_m_source_file_index>
1843

> <i_lp_mmshare_version>
43012

> <i_f3d_flags>
0

> <s_epik_input>
W09IXVtDQEBIXTFbQ0gyXVtDSDJdW0NIMl1bQ0gyXVtDQEhdMVtOSF1DKD1PKVtOSF1jMm5uYyhzMilbQ0hdM1tDSDJdW0NIMl0z

> <s_epik_cmdline>
J2VwaWtfcHl0aG9uJywgJy1waCcsICc3LjAnLCAnLXRuJywgJzgnLCAnLW1hJywgJzIwMCcsICctbWV0YWxfYmluZGluZycsICctaW1hZScsICc8aW5maWxlLm1hZT4nLCAnLW9tYWUnLCAnPG91dGZpbGUubWFlPic=

> <r_lp_tautomer_probability>
1

> <r_epik_Ionization_Penalty>
0.000257313

> <r_epik_Ionization_Penalty_Charging>
0

> <r_epik_Ionization_Penalty_Neutral>
0.000257313

> <r_epik_State_Penalty>
-0

> <r_epik_Charging_Adjusted_Penalty>
0

> <i_epik_Tot_Q>
0

> <i_epik_Tot_abs_Q>
0

> <r_epik_Metal_State_Penalty>
0.147479

> <b_epik_Metal_Only>
0

> <s_lp_Force_Field>
OPLS_2005

> <r_lp_Energy>
10.7354

> <b_lp_Chiralities_Consistent>
1

> <s_lp_Variant>
AV-unprocessed.smi:1843-3

> <Gold.Version>
5.8.1

> <Gold.Id.Protein>
6NUR|6NUR_protein|mol2

> <Gold.PLP.Fitness>
43.4637

> <Gold.PLP.PLP>
-37.2625

> <Gold.PLP.part.hbond>
-6.1897

> <Gold.PLP.part.metal>
0.0000

> <Gold.PLP.part.buried>
-4.5255

> <Gold.PLP.part.nonpolar>
-27.2172

> <Gold.PLP.part.repulsive>
0.2728

> <Gold.PLP.ligand.clash>
0.0000

> <Gold.PLP.ligand.torsion>
0.5372

> <Gold.PLP.Chemscore.Hbond>
2.3771

> <Gold.PLP.Chemscore.CHOScore>
0.0000

> <Gold.PLP.Chemscore.Metal>
0.0000

> <Gold.Chemscore.Hbonds>
donor molecule, donor type, donor heavy atom, donor atom, acceptor molecule, acceptor atom, score
      L1  H     3    20       P1 10747  0.39
      L1  H    12    26       P1 10747  1.00
      L1  H    19    37       P1 10747  0.99

> <Gold.PLP.Chemscore.Internal.Correction>
0.1443

> <Gold.Rescore>
     Score         DG    S(hbond)    S(metal)    S(lipo)     H(rot)  DE(clash)    DE(int)     intcor
     14.59     -15.55       2.00        0.00      67.09       1.74       0.40       0.56       ----

> <Gold.Chemscore.Fitness>
14.5905

> <Gold.Chemscore.DG>
-15.5518

> <Gold.Chemscore.ZeroCoef>
-5.4800

> <Gold.Chemscore.Hbond>
1.9993

> <Gold.Chemscore.Metal>
0.0000

> <Gold.Chemscore.Lipo>
67.0906

> <Gold.Chemscore.Internal_Hbond>
0.0000

> <Gold.Chemscore.DEClash>
0.4030

> <Gold.Chemscore.DEInternal>
0.5583

> <Gold.Chemscore.Rot>
1.7404

> <Gold.Chemscore.Internal.Correction>
   9.000000E+99

> <Gold.Chemscore.Hbonds>
donor molecule, donor type, donor heavy atom, donor atom, acceptor molecule, acceptor atom, score
      L1  H     3    20       P1 10747  0.02
      L1  H    12    26       P1 10747  0.93
      L1  H    19    37       P1 10747  0.92

> <Gold.Chemscore.Hbond.Weighted>
-6.6776

> <Gold.Chemscore.Metal.Weighted>
-0.0000

> <Gold.Chemscore.Lipo.Weighted>
-7.8496

> <Gold.Chemscore.Internal_Hbond.Weighted>
0.0000

> <Gold.Chemscore.DEClash.Weighted>
0.4030

> <Gold.Chemscore.DEInternal.Weighted>
0.5583

> <Gold.Chemscore.Rot.Weighted>
4.4555

> <Gold.Chemscore.Internal.Correction.Weighted>
   9.000000E+99

> <Gold.Protein.RotatedTorsions>
[ 6907 6896 6895 6894 ] final  119.49 input  -60.11 | X-H torsion
[ 7974 7965 7964 7962 ] final -168.39 input  175.53 | X-H torsion
[ 8008 7997 7996 7995 ] final   19.35 input   59.86 | X-H torsion
[ 10167 10162 10161 10158 ] final  113.31 input  -65.29 | X-H torsion
[ 10718 10713 10712 10709 ] final  -21.54 input   66.30 | X-H torsion
[ 10763 10752 10751 10750 ] final   -1.28 input  -60.55 | X-H torsion
[ 11005 11000 10999 10996 ] final  133.80 input  -57.11 | X-H torsion

> <Gold.Protein.ActiveResidues>
 VAL166  LYS551  ARG553  GLY616  TRP617  ASP618  TYR619  PRO620  LYS621  CYS622 
 ASP623  PHE694  ASN695  SER759  ASP760  ASP761  ALA762  ILE779  LEU786  VAL792 
 PHE793  MET794  SER795  GLU796  ALA797  LYS798  CYS799  TRP800  GLU811  SER814 

> <Gold.Protein.RotatedAtoms>
  152.4468  133.7551  159.6715 H   0  0  0  0  0  0  0  0  0  0  0  0  # atno 6907 bound_to 6896
  150.8369  133.7988  159.3082 H   0  0  0  0  0  0  0  0  0  0  0  0  # atno 6908 bound_to 6896
  151.5625  135.1067  160.0028 H   0  0  0  0  0  0  0  0  0  0  0  0  # atno 6909 bound_to 6896
  144.7204  140.2377  143.6295 H   0  0  0  0  0  0  0  0  0  0  0  0  # atno 7974 bound_to 7965
  154.9194  140.3025  155.5224 H   0  0  0  0  0  0  0  0  0  0  0  0  # atno 8008 bound_to 7997
  156.3010  140.2374  156.4178 H   0  0  0  0  0  0  0  0  0  0  0  0  # atno 8009 bound_to 7997
  154.8346  140.0417  157.1489 H   0  0  0  0  0  0  0  0  0  0  0  0  # atno 8010 bound_to 7997
  139.6471  144.7127  151.2122 H   0  0  0  0  0  0  0  0  0  0  0  0  # atno 10167 bound_to 10162
  156.5167  130.4623  149.6619 H   0  0  0  0  0  0  0  0  0  0  0  0  # atno 10718 bound_to 10713
  153.3428  135.6981  153.6853 H   0  0  0  0  0  0  0  0  0  0  0  0  # atno 10763 bound_to 10752
  153.5611  135.3535  155.2800 H   0  0  0  0  0  0  0  0  0  0  0  0  # atno 10764 bound_to 10752
  154.8639  135.4249  154.2645 H   0  0  0  0  0  0  0  0  0  0  0  0  # atno 10765 bound_to 10752
  139.9874  134.9527  156.9776 H   0  0  0  0  0  0  0  0  0  0  0  0  # atno 11005 bound_to 11000
  145.8349  139.2103  143.1861 LP  0  0  0  0  0  0  0  0  0  0  0  0  # atno 17320 bound_to 7965
  146.0398  140.8176  142.9834 LP  0  0  0  0  0  0  0  0  0  0  0  0  # atno 17321 bound_to 7965
  140.7520  143.6213  150.8510 LP  0  0  0  0  0  0  0  0  0  0  0  0  # atno 17342 bound_to 10162
  139.9857  143.5902  152.2928 LP  0  0  0  0  0  0  0  0  0  0  0  0  # atno 17343 bound_to 10162
  156.3188  130.7269  151.2177 LP  0  0  0  0  0  0  0  0  0  0  0  0  # atno 17370 bound_to 10713
  157.7443  131.0461  150.4877 LP  0  0  0  0  0  0  0  0  0  0  0  0  # atno 17371 bound_to 10713
  140.4975  134.1131  155.7244 LP  0  0  0  0  0  0  0  0  0  0  0  0  # atno 17394 bound_to 11000
  141.1537  133.8922  157.2033 LP  0  0  0  0  0  0  0  0  0  0  0  0  # atno 17395 bound_to 11000

$$$$
