AV-unprocessed.smi:1149|AV-procd|sdf|4891|dock8
  -GOLD-   22720 3463D 1   1.00000     0.00000
 Structure written by MMmdl.
 51 52  0  0  0  0  0  0  0  0  2 V2000
  153.5649  141.8612  161.2850 C   0  0  0  0  0  0  0  0  0  0  0  0
  153.3474  142.9559  160.4015 O   0  0  0  0  0  0  0  0  0  0  0  0
  152.5191  142.7652  159.3145 C   0  0  0  0  0  0  0  0  0  0  0  0
  152.2577  143.8587  158.4652 C   0  0  0  0  0  0  0  0  0  0  0  0
  151.4134  143.6725  157.3540 C   0  0  0  0  0  0  0  0  0  0  0  0
  150.8617  142.3898  157.1212 C   0  0  0  0  0  0  0  0  0  0  0  0
  149.9839  142.0733  156.0489 N   0  0  0  0  0  0  0  0  0  0  0  0
  149.7794  140.8867  155.4516 C   0  0  0  0  0  0  0  0  0  0  0  0
  150.3242  139.8278  155.7613 O   0  0  0  0  0  0  0  0  0  0  0  0
  148.8693  140.9895  154.4719 N   0  0  0  0  0  0  0  0  0  0  0  0
  148.4028  139.8918  153.6250 C   0  0  0  0  0  0  0  0  0  0  0  0
  147.3338  138.9887  154.3121 C   0  0  0  0  0  0  0  0  0  0  0  0
  147.8558  138.4731  155.6772 C   0  0  0  0  0  0  0  0  0  0  0  0
  146.0699  139.8274  154.6276 C   0  0  0  0  0  0  0  0  0  0  0  0
  146.9614  137.8177  153.4379 N   0  3  0  0  0  0  0  0  0  0  0  0
  146.2694  138.1529  152.1600 C   0  0  0  0  0  0  0  0  0  0  0  0
  146.1460  136.9053  151.2604 C   0  0  0  0  0  0  0  0  0  0  0  0
  145.4366  135.8116  151.9227 N   0  0  0  0  0  0  0  0  0  0  0  0
  144.0076  136.0637  152.0756 C   0  0  0  0  0  0  0  0  0  0  0  0
  146.1049  135.4850  153.1820 C   0  0  0  0  0  0  0  0  0  0  0  0
  146.2282  136.7089  154.1138 C   0  0  0  0  0  0  0  0  0  0  0  0
  151.1757  141.3655  158.0384 C   0  0  0  0  0  0  0  0  0  0  0  0
  151.9837  141.5373  159.1053 N   0  0  0  0  0  0  0  0  0  0  0  0
  154.2405  142.1701  162.0825 H   0  0  0  0  0  0  0  0  0  0  0  0
  154.0259  141.0174  160.7697 H   0  0  0  0  0  0  0  0  0  0  0  0
  152.6339  141.5326  161.7492 H   0  0  0  0  0  0  0  0  0  0  0  0
  152.6937  144.8263  158.6654 H   0  0  0  0  0  0  0  0  0  0  0  0
  151.1993  144.5167  156.7177 H   0  0  0  0  0  0  0  0  0  0  0  0
  149.4037  142.8356  155.7306 H   0  0  0  0  0  0  0  0  0  0  0  0
  148.4701  141.8996  154.2936 H   0  0  0  0  0  0  0  0  0  0  0  0
  147.9894  140.3574  152.7309 H   0  0  0  0  0  0  0  0  0  0  0  0
  149.2543  139.3021  153.2845 H   0  0  0  0  0  0  0  0  0  0  0  0
  147.9302  139.2748  156.4126 H   0  0  0  0  0  0  0  0  0  0  0  0
  148.8534  138.0405  155.6030 H   0  0  0  0  0  0  0  0  0  0  0  0
  147.1909  137.7183  156.0988 H   0  0  0  0  0  0  0  0  0  0  0  0
  146.2590  140.5615  155.4119 H   0  0  0  0  0  0  0  0  0  0  0  0
  145.2495  139.1968  154.9723 H   0  0  0  0  0  0  0  0  0  0  0  0
  145.7197  140.3934  153.7648 H   0  0  0  0  0  0  0  0  0  0  0  0
  145.2874  138.5835  152.3531 H   0  0  0  0  0  0  0  0  0  0  0  0
  146.8269  138.8957  151.5934 H   0  0  0  0  0  0  0  0  0  0  0  0
  145.6388  137.1572  150.3284 H   0  0  0  0  0  0  0  0  0  0  0  0
  147.1418  136.5561  150.9835 H   0  0  0  0  0  0  0  0  0  0  0  0
  143.5179  135.1976  152.5217 H   0  0  0  0  0  0  0  0  0  0  0  0
  143.5495  136.2356  151.1009 H   0  0  0  0  0  0  0  0  0  0  0  0
  143.7973  136.9290  152.7029 H   0  0  0  0  0  0  0  0  0  0  0  0
  145.5661  134.6792  153.6820 H   0  0  0  0  0  0  0  0  0  0  0  0
  147.0990  135.0963  152.9570 H   0  0  0  0  0  0  0  0  0  0  0  0
  146.7540  136.3791  155.0074 H   0  0  0  0  0  0  0  0  0  0  0  0
  145.2415  137.0383  154.4380 H   0  0  0  0  0  0  0  0  0  0  0  0
  150.7695  140.3727  157.9111 H   0  0  0  0  0  0  0  0  0  0  0  0
  147.8454  137.4168  153.1584 H   0  0  0  0  0  0  0  0  0  0  0  0
  1  2  1  0  0  0  0
  1 24  1  0  0  0  0
  1 25  1  0  0  0  0
  1 26  1  0  0  0  0
  2  3  1  0  0  0  0
  3 23  1  0  0  0  0
  3  4  2  0  0  0  0
  4  5  1  0  0  0  0
  4 27  1  0  0  0  0
  5  6  2  0  0  0  0
  5 28  1  0  0  0  0
  6  7  1  0  0  0  0
  6 22  1  0  0  0  0
  7  8  1  0  0  0  0
  7 29  1  0  0  0  0
  8  9  2  0  0  0  0
  8 10  1  0  0  0  0
 10 11  1  0  0  0  0
 10 30  1  0  0  0  0
 11 12  1  0  0  0  0
 11 31  1  0  0  0  0
 11 32  1  0  0  0  0
 12 13  1  0  0  0  0
 12 14  1  0  0  0  0
 12 15  1  0  0  0  0
 13 33  1  0  0  0  0
 13 34  1  0  0  0  0
 13 35  1  0  0  0  0
 14 36  1  0  0  0  0
 14 37  1  0  0  0  0
 14 38  1  0  0  0  0
 15 21  1  0  0  0  0
 15 16  1  0  0  0  0
 15 51  1  0  0  0  0
 16 17  1  0  0  0  0
 16 39  1  0  0  0  0
 16 40  1  0  0  0  0
 17 18  1  0  0  0  0
 17 41  1  0  0  0  0
 17 42  1  0  0  0  0
 18 19  1  0  0  0  0
 18 20  1  0  0  0  0
 19 43  1  0  0  0  0
 19 44  1  0  0  0  0
 19 45  1  0  0  0  0
 20 21  1  0  0  0  0
 20 46  1  0  0  0  0
 20 47  1  0  0  0  0
 21 48  1  0  0  0  0
 21 49  1  0  0  0  0
 22 23  2  0  0  0  0
 22 50  1  0  0  0  0
M  CHG  1  15   1
M  END
> <s_m_source_file>
AV-unprocessed.smi

> <i_m_source_file_index>
1149

> <i_lp_mmshare_version>
43012

> <i_f3d_flags>
0

> <s_epik_input>
W0NIM11PYzFbY0hdW2NIXWMoW2NIXW4xKVtOSF1DKD1PKVtOSF1bQ0gyXUMoW0NIM10pKFtDSDNdKU4yW0NIMl1bQ0gyXU4oW0NIM10pW0NIMl1bQ0gyXTI=

> <s_epik_cmdline>
J2VwaWtfcHl0aG9uJywgJy1waCcsICc3LjAnLCAnLXRuJywgJzgnLCAnLW1hJywgJzIwMCcsICctbWV0YWxfYmluZGluZycsICctaW1hZScsICc8aW5maWxlLm1hZT4nLCAnLW9tYWUnLCAnPG91dGZpbGUubWFlPic=

> <r_epik_Ionization_Penalty>
0.0907124

> <r_epik_Ionization_Penalty_Charging>
0.0886444

> <r_epik_Ionization_Penalty_Neutral>
0.00206799

> <r_epik_State_Penalty>
1.00524

> <r_epik_Charging_Adjusted_Penalty>
1.09388

> <i_epik_Tot_Q>
1

> <i_epik_Tot_abs_Q>
1

> <r_epik_Metal_State_Penalty>
1.00525

> <b_epik_Metal_Only>
0

> <s_lp_Force_Field>
OPLS_2005

> <r_lp_Energy>
30.5246

> <b_lp_Chiralities_Consistent>
1

> <s_lp_Variant>
AV-unprocessed.smi:1149-2

> <Gold.Version>
5.8.1

> <Gold.Id.Protein>
6NUR|6NUR_protein|mol2

> <Gold.PLP.Fitness>
41.5339

> <Gold.PLP.PLP>
-33.4760

> <Gold.PLP.part.hbond>
-2.0000

> <Gold.PLP.part.metal>
0.0000

> <Gold.PLP.part.buried>
1.2664

> <Gold.PLP.part.nonpolar>
-34.3127

> <Gold.PLP.part.repulsive>
0.4502

> <Gold.PLP.ligand.clash>
0.0000

> <Gold.PLP.ligand.torsion>
0.5193

> <Gold.PLP.Chemscore.Hbond>
3.0000

> <Gold.PLP.Chemscore.CHOScore>
0.0000

> <Gold.PLP.Chemscore.Metal>
0.0000

> <Gold.Chemscore.Hbonds>
donor molecule, donor type, donor heavy atom, donor atom, acceptor molecule, acceptor atom, score
      L1  H     7    29       P1  8028  1.00
      L1  H    15    51       P1  7948  1.79

> <Gold.PLP.Chemscore.Internal.Correction>
0.0965

> <Gold.Rescore>
     Score         DG    S(hbond)    S(metal)    S(lipo)     H(rot)  DE(clash)    DE(int)     intcor
     12.60     -17.60       1.85        0.00      88.45       1.72       1.91       3.09       ----

> <Gold.Chemscore.Fitness>
12.6006

> <Gold.Chemscore.DG>
-17.5982

> <Gold.Chemscore.ZeroCoef>
-5.4800

> <Gold.Chemscore.Hbond>
1.8491

> <Gold.Chemscore.Metal>
0.0000

> <Gold.Chemscore.Lipo>
88.4517

> <Gold.Chemscore.Internal_Hbond>
0.0000

> <Gold.Chemscore.DEClash>
1.9051

> <Gold.Chemscore.DEInternal>
3.0925

> <Gold.Chemscore.Rot>
1.7213

> <Gold.Chemscore.Internal.Correction>
   9.000000E+99

> <Gold.Chemscore.Hbonds>
donor molecule, donor type, donor heavy atom, donor atom, acceptor molecule, acceptor atom, score
      L1  H     7    29       P1  8028  0.96
      L1  H    15    51       P1  7948  0.82

> <Gold.Chemscore.Hbond.Weighted>
-6.1759

> <Gold.Chemscore.Metal.Weighted>
-0.0000

> <Gold.Chemscore.Lipo.Weighted>
-10.3488

> <Gold.Chemscore.Internal_Hbond.Weighted>
0.0000

> <Gold.Chemscore.DEClash.Weighted>
1.9051

> <Gold.Chemscore.DEInternal.Weighted>
3.0925

> <Gold.Chemscore.Rot.Weighted>
4.4066

> <Gold.Chemscore.Internal.Correction.Weighted>
   9.000000E+99

> <Gold.Protein.RotatedTorsions>
[ 6907 6896 6895 6894 ] final  -88.47 input  -60.11 | X-H torsion
[ 7974 7965 7964 7962 ] final  -38.69 input  175.53 | X-H torsion
[ 8008 7997 7996 7995 ] final  138.55 input   59.86 | X-H torsion
[ 10167 10162 10161 10158 ] final  -57.70 input  -65.29 | X-H torsion
[ 10718 10713 10712 10709 ] final   97.05 input   66.30 | X-H torsion
[ 10763 10752 10751 10750 ] final   15.50 input  -60.55 | X-H torsion
[ 11005 11000 10999 10996 ] final   73.95 input  -57.11 | X-H torsion

> <Gold.Protein.ActiveResidues>
 VAL166  LYS551  ARG553  GLY616  TRP617  ASP618  TYR619  PRO620  LYS621  CYS622 
 ASP623  PHE694  ASN695  SER759  ASP760  ASP761  ALA762  ILE779  LEU786  VAL792 
 PHE793  MET794  SER795  GLU796  ALA797  LYS798  CYS799  TRP800  GLU811  SER814 

> <Gold.Protein.RotatedAtoms>
  150.6869  134.2737  159.4598 H   0  0  0  0  0  0  0  0  0  0  0  0  # atno 6907 bound_to 6896
  152.0657  134.9563  160.0584 H   0  0  0  0  0  0  0  0  0  0  0  0  # atno 6908 bound_to 6896
  152.0973  133.4196  159.4608 H   0  0  0  0  0  0  0  0  0  0  0  0  # atno 6909 bound_to 6896
  146.0464  140.6540  142.9063 H   0  0  0  0  0  0  0  0  0  0  0  0  # atno 7974 bound_to 7965
  156.2996  140.2390  156.4091 H   0  0  0  0  0  0  0  0  0  0  0  0  # atno 8008 bound_to 7997
  154.8457  140.0426  157.1591 H   0  0  0  0  0  0  0  0  0  0  0  0  # atno 8009 bound_to 7997
  154.9054  140.2983  155.5299 H   0  0  0  0  0  0  0  0  0  0  0  0  # atno 8010 bound_to 7997
  140.6242  143.2431  151.5404 H   0  0  0  0  0  0  0  0  0  0  0  0  # atno 10167 bound_to 10162
  157.6918  131.0597  150.4584 H   0  0  0  0  0  0  0  0  0  0  0  0  # atno 10718 bound_to 10713
  153.1519  135.6780  153.8869 H   0  0  0  0  0  0  0  0  0  0  0  0  # atno 10763 bound_to 10752
  153.8293  135.3120  155.3418 H   0  0  0  0  0  0  0  0  0  0  0  0  # atno 10764 bound_to 10752
  154.7869  135.4857  154.0052 H   0  0  0  0  0  0  0  0  0  0  0  0  # atno 10765 bound_to 10752
  139.9414  134.7391  156.1089 H   0  0  0  0  0  0  0  0  0  0  0  0  # atno 11005 bound_to 11000
  144.7100  140.4002  143.7088 LP  0  0  0  0  0  0  0  0  0  0  0  0  # atno 17320 bound_to 7965
  145.6798  139.1616  143.2707 LP  0  0  0  0  0  0  0  0  0  0  0  0  # atno 17321 bound_to 7965
  139.5465  144.2506  152.1452 LP  0  0  0  0  0  0  0  0  0  0  0  0  # atno 17342 bound_to 10162
  140.1734  144.4914  150.6567 LP  0  0  0  0  0  0  0  0  0  0  0  0  # atno 17343 bound_to 10162
  156.4930  130.4099  149.6396 LP  0  0  0  0  0  0  0  0  0  0  0  0  # atno 17370 bound_to 10713
  156.3399  130.7376  151.2320 LP  0  0  0  0  0  0  0  0  0  0  0  0  # atno 17371 bound_to 10713
  141.1050  133.6663  156.2843 LP  0  0  0  0  0  0  0  0  0  0  0  0  # atno 17394 bound_to 11000
  140.5941  134.5621  157.5505 LP  0  0  0  0  0  0  0  0  0  0  0  0  # atno 17395 bound_to 11000

$$$$
