AV-unprocessed.smi:1432|AV-procd|sdf|5831|dock3
  -GOLD-   22720 5493D 1   1.00000     0.00000
 Structure written by MMmdl.
 47 48  0  0  0  0  0  0  0  0  2 V2000
  147.1563  137.4350  154.4539 C   0  0  0  0  0  0  0  0  0  0  0  0
  148.6023  137.6371  154.9500 C   0  0  2  0  0  0  0  0  0  0  0  0
  149.1443  138.9709  154.3899 C   0  0  0  0  0  0  0  0  0  0  0  0
  150.5905  139.2309  154.8223 C   0  0  0  0  0  0  0  0  0  0  0  0
  151.4668  138.0483  154.4059 C   0  0  0  0  0  0  0  0  0  0  0  0
  150.9154  136.7404  154.9906 C   0  0  0  0  0  0  0  0  0  0  0  0
  149.5042  136.4991  154.5825 N   0  3  1  0  0  0  0  0  0  0  0  0
  149.0280  135.1665  155.0448 C   0  0  0  0  0  0  0  0  0  0  0  0
  149.4643  134.8877  156.4904 C   0  0  0  0  0  0  0  0  0  0  0  0
  148.4415  135.3321  157.4259 N   0  0  0  0  0  0  0  0  0  0  0  0
  148.6402  136.2288  158.4055 C   0  0  0  0  0  0  0  0  0  0  0  0
  149.7260  136.7760  158.5911 O   0  0  0  0  0  0  0  0  0  0  0  0
  147.4602  136.5740  159.3310 C   0  0  0  0  0  0  0  0  0  0  0  0
  147.2629  135.6469  160.4603 N   0  0  0  0  0  0  0  0  0  0  0  0
  147.3853  134.2702  160.1881 C   0  0  0  0  0  0  0  0  0  0  0  0
  147.2212  133.3196  161.1278 C   0  0  0  0  0  0  0  0  0  0  0  0
  147.4239  131.8456  160.8131 C   0  0  0  0  0  0  0  0  0  0  0  0
  147.7550  131.6666  159.5342 F   0  0  0  0  0  0  0  0  0  0  0  0
  148.4017  131.3503  161.5702 F   0  0  0  0  0  0  0  0  0  0  0  0
  146.3143  131.1481  161.0595 F   0  0  0  0  0  0  0  0  0  0  0  0
  146.9317  133.7833  162.4708 C   0  0  0  0  0  0  0  0  0  0  0  0
  146.8257  135.0969  162.7513 C   0  0  0  0  0  0  0  0  0  0  0  0
  146.9963  136.1182  161.7155 C   0  0  0  0  0  0  0  0  0  0  0  0
  146.9147  137.3214  161.9620 O   0  0  0  0  0  0  0  0  0  0  0  0
  146.5396  138.3007  154.6970 H   0  0  0  0  0  0  0  0  0  0  0  0
  146.6738  136.5724  154.9123 H   0  0  0  0  0  0  0  0  0  0  0  0
  147.1225  137.3042  153.3718 H   0  0  0  0  0  0  0  0  0  0  0  0
  148.5818  137.7076  156.0390 H   0  0  0  0  0  0  0  0  0  0  0  0
  149.0904  138.9623  153.3001 H   0  0  0  0  0  0  0  0  0  0  0  0
  148.5150  139.7982  154.7205 H   0  0  0  0  0  0  0  0  0  0  0  0
  150.9596  140.1525  154.3714 H   0  0  0  0  0  0  0  0  0  0  0  0
  150.6375  139.3685  155.9034 H   0  0  0  0  0  0  0  0  0  0  0  0
  151.5061  137.9798  153.3179 H   0  0  0  0  0  0  0  0  0  0  0  0
  152.4912  138.2059  154.7446 H   0  0  0  0  0  0  0  0  0  0  0  0
  151.5395  135.9129  154.6500 H   0  0  0  0  0  0  0  0  0  0  0  0
  150.9811  136.7611  156.0797 H   0  0  0  0  0  0  0  0  0  0  0  0
  147.9382  135.1178  155.0082 H   0  0  0  0  0  0  0  0  0  0  0  0
  149.3679  134.3775  154.3727 H   0  0  0  0  0  0  0  0  0  0  0  0
  149.6427  133.8241  156.6484 H   0  0  0  0  0  0  0  0  0  0  0  0
  150.4034  135.4042  156.6972 H   0  0  0  0  0  0  0  0  0  0  0  0
  147.5224  134.9241  157.3342 H   0  0  0  0  0  0  0  0  0  0  0  0
  147.5943  137.5933  159.6981 H   0  0  0  0  0  0  0  0  0  0  0  0
  146.5568  136.6155  158.7207 H   0  0  0  0  0  0  0  0  0  0  0  0
  147.6335  134.0353  159.1629 H   0  0  0  0  0  0  0  0  0  0  0  0
  146.7924  133.0661  163.2664 H   0  0  0  0  0  0  0  0  0  0  0  0
  146.6069  135.4061  163.7630 H   0  0  0  0  0  0  0  0  0  0  0  0
  149.5143  136.4587  153.5732 H   0  0  0  0  0  0  0  0  0  0  0  0
  1  2  1  0  0  0  0
  1 25  1  0  0  0  0
  1 26  1  0  0  0  0
  1 27  1  0  0  0  0
  2  7  1  0  0  0  0
  2  3  1  0  0  0  0
  2 28  1  0  0  0  0
  3  4  1  0  0  0  0
  3 29  1  0  0  0  0
  3 30  1  0  0  0  0
  4  5  1  0  0  0  0
  4 31  1  0  0  0  0
  4 32  1  0  0  0  0
  5  6  1  0  0  0  0
  5 33  1  0  0  0  0
  5 34  1  0  0  0  0
  6  7  1  0  0  0  0
  6 35  1  0  0  0  0
  6 36  1  0  0  0  0
  7  8  1  0  0  0  0
  7 47  1  0  0  0  0
  8  9  1  0  0  0  0
  8 37  1  0  0  0  0
  8 38  1  0  0  0  0
  9 10  1  0  0  0  0
  9 39  1  0  0  0  0
  9 40  1  0  0  0  0
 10 11  1  0  0  0  0
 10 41  1  0  0  0  0
 11 12  2  0  0  0  0
 11 13  1  0  0  0  0
 13 14  1  0  0  0  0
 13 42  1  0  0  0  0
 13 43  1  0  0  0  0
 14 23  1  0  0  0  0
 14 15  1  0  0  0  0
 15 16  2  0  0  0  0
 15 44  1  0  0  0  0
 16 17  1  0  0  0  0
 16 21  1  0  0  0  0
 17 18  1  0  0  0  0
 17 19  1  0  0  0  0
 17 20  1  0  0  0  0
 21 22  2  0  0  0  0
 21 45  1  0  0  0  0
 22 23  1  0  0  0  0
 22 46  1  0  0  0  0
 23 24  2  0  0  0  0
M  CHG  1   7   1
M  END
> <s_m_source_file>
AV-unprocessed.smi

> <i_m_source_file_index>
1432

> <i_lp_mmshare_version>
43012

> <i_f3d_flags>
0

> <s_epik_input>
W0NIM11bQ0BASF0xW0NIMl1bQ0gyXVtDSDJdW0NIMl1OMVtDSDJdW0NIMl1bTkhdQyg9TylbQ0gyXW4yW2NIXWMoQyhGKShGKUYpW2NIXVtjSF1jMj1P

> <s_epik_cmdline>
J2VwaWtfcHl0aG9uJywgJy1waCcsICc3LjAnLCAnLXRuJywgJzgnLCAnLW1hJywgJzIwMCcsICctbWV0YWxfYmluZGluZycsICctaW1hZScsICc8aW5maWxlLm1hZT4nLCAnLW9tYWUnLCAnPG91dGZpbGUubWFlPic=

> <r_lp_tautomer_probability>
1

> <r_epik_Ionization_Penalty>
0.00237222

> <r_epik_Ionization_Penalty_Charging>
0.00237213

> <r_epik_Ionization_Penalty_Neutral>
8.2065e-08

> <r_epik_State_Penalty>
0.00163922

> <r_epik_Charging_Adjusted_Penalty>
0.00401135

> <i_epik_Tot_Q>
1

> <i_epik_Tot_abs_Q>
1

> <r_epik_Metal_State_Penalty>
-0

> <b_epik_Metal_Only>
0

> <s_lp_Force_Field>
OPLS_2005

> <r_lp_Energy>
33.1317

> <b_lp_Chiralities_Consistent>
1

> <s_lp_Variant>
AV-unprocessed.smi:1432-1

> <Gold.Version>
5.8.1

> <Gold.Id.Protein>
6NUR|6NUR_protein|mol2

> <Gold.PLP.Fitness>
48.3064

> <Gold.PLP.PLP>
-41.4111

> <Gold.PLP.part.hbond>
-3.0000

> <Gold.PLP.part.metal>
0.0000

> <Gold.PLP.part.buried>
-4.8495

> <Gold.PLP.part.nonpolar>
-34.1726

> <Gold.PLP.part.repulsive>
0.0789

> <Gold.PLP.ligand.clash>
1.4518

> <Gold.PLP.ligand.torsion>
0.9954

> <Gold.PLP.Chemscore.Hbond>
3.4080

> <Gold.PLP.Chemscore.CHOScore>
0.0000

> <Gold.PLP.Chemscore.Metal>
0.0000

> <Gold.Chemscore.Hbonds>
donor molecule, donor type, donor heavy atom, donor atom, acceptor molecule, acceptor atom, score
      L1  H     7    47       P1  7948  2.00
      P1  H  6931  6943       L1    24  0.23
      P1  H  6934  6947       L1    24  0.82

> <Gold.PLP.Chemscore.Internal.Correction>
0.1139

> <Gold.Rescore>
     Score         DG    S(hbond)    S(metal)    S(lipo)     H(rot)  DE(clash)    DE(int)     intcor
     18.60     -19.59       3.15        0.00      76.10       2.08       0.01       0.98       ----

> <Gold.Chemscore.Fitness>
18.6016

> <Gold.Chemscore.DG>
-19.5918

> <Gold.Chemscore.ZeroCoef>
-5.4800

> <Gold.Chemscore.Hbond>
3.1506

> <Gold.Chemscore.Metal>
0.0000

> <Gold.Chemscore.Lipo>
76.1011

> <Gold.Chemscore.Internal_Hbond>
0.0000

> <Gold.Chemscore.DEClash>
0.0103

> <Gold.Chemscore.DEInternal>
0.9799

> <Gold.Chemscore.Rot>
2.0762

> <Gold.Chemscore.Internal.Correction>
   9.000000E+99

> <Gold.Chemscore.Hbonds>
donor molecule, donor type, donor heavy atom, donor atom, acceptor molecule, acceptor atom, score
      L1  H     7    47       P1  7948  0.70
      P1  H  6931  6943       L1    24  0.18
      P1  H  6934  6947       L1    24  0.79

> <Gold.Chemscore.Hbond.Weighted>
-10.5230

> <Gold.Chemscore.Metal.Weighted>
-0.0000

> <Gold.Chemscore.Lipo.Weighted>
-8.9038

> <Gold.Chemscore.Internal_Hbond.Weighted>
0.0000

> <Gold.Chemscore.DEClash.Weighted>
0.0103

> <Gold.Chemscore.DEInternal.Weighted>
0.9799

> <Gold.Chemscore.Rot.Weighted>
5.3150

> <Gold.Chemscore.Internal.Correction.Weighted>
   9.000000E+99

> <Gold.Protein.RotatedTorsions>
[ 6907 6896 6895 6894 ] final  -24.64 input  -60.11 | X-H torsion
[ 7974 7965 7964 7962 ] final  -49.84 input  175.53 | X-H torsion
[ 8008 7997 7996 7995 ] final -167.38 input   59.86 | X-H torsion
[ 10167 10162 10161 10158 ] final  -73.96 input  -65.29 | X-H torsion
[ 10718 10713 10712 10709 ] final  -10.97 input   66.30 | X-H torsion
[ 10763 10752 10751 10750 ] final  -34.52 input  -60.55 | X-H torsion
[ 11005 11000 10999 10996 ] final  121.88 input  -57.11 | X-H torsion

> <Gold.Protein.ActiveResidues>
 VAL166  LYS551  ARG553  GLY616  TRP617  ASP618  TYR619  PRO620  LYS621  CYS622 
 ASP623  PHE694  ASN695  SER759  ASP760  ASP761  ALA762  ILE779  LEU786  VAL792 
 PHE793  MET794  SER795  GLU796  ALA797  LYS798  CYS799  TRP800  GLU811  SER814 

> <Gold.Protein.RotatedAtoms>
  151.1866  135.0384  159.8814 H   0  0  0  0  0  0  0  0  0  0  0  0  # atno 6907 bound_to 6896
  152.5442  134.1003  159.8325 H   0  0  0  0  0  0  0  0  0  0  0  0  # atno 6908 bound_to 6896
  151.1126  133.5115  159.2637 H   0  0  0  0  0  0  0  0  0  0  0  0  # atno 6909 bound_to 6896
  145.9363  140.7703  142.9574 H   0  0  0  0  0  0  0  0  0  0  0  0  # atno 7974 bound_to 7965
  155.8769  140.1002  157.1512 H   0  0  0  0  0  0  0  0  0  0  0  0  # atno 8008 bound_to 7997
  154.4001  140.1336  156.4211 H   0  0  0  0  0  0  0  0  0  0  0  0  # atno 8009 bound_to 7997
  155.7687  140.3461  155.5238 H   0  0  0  0  0  0  0  0  0  0  0  0  # atno 8010 bound_to 7997
  140.5066  143.2352  151.7663 H   0  0  0  0  0  0  0  0  0  0  0  0  # atno 10167 bound_to 10162
  156.6658  130.4995  149.6016 H   0  0  0  0  0  0  0  0  0  0  0  0  # atno 10718 bound_to 10713
  153.8481  135.6851  153.4795 H   0  0  0  0  0  0  0  0  0  0  0  0  # atno 10763 bound_to 10752
  153.1413  135.4656  154.9498 H   0  0  0  0  0  0  0  0  0  0  0  0  # atno 10764 bound_to 10752
  154.7815  135.3270  154.7928 H   0  0  0  0  0  0  0  0  0  0  0  0  # atno 10765 bound_to 10752
  139.9244  134.9640  156.8024 H   0  0  0  0  0  0  0  0  0  0  0  0  # atno 11005 bound_to 11000
  144.6772  140.2208  143.7366 LP  0  0  0  0  0  0  0  0  0  0  0  0  # atno 17320 bound_to 7965
  145.8359  139.2107  143.1855 LP  0  0  0  0  0  0  0  0  0  0  0  0  # atno 17321 bound_to 7965
  139.4885  144.4448  151.9722 LP  0  0  0  0  0  0  0  0  0  0  0  0  # atno 17342 bound_to 10162
  140.3539  144.3055  150.5944 LP  0  0  0  0  0  0  0  0  0  0  0  0  # atno 17343 bound_to 10162
  156.1976  130.6599  151.1131 LP  0  0  0  0  0  0  0  0  0  0  0  0  # atno 17370 bound_to 10713
  157.7094  131.0741  150.6554 LP  0  0  0  0  0  0  0  0  0  0  0  0  # atno 17371 bound_to 10713
  140.6378  133.9846  155.7693 LP  0  0  0  0  0  0  0  0  0  0  0  0  # atno 17394 bound_to 11000
  141.0791  134.0090  157.3413 LP  0  0  0  0  0  0  0  0  0  0  0  0  # atno 17395 bound_to 11000

$$$$
