AV-unprocessed.smi:3350|AV-procd|sdf|12940|dock2
  -GOLD-   2272019373D 1   1.00000     0.00000
 Structure written by MMmdl.
 41 42  0  0  0  0  0  0  0  0  1 V2000
  147.3724  141.3439  153.5564 C   0  0  0  0  0  0  0  0  0  0  0  0
  148.4701  140.2771  153.4197 C   0  0  1  0  0  0  0  0  0  0  0  0
  149.0542  139.8891  154.7919 C   0  0  0  0  0  0  0  0  0  0  0  0
  150.3241  139.1934  154.6757 N   0  0  0  0  0  0  0  0  0  0  0  0
  150.5507  137.8834  154.3099 C   0  0  0  0  0  0  0  0  0  0  0  0
  151.9000  137.6775  154.3514 C   0  0  0  0  0  0  0  0  0  0  0  0
  152.4217  138.9371  154.7587 C   0  0  0  0  0  0  0  0  0  0  0  0
  151.4765  139.8429  154.9511 N   0  0  0  0  0  0  0  0  0  0  0  0
  147.9353  139.0939  152.7493 N   0  0  0  0  0  0  0  0  0  0  0  0
  146.7279  138.5565  152.9683 C   0  0  0  0  0  0  0  0  0  0  0  0
  145.9245  138.9763  153.8014 O   0  0  0  0  0  0  0  0  0  0  0  0
  146.5024  137.5084  152.1649 N   0  0  0  0  0  0  0  0  0  0  0  0
  145.2781  136.7123  152.1334 C   0  0  2  0  0  0  0  0  0  0  0  0
  144.9460  136.2145  153.5491 C   0  0  0  0  0  0  0  0  0  0  0  0
  145.4449  135.5485  151.1385 C   0  0  2  0  0  0  0  0  0  0  0  0
  144.1736  134.7344  150.8871 C   0  0  0  0  0  0  0  0  0  0  0  0
  144.6974  133.3714  150.4615 C   0  0  0  0  0  0  0  0  0  0  0  0
  146.1790  133.4024  150.8463 C   0  0  0  0  0  0  0  0  0  0  0  0
  146.3282  134.5635  151.6509 O   0  0  0  0  0  0  0  0  0  0  0  0
  147.7577  142.2425  154.0390 H   0  0  0  0  0  0  0  0  0  0  0  0
  146.5353  140.9783  154.1521 H   0  0  0  0  0  0  0  0  0  0  0  0
  146.9832  141.6388  152.5813 H   0  0  0  0  0  0  0  0  0  0  0  0
  149.2778  140.6970  152.8169 H   0  0  0  0  0  0  0  0  0  0  0  0
  149.2196  140.7840  155.3933 H   0  0  0  0  0  0  0  0  0  0  0  0
  148.3530  139.2661  155.3499 H   0  0  0  0  0  0  0  0  0  0  0  0
  149.7418  137.2143  154.0555 H   0  0  0  0  0  0  0  0  0  0  0  0
  152.4328  136.7658  154.1261 H   0  0  0  0  0  0  0  0  0  0  0  0
  153.4523  139.2176  154.9186 H   0  0  0  0  0  0  0  0  0  0  0  0
  148.5184  138.6746  152.0397 H   0  0  0  0  0  0  0  0  0  0  0  0
  147.2276  137.2469  151.5133 H   0  0  0  0  0  0  0  0  0  0  0  0
  144.4531  137.3365  151.7845 H   0  0  0  0  0  0  0  0  0  0  0  0
  144.0235  135.6334  153.5551 H   0  0  0  0  0  0  0  0  0  0  0  0
  144.8109  137.0482  154.2390 H   0  0  0  0  0  0  0  0  0  0  0  0
  145.7408  135.5805  153.9436 H   0  0  0  0  0  0  0  0  0  0  0  0
  145.8397  135.9149  150.1886 H   0  0  0  0  0  0  0  0  0  0  0  0
  143.6026  134.6322  151.8113 H   0  0  0  0  0  0  0  0  0  0  0  0
  143.5230  135.1904  150.1406 H   0  0  0  0  0  0  0  0  0  0  0  0
  144.1644  132.5730  150.9790 H   0  0  0  0  0  0  0  0  0  0  0  0
  144.5810  133.2130  149.3887 H   0  0  0  0  0  0  0  0  0  0  0  0
  146.4920  132.5074  151.3844 H   0  0  0  0  0  0  0  0  0  0  0  0
  146.8039  133.5008  149.9574 H   0  0  0  0  0  0  0  0  0  0  0  0
  1  2  1  0  0  0  0
  1 20  1  0  0  0  0
  1 21  1  0  0  0  0
  1 22  1  0  0  0  0
  2  3  1  0  0  0  0
  2  9  1  0  0  0  0
  2 23  1  0  0  0  0
  3  4  1  0  0  0  0
  3 24  1  0  0  0  0
  3 25  1  0  0  0  0
  4  8  1  0  0  0  0
  4  5  1  0  0  0  0
  5  6  2  0  0  0  0
  5 26  1  0  0  0  0
  6  7  1  0  0  0  0
  6 27  1  0  0  0  0
  7  8  2  0  0  0  0
  7 28  1  0  0  0  0
  9 10  1  0  0  0  0
  9 29  1  0  0  0  0
 10 11  2  0  0  0  0
 10 12  1  0  0  0  0
 12 13  1  0  0  0  0
 12 30  1  0  0  0  0
 13 14  1  0  0  0  0
 13 15  1  0  0  0  0
 13 31  1  0  0  0  0
 14 32  1  0  0  0  0
 14 33  1  0  0  0  0
 14 34  1  0  0  0  0
 15 19  1  0  0  0  0
 15 16  1  0  0  0  0
 15 35  1  0  0  0  0
 16 17  1  0  0  0  0
 16 36  1  0  0  0  0
 16 37  1  0  0  0  0
 17 18  1  0  0  0  0
 17 38  1  0  0  0  0
 17 39  1  0  0  0  0
 18 19  1  0  0  0  0
 18 40  1  0  0  0  0
 18 41  1  0  0  0  0
M  END
> <s_m_source_file>
AV-unprocessed.smi

> <i_m_source_file_index>
3350

> <i_lp_mmshare_version>
43012

> <i_f3d_flags>
0

> <s_epik_input>
bjFbY0hdW2NIXVtjSF1uMVtDSDJdW0NAQEhdKFtDSDNdKVtOSF1DKD1PKVtOSF1bQ0BIXShbQ0gzXSlbQ0BASF0yW0NIMl1bQ0gyXVtDSDJdTzI=

> <s_epik_cmdline>
J2VwaWtfcHl0aG9uJywgJy1waCcsICc3LjAnLCAnLXRuJywgJzgnLCAnLW1hJywgJzIwMCcsICctbWV0YWxfYmluZGluZycsICctaW1hZScsICc8aW5maWxlLm1hZT4nLCAnLW9tYWUnLCAnPG91dGZpbGUubWFlPic=

> <r_lp_tautomer_probability>
1

> <r_epik_Ionization_Penalty>
6.42349e-05

> <r_epik_Ionization_Penalty_Charging>
0

> <r_epik_Ionization_Penalty_Neutral>
6.42349e-05

> <r_epik_State_Penalty>
-0

> <r_epik_Charging_Adjusted_Penalty>
0

> <i_epik_Tot_Q>
0

> <i_epik_Tot_abs_Q>
0

> <r_epik_Metal_State_Penalty>
-0

> <b_epik_Metal_Only>
0

> <s_lp_Force_Field>
OPLS_2005

> <r_lp_Energy>
16.0006

> <b_lp_Chiralities_Consistent>
1

> <s_lp_Variant>
AV-unprocessed.smi:3350-2

> <Gold.Version>
5.8.1

> <Gold.Id.Protein>
6NUR|6NUR_protein|mol2

> <Gold.PLP.Fitness>
42.3167

> <Gold.PLP.PLP>
-35.1399

> <Gold.PLP.part.hbond>
-3.4960

> <Gold.PLP.part.metal>
0.0000

> <Gold.PLP.part.buried>
-2.7861

> <Gold.PLP.part.nonpolar>
-31.5048

> <Gold.PLP.part.repulsive>
1.6853

> <Gold.PLP.ligand.clash>
0.0000

> <Gold.PLP.ligand.torsion>
0.7262

> <Gold.PLP.Chemscore.Hbond>
1.8640

> <Gold.PLP.Chemscore.CHOScore>
0.9900

> <Gold.PLP.Chemscore.Metal>
0.0000

> <Gold.Chemscore.Hbonds>
donor molecule, donor type, donor heavy atom, donor atom, acceptor molecule, acceptor atom, score
      L1  H     9    29       P1  7957  0.24
      L1  H    12    30       P1  7948  0.61
      P1  H  7989  7998       L1     8  1.00
      L1  C     5    26       P1  7948  1.00

> <Gold.PLP.Chemscore.Internal.Correction>
0.0671

> <Gold.Rescore>
     Score         DG    S(hbond)    S(metal)    S(lipo)     H(rot)  DE(clash)    DE(int)     intcor
      9.87     -13.55       1.17        0.00      75.49       1.82       0.17       3.50       ----

> <Gold.Chemscore.Fitness>
9.8747

> <Gold.Chemscore.DG>
-13.5454

> <Gold.Chemscore.ZeroCoef>
-5.4800

> <Gold.Chemscore.Hbond>
1.1651

> <Gold.Chemscore.Metal>
0.0000

> <Gold.Chemscore.Lipo>
75.4899

> <Gold.Chemscore.Internal_Hbond>
0.0000

> <Gold.Chemscore.DEClash>
0.1692

> <Gold.Chemscore.DEInternal>
3.5015

> <Gold.Chemscore.Rot>
1.8197

> <Gold.Chemscore.Internal.Correction>
   9.000000E+99

> <Gold.Chemscore.Hbonds>
donor molecule, donor type, donor heavy atom, donor atom, acceptor molecule, acceptor atom, score
      L1  H     9    29       P1  7957  0.20
      L1  H    12    30       P1  7948  0.60
      P1  H  7989  7998       L1     8  0.10

> <Gold.Chemscore.Hbond.Weighted>
-3.8914

> <Gold.Chemscore.Metal.Weighted>
-0.0000

> <Gold.Chemscore.Lipo.Weighted>
-8.8323

> <Gold.Chemscore.Internal_Hbond.Weighted>
0.0000

> <Gold.Chemscore.DEClash.Weighted>
0.1692

> <Gold.Chemscore.DEInternal.Weighted>
3.5015

> <Gold.Chemscore.Rot.Weighted>
4.6583

> <Gold.Chemscore.Internal.Correction.Weighted>
   9.000000E+99

> <Gold.Protein.RotatedTorsions>
[ 6907 6896 6895 6894 ] final -161.60 input  -60.11 | X-H torsion
[ 7974 7965 7964 7962 ] final   21.55 input  175.53 | X-H torsion
[ 8008 7997 7996 7995 ] final -177.56 input   59.86 | X-H torsion
[ 10167 10162 10161 10158 ] final -149.40 input  -65.29 | X-H torsion
[ 10718 10713 10712 10709 ] final   62.46 input   66.30 | X-H torsion
[ 10763 10752 10751 10750 ] final  118.65 input  -60.55 | X-H torsion
[ 11005 11000 10999 10996 ] final  135.69 input  -57.11 | X-H torsion

> <Gold.Protein.ActiveResidues>
 VAL166  LYS551  ARG553  GLY616  TRP617  ASP618  TYR619  PRO620  LYS621  CYS622 
 ASP623  PHE694  ASN695  SER759  ASP760  ASP761  ALA762  ILE779  LEU786  VAL792 
 PHE793  MET794  SER795  GLU796  ALA797  LYS798  CYS799  TRP800  GLU811  SER814 

> <Gold.Protein.RotatedAtoms>
  151.3671  133.3868  159.2695 H   0  0  0  0  0  0  0  0  0  0  0  0  # atno 6907 bound_to 6896
  150.9680  134.9058  159.7781 H   0  0  0  0  0  0  0  0  0  0  0  0  # atno 6908 bound_to 6896
  152.5174  134.3632  159.9344 H   0  0  0  0  0  0  0  0  0  0  0  0  # atno 6909 bound_to 6896
  146.2066  139.8011  142.8721 H   0  0  0  0  0  0  0  0  0  0  0  0  # atno 7974 bound_to 7965
  156.0084  140.1235  157.0478 H   0  0  0  0  0  0  0  0  0  0  0  0  # atno 8008 bound_to 7997
  154.4267  140.1092  156.5864 H   0  0  0  0  0  0  0  0  0  0  0  0  # atno 8009 bound_to 7997
  155.6114  140.3471  155.4626 H   0  0  0  0  0  0  0  0  0  0  0  0  # atno 8010 bound_to 7997
  139.7445  143.8611  152.2571 H   0  0  0  0  0  0  0  0  0  0  0  0  # atno 10167 bound_to 10162
  157.5902  130.9051  149.9590 H   0  0  0  0  0  0  0  0  0  0  0  0  # atno 10718 bound_to 10713
  153.5709  135.3502  155.2837 H   0  0  0  0  0  0  0  0  0  0  0  0  # atno 10763 bound_to 10752
  154.8682  135.4159  154.2726 H   0  0  0  0  0  0  0  0  0  0  0  0  # atno 10764 bound_to 10752
  153.3492  135.7054  153.6873 H   0  0  0  0  0  0  0  0  0  0  0  0  # atno 10765 bound_to 10752
  139.9996  134.9484  157.0042 H   0  0  0  0  0  0  0  0  0  0  0  0  # atno 11005 bound_to 11000
  145.3295  141.0263  143.3454 LP  0  0  0  0  0  0  0  0  0  0  0  0  # atno 17320 bound_to 7965
  144.8809  139.4905  143.6723 LP  0  0  0  0  0  0  0  0  0  0  0  0  # atno 17321 bound_to 7965
  139.8571  144.7135  150.9144 LP  0  0  0  0  0  0  0  0  0  0  0  0  # atno 17342 bound_to 10162
  140.7790  143.3849  151.1411 LP  0  0  0  0  0  0  0  0  0  0  0  0  # atno 17343 bound_to 10162
  156.0956  130.3659  150.0313 LP  0  0  0  0  0  0  0  0  0  0  0  0  # atno 17370 bound_to 10713
  156.8437  130.9435  151.3630 LP  0  0  0  0  0  0  0  0  0  0  0  0  # atno 17371 bound_to 10713
  140.4753  134.1345  155.7209 LP  0  0  0  0  0  0  0  0  0  0  0  0  # atno 17394 bound_to 11000
  141.1631  133.8754  157.1790 LP  0  0  0  0  0  0  0  0  0  0  0  0  # atno 17395 bound_to 11000

$$$$
