AV-unprocessed.smi:2399|AV-procd|sdf|9499|dock3
  -GOLD-   2272013133D 1   1.00000     0.00000
 Structure written by MMmdl.
 53 55  0  0  0  0  0  0  0  0  2 V2000
  154.2929  139.4287  159.5289 C   0  0  0  0  0  0  0  0  0  0  0  0
  153.4112  139.9978  158.5723 O   0  0  0  0  0  0  0  0  0  0  0  0
  152.9628  141.2873  158.7825 C   0  0  0  0  0  0  0  0  0  0  0  0
  153.5375  142.1735  159.7292 C   0  0  0  0  0  0  0  0  0  0  0  0
  153.0116  143.4694  159.8706 C   0  0  0  0  0  0  0  0  0  0  0  0
  151.9248  143.8377  159.0580 C   0  0  0  0  0  0  0  0  0  0  0  0
  151.3103  145.2181  159.1545 C   0  0  0  0  0  0  0  0  0  0  0  0
  151.3714  143.0049  158.1539 N   0  0  0  0  0  0  0  0  0  0  0  0
  151.8687  141.7518  158.0078 C   0  0  0  0  0  0  0  0  0  0  0  0
  151.3363  140.8151  157.0797 N   0  0  0  0  0  0  0  0  0  0  0  0
  150.7780  139.6180  157.3286 C   0  0  0  0  0  0  0  0  0  0  0  0
  150.6194  139.1211  158.4443 O   0  0  0  0  0  0  0  0  0  0  0  0
  150.3943  139.0164  156.1931 N   0  0  0  0  0  0  0  0  0  0  0  0
  149.7380  137.7147  156.1160 C   0  0  2  0  0  0  0  0  0  0  0  0
  150.6505  136.7077  155.4025 C   0  0  0  0  0  0  0  0  0  0  0  0
  149.9538  135.3471  155.2326 C   0  0  0  0  0  0  0  0  0  0  0  0
  148.6643  135.4789  154.4982 N   0  3  1  0  0  0  0  0  0  0  0  0
  148.0129  134.1667  154.2154 C   0  0  0  0  0  0  0  0  0  0  0  0
  148.9234  133.1569  153.5025 C   0  0  0  0  0  0  0  0  0  0  0  0
  147.9666  132.1242  152.9041 C   0  0  0  0  0  0  0  0  0  0  0  0
  146.6539  132.8716  152.6379 C   0  0  0  0  0  0  0  0  0  0  0  0
  146.8215  134.2684  153.2492 C   0  0  0  0  0  0  0  0  0  0  0  0
  147.7544  136.4354  155.1883 C   0  0  0  0  0  0  0  0  0  0  0  0
  148.4060  137.8171  155.3553 C   0  0  0  0  0  0  0  0  0  0  0  0
  154.5626  138.4208  159.2137 H   0  0  0  0  0  0  0  0  0  0  0  0
  153.8222  139.3520  160.5099 H   0  0  0  0  0  0  0  0  0  0  0  0
  155.2152  140.0050  159.6138 H   0  0  0  0  0  0  0  0  0  0  0  0
  154.3716  141.8860  160.3509 H   0  0  0  0  0  0  0  0  0  0  0  0
  153.4347  144.1600  160.5851 H   0  0  0  0  0  0  0  0  0  0  0  0
  151.6599  145.7442  160.0433 H   0  0  0  0  0  0  0  0  0  0  0  0
  150.2231  145.1509  159.2065 H   0  0  0  0  0  0  0  0  0  0  0  0
  151.5763  145.8108  158.2790 H   0  0  0  0  0  0  0  0  0  0  0  0
  151.3815  141.0990  156.1122 H   0  0  0  0  0  0  0  0  0  0  0  0
  150.5647  139.4957  155.3209 H   0  0  0  0  0  0  0  0  0  0  0  0
  149.5469  137.3488  157.1270 H   0  0  0  0  0  0  0  0  0  0  0  0
  150.9365  137.0927  154.4223 H   0  0  0  0  0  0  0  0  0  0  0  0
  151.5757  136.5785  155.9658 H   0  0  0  0  0  0  0  0  0  0  0  0
  150.6356  134.6871  154.6977 H   0  0  0  0  0  0  0  0  0  0  0  0
  149.7730  134.8924  156.2080 H   0  0  0  0  0  0  0  0  0  0  0  0
  147.6714  133.7277  155.1548 H   0  0  0  0  0  0  0  0  0  0  0  0
  149.4749  133.6495  152.7003 H   0  0  0  0  0  0  0  0  0  0  0  0
  149.6483  132.6896  154.1700 H   0  0  0  0  0  0  0  0  0  0  0  0
  148.3733  131.6662  152.0019 H   0  0  0  0  0  0  0  0  0  0  0  0
  147.7907  131.3251  153.6252 H   0  0  0  0  0  0  0  0  0  0  0  0
  146.4411  132.9389  151.5703 H   0  0  0  0  0  0  0  0  0  0  0  0
  145.8207  132.3428  153.1024 H   0  0  0  0  0  0  0  0  0  0  0  0
  145.9080  134.6031  153.7417 H   0  0  0  0  0  0  0  0  0  0  0  0
  147.0473  134.9810  152.4542 H   0  0  0  0  0  0  0  0  0  0  0  0
  146.8319  136.5636  154.6236 H   0  0  0  0  0  0  0  0  0  0  0  0
  147.4743  136.0331  156.1632 H   0  0  0  0  0  0  0  0  0  0  0  0
  147.7204  138.4812  155.8830 H   0  0  0  0  0  0  0  0  0  0  0  0
  148.5714  138.2619  154.3727 H   0  0  0  0  0  0  0  0  0  0  0  0
  148.8855  135.8869  153.6011 H   0  0  0  0  0  0  0  0  0  0  0  0
  1  2  1  0  0  0  0
  1 25  1  0  0  0  0
  1 26  1  0  0  0  0
  1 27  1  0  0  0  0
  2  3  1  0  0  0  0
  3  9  1  0  0  0  0
  3  4  2  0  0  0  0
  4  5  1  0  0  0  0
  4 28  1  0  0  0  0
  5  6  2  0  0  0  0
  5 29  1  0  0  0  0
  6  7  1  0  0  0  0
  6  8  1  0  0  0  0
  7 30  1  0  0  0  0
  7 31  1  0  0  0  0
  7 32  1  0  0  0  0
  8  9  2  0  0  0  0
  9 10  1  0  0  0  0
 10 11  1  0  0  0  0
 10 33  1  0  0  0  0
 11 12  2  0  0  0  0
 11 13  1  0  0  0  0
 13 14  1  0  0  0  0
 13 34  1  0  0  0  0
 14 24  1  0  0  0  0
 14 15  1  0  0  0  0
 14 35  1  0  0  0  0
 15 16  1  0  0  0  0
 15 36  1  0  0  0  0
 15 37  1  0  0  0  0
 16 17  1  0  0  0  0
 16 38  1  0  0  0  0
 16 39  1  0  0  0  0
 17 18  1  0  0  0  0
 17 23  1  0  0  0  0
 17 53  1  0  0  0  0
 18 22  1  0  0  0  0
 18 19  1  0  0  0  0
 18 40  1  0  0  0  0
 19 20  1  0  0  0  0
 19 41  1  0  0  0  0
 19 42  1  0  0  0  0
 20 21  1  0  0  0  0
 20 43  1  0  0  0  0
 20 44  1  0  0  0  0
 21 22  1  0  0  0  0
 21 45  1  0  0  0  0
 21 46  1  0  0  0  0
 22 47  1  0  0  0  0
 22 48  1  0  0  0  0
 23 24  1  0  0  0  0
 23 49  1  0  0  0  0
 23 50  1  0  0  0  0
 24 51  1  0  0  0  0
 24 52  1  0  0  0  0
M  CHG  1  17   1
M  END
> <s_m_source_file>
AV-unprocessed.smi

> <i_m_source_file_index>
2399

> <i_lp_mmshare_version>
43012

> <i_f3d_flags>
0

> <s_epik_input>
W0NIM11PYzFbY0hdW2NIXWMoW0NIM10pbmMxW05IXUMoPU8pW05IXVtDSF0yW0NIMl1bQ0gyXU4oW0NIMl1bQ0gyXTIpW0NIXTNbQ0gyXVtDSDJdW0NIMl1bQ0gyXTM=

> <s_epik_cmdline>
J2VwaWtfcHl0aG9uJywgJy1waCcsICc3LjAnLCAnLXRuJywgJzgnLCAnLW1hJywgJzIwMCcsICctbWV0YWxfYmluZGluZycsICctaW1hZScsICc8aW5maWxlLm1hZT4nLCAnLW9tYWUnLCAnPG91dGZpbGUubWFlPic=

> <r_lp_tautomer_probability>
1

> <r_epik_Ionization_Penalty>
0.00183805

> <r_epik_Ionization_Penalty_Charging>
0.00179121

> <r_epik_Ionization_Penalty_Neutral>
4.68398e-05

> <r_epik_State_Penalty>
0.00121448

> <r_epik_Charging_Adjusted_Penalty>
0.0030057

> <i_epik_Tot_Q>
1

> <i_epik_Tot_abs_Q>
1

> <r_epik_Metal_State_Penalty>
-0

> <b_epik_Metal_Only>
0

> <s_lp_Force_Field>
OPLS_2005

> <r_lp_Energy>
41.4811

> <b_lp_Chiralities_Consistent>
1

> <s_lp_Variant>
AV-unprocessed.smi:2399-1

> <Gold.Version>
5.8.1

> <Gold.Id.Protein>
6NUR|6NUR_protein|mol2

> <Gold.PLP.Fitness>
44.2547

> <Gold.PLP.PLP>
-36.8079

> <Gold.PLP.part.hbond>
-2.0000

> <Gold.PLP.part.metal>
0.0000

> <Gold.PLP.part.buried>
-3.1502

> <Gold.PLP.part.nonpolar>
-30.7948

> <Gold.PLP.part.repulsive>
0.1894

> <Gold.PLP.ligand.clash>
0.0000

> <Gold.PLP.ligand.torsion>
0.8084

> <Gold.PLP.Chemscore.Hbond>
3.0000

> <Gold.PLP.Chemscore.CHOScore>
0.0000

> <Gold.PLP.Chemscore.Metal>
0.0000

> <Gold.Chemscore.Hbonds>
donor molecule, donor type, donor heavy atom, donor atom, acceptor molecule, acceptor atom, score
      L1  H    17    53       P1  7948  2.00
      P1  H  7997  8009       L1     2  1.00

> <Gold.PLP.Chemscore.Internal.Correction>
0.0636

> <Gold.Rescore>
     Score         DG    S(hbond)    S(metal)    S(lipo)     H(rot)  DE(clash)    DE(int)     intcor
     16.19     -18.38       1.44        0.00      99.26       1.38       0.15       2.04       ----

> <Gold.Chemscore.Fitness>
16.1906

> <Gold.Chemscore.DG>
-18.3793

> <Gold.Chemscore.ZeroCoef>
-5.4800

> <Gold.Chemscore.Hbond>
1.4448

> <Gold.Chemscore.Metal>
0.0000

> <Gold.Chemscore.Lipo>
99.2621

> <Gold.Chemscore.Internal_Hbond>
0.0000

> <Gold.Chemscore.DEClash>
0.1487

> <Gold.Chemscore.DEInternal>
2.0400

> <Gold.Chemscore.Rot>
1.3828

> <Gold.Chemscore.Internal.Correction>
   9.000000E+99

> <Gold.Chemscore.Hbonds>
donor molecule, donor type, donor heavy atom, donor atom, acceptor molecule, acceptor atom, score
      L1  H    17    53       P1  7948  0.97
      P1  H  7997  8009       L1     2  0.15

> <Gold.Chemscore.Hbond.Weighted>
-4.8255

> <Gold.Chemscore.Metal.Weighted>
-0.0000

> <Gold.Chemscore.Lipo.Weighted>
-11.6137

> <Gold.Chemscore.Internal_Hbond.Weighted>
0.0000

> <Gold.Chemscore.DEClash.Weighted>
0.1487

> <Gold.Chemscore.DEInternal.Weighted>
2.0400

> <Gold.Chemscore.Rot.Weighted>
3.5399

> <Gold.Chemscore.Internal.Correction.Weighted>
   9.000000E+99

> <Gold.Protein.RotatedTorsions>
[ 6907 6896 6895 6894 ] final -179.58 input  -60.11 | X-H torsion
[ 7974 7965 7964 7962 ] final  -30.13 input  175.53 | X-H torsion
[ 8008 7997 7996 7995 ] final  155.37 input   59.86 | X-H torsion
[ 10167 10162 10161 10158 ] final  -69.52 input  -65.29 | X-H torsion
[ 10718 10713 10712 10709 ] final  142.99 input   66.30 | X-H torsion
[ 10763 10752 10751 10750 ] final   12.69 input  -60.55 | X-H torsion
[ 11005 11000 10999 10996 ] final   -4.17 input  -57.11 | X-H torsion

> <Gold.Protein.ActiveResidues>
 VAL166  LYS551  ARG553  GLY616  TRP617  ASP618  TYR619  PRO620  LYS621  CYS622 
 ASP623  PHE694  ASN695  SER759  ASP760  ASP761  ALA762  ILE779  LEU786  VAL792 
 PHE793  MET794  SER795  GLU796  ALA797  LYS798  CYS799  TRP800  GLU811  SER814 

> <Gold.Protein.RotatedAtoms>
  151.6558  133.3319  159.3162 H   0  0  0  0  0  0  0  0  0  0  0  0  # atno 6907 bound_to 6896
  150.7938  134.6986  159.6546 H   0  0  0  0  0  0  0  0  0  0  0  0  # atno 6908 bound_to 6896
  152.4022  134.6271  160.0117 H   0  0  0  0  0  0  0  0  0  0  0  0  # atno 6909 bound_to 6896
  146.1166  140.5501  142.8754 H   0  0  0  0  0  0  0  0  0  0  0  0  # atno 7974 bound_to 7965
  156.2482  140.1941  156.6790 H   0  0  0  0  0  0  0  0  0  0  0  0  # atno 8008 bound_to 7997
  154.6336  140.0592  156.9788 H   0  0  0  0  0  0  0  0  0  0  0  0  # atno 8009 bound_to 7997
  155.1672  140.3265  155.4402 H   0  0  0  0  0  0  0  0  0  0  0  0  # atno 8010 bound_to 7997
  140.5424  143.2314  151.7065 H   0  0  0  0  0  0  0  0  0  0  0  0  # atno 10167 bound_to 10162
  157.3742  131.0983  151.0800 H   0  0  0  0  0  0  0  0  0  0  0  0  # atno 10718 bound_to 10713
  153.1797  135.6826  153.8495 H   0  0  0  0  0  0  0  0  0  0  0  0  # atno 10763 bound_to 10752
  153.7831  135.3179  155.3369 H   0  0  0  0  0  0  0  0  0  0  0  0  # atno 10764 bound_to 10752
  154.8052  135.4753  154.0468 H   0  0  0  0  0  0  0  0  0  0  0  0  # atno 10765 bound_to 10752
  140.6774  133.9183  155.8533 H   0  0  0  0  0  0  0  0  0  0  0  0  # atno 11005 bound_to 11000
  144.7558  140.5304  143.6770 LP  0  0  0  0  0  0  0  0  0  0  0  0  # atno 17320 bound_to 7965
  145.5554  139.1478  143.3371 LP  0  0  0  0  0  0  0  0  0  0  0  0  # atno 17321 bound_to 7965
  139.4994  144.3948  152.0243 LP  0  0  0  0  0  0  0  0  0  0  0  0  # atno 17342 bound_to 10162
  140.3058  144.3595  150.6047 LP  0  0  0  0  0  0  0  0  0  0  0  0  # atno 17343 bound_to 10162
  157.1892  130.6344  149.5698 LP  0  0  0  0  0  0  0  0  0  0  0  0  # atno 17370 bound_to 10713
  155.9762  130.4727  150.6510 LP  0  0  0  0  0  0  0  0  0  0  0  0  # atno 17371 bound_to 10713
  141.0345  134.0709  157.3976 LP  0  0  0  0  0  0  0  0  0  0  0  0  # atno 17394 bound_to 11000
  139.8962  135.0145  156.7042 LP  0  0  0  0  0  0  0  0  0  0  0  0  # atno 17395 bound_to 11000

$$$$
