AV-unprocessed.smi:3269|AV-procd|sdf|12510|dock1
  -GOLD-   2272018413D 1   1.00000     0.00000
 Structure written by MMmdl.
 39 40  0  0  0  0  0  0  0  0  1 V2000
  154.3472  140.5841  160.4826 C   0  0  0  0  0  0  0  0  0  0  0  0
  153.2795  141.5083  159.9721 C   0  0  0  0  0  0  0  0  0  0  0  0
  153.3977  142.8109  160.1696 N   0  0  0  0  0  0  0  0  0  0  0  0
  152.3005  143.3461  159.5976 N   0  0  0  0  0  0  0  0  0  0  0  0
  152.1084  144.7829  159.6334 C   0  0  0  0  0  0  0  0  0  0  0  0
  151.4886  142.3795  159.0365 C   0  0  0  0  0  0  0  0  0  0  0  0
  150.2137  142.7186  158.3338 C   0  0  0  0  0  0  0  0  0  0  0  0
  152.0876  141.1699  159.2669 C   0  0  0  0  0  0  0  0  0  0  0  0
  151.6148  139.7903  158.8752 C   0  0  0  0  0  0  0  0  0  0  0  0
  152.0038  139.4432  157.4332 C   0  0  0  0  0  0  0  0  0  0  0  0
  153.1848  139.3690  157.0909 O   0  0  0  0  0  0  0  0  0  0  0  0
  150.9809  139.2339  156.5909 N   0  0  0  0  0  0  0  0  0  0  0  0
  151.1053  138.8621  155.1846 C   0  0  0  0  0  0  0  0  0  0  0  0
  150.7520  137.3845  154.9269 C   0  0  2  0  0  0  0  0  0  0  0  0
  149.3559  136.9441  155.3765 C   0  0  0  0  0  0  0  0  0  0  0  0
  149.5529  135.4546  155.5453 C   0  0  0  0  0  0  0  0  0  0  0  0
  150.9596  135.3937  156.1333 C   0  0  0  0  0  0  0  0  0  0  0  0
  151.6618  136.5058  155.5849 O   0  0  0  0  0  0  0  0  0  0  0  0
  154.6377  139.8663  159.7161 H   0  0  0  0  0  0  0  0  0  0  0  0
  153.9942  140.0222  161.3473 H   0  0  0  0  0  0  0  0  0  0  0  0
  155.2444  141.1273  160.7813 H   0  0  0  0  0  0  0  0  0  0  0  0
  151.1479  145.0124  160.0955 H   0  0  0  0  0  0  0  0  0  0  0  0
  152.1198  145.1791  158.6179 H   0  0  0  0  0  0  0  0  0  0  0  0
  152.9001  145.2643  160.2095 H   0  0  0  0  0  0  0  0  0  0  0  0
  149.8190  141.8578  157.7944 H   0  0  0  0  0  0  0  0  0  0  0  0
  150.3686  143.5183  157.6094 H   0  0  0  0  0  0  0  0  0  0  0  0
  149.4562  143.0471  159.0454 H   0  0  0  0  0  0  0  0  0  0  0  0
  152.0365  139.0368  159.5416 H   0  0  0  0  0  0  0  0  0  0  0  0
  150.5324  139.7010  158.9695 H   0  0  0  0  0  0  0  0  0  0  0  0
  150.0436  139.3190  156.9563 H   0  0  0  0  0  0  0  0  0  0  0  0
  150.4292  139.4987  154.6136 H   0  0  0  0  0  0  0  0  0  0  0  0
  152.1092  139.0789  154.8155 H   0  0  0  0  0  0  0  0  0  0  0  0
  150.8464  137.1836  153.8587 H   0  0  0  0  0  0  0  0  0  0  0  0
  149.0835  137.3861  156.3353 H   0  0  0  0  0  0  0  0  0  0  0  0
  148.5789  137.1936  154.6537 H   0  0  0  0  0  0  0  0  0  0  0  0
  148.8023  134.9909  156.1859 H   0  0  0  0  0  0  0  0  0  0  0  0
  149.5286  134.9601  154.5734 H   0  0  0  0  0  0  0  0  0  0  0  0
  150.9221  135.5099  157.2167 H   0  0  0  0  0  0  0  0  0  0  0  0
  151.4644  134.4534  155.9115 H   0  0  0  0  0  0  0  0  0  0  0  0
  1  2  1  0  0  0  0
  1 19  1  0  0  0  0
  1 20  1  0  0  0  0
  1 21  1  0  0  0  0
  2  8  1  0  0  0  0
  2  3  2  0  0  0  0
  3  4  1  0  0  0  0
  4  5  1  0  0  0  0
  4  6  1  0  0  0  0
  5 22  1  0  0  0  0
  5 23  1  0  0  0  0
  5 24  1  0  0  0  0
  6  7  1  0  0  0  0
  6  8  2  0  0  0  0
  7 25  1  0  0  0  0
  7 26  1  0  0  0  0
  7 27  1  0  0  0  0
  8  9  1  0  0  0  0
  9 10  1  0  0  0  0
  9 28  1  0  0  0  0
  9 29  1  0  0  0  0
 10 11  2  0  0  0  0
 10 12  1  0  0  0  0
 12 13  1  0  0  0  0
 12 30  1  0  0  0  0
 13 14  1  0  0  0  0
 13 31  1  0  0  0  0
 13 32  1  0  0  0  0
 14 18  1  0  0  0  0
 14 15  1  0  0  0  0
 14 33  1  0  0  0  0
 15 16  1  0  0  0  0
 15 34  1  0  0  0  0
 15 35  1  0  0  0  0
 16 17  1  0  0  0  0
 16 36  1  0  0  0  0
 16 37  1  0  0  0  0
 17 18  1  0  0  0  0
 17 38  1  0  0  0  0
 17 39  1  0  0  0  0
M  END
> <s_m_source_file>
AV-unprocessed.smi

> <i_m_source_file_index>
3269

> <i_lp_mmshare_version>
43012

> <i_f3d_flags>
0

> <s_epik_input>
W0NIM11jMW5uKFtDSDNdKWMoW0NIM10pYzFbQ0gyXUMoPU8pW05IXVtDSDJdW0NAQEhdMltDSDJdW0NIMl1bQ0gyXU8y

> <s_epik_cmdline>
J2VwaWtfcHl0aG9uJywgJy1waCcsICc3LjAnLCAnLXRuJywgJzgnLCAnLW1hJywgJzIwMCcsICctbWV0YWxfYmluZGluZycsICctaW1hZScsICc8aW5maWxlLm1hZT4nLCAnLW9tYWUnLCAnPG91dGZpbGUubWFlPic=

> <r_lp_tautomer_probability>
1

> <r_epik_Ionization_Penalty>
0.00306713

> <r_epik_Ionization_Penalty_Charging>
0

> <r_epik_Ionization_Penalty_Neutral>
0.00306713

> <r_epik_State_Penalty>
0.00215672

> <r_epik_Charging_Adjusted_Penalty>
0.00215672

> <i_epik_Tot_Q>
0

> <i_epik_Tot_abs_Q>
0

> <r_epik_Metal_State_Penalty>
-0

> <b_epik_Metal_Only>
0

> <s_lp_Force_Field>
OPLS_2005

> <r_lp_Energy>
13.6043

> <b_lp_Chiralities_Consistent>
1

> <s_lp_Variant>
AV-unprocessed.smi:3269-1

> <Gold.Version>
5.8.1

> <Gold.Id.Protein>
6NUR|6NUR_protein|mol2

> <Gold.PLP.Fitness>
40.9132

> <Gold.PLP.PLP>
-35.9419

> <Gold.PLP.part.hbond>
-1.6668

> <Gold.PLP.part.metal>
0.0000

> <Gold.PLP.part.buried>
-5.3371

> <Gold.PLP.part.nonpolar>
-29.3595

> <Gold.PLP.part.repulsive>
0.1361

> <Gold.PLP.ligand.clash>
0.0000

> <Gold.PLP.ligand.torsion>
0.4359

> <Gold.PLP.Chemscore.Hbond>
1.9357

> <Gold.PLP.Chemscore.CHOScore>
0.0000

> <Gold.PLP.Chemscore.Metal>
0.0000

> <Gold.Chemscore.Hbonds>
donor molecule, donor type, donor heavy atom, donor atom, acceptor molecule, acceptor atom, score
      P1  H  7997  8010       L1    11  0.99
      P1  H 10752 10764       L1    18  0.95

> <Gold.PLP.Chemscore.Internal.Correction>
0.0359

> <Gold.Rescore>
     Score         DG    S(hbond)    S(metal)    S(lipo)     H(rot)  DE(clash)    DE(int)     intcor
     17.54     -18.15       1.90        0.00      86.90       1.50       0.23       0.39       ----

> <Gold.Chemscore.Fitness>
17.5372

> <Gold.Chemscore.DG>
-18.1524

> <Gold.Chemscore.ZeroCoef>
-5.4800

> <Gold.Chemscore.Hbond>
1.8988

> <Gold.Chemscore.Metal>
0.0000

> <Gold.Chemscore.Lipo>
86.9006

> <Gold.Chemscore.Internal_Hbond>
0.0000

> <Gold.Chemscore.DEClash>
0.2285

> <Gold.Chemscore.DEInternal>
0.3867

> <Gold.Chemscore.Rot>
1.4989

> <Gold.Chemscore.Internal.Correction>
   9.000000E+99

> <Gold.Chemscore.Hbonds>
donor molecule, donor type, donor heavy atom, donor atom, acceptor molecule, acceptor atom, score
      P1  H  7997  8010       L1    11  0.89
      P1  H 10752 10764       L1    18  0.21

> <Gold.Chemscore.Hbond.Weighted>
-6.3421

> <Gold.Chemscore.Metal.Weighted>
-0.0000

> <Gold.Chemscore.Lipo.Weighted>
-10.1674

> <Gold.Chemscore.Internal_Hbond.Weighted>
0.0000

> <Gold.Chemscore.DEClash.Weighted>
0.2285

> <Gold.Chemscore.DEInternal.Weighted>
0.3867

> <Gold.Chemscore.Rot.Weighted>
3.8371

> <Gold.Chemscore.Internal.Correction.Weighted>
   9.000000E+99

> <Gold.Protein.RotatedTorsions>
[ 6907 6896 6895 6894 ] final -157.27 input  -60.11 | X-H torsion
[ 7974 7965 7964 7962 ] final   22.37 input  175.53 | X-H torsion
[ 8008 7997 7996 7995 ] final   73.63 input   59.86 | X-H torsion
[ 10167 10162 10161 10158 ] final -149.50 input  -65.29 | X-H torsion
[ 10718 10713 10712 10709 ] final  154.41 input   66.30 | X-H torsion
[ 10763 10752 10751 10750 ] final  -61.10 input  -60.55 | X-H torsion
[ 11005 11000 10999 10996 ] final   55.00 input  -57.11 | X-H torsion

> <Gold.Protein.ActiveResidues>
 VAL166  LYS551  ARG553  GLY616  TRP617  ASP618  TYR619  PRO620  LYS621  CYS622 
 ASP623  PHE694  ASN695  SER759  ASP760  ASP761  ALA762  ILE779  LEU786  VAL792 
 PHE793  MET794  SER795  GLU796  ALA797  LYS798  CYS799  TRP800  GLU811  SER814 

> <Gold.Protein.RotatedAtoms>
  151.3002  133.4125  159.2638 H   0  0  0  0  0  0  0  0  0  0  0  0  # atno 6907 bound_to 6896
  151.0202  134.9463  159.8065 H   0  0  0  0  0  0  0  0  0  0  0  0  # atno 6908 bound_to 6896
  152.5322  134.2965  159.9115 H   0  0  0  0  0  0  0  0  0  0  0  0  # atno 6909 bound_to 6896
  146.2032  139.7895  142.8746 H   0  0  0  0  0  0  0  0  0  0  0  0  # atno 7974 bound_to 7965
  155.7865  140.3480  155.5326 H   0  0  0  0  0  0  0  0  0  0  0  0  # atno 8008 bound_to 7997
  155.8677  140.0981  157.1592 H   0  0  0  0  0  0  0  0  0  0  0  0  # atno 8009 bound_to 7997
  154.4015  140.1346  156.4026 H   0  0  0  0  0  0  0  0  0  0  0  0  # atno 8010 bound_to 7997
  139.7437  143.8623  152.2569 H   0  0  0  0  0  0  0  0  0  0  0  0  # atno 10167 bound_to 10162
  157.2320  131.0741  151.1847 H   0  0  0  0  0  0  0  0  0  0  0  0  # atno 10718 bound_to 10713
  154.2794  135.6275  153.5341 H   0  0  0  0  0  0  0  0  0  0  0  0  # atno 10763 bound_to 10752
  152.9868  135.5629  154.5512 H   0  0  0  0  0  0  0  0  0  0  0  0  # atno 10764 bound_to 10752
  154.5099  135.2876  155.1326 H   0  0  0  0  0  0  0  0  0  0  0  0  # atno 10765 bound_to 10752
  140.0642  134.5560  155.9118 H   0  0  0  0  0  0  0  0  0  0  0  0  # atno 11005 bound_to 11000
  145.3412  141.0288  143.3391 LP  0  0  0  0  0  0  0  0  0  0  0  0  # atno 17320 bound_to 7965
  144.8730  139.5010  143.6758 LP  0  0  0  0  0  0  0  0  0  0  0  0  # atno 17321 bound_to 7965
  139.8581  144.7131  150.9132 LP  0  0  0  0  0  0  0  0  0  0  0  0  # atno 17342 bound_to 10162
  140.7789  143.3841  151.1425 LP  0  0  0  0  0  0  0  0  0  0  0  0  # atno 17343 bound_to 10162
  157.3468  130.7061  149.6416 LP  0  0  0  0  0  0  0  0  0  0  0  0  # atno 17370 bound_to 10713
  155.9675  130.4264  150.4697 LP  0  0  0  0  0  0  0  0  0  0  0  0  # atno 17371 bound_to 10713
  141.1986  133.6602  156.5799 LP  0  0  0  0  0  0  0  0  0  0  0  0  # atno 17394 bound_to 11000
  140.3724  134.7594  157.4607 LP  0  0  0  0  0  0  0  0  0  0  0  0  # atno 17395 bound_to 11000

$$$$
