AV-unprocessed.smi:1215|AV-procd|sdf|5094|dock3
  -GOLD-   22720 4143D 1   1.00000     0.00000
 Structure written by MMmdl.
 46 47  0  0  0  0  0  0  0  0  2 V2000
  151.4604  139.5557  158.2814 C   0  0  0  0  0  0  0  0  0  0  0  0
  152.2120  139.5481  156.9451 C   0  0  0  0  0  0  0  0  0  0  0  0
  151.4583  138.8697  155.9092 N   0  0  0  0  0  0  0  0  0  0  0  0
  151.0858  137.5414  155.8575 C   0  0  0  0  0  0  0  0  0  0  0  0
  150.3972  137.3958  154.6864 C   0  0  0  0  0  0  0  0  0  0  0  0
  149.7919  136.2372  154.1371 N   0  0  0  0  0  0  0  0  0  0  0  0
  149.8457  134.9850  154.6193 C   0  0  0  0  0  0  0  0  0  0  0  0
  150.4426  134.6434  155.6405 O   0  0  0  0  0  0  0  0  0  0  0  0
  149.1561  134.1321  153.8483 N   0  0  0  0  0  0  0  0  0  0  0  0
  149.0314  132.7004  154.0987 C   0  0  0  0  0  0  0  0  0  0  0  0
  147.5646  132.2316  153.9869 C   0  0  0  0  0  0  0  0  0  0  0  0
  147.0227  132.3076  152.5988 N   0  3  2  0  0  0  0  0  0  0  0  0
  146.5344  133.6787  152.2686 C   0  0  0  0  0  0  0  0  0  0  0  0
  146.0910  133.7999  150.8039 C   0  0  0  0  0  0  0  0  0  0  0  0
  145.0039  132.7747  150.4848 C   0  0  0  0  0  0  0  0  0  0  0  0
  145.5192  131.3741  150.8213 C   0  0  0  0  0  0  0  0  0  0  0  0
  145.9867  131.2655  152.2900 C   0  0  1  0  0  0  0  0  0  0  0  0
  146.4734  129.8227  152.5429 C   0  0  0  0  0  0  0  0  0  0  0  0
  150.3945  138.6779  154.0775 C   0  0  0  0  0  0  0  0  0  0  0  0
  151.0371  139.5638  154.8231 N   0  0  0  0  0  0  0  0  0  0  0  0
  152.0326  140.0836  159.0444 H   0  0  0  0  0  0  0  0  0  0  0  0
  151.2824  138.5417  158.6408 H   0  0  0  0  0  0  0  0  0  0  0  0
  150.4944  140.0527  158.1864 H   0  0  0  0  0  0  0  0  0  0  0  0
  152.4097  140.5700  156.6194 H   0  0  0  0  0  0  0  0  0  0  0  0
  153.1802  139.0574  157.0553 H   0  0  0  0  0  0  0  0  0  0  0  0
  151.3422  136.8441  156.6413 H   0  0  0  0  0  0  0  0  0  0  0  0
  149.2625  136.3788  153.2891 H   0  0  0  0  0  0  0  0  0  0  0  0
  148.6963  134.4963  153.0263 H   0  0  0  0  0  0  0  0  0  0  0  0
  149.6640  132.2042  153.3646 H   0  0  0  0  0  0  0  0  0  0  0  0
  149.4387  132.4570  155.0816 H   0  0  0  0  0  0  0  0  0  0  0  0
  147.5415  131.2049  154.3424 H   0  0  0  0  0  0  0  0  0  0  0  0
  146.9265  132.8042  154.6617 H   0  0  0  0  0  0  0  0  0  0  0  0
  145.7073  133.9385  152.9314 H   0  0  0  0  0  0  0  0  0  0  0  0
  147.3143  134.4191  152.4353 H   0  0  0  0  0  0  0  0  0  0  0  0
  145.7206  134.8068  150.6088 H   0  0  0  0  0  0  0  0  0  0  0  0
  146.9469  133.6510  150.1443 H   0  0  0  0  0  0  0  0  0  0  0  0
  144.1038  132.9911  151.0618 H   0  0  0  0  0  0  0  0  0  0  0  0
  144.7251  132.8332  149.4321 H   0  0  0  0  0  0  0  0  0  0  0  0
  144.7305  130.6471  150.6233 H   0  0  0  0  0  0  0  0  0  0  0  0
  146.3435  131.1214  150.1525 H   0  0  0  0  0  0  0  0  0  0  0  0
  145.1255  131.4483  152.9350 H   0  0  0  0  0  0  0  0  0  0  0  0
  145.7671  129.0971  152.1380 H   0  0  0  0  0  0  0  0  0  0  0  0
  146.5601  129.5916  153.6039 H   0  0  0  0  0  0  0  0  0  0  0  0
  147.4387  129.6378  152.0703 H   0  0  0  0  0  0  0  0  0  0  0  0
  149.9577  138.9896  153.1403 H   0  0  0  0  0  0  0  0  0  0  0  0
  147.7993  132.1185  151.9812 H   0  0  0  0  0  0  0  0  0  0  0  0
  1  2  1  0  0  0  0
  1 21  1  0  0  0  0
  1 22  1  0  0  0  0
  1 23  1  0  0  0  0
  2  3  1  0  0  0  0
  2 24  1  0  0  0  0
  2 25  1  0  0  0  0
  3 20  1  0  0  0  0
  3  4  1  0  0  0  0
  4  5  2  0  0  0  0
  4 26  1  0  0  0  0
  5  6  1  0  0  0  0
  5 19  1  0  0  0  0
  6  7  1  0  0  0  0
  6 27  1  0  0  0  0
  7  8  2  0  0  0  0
  7  9  1  0  0  0  0
  9 10  1  0  0  0  0
  9 28  1  0  0  0  0
 10 11  1  0  0  0  0
 10 29  1  0  0  0  0
 10 30  1  0  0  0  0
 11 12  1  0  0  0  0
 11 31  1  0  0  0  0
 11 32  1  0  0  0  0
 12 17  1  0  0  0  0
 12 13  1  0  0  0  0
 12 46  1  0  0  0  0
 13 14  1  0  0  0  0
 13 33  1  0  0  0  0
 13 34  1  0  0  0  0
 14 15  1  0  0  0  0
 14 35  1  0  0  0  0
 14 36  1  0  0  0  0
 15 16  1  0  0  0  0
 15 37  1  0  0  0  0
 15 38  1  0  0  0  0
 16 17  1  0  0  0  0
 16 39  1  0  0  0  0
 16 40  1  0  0  0  0
 17 18  1  0  0  0  0
 17 41  1  0  0  0  0
 18 42  1  0  0  0  0
 18 43  1  0  0  0  0
 18 44  1  0  0  0  0
 19 20  2  0  0  0  0
 19 45  1  0  0  0  0
M  CHG  1  12   1
M  END
> <s_m_source_file>
AV-unprocessed.smi

> <i_m_source_file_index>
1215

> <i_lp_mmshare_version>
43012

> <i_f3d_flags>
0

> <s_epik_input>
W0NIM11bQ0gyXW4xW2NIXWMoW2NIXW4xKVtOSF1DKD1PKVtOSF1bQ0gyXVtDSDJdTjJbQ0gyXVtDSDJdW0NIMl1bQ0gyXVtDQEhdMltDSDNd

> <s_epik_cmdline>
J2VwaWtfcHl0aG9uJywgJy1waCcsICc3LjAnLCAnLXRuJywgJzgnLCAnLW1hJywgJzIwMCcsICctbWV0YWxfYmluZGluZycsICctaW1hZScsICc8aW5maWxlLm1hZT4nLCAnLW9tYWUnLCAnPG91dGZpbGUubWFlPic=

> <r_lp_tautomer_probability>
1

> <r_epik_Ionization_Penalty>
0.00247187

> <r_epik_Ionization_Penalty_Charging>
0.00232067

> <r_epik_Ionization_Penalty_Neutral>
0.000151201

> <r_epik_State_Penalty>
0.00160128

> <r_epik_Charging_Adjusted_Penalty>
0.00392194

> <i_epik_Tot_Q>
1

> <i_epik_Tot_abs_Q>
1

> <r_epik_Metal_State_Penalty>
-0

> <b_epik_Metal_Only>
0

> <s_lp_Force_Field>
OPLS_2005

> <r_lp_Energy>
23.5711

> <b_lp_Chiralities_Consistent>
1

> <s_lp_Variant>
AV-unprocessed.smi:1215-1

> <Gold.Version>
5.8.1

> <Gold.Id.Protein>
6NUR|6NUR_protein|mol2

> <Gold.PLP.Fitness>
42.7537

> <Gold.PLP.PLP>
-32.7672

> <Gold.PLP.part.hbond>
-3.6846

> <Gold.PLP.part.metal>
0.0000

> <Gold.PLP.part.buried>
-3.2289

> <Gold.PLP.part.nonpolar>
-25.7959

> <Gold.PLP.part.repulsive>
0.1547

> <Gold.PLP.ligand.clash>
0.0000

> <Gold.PLP.ligand.torsion>
0.4223

> <Gold.PLP.Chemscore.Hbond>
2.5880

> <Gold.PLP.Chemscore.CHOScore>
1.0000

> <Gold.PLP.Chemscore.Metal>
0.0000

> <Gold.Chemscore.Hbonds>
donor molecule, donor type, donor heavy atom, donor atom, acceptor molecule, acceptor atom, score
      L1  H     6    27       P1  7948  0.78
      L1  H     9    28       P1  7948  0.50
      L1  H    12    46       P1 10747  0.02
      P1  H  7989  7998       L1    20  1.00
      L1  C    19    45       P1  7957  1.00

> <Gold.PLP.Chemscore.Internal.Correction>
0.0671

> <Gold.Rescore>
     Score         DG    S(hbond)    S(metal)    S(lipo)     H(rot)  DE(clash)    DE(int)     intcor
     14.85     -16.91       1.66        0.00      85.19       1.59       0.40       1.67       ----

> <Gold.Chemscore.Fitness>
14.8514

> <Gold.Chemscore.DG>
-16.9133

> <Gold.Chemscore.ZeroCoef>
-5.4800

> <Gold.Chemscore.Hbond>
1.6584

> <Gold.Chemscore.Metal>
0.0000

> <Gold.Chemscore.Lipo>
85.1892

> <Gold.Chemscore.Internal_Hbond>
0.0000

> <Gold.Chemscore.DEClash>
0.3954

> <Gold.Chemscore.DEInternal>
1.6665

> <Gold.Chemscore.Rot>
1.5909

> <Gold.Chemscore.Internal.Correction>
   9.000000E+99

> <Gold.Chemscore.Hbonds>
donor molecule, donor type, donor heavy atom, donor atom, acceptor molecule, acceptor atom, score
      L1  H     6    27       P1  7948  0.66
      L1  H     9    28       P1  7948  0.07
      L1  H    12    46       P1 10747  0.07
      P1  H  7989  7998       L1    20  0.34

> <Gold.Chemscore.Hbond.Weighted>
-5.5389

> <Gold.Chemscore.Metal.Weighted>
-0.0000

> <Gold.Chemscore.Lipo.Weighted>
-9.9671

> <Gold.Chemscore.Internal_Hbond.Weighted>
0.0000

> <Gold.Chemscore.DEClash.Weighted>
0.3954

> <Gold.Chemscore.DEInternal.Weighted>
1.6665

> <Gold.Chemscore.Rot.Weighted>
4.0728

> <Gold.Chemscore.Internal.Correction.Weighted>
   9.000000E+99

> <Gold.Protein.RotatedTorsions>
[ 6907 6896 6895 6894 ] final   80.11 input  -60.11 | X-H torsion
[ 7974 7965 7964 7962 ] final   96.85 input  175.53 | X-H torsion
[ 8008 7997 7996 7995 ] final   76.62 input   59.86 | X-H torsion
[ 10167 10162 10161 10158 ] final   80.61 input  -65.29 | X-H torsion
[ 10718 10713 10712 10709 ] final   76.30 input   66.30 | X-H torsion
[ 10763 10752 10751 10750 ] final  128.98 input  -60.55 | X-H torsion
[ 11005 11000 10999 10996 ] final   80.91 input  -57.11 | X-H torsion

> <Gold.Protein.ActiveResidues>
 VAL166  LYS551  ARG553  GLY616  TRP617  ASP618  TYR619  PRO620  LYS621  CYS622 
 ASP623  PHE694  ASN695  SER759  ASP760  ASP761  ALA762  ILE779  LEU786  VAL792 
 PHE793  MET794  SER795  GLU796  ALA797  LYS798  CYS799  TRP800  GLU811  SER814 

> <Gold.Protein.RotatedAtoms>
  152.5223  134.3408  159.9216 H   0  0  0  0  0  0  0  0  0  0  0  0  # atno 6907 bound_to 6896
  151.3358  133.3976  159.2674 H   0  0  0  0  0  0  0  0  0  0  0  0  # atno 6908 bound_to 6896
  150.9843  134.9210  159.7920 H   0  0  0  0  0  0  0  0  0  0  0  0  # atno 6909 bound_to 6896
  145.4333  139.2308  143.3132 H   0  0  0  0  0  0  0  0  0  0  0  0  # atno 7974 bound_to 7965
  155.8299  140.3466  155.5566 H   0  0  0  0  0  0  0  0  0  0  0  0  # atno 8008 bound_to 7997
  155.8253  140.0919  157.1845 H   0  0  0  0  0  0  0  0  0  0  0  0  # atno 8009 bound_to 7997
  154.4004  140.1422  156.3536 H   0  0  0  0  0  0  0  0  0  0  0  0  # atno 8010 bound_to 7997
  139.9479  144.6046  150.8189 H   0  0  0  0  0  0  0  0  0  0  0  0  # atno 10167 bound_to 10162
  157.6668  130.9768  150.1478 H   0  0  0  0  0  0  0  0  0  0  0  0  # atno 10718 bound_to 10713
  153.7343  135.3234  155.3292 H   0  0  0  0  0  0  0  0  0  0  0  0  # atno 10763 bound_to 10752
  154.8316  135.4529  154.1090 H   0  0  0  0  0  0  0  0  0  0  0  0  # atno 10764 bound_to 10752
  153.2246  135.6952  153.8041 H   0  0  0  0  0  0  0  0  0  0  0  0  # atno 10765 bound_to 10752
  139.9117  134.7957  156.1972 H   0  0  0  0  0  0  0  0  0  0  0  0  # atno 11005 bound_to 11000
  146.2595  140.5073  142.8859 LP  0  0  0  0  0  0  0  0  0  0  0  0  # atno 17320 bound_to 7965
  144.8168  140.6482  143.6379 LP  0  0  0  0  0  0  0  0  0  0  0  0  # atno 17321 bound_to 7965
  140.7592  143.3123  151.2816 LP  0  0  0  0  0  0  0  0  0  0  0  0  # atno 17342 bound_to 10162
  139.6652  144.0118  152.2718 LP  0  0  0  0  0  0  0  0  0  0  0  0  # atno 17343 bound_to 10162
  156.2284  130.3680  149.8473 LP  0  0  0  0  0  0  0  0  0  0  0  0  # atno 17370 bound_to 10713
  156.6306  130.8664  151.3494 LP  0  0  0  0  0  0  0  0  0  0  0  0  # atno 17371 bound_to 10713
  141.0547  133.6871  156.1838 LP  0  0  0  0  0  0  0  0  0  0  0  0  # atno 17394 bound_to 11000
  140.6755  134.4822  157.5588 LP  0  0  0  0  0  0  0  0  0  0  0  0  # atno 17395 bound_to 11000

$$$$
