AV-unprocessed.smi:1830|AV-procd|sdf|7441|dock10
  -GOLD-   22720 9133D 1   1.00000     0.00000
 Structure written by MMmdl.
 52 55  0  0  0  0  0  0  0  0  1 V2000
  151.1149  134.9429  155.1248 O   0  0  0  0  0  0  0  0  0  0  0  0
  150.2577  135.3606  154.3461 C   0  0  0  0  0  0  0  0  0  0  0  0
  150.0417  136.6618  154.1119 N   0  0  0  0  0  0  0  0  0  0  0  0
  150.7696  137.7578  154.7410 C   0  0  0  0  0  0  0  0  0  0  0  0
  150.5131  139.1006  154.0233 C   0  0  1  0  0  0  0  0  0  0  0  0
  149.0577  139.5972  154.1899 C   0  0  0  0  0  0  0  0  0  0  0  0
  148.8449  140.1174  155.5275 N   0  0  0  0  0  0  0  0  0  0  0  0
  147.5522  140.7006  155.8008 C   0  0  0  0  0  0  0  0  0  0  0  0
  147.7640  141.5036  157.0955 C   0  0  0  0  0  0  0  0  0  0  0  0
  149.2905  141.7312  157.1617 C   0  0  0  0  0  0  0  0  0  0  0  0
  149.7767  141.1716  155.8232 C   0  0  1  0  0  0  0  0  0  0  0  0
  151.2206  140.6567  155.7549 C   0  0  0  0  0  0  0  0  0  0  0  0
  151.4431  140.1098  154.4511 O   0  0  0  0  0  0  0  0  0  0  0  0
  149.4078  134.5950  153.6419 N   0  0  0  0  0  0  0  0  0  0  0  0
  149.3158  133.1743  153.6072 C   0  0  0  0  0  0  0  0  0  0  0  0
  150.2359  132.3363  154.2835 C   0  0  0  0  0  0  0  0  0  0  0  0
  150.0904  130.9408  154.1917 C   0  0  0  0  0  0  0  0  0  0  0  0
  149.0340  130.4299  153.4183 C   0  0  0  0  0  0  0  0  0  0  0  0
  148.1603  131.2132  152.7545 N   0  0  0  0  0  0  0  0  0  0  0  0
  148.2888  132.5600  152.8404 C   0  0  0  0  0  0  0  0  0  0  0  0
  147.3788  133.3517  152.1088 N   0  0  0  0  0  0  0  0  0  0  0  0
  146.5517  132.5865  151.1801 C   0  0  0  0  0  0  0  0  0  0  0  0
  145.1762  133.2558  151.1743 C   0  0  0  0  0  0  0  0  0  0  0  0
  145.0919  133.8755  152.5635 C   0  0  0  0  0  0  0  0  0  0  0  0
  146.5340  134.3114  152.8183 C   0  0  0  0  0  0  0  0  0  0  0  0
  149.3108  136.9153  153.4634 H   0  0  0  0  0  0  0  0  0  0  0  0
  150.4862  137.8339  155.7921 H   0  0  0  0  0  0  0  0  0  0  0  0
  151.8307  137.5098  154.7347 H   0  0  0  0  0  0  0  0  0  0  0  0
  150.6874  138.9463  152.9578 H   0  0  0  0  0  0  0  0  0  0  0  0
  148.8602  140.3812  153.4575 H   0  0  0  0  0  0  0  0  0  0  0  0
  148.3532  138.7913  153.9816 H   0  0  0  0  0  0  0  0  0  0  0  0
  147.2636  141.3729  154.9910 H   0  0  0  0  0  0  0  0  0  0  0  0
  146.7790  139.9381  155.9002 H   0  0  0  0  0  0  0  0  0  0  0  0
  147.2099  142.4424  157.0714 H   0  0  0  0  0  0  0  0  0  0  0  0
  147.4270  140.9373  157.9647 H   0  0  0  0  0  0  0  0  0  0  0  0
  149.5547  142.7813  157.2886 H   0  0  0  0  0  0  0  0  0  0  0  0
  149.7176  141.1701  157.9940 H   0  0  0  0  0  0  0  0  0  0  0  0
  149.6652  141.9593  155.0750 H   0  0  0  0  0  0  0  0  0  0  0  0
  151.9265  141.4693  155.9262 H   0  0  0  0  0  0  0  0  0  0  0  0
  151.4080  139.9031  156.5206 H   0  0  0  0  0  0  0  0  0  0  0  0
  148.6910  135.0855  153.1275 H   0  0  0  0  0  0  0  0  0  0  0  0
  151.0570  132.7370  154.8575 H   0  0  0  0  0  0  0  0  0  0  0  0
  150.7761  130.2780  154.6986 H   0  0  0  0  0  0  0  0  0  0  0  0
  148.8914  129.3637  153.3226 H   0  0  0  0  0  0  0  0  0  0  0  0
  146.9896  132.5725  150.1819 H   0  0  0  0  0  0  0  0  0  0  0  0
  146.4618  131.5532  151.5200 H   0  0  0  0  0  0  0  0  0  0  0  0
  145.1490  134.0421  150.4187 H   0  0  0  0  0  0  0  0  0  0  0  0
  144.3648  132.5578  150.9661 H   0  0  0  0  0  0  0  0  0  0  0  0
  144.3817  134.7002  152.6236 H   0  0  0  0  0  0  0  0  0  0  0  0
  144.7978  133.1179  153.2911 H   0  0  0  0  0  0  0  0  0  0  0  0
  146.7477  134.4019  153.8833 H   0  0  0  0  0  0  0  0  0  0  0  0
  146.7081  135.2935  152.3775 H   0  0  0  0  0  0  0  0  0  0  0  0
  1  2  2  0  0  0  0
  2  3  1  0  0  0  0
  2 14  1  0  0  0  0
  3  4  1  0  0  0  0
  3 26  1  0  0  0  0
  4  5  1  0  0  0  0
  4 27  1  0  0  0  0
  4 28  1  0  0  0  0
  5 13  1  0  0  0  0
  5  6  1  0  0  0  0
  5 29  1  0  0  0  0
  6  7  1  0  0  0  0
  6 30  1  0  0  0  0
  6 31  1  0  0  0  0
  7 11  1  0  0  0  0
  7  8  1  0  0  0  0
  8  9  1  0  0  0  0
  8 32  1  0  0  0  0
  8 33  1  0  0  0  0
  9 10  1  0  0  0  0
  9 34  1  0  0  0  0
  9 35  1  0  0  0  0
 10 11  1  0  0  0  0
 10 36  1  0  0  0  0
 10 37  1  0  0  0  0
 11 12  1  0  0  0  0
 11 38  1  0  0  0  0
 12 13  1  0  0  0  0
 12 39  1  0  0  0  0
 12 40  1  0  0  0  0
 14 15  1  0  0  0  0
 14 41  1  0  0  0  0
 15 20  1  0  0  0  0
 15 16  2  0  0  0  0
 16 17  1  0  0  0  0
 16 42  1  0  0  0  0
 17 18  2  0  0  0  0
 17 43  1  0  0  0  0
 18 19  1  0  0  0  0
 18 44  1  0  0  0  0
 19 20  2  0  0  0  0
 20 21  1  0  0  0  0
 21 25  1  0  0  0  0
 21 22  1  0  0  0  0
 22 23  1  0  0  0  0
 22 45  1  0  0  0  0
 22 46  1  0  0  0  0
 23 24  1  0  0  0  0
 23 47  1  0  0  0  0
 23 48  1  0  0  0  0
 24 25  1  0  0  0  0
 24 49  1  0  0  0  0
 24 50  1  0  0  0  0
 25 51  1  0  0  0  0
 25 52  1  0  0  0  0
M  END
> <s_m_source_file>
AV-unprocessed.smi

> <i_m_source_file_index>
1830

> <i_lp_mmshare_version>
43012

> <i_f3d_flags>
0

> <s_epik_input>
W0NIMl0xW0NIMl1bQ0gyXVtDQEhdKE4xMilbQ0gyXU9bQ0BASF0oW0NIMl0yKVtDSDJdW05IXUMoPU8pW05IXWMzW2NIXVtjSF1bY0hdbmMzTjRbQ0gyXVtDSDJdW0NIMl1bQ0gyXTQ=

> <s_epik_cmdline>
J2VwaWtfcHl0aG9uJywgJy1waCcsICc3LjAnLCAnLXRuJywgJzgnLCAnLW1hJywgJzIwMCcsICctbWV0YWxfYmluZGluZycsICctaW1hZScsICc8aW5maWxlLm1hZT4nLCAnLW9tYWUnLCAnPG91dGZpbGUubWFlPic=

> <r_lp_tautomer_probability>
1

> <r_epik_Ionization_Penalty>
1.16487

> <r_epik_Ionization_Penalty_Charging>
0

> <r_epik_Ionization_Penalty_Neutral>
1.16487

> <r_epik_State_Penalty>
1.21807

> <r_epik_Charging_Adjusted_Penalty>
1.21807

> <i_epik_Tot_Q>
0

> <i_epik_Tot_abs_Q>
0

> <r_epik_Metal_State_Penalty>
1.19922

> <b_epik_Metal_Only>
0

> <s_lp_Force_Field>
OPLS_2005

> <r_lp_Energy>
78.6276

> <b_lp_Chiralities_Consistent>
1

> <s_lp_Variant>
AV-unprocessed.smi:1830-10

> <Gold.Version>
5.8.1

> <Gold.Id.Protein>
6NUR|6NUR_protein|mol2

> <Gold.PLP.Fitness>
48.6363

> <Gold.PLP.PLP>
-40.3372

> <Gold.PLP.part.hbond>
-4.3228

> <Gold.PLP.part.metal>
0.0000

> <Gold.PLP.part.buried>
-2.9741

> <Gold.PLP.part.nonpolar>
-31.6242

> <Gold.PLP.part.repulsive>
0.5314

> <Gold.PLP.ligand.clash>
0.0000

> <Gold.PLP.ligand.torsion>
0.2368

> <Gold.PLP.Chemscore.Hbond>
2.8815

> <Gold.PLP.Chemscore.CHOScore>
0.0000

> <Gold.PLP.Chemscore.Metal>
0.0000

> <Gold.Chemscore.Hbonds>
donor molecule, donor type, donor heavy atom, donor atom, acceptor molecule, acceptor atom, score
      L1  H     3    26       P1  7948  0.56
      L1  H    14    41       P1  7948  0.50
      P1  H  7989  7998       L1    13  0.24
      P1  H 10752 10765       L1     1  0.77

> <Gold.PLP.Chemscore.Internal.Correction>
0.1280

> <Gold.Rescore>
     Score         DG    S(hbond)    S(metal)    S(lipo)     H(rot)  DE(clash)    DE(int)     intcor
     15.58     -17.38       1.66        0.00      84.49       1.37       0.15       1.65       ----

> <Gold.Chemscore.Fitness>
15.5821

> <Gold.Chemscore.DG>
-17.3822

> <Gold.Chemscore.ZeroCoef>
-5.4800

> <Gold.Chemscore.Hbond>
1.6574

> <Gold.Chemscore.Metal>
0.0000

> <Gold.Chemscore.Lipo>
84.4902

> <Gold.Chemscore.Internal_Hbond>
0.0000

> <Gold.Chemscore.DEClash>
0.1477

> <Gold.Chemscore.DEInternal>
1.6525

> <Gold.Chemscore.Rot>
1.3746

> <Gold.Chemscore.Internal.Correction>
   9.000000E+99

> <Gold.Chemscore.Hbonds>
donor molecule, donor type, donor heavy atom, donor atom, acceptor molecule, acceptor atom, score
      L1  H     3    26       P1  7948  0.54
      L1  H    14    41       P1  7948  0.30
      P1  H  7989  7998       L1    13  0.16
      P1  H 10752 10765       L1     1  0.72

> <Gold.Chemscore.Hbond.Weighted>
-5.5357

> <Gold.Chemscore.Metal.Weighted>
-0.0000

> <Gold.Chemscore.Lipo.Weighted>
-9.8854

> <Gold.Chemscore.Internal_Hbond.Weighted>
0.0000

> <Gold.Chemscore.DEClash.Weighted>
0.1477

> <Gold.Chemscore.DEInternal.Weighted>
1.6525

> <Gold.Chemscore.Rot.Weighted>
3.5189

> <Gold.Chemscore.Internal.Correction.Weighted>
   9.000000E+99

> <Gold.Protein.RotatedTorsions>
[ 6907 6896 6895 6894 ] final   76.10 input  -60.11 | X-H torsion
[ 7974 7965 7964 7962 ] final  114.35 input  175.53 | X-H torsion
[ 8008 7997 7996 7995 ] final -148.09 input   59.86 | X-H torsion
[ 10167 10162 10161 10158 ] final  -86.13 input  -65.29 | X-H torsion
[ 10718 10713 10712 10709 ] final   94.03 input   66.30 | X-H torsion
[ 10763 10752 10751 10750 ] final -164.15 input  -60.55 | X-H torsion
[ 11005 11000 10999 10996 ] final   -8.56 input  -57.11 | X-H torsion

> <Gold.Protein.ActiveResidues>
 VAL166  LYS551  ARG553  GLY616  TRP617  ASP618  TYR619  PRO620  LYS621  CYS622 
 ASP623  PHE694  ASN695  SER759  ASP760  ASP761  ALA762  ILE779  LEU786  VAL792 
 PHE793  MET794  SER795  GLU796  ALA797  LYS798  CYS799  TRP800  GLU811  SER814 

> <Gold.Protein.RotatedAtoms>
  152.5057  134.4019  159.9419 H   0  0  0  0  0  0  0  0  0  0  0  0  # atno 6907 bound_to 6896
  151.3984  133.3759  159.2737 H   0  0  0  0  0  0  0  0  0  0  0  0  # atno 6908 bound_to 6896
  150.9380  134.8812  159.7653 H   0  0  0  0  0  0  0  0  0  0  0  0  # atno 6909 bound_to 6896
  145.2055  139.2931  143.4296 H   0  0  0  0  0  0  0  0  0  0  0  0  # atno 7974 bound_to 7965
  155.5861  140.0648  157.2771 H   0  0  0  0  0  0  0  0  0  0  0  0  # atno 8008 bound_to 7997
  154.4318  140.1843  156.1073 H   0  0  0  0  0  0  0  0  0  0  0  0  # atno 8009 bound_to 7997
  156.0268  140.3311  155.7100 H   0  0  0  0  0  0  0  0  0  0  0  0  # atno 8010 bound_to 7997
  140.3971  143.2679  151.9190 H   0  0  0  0  0  0  0  0  0  0  0  0  # atno 10167 bound_to 10162
  157.6951  131.0498  150.4124 H   0  0  0  0  0  0  0  0  0  0  0  0  # atno 10718 bound_to 10713
  154.7055  135.2996  154.9276 H   0  0  0  0  0  0  0  0  0  0  0  0  # atno 10763 bound_to 10752
  154.0194  135.6684  153.4775 H   0  0  0  0  0  0  0  0  0  0  0  0  # atno 10764 bound_to 10752
  153.0714  135.5059  154.8224 H   0  0  0  0  0  0  0  0  0  0  0  0  # atno 10765 bound_to 10752
  140.7248  133.8798  155.8848 H   0  0  0  0  0  0  0  0  0  0  0  0  # atno 11005 bound_to 11000
  146.3409  140.2314  142.8593 LP  0  0  0  0  0  0  0  0  0  0  0  0  # atno 17320 bound_to 7965
  144.9906  140.8544  143.5341 LP  0  0  0  0  0  0  0  0  0  0  0  0  # atno 17321 bound_to 7965
  139.4786  144.5670  151.8149 LP  0  0  0  0  0  0  0  0  0  0  0  0  # atno 17342 bound_to 10162
  140.4779  144.1493  150.5928 LP  0  0  0  0  0  0  0  0  0  0  0  0  # atno 17343 bound_to 10162
  156.4506  130.4011  149.6638 LP  0  0  0  0  0  0  0  0  0  0  0  0  # atno 17370 bound_to 10713
  156.3789  130.7568  151.2559 LP  0  0  0  0  0  0  0  0  0  0  0  0  # atno 17371 bound_to 10713
  140.9972  134.1199  157.4352 LP  0  0  0  0  0  0  0  0  0  0  0  0  # atno 17394 bound_to 11000
  139.8840  135.0058  156.6337 LP  0  0  0  0  0  0  0  0  0  0  0  0  # atno 17395 bound_to 11000

$$$$
