AV-unprocessed.smi:1931|AV-procd|sdf|7811|dock1
  -GOLD-   22720 9553D 1   1.00000     0.00000
 Structure written by MMmdl.
 48 49  0  0  0  0  0  0  0  0  1 V2000
  143.8927  133.4823  151.1196 C   0  0  0  0  0  0  0  0  0  0  0  0
  145.0574  134.2093  151.4689 O   0  0  0  0  0  0  0  0  0  0  0  0
  144.7663  135.3642  152.2381 C   0  0  0  0  0  0  0  0  0  0  0  0
  145.2846  136.6029  151.5010 C   0  0  0  0  0  0  0  0  0  0  0  0
  145.9038  137.4737  152.4329 O   0  0  0  0  0  0  0  0  0  0  0  0
  146.4493  138.6316  151.8191 C   0  0  0  0  0  0  0  0  0  0  0  0
  147.1427  139.4853  152.8804 C   0  0  0  0  0  0  0  0  0  0  0  0
  146.5847  140.4993  153.2975 O   0  0  0  0  0  0  0  0  0  0  0  0
  148.3480  139.0472  153.2898 N   0  0  0  0  0  0  0  0  0  0  0  0
  149.2344  139.6275  154.2371 C   0  0  0  0  0  0  0  0  0  0  0  0
  150.4605  139.0519  154.6437 C   0  0  0  0  0  0  0  0  0  0  0  0
  151.2382  139.7161  155.6115 C   0  0  0  0  0  0  0  0  0  0  0  0
  150.7728  140.9351  156.1584 C   0  0  0  0  0  0  0  0  0  0  0  0
  151.5365  141.6126  157.1335 N   0  0  0  0  0  0  0  0  0  0  0  0
  151.9736  140.7994  158.2650 C   0  0  0  0  0  0  0  0  0  0  0  0
  153.0398  141.5482  159.0870 C   0  0  2  0  0  0  0  0  0  0  0  0
  153.4348  140.7790  160.3521 C   0  0  0  0  0  0  0  0  0  0  0  0
  152.5247  142.8181  159.4781 O   0  0  0  0  0  0  0  0  0  0  0  0
  152.2073  143.6440  158.3611 C   0  0  2  0  0  0  0  0  0  0  0  0
  151.7552  145.0104  158.8865 C   0  0  0  0  0  0  0  0  0  0  0  0
  151.1150  142.9575  157.5199 C   0  0  0  0  0  0  0  0  0  0  0  0
  149.5948  141.4816  155.7687 N   0  0  0  0  0  0  0  0  0  0  0  0
  148.8515  140.8408  154.8426 C   0  0  0  0  0  0  0  0  0  0  0  0
  144.1698  132.6055  150.5343 H   0  0  0  0  0  0  0  0  0  0  0  0
  143.2151  134.0888  150.5172 H   0  0  0  0  0  0  0  0  0  0  0  0
  143.3603  133.1394  152.0076 H   0  0  0  0  0  0  0  0  0  0  0  0
  143.6950  135.4512  152.4266 H   0  0  0  0  0  0  0  0  0  0  0  0
  145.2641  135.2836  153.2057 H   0  0  0  0  0  0  0  0  0  0  0  0
  146.0202  136.2998  150.7544 H   0  0  0  0  0  0  0  0  0  0  0  0
  144.4704  137.1033  150.9745 H   0  0  0  0  0  0  0  0  0  0  0  0
  147.1778  138.3549  151.0556 H   0  0  0  0  0  0  0  0  0  0  0  0
  145.6603  139.2101  151.3356 H   0  0  0  0  0  0  0  0  0  0  0  0
  148.6385  138.1557  152.9145 H   0  0  0  0  0  0  0  0  0  0  0  0
  150.8154  138.1138  154.2468 H   0  0  0  0  0  0  0  0  0  0  0  0
  152.1823  139.2887  155.9146 H   0  0  0  0  0  0  0  0  0  0  0  0
  151.1070  140.5756  158.8887 H   0  0  0  0  0  0  0  0  0  0  0  0
  152.3828  139.8443  157.9384 H   0  0  0  0  0  0  0  0  0  0  0  0
  153.9341  141.6968  158.4792 H   0  0  0  0  0  0  0  0  0  0  0  0
  153.8530  139.8035  160.1033 H   0  0  0  0  0  0  0  0  0  0  0  0
  152.5739  140.6187  161.0018 H   0  0  0  0  0  0  0  0  0  0  0  0
  154.1853  141.3264  160.9227 H   0  0  0  0  0  0  0  0  0  0  0  0
  153.1036  143.7855  157.7545 H   0  0  0  0  0  0  0  0  0  0  0  0
  151.5040  145.6829  158.0657 H   0  0  0  0  0  0  0  0  0  0  0  0
  152.5437  145.4819  159.4733 H   0  0  0  0  0  0  0  0  0  0  0  0
  150.8756  144.9165  159.5241 H   0  0  0  0  0  0  0  0  0  0  0  0
  150.9129  143.5563  156.6309 H   0  0  0  0  0  0  0  0  0  0  0  0
  150.1864  142.8936  158.0889 H   0  0  0  0  0  0  0  0  0  0  0  0
  147.9196  141.3170  154.5750 H   0  0  0  0  0  0  0  0  0  0  0  0
  1  2  1  0  0  0  0
  1 24  1  0  0  0  0
  1 25  1  0  0  0  0
  1 26  1  0  0  0  0
  2  3  1  0  0  0  0
  3  4  1  0  0  0  0
  3 27  1  0  0  0  0
  3 28  1  0  0  0  0
  4  5  1  0  0  0  0
  4 29  1  0  0  0  0
  4 30  1  0  0  0  0
  5  6  1  0  0  0  0
  6  7  1  0  0  0  0
  6 31  1  0  0  0  0
  6 32  1  0  0  0  0
  7  8  2  0  0  0  0
  7  9  1  0  0  0  0
  9 10  1  0  0  0  0
  9 33  1  0  0  0  0
 10 23  1  0  0  0  0
 10 11  2  0  0  0  0
 11 12  1  0  0  0  0
 11 34  1  0  0  0  0
 12 13  2  0  0  0  0
 12 35  1  0  0  0  0
 13 14  1  0  0  0  0
 13 22  1  0  0  0  0
 14 21  1  0  0  0  0
 14 15  1  0  0  0  0
 15 16  1  0  0  0  0
 15 36  1  0  0  0  0
 15 37  1  0  0  0  0
 16 17  1  0  0  0  0
 16 18  1  0  0  0  0
 16 38  1  0  0  0  0
 17 39  1  0  0  0  0
 17 40  1  0  0  0  0
 17 41  1  0  0  0  0
 18 19  1  0  0  0  0
 19 20  1  0  0  0  0
 19 21  1  0  0  0  0
 19 42  1  0  0  0  0
 20 43  1  0  0  0  0
 20 44  1  0  0  0  0
 20 45  1  0  0  0  0
 21 46  1  0  0  0  0
 21 47  1  0  0  0  0
 22 23  2  0  0  0  0
 23 48  1  0  0  0  0
M  END
> <s_m_source_file>
AV-unprocessed.smi

> <i_m_source_file_index>
1931

> <i_lp_mmshare_version>
43012

> <i_f3d_flags>
0

> <s_epik_input>
W0NIM11PW0NIMl1bQ0gyXU9bQ0gyXUMoPU8pW05IXWMxW2NIXVtjSF1jKG5bY0hdMSlOMltDSDJdW0NAQEhdKFtDSDNdKU9bQ0BASF0oW0NIM10pW0NIMl0y

> <s_epik_cmdline>
J2VwaWtfcHl0aG9uJywgJy1waCcsICc3LjAnLCAnLXRuJywgJzgnLCAnLW1hJywgJzIwMCcsICctbWV0YWxfYmluZGluZycsICctaW1hZScsICc8aW5maWxlLm1hZT4nLCAnLW9tYWUnLCAnPG91dGZpbGUubWFlPic=

> <r_lp_tautomer_probability>
1

> <r_epik_Ionization_Penalty>
0.000582342

> <r_epik_Ionization_Penalty_Charging>
0

> <r_epik_Ionization_Penalty_Neutral>
0.000582342

> <r_epik_State_Penalty>
0.00036524

> <r_epik_Charging_Adjusted_Penalty>
0.00036524

> <i_epik_Tot_Q>
0

> <i_epik_Tot_abs_Q>
0

> <r_epik_Metal_State_Penalty>
-0

> <b_epik_Metal_Only>
0

> <s_lp_Force_Field>
OPLS_2005

> <r_lp_Energy>
23.8066

> <b_lp_Chiralities_Consistent>
1

> <s_lp_Variant>
AV-unprocessed.smi:1931-1

> <Gold.Version>
5.8.1

> <Gold.Id.Protein>
6NUR|6NUR_protein|mol2

> <Gold.PLP.Fitness>
47.1239

> <Gold.PLP.PLP>
-45.8853

> <Gold.PLP.part.hbond>
-2.0000

> <Gold.PLP.part.metal>
0.0000

> <Gold.PLP.part.buried>
-1.4289

> <Gold.PLP.part.nonpolar>
-43.8218

> <Gold.PLP.part.repulsive>
1.6264

> <Gold.PLP.ligand.clash>
0.0000

> <Gold.PLP.ligand.torsion>
1.0572

> <Gold.PLP.Chemscore.Hbond>
0.9913

> <Gold.PLP.Chemscore.CHOScore>
0.0000

> <Gold.PLP.Chemscore.Metal>
0.0000

> <Gold.Chemscore.Hbonds>
donor molecule, donor type, donor heavy atom, donor atom, acceptor molecule, acceptor atom, score
      L1  H     9    33       P1  7948  0.60

> <Gold.PLP.Chemscore.Internal.Correction>
0.3792

> <Gold.Rescore>
     Score         DG    S(hbond)    S(metal)    S(lipo)     H(rot)  DE(clash)    DE(int)     intcor
     13.65     -16.80       0.91        0.00     113.14       1.93       0.53       2.62       ----

> <Gold.Chemscore.Fitness>
13.6536

> <Gold.Chemscore.DG>
-16.8037

> <Gold.Chemscore.ZeroCoef>
-5.4800

> <Gold.Chemscore.Hbond>
0.9102

> <Gold.Chemscore.Metal>
0.0000

> <Gold.Chemscore.Lipo>
113.1363

> <Gold.Chemscore.Internal_Hbond>
0.0000

> <Gold.Chemscore.DEClash>
0.5258

> <Gold.Chemscore.DEInternal>
2.6243

> <Gold.Chemscore.Rot>
1.9349

> <Gold.Chemscore.Internal.Correction>
   9.000000E+99

> <Gold.Chemscore.Hbonds>
donor molecule, donor type, donor heavy atom, donor atom, acceptor molecule, acceptor atom, score
      L1  H     9    33       P1  7948  0.60

> <Gold.Chemscore.Hbond.Weighted>
-3.0401

> <Gold.Chemscore.Metal.Weighted>
-0.0000

> <Gold.Chemscore.Lipo.Weighted>
-13.2370

> <Gold.Chemscore.Internal_Hbond.Weighted>
0.0000

> <Gold.Chemscore.DEClash.Weighted>
0.5258

> <Gold.Chemscore.DEInternal.Weighted>
2.6243

> <Gold.Chemscore.Rot.Weighted>
4.9534

> <Gold.Chemscore.Internal.Correction.Weighted>
   9.000000E+99

> <Gold.Protein.RotatedTorsions>
[ 6907 6896 6895 6894 ] final -139.43 input  -60.11 | X-H torsion
[ 7974 7965 7964 7962 ] final  134.33 input  175.53 | X-H torsion
[ 8008 7997 7996 7995 ] final  -56.80 input   59.86 | X-H torsion
[ 10167 10162 10161 10158 ] final   -2.37 input  -65.29 | X-H torsion
[ 10718 10713 10712 10709 ] final   -0.55 input   66.30 | X-H torsion
[ 10763 10752 10751 10750 ] final  152.13 input  -60.55 | X-H torsion
[ 11005 11000 10999 10996 ] final  -61.86 input  -57.11 | X-H torsion

> <Gold.Protein.ActiveResidues>
 VAL166  LYS551  ARG553  GLY616  TRP617  ASP618  TYR619  PRO620  LYS621  CYS622 
 ASP623  PHE694  ASN695  SER759  ASP760  ASP761  ALA762  ILE779  LEU786  VAL792 
 PHE793  MET794  SER795  GLU796  ALA797  LYS798  CYS799  TRP800  GLU811  SER814 

> <Gold.Protein.RotatedAtoms>
  151.0477  133.5651  159.2644 H   0  0  0  0  0  0  0  0  0  0  0  0  # atno 6907 bound_to 6896
  151.2674  135.0673  159.9131 H   0  0  0  0  0  0  0  0  0  0  0  0  # atno 6908 bound_to 6896
  152.5376  134.0213  159.8037 H   0  0  0  0  0  0  0  0  0  0  0  0  # atno 6909 bound_to 6896
  144.9775  139.4540  143.5403 H   0  0  0  0  0  0  0  0  0  0  0  0  # atno 7974 bound_to 7965
  154.4243  140.1121  156.5695 H   0  0  0  0  0  0  0  0  0  0  0  0  # atno 8008 bound_to 7997
  155.6227  140.3495  155.4638 H   0  0  0  0  0  0  0  0  0  0  0  0  # atno 8009 bound_to 7997
  156.0011  140.1199  157.0536 H   0  0  0  0  0  0  0  0  0  0  0  0  # atno 8010 bound_to 7997
  140.6848  143.6665  150.8222 H   0  0  0  0  0  0  0  0  0  0  0  0  # atno 10167 bound_to 10162
  156.8187  130.5449  149.5700 H   0  0  0  0  0  0  0  0  0  0  0  0  # atno 10718 bound_to 10713
  154.1150  135.2836  155.3222 H   0  0  0  0  0  0  0  0  0  0  0  0  # atno 10763 bound_to 10752
  154.6463  135.5384  153.7852 H   0  0  0  0  0  0  0  0  0  0  0  0  # atno 10764 bound_to 10752
  153.0332  135.6499  154.1307 H   0  0  0  0  0  0  0  0  0  0  0  0  # atno 10765 bound_to 10752
  141.1339  133.6634  156.5439 H   0  0  0  0  0  0  0  0  0  0  0  0  # atno 11005 bound_to 11000
  146.3399  139.9026  142.8792 LP  0  0  0  0  0  0  0  0  0  0  0  0  # atno 17320 bound_to 7965
  145.2469  141.0030  143.3903 LP  0  0  0  0  0  0  0  0  0  0  0  0  # atno 17321 bound_to 7965
  140.0370  143.5385  152.2735 LP  0  0  0  0  0  0  0  0  0  0  0  0  # atno 17342 bound_to 10162
  139.6198  144.7627  151.2765 LP  0  0  0  0  0  0  0  0  0  0  0  0  # atno 17343 bound_to 10162
  156.1001  130.5963  150.9880 LP  0  0  0  0  0  0  0  0  0  0  0  0  # atno 17370 bound_to 10713
  157.6468  131.0903  150.8136 LP  0  0  0  0  0  0  0  0  0  0  0  0  # atno 17371 bound_to 10713
  140.4117  134.7266  157.4840 LP  0  0  0  0  0  0  0  0  0  0  0  0  # atno 17394 bound_to 11000
  140.0422  134.6250  155.8966 LP  0  0  0  0  0  0  0  0  0  0  0  0  # atno 17395 bound_to 11000

$$$$
