AV-unprocessed.smi:1471|AV-procd|sdf|5963|dock4
  -GOLD-   22720 6 53D 1   1.00000     0.00000
 Structure written by MMmdl.
 42 43  0  0  0  0  0  0  0  0  1 V2000
  147.1365  137.1678  162.8948 C   0  0  0  0  0  0  0  0  0  0  0  0
  147.6047  136.2813  161.7721 C   0  0  0  0  0  0  0  0  0  0  0  0
  147.9943  136.8718  160.6904 N   0  0  0  0  0  0  0  0  0  0  0  0
  148.4375  136.1525  159.5986 N   0  0  0  0  0  0  0  0  0  0  0  0
  148.8353  136.9856  158.4581 C   0  0  0  0  0  0  0  0  0  0  0  0
  150.2761  137.5237  158.6071 C   0  0  1  0  0  0  0  0  0  0  0  0
  151.1715  136.5988  158.0225 O   0  0  0  0  0  0  0  0  0  0  0  0
  150.4684  138.8635  157.8819 C   0  0  0  0  0  0  0  0  0  0  0  0
  150.9990  139.8080  158.8002 O   0  0  0  0  0  0  0  0  0  0  0  0
  151.4937  140.9908  158.1895 C   0  0  0  0  0  0  0  0  0  0  0  0
  151.7724  142.1048  159.1853 C   0  0  0  0  0  0  0  0  0  0  0  0
  151.0320  143.3049  159.1274 C   0  0  0  0  0  0  0  0  0  0  0  0
  151.2896  144.3419  160.0451 C   0  0  0  0  0  0  0  0  0  0  0  0
  152.2917  144.1853  161.0218 C   0  0  0  0  0  0  0  0  0  0  0  0
  153.0373  142.9921  161.0792 C   0  0  0  0  0  0  0  0  0  0  0  0
  152.7814  141.9539  160.1621 C   0  0  0  0  0  0  0  0  0  0  0  0
  153.5083  140.8125  160.2258 F   0  0  0  0  0  0  0  0  0  0  0  0
  148.5042  134.7917  159.5391 C   0  0  0  0  0  0  0  0  0  0  0  0
  148.8951  134.1902  158.5375 O   0  0  0  0  0  0  0  0  0  0  0  0
  148.0661  134.1290  160.7696 C   0  0  0  0  0  0  0  0  0  0  0  0
  148.1197  132.7027  160.7506 C   0  0  0  0  0  0  0  0  0  0  0  0
  148.1691  131.5460  160.7553 N   0  0  0  0  0  0  0  0  0  0  0  0
  147.6363  134.8243  161.8521 C   0  0  0  0  0  0  0  0  0  0  0  0
  147.1709  134.1828  163.1522 C   0  0  0  0  0  0  0  0  0  0  0  0
  146.1406  136.8773  163.2302 H   0  0  0  0  0  0  0  0  0  0  0  0
  147.0864  138.2152  162.5924 H   0  0  0  0  0  0  0  0  0  0  0  0
  147.8139  137.1011  163.7464 H   0  0  0  0  0  0  0  0  0  0  0  0
  148.7239  136.4424  157.5174 H   0  0  0  0  0  0  0  0  0  0  0  0
  148.1332  137.8177  158.3784 H   0  0  0  0  0  0  0  0  0  0  0  0
  150.5448  137.6499  159.6566 H   0  0  0  0  0  0  0  0  0  0  0  0
  152.0536  136.8514  158.2478 H   0  0  0  0  0  0  0  0  0  0  0  0
  151.1671  138.7477  157.0516 H   0  0  0  0  0  0  0  0  0  0  0  0
  149.5190  139.2048  157.4659 H   0  0  0  0  0  0  0  0  0  0  0  0
  152.4318  140.7440  157.6922 H   0  0  0  0  0  0  0  0  0  0  0  0
  150.8096  141.3266  157.4085 H   0  0  0  0  0  0  0  0  0  0  0  0
  150.2617  143.4336  158.3813 H   0  0  0  0  0  0  0  0  0  0  0  0
  150.7189  145.2578  159.9986 H   0  0  0  0  0  0  0  0  0  0  0  0
  152.4898  144.9808  161.7250 H   0  0  0  0  0  0  0  0  0  0  0  0
  153.8079  142.8733  161.8266 H   0  0  0  0  0  0  0  0  0  0  0  0
  147.3468  133.1076  163.1662 H   0  0  0  0  0  0  0  0  0  0  0  0
  146.1022  134.3461  163.2947 H   0  0  0  0  0  0  0  0  0  0  0  0
  147.7010  134.6073  164.0052 H   0  0  0  0  0  0  0  0  0  0  0  0
  1  2  1  0  0  0  0
  1 25  1  0  0  0  0
  1 26  1  0  0  0  0
  1 27  1  0  0  0  0
  2 23  1  0  0  0  0
  2  3  2  0  0  0  0
  3  4  1  0  0  0  0
  4  5  1  0  0  0  0
  4 18  1  0  0  0  0
  5  6  1  0  0  0  0
  5 28  1  0  0  0  0
  5 29  1  0  0  0  0
  6  7  1  0  0  0  0
  6  8  1  0  0  0  0
  6 30  1  0  0  0  0
  7 31  1  0  0  0  0
  8  9  1  0  0  0  0
  8 32  1  0  0  0  0
  8 33  1  0  0  0  0
  9 10  1  0  0  0  0
 10 11  1  0  0  0  0
 10 34  1  0  0  0  0
 10 35  1  0  0  0  0
 11 16  1  0  0  0  0
 11 12  2  0  0  0  0
 12 13  1  0  0  0  0
 12 36  1  0  0  0  0
 13 14  2  0  0  0  0
 13 37  1  0  0  0  0
 14 15  1  0  0  0  0
 14 38  1  0  0  0  0
 15 16  2  0  0  0  0
 15 39  1  0  0  0  0
 16 17  1  0  0  0  0
 18 19  2  0  0  0  0
 18 20  1  0  0  0  0
 20 21  1  0  0  0  0
 20 23  2  0  0  0  0
 21 22  3  0  0  0  0
 23 24  1  0  0  0  0
 24 40  1  0  0  0  0
 24 41  1  0  0  0  0
 24 42  1  0  0  0  0
M  END
> <s_m_source_file>
AV-unprocessed.smi

> <i_m_source_file_index>
1471

> <i_lp_mmshare_version>
43012

> <i_f3d_flags>
0

> <s_epik_input>
TiNDYyhjMVtDSDNdKWMoPU8pbihuYzFbQ0gzXSlbQ0gyXVtDQEhdKFtPSF0pW0NIMl1PW0NIMl1jMltjSF1bY0hdW2NIXVtjSF1jMkY=

> <s_epik_cmdline>
J2VwaWtfcHl0aG9uJywgJy1waCcsICc3LjAnLCAnLXRuJywgJzgnLCAnLW1hJywgJzIwMCcsICctbWV0YWxfYmluZGluZycsICctaW1hZScsICc8aW5maWxlLm1hZT4nLCAnLW9tYWUnLCAnPG91dGZpbGUubWFlPic=

> <r_lp_tautomer_probability>
1

> <r_epik_Ionization_Penalty>
6.13319e-08

> <r_epik_Ionization_Penalty_Charging>
2.19172e-10

> <r_epik_Ionization_Penalty_Neutral>
6.11128e-08

> <r_epik_State_Penalty>
-0

> <r_epik_Charging_Adjusted_Penalty>
2.19172e-10

> <i_epik_Tot_Q>
0

> <i_epik_Tot_abs_Q>
0

> <r_epik_Metal_State_Penalty>
-0

> <b_epik_Metal_Only>
0

> <s_lp_Force_Field>
OPLS_2005

> <r_lp_Energy>
30.1465

> <b_lp_Chiralities_Consistent>
1

> <s_lp_Variant>
AV-unprocessed.smi:1471-2

> <Gold.Version>
5.8.1

> <Gold.Id.Protein>
6NUR|6NUR_protein|mol2

> <Gold.PLP.Fitness>
50.9907

> <Gold.PLP.PLP>
-48.6391

> <Gold.PLP.part.hbond>
-3.6812

> <Gold.PLP.part.metal>
0.0000

> <Gold.PLP.part.buried>
-3.1885

> <Gold.PLP.part.nonpolar>
-41.0363

> <Gold.PLP.part.repulsive>
0.0000

> <Gold.PLP.ligand.clash>
0.0000

> <Gold.PLP.ligand.torsion>
1.5119

> <Gold.PLP.Chemscore.Hbond>
1.7774

> <Gold.PLP.Chemscore.CHOScore>
0.0000

> <Gold.PLP.Chemscore.Metal>
0.0000

> <Gold.Chemscore.Hbonds>
donor molecule, donor type, donor heavy atom, donor atom, acceptor molecule, acceptor atom, score
      P1  H  6896  6907       L1    19  0.10
      P1  H  6931  6943       L1     3  0.31
      P1  H  6934  6947       L1     3  0.25

> <Gold.PLP.Chemscore.Internal.Correction>
0.0431

> <Gold.Rescore>
     Score         DG    S(hbond)    S(metal)    S(lipo)     H(rot)  DE(clash)    DE(int)     intcor
     14.03     -15.67       0.85        0.00     120.84       2.65       0.13       1.51       ----

> <Gold.Chemscore.Fitness>
14.0265

> <Gold.Chemscore.DG>
-15.6685

> <Gold.Chemscore.ZeroCoef>
-5.4800

> <Gold.Chemscore.Hbond>
0.8462

> <Gold.Chemscore.Metal>
0.0000

> <Gold.Chemscore.Lipo>
120.8420

> <Gold.Chemscore.Internal_Hbond>
0.0000

> <Gold.Chemscore.DEClash>
0.1332

> <Gold.Chemscore.DEInternal>
1.5088

> <Gold.Chemscore.Rot>
2.6470

> <Gold.Chemscore.Internal.Correction>
   9.000000E+99

> <Gold.Chemscore.Hbonds>
donor molecule, donor type, donor heavy atom, donor atom, acceptor molecule, acceptor atom, score
      P1  H  6931  6943       L1     3  0.01
      P1  H  6934  6947       L1     3  0.11

> <Gold.Chemscore.Hbond.Weighted>
-2.8262

> <Gold.Chemscore.Metal.Weighted>
-0.0000

> <Gold.Chemscore.Lipo.Weighted>
-14.1385

> <Gold.Chemscore.Internal_Hbond.Weighted>
0.0000

> <Gold.Chemscore.DEClash.Weighted>
0.1332

> <Gold.Chemscore.DEInternal.Weighted>
1.5088

> <Gold.Chemscore.Rot.Weighted>
6.7762

> <Gold.Chemscore.Internal.Correction.Weighted>
   9.000000E+99

> <Gold.Protein.RotatedTorsions>
[ 6907 6896 6895 6894 ] final  -84.67 input  -60.11 | X-H torsion
[ 7974 7965 7964 7962 ] final  -46.07 input  175.53 | X-H torsion
[ 8008 7997 7996 7995 ] final   96.79 input   59.86 | X-H torsion
[ 10167 10162 10161 10158 ] final -114.86 input  -65.29 | X-H torsion
[ 10718 10713 10712 10709 ] final  -71.84 input   66.30 | X-H torsion
[ 10763 10752 10751 10750 ] final  -64.65 input  -60.55 | X-H torsion
[ 11005 11000 10999 10996 ] final    8.22 input  -57.11 | X-H torsion

> <Gold.Protein.ActiveResidues>
 VAL166  LYS551  ARG553  GLY616  TRP617  ASP618  TYR619  PRO620  LYS621  CYS622 
 ASP623  PHE694  ASN695  SER759  ASP760  ASP761  ALA762  ILE779  LEU786  VAL792 
 PHE793  MET794  SER795  GLU796  ALA797  LYS798  CYS799  TRP800  GLU811  SER814 

> <Gold.Protein.RotatedAtoms>
  150.6875  134.3323  159.4832 H   0  0  0  0  0  0  0  0  0  0  0  0  # atno 6907 bound_to 6896
  152.1186  134.9219  160.0573 H   0  0  0  0  0  0  0  0  0  0  0  0  # atno 6908 bound_to 6896
  152.0434  133.3952  159.4383 H   0  0  0  0  0  0  0  0  0  0  0  0  # atno 6909 bound_to 6896
  145.9757  140.7337  142.9388 H   0  0  0  0  0  0  0  0  0  0  0  0  # atno 7974 bound_to 7965
  156.0834  140.3267  155.7722 H   0  0  0  0  0  0  0  0  0  0  0  0  # atno 8008 bound_to 7997
  155.5116  140.0577  157.2940 H   0  0  0  0  0  0  0  0  0  0  0  0  # atno 8009 bound_to 7997
  154.4595  140.1959  156.0301 H   0  0  0  0  0  0  0  0  0  0  0  0  # atno 8010 bound_to 7997
  140.0963  143.4653  152.1839 H   0  0  0  0  0  0  0  0  0  0  0  0  # atno 10167 bound_to 10162
  156.0345  130.4360  150.2504 H   0  0  0  0  0  0  0  0  0  0  0  0  # atno 10718 bound_to 10713
  154.3332  135.6172  153.5561 H   0  0  0  0  0  0  0  0  0  0  0  0  # atno 10763 bound_to 10752
  152.9810  135.5752  154.4937 H   0  0  0  0  0  0  0  0  0  0  0  0  # atno 10764 bound_to 10752
  154.4628  135.2856  155.1677 H   0  0  0  0  0  0  0  0  0  0  0  0  # atno 10765 bound_to 10752
  140.5395  134.0388  155.7899 H   0  0  0  0  0  0  0  0  0  0  0  0  # atno 11005 bound_to 11000
  144.6848  140.2823  143.7290 LP  0  0  0  0  0  0  0  0  0  0  0  0  # atno 17320 bound_to 7965
  145.7843  139.1903  143.2140 LP  0  0  0  0  0  0  0  0  0  0  0  0  # atno 17321 bound_to 7965
  139.5696  144.7455  151.3927 LP  0  0  0  0  0  0  0  0  0  0  0  0  # atno 17342 bound_to 10162
  140.7001  143.7652  150.7390 LP  0  0  0  0  0  0  0  0  0  0  0  0  # atno 17343 bound_to 10162
  157.0604  131.0088  151.3224 LP  0  0  0  0  0  0  0  0  0  0  0  0  # atno 17370 bound_to 10713
  157.5074  130.7917  149.7669 LP  0  0  0  0  0  0  0  0  0  0  0  0  # atno 17371 bound_to 10713
  141.1235  133.9421  157.2681 LP  0  0  0  0  0  0  0  0  0  0  0  0  # atno 17394 bound_to 11000
  139.9512  135.0175  156.8998 LP  0  0  0  0  0  0  0  0  0  0  0  0  # atno 17395 bound_to 11000

$$$$
