AV-unprocessed.smi:1244|AV-procd|sdf|5225|dock6
  -GOLD-   22720 4323D 1   1.00000     0.00000
 Structure written by MMmdl.
 55 57  0  0  0  0  0  0  0  0  2 V2000
  144.5930  132.7908  150.1460 C   0  0  0  0  0  0  0  0  0  0  0  0
  144.3011  133.1897  151.5967 C   0  0  1  0  0  0  0  0  0  0  0  0
  145.4926  132.9026  152.5294 C   0  0  0  0  0  0  0  0  0  0  0  0
  145.1988  133.3661  153.9059 N   0  3  1  0  0  0  0  0  0  0  0  0
  146.2966  133.0589  154.8556 C   0  0  0  0  0  0  0  0  0  0  0  0
  145.7723  132.7372  156.2672 C   0  0  0  0  0  0  0  0  0  0  0  0
  146.0129  133.8441  157.1852 N   0  0  0  0  0  0  0  0  0  0  0  0
  146.3506  133.7071  158.4750 C   0  0  0  0  0  0  0  0  0  0  0  0
  146.5062  132.6149  159.0208 O   0  0  0  0  0  0  0  0  0  0  0  0
  146.5016  134.9036  159.0673 N   0  0  0  0  0  0  0  0  0  0  0  0
  146.9158  135.1893  160.3997 C   0  0  0  0  0  0  0  0  0  0  0  0
  147.0229  134.1751  161.3835 C   0  0  0  0  0  0  0  0  0  0  0  0
  147.3736  134.5226  162.6992 C   0  0  0  0  0  0  0  0  0  0  0  0
  147.5892  135.8788  162.9933 C   0  0  0  0  0  0  0  0  0  0  0  0
  147.4766  136.8575  162.0739 N   0  0  0  0  0  0  0  0  0  0  0  0
  147.1543  136.5373  160.7965 C   0  0  0  0  0  0  0  0  0  0  0  0
  147.0636  137.6067  159.8754 N   0  0  0  0  0  0  0  0  0  0  0  0
  148.1450  137.8626  158.9298 C   0  0  0  0  0  0  0  0  0  0  0  0
  147.5445  138.8005  157.8867 C   0  0  0  0  0  0  0  0  0  0  0  0
  146.1061  138.3017  157.7895 C   0  0  0  0  0  0  0  0  0  0  0  0
  145.7828  137.8430  159.2156 C   0  0  0  0  0  0  0  0  0  0  0  0
  144.8145  134.7992  153.8958 C   0  0  0  0  0  0  0  0  0  0  0  0
  143.6448  135.0395  152.9226 C   0  0  1  0  0  0  0  0  0  0  0  0
  143.2759  136.5233  152.8188 C   0  0  0  0  0  0  0  0  0  0  0  0
  144.0159  134.5837  151.6259 O   0  0  0  0  0  0  0  0  0  0  0  0
  144.8085  131.7250  150.0680 H   0  0  0  0  0  0  0  0  0  0  0  0
  145.4507  133.3359  149.7508 H   0  0  0  0  0  0  0  0  0  0  0  0
  143.7383  133.0041  149.5037 H   0  0  0  0  0  0  0  0  0  0  0  0
  143.4242  132.6366  151.9376 H   0  0  0  0  0  0  0  0  0  0  0  0
  145.6998  131.8318  152.5387 H   0  0  0  0  0  0  0  0  0  0  0  0
  146.3912  133.4011  152.1615 H   0  0  0  0  0  0  0  0  0  0  0  0
  146.8511  132.1903  154.4967 H   0  0  0  0  0  0  0  0  0  0  0  0
  147.0062  133.8878  154.8772 H   0  0  0  0  0  0  0  0  0  0  0  0
  144.7075  132.5017  156.2547 H   0  0  0  0  0  0  0  0  0  0  0  0
  146.2793  131.8553  156.6596 H   0  0  0  0  0  0  0  0  0  0  0  0
  145.9123  134.7779  156.8144 H   0  0  0  0  0  0  0  0  0  0  0  0
  146.4139  135.7099  158.4659 H   0  0  0  0  0  0  0  0  0  0  0  0
  146.8199  133.1392  161.1605 H   0  0  0  0  0  0  0  0  0  0  0  0
  147.4620  133.7683  163.4670 H   0  0  0  0  0  0  0  0  0  0  0  0
  147.8530  136.1880  163.9937 H   0  0  0  0  0  0  0  0  0  0  0  0
  149.0091  138.3061  159.4248 H   0  0  0  0  0  0  0  0  0  0  0  0
  148.4627  136.9386  158.4454 H   0  0  0  0  0  0  0  0  0  0  0  0
  147.5594  139.8275  158.2544 H   0  0  0  0  0  0  0  0  0  0  0  0
  148.0736  138.7716  156.9339 H   0  0  0  0  0  0  0  0  0  0  0  0
  145.4155  139.0609  157.4212 H   0  0  0  0  0  0  0  0  0  0  0  0
  146.0604  137.4490  157.1107 H   0  0  0  0  0  0  0  0  0  0  0  0
  145.1503  136.9541  159.2144 H   0  0  0  0  0  0  0  0  0  0  0  0
  145.2544  138.6344  159.7472 H   0  0  0  0  0  0  0  0  0  0  0  0
  144.5252  135.1202  154.8961 H   0  0  0  0  0  0  0  0  0  0  0  0
  145.6747  135.4042  153.6039 H   0  0  0  0  0  0  0  0  0  0  0  0
  142.7661  134.4866  153.2595 H   0  0  0  0  0  0  0  0  0  0  0  0
  142.9751  136.9221  153.7878 H   0  0  0  0  0  0  0  0  0  0  0  0
  142.4467  136.6717  152.1270 H   0  0  0  0  0  0  0  0  0  0  0  0
  144.1183  137.1154  152.4597 H   0  0  0  0  0  0  0  0  0  0  0  0
  144.3922  132.8418  154.2138 H   0  0  0  0  0  0  0  0  0  0  0  0
  1  2  1  0  0  0  0
  1 26  1  0  0  0  0
  1 27  1  0  0  0  0
  1 28  1  0  0  0  0
  2 25  1  0  0  0  0
  2  3  1  0  0  0  0
  2 29  1  0  0  0  0
  3  4  1  0  0  0  0
  3 30  1  0  0  0  0
  3 31  1  0  0  0  0
  4  5  1  0  0  0  0
  4 22  1  0  0  0  0
  4 55  1  0  0  0  0
  5  6  1  0  0  0  0
  5 32  1  0  0  0  0
  5 33  1  0  0  0  0
  6  7  1  0  0  0  0
  6 34  1  0  0  0  0
  6 35  1  0  0  0  0
  7  8  1  0  0  0  0
  7 36  1  0  0  0  0
  8  9  2  0  0  0  0
  8 10  1  0  0  0  0
 10 11  1  0  0  0  0
 10 37  1  0  0  0  0
 11 16  1  0  0  0  0
 11 12  2  0  0  0  0
 12 13  1  0  0  0  0
 12 38  1  0  0  0  0
 13 14  2  0  0  0  0
 13 39  1  0  0  0  0
 14 15  1  0  0  0  0
 14 40  1  0  0  0  0
 15 16  2  0  0  0  0
 16 17  1  0  0  0  0
 17 21  1  0  0  0  0
 17 18  1  0  0  0  0
 18 19  1  0  0  0  0
 18 41  1  0  0  0  0
 18 42  1  0  0  0  0
 19 20  1  0  0  0  0
 19 43  1  0  0  0  0
 19 44  1  0  0  0  0
 20 21  1  0  0  0  0
 20 45  1  0  0  0  0
 20 46  1  0  0  0  0
 21 47  1  0  0  0  0
 21 48  1  0  0  0  0
 22 23  1  0  0  0  0
 22 49  1  0  0  0  0
 22 50  1  0  0  0  0
 23 24  1  0  0  0  0
 23 25  1  0  0  0  0
 23 51  1  0  0  0  0
 24 52  1  0  0  0  0
 24 53  1  0  0  0  0
 24 54  1  0  0  0  0
M  CHG  1   4   1
M  END
> <s_m_source_file>
AV-unprocessed.smi

> <i_m_source_file_index>
1244

> <i_lp_mmshare_version>
43012

> <i_f3d_flags>
0

> <s_epik_input>
W0NIM11bQ0BASF0xW0NIMl1OKFtDSDJdW0NASF0oTzEpW0NIM10pW0NIMl1bQ0gyXVtOSF1DKD1PKVtOSF1jMltjSF1bY0hdW2NIXW5jMk4zW0NIMl1bQ0gyXVtDSDJdW0NIMl0z

> <s_epik_cmdline>
J2VwaWtfcHl0aG9uJywgJy1waCcsICc3LjAnLCAnLXRuJywgJzgnLCAnLW1hJywgJzIwMCcsICctbWV0YWxfYmluZGluZycsICctaW1hZScsICc8aW5maWxlLm1hZT4nLCAnLW9tYWUnLCAnPG91dGZpbGUubWFlPic=

> <r_lp_tautomer_probability>
1

> <r_epik_Ionization_Penalty>
0.684913

> <r_epik_Ionization_Penalty_Charging>
0.602531

> <r_epik_Ionization_Penalty_Neutral>
0.0823829

> <r_epik_State_Penalty>
0.678827

> <r_epik_Charging_Adjusted_Penalty>
1.28136

> <i_epik_Tot_Q>
1

> <i_epik_Tot_abs_Q>
1

> <r_epik_Metal_State_Penalty>
0.67806

> <b_epik_Metal_Only>
0

> <s_lp_Force_Field>
OPLS_2005

> <r_lp_Energy>
42.8464

> <b_lp_Chiralities_Consistent>
1

> <s_lp_Variant>
AV-unprocessed.smi:1244-5

> <Gold.Version>
5.8.1

> <Gold.Id.Protein>
6NUR|6NUR_protein|mol2

> <Gold.PLP.Fitness>
42.0510

> <Gold.PLP.PLP>
-32.5494

> <Gold.PLP.part.hbond>
-3.5011

> <Gold.PLP.part.metal>
0.0000

> <Gold.PLP.part.buried>
-6.3844

> <Gold.PLP.part.nonpolar>
-23.9677

> <Gold.PLP.part.repulsive>
0.1430

> <Gold.PLP.ligand.clash>
0.0000

> <Gold.PLP.ligand.torsion>
1.1417

> <Gold.PLP.Chemscore.Hbond>
3.8064

> <Gold.PLP.Chemscore.CHOScore>
0.0000

> <Gold.PLP.Chemscore.Metal>
0.0000

> <Gold.Chemscore.Hbonds>
donor molecule, donor type, donor heavy atom, donor atom, acceptor molecule, acceptor atom, score
      L1  H     4    55       P1 10957  1.62
      P1  H  6931  6943       L1    15  0.86
      P1  H  6934  6947       L1    17  0.99

> <Gold.PLP.Chemscore.Internal.Correction>
0.3657

> <Gold.Rescore>
     Score         DG    S(hbond)    S(metal)    S(lipo)     H(rot)  DE(clash)    DE(int)     intcor
     13.47     -15.74       1.89        0.00      68.82       1.60       0.02       2.26       ----

> <Gold.Chemscore.Fitness>
13.4664

> <Gold.Chemscore.DG>
-15.7402

> <Gold.Chemscore.ZeroCoef>
-5.4800

> <Gold.Chemscore.Hbond>
1.8860

> <Gold.Chemscore.Metal>
0.0000

> <Gold.Chemscore.Lipo>
68.8163

> <Gold.Chemscore.Internal_Hbond>
0.0000

> <Gold.Chemscore.DEClash>
0.0174

> <Gold.Chemscore.DEInternal>
2.2565

> <Gold.Chemscore.Rot>
1.5978

> <Gold.Chemscore.Internal.Correction>
   9.000000E+99

> <Gold.Chemscore.Hbonds>
donor molecule, donor type, donor heavy atom, donor atom, acceptor molecule, acceptor atom, score
      L1  H     4    55       P1 10957  0.76
      P1  H  6931  6943       L1    15  0.43
      P1  H  6934  6947       L1    17  0.03

> <Gold.Chemscore.Hbond.Weighted>
-6.2992

> <Gold.Chemscore.Metal.Weighted>
-0.0000

> <Gold.Chemscore.Lipo.Weighted>
-8.0515

> <Gold.Chemscore.Internal_Hbond.Weighted>
0.0000

> <Gold.Chemscore.DEClash.Weighted>
0.0174

> <Gold.Chemscore.DEInternal.Weighted>
2.2565

> <Gold.Chemscore.Rot.Weighted>
4.0905

> <Gold.Chemscore.Internal.Correction.Weighted>
   9.000000E+99

> <Gold.Protein.RotatedTorsions>
[ 6907 6896 6895 6894 ] final -154.57 input  -60.11 | X-H torsion
[ 7974 7965 7964 7962 ] final  100.65 input  175.53 | X-H torsion
[ 8008 7997 7996 7995 ] final   18.23 input   59.86 | X-H torsion
[ 10167 10162 10161 10158 ] final  -99.11 input  -65.29 | X-H torsion
[ 10718 10713 10712 10709 ] final   92.77 input   66.30 | X-H torsion
[ 10763 10752 10751 10750 ] final -176.41 input  -60.55 | X-H torsion
[ 11005 11000 10999 10996 ] final   93.64 input  -57.11 | X-H torsion

> <Gold.Protein.ActiveResidues>
 VAL166  LYS551  ARG553  GLY616  TRP617  ASP618  TYR619  PRO620  LYS621  CYS622 
 ASP623  PHE694  ASN695  SER759  ASP760  ASP761  ALA762  ILE779  LEU786  VAL792 
 PHE793  MET794  SER795  GLU796  ALA797  LYS798  CYS799  TRP800  GLU811  SER814 

> <Gold.Protein.RotatedAtoms>
  151.2595  133.4309  159.2615 H   0  0  0  0  0  0  0  0  0  0  0  0  # atno 6907 bound_to 6896
  151.0544  134.9695  159.8238 H   0  0  0  0  0  0  0  0  0  0  0  0  # atno 6908 bound_to 6896
  152.5388  134.2548  159.8965 H   0  0  0  0  0  0  0  0  0  0  0  0  # atno 6909 bound_to 6896
  145.3828  139.2376  143.3394 H   0  0  0  0  0  0  0  0  0  0  0  0  # atno 7974 bound_to 7965
  154.9030  140.3003  155.5307 H   0  0  0  0  0  0  0  0  0  0  0  0  # atno 8008 bound_to 7997
  156.3018  140.2403  156.3995 H   0  0  0  0  0  0  0  0  0  0  0  0  # atno 8009 bound_to 7997
  154.8502  140.0410  157.1588 H   0  0  0  0  0  0  0  0  0  0  0  0  # atno 8010 bound_to 7997
  140.2658  143.3376  152.0582 H   0  0  0  0  0  0  0  0  0  0  0  0  # atno 10167 bound_to 10162
  157.6957  131.0455  150.3932 H   0  0  0  0  0  0  0  0  0  0  0  0  # atno 10718 bound_to 10713
  154.5727  135.2829  155.0812 H   0  0  0  0  0  0  0  0  0  0  0  0  # atno 10763 bound_to 10752
  154.2178  135.6396  153.5139 H   0  0  0  0  0  0  0  0  0  0  0  0  # atno 10764 bound_to 10752
  153.0062  135.5507  154.6355 H   0  0  0  0  0  0  0  0  0  0  0  0  # atno 10765 bound_to 10752
  139.8807  134.8801  156.3747 H   0  0  0  0  0  0  0  0  0  0  0  0  # atno 11005 bound_to 11000
  146.2834  140.4498  142.8767 LP  0  0  0  0  0  0  0  0  0  0  0  0  # atno 17320 bound_to 7965
  144.8495  140.6980  143.6177 LP  0  0  0  0  0  0  0  0  0  0  0  0  # atno 17321 bound_to 7965
  139.5003  144.6689  151.6291 LP  0  0  0  0  0  0  0  0  0  0  0  0  # atno 17342 bound_to 10162
  140.5929  143.9748  150.6336 LP  0  0  0  0  0  0  0  0  0  0  0  0  # atno 17343 bound_to 10162
  156.4334  130.3976  149.6745 LP  0  0  0  0  0  0  0  0  0  0  0  0  # atno 17370 bound_to 10713
  156.3955  130.7648  151.2652 LP  0  0  0  0  0  0  0  0  0  0  0  0  # atno 17371 bound_to 10713
  140.9440  133.7495  156.0183 LP  0  0  0  0  0  0  0  0  0  0  0  0  # atno 17394 bound_to 11000
  140.8186  134.3316  157.5389 LP  0  0  0  0  0  0  0  0  0  0  0  0  # atno 17395 bound_to 11000

$$$$
