AV-unprocessed.smi:1330|AV-procd|sdf|5486|dock6
  -GOLD-   22720 5 63D 1   1.00000     0.00000
 Structure written by MMmdl.
 42 43  0  0  0  0  0  0  0  0  1 V2000
  147.1740  136.9226  163.1504 C   0  0  0  0  0  0  0  0  0  0  0  0
  147.7158  136.1951  161.9497 C   0  0  0  0  0  0  0  0  0  0  0  0
  148.3904  136.8979  161.1001 N   0  0  0  0  0  0  0  0  0  0  0  0
  148.9288  136.3292  159.9630 N   0  0  0  0  0  0  0  0  0  0  0  0
  149.6457  137.2799  159.1038 C   0  0  0  0  0  0  0  0  0  0  0  0
  151.0944  137.5157  159.5866 C   0  0  1  0  0  0  0  0  0  0  0  0
  151.9167  136.5408  158.9754 O   0  0  0  0  0  0  0  0  0  0  0  0
  151.6273  138.8936  159.1600 C   0  0  0  0  0  0  0  0  0  0  0  0
  152.9206  139.0759  159.7126 O   0  0  0  0  0  0  0  0  0  0  0  0
  153.6325  140.1446  159.1134 C   0  0  0  0  0  0  0  0  0  0  0  0
  152.9910  141.4778  159.4391 C   0  0  0  0  0  0  0  0  0  0  0  0
  153.3716  142.1859  160.5983 C   0  0  0  0  0  0  0  0  0  0  0  0
  152.7798  143.4298  160.8932 C   0  0  0  0  0  0  0  0  0  0  0  0
  151.8064  143.9698  160.0298 C   0  0  0  0  0  0  0  0  0  0  0  0
  151.0828  145.4940  160.3909 Cl  0  0  0  0  0  0  0  0  0  0  0  0
  151.4254  143.2653  158.8710 C   0  0  0  0  0  0  0  0  0  0  0  0
  152.0173  142.0215  158.5757 C   0  0  0  0  0  0  0  0  0  0  0  0
  148.8163  135.0126  159.6248 C   0  0  0  0  0  0  0  0  0  0  0  0
  149.3104  134.5483  158.5964 O   0  0  0  0  0  0  0  0  0  0  0  0
  148.0525  134.2215  160.5922 C   0  0  0  0  0  0  0  0  0  0  0  0
  147.9080  132.8373  160.2749 C   0  0  0  0  0  0  0  0  0  0  0  0
  147.8043  131.7100  160.0330 N   0  0  0  0  0  0  0  0  0  0  0  0
  147.5160  134.7691  161.7115 C   0  0  0  0  0  0  0  0  0  0  0  0
  146.7121  133.9927  162.7453 C   0  0  0  0  0  0  0  0  0  0  0  0
  147.5835  136.5076  164.0714 H   0  0  0  0  0  0  0  0  0  0  0  0
  146.0881  136.8405  163.1954 H   0  0  0  0  0  0  0  0  0  0  0  0
  147.4223  137.9848  163.1294 H   0  0  0  0  0  0  0  0  0  0  0  0
  149.6373  136.9506  158.0626 H   0  0  0  0  0  0  0  0  0  0  0  0
  149.0960  138.2229  159.0994 H   0  0  0  0  0  0  0  0  0  0  0  0
  151.1550  137.4258  160.6720 H   0  0  0  0  0  0  0  0  0  0  0  0
  152.8180  136.8094  159.0687 H   0  0  0  0  0  0  0  0  0  0  0  0
  151.6374  138.9976  158.0732 H   0  0  0  0  0  0  0  0  0  0  0  0
  150.9798  139.6789  159.5536 H   0  0  0  0  0  0  0  0  0  0  0  0
  154.6647  140.1510  159.4678 H   0  0  0  0  0  0  0  0  0  0  0  0
  153.6663  140.0126  158.0307 H   0  0  0  0  0  0  0  0  0  0  0  0
  154.1204  141.7794  161.2623 H   0  0  0  0  0  0  0  0  0  0  0  0
  153.0750  143.9688  161.7815 H   0  0  0  0  0  0  0  0  0  0  0  0
  150.6803  143.6779  158.2067 H   0  0  0  0  0  0  0  0  0  0  0  0
  151.7244  141.4872  157.6836 H   0  0  0  0  0  0  0  0  0  0  0  0
  146.6301  132.9352  162.4958 H   0  0  0  0  0  0  0  0  0  0  0  0
  145.6999  134.3913  162.8204 H   0  0  0  0  0  0  0  0  0  0  0  0
  147.1825  134.0609  163.7267 H   0  0  0  0  0  0  0  0  0  0  0  0
  1  2  1  0  0  0  0
  1 25  1  0  0  0  0
  1 26  1  0  0  0  0
  1 27  1  0  0  0  0
  2 23  1  0  0  0  0
  2  3  2  0  0  0  0
  3  4  1  0  0  0  0
  4  5  1  0  0  0  0
  4 18  1  0  0  0  0
  5  6  1  0  0  0  0
  5 28  1  0  0  0  0
  5 29  1  0  0  0  0
  6  7  1  0  0  0  0
  6  8  1  0  0  0  0
  6 30  1  0  0  0  0
  7 31  1  0  0  0  0
  8  9  1  0  0  0  0
  8 32  1  0  0  0  0
  8 33  1  0  0  0  0
  9 10  1  0  0  0  0
 10 11  1  0  0  0  0
 10 34  1  0  0  0  0
 10 35  1  0  0  0  0
 11 17  1  0  0  0  0
 11 12  2  0  0  0  0
 12 13  1  0  0  0  0
 12 36  1  0  0  0  0
 13 14  2  0  0  0  0
 13 37  1  0  0  0  0
 14 15  1  0  0  0  0
 14 16  1  0  0  0  0
 16 17  2  0  0  0  0
 16 38  1  0  0  0  0
 17 39  1  0  0  0  0
 18 19  2  0  0  0  0
 18 20  1  0  0  0  0
 20 21  1  0  0  0  0
 20 23  2  0  0  0  0
 21 22  3  0  0  0  0
 23 24  1  0  0  0  0
 24 40  1  0  0  0  0
 24 41  1  0  0  0  0
 24 42  1  0  0  0  0
M  END
> <s_m_source_file>
AV-unprocessed.smi

> <i_m_source_file_index>
1330

> <i_lp_mmshare_version>
43012

> <i_f3d_flags>
0

> <s_epik_input>
TiNDYyhjMVtDSDNdKWMoPU8pbihuYzFbQ0gzXSlbQ0gyXVtDQEhdKFtPSF0pW0NIMl1PW0NIMl1jMltjSF1bY0hdYyhDbClbY0hdW2NIXTI=

> <s_epik_cmdline>
J2VwaWtfcHl0aG9uJywgJy1waCcsICc3LjAnLCAnLXRuJywgJzgnLCAnLW1hJywgJzIwMCcsICctbWV0YWxfYmluZGluZycsICctaW1hZScsICc8aW5maWxlLm1hZT4nLCAnLW9tYWUnLCAnPG91dGZpbGUubWFlPic=

> <r_lp_tautomer_probability>
1

> <r_epik_Ionization_Penalty>
6.27695e-08

> <r_epik_Ionization_Penalty_Charging>
2.19172e-10

> <r_epik_Ionization_Penalty_Neutral>
6.25504e-08

> <r_epik_State_Penalty>
-0

> <r_epik_Charging_Adjusted_Penalty>
2.19172e-10

> <i_epik_Tot_Q>
0

> <i_epik_Tot_abs_Q>
0

> <r_epik_Metal_State_Penalty>
-0

> <b_epik_Metal_Only>
0

> <s_lp_Force_Field>
OPLS_2005

> <r_lp_Energy>
31.5646

> <b_lp_Chiralities_Consistent>
1

> <s_lp_Variant>
AV-unprocessed.smi:1330-2

> <Gold.Version>
5.8.1

> <Gold.Id.Protein>
6NUR|6NUR_protein|mol2

> <Gold.PLP.Fitness>
55.9931

> <Gold.PLP.PLP>
-48.6083

> <Gold.PLP.part.hbond>
-4.0000

> <Gold.PLP.part.metal>
0.0000

> <Gold.PLP.part.buried>
-2.9567

> <Gold.PLP.part.nonpolar>
-41.3679

> <Gold.PLP.part.repulsive>
0.0000

> <Gold.PLP.ligand.clash>
0.0000

> <Gold.PLP.ligand.torsion>
1.0991

> <Gold.PLP.Chemscore.Hbond>
3.1637

> <Gold.PLP.Chemscore.CHOScore>
0.0000

> <Gold.PLP.Chemscore.Metal>
0.0000

> <Gold.Chemscore.Hbonds>
donor molecule, donor type, donor heavy atom, donor atom, acceptor molecule, acceptor atom, score
      P1  H  6896  6908       L1    19  0.75
      P1  H  6896  6909       L1     7  0.83
      P1  H  6931  6943       L1     3  1.00

> <Gold.PLP.Chemscore.Internal.Correction>
0.0918

> <Gold.Rescore>
     Score         DG    S(hbond)    S(metal)    S(lipo)     H(rot)  DE(clash)    DE(int)     intcor
     20.14     -21.74       1.93        0.00     138.12       2.48       0.52       1.08       ----

> <Gold.Chemscore.Fitness>
20.1395

> <Gold.Chemscore.DG>
-21.7438

> <Gold.Chemscore.ZeroCoef>
-5.4800

> <Gold.Chemscore.Hbond>
1.9302

> <Gold.Chemscore.Metal>
0.0000

> <Gold.Chemscore.Lipo>
138.1183

> <Gold.Chemscore.Internal_Hbond>
0.0000

> <Gold.Chemscore.DEClash>
0.5227

> <Gold.Chemscore.DEInternal>
1.0816

> <Gold.Chemscore.Rot>
2.4777

> <Gold.Chemscore.Internal.Correction>
   9.000000E+99

> <Gold.Chemscore.Hbonds>
donor molecule, donor type, donor heavy atom, donor atom, acceptor molecule, acceptor atom, score
      P1  H  6896  6908       L1    19  0.15
      P1  H  6896  6909       L1     7  0.20
      P1  H  6931  6943       L1     3  0.69
      P1  H  6934  6947       L1     3  0.02

> <Gold.Chemscore.Hbond.Weighted>
-6.4468

> <Gold.Chemscore.Metal.Weighted>
-0.0000

> <Gold.Chemscore.Lipo.Weighted>
-16.1598

> <Gold.Chemscore.Internal_Hbond.Weighted>
0.0000

> <Gold.Chemscore.DEClash.Weighted>
0.5227

> <Gold.Chemscore.DEInternal.Weighted>
1.0816

> <Gold.Chemscore.Rot.Weighted>
6.3428

> <Gold.Chemscore.Internal.Correction.Weighted>
   9.000000E+99

> <Gold.Protein.RotatedTorsions>
[ 6907 6896 6895 6894 ] final  124.20 input  -60.11 | X-H torsion
[ 7974 7965 7964 7962 ] final -107.37 input  175.53 | X-H torsion
[ 8008 7997 7996 7995 ] final  -64.00 input   59.86 | X-H torsion
[ 10167 10162 10161 10158 ] final  -62.43 input  -65.29 | X-H torsion
[ 10718 10713 10712 10709 ] final  110.16 input   66.30 | X-H torsion
[ 10763 10752 10751 10750 ] final  123.93 input  -60.55 | X-H torsion
[ 11005 11000 10999 10996 ] final   60.97 input  -57.11 | X-H torsion

> <Gold.Protein.ActiveResidues>
 VAL166  LYS551  ARG553  GLY616  TRP617  ASP618  TYR619  PRO620  LYS621  CYS622 
 ASP623  PHE694  ASN695  SER759  ASP760  ASP761  ALA762  ILE779  LEU786  VAL792 
 PHE793  MET794  SER795  GLU796  ALA797  LYS798  CYS799  TRP800  GLU811  SER814 

> <Gold.Protein.RotatedAtoms>
  152.4098  133.6945  159.6387 H   0  0  0  0  0  0  0  0  0  0  0  0  # atno 6907 bound_to 6896
  150.7979  133.8645  159.3250 H   0  0  0  0  0  0  0  0  0  0  0  0  # atno 6908 bound_to 6896
  151.6390  135.1016  160.0189 H   0  0  0  0  0  0  0  0  0  0  0  0  # atno 6909 bound_to 6896
  145.2062  140.9077  143.3341 H   0  0  0  0  0  0  0  0  0  0  0  0  # atno 7974 bound_to 7965
  154.4586  140.0963  156.6829 H   0  0  0  0  0  0  0  0  0  0  0  0  # atno 8008 bound_to 7997
  155.5062  140.3475  155.4361 H   0  0  0  0  0  0  0  0  0  0  0  0  # atno 8009 bound_to 7997
  156.0827  140.1377  156.9681 H   0  0  0  0  0  0  0  0  0  0  0  0  # atno 8010 bound_to 7997
  140.5939  143.2347  151.6078 H   0  0  0  0  0  0  0  0  0  0  0  0  # atno 10167 bound_to 10162
  157.6507  131.0927  150.6561 H   0  0  0  0  0  0  0  0  0  0  0  0  # atno 10718 bound_to 10713
  153.6533  135.3359  155.3106 H   0  0  0  0  0  0  0  0  0  0  0  0  # atno 10763 bound_to 10752
  154.8532  135.4346  154.1881 H   0  0  0  0  0  0  0  0  0  0  0  0  # atno 10764 bound_to 10752
  153.2829  135.7010  153.7442 H   0  0  0  0  0  0  0  0  0  0  0  0  # atno 10765 bound_to 10752
  140.0194  134.6175  155.9662 H   0  0  0  0  0  0  0  0  0  0  0  0  # atno 11005 bound_to 11000
  144.9900  139.3699  143.6219 LP  0  0  0  0  0  0  0  0  0  0  0  0  # atno 17320 bound_to 7965
  146.3407  139.9078  142.8784 LP  0  0  0  0  0  0  0  0  0  0  0  0  # atno 17321 bound_to 7965
  139.5245  144.3101  152.1000 LP  0  0  0  0  0  0  0  0  0  0  0  0  # atno 17342 bound_to 10162
  140.2270  144.4408  150.6317 LP  0  0  0  0  0  0  0  0  0  0  0  0  # atno 17343 bound_to 10162
  156.6872  130.4584  149.5610 LP  0  0  0  0  0  0  0  0  0  0  0  0  # atno 17370 bound_to 10713
  156.1887  130.6546  151.1036 LP  0  0  0  0  0  0  0  0  0  0  0  0  # atno 17371 bound_to 10713
  141.1764  133.6541  156.4845 LP  0  0  0  0  0  0  0  0  0  0  0  0  # atno 17394 bound_to 11000
  140.4413  134.7012  157.4993 LP  0  0  0  0  0  0  0  0  0  0  0  0  # atno 17395 bound_to 11000

$$$$
