AV-unprocessed.smi:1033|AV-procd|sdf|4493|dock4
  -GOLD-   22720 2483D 1   1.00000     0.00000
 Structure written by MMmdl.
 56 58  0  0  0  0  0  0  0  0  2 V2000
  152.8586  143.0920  160.5629 C   0  0  0  0  0  0  0  0  0  0  0  0
  152.1175  142.7306  159.2877 C   0  0  0  0  0  0  0  0  0  0  0  0
  152.2756  141.4355  158.7445 C   0  0  0  0  0  0  0  0  0  0  0  0
  151.6038  141.0596  157.5608 C   0  0  0  0  0  0  0  0  0  0  0  0
  151.6122  139.8648  156.8615 N   0  0  0  0  0  0  0  0  0  0  0  0
  150.7909  140.1381  155.8520 C   0  0  0  0  0  0  0  0  0  0  0  0
  150.2563  141.3739  155.8105 N   0  0  0  0  0  0  0  0  0  0  0  0
  149.3466  141.9064  154.8125 C   0  0  0  0  0  0  0  0  0  0  0  0
  147.9310  141.3129  154.9401 C   0  0  1  0  0  0  0  0  0  0  0  0
  147.1653  142.1225  155.8121 O   0  0  0  0  0  0  0  0  0  0  0  0
  147.2169  141.2360  153.5765 C   0  0  0  0  0  0  0  0  0  0  0  0
  146.5505  139.9280  153.3498 N   0  3  0  0  0  0  0  0  0  0  0  0
  146.1291  139.2435  154.6016 C   0  0  0  0  0  0  0  0  0  0  0  0
  145.3938  137.9300  154.2682 C   0  0  0  0  0  0  0  0  0  0  0  0
  146.1899  137.0098  153.4523 N   0  0  0  0  0  0  0  0  0  0  0  0
  147.3188  136.3866  154.1535 C   0  0  0  0  0  0  0  0  0  0  0  0
  147.7526  135.0064  153.6203 C   0  0  1  0  0  0  0  0  0  0  0  0
  147.2371  134.7187  152.2028 C   0  0  0  0  0  0  0  0  0  0  0  0
  149.1635  134.9727  153.5904 O   0  0  0  0  0  0  0  0  0  0  0  0
  146.5965  137.7059  152.2315 C   0  0  0  0  0  0  0  0  0  0  0  0
  147.3635  139.0167  152.5035 C   0  0  0  0  0  0  0  0  0  0  0  0
  150.7637  142.0231  156.9301 C   0  0  0  0  0  0  0  0  0  0  0  0
  150.5972  143.3144  157.4608 C   0  0  0  0  0  0  0  0  0  0  0  0
  151.2752  143.6731  158.6447 C   0  0  0  0  0  0  0  0  0  0  0  0
  151.0883  145.0694  159.2115 C   0  0  0  0  0  0  0  0  0  0  0  0
  153.4829  142.2672  160.9079 H   0  0  0  0  0  0  0  0  0  0  0  0
  152.1533  143.3336  161.3583 H   0  0  0  0  0  0  0  0  0  0  0  0
  153.5055  143.9539  160.3990 H   0  0  0  0  0  0  0  0  0  0  0  0
  152.9160  140.7169  159.2346 H   0  0  0  0  0  0  0  0  0  0  0  0
  150.5693  139.3994  155.0954 H   0  0  0  0  0  0  0  0  0  0  0  0
  149.3192  142.9933  154.9045 H   0  0  0  0  0  0  0  0  0  0  0  0
  149.7610  141.6867  153.8278 H   0  0  0  0  0  0  0  0  0  0  0  0
  148.0130  140.3204  155.3815 H   0  0  0  0  0  0  0  0  0  0  0  0
  147.6486  142.9164  155.9875 H   0  0  0  0  0  0  0  0  0  0  0  0
  146.4762  142.0362  153.5289 H   0  0  0  0  0  0  0  0  0  0  0  0
  147.9205  141.4246  152.7643 H   0  0  0  0  0  0  0  0  0  0  0  0
  146.9954  139.0550  155.2370 H   0  0  0  0  0  0  0  0  0  0  0  0
  145.4573  139.8814  155.1740 H   0  0  0  0  0  0  0  0  0  0  0  0
  145.0632  137.4431  155.1847 H   0  0  0  0  0  0  0  0  0  0  0  0
  144.4774  138.1732  153.7285 H   0  0  0  0  0  0  0  0  0  0  0  0
  148.1799  137.0536  154.0904 H   0  0  0  0  0  0  0  0  0  0  0  0
  147.0962  136.2990  155.2168 H   0  0  0  0  0  0  0  0  0  0  0  0
  147.4319  134.2137  154.2956 H   0  0  0  0  0  0  0  0  0  0  0  0
  146.1474  134.6883  152.1797 H   0  0  0  0  0  0  0  0  0  0  0  0
  147.5977  133.7551  151.8413 H   0  0  0  0  0  0  0  0  0  0  0  0
  147.5626  135.4835  151.4970 H   0  0  0  0  0  0  0  0  0  0  0  0
  149.4735  135.7229  153.1063 H   0  0  0  0  0  0  0  0  0  0  0  0
  147.2016  137.0437  151.6109 H   0  0  0  0  0  0  0  0  0  0  0  0
  145.7082  137.9343  151.6409 H   0  0  0  0  0  0  0  0  0  0  0  0
  147.5857  139.5034  151.5532 H   0  0  0  0  0  0  0  0  0  0  0  0
  148.3217  138.8165  152.9849 H   0  0  0  0  0  0  0  0  0  0  0  0
  149.9523  144.0223  156.9615 H   0  0  0  0  0  0  0  0  0  0  0  0
  150.4047  145.6595  158.6003 H   0  0  0  0  0  0  0  0  0  0  0  0
  152.0419  145.5963  159.2501 H   0  0  0  0  0  0  0  0  0  0  0  0
  150.6780  145.0204  160.2203 H   0  0  0  0  0  0  0  0  0  0  0  0
  145.7103  140.1243  152.8243 H   0  0  0  0  0  0  0  0  0  0  0  0
  1  2  1  0  0  0  0
  1 26  1  0  0  0  0
  1 27  1  0  0  0  0
  1 28  1  0  0  0  0
  2 24  1  0  0  0  0
  2  3  2  0  0  0  0
  3  4  1  0  0  0  0
  3 29  1  0  0  0  0
  4 22  2  0  0  0  0
  4  5  1  0  0  0  0
  5  6  2  0  0  0  0
  6  7  1  0  0  0  0
  6 30  1  0  0  0  0
  7  8  1  0  0  0  0
  7 22  1  0  0  0  0
  8  9  1  0  0  0  0
  8 31  1  0  0  0  0
  8 32  1  0  0  0  0
  9 10  1  0  0  0  0
  9 11  1  0  0  0  0
  9 33  1  0  0  0  0
 10 34  1  0  0  0  0
 11 12  1  0  0  0  0
 11 35  1  0  0  0  0
 11 36  1  0  0  0  0
 12 21  1  0  0  0  0
 12 13  1  0  0  0  0
 12 56  1  0  0  0  0
 13 14  1  0  0  0  0
 13 37  1  0  0  0  0
 13 38  1  0  0  0  0
 14 15  1  0  0  0  0
 14 39  1  0  0  0  0
 14 40  1  0  0  0  0
 15 16  1  0  0  0  0
 15 20  1  0  0  0  0
 16 17  1  0  0  0  0
 16 41  1  0  0  0  0
 16 42  1  0  0  0  0
 17 18  1  0  0  0  0
 17 19  1  0  0  0  0
 17 43  1  0  0  0  0
 18 44  1  0  0  0  0
 18 45  1  0  0  0  0
 18 46  1  0  0  0  0
 19 47  1  0  0  0  0
 20 21  1  0  0  0  0
 20 48  1  0  0  0  0
 20 49  1  0  0  0  0
 21 50  1  0  0  0  0
 21 51  1  0  0  0  0
 22 23  1  0  0  0  0
 23 24  2  0  0  0  0
 23 52  1  0  0  0  0
 24 25  1  0  0  0  0
 25 53  1  0  0  0  0
 25 54  1  0  0  0  0
 25 55  1  0  0  0  0
M  CHG  1  12   1
M  END
> <s_m_source_file>
AV-unprocessed.smi

> <i_m_source_file_index>
1033

> <i_lp_mmshare_version>
43012

> <i_f3d_flags>
0

> <s_epik_input>
W0NIM11jKFtjSF0xKWMoW0NIM10pW2NIXWMoYzEyKW4oW2NIXW4yKVtDSDJdW0NASF0oW09IXSlbQ0gyXU4zW0NIMl1bQ0gyXU4oW0NIMl1bQ0gyXTMpW0NIMl1bQ0BIXShbQ0gzXSlbT0hd

> <s_epik_cmdline>
J2VwaWtfcHl0aG9uJywgJy1waCcsICc3LjAnLCAnLXRuJywgJzgnLCAnLW1hJywgJzIwMCcsICctbWV0YWxfYmluZGluZycsICctaW1hZScsICc8aW5maWxlLm1hZT4nLCAnLW9tYWUnLCAnPG91dGZpbGUubWFlPic=

> <r_epik_Ionization_Penalty>
0.131893

> <r_epik_Ionization_Penalty_Charging>
0.00208556

> <r_epik_Ionization_Penalty_Neutral>
0.129808

> <r_epik_State_Penalty>
0.452125

> <r_epik_Charging_Adjusted_Penalty>
0.454211

> <i_epik_Tot_Q>
1

> <i_epik_Tot_abs_Q>
1

> <r_epik_Metal_State_Penalty>
0.376389

> <b_epik_Metal_Only>
0

> <s_lp_Force_Field>
OPLS_2005

> <r_lp_Energy>
31.8043

> <b_lp_Chiralities_Consistent>
1

> <s_lp_Variant>
AV-unprocessed.smi:1033-4

> <Gold.Version>
5.8.1

> <Gold.Id.Protein>
6NUR|6NUR_protein|mol2

> <Gold.PLP.Fitness>
53.3721

> <Gold.PLP.PLP>
-46.3125

> <Gold.PLP.part.hbond>
-3.0000

> <Gold.PLP.part.metal>
0.0000

> <Gold.PLP.part.buried>
-0.8631

> <Gold.PLP.part.nonpolar>
-41.1661

> <Gold.PLP.part.repulsive>
0.1281

> <Gold.PLP.ligand.clash>
0.0000

> <Gold.PLP.ligand.torsion>
2.5324

> <Gold.PLP.Chemscore.Hbond>
4.0000

> <Gold.PLP.Chemscore.CHOScore>
0.0000

> <Gold.PLP.Chemscore.Metal>
0.0000

> <Gold.Chemscore.Hbonds>
donor molecule, donor type, donor heavy atom, donor atom, acceptor molecule, acceptor atom, score
      L1  H    10    34       P1  8028  0.62
      L1  H    12    56       P1 10175  1.72
      L1  H    19    47       P1  7948  0.28

> <Gold.PLP.Chemscore.Internal.Correction>
0.1243

> <Gold.Rescore>
     Score         DG    S(hbond)    S(metal)    S(lipo)     H(rot)  DE(clash)    DE(int)     intcor
     18.43     -21.20       2.67        0.00     125.17       3.07       0.22       2.56       ----

> <Gold.Chemscore.Fitness>
18.4304

> <Gold.Chemscore.DG>
-21.2017

> <Gold.Chemscore.ZeroCoef>
-5.4800

> <Gold.Chemscore.Hbond>
2.6718

> <Gold.Chemscore.Metal>
0.0000

> <Gold.Chemscore.Lipo>
125.1670

> <Gold.Chemscore.Internal_Hbond>
0.0000

> <Gold.Chemscore.DEClash>
0.2157

> <Gold.Chemscore.DEInternal>
2.5557

> <Gold.Chemscore.Rot>
3.0650

> <Gold.Chemscore.Internal.Correction>
   9.000000E+99

> <Gold.Chemscore.Hbonds>
donor molecule, donor type, donor heavy atom, donor atom, acceptor molecule, acceptor atom, score
      L1  H    10    34       P1  8028  0.18
      L1  H    12    56       P1 10175  0.80
      L1  H    19    47       P1  7948  0.04

> <Gold.Chemscore.Hbond.Weighted>
-8.9237

> <Gold.Chemscore.Metal.Weighted>
-0.0000

> <Gold.Chemscore.Lipo.Weighted>
-14.6445

> <Gold.Chemscore.Internal_Hbond.Weighted>
0.0000

> <Gold.Chemscore.DEClash.Weighted>
0.2157

> <Gold.Chemscore.DEInternal.Weighted>
2.5557

> <Gold.Chemscore.Rot.Weighted>
7.8465

> <Gold.Chemscore.Internal.Correction.Weighted>
   9.000000E+99

> <Gold.Protein.RotatedTorsions>
[ 6907 6896 6895 6894 ] final  155.69 input  -60.11 | X-H torsion
[ 7974 7965 7964 7962 ] final -178.76 input  175.53 | X-H torsion
[ 8008 7997 7996 7995 ] final  -61.95 input   59.86 | X-H torsion
[ 10167 10162 10161 10158 ] final -141.23 input  -65.29 | X-H torsion
[ 10718 10713 10712 10709 ] final  -60.19 input   66.30 | X-H torsion
[ 10763 10752 10751 10750 ] final  -54.16 input  -60.55 | X-H torsion
[ 11005 11000 10999 10996 ] final  -31.00 input  -57.11 | X-H torsion

> <Gold.Protein.ActiveResidues>
 VAL166  LYS551  ARG553  GLY616  TRP617  ASP618  TYR619  PRO620  LYS621  CYS622 
 ASP623  PHE694  ASN695  SER759  ASP760  ASP761  ALA762  ILE779  LEU786  VAL792 
 PHE793  MET794  SER795  GLU796  ALA797  LYS798  CYS799  TRP800  GLU811  SER814 

> <Gold.Protein.RotatedAtoms>
  152.0405  133.3975  159.4334 H   0  0  0  0  0  0  0  0  0  0  0  0  # atno 6907 bound_to 6896
  150.6876  134.3420  159.4881 H   0  0  0  0  0  0  0  0  0  0  0  0  # atno 6908 bound_to 6896
  152.1218  134.9199  160.0613 H   0  0  0  0  0  0  0  0  0  0  0  0  # atno 6909 bound_to 6896
  144.7132  140.0819  143.6425 H   0  0  0  0  0  0  0  0  0  0  0  0  # atno 7974 bound_to 7965
  154.4474  140.1006  156.6511 H   0  0  0  0  0  0  0  0  0  0  0  0  # atno 8008 bound_to 7997
  155.5397  140.3483  155.4425 H   0  0  0  0  0  0  0  0  0  0  0  0  # atno 8009 bound_to 7997
  156.0606  140.1325  156.9935 H   0  0  0  0  0  0  0  0  0  0  0  0  # atno 8010 bound_to 7997
  139.8205  143.7581  152.2666 H   0  0  0  0  0  0  0  0  0  0  0  0  # atno 10167 bound_to 10162
  156.1008  130.4186  150.0820 H   0  0  0  0  0  0  0  0  0  0  0  0  # atno 10718 bound_to 10713
  154.1704  135.6460  153.5008 H   0  0  0  0  0  0  0  0  0  0  0  0  # atno 10763 bound_to 10752
  153.0086  135.5382  154.6618 H   0  0  0  0  0  0  0  0  0  0  0  0  # atno 10764 bound_to 10752
  154.5956  135.2938  155.0562 H   0  0  0  0  0  0  0  0  0  0  0  0  # atno 10765 bound_to 10752
  140.9431  133.7267  156.1105 H   0  0  0  0  0  0  0  0  0  0  0  0  # atno 11005 bound_to 11000
  145.9694  139.2859  143.1108 LP  0  0  0  0  0  0  0  0  0  0  0  0  # atno 17320 bound_to 7965
  145.9133  140.9165  143.0443 LP  0  0  0  0  0  0  0  0  0  0  0  0  # atno 17321 bound_to 7965
  139.7757  144.7461  151.0160 LP  0  0  0  0  0  0  0  0  0  0  0  0  # atno 17342 bound_to 10162
  140.7813  143.4596  151.0296 LP  0  0  0  0  0  0  0  0  0  0  0  0  # atno 17343 bound_to 10162
  156.8807  130.9555  151.3599 LP  0  0  0  0  0  0  0  0  0  0  0  0  # atno 17370 bound_to 10713
  157.6177  130.8631  149.9057 LP  0  0  0  0  0  0  0  0  0  0  0  0  # atno 17371 bound_to 10713
  140.7707  134.3836  157.5508 LP  0  0  0  0  0  0  0  0  0  0  0  0  # atno 17394 bound_to 11000
  139.8826  134.9020  156.2823 LP  0  0  0  0  0  0  0  0  0  0  0  0  # atno 17395 bound_to 11000

$$$$
