AV-unprocessed.smi:2822|AV-procd|sdf|10864|dock1
  -GOLD-   2272015303D 1   1.00000     0.00000
 Structure written by MMmdl.
 41 43  0  0  0  0  0  0  0  0  3 V2000
  150.2021  138.5873  154.1679 Cl  0  0  0  0  0  0  0  0  0  0  0  0
  149.0069  139.8357  154.1146 C   0  0  0  0  0  0  0  0  0  0  0  0
  149.2886  141.0846  154.7060 C   0  0  0  0  0  0  0  0  0  0  0  0
  148.3664  142.0697  154.6762 N   0  3  0  0  0  0  0  0  0  0  0  0
  147.1583  141.9198  154.0936 C   0  0  0  0  0  0  0  0  0  0  0  0
  146.8186  140.6946  153.4845 C   0  0  0  0  0  0  0  0  0  0  0  0
  147.7515  139.6272  153.4913 C   0  0  0  0  0  0  0  0  0  0  0  0
  147.4731  138.3836  152.9026 N   0  0  0  0  0  0  0  0  0  0  0  0
  146.1794  138.1203  152.2900 C   0  0  0  0  0  0  0  0  0  0  0  0
  145.6039  136.7690  152.7388 C   0  0  2  0  0  0  0  0  0  0  0  0
  146.3887  135.5901  152.1350 C   0  0  0  0  0  0  0  0  0  0  0  0
  145.7631  134.2982  152.5120 N   0  3  2  0  0  0  0  0  0  0  0  0
  146.4979  133.1055  152.0150 C   0  0  0  0  0  0  0  0  0  0  0  0
  146.2843  132.8758  150.5066 C   0  0  0  0  0  0  0  0  0  0  0  0
  144.7899  132.8026  150.1655 C   0  0  0  0  0  0  0  0  0  0  0  0
  144.0615  134.0513  150.6820 C   0  0  0  0  0  0  0  0  0  0  0  0
  144.3091  134.2547  152.1932 C   0  0  2  0  0  0  0  0  0  0  0  0
  143.6044  135.5085  152.7472 C   0  0  0  0  0  0  0  0  0  0  0  0
  144.2562  136.6863  152.2868 O   0  0  0  0  0  0  0  0  0  0  0  0
  150.2194  141.3229  155.1997 H   0  0  0  0  0  0  0  0  0  0  0  0
  146.5036  142.7784  154.1304 H   0  0  0  0  0  0  0  0  0  0  0  0
  145.8489  140.5959  153.0202 H   0  0  0  0  0  0  0  0  0  0  0  0
  148.0636  137.5957  153.1302 H   0  0  0  0  0  0  0  0  0  0  0  0
  145.4827  138.9239  152.5334 H   0  0  0  0  0  0  0  0  0  0  0  0
  146.3069  138.1162  151.2067 H   0  0  0  0  0  0  0  0  0  0  0  0
  145.6353  136.7087  153.8287 H   0  0  0  0  0  0  0  0  0  0  0  0
  146.4303  135.6906  151.0503 H   0  0  0  0  0  0  0  0  0  0  0  0
  147.4189  135.6088  152.4926 H   0  0  0  0  0  0  0  0  0  0  0  0
  147.5606  133.2012  152.2406 H   0  0  0  0  0  0  0  0  0  0  0  0
  146.1457  132.2331  152.5667 H   0  0  0  0  0  0  0  0  0  0  0  0
  146.7542  133.6750  149.9330 H   0  0  0  0  0  0  0  0  0  0  0  0
  146.7781  131.9530  150.2004 H   0  0  0  0  0  0  0  0  0  0  0  0
  144.6535  132.7052  149.0880 H   0  0  0  0  0  0  0  0  0  0  0  0
  144.3536  131.9102  150.6162 H   0  0  0  0  0  0  0  0  0  0  0  0
  144.3892  134.9264  150.1199 H   0  0  0  0  0  0  0  0  0  0  0  0
  142.9925  133.9524  150.4909 H   0  0  0  0  0  0  0  0  0  0  0  0
  143.8930  133.3891  152.7110 H   0  0  0  0  0  0  0  0  0  0  0  0
  142.5616  135.5306  152.4302 H   0  0  0  0  0  0  0  0  0  0  0  0
  143.5982  135.4953  153.8383 H   0  0  0  0  0  0  0  0  0  0  0  0
  145.8259  134.2597  153.5194 H   0  0  0  0  0  0  0  0  0  0  0  0
  148.5926  142.9649  155.1108 H   0  0  0  0  0  0  0  0  0  0  0  0
  1  2  1  0  0  0  0
  2  7  1  0  0  0  0
  2  3  2  0  0  0  0
  3  4  1  0  0  0  0
  3 20  1  0  0  0  0
  4  5  2  0  0  0  0
  4 41  1  0  0  0  0
  5  6  1  0  0  0  0
  5 21  1  0  0  0  0
  6  7  2  0  0  0  0
  6 22  1  0  0  0  0
  7  8  1  0  0  0  0
  8  9  1  0  0  0  0
  8 23  1  0  0  0  0
  9 10  1  0  0  0  0
  9 24  1  0  0  0  0
  9 25  1  0  0  0  0
 10 19  1  0  0  0  0
 10 11  1  0  0  0  0
 10 26  1  0  0  0  0
 11 12  1  0  0  0  0
 11 27  1  0  0  0  0
 11 28  1  0  0  0  0
 12 17  1  0  0  0  0
 12 13  1  0  0  0  0
 12 40  1  0  0  0  0
 13 14  1  0  0  0  0
 13 29  1  0  0  0  0
 13 30  1  0  0  0  0
 14 15  1  0  0  0  0
 14 31  1  0  0  0  0
 14 32  1  0  0  0  0
 15 16  1  0  0  0  0
 15 33  1  0  0  0  0
 15 34  1  0  0  0  0
 16 17  1  0  0  0  0
 16 35  1  0  0  0  0
 16 36  1  0  0  0  0
 17 18  1  0  0  0  0
 17 37  1  0  0  0  0
 18 19  1  0  0  0  0
 18 38  1  0  0  0  0
 18 39  1  0  0  0  0
M  CHG  1   4   1
M  CHG  1  12   1
M  END
> <s_m_source_file>
AV-unprocessed.smi

> <i_m_source_file_index>
2822

> <i_lp_mmshare_version>
43012

> <i_f3d_flags>
0

> <s_epik_input>
Q2xjMVtjSF1uW2NIXVtjSF1jMVtOSF1bQ0gyXVtDQEhdKFtDSDJdMilPW0NIMl1bQ0BASF0oTjIzKVtDSDJdW0NIMl1bQ0gyXVtDSDJdMw==

> <s_epik_cmdline>
J2VwaWtfcHl0aG9uJywgJy1waCcsICc3LjAnLCAnLXRuJywgJzgnLCAnLW1hJywgJzIwMCcsICctbWV0YWxfYmluZGluZycsICctaW1hZScsICc8aW5maWxlLm1hZT4nLCAnLW9tYWUnLCAnPG91dGZpbGUubWFlPic=

> <r_lp_tautomer_probability>
1

> <r_epik_Ionization_Penalty>
0.254999

> <r_epik_Ionization_Penalty_Charging>
0.254956

> <r_epik_Ionization_Penalty_Neutral>
4.33524e-05

> <r_epik_State_Penalty>
0.230978

> <r_epik_Charging_Adjusted_Penalty>
0.485934

> <i_epik_Tot_Q>
2

> <i_epik_Tot_abs_Q>
2

> <r_epik_Metal_State_Penalty>
3.47007

> <b_epik_Metal_Only>
0

> <s_lp_Force_Field>
OPLS_2005

> <r_lp_Energy>
39.695

> <b_lp_Chiralities_Consistent>
1

> <s_lp_Variant>
AV-unprocessed.smi:2822-5

> <Gold.Version>
5.8.1

> <Gold.Id.Protein>
6NUR|6NUR_protein|mol2

> <Gold.PLP.Fitness>
40.0200

> <Gold.PLP.PLP>
-32.5403

> <Gold.PLP.part.hbond>
-2.5489

> <Gold.PLP.part.metal>
0.0000

> <Gold.PLP.part.buried>
0.8428

> <Gold.PLP.part.nonpolar>
-32.5428

> <Gold.PLP.part.repulsive>
0.4327

> <Gold.PLP.ligand.clash>
0.0000

> <Gold.PLP.ligand.torsion>
0.1248

> <Gold.PLP.Chemscore.Hbond>
2.5760

> <Gold.PLP.Chemscore.CHOScore>
0.0000

> <Gold.PLP.Chemscore.Metal>
0.0000

> <Gold.Chemscore.Hbonds>
donor molecule, donor type, donor heavy atom, donor atom, acceptor molecule, acceptor atom, score
      L1  H     4    41       P1  8028  2.00
      L1  H     8    23       P1  7948  0.54

> <Gold.PLP.Chemscore.Internal.Correction>
0.0012

> <Gold.Rescore>
     Score         DG    S(hbond)    S(metal)    S(lipo)     H(rot)  DE(clash)    DE(int)     intcor
     17.49     -19.39       1.64        0.00      98.30       1.20       1.79       0.11       ----

> <Gold.Chemscore.Fitness>
17.4936

> <Gold.Chemscore.DG>
-19.3920

> <Gold.Chemscore.ZeroCoef>
-5.4800

> <Gold.Chemscore.Hbond>
1.6386

> <Gold.Chemscore.Metal>
0.0000

> <Gold.Chemscore.Lipo>
98.3008

> <Gold.Chemscore.Internal_Hbond>
0.0000

> <Gold.Chemscore.DEClash>
1.7901

> <Gold.Chemscore.DEInternal>
0.1083

> <Gold.Chemscore.Rot>
1.1962

> <Gold.Chemscore.Internal.Correction>
   9.000000E+99

> <Gold.Chemscore.Hbonds>
donor molecule, donor type, donor heavy atom, donor atom, acceptor molecule, acceptor atom, score
      L1  H     4    41       P1  8028  1.00
      L1  H     8    23       P1  7948  0.50

> <Gold.Chemscore.Hbond.Weighted>
-5.4731

> <Gold.Chemscore.Metal.Weighted>
-0.0000

> <Gold.Chemscore.Lipo.Weighted>
-11.5012

> <Gold.Chemscore.Internal_Hbond.Weighted>
0.0000

> <Gold.Chemscore.DEClash.Weighted>
1.7901

> <Gold.Chemscore.DEInternal.Weighted>
0.1083

> <Gold.Chemscore.Rot.Weighted>
3.0623

> <Gold.Chemscore.Internal.Correction.Weighted>
   9.000000E+99

> <Gold.Protein.RotatedTorsions>
[ 6907 6896 6895 6894 ] final -151.91 input  -60.11 | X-H torsion
[ 7974 7965 7964 7962 ] final  -58.13 input  175.53 | X-H torsion
[ 8008 7997 7996 7995 ] final   35.27 input   59.86 | X-H torsion
[ 10167 10162 10161 10158 ] final  -43.60 input  -65.29 | X-H torsion
[ 10718 10713 10712 10709 ] final -164.45 input   66.30 | X-H torsion
[ 10763 10752 10751 10750 ] final    0.49 input  -60.55 | X-H torsion
[ 11005 11000 10999 10996 ] final  -38.12 input  -57.11 | X-H torsion

> <Gold.Protein.ActiveResidues>
 VAL166  LYS551  ARG553  GLY616  TRP617  ASP618  TYR619  PRO620  LYS621  CYS622 
 ASP623  PHE694  ASN695  SER759  ASP760  ASP761  ALA762  ILE779  LEU786  VAL792 
 PHE793  MET794  SER795  GLU796  ALA797  LYS798  CYS799  TRP800  GLU811  SER814 

> <Gold.Protein.RotatedAtoms>
  151.2200  133.4508  159.2600 H   0  0  0  0  0  0  0  0  0  0  0  0  # atno 6907 bound_to 6896
  151.0894  134.9907  159.8405 H   0  0  0  0  0  0  0  0  0  0  0  0  # atno 6908 bound_to 6896
  152.5433  134.2134  159.8812 H   0  0  0  0  0  0  0  0  0  0  0  0  # atno 6909 bound_to 6896
  145.8429  140.8405  143.0025 H   0  0  0  0  0  0  0  0  0  0  0  0  # atno 7974 bound_to 7965
  155.1684  140.3289  155.4397 H   0  0  0  0  0  0  0  0  0  0  0  0  # atno 8008 bound_to 7997
  156.2518  140.1948  156.6739 H   0  0  0  0  0  0  0  0  0  0  0  0  # atno 8009 bound_to 7997
  154.6355  140.0577  156.9769 H   0  0  0  0  0  0  0  0  0  0  0  0  # atno 8010 bound_to 7997
  140.6928  143.2974  151.3375 H   0  0  0  0  0  0  0  0  0  0  0  0  # atno 10167 bound_to 10162
  156.6392  130.8961  151.2992 H   0  0  0  0  0  0  0  0  0  0  0  0  # atno 10718 bound_to 10713
  153.3200  135.6968  153.7039 H   0  0  0  0  0  0  0  0  0  0  0  0  # atno 10763 bound_to 10752
  153.5883  135.3485  155.2902 H   0  0  0  0  0  0  0  0  0  0  0  0  # atno 10764 bound_to 10752
  154.8595  135.4311  154.2361 H   0  0  0  0  0  0  0  0  0  0  0  0  # atno 10765 bound_to 10752
  141.0004  133.6958  156.2011 H   0  0  0  0  0  0  0  0  0  0  0  0  # atno 11005 bound_to 11000
  144.6732  140.0839  143.7468 LP  0  0  0  0  0  0  0  0  0  0  0  0  # atno 17320 bound_to 7965
  145.9445  139.2691  143.1249 LP  0  0  0  0  0  0  0  0  0  0  0  0  # atno 17321 bound_to 7965
  139.6349  144.0650  152.2507 LP  0  0  0  0  0  0  0  0  0  0  0  0  # atno 17342 bound_to 10162
  140.0136  144.6205  150.7626 LP  0  0  0  0  0  0  0  0  0  0  0  0  # atno 17343 bound_to 10162
  157.7176  130.9517  150.1315 LP  0  0  0  0  0  0  0  0  0  0  0  0  # atno 17370 bound_to 10713
  156.2173  130.3671  149.8598 LP  0  0  0  0  0  0  0  0  0  0  0  0  # atno 17371 bound_to 10713
  140.6899  134.4677  157.5588 LP  0  0  0  0  0  0  0  0  0  0  0  0  # atno 17394 bound_to 11000
  139.9035  134.8500  156.1797 LP  0  0  0  0  0  0  0  0  0  0  0  0  # atno 17395 bound_to 11000

$$$$
