AV-unprocessed.smi:227|AV-procd|sdf|1731|dock2
  -GOLD-   2262020223D 1   1.00000     0.00000
 Structure written by MMmdl.
 54 58  0  0  0  0  0  0  0  0  1 V2000
  153.7599  140.1379  158.9308 O   0  0  0  0  0  0  0  0  0  0  0  0
  152.7391  140.7080  159.7254 C   0  0  0  0  0  0  0  0  0  0  0  0
  151.8051  141.6294  158.8971 C   0  0  2  0  0  0  0  0  0  0  0  0
  151.6682  141.1647  157.4222 C   0  0  0  0  0  0  0  0  0  0  0  0
  150.5201  140.3098  157.1822 N   0  0  0  0  0  0  0  0  0  0  0  0
  149.6027  139.8879  158.1154 C   0  0  0  0  0  0  0  0  0  0  0  0
  148.6698  139.0997  157.6571 N   0  0  0  0  0  0  0  0  0  0  0  0
  148.9668  138.9621  156.3057 C   0  0  0  0  0  0  0  0  0  0  0  0
  148.3930  138.2292  155.2259 C   0  0  0  0  0  0  0  0  0  0  0  0
  147.3186  137.4040  155.3550 N   0  0  0  0  0  0  0  0  0  0  0  0
  146.0611  137.8884  155.9038 C   0  0  2  0  0  0  0  0  0  0  0  0
  145.2547  136.5884  156.0658 C   0  0  0  0  0  0  0  0  0  0  0  0
  145.7412  135.7802  154.8514 C   0  0  0  0  0  0  0  0  0  0  0  0
  146.7082  136.7789  154.1897 C   0  0  1  0  0  0  0  0  0  0  0  0
  145.8718  137.8987  153.5193 C   0  0  2  0  0  0  0  0  0  0  0  0
  146.6345  138.7069  152.4508 C   0  0  0  0  0  0  0  0  0  0  0  0
  147.1356  137.8435  151.4527 O   0  0  0  0  0  0  0  0  0  0  0  0
  145.4542  138.7215  154.7553 C   0  0  0  0  0  0  0  0  0  0  0  0
  148.9632  138.3796  154.0007 N   0  0  0  0  0  0  0  0  0  0  0  0
  150.0381  139.1562  153.8422 C   0  0  0  0  0  0  0  0  0  0  0  0
  150.6953  139.8664  154.7596 N   0  0  0  0  0  0  0  0  0  0  0  0
  150.1163  139.7408  155.9875 C   0  0  0  0  0  0  0  0  0  0  0  0
  152.2800  143.1057  158.9501 C   0  0  2  0  0  0  0  0  0  0  0  0
  152.1731  143.7708  160.3134 C   0  0  0  0  0  0  0  0  0  0  0  0
  152.2341  145.2536  159.9628 C   0  0  0  0  0  0  0  0  0  0  0  0
  151.6441  145.3714  158.6739 O   0  0  0  0  0  0  0  0  0  0  0  0
  151.4427  144.0794  158.1117 C   0  0  0  0  0  0  0  0  0  0  0  0
  154.4167  139.7701  159.5026 H   0  0  0  0  0  0  0  0  0  0  0  0
  152.1935  139.8719  160.1587 H   0  0  0  0  0  0  0  0  0  0  0  0
  153.1831  141.2543  160.5582 H   0  0  0  0  0  0  0  0  0  0  0  0
  150.8142  141.5952  159.3532 H   0  0  0  0  0  0  0  0  0  0  0  0
  151.5769  142.0217  156.7550 H   0  0  0  0  0  0  0  0  0  0  0  0
  152.5677  140.6312  157.1134 H   0  0  0  0  0  0  0  0  0  0  0  0
  149.6554  140.1760  159.1553 H   0  0  0  0  0  0  0  0  0  0  0  0
  146.1501  138.4417  156.8394 H   0  0  0  0  0  0  0  0  0  0  0  0
  145.5146  136.0794  156.9947 H   0  0  0  0  0  0  0  0  0  0  0  0
  144.1774  136.7584  156.0597 H   0  0  0  0  0  0  0  0  0  0  0  0
  146.2730  134.8852  155.1773 H   0  0  0  0  0  0  0  0  0  0  0  0
  144.9294  135.4680  154.1935 H   0  0  0  0  0  0  0  0  0  0  0  0
  147.3906  136.2790  153.5049 H   0  0  0  0  0  0  0  0  0  0  0  0
  144.9943  137.4584  153.0424 H   0  0  0  0  0  0  0  0  0  0  0  0
  146.0004  139.4550  151.9765 H   0  0  0  0  0  0  0  0  0  0  0  0
  147.4731  139.2367  152.9034 H   0  0  0  0  0  0  0  0  0  0  0  0
  147.5137  137.0859  151.8725 H   0  0  0  0  0  0  0  0  0  0  0  0
  144.3727  138.8328  154.8418 H   0  0  0  0  0  0  0  0  0  0  0  0
  145.8887  139.7219  154.7324 H   0  0  0  0  0  0  0  0  0  0  0  0
  150.4310  139.2112  152.8378 H   0  0  0  0  0  0  0  0  0  0  0  0
  153.3174  143.1649  158.6162 H   0  0  0  0  0  0  0  0  0  0  0  0
  151.2142  143.5366  160.7780 H   0  0  0  0  0  0  0  0  0  0  0  0
  152.9664  143.4841  161.0037 H   0  0  0  0  0  0  0  0  0  0  0  0
  151.7202  145.8754  160.6960 H   0  0  0  0  0  0  0  0  0  0  0  0
  153.2704  145.5875  159.9010 H   0  0  0  0  0  0  0  0  0  0  0  0
  151.7189  144.0693  157.0570 H   0  0  0  0  0  0  0  0  0  0  0  0
  150.3811  143.8385  158.1845 H   0  0  0  0  0  0  0  0  0  0  0  0
  1  2  1  0  0  0  0
  1 28  1  0  0  0  0
  2  3  1  0  0  0  0
  2 29  1  0  0  0  0
  2 30  1  0  0  0  0
  3  4  1  0  0  0  0
  3 23  1  0  0  0  0
  3 31  1  0  0  0  0
  4  5  1  0  0  0  0
  4 32  1  0  0  0  0
  4 33  1  0  0  0  0
  5 22  1  0  0  0  0
  5  6  1  0  0  0  0
  6  7  2  0  0  0  0
  6 34  1  0  0  0  0
  7  8  1  0  0  0  0
  8 22  2  0  0  0  0
  8  9  1  0  0  0  0
  9 10  1  0  0  0  0
  9 19  2  0  0  0  0
 10 14  1  0  0  0  0
 10 11  1  0  0  0  0
 11 18  1  0  0  0  0
 11 12  1  0  0  0  0
 11 35  1  0  0  0  0
 12 13  1  0  0  0  0
 12 36  1  0  0  0  0
 12 37  1  0  0  0  0
 13 14  1  0  0  0  0
 13 38  1  0  0  0  0
 13 39  1  0  0  0  0
 14 15  1  0  0  0  0
 14 40  1  0  0  0  0
 15 16  1  0  0  0  0
 15 18  1  0  0  0  0
 15 41  1  0  0  0  0
 16 17  1  0  0  0  0
 16 42  1  0  0  0  0
 16 43  1  0  0  0  0
 17 44  1  0  0  0  0
 18 45  1  0  0  0  0
 18 46  1  0  0  0  0
 19 20  1  0  0  0  0
 20 21  2  0  0  0  0
 20 47  1  0  0  0  0
 21 22  1  0  0  0  0
 23 27  1  0  0  0  0
 23 24  1  0  0  0  0
 23 48  1  0  0  0  0
 24 25  1  0  0  0  0
 24 49  1  0  0  0  0
 24 50  1  0  0  0  0
 25 26  1  0  0  0  0
 25 51  1  0  0  0  0
 25 52  1  0  0  0  0
 26 27  1  0  0  0  0
 27 53  1  0  0  0  0
 27 54  1  0  0  0  0
M  END
> <s_m_source_file>
AV-unprocessed.smi

> <i_m_source_file_index>
227

> <i_lp_mmshare_version>
43012

> <i_f3d_flags>
0

> <s_epik_input>
W0NIMl0xT1tDSDJdW0NIMl1bQ0BIXTFbQ0BIXShbQ0gyXVtPSF0pW0NIMl1uKFtjSF1uMiljKGMyMyluW2NIXW5jM04oW0NASF00NSlbQ0BASF0oW0NIMl1bQ0gyXTQpW0NASF0oW0NIMl01KVtDSDJdW09IXQ==

> <s_epik_cmdline>
J2VwaWtfcHl0aG9uJywgJy1waCcsICc3LjAnLCAnLXRuJywgJzgnLCAnLW1hJywgJzIwMCcsICctbWV0YWxfYmluZGluZycsICctaW1hZScsICc8aW5maWxlLm1hZT4nLCAnLW9tYWUnLCAnPG91dGZpbGUubWFlPic=

> <r_lp_tautomer_probability>
1

> <r_epik_Ionization_Penalty>
0.0055791

> <r_epik_Ionization_Penalty_Charging>
0

> <r_epik_Ionization_Penalty_Neutral>
0.0055791

> <r_epik_State_Penalty>
0.00401299

> <r_epik_Charging_Adjusted_Penalty>
0.00401299

> <i_epik_Tot_Q>
0

> <i_epik_Tot_abs_Q>
0

> <r_epik_Metal_State_Penalty>
-0

> <b_epik_Metal_Only>
0

> <s_lp_Force_Field>
OPLS_2005

> <r_lp_Energy>
88.0051

> <b_lp_Chiralities_Consistent>
1

> <s_lp_Variant>
AV-unprocessed.smi:227-5

> <Gold.Version>
5.8.1

> <Gold.Id.Protein>
6NUR|6NUR_protein|mol2

> <Gold.PLP.Fitness>
45.1290

> <Gold.PLP.PLP>
-33.5932

> <Gold.PLP.part.hbond>
-4.2394

> <Gold.PLP.part.metal>
0.0000

> <Gold.PLP.part.buried>
-3.0524

> <Gold.PLP.part.nonpolar>
-27.7261

> <Gold.PLP.part.repulsive>
1.3441

> <Gold.PLP.ligand.clash>
0.0000

> <Gold.PLP.ligand.torsion>
1.0266

> <Gold.PLP.Chemscore.Hbond>
3.4280

> <Gold.PLP.Chemscore.CHOScore>
0.9950

> <Gold.PLP.Chemscore.Metal>
0.0000

> <Gold.Chemscore.Hbonds>
donor molecule, donor type, donor heavy atom, donor atom, acceptor molecule, acceptor atom, score
      L1  H    17    44       P1  7948  0.75
      P1  H  7954  7966       L1    17  0.95
      P1  H  7989  7998       L1    21  0.70
      P1  H  7997  8009       L1     1  0.96
      L1  C    20    47       P1  7957  0.99

> <Gold.PLP.Chemscore.Internal.Correction>
0.3197

> <Gold.Rescore>
     Score         DG    S(hbond)    S(metal)    S(lipo)     H(rot)  DE(clash)    DE(int)     intcor
      7.71     -11.87       1.64        0.00      86.61       3.61       1.75       2.40       ----

> <Gold.Chemscore.Fitness>
7.7127

> <Gold.Chemscore.DG>
-11.8716

> <Gold.Chemscore.ZeroCoef>
-5.4800

> <Gold.Chemscore.Hbond>
1.6444

> <Gold.Chemscore.Metal>
0.0000

> <Gold.Chemscore.Lipo>
86.6125

> <Gold.Chemscore.Internal_Hbond>
0.0000

> <Gold.Chemscore.DEClash>
1.7545

> <Gold.Chemscore.DEInternal>
2.4044

> <Gold.Chemscore.Rot>
3.6071

> <Gold.Chemscore.Internal.Correction>
   9.000000E+99

> <Gold.Chemscore.Hbonds>
donor molecule, donor type, donor heavy atom, donor atom, acceptor molecule, acceptor atom, score
      L1  H    17    44       P1  7948  0.74
      P1  H  7954  7966       L1    17  0.22
      P1  H  7989  7998       L1    21  0.07
      P1  H  7997  8009       L1     1  0.22

> <Gold.Chemscore.Hbond.Weighted>
-5.4922

> <Gold.Chemscore.Metal.Weighted>
-0.0000

> <Gold.Chemscore.Lipo.Weighted>
-10.1337

> <Gold.Chemscore.Internal_Hbond.Weighted>
0.0000

> <Gold.Chemscore.DEClash.Weighted>
1.7545

> <Gold.Chemscore.DEInternal.Weighted>
2.4044

> <Gold.Chemscore.Rot.Weighted>
9.2342

> <Gold.Chemscore.Internal.Correction.Weighted>
   9.000000E+99

> <Gold.Protein.RotatedTorsions>
[ 6907 6896 6895 6894 ] final -142.37 input  -60.11 | X-H torsion
[ 7974 7965 7964 7962 ] final  -57.30 input  175.53 | X-H torsion
[ 8008 7997 7996 7995 ] final  142.79 input   59.86 | X-H torsion
[ 10167 10162 10161 10158 ] final   37.51 input  -65.29 | X-H torsion
[ 10718 10713 10712 10709 ] final   83.39 input   66.30 | X-H torsion
[ 10763 10752 10751 10750 ] final -156.12 input  -60.55 | X-H torsion
[ 11005 11000 10999 10996 ] final  -89.93 input  -57.11 | X-H torsion

> <Gold.Protein.ActiveResidues>
 VAL166  LYS551  ARG553  GLY616  TRP617  ASP618  TYR619  PRO620  LYS621  CYS622 
 ASP623  PHE694  ASN695  SER759  ASP760  ASP761  ALA762  ILE779  LEU786  VAL792 
 PHE793  MET794  SER795  GLU796  ALA797  LYS798  CYS799  TRP800  GLU811  SER814 

> <Gold.Protein.RotatedAtoms>
  151.0861  133.5352  159.2617 H   0  0  0  0  0  0  0  0  0  0  0  0  # atno 6907 bound_to 6896
  151.2236  135.0527  159.8969 H   0  0  0  0  0  0  0  0  0  0  0  0  # atno 6908 bound_to 6896
  152.5429  134.0660  159.8227 H   0  0  0  0  0  0  0  0  0  0  0  0  # atno 6909 bound_to 6896
  145.8527  140.8341  142.9977 H   0  0  0  0  0  0  0  0  0  0  0  0  # atno 7974 bound_to 7965
  156.2943  140.2279  156.4784 H   0  0  0  0  0  0  0  0  0  0  0  0  # atno 8008 bound_to 7997
  154.7874  140.0456  157.1195 H   0  0  0  0  0  0  0  0  0  0  0  0  # atno 8009 bound_to 7997
  154.9686  140.3063  155.5001 H   0  0  0  0  0  0  0  0  0  0  0  0  # atno 8010 bound_to 7997
  140.4025  144.1704  150.6134 H   0  0  0  0  0  0  0  0  0  0  0  0  # atno 10167 bound_to 10162
  157.6878  131.0089  150.2517 H   0  0  0  0  0  0  0  0  0  0  0  0  # atno 10718 bound_to 10713
  154.7736  135.3152  154.8138 H   0  0  0  0  0  0  0  0  0  0  0  0  # atno 10763 bound_to 10752
  153.8867  135.6829  153.4767 H   0  0  0  0  0  0  0  0  0  0  0  0  # atno 10764 bound_to 10752
  153.1355  135.4761  154.9351 H   0  0  0  0  0  0  0  0  0  0  0  0  # atno 10765 bound_to 10752
  141.1575  133.7660  156.9665 H   0  0  0  0  0  0  0  0  0  0  0  0  # atno 11005 bound_to 11000
  144.6728  140.0977  143.7462 LP  0  0  0  0  0  0  0  0  0  0  0  0  # atno 17320 bound_to 7965
  145.9339  139.2624  143.1308 LP  0  0  0  0  0  0  0  0  0  0  0  0  # atno 17321 bound_to 7965
  140.4724  143.2408  151.9070 LP  0  0  0  0  0  0  0  0  0  0  0  0  # atno 17342 bound_to 10162
  139.4784  144.5355  151.8604 LP  0  0  0  0  0  0  0  0  0  0  0  0  # atno 17343 bound_to 10162
  156.3112  130.3772  149.7659 LP  0  0  0  0  0  0  0  0  0  0  0  0  # atno 17370 bound_to 10713
  156.5259  130.8236  151.3220 LP  0  0  0  0  0  0  0  0  0  0  0  0  # atno 17371 bound_to 10713
  140.1158  134.9448  157.2132 LP  0  0  0  0  0  0  0  0  0  0  0  0  # atno 17394 bound_to 11000
  140.3135  134.2997  155.7261 LP  0  0  0  0  0  0  0  0  0  0  0  0  # atno 17395 bound_to 11000

$$$$
