AV-unprocessed.smi:20|AV-procd|sdf|120|dock3
  -GOLD-   2262015293D 1   1.00000     0.00000
 Structure written by MMmdl.
 57 61  0  0  0  0  0  0  0  0  1 V2000
  151.8801  129.2738  155.4668 O   0  0  0  0  0  0  0  0  0  0  0  0
  151.1130  130.1862  155.1689 C   0  0  0  0  0  0  0  0  0  0  0  0
  151.1927  131.5831  155.7599 C   0  0  0  0  0  0  0  0  0  0  0  0
  149.8317  132.2133  155.3769 C   0  0  1  0  0  0  0  0  0  0  0  0
  148.7845  132.0525  156.5118 C   0  0  0  0  0  0  0  0  0  0  0  0
  149.0730  132.9809  157.7050 C   0  0  0  0  0  0  0  0  0  0  0  0
  149.2317  134.4372  157.2469 C   0  0  0  0  0  0  0  0  0  0  0  0
  150.2244  134.5360  156.1797 N   0  0  0  0  0  0  0  0  0  0  0  0
  150.7173  135.7831  155.9757 C   0  0  0  0  0  0  0  0  0  0  0  0
  150.9798  136.2123  154.7120 N   0  0  0  0  0  0  0  0  0  0  0  0
  151.4638  137.4402  154.5030 C   0  0  0  0  0  0  0  0  0  0  0  0
  151.7582  138.3844  155.3985 N   0  0  0  0  0  0  0  0  0  0  0  0
  151.5009  137.9584  156.6679 C   0  0  0  0  0  0  0  0  0  0  0  0
  150.9839  136.6863  157.0427 C   0  0  0  0  0  0  0  0  0  0  0  0
  150.8691  136.6117  158.4262 N   0  0  0  0  0  0  0  0  0  0  0  0
  151.2889  137.7744  158.8449 C   0  0  0  0  0  0  0  0  0  0  0  0
  151.6963  138.6402  157.8559 N   0  0  0  0  0  0  0  0  0  0  0  0
  152.2169  139.9830  158.0413 C   0  0  0  0  0  0  0  0  0  0  0  0
  152.6554  140.2920  159.4975 C   0  0  1  0  0  0  0  0  0  0  0  0
  153.8953  139.4681  159.9313 C   0  0  0  0  0  0  0  0  0  0  0  0
  155.0686  139.8834  159.2628 O   0  0  0  0  0  0  0  0  0  0  0  0
  152.9147  141.8111  159.6731 C   0  0  1  0  0  0  0  0  0  0  0  0
  151.8524  142.7196  159.0765 C   0  0  0  0  0  0  0  0  0  0  0  0
  152.1187  144.0368  159.7931 C   0  0  0  0  0  0  0  0  0  0  0  0
  152.5204  143.6698  161.1060 O   0  0  0  0  0  0  0  0  0  0  0  0
  152.9155  142.3013  161.1285 C   0  0  0  0  0  0  0  0  0  0  0  0
  149.9545  133.7078  155.0034 C   0  0  0  0  0  0  0  0  0  0  0  0
  149.4044  131.3704  154.1516 C   0  0  0  0  0  0  0  0  0  0  0  0
  150.1074  130.1111  154.3007 N   0  0  0  0  0  0  0  0  0  0  0  0
  151.3755  131.5488  156.8333 H   0  0  0  0  0  0  0  0  0  0  0  0
  152.0265  132.1081  155.2922 H   0  0  0  0  0  0  0  0  0  0  0  0
  147.7929  132.2922  156.1257 H   0  0  0  0  0  0  0  0  0  0  0  0
  148.7348  131.0167  156.8504 H   0  0  0  0  0  0  0  0  0  0  0  0
  148.2662  132.9094  158.4349 H   0  0  0  0  0  0  0  0  0  0  0  0
  149.9779  132.6628  158.2227 H   0  0  0  0  0  0  0  0  0  0  0  0
  148.2790  134.8133  156.8715 H   0  0  0  0  0  0  0  0  0  0  0  0
  149.4966  135.0582  158.1021 H   0  0  0  0  0  0  0  0  0  0  0  0
  151.6413  137.7032  153.4706 H   0  0  0  0  0  0  0  0  0  0  0  0
  151.3235  138.0313  159.8939 H   0  0  0  0  0  0  0  0  0  0  0  0
  153.0557  140.1277  157.3593 H   0  0  0  0  0  0  0  0  0  0  0  0
  151.4387  140.6750  157.7192 H   0  0  0  0  0  0  0  0  0  0  0  0
  151.8293  140.0288  160.1603 H   0  0  0  0  0  0  0  0  0  0  0  0
  154.0449  139.5306  161.0097 H   0  0  0  0  0  0  0  0  0  0  0  0
  153.7716  138.4124  159.6955 H   0  0  0  0  0  0  0  0  0  0  0  0
  155.7975  139.8027  159.8588 H   0  0  0  0  0  0  0  0  0  0  0  0
  153.8744  142.0676  159.2208 H   0  0  0  0  0  0  0  0  0  0  0  0
  151.9268  142.8185  157.9933 H   0  0  0  0  0  0  0  0  0  0  0  0
  150.8536  142.3554  159.3212 H   0  0  0  0  0  0  0  0  0  0  0  0
  152.9391  144.5716  159.3127 H   0  0  0  0  0  0  0  0  0  0  0  0
  151.2473  144.6916  159.8081 H   0  0  0  0  0  0  0  0  0  0  0  0
  152.1893  141.7492  161.7262 H   0  0  0  0  0  0  0  0  0  0  0  0
  153.8914  142.1932  161.6018 H   0  0  0  0  0  0  0  0  0  0  0  0
  150.7457  133.8373  154.2631 H   0  0  0  0  0  0  0  0  0  0  0  0
  149.0283  134.0508  154.5397 H   0  0  0  0  0  0  0  0  0  0  0  0
  148.3263  131.2168  154.0919 H   0  0  0  0  0  0  0  0  0  0  0  0
  149.7259  131.8318  153.2166 H   0  0  0  0  0  0  0  0  0  0  0  0
  149.8608  129.2797  153.7833 H   0  0  0  0  0  0  0  0  0  0  0  0
  1  2  2  0  0  0  0
  2 29  1  0  0  0  0
  2  3  1  0  0  0  0
  3  4  1  0  0  0  0
  3 30  1  0  0  0  0
  3 31  1  0  0  0  0
  4 27  1  0  0  0  0
  4  5  1  0  0  0  0
  4 28  1  0  0  0  0
  5  6  1  0  0  0  0
  5 32  1  0  0  0  0
  5 33  1  0  0  0  0
  6  7  1  0  0  0  0
  6 34  1  0  0  0  0
  6 35  1  0  0  0  0
  7  8  1  0  0  0  0
  7 36  1  0  0  0  0
  7 37  1  0  0  0  0
  8  9  1  0  0  0  0
  8 27  1  0  0  0  0
  9 14  1  0  0  0  0
  9 10  2  0  0  0  0
 10 11  1  0  0  0  0
 11 12  2  0  0  0  0
 11 38  1  0  0  0  0
 12 13  1  0  0  0  0
 13 17  1  0  0  0  0
 13 14  2  0  0  0  0
 14 15  1  0  0  0  0
 15 16  2  0  0  0  0
 16 17  1  0  0  0  0
 16 39  1  0  0  0  0
 17 18  1  0  0  0  0
 18 19  1  0  0  0  0
 18 40  1  0  0  0  0
 18 41  1  0  0  0  0
 19 20  1  0  0  0  0
 19 22  1  0  0  0  0
 19 42  1  0  0  0  0
 20 21  1  0  0  0  0
 20 43  1  0  0  0  0
 20 44  1  0  0  0  0
 21 45  1  0  0  0  0
 22 26  1  0  0  0  0
 22 23  1  0  0  0  0
 22 46  1  0  0  0  0
 23 24  1  0  0  0  0
 23 47  1  0  0  0  0
 23 48  1  0  0  0  0
 24 25  1  0  0  0  0
 24 49  1  0  0  0  0
 24 50  1  0  0  0  0
 25 26  1  0  0  0  0
 26 51  1  0  0  0  0
 26 52  1  0  0  0  0
 27 53  1  0  0  0  0
 27 54  1  0  0  0  0
 28 29  1  0  0  0  0
 28 55  1  0  0  0  0
 28 56  1  0  0  0  0
 29 57  1  0  0  0  0
M  END
> <s_m_source_file>
AV-unprocessed.smi

> <i_m_source_file_index>
20

> <i_lp_mmshare_version>
43012

> <i_f3d_flags>
0

> <s_epik_input>
W0NIMl0xW05IXUMoPU8pW0NIMl1bQ0BAXTEyW0NIMl1bQ0gyXVtDSDJdTihbQ0gyXTIpYyhuW2NIXW4zKWMoYzM0KW5bY0hdbjRbQ0gyXVtDQEhdKFtDSDJdW09IXSlbQ0BASF01W0NIMl1bQ0gyXU9bQ0gyXTU=

> <s_epik_cmdline>
J2VwaWtfcHl0aG9uJywgJy1waCcsICc3LjAnLCAnLXRuJywgJzgnLCAnLW1hJywgJzIwMCcsICctbWV0YWxfYmluZGluZycsICctaW1hZScsICc8aW5maWxlLm1hZT4nLCAnLW9tYWUnLCAnPG91dGZpbGUubWFlPic=

> <r_lp_tautomer_probability>
1

> <r_epik_Ionization_Penalty>
0.0019697

> <r_epik_Ionization_Penalty_Charging>
0

> <r_epik_Ionization_Penalty_Neutral>
0.0019697

> <r_epik_State_Penalty>
0.00113613

> <r_epik_Charging_Adjusted_Penalty>
0.00113613

> <i_epik_Tot_Q>
0

> <i_epik_Tot_abs_Q>
0

> <r_epik_Metal_State_Penalty>
-0

> <b_epik_Metal_Only>
0

> <s_lp_Force_Field>
OPLS_2005

> <r_lp_Energy>
57.3449

> <b_lp_Chiralities_Consistent>
1

> <s_lp_Variant>
AV-unprocessed.smi:20-8

> <Gold.Version>
5.8.1

> <Gold.Id.Protein>
6NUR|6NUR_protein|mol2

> <Gold.PLP.Fitness>
49.6797

> <Gold.PLP.PLP>
-43.3985

> <Gold.PLP.part.hbond>
-3.0000

> <Gold.PLP.part.metal>
0.0000

> <Gold.PLP.part.buried>
-7.1502

> <Gold.PLP.part.nonpolar>
-34.0925

> <Gold.PLP.part.repulsive>
0.3920

> <Gold.PLP.ligand.clash>
0.0000

> <Gold.PLP.ligand.torsion>
0.7924

> <Gold.PLP.Chemscore.Hbond>
1.8905

> <Gold.PLP.Chemscore.CHOScore>
0.5697

> <Gold.PLP.Chemscore.Metal>
0.0000

> <Gold.Chemscore.Hbonds>
donor molecule, donor type, donor heavy atom, donor atom, acceptor molecule, acceptor atom, score
      P1  H  6896  6909       L1    15  0.59
      P1  H  7997  8010       L1    21  1.00
      P1  H 10752 10764       L1    10  0.25
      L1  C    11    38       P1  7949  0.57

> <Gold.PLP.Chemscore.Internal.Correction>
0.4853

> <Gold.Rescore>
     Score         DG    S(hbond)    S(metal)    S(lipo)     H(rot)  DE(clash)    DE(int)     intcor
     13.17     -15.15       1.75        0.00      92.70       2.74       0.07       1.90       ----

> <Gold.Chemscore.Fitness>
13.1743

> <Gold.Chemscore.DG>
-15.1460

> <Gold.Chemscore.ZeroCoef>
-5.4800

> <Gold.Chemscore.Hbond>
1.7479

> <Gold.Chemscore.Metal>
0.0000

> <Gold.Chemscore.Lipo>
92.7022

> <Gold.Chemscore.Internal_Hbond>
0.0000

> <Gold.Chemscore.DEClash>
0.0727

> <Gold.Chemscore.DEInternal>
1.8990

> <Gold.Chemscore.Rot>
2.7415

> <Gold.Chemscore.Internal.Correction>
   9.000000E+99

> <Gold.Chemscore.Hbonds>
donor molecule, donor type, donor heavy atom, donor atom, acceptor molecule, acceptor atom, score
      P1  H  6896  6909       L1    15  0.56
      P1  H  7997  8010       L1    21  0.94

> <Gold.Chemscore.Hbond.Weighted>
-5.8380

> <Gold.Chemscore.Metal.Weighted>
-0.0000

> <Gold.Chemscore.Lipo.Weighted>
-10.8462

> <Gold.Chemscore.Internal_Hbond.Weighted>
0.0000

> <Gold.Chemscore.DEClash.Weighted>
0.0727

> <Gold.Chemscore.DEInternal.Weighted>
1.8990

> <Gold.Chemscore.Rot.Weighted>
7.0182

> <Gold.Chemscore.Internal.Correction.Weighted>
   9.000000E+99

> <Gold.Protein.RotatedTorsions>
[ 6907 6896 6895 6894 ] final   74.26 input  -60.11 | X-H torsion
[ 7974 7965 7964 7962 ] final  151.36 input  175.53 | X-H torsion
[ 8008 7997 7996 7995 ] final  -16.25 input   59.86 | X-H torsion
[ 10167 10162 10161 10158 ] final  -43.20 input  -65.29 | X-H torsion
[ 10718 10713 10712 10709 ] final   94.68 input   66.30 | X-H torsion
[ 10763 10752 10751 10750 ] final  -54.83 input  -60.55 | X-H torsion
[ 11005 11000 10999 10996 ] final   52.74 input  -57.11 | X-H torsion

> <Gold.Protein.ActiveResidues>
 VAL166  LYS551  ARG553  GLY616  TRP617  ASP618  TYR619  PRO620  LYS621  CYS622 
 ASP623  PHE694  ASN695  SER759  ASP760  ASP761  ALA762  ILE779  LEU786  VAL792 
 PHE793  MET794  SER795  GLU796  ALA797  LYS798  CYS799  TRP800  GLU811  SER814 

> <Gold.Protein.RotatedAtoms>
  152.4967  134.4298  159.9508 H   0  0  0  0  0  0  0  0  0  0  0  0  # atno 6907 bound_to 6896
  151.4275  133.3674  159.2772 H   0  0  0  0  0  0  0  0  0  0  0  0  # atno 6908 bound_to 6896
  150.9178  134.8618  159.7528 H   0  0  0  0  0  0  0  0  0  0  0  0  # atno 6909 bound_to 6896
  144.8298  139.6528  143.6064 H   0  0  0  0  0  0  0  0  0  0  0  0  # atno 7974 bound_to 7965
  154.5067  140.2174  155.9236 H   0  0  0  0  0  0  0  0  0  0  0  0  # atno 8008 bound_to 7997
  156.1503  140.3163  155.8603 H   0  0  0  0  0  0  0  0  0  0  0  0  # atno 8009 bound_to 7997
  155.3952  140.0481  157.3030 H   0  0  0  0  0  0  0  0  0  0  0  0  # atno 8010 bound_to 7997
  140.6942  143.2995  151.3319 H   0  0  0  0  0  0  0  0  0  0  0  0  # atno 10167 bound_to 10162
  157.6946  131.0520  150.4224 H   0  0  0  0  0  0  0  0  0  0  0  0  # atno 10718 bound_to 10713
  154.1812  135.6443  153.5034 H   0  0  0  0  0  0  0  0  0  0  0  0  # atno 10763 bound_to 10752
  153.0059  135.5406  154.6513 H   0  0  0  0  0  0  0  0  0  0  0  0  # atno 10764 bound_to 10752
  154.5877  135.2931  155.0640 H   0  0  0  0  0  0  0  0  0  0  0  0  # atno 10765 bound_to 10752
  140.0824  134.5320  155.8933 H   0  0  0  0  0  0  0  0  0  0  0  0  # atno 11005 bound_to 11000
  146.2601  139.6392  142.9367 LP  0  0  0  0  0  0  0  0  0  0  0  0  # atno 17320 bound_to 7965
  145.4921  141.0438  143.2587 LP  0  0  0  0  0  0  0  0  0  0  0  0  # atno 17321 bound_to 7965
  139.6378  144.0597  152.2530 LP  0  0  0  0  0  0  0  0  0  0  0  0  # atno 17342 bound_to 10162
  140.0093  144.6236  150.7661 LP  0  0  0  0  0  0  0  0  0  0  0  0  # atno 17343 bound_to 10162
  156.4597  130.4029  149.6584 LP  0  0  0  0  0  0  0  0  0  0  0  0  # atno 17370 bound_to 10713
  156.3703  130.7527  151.2509 LP  0  0  0  0  0  0  0  0  0  0  0  0  # atno 17371 bound_to 10713
  141.2051  133.6644  156.6162 LP  0  0  0  0  0  0  0  0  0  0  0  0  # atno 17394 bound_to 11000
  140.3468  134.7802  157.4438 LP  0  0  0  0  0  0  0  0  0  0  0  0  # atno 17395 bound_to 11000

$$$$
