AV-unprocessed.smi:283|AV-procd|sdf|2130|dock3
  -GOLD-   2262021443D 1   1.00000     0.00000
 Structure written by MMmdl.
 48 51  0  0  0  0  0  0  0  0  1 V2000
  146.9726  136.7201  162.2589 C   0  0  0  0  0  0  0  0  0  0  0  0
  145.7326  136.7961  161.3496 C   0  0  1  0  0  0  0  0  0  0  0  0
  146.0586  136.4158  159.9756 N   0  0  0  0  0  0  0  0  0  0  0  0
  146.4916  137.3204  159.0696 C   0  0  0  0  0  0  0  0  0  0  0  0
  146.1142  138.6240  159.1343 N   0  0  0  0  0  0  0  0  0  0  0  0
  146.5542  139.4939  158.2203 C   0  0  0  0  0  0  0  0  0  0  0  0
  147.3612  139.2741  157.1795 N   0  0  0  0  0  0  0  0  0  0  0  0
  147.7402  137.9649  157.1081 C   0  0  0  0  0  0  0  0  0  0  0  0
  147.3477  136.9343  158.0062 C   0  0  0  0  0  0  0  0  0  0  0  0
  147.9163  135.7303  157.6155 N   0  0  0  0  0  0  0  0  0  0  0  0
  148.5969  136.0357  156.5436 C   0  0  0  0  0  0  0  0  0  0  0  0
  148.5624  137.3672  156.1761 N   0  0  0  0  0  0  0  0  0  0  0  0
  149.1878  138.0634  155.0005 C   0  0  2  0  0  0  0  0  0  0  0  0
  150.1705  138.9180  155.4973 O   0  0  0  0  0  0  0  0  0  0  0  0
  149.6230  140.2181  155.6747 C   0  0  1  0  0  0  0  0  0  0  0  0
  150.7335  141.2742  155.8230 C   0  0  0  0  0  0  0  0  0  0  0  0
  150.2138  142.4444  156.4175 O   0  0  0  0  0  0  0  0  0  0  0  0
  148.7255  140.3574  154.4352 C   0  0  1  0  0  0  0  0  0  0  0  0
  149.4785  140.8134  153.3224 O   0  0  0  0  0  0  0  0  0  0  0  0
  148.1734  138.9395  154.2380 C   0  0  1  0  0  0  0  0  0  0  0  0
  148.0502  138.5759  152.8754 O   0  0  0  0  0  0  0  0  0  0  0  0
  144.6034  135.9518  161.9381 C   0  0  0  0  0  0  0  0  0  0  0  0
  143.3316  136.5308  162.1606 C   0  0  0  0  0  0  0  0  0  0  0  0
  142.2778  135.7667  162.6961 C   0  0  0  0  0  0  0  0  0  0  0  0
  142.4814  134.4111  163.0097 C   0  0  0  0  0  0  0  0  0  0  0  0
  143.7378  133.8207  162.7809 C   0  0  0  0  0  0  0  0  0  0  0  0
  144.7966  134.5804  162.2439 C   0  0  0  0  0  0  0  0  0  0  0  0
  146.3115  133.7940  161.9658 Cl  0  0  0  0  0  0  0  0  0  0  0  0
  149.6279  137.2702  154.3954 H   0  0  0  0  0  0  0  0  0  0  0  0
  148.9908  140.2268  156.5635 H   0  0  0  0  0  0  0  0  0  0  0  0
  147.9234  141.0755  154.6083 H   0  0  0  0  0  0  0  0  0  0  0  0
  147.1854  138.8552  154.6886 H   0  0  0  0  0  0  0  0  0  0  0  0
  146.7345  137.0497  163.2705 H   0  0  0  0  0  0  0  0  0  0  0  0
  147.7833  137.3517  161.8969 H   0  0  0  0  0  0  0  0  0  0  0  0
  147.3528  135.7002  162.3243 H   0  0  0  0  0  0  0  0  0  0  0  0
  145.3876  137.8287  161.3166 H   0  0  0  0  0  0  0  0  0  0  0  0
  145.9953  135.4289  159.7716 H   0  0  0  0  0  0  0  0  0  0  0  0
  146.2104  140.5107  158.3396 H   0  0  0  0  0  0  0  0  0  0  0  0
  149.1442  135.2832  155.9957 H   0  0  0  0  0  0  0  0  0  0  0  0
  151.5702  140.8951  156.4106 H   0  0  0  0  0  0  0  0  0  0  0  0
  151.1223  141.5517  154.8427 H   0  0  0  0  0  0  0  0  0  0  0  0
  149.6015  142.8413  155.8171 H   0  0  0  0  0  0  0  0  0  0  0  0
  149.4211  140.1649  152.6373 H   0  0  0  0  0  0  0  0  0  0  0  0
  148.6169  139.1324  152.3632 H   0  0  0  0  0  0  0  0  0  0  0  0
  143.1514  137.5675  161.9178 H   0  0  0  0  0  0  0  0  0  0  0  0
  141.3121  136.2207  162.8634 H   0  0  0  0  0  0  0  0  0  0  0  0
  141.6737  133.8231  163.4200 H   0  0  0  0  0  0  0  0  0  0  0  0
  143.8881  132.7771  163.0151 H   0  0  0  0  0  0  0  0  0  0  0  0
  1  2  1  0  0  0  0
  1 33  1  0  0  0  0
  1 34  1  0  0  0  0
  1 35  1  0  0  0  0
  2  3  1  0  0  0  0
  2 22  1  0  0  0  0
  2 36  1  0  0  0  0
  3  4  1  0  0  0  0
  3 37  1  0  0  0  0
  4  9  1  0  0  0  0
  4  5  2  0  0  0  0
  5  6  1  0  0  0  0
  6  7  2  0  0  0  0
  6 38  1  0  0  0  0
  7  8  1  0  0  0  0
  8 12  1  0  0  0  0
  8  9  2  0  0  0  0
  9 10  1  0  0  0  0
 10 11  2  0  0  0  0
 11 12  1  0  0  0  0
 11 39  1  0  0  0  0
 12 13  1  0  0  0  0
 13 29  1  0  0  0  0
 13 20  1  0  0  0  0
 13 14  1  0  0  0  0
 14 15  1  0  0  0  0
 15 30  1  0  0  0  0
 15 16  1  0  0  0  0
 15 18  1  0  0  0  0
 16 17  1  0  0  0  0
 16 40  1  0  0  0  0
 16 41  1  0  0  0  0
 17 42  1  0  0  0  0
 18 31  1  0  0  0  0
 18 19  1  0  0  0  0
 18 20  1  0  0  0  0
 19 43  1  0  0  0  0
 20 32  1  0  0  0  0
 20 21  1  0  0  0  0
 21 44  1  0  0  0  0
 22 27  1  0  0  0  0
 22 23  2  0  0  0  0
 23 24  1  0  0  0  0
 23 45  1  0  0  0  0
 24 25  2  0  0  0  0
 24 46  1  0  0  0  0
 25 26  1  0  0  0  0
 25 47  1  0  0  0  0
 26 27  2  0  0  0  0
 26 48  1  0  0  0  0
 27 28  1  0  0  0  0
M  END
> <s_m_source_file>
AV-unprocessed.smi

> <i_m_source_file_index>
283

> <i_lp_mmshare_version>
43012

> <i_f3d_flags>
0

> <s_epik_input>
Q2xjMVtjSF1bY0hdW2NIXVtjSF1jMVtDQEhdKFtDSDNdKVtOSF1jKG5bY0hdbjIpYyhjMjMpbltjSF1uM1tDQEBIXTRPW0NASF0oW0NIMl1bT0hdKVtDQEBIXShbT0hdKVtDQEhdNFtPSF0=

> <s_epik_cmdline>
J2VwaWtfcHl0aG9uJywgJy1waCcsICc3LjAnLCAnLXRuJywgJzgnLCAnLW1hJywgJzIwMCcsICctbWV0YWxfYmluZGluZycsICctaW1hZScsICc8aW5maWxlLm1hZT4nLCAnLW9tYWUnLCAnPG91dGZpbGUubWFlPic=

> <r_lp_tautomer_probability>
1

> <r_epik_Ionization_Penalty>
0.000266407

> <r_epik_Ionization_Penalty_Charging>
0

> <r_epik_Ionization_Penalty_Neutral>
0.000266407

> <r_epik_State_Penalty>
-0

> <r_epik_Charging_Adjusted_Penalty>
0

> <i_epik_Tot_Q>
0

> <i_epik_Tot_abs_Q>
0

> <r_epik_Metal_State_Penalty>
-0

> <b_epik_Metal_Only>
0

> <s_epik_Chemistry_Notes>
This compound contains an acetal/aminal-like group ( X-CH(R)-Y where X, Y are N, S, or O) that may be acid/base labile, releasing an aldehyde.

> <s_lp_Force_Field>
OPLS_2005

> <r_lp_Energy>
48.0921

> <b_lp_Chiralities_Consistent>
1

> <s_lp_Variant>
AV-unprocessed.smi:283-6

> <Gold.Version>
5.8.1

> <Gold.Id.Protein>
6NUR|6NUR_protein|mol2

> <Gold.PLP.Fitness>
46.5186

> <Gold.PLP.PLP>
-36.5240

> <Gold.PLP.part.hbond>
-6.3672

> <Gold.PLP.part.metal>
0.0000

> <Gold.PLP.part.buried>
-4.6253

> <Gold.PLP.part.nonpolar>
-26.9382

> <Gold.PLP.part.repulsive>
0.1049

> <Gold.PLP.ligand.clash>
0.0000

> <Gold.PLP.ligand.torsion>
1.0787

> <Gold.PLP.Chemscore.Hbond>
4.0181

> <Gold.PLP.Chemscore.CHOScore>
0.0000

> <Gold.PLP.Chemscore.Metal>
0.0000

> <Gold.Chemscore.Hbonds>
donor molecule, donor type, donor heavy atom, donor atom, acceptor molecule, acceptor atom, score
      L1  H    17    42       P1  8028  0.64
      L1  H    19    43       P1  7957  0.73
      L1  H    21    44       P1  7957  1.00
      P1  H  6934  6947       L1     5  0.26
      P1  H  7989  7998       L1    19  0.18
      P1  H  8011  8017       L1    19  1.00

> <Gold.PLP.Chemscore.Internal.Correction>
0.0978

> <Gold.Rescore>
     Score         DG    S(hbond)    S(metal)    S(lipo)     H(rot)  DE(clash)    DE(int)     intcor
     11.02     -14.67       2.89        0.00      85.70       4.10       1.38       2.28       ----

> <Gold.Chemscore.Fitness>
11.0157

> <Gold.Chemscore.DG>
-14.6736

> <Gold.Chemscore.ZeroCoef>
-5.4800

> <Gold.Chemscore.Hbond>
2.8905

> <Gold.Chemscore.Metal>
0.0000

> <Gold.Chemscore.Lipo>
85.7034

> <Gold.Chemscore.Internal_Hbond>
0.0000

> <Gold.Chemscore.DEClash>
1.3807

> <Gold.Chemscore.DEInternal>
2.2772

> <Gold.Chemscore.Rot>
4.0968

> <Gold.Chemscore.Internal.Correction>
   9.000000E+99

> <Gold.Chemscore.Hbonds>
donor molecule, donor type, donor heavy atom, donor atom, acceptor molecule, acceptor atom, score
      L1  H    17    42       P1  8028  0.60
      L1  H    19    43       P1  7957  0.69
      L1  H    21    44       P1  7957  1.00
      P1  H  6934  6947       L1     5  0.02
      P1  H  7989  7998       L1    19  0.03
      P1  H  8011  8017       L1    19  0.35

> <Gold.Chemscore.Hbond.Weighted>
-9.6542

> <Gold.Chemscore.Metal.Weighted>
-0.0000

> <Gold.Chemscore.Lipo.Weighted>
-10.0273

> <Gold.Chemscore.Internal_Hbond.Weighted>
0.0000

> <Gold.Chemscore.DEClash.Weighted>
1.3807

> <Gold.Chemscore.DEInternal.Weighted>
2.2772

> <Gold.Chemscore.Rot.Weighted>
10.4879

> <Gold.Chemscore.Internal.Correction.Weighted>
   9.000000E+99

> <Gold.Protein.RotatedTorsions>
[ 6907 6896 6895 6894 ] final  121.38 input  -60.11 | X-H torsion
[ 7974 7965 7964 7962 ] final  -10.17 input  175.53 | X-H torsion
[ 8008 7997 7996 7995 ] final  -74.04 input   59.86 | X-H torsion
[ 10167 10162 10161 10158 ] final  166.97 input  -65.29 | X-H torsion
[ 10718 10713 10712 10709 ] final  -65.93 input   66.30 | X-H torsion
[ 10763 10752 10751 10750 ] final  118.67 input  -60.55 | X-H torsion
[ 11005 11000 10999 10996 ] final  117.61 input  -57.11 | X-H torsion

> <Gold.Protein.ActiveResidues>
 VAL166  LYS551  ARG553  GLY616  TRP617  ASP618  TYR619  PRO620  LYS621  CYS622 
 ASP623  PHE694  ASN695  SER759  ASP760  ASP761  ALA762  ILE779  LEU786  VAL792 
 PHE793  MET794  SER795  GLU796  ALA797  LYS798  CYS799  TRP800  GLU811  SER814 

> <Gold.Protein.RotatedAtoms>
  152.4326  133.7304  159.6583 H   0  0  0  0  0  0  0  0  0  0  0  0  # atno 6907 bound_to 6896
  150.8206  133.8248  159.3146 H   0  0  0  0  0  0  0  0  0  0  0  0  # atno 6908 bound_to 6896
  151.5932  135.1054  160.0095 H   0  0  0  0  0  0  0  0  0  0  0  0  # atno 6909 bound_to 6896
  146.2229  140.2724  142.8357 H   0  0  0  0  0  0  0  0  0  0  0  0  # atno 7974 bound_to 7965
  154.5297  140.0768  156.8322 H   0  0  0  0  0  0  0  0  0  0  0  0  # atno 8008 bound_to 7997
  155.3401  140.3407  155.4221 H   0  0  0  0  0  0  0  0  0  0  0  0  # atno 8009 bound_to 7997
  156.1768  140.1638  156.8334 H   0  0  0  0  0  0  0  0  0  0  0  0  # atno 8010 bound_to 7997
  139.4935  144.3971  151.9452 H   0  0  0  0  0  0  0  0  0  0  0  0  # atno 10167 bound_to 10162
  156.0641  130.4254  150.1636 H   0  0  0  0  0  0  0  0  0  0  0  0  # atno 10718 bound_to 10713
  153.5712  135.3502  155.2838 H   0  0  0  0  0  0  0  0  0  0  0  0  # atno 10763 bound_to 10752
  154.8681  135.4160  154.2723 H   0  0  0  0  0  0  0  0  0  0  0  0  # atno 10764 bound_to 10752
  153.3489  135.7054  153.6875 H   0  0  0  0  0  0  0  0  0  0  0  0  # atno 10765 bound_to 10752
  139.9080  134.9612  156.7377 H   0  0  0  0  0  0  0  0  0  0  0  0  # atno 11005 bound_to 11000
  144.9258  140.7920  143.5720 LP  0  0  0  0  0  0  0  0  0  0  0  0  # atno 17320 bound_to 7965
  145.2664  139.1972  143.4865 LP  0  0  0  0  0  0  0  0  0  0  0  0  # atno 17321 bound_to 7965
  140.3409  144.3204  150.5967 LP  0  0  0  0  0  0  0  0  0  0  0  0  # atno 17342 bound_to 10162
  140.5566  143.2198  151.7836 LP  0  0  0  0  0  0  0  0  0  0  0  0  # atno 17343 bound_to 10162
  156.9699  130.9831  151.3461 LP  0  0  0  0  0  0  0  0  0  0  0  0  # atno 17370 bound_to 10713
  157.5670  130.8285  149.8341 LP  0  0  0  0  0  0  0  0  0  0  0  0  # atno 17371 bound_to 10713
  140.6874  133.9420  155.7946 LP  0  0  0  0  0  0  0  0  0  0  0  0  # atno 17394 bound_to 11000
  141.0466  134.0545  157.3836 LP  0  0  0  0  0  0  0  0  0  0  0  0  # atno 17395 bound_to 11000

$$$$
