AV-unprocessed.smi:248|AV-procd|sdf|1897|dock5
  -GOLD-   2262020563D 1   1.00000     0.00000
 Structure written by MMmdl.
 62 65  0  0  0  0  0  0  0  0  1 V2000
  151.9506  144.6760  158.7700 C   0  0  0  0  0  0  0  0  0  0  0  0
  151.8159  143.2793  159.3953 C   0  0  0  0  0  0  0  0  0  0  0  0
  152.2086  143.3193  160.8824 C   0  0  0  0  0  0  0  0  0  0  0  0
  152.6124  142.2404  158.5709 C   0  0  0  0  0  0  0  0  0  0  0  0
  152.0533  140.8811  158.6517 N   0  0  0  0  0  0  0  0  0  0  0  0
  150.6227  140.7863  158.3283 C   0  0  0  0  0  0  0  0  0  0  0  0
  150.2015  139.3792  157.8945 C   0  0  0  0  0  0  0  0  0  0  0  0
  150.7105  138.4058  158.8498 N   0  0  0  0  0  0  0  0  0  0  0  0
  150.1498  137.1823  158.7077 C   0  0  0  0  0  0  0  0  0  0  0  0
  150.4050  136.4432  157.5960 N   0  0  0  0  0  0  0  0  0  0  0  0
  149.8592  135.2306  157.4627 C   0  0  0  0  0  0  0  0  0  0  0  0
  149.0538  134.5799  158.3055 N   0  0  0  0  0  0  0  0  0  0  0  0
  148.8032  135.3199  159.4244 C   0  0  0  0  0  0  0  0  0  0  0  0
  149.2999  136.6240  159.6978 C   0  0  0  0  0  0  0  0  0  0  0  0
  148.8241  137.0705  160.9232 N   0  0  0  0  0  0  0  0  0  0  0  0
  148.0892  136.0816  161.3537 C   0  0  0  0  0  0  0  0  0  0  0  0
  148.0400  134.9791  160.5284 N   0  0  0  0  0  0  0  0  0  0  0  0
  147.3006  133.7444  160.7574 C   0  0  0  0  0  0  0  0  0  0  0  0
  145.7877  133.8947  161.1192 C   0  0  0  0  0  0  0  0  0  0  0  0
  145.2937  132.4278  161.3011 C   0  0  0  0  0  0  0  0  0  0  0  0
  143.9530  132.2730  161.7106 O   0  0  0  0  0  0  0  0  0  0  0  0
  145.6180  134.7332  162.4164 C   0  0  0  0  0  0  0  0  0  0  0  0
  144.1774  135.2163  162.6670 C   0  0  0  0  0  0  0  0  0  0  0  0
  143.7004  135.9291  161.5333 O   0  0  0  0  0  0  0  0  0  0  0  0
  143.6280  135.1225  160.3651 C   0  0  0  0  0  0  0  0  0  0  0  0
  145.0340  134.6277  159.9750 C   0  0  0  0  0  0  0  0  0  0  0  0
  152.1683  138.3981  159.0370 C   0  0  2  0  0  0  0  0  0  0  0  0
  152.5483  137.6672  160.3452 C   0  0  0  0  0  0  0  0  0  0  0  0
  152.8122  139.8053  158.9843 C   0  0  0  0  0  0  0  0  0  0  0  0
  154.0157  139.9032  159.2296 O   0  0  0  0  0  0  0  0  0  0  0  0
  152.9842  145.0229  158.7958 H   0  0  0  0  0  0  0  0  0  0  0  0
  151.3408  145.4066  159.3022 H   0  0  0  0  0  0  0  0  0  0  0  0
  151.6257  144.6752  157.7291 H   0  0  0  0  0  0  0  0  0  0  0  0
  150.7609  143.0071  159.3446 H   0  0  0  0  0  0  0  0  0  0  0  0
  153.2720  143.5273  161.0049 H   0  0  0  0  0  0  0  0  0  0  0  0
  151.9910  142.3753  161.3817 H   0  0  0  0  0  0  0  0  0  0  0  0
  151.6553  144.0945  161.4133 H   0  0  0  0  0  0  0  0  0  0  0  0
  152.6390  142.5539  157.5265 H   0  0  0  0  0  0  0  0  0  0  0  0
  153.6580  142.2505  158.8832 H   0  0  0  0  0  0  0  0  0  0  0  0
  150.0608  141.0724  159.2184 H   0  0  0  0  0  0  0  0  0  0  0  0
  150.3487  141.4957  157.5468 H   0  0  0  0  0  0  0  0  0  0  0  0
  149.1137  139.3228  157.8254 H   0  0  0  0  0  0  0  0  0  0  0  0
  150.5989  139.1651  156.9004 H   0  0  0  0  0  0  0  0  0  0  0  0
  150.1056  134.7055  156.5515 H   0  0  0  0  0  0  0  0  0  0  0  0
  147.5660  136.1263  162.2979 H   0  0  0  0  0  0  0  0  0  0  0  0
  147.4075  133.1305  159.8620 H   0  0  0  0  0  0  0  0  0  0  0  0
  147.8177  133.1998  161.5488 H   0  0  0  0  0  0  0  0  0  0  0  0
  145.4085  131.8769  160.3669 H   0  0  0  0  0  0  0  0  0  0  0  0
  145.9142  131.9138  162.0363 H   0  0  0  0  0  0  0  0  0  0  0  0
  143.9296  132.2302  162.6544 H   0  0  0  0  0  0  0  0  0  0  0  0
  145.9862  134.1789  163.2802 H   0  0  0  0  0  0  0  0  0  0  0  0
  146.2232  135.6358  162.3575 H   0  0  0  0  0  0  0  0  0  0  0  0
  143.5026  134.3988  162.9164 H   0  0  0  0  0  0  0  0  0  0  0  0
  144.1640  135.8902  163.5240 H   0  0  0  0  0  0  0  0  0  0  0  0
  142.9254  134.3035  160.5106 H   0  0  0  0  0  0  0  0  0  0  0  0
  143.2193  135.7291  159.5569 H   0  0  0  0  0  0  0  0  0  0  0  0
  145.5880  135.5151  159.6756 H   0  0  0  0  0  0  0  0  0  0  0  0
  144.9778  133.9952  159.0886 H   0  0  0  0  0  0  0  0  0  0  0  0
  152.6088  137.8458  158.2052 H   0  0  0  0  0  0  0  0  0  0  0  0
  153.6263  137.6635  160.5092 H   0  0  0  0  0  0  0  0  0  0  0  0
  152.2379  136.6223  160.3316 H   0  0  0  0  0  0  0  0  0  0  0  0
  152.0836  138.1413  161.2107 H   0  0  0  0  0  0  0  0  0  0  0  0
  1  2  1  0  0  0  0
  1 31  1  0  0  0  0
  1 32  1  0  0  0  0
  1 33  1  0  0  0  0
  2  3  1  0  0  0  0
  2  4  1  0  0  0  0
  2 34  1  0  0  0  0
  3 35  1  0  0  0  0
  3 36  1  0  0  0  0
  3 37  1  0  0  0  0
  4  5  1  0  0  0  0
  4 38  1  0  0  0  0
  4 39  1  0  0  0  0
  5 29  1  0  0  0  0
  5  6  1  0  0  0  0
  6  7  1  0  0  0  0
  6 40  1  0  0  0  0
  6 41  1  0  0  0  0
  7  8  1  0  0  0  0
  7 42  1  0  0  0  0
  7 43  1  0  0  0  0
  8  9  1  0  0  0  0
  8 27  1  0  0  0  0
  9 14  1  0  0  0  0
  9 10  2  0  0  0  0
 10 11  1  0  0  0  0
 11 12  2  0  0  0  0
 11 44  1  0  0  0  0
 12 13  1  0  0  0  0
 13 17  1  0  0  0  0
 13 14  2  0  0  0  0
 14 15  1  0  0  0  0
 15 16  2  0  0  0  0
 16 17  1  0  0  0  0
 16 45  1  0  0  0  0
 17 18  1  0  0  0  0
 18 19  1  0  0  0  0
 18 46  1  0  0  0  0
 18 47  1  0  0  0  0
 19 26  1  0  0  0  0
 19 20  1  0  0  0  0
 19 22  1  0  0  0  0
 20 21  1  0  0  0  0
 20 48  1  0  0  0  0
 20 49  1  0  0  0  0
 21 50  1  0  0  0  0
 22 23  1  0  0  0  0
 22 51  1  0  0  0  0
 22 52  1  0  0  0  0
 23 24  1  0  0  0  0
 23 53  1  0  0  0  0
 23 54  1  0  0  0  0
 24 25  1  0  0  0  0
 25 26  1  0  0  0  0
 25 55  1  0  0  0  0
 25 56  1  0  0  0  0
 26 57  1  0  0  0  0
 26 58  1  0  0  0  0
 27 28  1  0  0  0  0
 27 29  1  0  0  0  0
 27 59  1  0  0  0  0
 28 60  1  0  0  0  0
 28 61  1  0  0  0  0
 28 62  1  0  0  0  0
 29 30  2  0  0  0  0
M  END
> <s_m_source_file>
AV-unprocessed.smi

> <i_m_source_file_index>
248

> <i_lp_mmshare_version>
43012

> <i_f3d_flags>
0

> <s_epik_input>
W0NIM11bQ0hdKFtDSDNdKVtDSDJdTjFbQ0gyXVtDSDJdTihbQ0BASF0oW0NIM10pQzE9TyljKG5bY0hdbjIpYyhjMjMpbltjSF1uM1tDSDJdQzQoW0NIMl1bT0hdKVtDSDJdW0NIMl1PW0NIMl1bQ0gyXTQ=

> <s_epik_cmdline>
J2VwaWtfcHl0aG9uJywgJy1waCcsICc3LjAnLCAnLXRuJywgJzgnLCAnLW1hJywgJzIwMCcsICctbWV0YWxfYmluZGluZycsICctaW1hZScsICc8aW5maWxlLm1hZT4nLCAnLW9tYWUnLCAnPG91dGZpbGUubWFlPic=

> <r_lp_tautomer_probability>
1

> <r_epik_Ionization_Penalty>
0.000593973

> <r_epik_Ionization_Penalty_Charging>
0

> <r_epik_Ionization_Penalty_Neutral>
0.000593973

> <r_epik_State_Penalty>
0.000283267

> <r_epik_Charging_Adjusted_Penalty>
0.000283267

> <i_epik_Tot_Q>
0

> <i_epik_Tot_abs_Q>
0

> <r_epik_Metal_State_Penalty>
-0

> <b_epik_Metal_Only>
0

> <s_lp_Force_Field>
OPLS_2005

> <r_lp_Energy>
47.3368

> <b_lp_Chiralities_Consistent>
1

> <s_lp_Variant>
AV-unprocessed.smi:248-2

> <Gold.Version>
5.8.1

> <Gold.Id.Protein>
6NUR|6NUR_protein|mol2

> <Gold.PLP.Fitness>
50.0039

> <Gold.PLP.PLP>
-44.9555

> <Gold.PLP.part.hbond>
-3.3056

> <Gold.PLP.part.metal>
0.0000

> <Gold.PLP.part.buried>
-6.4837

> <Gold.PLP.part.nonpolar>
-35.0631

> <Gold.PLP.part.repulsive>
0.0154

> <Gold.PLP.ligand.clash>
0.0000

> <Gold.PLP.ligand.torsion>
0.5458

> <Gold.PLP.Chemscore.Hbond>
1.9193

> <Gold.PLP.Chemscore.CHOScore>
0.0000

> <Gold.PLP.Chemscore.Metal>
0.0000

> <Gold.Chemscore.Hbonds>
donor molecule, donor type, donor heavy atom, donor atom, acceptor molecule, acceptor atom, score
      P1  H  6896  6908       L1    12  0.09
      P1  H  6931  6943       L1    15  0.91
      P1  H  7997  8009       L1    30  0.68

> <Gold.PLP.Chemscore.Internal.Correction>
0.3823

> <Gold.Rescore>
     Score         DG    S(hbond)    S(metal)    S(lipo)     H(rot)  DE(clash)    DE(int)     intcor
     15.82     -16.53       1.82        0.00     102.82       2.75       0.03       0.69       ----

> <Gold.Chemscore.Fitness>
15.8152

> <Gold.Chemscore.DG>
-16.5346

> <Gold.Chemscore.ZeroCoef>
-5.4800

> <Gold.Chemscore.Hbond>
1.8176

> <Gold.Chemscore.Metal>
0.0000

> <Gold.Chemscore.Lipo>
102.8175

> <Gold.Chemscore.Internal_Hbond>
0.0000

> <Gold.Chemscore.DEClash>
0.0254

> <Gold.Chemscore.DEInternal>
0.6940

> <Gold.Chemscore.Rot>
2.7523

> <Gold.Chemscore.Internal.Correction>
   9.000000E+99

> <Gold.Chemscore.Hbonds>
donor molecule, donor type, donor heavy atom, donor atom, acceptor molecule, acceptor atom, score
      P1  H  6931  6943       L1    15  0.78
      P1  H  7997  8009       L1    30  0.34

> <Gold.Chemscore.Hbond.Weighted>
-6.0709

> <Gold.Chemscore.Metal.Weighted>
-0.0000

> <Gold.Chemscore.Lipo.Weighted>
-12.0296

> <Gold.Chemscore.Internal_Hbond.Weighted>
0.0000

> <Gold.Chemscore.DEClash.Weighted>
0.0254

> <Gold.Chemscore.DEInternal.Weighted>
0.6940

> <Gold.Chemscore.Rot.Weighted>
7.0459

> <Gold.Chemscore.Internal.Correction.Weighted>
   9.000000E+99

> <Gold.Protein.RotatedTorsions>
[ 6907 6896 6895 6894 ] final  114.44 input  -60.11 | X-H torsion
[ 7974 7965 7964 7962 ] final  122.39 input  175.53 | X-H torsion
[ 8008 7997 7996 7995 ] final  128.91 input   59.86 | X-H torsion
[ 10167 10162 10161 10158 ] final   36.70 input  -65.29 | X-H torsion
[ 10718 10713 10712 10709 ] final -102.37 input   66.30 | X-H torsion
[ 10763 10752 10751 10750 ] final  -25.19 input  -60.55 | X-H torsion
[ 11005 11000 10999 10996 ] final -177.46 input  -57.11 | X-H torsion

> <Gold.Protein.ActiveResidues>
 VAL166  LYS551  ARG553  GLY616  TRP617  ASP618  TYR619  PRO620  LYS621  CYS622 
 ASP623  PHE694  ASN695  SER759  ASP760  ASP761  ALA762  ILE779  LEU786  VAL792 
 PHE793  MET794  SER795  GLU796  ALA797  LYS798  CYS799  TRP800  GLU811  SER814 

> <Gold.Protein.RotatedAtoms>
  152.4802  133.8236  159.7066 H   0  0  0  0  0  0  0  0  0  0  0  0  # atno 6907 bound_to 6896
  150.8847  133.7314  159.2928 H   0  0  0  0  0  0  0  0  0  0  0  0  # atno 6908 bound_to 6896
  151.4807  135.1055  159.9829 H   0  0  0  0  0  0  0  0  0  0  0  0  # atno 6909 bound_to 6896
  145.1081  139.3472  143.4777 H   0  0  0  0  0  0  0  0  0  0  0  0  # atno 7974 bound_to 7965
  156.2925  140.2633  156.2512 H   0  0  0  0  0  0  0  0  0  0  0  0  # atno 8008 bound_to 7997
  154.9880  140.0389  157.2325 H   0  0  0  0  0  0  0  0  0  0  0  0  # atno 8009 bound_to 7997
  154.7711  140.2778  155.6142 H   0  0  0  0  0  0  0  0  0  0  0  0  # atno 8010 bound_to 7997
  140.4103  144.1602  150.6139 H   0  0  0  0  0  0  0  0  0  0  0  0  # atno 10167 bound_to 10162
  156.0226  130.5417  150.7099 H   0  0  0  0  0  0  0  0  0  0  0  0  # atno 10718 bound_to 10713
  153.6958  135.6959  153.5077 H   0  0  0  0  0  0  0  0  0  0  0  0  # atno 10763 bound_to 10752
  153.2379  135.4316  155.0665 H   0  0  0  0  0  0  0  0  0  0  0  0  # atno 10764 bound_to 10752
  154.8359  135.3500  154.6499 H   0  0  0  0  0  0  0  0  0  0  0  0  # atno 10765 bound_to 10752
  140.4406  134.6434  157.4756 H   0  0  0  0  0  0  0  0  0  0  0  0  # atno 11005 bound_to 11000
  146.3527  140.0988  142.8609 LP  0  0  0  0  0  0  0  0  0  0  0  0  # atno 17320 bound_to 7965
  145.0878  140.9264  143.4787 LP  0  0  0  0  0  0  0  0  0  0  0  0  # atno 17321 bound_to 7965
  140.4645  143.2436  151.9174 LP  0  0  0  0  0  0  0  0  0  0  0  0  # atno 17342 bound_to 10162
  139.4782  144.5434  151.8495 LP  0  0  0  0  0  0  0  0  0  0  0  0  # atno 17343 bound_to 10162
  157.4739  131.0896  151.0611 LP  0  0  0  0  0  0  0  0  0  0  0  0  # atno 17370 bound_to 10713
  157.1064  130.6003  149.5472 LP  0  0  0  0  0  0  0  0  0  0  0  0  # atno 17371 bound_to 10713
  140.0072  134.6746  155.9436 LP  0  0  0  0  0  0  0  0  0  0  0  0  # atno 17394 bound_to 11000
  141.1707  133.6537  156.4641 LP  0  0  0  0  0  0  0  0  0  0  0  0  # atno 17395 bound_to 11000

$$$$
