AV-unprocessed.smi:283|AV-procd|sdf|2145|dock1
  -GOLD-   2262021473D 1   1.00000     0.00000
 Structure written by MMmdl.
 48 51  0  0  0  0  0  0  0  0  1 V2000
  149.6486  141.4042  156.8525 C   0  0  0  0  0  0  0  0  0  0  0  0
  151.1344  141.5261  157.2160 C   0  0  2  0  0  0  0  0  0  0  0  0
  151.6690  140.2137  157.5751 N   0  0  0  0  0  0  0  0  0  0  0  0
  151.7526  139.2252  156.6569 C   0  0  0  0  0  0  0  0  0  0  0  0
  152.5915  139.3229  155.5926 N   0  0  0  0  0  0  0  0  0  0  0  0
  152.6558  138.3315  154.6993 C   0  0  0  0  0  0  0  0  0  0  0  0
  151.9788  137.1812  154.6802 N   0  0  0  0  0  0  0  0  0  0  0  0
  151.1316  137.0796  155.7459 C   0  0  0  0  0  0  0  0  0  0  0  0
  150.9606  138.0539  156.7682 C   0  0  0  0  0  0  0  0  0  0  0  0
  150.0153  137.6142  157.6857 N   0  0  0  0  0  0  0  0  0  0  0  0
  149.6498  136.4472  157.2273 C   0  0  0  0  0  0  0  0  0  0  0  0
  150.2690  136.0489  156.0635 N   0  0  0  0  0  0  0  0  0  0  0  0
  150.0543  134.7735  155.3101 C   0  0  2  0  0  0  0  0  0  0  0  0
  148.6930  134.5291  155.2043 O   0  0  0  0  0  0  0  0  0  0  0  0
  148.5024  133.1497  154.9189 C   0  0  1  0  0  0  0  0  0  0  0  0
  148.3761  133.0044  153.3863 C   0  0  0  0  0  0  0  0  0  0  0  0
  147.4566  133.9401  152.8634 O   0  0  0  0  0  0  0  0  0  0  0  0
  149.6927  132.4292  155.6032 C   0  0  1  0  0  0  0  0  0  0  0  0
  150.3385  131.4977  154.7552 O   0  0  0  0  0  0  0  0  0  0  0  0
  150.6671  133.5428  155.9933 C   0  0  2  0  0  0  0  0  0  0  0  0
  150.7641  133.6631  157.4009 O   0  0  0  0  0  0  0  0  0  0  0  0
  151.3373  142.6029  158.2844 C   0  0  0  0  0  0  0  0  0  0  0  0
  150.8420  143.9097  158.0668 C   0  0  0  0  0  0  0  0  0  0  0  0
  151.0181  144.9152  159.0357 C   0  0  0  0  0  0  0  0  0  0  0  0
  151.6992  144.6265  160.2317 C   0  0  0  0  0  0  0  0  0  0  0  0
  152.2061  143.3330  160.4544 C   0  0  0  0  0  0  0  0  0  0  0  0
  152.0315  142.3218  159.4881 C   0  0  0  0  0  0  0  0  0  0  0  0
  152.6851  140.7540  159.8111 Cl  0  0  0  0  0  0  0  0  0  0  0  0
  150.4710  134.9549  154.3180 H   0  0  0  0  0  0  0  0  0  0  0  0
  147.5617  132.8481  155.3815 H   0  0  0  0  0  0  0  0  0  0  0  0
  149.3444  131.8943  156.4883 H   0  0  0  0  0  0  0  0  0  0  0  0
  151.6718  133.3888  155.5966 H   0  0  0  0  0  0  0  0  0  0  0  0
  149.2531  142.3570  156.4997 H   0  0  0  0  0  0  0  0  0  0  0  0
  149.0527  141.0943  157.7118 H   0  0  0  0  0  0  0  0  0  0  0  0
  149.4964  140.6721  156.0588 H   0  0  0  0  0  0  0  0  0  0  0  0
  151.6616  141.8253  156.3108 H   0  0  0  0  0  0  0  0  0  0  0  0
  152.1270  140.1609  158.4736 H   0  0  0  0  0  0  0  0  0  0  0  0
  153.3470  138.4817  153.8831 H   0  0  0  0  0  0  0  0  0  0  0  0
  148.9103  135.8401  157.7288 H   0  0  0  0  0  0  0  0  0  0  0  0
  149.3409  133.2055  152.9198 H   0  0  0  0  0  0  0  0  0  0  0  0
  148.0912  131.9926  153.0959 H   0  0  0  0  0  0  0  0  0  0  0  0
  147.9241  134.5420  152.3055 H   0  0  0  0  0  0  0  0  0  0  0  0
  149.7942  131.3572  153.9957 H   0  0  0  0  0  0  0  0  0  0  0  0
  150.0610  133.1675  157.7921 H   0  0  0  0  0  0  0  0  0  0  0  0
  150.3201  144.1495  157.1521 H   0  0  0  0  0  0  0  0  0  0  0  0
  150.6311  145.9080  158.8596 H   0  0  0  0  0  0  0  0  0  0  0  0
  151.8358  145.3966  160.9765 H   0  0  0  0  0  0  0  0  0  0  0  0
  152.7333  143.1165  161.3718 H   0  0  0  0  0  0  0  0  0  0  0  0
  1  2  1  0  0  0  0
  1 33  1  0  0  0  0
  1 34  1  0  0  0  0
  1 35  1  0  0  0  0
  2  3  1  0  0  0  0
  2 22  1  0  0  0  0
  2 36  1  0  0  0  0
  3  4  1  0  0  0  0
  3 37  1  0  0  0  0
  4  9  1  0  0  0  0
  4  5  2  0  0  0  0
  5  6  1  0  0  0  0
  6  7  2  0  0  0  0
  6 38  1  0  0  0  0
  7  8  1  0  0  0  0
  8 12  1  0  0  0  0
  8  9  2  0  0  0  0
  9 10  1  0  0  0  0
 10 11  2  0  0  0  0
 11 12  1  0  0  0  0
 11 39  1  0  0  0  0
 12 13  1  0  0  0  0
 13 29  1  0  0  0  0
 13 20  1  0  0  0  0
 13 14  1  0  0  0  0
 14 15  1  0  0  0  0
 15 30  1  0  0  0  0
 15 16  1  0  0  0  0
 15 18  1  0  0  0  0
 16 17  1  0  0  0  0
 16 40  1  0  0  0  0
 16 41  1  0  0  0  0
 17 42  1  0  0  0  0
 18 31  1  0  0  0  0
 18 19  1  0  0  0  0
 18 20  1  0  0  0  0
 19 43  1  0  0  0  0
 20 32  1  0  0  0  0
 20 21  1  0  0  0  0
 21 44  1  0  0  0  0
 22 27  1  0  0  0  0
 22 23  2  0  0  0  0
 23 24  1  0  0  0  0
 23 45  1  0  0  0  0
 24 25  2  0  0  0  0
 24 46  1  0  0  0  0
 25 26  1  0  0  0  0
 25 47  1  0  0  0  0
 26 27  2  0  0  0  0
 26 48  1  0  0  0  0
 27 28  1  0  0  0  0
M  END
> <s_m_source_file>
AV-unprocessed.smi

> <i_m_source_file_index>
283

> <i_lp_mmshare_version>
43012

> <i_f3d_flags>
0

> <s_epik_input>
Q2xjMVtjSF1bY0hdW2NIXVtjSF1jMVtDQEhdKFtDSDNdKVtOSF1jKG5bY0hdbjIpYyhjMjMpbltjSF1uM1tDQEBIXTRPW0NASF0oW0NIMl1bT0hdKVtDQEBIXShbT0hdKVtDQEhdNFtPSF0=

> <s_epik_cmdline>
J2VwaWtfcHl0aG9uJywgJy1waCcsICc3LjAnLCAnLXRuJywgJzgnLCAnLW1hJywgJzIwMCcsICctbWV0YWxfYmluZGluZycsICctaW1hZScsICc8aW5maWxlLm1hZT4nLCAnLW9tYWUnLCAnPG91dGZpbGUubWFlPic=

> <r_lp_tautomer_probability>
1

> <r_epik_Ionization_Penalty>
0.000266407

> <r_epik_Ionization_Penalty_Charging>
0

> <r_epik_Ionization_Penalty_Neutral>
0.000266407

> <r_epik_State_Penalty>
-0

> <r_epik_Charging_Adjusted_Penalty>
0

> <i_epik_Tot_Q>
0

> <i_epik_Tot_abs_Q>
0

> <r_epik_Metal_State_Penalty>
-0

> <b_epik_Metal_Only>
0

> <s_epik_Chemistry_Notes>
This compound contains an acetal/aminal-like group ( X-CH(R)-Y where X, Y are N, S, or O) that may be acid/base labile, releasing an aldehyde.

> <s_lp_Force_Field>
OPLS_2005

> <r_lp_Energy>
49.3255

> <b_lp_Chiralities_Consistent>
1

> <s_lp_Variant>
AV-unprocessed.smi:283-21

> <Gold.Version>
5.8.1

> <Gold.Id.Protein>
6NUR|6NUR_protein|mol2

> <Gold.PLP.Fitness>
56.6674

> <Gold.PLP.PLP>
-50.1742

> <Gold.PLP.part.hbond>
-4.0000

> <Gold.PLP.part.metal>
0.0000

> <Gold.PLP.part.buried>
-7.1965

> <Gold.PLP.part.nonpolar>
-39.2186

> <Gold.PLP.part.repulsive>
0.3332

> <Gold.PLP.ligand.clash>
0.0000

> <Gold.PLP.ligand.torsion>
1.1525

> <Gold.PLP.Chemscore.Hbond>
2.8830

> <Gold.PLP.Chemscore.CHOScore>
0.0000

> <Gold.PLP.Chemscore.Metal>
0.0000

> <Gold.Chemscore.Hbonds>
donor molecule, donor type, donor heavy atom, donor atom, acceptor molecule, acceptor atom, score
      L1  H    17    42       P1  7948  1.00
      P1  H  6896  6907       L1    21  0.02
      P1  H  7997  8008       L1     5  1.00
      P1  H 10752 10763       L1     7  0.88

> <Gold.PLP.Chemscore.Internal.Correction>
0.1490

> <Gold.Rescore>
     Score         DG    S(hbond)    S(metal)    S(lipo)     H(rot)  DE(clash)    DE(int)     intcor
     11.17     -15.44       2.42        0.00     105.69       4.10       0.07       4.21       ----

> <Gold.Chemscore.Fitness>
11.1663

> <Gold.Chemscore.DG>
-15.4382

> <Gold.Chemscore.ZeroCoef>
-5.4800

> <Gold.Chemscore.Hbond>
2.4194

> <Gold.Chemscore.Metal>
0.0000

> <Gold.Chemscore.Lipo>
105.6865

> <Gold.Chemscore.Internal_Hbond>
0.0000

> <Gold.Chemscore.DEClash>
0.0650

> <Gold.Chemscore.DEInternal>
4.2069

> <Gold.Chemscore.Rot>
4.0968

> <Gold.Chemscore.Internal.Correction>
   9.000000E+99

> <Gold.Chemscore.Hbonds>
donor molecule, donor type, donor heavy atom, donor atom, acceptor molecule, acceptor atom, score
      L1  H    17    42       P1  7948  0.38
      P1  H  7997  8008       L1     5  0.71
      P1  H 10752 10763       L1     7  0.76

> <Gold.Chemscore.Hbond.Weighted>
-8.0808

> <Gold.Chemscore.Metal.Weighted>
-0.0000

> <Gold.Chemscore.Lipo.Weighted>
-12.3653

> <Gold.Chemscore.Internal_Hbond.Weighted>
0.0000

> <Gold.Chemscore.DEClash.Weighted>
0.0650

> <Gold.Chemscore.DEInternal.Weighted>
4.2069

> <Gold.Chemscore.Rot.Weighted>
10.4879

> <Gold.Chemscore.Internal.Correction.Weighted>
   9.000000E+99

> <Gold.Protein.RotatedTorsions>
[ 6907 6896 6895 6894 ] final  179.08 input  -60.11 | X-H torsion
[ 7974 7965 7964 7962 ] final -104.19 input  175.53 | X-H torsion
[ 8008 7997 7996 7995 ] final  -29.28 input   59.86 | X-H torsion
[ 10167 10162 10161 10158 ] final -121.41 input  -65.29 | X-H torsion
[ 10718 10713 10712 10709 ] final  144.38 input   66.30 | X-H torsion
[ 10763 10752 10751 10750 ] final   37.58 input  -60.55 | X-H torsion
[ 11005 11000 10999 10996 ] final   38.69 input  -57.11 | X-H torsion

> <Gold.Protein.ActiveResidues>
 VAL166  LYS551  ARG553  GLY616  TRP617  ASP618  TYR619  PRO620  LYS621  CYS622 
 ASP623  PHE694  ASN695  SER759  ASP760  ASP761  ALA762  ILE779  LEU786  VAL792 
 PHE793  MET794  SER795  GLU796  ALA797  LYS798  CYS799  TRP800  GLU811  SER814 

> <Gold.Protein.RotatedAtoms>
  151.6775  133.3312  159.3211 H   0  0  0  0  0  0  0  0  0  0  0  0  # atno 6907 bound_to 6896
  150.7839  134.6810  159.6453 H   0  0  0  0  0  0  0  0  0  0  0  0  # atno 6908 bound_to 6896
  152.3903  134.6455  160.0162 H   0  0  0  0  0  0  0  0  0  0  0  0  # atno 6909 bound_to 6896
  145.2463  140.9223  143.3121 H   0  0  0  0  0  0  0  0  0  0  0  0  # atno 7974 bound_to 7965
  154.4296  140.1822  156.1224 H   0  0  0  0  0  0  0  0  0  0  0  0  # atno 8008 bound_to 7997
  156.0133  140.3348  155.6937 H   0  0  0  0  0  0  0  0  0  0  0  0  # atno 8009 bound_to 7997
  155.6080  140.0647  157.2705 H   0  0  0  0  0  0  0  0  0  0  0  0  # atno 8010 bound_to 7997
  140.0253  143.5303  152.2202 H   0  0  0  0  0  0  0  0  0  0  0  0  # atno 10167 bound_to 10162
  157.3579  131.0960  151.0942 H   0  0  0  0  0  0  0  0  0  0  0  0  # atno 10718 bound_to 10713
  153.0032  135.6274  154.2167 H   0  0  0  0  0  0  0  0  0  0  0  0  # atno 10763 bound_to 10752
  154.1910  135.2808  155.3023 H   0  0  0  0  0  0  0  0  0  0  0  0  # atno 10764 bound_to 10752
  154.5759  135.5662  153.7198 H   0  0  0  0  0  0  0  0  0  0  0  0  # atno 10765 bound_to 10752
  140.2102  134.3765  155.8053 H   0  0  0  0  0  0  0  0  0  0  0  0  # atno 11005 bound_to 11000
  144.9543  139.4048  143.6387 LP  0  0  0  0  0  0  0  0  0  0  0  0  # atno 17320 bound_to 7965
  146.3315  139.8565  142.8864 LP  0  0  0  0  0  0  0  0  0  0  0  0  # atno 17321 bound_to 7965
  139.6112  144.7609  151.2947 LP  0  0  0  0  0  0  0  0  0  0  0  0  # atno 17342 bound_to 10162
  140.7325  143.6821  150.7992 LP  0  0  0  0  0  0  0  0  0  0  0  0  # atno 17343 bound_to 10162
  157.2093  130.6430  149.5768 LP  0  0  0  0  0  0  0  0  0  0  0  0  # atno 17370 bound_to 10713
  155.9732  130.4665  150.6292 LP  0  0  0  0  0  0  0  0  0  0  0  0  # atno 17371 bound_to 10713
  141.2226  133.7139  156.8404 LP  0  0  0  0  0  0  0  0  0  0  0  0  # atno 17394 bound_to 11000
  140.1959  134.8932  157.3114 LP  0  0  0  0  0  0  0  0  0  0  0  0  # atno 17395 bound_to 11000

$$$$
