AV-unprocessed.smi:1247|AV-procd|sdf|5245|dock10
  -GOLD-   22720 4353D 1   1.00000     0.00000
 Structure written by MMmdl.
 46 47  0  0  0  0  0  0  0  0  1 V2000
  146.3137  129.1748  152.5802 C   0  0  0  0  0  0  0  0  0  0  0  0
  146.7348  130.6138  152.5337 C   0  0  0  0  0  0  0  0  0  0  0  0
  147.9274  131.1964  153.0520 C   0  0  0  0  0  0  0  0  0  0  0  0
  147.7809  132.5193  152.7338 C   0  0  0  0  0  0  0  0  0  0  0  0
  148.6226  133.5561  152.9905 N   0  0  0  0  0  0  0  0  0  0  0  0
  149.6408  133.6148  153.8670 C   0  0  0  0  0  0  0  0  0  0  0  0
  150.0004  132.6985  154.6066 O   0  0  0  0  0  0  0  0  0  0  0  0
  150.2316  134.8184  153.8450 N   0  0  0  0  0  0  0  0  0  0  0  0
  151.3575  135.2105  154.6848 C   0  0  0  0  0  0  0  0  0  0  0  0
  151.9528  136.5566  154.2304 C   0  0  0  0  0  0  0  0  0  0  0  0
  152.5900  137.3384  155.2882 N   0  0  0  0  0  0  0  0  0  0  0  0
  153.7655  136.6783  155.8480 C   0  0  0  0  0  0  0  0  0  0  0  0
  154.4138  137.5123  156.9687 C   0  0  1  0  0  0  0  0  0  0  0  0
  155.7005  136.8696  157.4967 C   0  0  0  0  0  0  0  0  0  0  0  0
  154.7394  138.8092  156.4718 O   0  0  0  0  0  0  0  0  0  0  0  0
  153.6541  139.5231  155.8781 C   0  0  2  0  0  0  0  0  0  0  0  0
  152.6740  140.0577  156.9363 C   0  0  0  0  0  0  0  0  0  0  0  0
  152.9755  138.6577  154.7979 C   0  0  0  0  0  0  0  0  0  0  0  0
  146.5839  132.6863  152.0709 N   0  0  0  0  0  0  0  0  0  0  0  0
  145.9729  133.8881  151.5367 C   0  0  0  0  0  0  0  0  0  0  0  0
  145.9400  131.5051  151.9528 N   0  0  0  0  0  0  0  0  0  0  0  0
  147.0788  128.5552  153.0484 H   0  0  0  0  0  0  0  0  0  0  0  0
  146.1384  128.7834  151.5779 H   0  0  0  0  0  0  0  0  0  0  0  0
  145.3936  129.0538  153.1523 H   0  0  0  0  0  0  0  0  0  0  0  0
  148.7390  130.7066  153.5687 H   0  0  0  0  0  0  0  0  0  0  0  0
  148.4483  134.3937  152.4550 H   0  0  0  0  0  0  0  0  0  0  0  0
  149.8759  135.5144  153.2062 H   0  0  0  0  0  0  0  0  0  0  0  0
  151.0441  135.2635  155.7289 H   0  0  0  0  0  0  0  0  0  0  0  0
  152.1015  134.4169  154.6221 H   0  0  0  0  0  0  0  0  0  0  0  0
  152.6616  136.3877  153.4184 H   0  0  0  0  0  0  0  0  0  0  0  0
  151.1451  137.1513  153.8015 H   0  0  0  0  0  0  0  0  0  0  0  0
  153.4932  135.7057  156.2564 H   0  0  0  0  0  0  0  0  0  0  0  0
  154.4964  136.4937  155.0590 H   0  0  0  0  0  0  0  0  0  0  0  0
  153.7149  137.6090  157.8001 H   0  0  0  0  0  0  0  0  0  0  0  0
  155.5050  135.8783  157.9065 H   0  0  0  0  0  0  0  0  0  0  0  0
  156.1409  137.4754  158.2890 H   0  0  0  0  0  0  0  0  0  0  0  0
  156.4435  136.7653  156.7053 H   0  0  0  0  0  0  0  0  0  0  0  0
  154.0924  140.3910  155.3847 H   0  0  0  0  0  0  0  0  0  0  0  0
  151.9165  140.6928  156.4765 H   0  0  0  0  0  0  0  0  0  0  0  0
  153.1966  140.6548  157.6838 H   0  0  0  0  0  0  0  0  0  0  0  0
  152.1521  139.2541  157.4552 H   0  0  0  0  0  0  0  0  0  0  0  0
  153.6619  138.5438  153.9573 H   0  0  0  0  0  0  0  0  0  0  0  0
  152.1016  139.1822  154.4092 H   0  0  0  0  0  0  0  0  0  0  0  0
  146.7268  134.6578  151.3715 H   0  0  0  0  0  0  0  0  0  0  0  0
  145.2296  134.2629  152.2407 H   0  0  0  0  0  0  0  0  0  0  0  0
  145.4856  133.6683  150.5861 H   0  0  0  0  0  0  0  0  0  0  0  0
  1  2  1  0  0  0  0
  1 22  1  0  0  0  0
  1 23  1  0  0  0  0
  1 24  1  0  0  0  0
  2 21  2  0  0  0  0
  2  3  1  0  0  0  0
  3  4  2  0  0  0  0
  3 25  1  0  0  0  0
  4  5  1  0  0  0  0
  4 19  1  0  0  0  0
  5  6  1  0  0  0  0
  5 26  1  0  0  0  0
  6  7  2  0  0  0  0
  6  8  1  0  0  0  0
  8  9  1  0  0  0  0
  8 27  1  0  0  0  0
  9 10  1  0  0  0  0
  9 28  1  0  0  0  0
  9 29  1  0  0  0  0
 10 11  1  0  0  0  0
 10 30  1  0  0  0  0
 10 31  1  0  0  0  0
 11 18  1  0  0  0  0
 11 12  1  0  0  0  0
 12 13  1  0  0  0  0
 12 32  1  0  0  0  0
 12 33  1  0  0  0  0
 13 14  1  0  0  0  0
 13 15  1  0  0  0  0
 13 34  1  0  0  0  0
 14 35  1  0  0  0  0
 14 36  1  0  0  0  0
 14 37  1  0  0  0  0
 15 16  1  0  0  0  0
 16 17  1  0  0  0  0
 16 18  1  0  0  0  0
 16 38  1  0  0  0  0
 17 39  1  0  0  0  0
 17 40  1  0  0  0  0
 17 41  1  0  0  0  0
 18 42  1  0  0  0  0
 18 43  1  0  0  0  0
 19 20  1  0  0  0  0
 19 21  1  0  0  0  0
 20 44  1  0  0  0  0
 20 45  1  0  0  0  0
 20 46  1  0  0  0  0
M  END
> <s_m_source_file>
AV-unprocessed.smi

> <i_m_source_file_index>
1247

> <i_lp_mmshare_version>
43012

> <i_f3d_flags>
0

> <s_epik_input>
W0NIM11jMVtjSF1jKG4objEpW0NIM10pW05IXUMoPU8pW05IXVtDSDJdW0NIMl1OMltDSDJdW0NAQEhdKFtDSDNdKU9bQ0BASF0oW0NIM10pW0NIMl0y

> <s_epik_cmdline>
J2VwaWtfcHl0aG9uJywgJy1waCcsICc3LjAnLCAnLXRuJywgJzgnLCAnLW1hJywgJzIwMCcsICctbWV0YWxfYmluZGluZycsICctaW1hZScsICc8aW5maWxlLm1hZT4nLCAnLW9tYWUnLCAnPG91dGZpbGUubWFlPic=

> <r_lp_tautomer_probability>
1

> <r_epik_Ionization_Penalty>
0.233972

> <r_epik_Ionization_Penalty_Charging>
0

> <r_epik_Ionization_Penalty_Neutral>
0.233972

> <r_epik_State_Penalty>
0.224627

> <r_epik_Charging_Adjusted_Penalty>
0.224627

> <i_epik_Tot_Q>
0

> <i_epik_Tot_abs_Q>
0

> <r_epik_Metal_State_Penalty>
0.224624

> <b_epik_Metal_Only>
0

> <s_lp_Force_Field>
OPLS_2005

> <r_lp_Energy>
23.3755

> <b_lp_Chiralities_Consistent>
1

> <s_lp_Variant>
AV-unprocessed.smi:1247-3

> <Gold.Version>
5.8.1

> <Gold.Id.Protein>
6NUR|6NUR_protein|mol2

> <Gold.PLP.Fitness>
39.9589

> <Gold.PLP.PLP>
-31.5514

> <Gold.PLP.part.hbond>
-3.0000

> <Gold.PLP.part.metal>
0.0000

> <Gold.PLP.part.buried>
-4.2043

> <Gold.PLP.part.nonpolar>
-24.8840

> <Gold.PLP.part.repulsive>
0.1881

> <Gold.PLP.ligand.clash>
0.0000

> <Gold.PLP.ligand.torsion>
0.3004

> <Gold.PLP.Chemscore.Hbond>
3.0000

> <Gold.PLP.Chemscore.CHOScore>
0.0000

> <Gold.PLP.Chemscore.Metal>
0.0000

> <Gold.Chemscore.Hbonds>
donor molecule, donor type, donor heavy atom, donor atom, acceptor molecule, acceptor atom, score
      L1  H     5    26       P1  7948  0.65
      L1  H     8    27       P1  7948  0.15

> <Gold.PLP.Chemscore.Internal.Correction>
0.0083

> <Gold.Rescore>
     Score         DG    S(hbond)    S(metal)    S(lipo)     H(rot)  DE(clash)    DE(int)     intcor
     16.30     -17.00       2.32        0.00      64.65       1.48       0.00       0.70       ----

> <Gold.Chemscore.Fitness>
16.2978

> <Gold.Chemscore.DG>
-16.9999

> <Gold.Chemscore.ZeroCoef>
-5.4800

> <Gold.Chemscore.Hbond>
2.3215

> <Gold.Chemscore.Metal>
0.0000

> <Gold.Chemscore.Lipo>
64.6549

> <Gold.Chemscore.Internal_Hbond>
0.0000

> <Gold.Chemscore.DEClash>
0.0004

> <Gold.Chemscore.DEInternal>
0.7017

> <Gold.Chemscore.Rot>
1.4838

> <Gold.Chemscore.Internal.Correction>
   9.000000E+99

> <Gold.Chemscore.Hbonds>
donor molecule, donor type, donor heavy atom, donor atom, acceptor molecule, acceptor atom, score
      L1  H     5    26       P1  7948  0.05

> <Gold.Chemscore.Hbond.Weighted>
-7.7538

> <Gold.Chemscore.Metal.Weighted>
-0.0000

> <Gold.Chemscore.Lipo.Weighted>
-7.5646

> <Gold.Chemscore.Internal_Hbond.Weighted>
0.0000

> <Gold.Chemscore.DEClash.Weighted>
0.0004

> <Gold.Chemscore.DEInternal.Weighted>
0.7017

> <Gold.Chemscore.Rot.Weighted>
3.7985

> <Gold.Chemscore.Internal.Correction.Weighted>
   9.000000E+99

> <Gold.Protein.RotatedTorsions>
[ 6907 6896 6895 6894 ] final  129.00 input  -60.11 | X-H torsion
[ 7974 7965 7964 7962 ] final   92.30 input  175.53 | X-H torsion
[ 8008 7997 7996 7995 ] final  145.79 input   59.86 | X-H torsion
[ 10167 10162 10161 10158 ] final  112.28 input  -65.29 | X-H torsion
[ 10718 10713 10712 10709 ] final   88.87 input   66.30 | X-H torsion
[ 10763 10752 10751 10750 ] final  -87.33 input  -60.55 | X-H torsion
[ 11005 11000 10999 10996 ] final -152.70 input  -57.11 | X-H torsion

> <Gold.Protein.ActiveResidues>
 VAL166  LYS551  ARG553  GLY616  TRP617  ASP618  TYR619  PRO620  LYS621  CYS622 
 ASP623  PHE694  ASN695  SER759  ASP760  ASP761  ALA762  ILE779  LEU786  VAL792 
 PHE793  MET794  SER795  GLU796  ALA797  LYS798  CYS799  TRP800  GLU811  SER814 

> <Gold.Protein.RotatedAtoms>
  152.3665  133.6364  159.6054 H   0  0  0  0  0  0  0  0  0  0  0  0  # atno 6907 bound_to 6896
  150.7638  133.9339  159.3444 H   0  0  0  0  0  0  0  0  0  0  0  0  # atno 6908 bound_to 6896
  151.7168  135.0903  160.0328 H   0  0  0  0  0  0  0  0  0  0  0  0  # atno 6909 bound_to 6896
  145.4942  139.2276  143.2813 H   0  0  0  0  0  0  0  0  0  0  0  0  # atno 7974 bound_to 7965
  156.2873  140.2199  156.5272 H   0  0  0  0  0  0  0  0  0  0  0  0  # atno 8008 bound_to 7997
  154.7479  140.0482  157.0890 H   0  0  0  0  0  0  0  0  0  0  0  0  # atno 8009 bound_to 7997
  155.0147  140.3117  155.4819 H   0  0  0  0  0  0  0  0  0  0  0  0  # atno 8010 bound_to 7997
  139.6547  144.7129  151.1980 H   0  0  0  0  0  0  0  0  0  0  0  0  # atno 10167 bound_to 10162
  157.6952  131.0311  150.3339 H   0  0  0  0  0  0  0  0  0  0  0  0  # atno 10718 bound_to 10713
  154.6324  135.5417  153.7695 H   0  0  0  0  0  0  0  0  0  0  0  0  # atno 10763 bound_to 10752
  153.0291  135.6439  154.1281 H   0  0  0  0  0  0  0  0  0  0  0  0  # atno 10764 bound_to 10752
  154.1211  135.2920  155.3188 H   0  0  0  0  0  0  0  0  0  0  0  0  # atno 10765 bound_to 10752
  140.7160  134.3779  157.5190 H   0  0  0  0  0  0  0  0  0  0  0  0  # atno 11005 bound_to 11000
  146.2266  140.5738  142.8994 LP  0  0  0  0  0  0  0  0  0  0  0  0  # atno 17320 bound_to 7965
  144.7817  140.5853  143.6601 LP  0  0  0  0  0  0  0  0  0  0  0  0  # atno 17321 bound_to 7965
  140.7554  143.6092  150.8623 LP  0  0  0  0  0  0  0  0  0  0  0  0  # atno 17342 bound_to 10162
  139.9743  143.6021  152.2963 LP  0  0  0  0  0  0  0  0  0  0  0  0  # atno 17343 bound_to 10162
  156.3809  130.3880  149.7102 LP  0  0  0  0  0  0  0  0  0  0  0  0  # atno 17370 bound_to 10713
  156.4485  130.7895  151.2916 LP  0  0  0  0  0  0  0  0  0  0  0  0  # atno 17371 bound_to 10713
  139.8859  134.8923  156.2612 LP  0  0  0  0  0  0  0  0  0  0  0  0  # atno 17394 bound_to 11000
  141.0044  133.7132  156.1011 LP  0  0  0  0  0  0  0  0  0  0  0  0  # atno 17395 bound_to 11000

$$$$
