AV-unprocessed.smi:2999|AV-procd|sdf|11425|dock1
  -GOLD-   2272016353D 1   1.00000     0.00000
 Structure written by MMmdl.
 37 39  0  0  0  0  0  0  0  0  3 V2000
  148.8715  135.5478  159.0928 O   0  0  0  0  0  0  0  0  0  0  0  0
  148.5977  136.7159  159.3771 C   0  0  0  0  0  0  0  0  0  0  0  0
  149.2114  137.7195  158.7390 N   0  0  0  0  0  0  0  0  0  0  0  0
  150.2035  137.5669  157.6826 C   0  0  0  0  0  0  0  0  0  0  0  0
  150.8015  138.9260  157.2903 C   0  0  2  0  0  0  0  0  0  0  0  0
  150.8463  139.9242  158.4674 C   0  0  0  0  0  0  0  0  0  0  0  0
  151.3617  141.2352  158.0132 N   0  3  2  0  0  0  0  0  0  0  0  0
  151.4635  142.2144  159.1164 C   0  0  0  0  0  0  0  0  0  0  0  0
  152.3146  143.4177  158.7837 C   0  0  0  0  0  0  0  0  0  0  0  0
  152.8547  142.3359  159.6928 C   0  0  0  0  0  0  0  0  0  0  0  0
  150.5620  141.7439  156.8764 C   0  0  0  0  0  0  0  0  0  0  0  0
  150.5191  140.7002  155.7486 C   0  0  0  0  0  0  0  0  0  0  0  0
  149.9966  139.4764  156.2518 O   0  0  0  0  0  0  0  0  0  0  0  0
  147.7049  137.1318  160.3032 N   0  5  0  0  0  0  0  0  0  0  0  0
  147.0053  136.2324  161.0143 C   0  0  0  0  0  0  0  0  0  0  0  0
  147.3685  134.9495  161.1254 N   0  0  0  0  0  0  0  0  0  0  0  0
  146.4922  134.1901  161.9032 C   0  0  0  0  0  0  0  0  0  0  0  0
  145.4326  134.9098  162.3884 C   0  0  0  0  0  0  0  0  0  0  0  0
  145.5050  136.5732  161.8816 S   0  0  0  0  0  0  0  0  0  0  0  0
  148.9622  138.6600  159.0076 H   0  0  0  0  0  0  0  0  0  0  0  0
  150.9908  136.8999  158.0362 H   0  0  0  0  0  0  0  0  0  0  0  0
  149.7516  137.0944  156.8088 H   0  0  0  0  0  0  0  0  0  0  0  0
  151.8111  138.7655  156.9060 H   0  0  0  0  0  0  0  0  0  0  0  0
  149.8492  140.0512  158.8927 H   0  0  0  0  0  0  0  0  0  0  0  0
  151.4867  139.5435  159.2639 H   0  0  0  0  0  0  0  0  0  0  0  0
  150.5898  142.3142  159.7582 H   0  0  0  0  0  0  0  0  0  0  0  0
  152.7382  143.4900  157.7835 H   0  0  0  0  0  0  0  0  0  0  0  0
  152.0446  144.3660  159.2437 H   0  0  0  0  0  0  0  0  0  0  0  0
  152.9398  142.5707  160.7518 H   0  0  0  0  0  0  0  0  0  0  0  0
  153.6352  141.6887  159.2965 H   0  0  0  0  0  0  0  0  0  0  0  0
  149.5495  141.9719  157.2133 H   0  0  0  0  0  0  0  0  0  0  0  0
  150.9945  142.6739  156.5062 H   0  0  0  0  0  0  0  0  0  0  0  0
  149.8810  141.0496  154.9369 H   0  0  0  0  0  0  0  0  0  0  0  0
  151.5125  140.5403  155.3265 H   0  0  0  0  0  0  0  0  0  0  0  0
  146.6995  133.1417  162.0572 H   0  0  0  0  0  0  0  0  0  0  0  0
  144.6180  134.5656  163.0077 H   0  0  0  0  0  0  0  0  0  0  0  0
  152.2986  141.0790  157.6696 H   0  0  0  0  0  0  0  0  0  0  0  0
  1  2  2  0  0  0  0
  2  3  1  0  0  0  0
  2 14  1  0  0  0  0
  3  4  1  0  0  0  0
  3 20  1  0  0  0  0
  4  5  1  0  0  0  0
  4 21  1  0  0  0  0
  4 22  1  0  0  0  0
  5 13  1  0  0  0  0
  5  6  1  0  0  0  0
  5 23  1  0  0  0  0
  6  7  1  0  0  0  0
  6 24  1  0  0  0  0
  6 25  1  0  0  0  0
  7  8  1  0  0  0  0
  7 11  1  0  0  0  0
  7 37  1  0  0  0  0
  8 10  1  0  0  0  0
  8  9  1  0  0  0  0
  8 26  1  0  0  0  0
  9 10  1  0  0  0  0
  9 27  1  0  0  0  0
  9 28  1  0  0  0  0
 10 29  1  0  0  0  0
 10 30  1  0  0  0  0
 11 12  1  0  0  0  0
 11 31  1  0  0  0  0
 11 32  1  0  0  0  0
 12 13  1  0  0  0  0
 12 33  1  0  0  0  0
 12 34  1  0  0  0  0
 14 15  1  0  0  0  0
 15 19  1  0  0  0  0
 15 16  2  0  0  0  0
 16 17  1  0  0  0  0
 17 18  2  0  0  0  0
 17 35  1  0  0  0  0
 18 19  1  0  0  0  0
 18 36  1  0  0  0  0
M  CHG  1   7   1
M  CHG  1  14  -1
M  END
> <s_m_source_file>
AV-unprocessed.smi

> <i_m_source_file_index>
2999

> <i_lp_mmshare_version>
43012

> <i_f3d_flags>
0

> <s_epik_input>
czFbY0hdW2NIXW5jMVtOSF1DKD1PKVtOSF1bQ0gyXVtDQEBIXTJbQ0gyXU4oW0NIMl1bQ0gyXU8yKVtDSF0zW0NIMl1bQ0gyXTM=

> <s_epik_cmdline>
J2VwaWtfcHl0aG9uJywgJy1waCcsICc3LjAnLCAnLXRuJywgJzgnLCAnLW1hJywgJzIwMCcsICctbWV0YWxfYmluZGluZycsICctaW1hZScsICc8aW5maWxlLm1hZT4nLCAnLW9tYWUnLCAnPG91dGZpbGUubWFlPic=

> <r_lp_tautomer_probability>
0.999

> <r_epik_Ionization_Penalty>
7.79196

> <r_epik_Ionization_Penalty_Charging>
6.93299

> <r_epik_Ionization_Penalty_Neutral>
0.858963

> <r_epik_State_Penalty>
7.05108

> <r_epik_Charging_Adjusted_Penalty>
13.9841

> <i_epik_Tot_Q>
0

> <i_epik_Tot_abs_Q>
2

> <r_epik_Metal_State_Penalty>
3.05936

> <b_epik_Metal_Only>
1

> <s_lp_Force_Field>
OPLS_2005

> <r_lp_Energy>
14.1159

> <b_lp_Chiralities_Consistent>
1

> <s_lp_Variant>
AV-unprocessed.smi:2999-9

> <Gold.Version>
5.8.1

> <Gold.Id.Protein>
6NUR|6NUR_protein|mol2

> <Gold.PLP.Fitness>
46.4286

> <Gold.PLP.PLP>
-34.9595

> <Gold.PLP.part.hbond>
-3.0000

> <Gold.PLP.part.metal>
0.0000

> <Gold.PLP.part.buried>
-5.5273

> <Gold.PLP.part.nonpolar>
-28.0742

> <Gold.PLP.part.repulsive>
0.2897

> <Gold.PLP.ligand.clash>
0.0000

> <Gold.PLP.ligand.torsion>
1.1189

> <Gold.PLP.Chemscore.Hbond>
4.1360

> <Gold.PLP.Chemscore.CHOScore>
0.0000

> <Gold.PLP.Chemscore.Metal>
0.0000

> <Gold.Chemscore.Hbonds>
donor molecule, donor type, donor heavy atom, donor atom, acceptor molecule, acceptor atom, score
      P1  H  6896  6908       L1     1  0.78
      P1  H  6931  6943       L1    14  0.28
      P1  H  6934  6947       L1    14  1.72

> <Gold.PLP.Chemscore.Internal.Correction>
1.2989

> <Gold.Rescore>
     Score         DG    S(hbond)    S(metal)    S(lipo)     H(rot)  DE(clash)    DE(int)     intcor
     14.50     -17.52       2.07        0.00      77.88       1.55       0.17       2.84       ----

> <Gold.Chemscore.Fitness>
14.5047

> <Gold.Chemscore.DG>
-17.5237

> <Gold.Chemscore.ZeroCoef>
-5.4800

> <Gold.Chemscore.Hbond>
2.0661

> <Gold.Chemscore.Metal>
0.0000

> <Gold.Chemscore.Lipo>
77.8794

> <Gold.Chemscore.Internal_Hbond>
0.0000

> <Gold.Chemscore.DEClash>
0.1742

> <Gold.Chemscore.DEInternal>
2.8448

> <Gold.Chemscore.Rot>
1.5504

> <Gold.Chemscore.Internal.Correction>
   9.000000E+99

> <Gold.Chemscore.Hbonds>
donor molecule, donor type, donor heavy atom, donor atom, acceptor molecule, acceptor atom, score
      P1  H  6896  6908       L1     1  0.77
      P1  H  6931  6943       L1    14  0.03
      P1  H  6934  6947       L1    14  0.56

> <Gold.Chemscore.Hbond.Weighted>
-6.9008

> <Gold.Chemscore.Metal.Weighted>
-0.0000

> <Gold.Chemscore.Lipo.Weighted>
-9.1119

> <Gold.Chemscore.Internal_Hbond.Weighted>
0.0000

> <Gold.Chemscore.DEClash.Weighted>
0.1742

> <Gold.Chemscore.DEInternal.Weighted>
2.8448

> <Gold.Chemscore.Rot.Weighted>
3.9690

> <Gold.Chemscore.Internal.Correction.Weighted>
   9.000000E+99

> <Gold.Protein.RotatedTorsions>
[ 6907 6896 6895 6894 ] final  160.46 input  -60.11 | X-H torsion
[ 7974 7965 7964 7962 ] final  -97.91 input  175.53 | X-H torsion
[ 8008 7997 7996 7995 ] final  -60.63 input   59.86 | X-H torsion
[ 10167 10162 10161 10158 ] final   62.82 input  -65.29 | X-H torsion
[ 10718 10713 10712 10709 ] final  118.38 input   66.30 | X-H torsion
[ 10763 10752 10751 10750 ] final   61.22 input  -60.55 | X-H torsion
[ 11005 11000 10999 10996 ] final  129.00 input  -57.11 | X-H torsion

> <Gold.Protein.ActiveResidues>
 VAL166  LYS551  ARG553  GLY616  TRP617  ASP618  TYR619  PRO620  LYS621  CYS622 
 ASP623  PHE694  ASN695  SER759  ASP760  ASP761  ALA762  ILE779  LEU786  VAL792 
 PHE793  MET794  SER795  GLU796  ALA797  LYS798  CYS799  TRP800  GLU811  SER814 

> <Gold.Protein.RotatedAtoms>
  151.9703  133.3723  159.4068 H   0  0  0  0  0  0  0  0  0  0  0  0  # atno 6907 bound_to 6896
  150.6950  134.4147  159.5187 H   0  0  0  0  0  0  0  0  0  0  0  0  # atno 6908 bound_to 6896
  152.1850  134.8721  160.0573 H   0  0  0  0  0  0  0  0  0  0  0  0  # atno 6909 bound_to 6896
  145.3275  140.9435  143.2680 H   0  0  0  0  0  0  0  0  0  0  0  0  # atno 7974 bound_to 7965
  154.4408  140.1035  156.6304 H   0  0  0  0  0  0  0  0  0  0  0  0  # atno 8008 bound_to 7997
  155.5611  140.3487  155.4473 H   0  0  0  0  0  0  0  0  0  0  0  0  # atno 8009 bound_to 7997
  156.0459  140.1293  157.0093 H   0  0  0  0  0  0  0  0  0  0  0  0  # atno 8010 bound_to 7997
  140.1397  144.4565  150.6818 H   0  0  0  0  0  0  0  0  0  0  0  0  # atno 10167 bound_to 10162
  157.6034  131.1047  150.7748 H   0  0  0  0  0  0  0  0  0  0  0  0  # atno 10718 bound_to 10713
  152.9944  135.5508  154.5998 H   0  0  0  0  0  0  0  0  0  0  0  0  # atno 10763 bound_to 10752
  154.5342  135.2815  155.1155 H   0  0  0  0  0  0  0  0  0  0  0  0  # atno 10764 bound_to 10752
  154.2458  135.6408  153.5276 H   0  0  0  0  0  0  0  0  0  0  0  0  # atno 10765 bound_to 10752
  139.9591  134.9606  156.9085 H   0  0  0  0  0  0  0  0  0  0  0  0  # atno 11005 bound_to 11000
  144.8890  139.4800  143.6687 LP  0  0  0  0  0  0  0  0  0  0  0  0  # atno 17320 bound_to 7965
  146.3058  139.7577  142.9057 LP  0  0  0  0  0  0  0  0  0  0  0  0  # atno 17321 bound_to 7965
  140.6768  143.2308  151.5488 LP  0  0  0  0  0  0  0  0  0  0  0  0  # atno 17342 bound_to 10162
  139.5478  144.2475  152.1474 LP  0  0  0  0  0  0  0  0  0  0  0  0  # atno 17343 bound_to 10162
  156.8142  130.4962  149.5351 LP  0  0  0  0  0  0  0  0  0  0  0  0  # atno 17370 bound_to 10713
  156.1113  130.6042  151.0051 LP  0  0  0  0  0  0  0  0  0  0  0  0  # atno 17371 bound_to 10713
  140.5540  134.0599  155.7378 LP  0  0  0  0  0  0  0  0  0  0  0  0  # atno 17394 bound_to 11000
  141.1267  133.9372  157.2621 LP  0  0  0  0  0  0  0  0  0  0  0  0  # atno 17395 bound_to 11000

$$$$
