AV-unprocessed.smi:1075|AV-procd|sdf|4695|dock9
  -GOLD-   22720 3213D 1   1.00000     0.00000
 Structure written by MMmdl.
 50 51  0  0  0  0  0  0  0  0  1 V2000
  151.1231  145.2528  160.4263 C   0  0  0  0  0  0  0  0  0  0  0  0
  152.0175  144.0875  160.7398 C   0  0  0  0  0  0  0  0  0  0  0  0
  152.4053  143.8892  161.9878 N   0  0  0  0  0  0  0  0  0  0  0  0
  153.1861  142.7930  161.9348 N   0  0  0  0  0  0  0  0  0  0  0  0
  153.7890  142.2933  163.1552 C   0  0  0  0  0  0  0  0  0  0  0  0
  153.2961  142.2982  160.6495 C   0  0  0  0  0  0  0  0  0  0  0  0
  154.1203  141.0878  160.3404 C   0  0  0  0  0  0  0  0  0  0  0  0
  152.5440  143.1132  159.8404 C   0  0  0  0  0  0  0  0  0  0  0  0
  152.3077  143.0473  158.3443 C   0  0  2  0  0  0  0  0  0  0  0  0
  152.1702  144.4514  157.7257 C   0  0  0  0  0  0  0  0  0  0  0  0
  151.1095  142.1299  158.0463 C   0  0  0  0  0  0  0  0  0  0  0  0
  150.2199  141.9676  158.8818 O   0  0  0  0  0  0  0  0  0  0  0  0
  151.1167  141.5337  156.8396 N   0  0  0  0  0  0  0  0  0  0  0  0
  150.1672  140.5599  156.2880 C   0  0  1  0  0  0  0  0  0  0  0  0
  149.9889  139.3858  157.2792 C   0  0  0  0  0  0  0  0  0  0  0  0
  148.8324  141.3278  156.1140 C   0  0  0  0  0  0  0  0  0  0  0  0
  147.7735  140.5626  155.3009 C   0  0  0  0  0  0  0  0  0  0  0  0
  148.3120  140.1422  153.9239 C   0  0  2  0  0  0  0  0  0  0  0  0
  147.2535  139.3818  153.1124 C   0  0  0  0  0  0  0  0  0  0  0  0
  149.5957  139.3138  154.0932 C   0  0  0  0  0  0  0  0  0  0  0  0
  150.6643  140.0731  154.8987 C   0  0  0  0  0  0  0  0  0  0  0  0
  151.5789  145.9028  159.6792 H   0  0  0  0  0  0  0  0  0  0  0  0
  150.9203  145.8585  161.3104 H   0  0  0  0  0  0  0  0  0  0  0  0
  150.1657  144.9126  160.0317 H   0  0  0  0  0  0  0  0  0  0  0  0
  154.8658  142.4602  163.1253 H   0  0  0  0  0  0  0  0  0  0  0  0
  153.5949  141.2249  163.2509 H   0  0  0  0  0  0  0  0  0  0  0  0
  153.3759  142.8043  164.0260 H   0  0  0  0  0  0  0  0  0  0  0  0
  154.3747  141.0363  159.2826 H   0  0  0  0  0  0  0  0  0  0  0  0
  153.5793  140.1781  160.6006 H   0  0  0  0  0  0  0  0  0  0  0  0
  155.0566  141.0961  160.8984 H   0  0  0  0  0  0  0  0  0  0  0  0
  153.1631  142.5790  157.8564 H   0  0  0  0  0  0  0  0  0  0  0  0
  151.3230  145.0000  158.1378 H   0  0  0  0  0  0  0  0  0  0  0  0
  152.0352  144.3972  156.6449 H   0  0  0  0  0  0  0  0  0  0  0  0
  153.0667  145.0434  157.9110 H   0  0  0  0  0  0  0  0  0  0  0  0
  151.9004  141.7540  156.2420 H   0  0  0  0  0  0  0  0  0  0  0  0
  149.2260  138.6831  156.9464 H   0  0  0  0  0  0  0  0  0  0  0  0
  149.6905  139.7439  158.2649 H   0  0  0  0  0  0  0  0  0  0  0  0
  150.9081  138.8137  157.4036 H   0  0  0  0  0  0  0  0  0  0  0  0
  148.4215  141.5946  157.0886 H   0  0  0  0  0  0  0  0  0  0  0  0
  149.0248  142.2738  155.6044 H   0  0  0  0  0  0  0  0  0  0  0  0
  147.4396  139.6848  155.8546 H   0  0  0  0  0  0  0  0  0  0  0  0
  146.8924  141.1928  155.1754 H   0  0  0  0  0  0  0  0  0  0  0  0
  148.5644  141.0472  153.3692 H   0  0  0  0  0  0  0  0  0  0  0  0
  146.9579  138.4587  153.6119 H   0  0  0  0  0  0  0  0  0  0  0  0
  147.6307  139.1197  152.1236 H   0  0  0  0  0  0  0  0  0  0  0  0
  146.3570  139.9866  152.9731 H   0  0  0  0  0  0  0  0  0  0  0  0
  149.3654  138.3687  154.5856 H   0  0  0  0  0  0  0  0  0  0  0  0
  150.0001  139.0542  153.1143 H   0  0  0  0  0  0  0  0  0  0  0  0
  150.9874  140.9335  154.3100 H   0  0  0  0  0  0  0  0  0  0  0  0
  151.5434  139.4372  155.0044 H   0  0  0  0  0  0  0  0  0  0  0  0
  1  2  1  0  0  0  0
  1 22  1  0  0  0  0
  1 23  1  0  0  0  0
  1 24  1  0  0  0  0
  2  8  1  0  0  0  0
  2  3  2  0  0  0  0
  3  4  1  0  0  0  0
  4  5  1  0  0  0  0
  4  6  1  0  0  0  0
  5 25  1  0  0  0  0
  5 26  1  0  0  0  0
  5 27  1  0  0  0  0
  6  7  1  0  0  0  0
  6  8  2  0  0  0  0
  7 28  1  0  0  0  0
  7 29  1  0  0  0  0
  7 30  1  0  0  0  0
  8  9  1  0  0  0  0
  9 10  1  0  0  0  0
  9 11  1  0  0  0  0
  9 31  1  0  0  0  0
 10 32  1  0  0  0  0
 10 33  1  0  0  0  0
 10 34  1  0  0  0  0
 11 12  2  0  0  0  0
 11 13  1  0  0  0  0
 13 14  1  0  0  0  0
 13 35  1  0  0  0  0
 14 21  1  0  0  0  0
 14 15  1  0  0  0  0
 14 16  1  0  0  0  0
 15 36  1  0  0  0  0
 15 37  1  0  0  0  0
 15 38  1  0  0  0  0
 16 17  1  0  0  0  0
 16 39  1  0  0  0  0
 16 40  1  0  0  0  0
 17 18  1  0  0  0  0
 17 41  1  0  0  0  0
 17 42  1  0  0  0  0
 18 19  1  0  0  0  0
 18 20  1  0  0  0  0
 18 43  1  0  0  0  0
 19 44  1  0  0  0  0
 19 45  1  0  0  0  0
 19 46  1  0  0  0  0
 20 21  1  0  0  0  0
 20 47  1  0  0  0  0
 20 48  1  0  0  0  0
 21 49  1  0  0  0  0
 21 50  1  0  0  0  0
M  END
> <s_m_source_file>
AV-unprocessed.smi

> <i_m_source_file_index>
1075

> <i_lp_mmshare_version>
43012

> <i_f3d_flags>
0

> <s_epik_input>
W0NIM11jMW5uKFtDSDNdKWMoW0NIM10pYzFbQ0BIXShbQ0gzXSlDKD1PKVtOSF1bQ0BAXTIoW0NIM10pW0NIMl1bQ0gyXVtDQEBIXShbQ0gzXSlbQ0gyXVtDSDJdMg==

> <s_epik_cmdline>
J2VwaWtfcHl0aG9uJywgJy1waCcsICc3LjAnLCAnLXRuJywgJzgnLCAnLW1hJywgJzIwMCcsICctbWV0YWxfYmluZGluZycsICctaW1hZScsICc8aW5maWxlLm1hZT4nLCAnLW9tYWUnLCAnPG91dGZpbGUubWFlPic=

> <r_lp_tautomer_probability>
1

> <r_epik_Ionization_Penalty>
0.00502928

> <r_epik_Ionization_Penalty_Charging>
0

> <r_epik_Ionization_Penalty_Neutral>
0.00502928

> <r_epik_State_Penalty>
0.0036576

> <r_epik_Charging_Adjusted_Penalty>
0.0036576

> <i_epik_Tot_Q>
0

> <i_epik_Tot_abs_Q>
0

> <r_epik_Metal_State_Penalty>
-0

> <b_epik_Metal_Only>
0

> <s_lp_Force_Field>
OPLS_2005

> <r_lp_Energy>
7.43589

> <b_lp_Chiralities_Consistent>
1

> <s_lp_Variant>
AV-unprocessed.smi:1075-3

> <Gold.Version>
5.8.1

> <Gold.Id.Protein>
6NUR|6NUR_protein|mol2

> <Gold.PLP.Fitness>
46.9583

> <Gold.PLP.PLP>
-49.7811

> <Gold.PLP.part.hbond>
-0.8314

> <Gold.PLP.part.metal>
0.0000

> <Gold.PLP.part.buried>
-5.4032

> <Gold.PLP.part.nonpolar>
-43.9297

> <Gold.PLP.part.repulsive>
0.7624

> <Gold.PLP.ligand.clash>
0.0000

> <Gold.PLP.ligand.torsion>
1.4540

> <Gold.PLP.Chemscore.Hbond>
0.0000

> <Gold.PLP.Chemscore.CHOScore>
0.0000

> <Gold.PLP.Chemscore.Metal>
0.0000

> <Gold.PLP.Chemscore.Internal.Correction>
0.0851

> <Gold.Rescore>
     Score         DG    S(hbond)    S(metal)    S(lipo)     H(rot)  DE(clash)    DE(int)     intcor
     15.76     -18.42       0.00        0.00     137.55       1.23       0.19       2.47       ----

> <Gold.Chemscore.Fitness>
15.7559

> <Gold.Chemscore.DG>
-18.4197

> <Gold.Chemscore.ZeroCoef>
-5.4800

> <Gold.Chemscore.Hbond>
0.0000

> <Gold.Chemscore.Metal>
0.0000

> <Gold.Chemscore.Lipo>
137.5538

> <Gold.Chemscore.Internal_Hbond>
0.0000

> <Gold.Chemscore.DEClash>
0.1904

> <Gold.Chemscore.DEInternal>
2.4734

> <Gold.Chemscore.Rot>
1.2321

> <Gold.Chemscore.Internal.Correction>
   9.000000E+99

> <Gold.Chemscore.Hbond.Weighted>
-0.0000

> <Gold.Chemscore.Metal.Weighted>
-0.0000

> <Gold.Chemscore.Lipo.Weighted>
-16.0938

> <Gold.Chemscore.Internal_Hbond.Weighted>
0.0000

> <Gold.Chemscore.DEClash.Weighted>
0.1904

> <Gold.Chemscore.DEInternal.Weighted>
2.4734

> <Gold.Chemscore.Rot.Weighted>
3.1541

> <Gold.Chemscore.Internal.Correction.Weighted>
   9.000000E+99

> <Gold.Protein.RotatedTorsions>
[ 6907 6896 6895 6894 ] final  -47.58 input  -60.11 | X-H torsion
[ 7974 7965 7964 7962 ] final   30.07 input  175.53 | X-H torsion
[ 8008 7997 7996 7995 ] final  -53.96 input   59.86 | X-H torsion
[ 10167 10162 10161 10158 ] final  -32.95 input  -65.29 | X-H torsion
[ 10718 10713 10712 10709 ] final -167.32 input   66.30 | X-H torsion
[ 10763 10752 10751 10750 ] final -133.12 input  -60.55 | X-H torsion
[ 11005 11000 10999 10996 ] final   18.20 input  -57.11 | X-H torsion

> <Gold.Protein.ActiveResidues>
 VAL166  LYS551  ARG553  GLY616  TRP617  ASP618  TYR619  PRO620  LYS621  CYS622 
 ASP623  PHE694  ASN695  SER759  ASP760  ASP761  ALA762  ILE779  LEU786  VAL792 
 PHE793  MET794  SER795  GLU796  ALA797  LYS798  CYS799  TRP800  GLU811  SER814 

> <Gold.Protein.RotatedAtoms>
  150.8993  134.8404  159.7348 H   0  0  0  0  0  0  0  0  0  0  0  0  # atno 6907 bound_to 6896
  152.4883  134.4526  159.9589 H   0  0  0  0  0  0  0  0  0  0  0  0  # atno 6908 bound_to 6896
  151.4580  133.3561  159.2840 H   0  0  0  0  0  0  0  0  0  0  0  0  # atno 6909 bound_to 6896
  146.1634  139.6837  142.9018 H   0  0  0  0  0  0  0  0  0  0  0  0  # atno 7974 bound_to 7965
  154.4148  140.1187  156.5238 H   0  0  0  0  0  0  0  0  0  0  0  0  # atno 8008 bound_to 7997
  155.6676  140.3496  155.4787 H   0  0  0  0  0  0  0  0  0  0  0  0  # atno 8009 bound_to 7997
  155.9660  140.1132  157.0844 H   0  0  0  0  0  0  0  0  0  0  0  0  # atno 8010 bound_to 7997
  140.7212  143.3656  151.1877 H   0  0  0  0  0  0  0  0  0  0  0  0  # atno 10167 bound_to 10162
  156.6806  130.9120  151.3056 H   0  0  0  0  0  0  0  0  0  0  0  0  # atno 10718 bound_to 10713
  154.8736  135.3776  154.4521 H   0  0  0  0  0  0  0  0  0  0  0  0  # atno 10763 bound_to 10752
  153.5196  135.7029  153.5743 H   0  0  0  0  0  0  0  0  0  0  0  0  # atno 10764 bound_to 10752
  153.3996  135.3951  155.1944 H   0  0  0  0  0  0  0  0  0  0  0  0  # atno 10765 bound_to 10752
  140.4275  134.1454  155.7677 H   0  0  0  0  0  0  0  0  0  0  0  0  # atno 11005 bound_to 11000
  145.4531  141.0429  143.2793 LP  0  0  0  0  0  0  0  0  0  0  0  0  # atno 17320 bound_to 7965
  144.8058  139.6054  143.7051 LP  0  0  0  0  0  0  0  0  0  0  0  0  # atno 17321 bound_to 7965
  139.7217  143.9213  152.2988 LP  0  0  0  0  0  0  0  0  0  0  0  0  # atno 17342 bound_to 10162
  139.8972  144.6932  150.8705 LP  0  0  0  0  0  0  0  0  0  0  0  0  # atno 17343 bound_to 10162
  157.7045  130.9369  150.0887 LP  0  0  0  0  0  0  0  0  0  0  0  0  # atno 17370 bound_to 10713
  156.1870  130.3653  149.8959 LP  0  0  0  0  0  0  0  0  0  0  0  0  # atno 17371 bound_to 10713
  141.1759  133.8515  157.1422 LP  0  0  0  0  0  0  0  0  0  0  0  0  # atno 17394 bound_to 11000
  140.0157  134.9968  157.0489 LP  0  0  0  0  0  0  0  0  0  0  0  0  # atno 17395 bound_to 11000

$$$$
