AV-unprocessed.smi:2772|AV-procd|sdf|10671|dock10
  -GOLD-   2272015123D 1   1.00000     0.00000
 Structure written by MMmdl.
 54 56  0  0  0  0  0  0  0  0  2 V2000
  152.7734  142.9581  162.2582 C   0  0  0  0  0  0  0  0  0  0  0  0
  152.5073  142.3761  160.8859 C   0  0  0  0  0  0  0  0  0  0  0  0
  153.3798  141.4228  160.3220 C   0  0  0  0  0  0  0  0  0  0  0  0
  153.0819  140.9096  159.0451 C   0  0  0  0  0  0  0  0  0  0  0  0
  151.9182  141.3648  158.3792 C   0  0  0  0  0  0  0  0  0  0  0  0
  151.5239  140.9409  157.0815 N   0  0  0  0  0  0  0  0  0  0  0  0
  150.3003  140.9812  156.5264 C   0  0  0  0  0  0  0  0  0  0  0  0
  149.2944  141.4507  157.0574 O   0  0  0  0  0  0  0  0  0  0  0  0
  150.3124  140.4575  155.2920 N   0  0  0  0  0  0  0  0  0  0  0  0
  149.1606  140.3482  154.3999 C   0  0  2  0  0  0  0  0  0  0  0  0
  148.4292  141.7008  154.3221 C   0  0  0  0  0  0  0  0  0  0  0  0
  147.1142  141.5764  153.5291 C   0  0  0  0  0  0  0  0  0  0  0  0
  146.2121  140.5430  154.1130 N   0  3  2  0  0  0  0  0  0  0  0  0
  145.5782  140.9089  155.4253 C   0  0  0  0  0  0  0  0  0  0  0  0
  144.4524  139.9242  155.8229 C   0  0  0  0  0  0  0  0  0  0  0  0
  143.7150  140.3642  157.0987 C   0  0  0  0  0  0  0  0  0  0  0  0
  143.1386  141.6924  156.9127 N   0  0  0  0  0  0  0  0  0  0  0  0
  142.3851  142.0611  158.1030 C   0  0  0  0  0  0  0  0  0  0  0  0
  144.2105  142.6608  156.7017 C   0  0  0  0  0  0  0  0  0  0  0  0
  144.9718  142.3329  155.4063 C   0  0  0  0  0  0  0  0  0  0  0  0
  146.9027  139.2216  154.0862 C   0  0  0  0  0  0  0  0  0  0  0  0
  148.2119  139.2420  154.8988 C   0  0  0  0  0  0  0  0  0  0  0  0
  151.1249  142.3332  159.0301 C   0  0  0  0  0  0  0  0  0  0  0  0
  151.4019  142.8282  160.2553 N   0  0  0  0  0  0  0  0  0  0  0  0
  153.6766  142.5349  162.6988 H   0  0  0  0  0  0  0  0  0  0  0  0
  151.9385  142.7476  162.9274 H   0  0  0  0  0  0  0  0  0  0  0  0
  152.9006  144.0391  162.1945 H   0  0  0  0  0  0  0  0  0  0  0  0
  154.2611  141.0915  160.8513 H   0  0  0  0  0  0  0  0  0  0  0  0
  153.7556  140.1937  158.6004 H   0  0  0  0  0  0  0  0  0  0  0  0
  152.2721  140.6110  156.4893 H   0  0  0  0  0  0  0  0  0  0  0  0
  151.1907  140.1038  154.9417 H   0  0  0  0  0  0  0  0  0  0  0  0
  149.4815  140.0852  153.3902 H   0  0  0  0  0  0  0  0  0  0  0  0
  148.2245  142.0793  155.3241 H   0  0  0  0  0  0  0  0  0  0  0  0
  149.0742  142.4403  153.8458 H   0  0  0  0  0  0  0  0  0  0  0  0
  146.6238  142.5426  153.4306 H   0  0  0  0  0  0  0  0  0  0  0  0
  147.3474  141.2823  152.5046 H   0  0  0  0  0  0  0  0  0  0  0  0
  146.3374  140.8817  156.2069 H   0  0  0  0  0  0  0  0  0  0  0  0
  143.7377  139.8238  155.0047 H   0  0  0  0  0  0  0  0  0  0  0  0
  144.8537  138.9302  156.0143 H   0  0  0  0  0  0  0  0  0  0  0  0
  142.9199  139.6511  157.3213 H   0  0  0  0  0  0  0  0  0  0  0  0
  144.3957  140.3614  157.9518 H   0  0  0  0  0  0  0  0  0  0  0  0
  141.9397  143.0492  157.9831 H   0  0  0  0  0  0  0  0  0  0  0  0
  143.0213  142.0780  158.9893 H   0  0  0  0  0  0  0  0  0  0  0  0
  141.5745  141.3527  158.2775 H   0  0  0  0  0  0  0  0  0  0  0  0
  143.7857  143.6629  156.6280 H   0  0  0  0  0  0  0  0  0  0  0  0
  144.8928  142.6639  157.5535 H   0  0  0  0  0  0  0  0  0  0  0  0
  145.7506  143.0861  155.2962 H   0  0  0  0  0  0  0  0  0  0  0  0
  144.3022  142.4430  154.5519 H   0  0  0  0  0  0  0  0  0  0  0  0
  146.2539  138.4117  154.4126 H   0  0  0  0  0  0  0  0  0  0  0  0
  147.1370  138.9836  153.0475 H   0  0  0  0  0  0  0  0  0  0  0  0
  148.7050  138.2723  154.8205 H   0  0  0  0  0  0  0  0  0  0  0  0
  147.9900  139.3824  155.9572 H   0  0  0  0  0  0  0  0  0  0  0  0
  150.2353  142.7217  158.5557 H   0  0  0  0  0  0  0  0  0  0  0  0
  145.4392  140.4604  153.4675 H   0  0  0  0  0  0  0  0  0  0  0  0
  1  2  1  0  0  0  0
  1 25  1  0  0  0  0
  1 26  1  0  0  0  0
  1 27  1  0  0  0  0
  2 24  1  0  0  0  0
  2  3  2  0  0  0  0
  3  4  1  0  0  0  0
  3 28  1  0  0  0  0
  4  5  2  0  0  0  0
  4 29  1  0  0  0  0
  5  6  1  0  0  0  0
  5 23  1  0  0  0  0
  6  7  1  0  0  0  0
  6 30  1  0  0  0  0
  7  8  2  0  0  0  0
  7  9  1  0  0  0  0
  9 10  1  0  0  0  0
  9 31  1  0  0  0  0
 10 22  1  0  0  0  0
 10 11  1  0  0  0  0
 10 32  1  0  0  0  0
 11 12  1  0  0  0  0
 11 33  1  0  0  0  0
 11 34  1  0  0  0  0
 12 13  1  0  0  0  0
 12 35  1  0  0  0  0
 12 36  1  0  0  0  0
 13 14  1  0  0  0  0
 13 21  1  0  0  0  0
 13 54  1  0  0  0  0
 14 20  1  0  0  0  0
 14 15  1  0  0  0  0
 14 37  1  0  0  0  0
 15 16  1  0  0  0  0
 15 38  1  0  0  0  0
 15 39  1  0  0  0  0
 16 17  1  0  0  0  0
 16 40  1  0  0  0  0
 16 41  1  0  0  0  0
 17 18  1  0  0  0  0
 17 19  1  0  0  0  0
 18 42  1  0  0  0  0
 18 43  1  0  0  0  0
 18 44  1  0  0  0  0
 19 20  1  0  0  0  0
 19 45  1  0  0  0  0
 19 46  1  0  0  0  0
 20 47  1  0  0  0  0
 20 48  1  0  0  0  0
 21 22  1  0  0  0  0
 21 49  1  0  0  0  0
 21 50  1  0  0  0  0
 22 51  1  0  0  0  0
 22 52  1  0  0  0  0
 23 24  2  0  0  0  0
 23 53  1  0  0  0  0
M  CHG  1  13   1
M  END
> <s_m_source_file>
AV-unprocessed.smi

> <i_m_source_file_index>
2772

> <i_lp_mmshare_version>
43012

> <i_f3d_flags>
0

> <s_epik_input>
W0NIM11jMVtjSF1bY0hdYyhbY0hdbjEpW05IXUMoPU8pW05IXVtDSF0yW0NIMl1bQ0gyXU4oW0NIMl1bQ0gyXTIpW0NIXTNbQ0gyXVtDSDJdTihbQ0gzXSlbQ0gyXVtDSDJdMw==

> <s_epik_cmdline>
J2VwaWtfcHl0aG9uJywgJy1waCcsICc3LjAnLCAnLXRuJywgJzgnLCAnLW1hJywgJzIwMCcsICctbWV0YWxfYmluZGluZycsICctaW1hZScsICc8aW5maWxlLm1hZT4nLCAnLW9tYWUnLCAnPG91dGZpbGUubWFlPic=

> <r_epik_Ionization_Penalty>
1.38854

> <r_epik_Ionization_Penalty_Charging>
0.00081195

> <r_epik_Ionization_Penalty_Neutral>
1.38772

> <r_epik_State_Penalty>
1.56122

> <r_epik_Charging_Adjusted_Penalty>
1.56203

> <i_epik_Tot_Q>
1

> <i_epik_Tot_abs_Q>
1

> <r_epik_Metal_State_Penalty>
1.5614

> <b_epik_Metal_Only>
0

> <s_lp_Force_Field>
OPLS_2005

> <r_lp_Energy>
35.2305

> <b_lp_Chiralities_Consistent>
1

> <s_lp_Variant>
AV-unprocessed.smi:2772-8

> <Gold.Version>
5.8.1

> <Gold.Id.Protein>
6NUR|6NUR_protein|mol2

> <Gold.PLP.Fitness>
41.4262

> <Gold.PLP.PLP>
-36.0196

> <Gold.PLP.part.hbond>
-1.8326

> <Gold.PLP.part.metal>
0.0000

> <Gold.PLP.part.buried>
-6.2542

> <Gold.PLP.part.nonpolar>
-28.1435

> <Gold.PLP.part.repulsive>
0.3887

> <Gold.PLP.ligand.clash>
0.0000

> <Gold.PLP.ligand.torsion>
0.3182

> <Gold.PLP.Chemscore.Hbond>
2.0000

> <Gold.PLP.Chemscore.CHOScore>
0.0000

> <Gold.PLP.Chemscore.Metal>
0.0000

> <Gold.Chemscore.Hbonds>
donor molecule, donor type, donor heavy atom, donor atom, acceptor molecule, acceptor atom, score
      L1  H    13    54       P1 10175  2.00

> <Gold.PLP.Chemscore.Internal.Correction>
0.0430

> <Gold.Rescore>
     Score         DG    S(hbond)    S(metal)    S(lipo)     H(rot)  DE(clash)    DE(int)     intcor
     13.82     -16.85       0.99        0.00      95.07       1.19       0.18       2.85       ----

> <Gold.Chemscore.Fitness>
13.8170

> <Gold.Chemscore.DG>
-16.8482

> <Gold.Chemscore.ZeroCoef>
-5.4800

> <Gold.Chemscore.Hbond>
0.9860

> <Gold.Chemscore.Metal>
0.0000

> <Gold.Chemscore.Lipo>
95.0746

> <Gold.Chemscore.Internal_Hbond>
0.0000

> <Gold.Chemscore.DEClash>
0.1762

> <Gold.Chemscore.DEInternal>
2.8549

> <Gold.Chemscore.Rot>
1.1910

> <Gold.Chemscore.Internal.Correction>
   9.000000E+99

> <Gold.Chemscore.Hbonds>
donor molecule, donor type, donor heavy atom, donor atom, acceptor molecule, acceptor atom, score
      L1  H    13    54       P1 10175  0.93

> <Gold.Chemscore.Hbond.Weighted>
-3.2934

> <Gold.Chemscore.Metal.Weighted>
-0.0000

> <Gold.Chemscore.Lipo.Weighted>
-11.1237

> <Gold.Chemscore.Internal_Hbond.Weighted>
0.0000

> <Gold.Chemscore.DEClash.Weighted>
0.1762

> <Gold.Chemscore.DEInternal.Weighted>
2.8549

> <Gold.Chemscore.Rot.Weighted>
3.0489

> <Gold.Chemscore.Internal.Correction.Weighted>
   9.000000E+99

> <Gold.Protein.RotatedTorsions>
[ 6907 6896 6895 6894 ] final   13.41 input  -60.11 | X-H torsion
[ 7974 7965 7964 7962 ] final  141.25 input  175.53 | X-H torsion
[ 8008 7997 7996 7995 ] final -134.70 input   59.86 | X-H torsion
[ 10167 10162 10161 10158 ] final   66.91 input  -65.29 | X-H torsion
[ 10718 10713 10712 10709 ] final   96.35 input   66.30 | X-H torsion
[ 10763 10752 10751 10750 ] final  -33.47 input  -60.55 | X-H torsion
[ 11005 11000 10999 10996 ] final  118.71 input  -57.11 | X-H torsion

> <Gold.Protein.ActiveResidues>
 VAL166  LYS551  ARG553  GLY616  TRP617  ASP618  TYR619  PRO620  LYS621  CYS622 
 ASP623  PHE694  ASN695  SER759  ASP760  ASP761  ALA762  ILE779  LEU786  VAL792 
 PHE793  MET794  SER795  GLU796  ALA797  LYS798  CYS799  TRP800  GLU811  SER814 

> <Gold.Protein.RotatedAtoms>
  151.7858  135.0749  160.0380 H   0  0  0  0  0  0  0  0  0  0  0  0  # atno 6907 bound_to 6896
  152.3191  133.5830  159.5741 H   0  0  0  0  0  0  0  0  0  0  0  0  # atno 6908 bound_to 6896
  150.7360  133.9954  159.3662 H   0  0  0  0  0  0  0  0  0  0  0  0  # atno 6909 bound_to 6896
  144.9113  139.5289  143.5707 H   0  0  0  0  0  0  0  0  0  0  0  0  # atno 7974 bound_to 7965
  155.3665  140.0486  157.3046 H   0  0  0  0  0  0  0  0  0  0  0  0  # atno 8008 bound_to 7997
  154.5152  140.2205  155.9043 H   0  0  0  0  0  0  0  0  0  0  0  0  # atno 8009 bound_to 7997
  156.1628  140.3113  155.8842 H   0  0  0  0  0  0  0  0  0  0  0  0  # atno 8010 bound_to 7997
  140.0952  144.4952  150.7072 H   0  0  0  0  0  0  0  0  0  0  0  0  # atno 10167 bound_to 10162
  157.6928  131.0575  150.4477 H   0  0  0  0  0  0  0  0  0  0  0  0  # atno 10718 bound_to 10713
  153.8308  135.6866  153.4815 H   0  0  0  0  0  0  0  0  0  0  0  0  # atno 10763 bound_to 10752
  153.1512  135.4617  154.9637 H   0  0  0  0  0  0  0  0  0  0  0  0  # atno 10764 bound_to 10752
  154.7887  135.3294  154.7771 H   0  0  0  0  0  0  0  0  0  0  0  0  # atno 10765 bound_to 10752
  139.9119  134.9622  156.7544 H   0  0  0  0  0  0  0  0  0  0  0  0  # atno 11005 bound_to 11000
  146.3160  139.7921  142.8983 LP  0  0  0  0  0  0  0  0  0  0  0  0  # atno 17320 bound_to 7965
  145.3449  141.0295  143.3371 LP  0  0  0  0  0  0  0  0  0  0  0  0  # atno 17321 bound_to 7965
  140.7007  143.2433  151.4872 LP  0  0  0  0  0  0  0  0  0  0  0  0  # atno 17342 bound_to 10162
  139.5702  144.1947  152.1825 LP  0  0  0  0  0  0  0  0  0  0  0  0  # atno 17343 bound_to 10162
  156.4831  130.4078  149.6450 LP  0  0  0  0  0  0  0  0  0  0  0  0  # atno 17370 bound_to 10713
  156.3488  130.7421  151.2377 LP  0  0  0  0  0  0  0  0  0  0  0  0  # atno 17371 bound_to 10713
  140.6748  133.9527  155.7876 LP  0  0  0  0  0  0  0  0  0  0  0  0  # atno 17394 bound_to 11000
  141.0552  134.0426  157.3731 LP  0  0  0  0  0  0  0  0  0  0  0  0  # atno 17395 bound_to 11000

$$$$
