AV-unprocessed.smi:1486|AV-procd|sdf|6005|dock5
  -GOLD-   22720 6103D 1   1.00000     0.00000
 Structure written by MMmdl.
 39 40  0  0  0  0  0  0  0  0  1 V2000
  154.0984  135.9303  157.8945 C   0  0  0  0  0  0  0  0  0  0  0  0
  153.1335  136.2245  156.9006 O   0  0  0  0  0  0  0  0  0  0  0  0
  152.7309  137.5850  156.9149 C   0  0  0  0  0  0  0  0  0  0  0  0
  151.4752  137.7624  156.0438 C   0  0  2  0  0  0  0  0  0  0  0  0
  151.8177  137.7366  154.5482 C   0  0  0  0  0  0  0  0  0  0  0  0
  150.8292  139.0319  156.3644 N   0  0  0  0  0  0  0  0  0  0  0  0
  151.3076  140.2522  156.0722 C   0  0  0  0  0  0  0  0  0  0  0  0
  152.4143  140.4505  155.5712 O   0  0  0  0  0  0  0  0  0  0  0  0
  150.3820  141.4318  156.3720 C   0  0  0  0  0  0  0  0  0  0  0  0
  151.0820  142.4102  157.2708 C   0  0  0  0  0  0  0  0  0  0  0  0
  151.2906  143.7465  157.0301 C   0  0  0  0  0  0  0  0  0  0  0  0
  152.1154  144.5273  158.3509 S   0  0  0  0  0  0  0  0  0  0  0  0
  152.1552  142.9780  159.1982 C   0  0  0  0  0  0  0  0  0  0  0  0
  152.7169  142.7308  160.4864 N   0  0  0  0  0  0  0  0  0  0  0  0
  152.5420  143.6671  161.5928 C   0  0  0  0  0  0  0  0  0  0  0  0
  153.0932  142.9596  162.8355 C   0  0  0  0  0  0  0  0  0  0  0  0
  153.9013  141.7781  162.3032 C   0  0  0  0  0  0  0  0  0  0  0  0
  153.4763  141.6812  160.8472 C   0  0  0  0  0  0  0  0  0  0  0  0
  153.8224  140.7368  160.1390 O   0  0  0  0  0  0  0  0  0  0  0  0
  151.5867  141.9857  158.5049 N   0  0  0  0  0  0  0  0  0  0  0  0
  154.3791  134.8789  157.8321 H   0  0  0  0  0  0  0  0  0  0  0  0
  153.7016  136.1130  158.8938 H   0  0  0  0  0  0  0  0  0  0  0  0
  154.9998  136.5290  157.7592 H   0  0  0  0  0  0  0  0  0  0  0  0
  152.5298  137.9112  157.9371 H   0  0  0  0  0  0  0  0  0  0  0  0
  153.5435  138.2029  156.5298 H   0  0  0  0  0  0  0  0  0  0  0  0
  150.7930  136.9330  156.2392 H   0  0  0  0  0  0  0  0  0  0  0  0
  152.2861  136.7923  154.2700 H   0  0  0  0  0  0  0  0  0  0  0  0
  152.5060  138.5400  154.2834 H   0  0  0  0  0  0  0  0  0  0  0  0
  150.9213  137.8506  153.9377 H   0  0  0  0  0  0  0  0  0  0  0  0
  149.9095  138.9781  156.7776 H   0  0  0  0  0  0  0  0  0  0  0  0
  150.0824  141.9024  155.4346 H   0  0  0  0  0  0  0  0  0  0  0  0
  149.4677  141.0665  156.8415 H   0  0  0  0  0  0  0  0  0  0  0  0
  150.9988  144.3186  156.1618 H   0  0  0  0  0  0  0  0  0  0  0  0
  153.1059  144.5776  161.3842 H   0  0  0  0  0  0  0  0  0  0  0  0
  151.4942  143.9395  161.7265 H   0  0  0  0  0  0  0  0  0  0  0  0
  153.6987  143.6290  163.4476 H   0  0  0  0  0  0  0  0  0  0  0  0
  152.2724  142.5979  163.4566 H   0  0  0  0  0  0  0  0  0  0  0  0
  154.9728  141.9739  162.3549 H   0  0  0  0  0  0  0  0  0  0  0  0
  153.6869  140.8555  162.8438 H   0  0  0  0  0  0  0  0  0  0  0  0
  1  2  1  0  0  0  0
  1 21  1  0  0  0  0
  1 22  1  0  0  0  0
  1 23  1  0  0  0  0
  2  3  1  0  0  0  0
  3  4  1  0  0  0  0
  3 24  1  0  0  0  0
  3 25  1  0  0  0  0
  4  5  1  0  0  0  0
  4  6  1  0  0  0  0
  4 26  1  0  0  0  0
  5 27  1  0  0  0  0
  5 28  1  0  0  0  0
  5 29  1  0  0  0  0
  6  7  1  0  0  0  0
  6 30  1  0  0  0  0
  7  8  2  0  0  0  0
  7  9  1  0  0  0  0
  9 10  1  0  0  0  0
  9 31  1  0  0  0  0
  9 32  1  0  0  0  0
 10 20  1  0  0  0  0
 10 11  2  0  0  0  0
 11 12  1  0  0  0  0
 11 33  1  0  0  0  0
 12 13  1  0  0  0  0
 13 14  1  0  0  0  0
 13 20  2  0  0  0  0
 14 18  1  0  0  0  0
 14 15  1  0  0  0  0
 15 16  1  0  0  0  0
 15 34  1  0  0  0  0
 15 35  1  0  0  0  0
 16 17  1  0  0  0  0
 16 36  1  0  0  0  0
 16 37  1  0  0  0  0
 17 18  1  0  0  0  0
 17 38  1  0  0  0  0
 17 39  1  0  0  0  0
 18 19  2  0  0  0  0
M  END
> <s_m_source_file>
AV-unprocessed.smi

> <i_m_source_file_index>
1486

> <i_lp_mmshare_version>
43012

> <i_f3d_flags>
0

> <s_epik_input>
W0NIM11PW0NIMl1bQ0BIXShbQ0gzXSlbTkhdQyg9TylbQ0gyXWMxW2NIXXNjKG4xKU4yW0NIMl1bQ0gyXVtDSDJdQzI9Tw==

> <s_epik_cmdline>
J2VwaWtfcHl0aG9uJywgJy1waCcsICc3LjAnLCAnLXRuJywgJzgnLCAnLW1hJywgJzIwMCcsICctbWV0YWxfYmluZGluZycsICctaW1hZScsICc8aW5maWxlLm1hZT4nLCAnLW9tYWUnLCAnPG91dGZpbGUubWFlPic=

> <r_lp_tautomer_probability>
1

> <r_epik_Ionization_Penalty>
3.00988e-05

> <r_epik_Ionization_Penalty_Charging>
0

> <r_epik_Ionization_Penalty_Neutral>
3.00988e-05

> <r_epik_State_Penalty>
-0

> <r_epik_Charging_Adjusted_Penalty>
0

> <i_epik_Tot_Q>
0

> <i_epik_Tot_abs_Q>
0

> <r_epik_Metal_State_Penalty>
-0

> <b_epik_Metal_Only>
0

> <s_lp_Force_Field>
OPLS_2005

> <r_lp_Energy>
17.4933

> <b_lp_Chiralities_Consistent>
1

> <s_lp_Variant>
AV-unprocessed.smi:1486-1

> <Gold.Version>
5.8.1

> <Gold.Id.Protein>
6NUR|6NUR_protein|mol2

> <Gold.PLP.Fitness>
51.0553

> <Gold.PLP.PLP>
-43.5793

> <Gold.PLP.part.hbond>
-3.0000

> <Gold.PLP.part.metal>
0.0000

> <Gold.PLP.part.buried>
2.3450

> <Gold.PLP.part.nonpolar>
-41.6875

> <Gold.PLP.part.repulsive>
0.0613

> <Gold.PLP.ligand.clash>
0.0000

> <Gold.PLP.ligand.torsion>
0.9506

> <Gold.PLP.Chemscore.Hbond>
2.2457

> <Gold.PLP.Chemscore.CHOScore>
0.8707

> <Gold.PLP.Chemscore.Metal>
0.0000

> <Gold.Chemscore.Hbonds>
donor molecule, donor type, donor heavy atom, donor atom, acceptor molecule, acceptor atom, score
      P1  H  7989  7998       L1     8  0.22
      P1  H  7997  8010       L1     8  0.96
      P1  H 10752 10765       L1     2  1.00
      L1  C    11    33       P1  8028  0.87

> <Gold.PLP.Chemscore.Internal.Correction>
0.0278

> <Gold.Rescore>
     Score         DG    S(hbond)    S(metal)    S(lipo)     H(rot)  DE(clash)    DE(int)     intcor
     12.38     -18.44       1.92        0.00      98.37       1.94       2.96       3.10       ----

> <Gold.Chemscore.Fitness>
12.3817

> <Gold.Chemscore.DG>
-18.4438

> <Gold.Chemscore.ZeroCoef>
-5.4800

> <Gold.Chemscore.Hbond>
1.9203

> <Gold.Chemscore.Metal>
0.0000

> <Gold.Chemscore.Lipo>
98.3714

> <Gold.Chemscore.Internal_Hbond>
0.0000

> <Gold.Chemscore.DEClash>
2.9610

> <Gold.Chemscore.DEInternal>
3.1010

> <Gold.Chemscore.Rot>
1.9373

> <Gold.Chemscore.Internal.Correction>
   9.000000E+99

> <Gold.Chemscore.Hbonds>
donor molecule, donor type, donor heavy atom, donor atom, acceptor molecule, acceptor atom, score
      P1  H  7989  7998       L1     8  0.04
      P1  H  7997  8010       L1     8  0.86
      P1  H 10752 10765       L1     2  0.44

> <Gold.Chemscore.Hbond.Weighted>
-6.4138

> <Gold.Chemscore.Metal.Weighted>
-0.0000

> <Gold.Chemscore.Lipo.Weighted>
-11.5095

> <Gold.Chemscore.Internal_Hbond.Weighted>
0.0000

> <Gold.Chemscore.DEClash.Weighted>
2.9610

> <Gold.Chemscore.DEInternal.Weighted>
3.1010

> <Gold.Chemscore.Rot.Weighted>
4.9594

> <Gold.Chemscore.Internal.Correction.Weighted>
   9.000000E+99

> <Gold.Protein.RotatedTorsions>
[ 6907 6896 6895 6894 ] final  -50.51 input  -60.11 | X-H torsion
[ 7974 7965 7964 7962 ] final  -32.26 input  175.53 | X-H torsion
[ 8008 7997 7996 7995 ] final   99.67 input   59.86 | X-H torsion
[ 10167 10162 10161 10158 ] final -144.92 input  -65.29 | X-H torsion
[ 10718 10713 10712 10709 ] final  -75.95 input   66.30 | X-H torsion
[ 10763 10752 10751 10750 ] final -108.28 input  -60.55 | X-H torsion
[ 11005 11000 10999 10996 ] final   68.95 input  -57.11 | X-H torsion

> <Gold.Protein.ActiveResidues>
 VAL166  LYS551  ARG553  GLY616  TRP617  ASP618  TYR619  PRO620  LYS621  CYS622 
 ASP623  PHE694  ASN695  SER759  ASP760  ASP761  ALA762  ILE779  LEU786  VAL792 
 PHE793  MET794  SER795  GLU796  ALA797  LYS798  CYS799  TRP800  GLU811  SER814 

> <Gold.Protein.RotatedAtoms>
  150.8700  134.8072  159.7147 H   0  0  0  0  0  0  0  0  0  0  0  0  # atno 6907 bound_to 6896
  152.4708  134.4962  159.9720 H   0  0  0  0  0  0  0  0  0  0  0  0  # atno 6908 bound_to 6896
  151.5052  133.3458  159.2911 H   0  0  0  0  0  0  0  0  0  0  0  0  # atno 6909 bound_to 6896
  146.1003  140.5771  142.8824 H   0  0  0  0  0  0  0  0  0  0  0  0  # atno 7974 bound_to 7965
  156.1128  140.3225  155.8097 H   0  0  0  0  0  0  0  0  0  0  0  0  # atno 8008 bound_to 7997
  155.4642  140.0541  157.3004 H   0  0  0  0  0  0  0  0  0  0  0  0  # atno 8009 bound_to 7997
  154.4772  140.2037  155.9864 H   0  0  0  0  0  0  0  0  0  0  0  0  # atno 8010 bound_to 7997
  139.7854  143.8042  152.2644 H   0  0  0  0  0  0  0  0  0  0  0  0  # atno 10167 bound_to 10162
  156.0191  130.4453  150.3119 H   0  0  0  0  0  0  0  0  0  0  0  0  # atno 10718 bound_to 10713
  154.8126  135.4644  154.0557 H   0  0  0  0  0  0  0  0  0  0  0  0  # atno 10763 bound_to 10752
  153.1975  135.6864  153.8279 H   0  0  0  0  0  0  0  0  0  0  0  0  # atno 10764 bound_to 10752
  153.7776  135.3261  155.3338 H   0  0  0  0  0  0  0  0  0  0  0  0  # atno 10765 bound_to 10752
  139.9681  134.6946  156.0502 H   0  0  0  0  0  0  0  0  0  0  0  0  # atno 11005 bound_to 11000
  144.7428  140.4987  143.6857 LP  0  0  0  0  0  0  0  0  0  0  0  0  # atno 17320 bound_to 7965
  145.5867  139.1492  143.3205 LP  0  0  0  0  0  0  0  0  0  0  0  0  # atno 17321 bound_to 7965
  139.8117  144.7333  150.9689 LP  0  0  0  0  0  0  0  0  0  0  0  0  # atno 17342 bound_to 10162
  140.7819  143.4244  151.0790 LP  0  0  0  0  0  0  0  0  0  0  0  0  # atno 17343 bound_to 10162
  157.1221  131.0249  151.3005 LP  0  0  0  0  0  0  0  0  0  0  0  0  # atno 17370 bound_to 10713
  157.4620  130.7658  149.7244 LP  0  0  0  0  0  0  0  0  0  0  0  0  # atno 17371 bound_to 10713
  141.1361  133.6575  156.3598 LP  0  0  0  0  0  0  0  0  0  0  0  0  # atno 17394 bound_to 11000
  140.5352  134.6174  157.5362 LP  0  0  0  0  0  0  0  0  0  0  0  0  # atno 17395 bound_to 11000

$$$$
