AV-unprocessed.smi:885|AV-procd|sdf|4046|dock5
  -GOLD-   22720 1533D 1   1.00000     0.00000
 Structure written by MMmdl.
 39 41  0  0  0  0  0  0  0  0  1 V2000
  151.6814  144.3983  161.0417 C   0  0  0  0  0  0  0  0  0  0  0  0
  152.5970  143.4953  161.8877 C   0  0  0  0  0  0  0  0  0  0  0  0
  153.3006  142.3428  161.1495 C   0  0  0  0  0  0  0  0  0  0  0  0
  152.4417  141.6050  160.1084 C   0  0  0  0  0  0  0  0  0  0  0  0
  152.4733  142.2627  158.7115 C   0  0  0  0  0  0  0  0  0  0  0  0
  151.9987  141.3093  157.6562 C   0  0  0  0  0  0  0  0  0  0  0  0
  152.5577  140.1144  157.5029 N   0  0  0  0  0  0  0  0  0  0  0  0
  151.8483  139.5585  156.4290 O   0  0  0  0  0  0  0  0  0  0  0  0
  150.9264  140.4852  156.0728 C   0  0  0  0  0  0  0  0  0  0  0  0
  150.0390  140.2006  154.9036 C   0  0  2  0  0  0  0  0  0  0  0  0
  149.1082  141.3841  154.5759 C   0  0  0  0  0  0  0  0  0  0  0  0
  148.2043  141.0298  153.4829 N   0  0  0  0  0  0  0  0  0  0  0  0
  147.4559  139.8122  153.7908 C   0  0  0  0  0  0  0  0  0  0  0  0
  148.4198  138.6664  154.1485 C   0  0  0  0  0  0  0  0  0  0  0  0
  149.2498  139.0608  155.2357 O   0  0  0  0  0  0  0  0  0  0  0  0
  150.9876  141.6042  156.7921 N   0  0  0  0  0  0  0  0  0  0  0  0
  151.7307  143.6096  158.6042 C   0  0  0  0  0  0  0  0  0  0  0  0
  152.1725  144.6841  159.6131 C   0  0  0  0  0  0  0  0  0  0  0  0
  151.5627  145.3442  161.5715 H   0  0  0  0  0  0  0  0  0  0  0  0
  150.6802  143.9673  161.0009 H   0  0  0  0  0  0  0  0  0  0  0  0
  153.3635  144.1096  162.3613 H   0  0  0  0  0  0  0  0  0  0  0  0
  152.0057  143.0855  162.7073 H   0  0  0  0  0  0  0  0  0  0  0  0
  154.2117  142.7121  160.6772 H   0  0  0  0  0  0  0  0  0  0  0  0
  153.6398  141.6266  161.8985 H   0  0  0  0  0  0  0  0  0  0  0  0
  152.8549  140.5999  160.0115 H   0  0  0  0  0  0  0  0  0  0  0  0
  151.4184  141.4723  160.4619 H   0  0  0  0  0  0  0  0  0  0  0  0
  153.5211  142.4700  158.4872 H   0  0  0  0  0  0  0  0  0  0  0  0
  150.6726  139.9680  154.0455 H   0  0  0  0  0  0  0  0  0  0  0  0
  148.5295  141.6536  155.4606 H   0  0  0  0  0  0  0  0  0  0  0  0
  149.6951  142.2623  154.3060 H   0  0  0  0  0  0  0  0  0  0  0  0
  147.5570  141.7935  153.3158 H   0  0  0  0  0  0  0  0  0  0  0  0
  146.7789  139.9943  154.6262 H   0  0  0  0  0  0  0  0  0  0  0  0
  146.8357  139.5290  152.9404 H   0  0  0  0  0  0  0  0  0  0  0  0
  147.8560  137.7802  154.4400 H   0  0  0  0  0  0  0  0  0  0  0  0
  149.0315  138.3863  153.2892 H   0  0  0  0  0  0  0  0  0  0  0  0
  151.8842  144.0037  157.5986 H   0  0  0  0  0  0  0  0  0  0  0  0
  150.6555  143.4500  158.6958 H   0  0  0  0  0  0  0  0  0  0  0  0
  151.7371  145.6313  159.2929 H   0  0  0  0  0  0  0  0  0  0  0  0
  153.2528  144.8307  159.5888 H   0  0  0  0  0  0  0  0  0  0  0  0
  1 18  1  0  0  0  0
  1  2  1  0  0  0  0
  1 19  1  0  0  0  0
  1 20  1  0  0  0  0
  2  3  1  0  0  0  0
  2 21  1  0  0  0  0
  2 22  1  0  0  0  0
  3  4  1  0  0  0  0
  3 23  1  0  0  0  0
  3 24  1  0  0  0  0
  4  5  1  0  0  0  0
  4 25  1  0  0  0  0
  4 26  1  0  0  0  0
  5  6  1  0  0  0  0
  5 17  1  0  0  0  0
  5 27  1  0  0  0  0
  6 16  1  0  0  0  0
  6  7  2  0  0  0  0
  7  8  1  0  0  0  0
  8  9  1  0  0  0  0
  9 10  1  0  0  0  0
  9 16  2  0  0  0  0
 10 15  1  0  0  0  0
 10 11  1  0  0  0  0
 10 28  1  0  0  0  0
 11 12  1  0  0  0  0
 11 29  1  0  0  0  0
 11 30  1  0  0  0  0
 12 13  1  0  0  0  0
 12 31  1  0  0  0  0
 13 14  1  0  0  0  0
 13 32  1  0  0  0  0
 13 33  1  0  0  0  0
 14 15  1  0  0  0  0
 14 34  1  0  0  0  0
 14 35  1  0  0  0  0
 17 18  1  0  0  0  0
 17 36  1  0  0  0  0
 17 37  1  0  0  0  0
 18 38  1  0  0  0  0
 18 39  1  0  0  0  0
M  END
> <s_m_source_file>
AV-unprocessed.smi

> <i_m_source_file_index>
885

> <i_lp_mmshare_version>
43012

> <i_f3d_flags>
0

> <s_epik_input>
W0NIMl0xW0NIMl1bQ0gyXVtDSDJdW0NIMl1bQ0gyXVtDSF0xYzJub2MobjIpW0NAQEhdM1tDSDJdW05IXVtDSDJdW0NIMl1PMw==

> <s_epik_cmdline>
J2VwaWtfcHl0aG9uJywgJy1waCcsICc3LjAnLCAnLXRuJywgJzgnLCAnLW1hJywgJzIwMCcsICctbWV0YWxfYmluZGluZycsICctaW1hZScsICc8aW5maWxlLm1hZT4nLCAnLW9tYWUnLCAnPG91dGZpbGUubWFlPic=

> <r_lp_tautomer_probability>
1

> <r_epik_Ionization_Penalty>
0.861744

> <r_epik_Ionization_Penalty_Charging>
0

> <r_epik_Ionization_Penalty_Neutral>
0.861744

> <r_epik_State_Penalty>
0.898282

> <r_epik_Charging_Adjusted_Penalty>
0.898282

> <i_epik_Tot_Q>
0

> <i_epik_Tot_abs_Q>
0

> <r_epik_Metal_State_Penalty>
0.898282

> <b_epik_Metal_Only>
0

> <s_lp_Force_Field>
OPLS_2005

> <r_lp_Energy>
20.6019

> <b_lp_Chiralities_Consistent>
1

> <s_lp_Variant>
AV-unprocessed.smi:885-3

> <Gold.Version>
5.8.1

> <Gold.Id.Protein>
6NUR|6NUR_protein|mol2

> <Gold.PLP.Fitness>
43.2045

> <Gold.PLP.PLP>
-40.2111

> <Gold.PLP.part.hbond>
-2.5735

> <Gold.PLP.part.metal>
0.0000

> <Gold.PLP.part.buried>
-3.3274

> <Gold.PLP.part.nonpolar>
-33.9405

> <Gold.PLP.part.repulsive>
0.1289

> <Gold.PLP.ligand.clash>
0.0000

> <Gold.PLP.ligand.torsion>
0.0570

> <Gold.PLP.Chemscore.Hbond>
1.0000

> <Gold.PLP.Chemscore.CHOScore>
0.0000

> <Gold.PLP.Chemscore.Metal>
0.0000

> <Gold.Chemscore.Hbonds>
donor molecule, donor type, donor heavy atom, donor atom, acceptor molecule, acceptor atom, score
      P1  H  7997  8010       L1     7  1.00

> <Gold.PLP.Chemscore.Internal.Correction>
0.1073

> <Gold.Rescore>
     Score         DG    S(hbond)    S(metal)    S(lipo)     H(rot)  DE(clash)    DE(int)     intcor
     16.71     -17.03       0.59        0.00     108.35       1.21       0.22       0.10       ----

> <Gold.Chemscore.Fitness>
16.7090

> <Gold.Chemscore.DG>
-17.0312

> <Gold.Chemscore.ZeroCoef>
-5.4800

> <Gold.Chemscore.Hbond>
0.5896

> <Gold.Chemscore.Metal>
0.0000

> <Gold.Chemscore.Lipo>
108.3479

> <Gold.Chemscore.Internal_Hbond>
0.0000

> <Gold.Chemscore.DEClash>
0.2212

> <Gold.Chemscore.DEInternal>
0.1009

> <Gold.Chemscore.Rot>
1.2088

> <Gold.Chemscore.Internal.Correction>
   9.000000E+99

> <Gold.Chemscore.Hbonds>
donor molecule, donor type, donor heavy atom, donor atom, acceptor molecule, acceptor atom, score
      P1  H  7997  8010       L1     7  0.30

> <Gold.Chemscore.Hbond.Weighted>
-1.9691

> <Gold.Chemscore.Metal.Weighted>
-0.0000

> <Gold.Chemscore.Lipo.Weighted>
-12.6767

> <Gold.Chemscore.Internal_Hbond.Weighted>
0.0000

> <Gold.Chemscore.DEClash.Weighted>
0.2212

> <Gold.Chemscore.DEInternal.Weighted>
0.1009

> <Gold.Chemscore.Rot.Weighted>
3.0946

> <Gold.Chemscore.Internal.Correction.Weighted>
   9.000000E+99

> <Gold.Protein.RotatedTorsions>
[ 6907 6896 6895 6894 ] final   10.99 input  -60.11 | X-H torsion
[ 7974 7965 7964 7962 ] final   91.88 input  175.53 | X-H torsion
[ 8008 7997 7996 7995 ] final   49.43 input   59.86 | X-H torsion
[ 10167 10162 10161 10158 ] final   81.34 input  -65.29 | X-H torsion
[ 10718 10713 10712 10709 ] final   22.78 input   66.30 | X-H torsion
[ 10763 10752 10751 10750 ] final  -11.14 input  -60.55 | X-H torsion
[ 11005 11000 10999 10996 ] final -131.34 input  -57.11 | X-H torsion

> <Gold.Protein.ActiveResidues>
 VAL166  LYS551  ARG553  GLY616  TRP617  ASP618  TYR619  PRO620  LYS621  CYS622 
 ASP623  PHE694  ASN695  SER759  ASP760  ASP761  ALA762  ILE779  LEU786  VAL792 
 PHE793  MET794  SER795  GLU796  ALA797  LYS798  CYS799  TRP800  GLU811  SER814 

> <Gold.Protein.RotatedAtoms>
  151.7472  135.0841  160.0324 H   0  0  0  0  0  0  0  0  0  0  0  0  # atno 6907 bound_to 6896
  152.3441  133.6096  159.5905 H   0  0  0  0  0  0  0  0  0  0  0  0  # atno 6908 bound_to 6896
  150.7497  133.9593  159.3552 H   0  0  0  0  0  0  0  0  0  0  0  0  # atno 6909 bound_to 6896
  145.4998  139.2276  143.2783 H   0  0  0  0  0  0  0  0  0  0  0  0  # atno 7974 bound_to 7965
  155.4021  140.3438  155.4257 H   0  0  0  0  0  0  0  0  0  0  0  0  # atno 8008 bound_to 7997
  156.1498  140.1567  156.8821 H   0  0  0  0  0  0  0  0  0  0  0  0  # atno 8009 bound_to 7997
  154.5042  140.0806  156.7841 H   0  0  0  0  0  0  0  0  0  0  0  0  # atno 8010 bound_to 7997
  139.9403  144.6094  150.8258 H   0  0  0  0  0  0  0  0  0  0  0  0  # atno 10167 bound_to 10162
  157.1570  130.6700  149.6031 H   0  0  0  0  0  0  0  0  0  0  0  0  # atno 10718 bound_to 10713
  153.4795  135.7017  153.5946 H   0  0  0  0  0  0  0  0  0  0  0  0  # atno 10763 bound_to 10752
  153.4166  135.3835  155.2084 H   0  0  0  0  0  0  0  0  0  0  0  0  # atno 10764 bound_to 10752
  154.8722  135.3917  154.4242 H   0  0  0  0  0  0  0  0  0  0  0  0  # atno 10765 bound_to 10752
  140.9267  134.1373  157.4269 H   0  0  0  0  0  0  0  0  0  0  0  0  # atno 11005 bound_to 11000
  146.2233  140.5798  142.9007 LP  0  0  0  0  0  0  0  0  0  0  0  0  # atno 17320 bound_to 7965
  144.7786  140.5793  143.6621 LP  0  0  0  0  0  0  0  0  0  0  0  0  # atno 17321 bound_to 7965
  140.7613  143.3170  151.2709 LP  0  0  0  0  0  0  0  0  0  0  0  0  # atno 17342 bound_to 10162
  139.6710  144.0020  152.2753 LP  0  0  0  0  0  0  0  0  0  0  0  0  # atno 17343 bound_to 10162
  155.9760  130.4725  150.6500 LP  0  0  0  0  0  0  0  0  0  0  0  0  # atno 17370 bound_to 10713
  157.4168  131.0831  151.1169 LP  0  0  0  0  0  0  0  0  0  0  0  0  # atno 17371 bound_to 10713
  139.8787  134.9991  156.5934 LP  0  0  0  0  0  0  0  0  0  0  0  0  # atno 17394 bound_to 11000
  140.7917  133.8577  155.8651 LP  0  0  0  0  0  0  0  0  0  0  0  0  # atno 17395 bound_to 11000

$$$$
