AV-unprocessed.smi:3248|AV-procd|sdf|12415|dock5
  -GOLD-   2272018293D 1   1.00000     0.00000
 Structure written by MMmdl.
 38 39  0  0  0  0  0  0  0  0  1 V2000
  150.7102  138.3202  157.0115 C   0  0  0  0  0  0  0  0  0  0  0  0
  149.9051  139.5818  156.6659 C   0  0  2  0  0  0  0  0  0  0  0  0
  150.1695  140.0446  155.2203 C   0  0  0  0  0  0  0  0  0  0  0  0
  149.0002  140.6613  154.6175 N   0  0  0  0  0  0  0  0  0  0  0  0
  148.6364  141.9914  154.6209 C   0  0  0  0  0  0  0  0  0  0  0  0
  147.4695  142.0949  153.9192 C   0  0  0  0  0  0  0  0  0  0  0  0
  147.1949  140.7570  153.5199 C   0  0  0  0  0  0  0  0  0  0  0  0
  148.1125  139.9008  153.9399 N   0  0  0  0  0  0  0  0  0  0  0  0
  150.2376  140.6532  157.6020 N   0  0  0  0  0  0  0  0  0  0  0  0
  151.4769  141.0241  157.9646 C   0  0  0  0  0  0  0  0  0  0  0  0
  152.4860  140.4703  157.5285 O   0  0  0  0  0  0  0  0  0  0  0  0
  151.4875  141.9639  158.9418 N   0  0  0  0  0  0  0  0  0  0  0  0
  150.6080  143.1407  158.8741 C   0  0  0  0  0  0  0  0  0  0  0  0
  151.4026  144.3042  158.2487 C   0  0  0  0  0  0  0  0  0  0  0  0
  152.5711  144.5668  159.0227 O   0  0  0  0  0  0  0  0  0  0  0  0
  153.4266  143.4338  159.1610 C   0  0  0  0  0  0  0  0  0  0  0  0
  152.6391  142.2779  159.8100 C   0  0  2  0  0  0  0  0  0  0  0  0
  153.5374  141.0804  160.1851 C   0  0  0  0  0  0  0  0  0  0  0  0
  150.4672  137.5023  156.3328 H   0  0  0  0  0  0  0  0  0  0  0  0
  150.4947  137.9799  158.0250 H   0  0  0  0  0  0  0  0  0  0  0  0
  151.7831  138.5027  156.9419 H   0  0  0  0  0  0  0  0  0  0  0  0
  148.8438  139.3406  156.7512 H   0  0  0  0  0  0  0  0  0  0  0  0
  151.0042  140.7472  155.1859 H   0  0  0  0  0  0  0  0  0  0  0  0
  150.4548  139.1933  154.6011 H   0  0  0  0  0  0  0  0  0  0  0  0
  149.2334  142.7444  155.1142 H   0  0  0  0  0  0  0  0  0  0  0  0
  146.8993  142.9903  153.7200 H   0  0  0  0  0  0  0  0  0  0  0  0
  146.3622  140.3851  152.9415 H   0  0  0  0  0  0  0  0  0  0  0  0
  149.4608  141.1237  158.0435 H   0  0  0  0  0  0  0  0  0  0  0  0
  149.7005  142.9688  158.2942 H   0  0  0  0  0  0  0  0  0  0  0  0
  150.2706  143.4085  159.8763 H   0  0  0  0  0  0  0  0  0  0  0  0
  151.6840  144.0744  157.2196 H   0  0  0  0  0  0  0  0  0  0  0  0
  150.7903  145.2056  158.2183 H   0  0  0  0  0  0  0  0  0  0  0  0
  153.8269  143.1430  158.1885 H   0  0  0  0  0  0  0  0  0  0  0  0
  154.2748  143.7151  159.7857 H   0  0  0  0  0  0  0  0  0  0  0  0
  152.2347  142.6409  160.7567 H   0  0  0  0  0  0  0  0  0  0  0  0
  154.2251  141.3578  160.9844 H   0  0  0  0  0  0  0  0  0  0  0  0
  154.1498  140.7389  159.3511 H   0  0  0  0  0  0  0  0  0  0  0  0
  152.9451  140.2380  160.5439 H   0  0  0  0  0  0  0  0  0  0  0  0
  1  2  1  0  0  0  0
  1 19  1  0  0  0  0
  1 20  1  0  0  0  0
  1 21  1  0  0  0  0
  2  3  1  0  0  0  0
  2  9  1  0  0  0  0
  2 22  1  0  0  0  0
  3  4  1  0  0  0  0
  3 23  1  0  0  0  0
  3 24  1  0  0  0  0
  4  8  1  0  0  0  0
  4  5  1  0  0  0  0
  5  6  2  0  0  0  0
  5 25  1  0  0  0  0
  6  7  1  0  0  0  0
  6 26  1  0  0  0  0
  7  8  2  0  0  0  0
  7 27  1  0  0  0  0
  9 10  1  0  0  0  0
  9 28  1  0  0  0  0
 10 11  2  0  0  0  0
 10 12  1  0  0  0  0
 12 17  1  0  0  0  0
 12 13  1  0  0  0  0
 13 14  1  0  0  0  0
 13 29  1  0  0  0  0
 13 30  1  0  0  0  0
 14 15  1  0  0  0  0
 14 31  1  0  0  0  0
 14 32  1  0  0  0  0
 15 16  1  0  0  0  0
 16 17  1  0  0  0  0
 16 33  1  0  0  0  0
 16 34  1  0  0  0  0
 17 18  1  0  0  0  0
 17 35  1  0  0  0  0
 18 36  1  0  0  0  0
 18 37  1  0  0  0  0
 18 38  1  0  0  0  0
M  END
> <s_m_source_file>
AV-unprocessed.smi

> <i_m_source_file_index>
3248

> <i_lp_mmshare_version>
43012

> <i_f3d_flags>
0

> <s_epik_input>
bjFbY0hdW2NIXVtjSF1uMVtDSDJdW0NAQEhdKFtDSDNdKVtOSF1DKD1PKU4yW0NIMl1bQ0gyXU9bQ0gyXVtDQEhdMltDSDNd

> <s_epik_cmdline>
J2VwaWtfcHl0aG9uJywgJy1waCcsICc3LjAnLCAnLXRuJywgJzgnLCAnLW1hJywgJzIwMCcsICctbWV0YWxfYmluZGluZycsICctaW1hZScsICc8aW5maWxlLm1hZT4nLCAnLW9tYWUnLCAnPG91dGZpbGUubWFlPic=

> <r_lp_tautomer_probability>
1

> <r_epik_Ionization_Penalty>
4.45233e-05

> <r_epik_Ionization_Penalty_Charging>
0

> <r_epik_Ionization_Penalty_Neutral>
4.45233e-05

> <r_epik_State_Penalty>
-0

> <r_epik_Charging_Adjusted_Penalty>
0

> <i_epik_Tot_Q>
0

> <i_epik_Tot_abs_Q>
0

> <r_epik_Metal_State_Penalty>
-0

> <b_epik_Metal_Only>
0

> <s_lp_Force_Field>
OPLS_2005

> <r_lp_Energy>
31.9687

> <b_lp_Chiralities_Consistent>
1

> <s_lp_Variant>
AV-unprocessed.smi:3248-3

> <Gold.Version>
5.8.1

> <Gold.Id.Protein>
6NUR|6NUR_protein|mol2

> <Gold.PLP.Fitness>
39.4966

> <Gold.PLP.PLP>
-33.4237

> <Gold.PLP.part.hbond>
-1.0000

> <Gold.PLP.part.metal>
0.0000

> <Gold.PLP.part.buried>
-2.0857

> <Gold.PLP.part.nonpolar>
-29.6516

> <Gold.PLP.part.repulsive>
0.2230

> <Gold.PLP.ligand.clash>
0.0000

> <Gold.PLP.ligand.torsion>
1.3595

> <Gold.PLP.Chemscore.Hbond>
0.8424

> <Gold.PLP.Chemscore.CHOScore>
1.9268

> <Gold.PLP.Chemscore.Metal>
0.0000

> <Gold.Chemscore.Hbonds>
donor molecule, donor type, donor heavy atom, donor atom, acceptor molecule, acceptor atom, score
      P1  H  7997  8010       L1    11  0.67
      L1  C     5    25       P1  8028  1.00
      L1  C     7    27       P1 10175  0.54

> <Gold.PLP.Chemscore.Internal.Correction>
0.4842

> <Gold.Rescore>
     Score         DG    S(hbond)    S(metal)    S(lipo)     H(rot)  DE(clash)    DE(int)     intcor
     11.09     -15.07       0.82        0.00      89.54       1.42       0.15       3.83       ----

> <Gold.Chemscore.Fitness>
11.0886

> <Gold.Chemscore.DG>
-15.0721

> <Gold.Chemscore.ZeroCoef>
-5.4800

> <Gold.Chemscore.Hbond>
0.8231

> <Gold.Chemscore.Metal>
0.0000

> <Gold.Chemscore.Lipo>
89.5363

> <Gold.Chemscore.Internal_Hbond>
0.0000

> <Gold.Chemscore.DEClash>
0.1513

> <Gold.Chemscore.DEInternal>
3.8322

> <Gold.Chemscore.Rot>
1.4191

> <Gold.Chemscore.Internal.Correction>
   9.000000E+99

> <Gold.Chemscore.Hbonds>
donor molecule, donor type, donor heavy atom, donor atom, acceptor molecule, acceptor atom, score
      P1  H  7997  8010       L1    11  0.65

> <Gold.Chemscore.Hbond.Weighted>
-2.7493

> <Gold.Chemscore.Metal.Weighted>
-0.0000

> <Gold.Chemscore.Lipo.Weighted>
-10.4757

> <Gold.Chemscore.Internal_Hbond.Weighted>
0.0000

> <Gold.Chemscore.DEClash.Weighted>
0.1513

> <Gold.Chemscore.DEInternal.Weighted>
3.8322

> <Gold.Chemscore.Rot.Weighted>
3.6330

> <Gold.Chemscore.Internal.Correction.Weighted>
   9.000000E+99

> <Gold.Protein.RotatedTorsions>
[ 6907 6896 6895 6894 ] final   16.57 input  -60.11 | X-H torsion
[ 7974 7965 7964 7962 ] final -133.72 input  175.53 | X-H torsion
[ 8008 7997 7996 7995 ] final   62.33 input   59.86 | X-H torsion
[ 10167 10162 10161 10158 ] final  -29.35 input  -65.29 | X-H torsion
[ 10718 10713 10712 10709 ] final  117.01 input   66.30 | X-H torsion
[ 10763 10752 10751 10750 ] final -136.14 input  -60.55 | X-H torsion
[ 11005 11000 10999 10996 ] final  154.58 input  -57.11 | X-H torsion

> <Gold.Protein.ActiveResidues>
 VAL166  LYS551  ARG553  GLY616  TRP617  ASP618  TYR619  PRO620  LYS621  CYS622 
 ASP623  PHE694  ASN695  SER759  ASP760  ASP761  ALA762  ILE779  LEU786  VAL792 
 PHE793  MET794  SER795  GLU796  ALA797  LYS798  CYS799  TRP800  GLU811  SER814 

> <Gold.Protein.RotatedAtoms>
  151.8360  135.0606  160.0442 H   0  0  0  0  0  0  0  0  0  0  0  0  # atno 6907 bound_to 6896
  152.2845  133.5497  159.5527 H   0  0  0  0  0  0  0  0  0  0  0  0  # atno 6908 bound_to 6896
  150.7203  134.0433  159.3815 H   0  0  0  0  0  0  0  0  0  0  0  0  # atno 6909 bound_to 6896
  144.9167  140.6964  143.4991 H   0  0  0  0  0  0  0  0  0  0  0  0  # atno 7974 bound_to 7965
  155.6127  140.3495  155.4627 H   0  0  0  0  0  0  0  0  0  0  0  0  # atno 8008 bound_to 7997
  156.0142  140.1239  157.0447 H   0  0  0  0  0  0  0  0  0  0  0  0  # atno 8009 bound_to 7997
  154.4291  140.1075  156.5858 H   0  0  0  0  0  0  0  0  0  0  0  0  # atno 8010 bound_to 7997
  140.7261  143.3935  151.1387 H   0  0  0  0  0  0  0  0  0  0  0  0  # atno 10167 bound_to 10162
  157.6124  131.1032  150.7554 H   0  0  0  0  0  0  0  0  0  0  0  0  # atno 10718 bound_to 10713
  154.8689  135.3681  154.5013 H   0  0  0  0  0  0  0  0  0  0  0  0  # atno 10763 bound_to 10752
  153.5653  135.7022  153.5533 H   0  0  0  0  0  0  0  0  0  0  0  0  # atno 10764 bound_to 10752
  153.3590  135.4051  155.1667 H   0  0  0  0  0  0  0  0  0  0  0  0  # atno 10765 bound_to 10752
  140.1502  134.8680  157.2444 H   0  0  0  0  0  0  0  0  0  0  0  0  # atno 11005 bound_to 11000
  145.3363  139.1745  143.4510 LP  0  0  0  0  0  0  0  0  0  0  0  0  # atno 17320 bound_to 7965
  146.3185  140.3399  142.8647 LP  0  0  0  0  0  0  0  0  0  0  0  0  # atno 17321 bound_to 7965
  139.7544  143.8729  152.3085 LP  0  0  0  0  0  0  0  0  0  0  0  0  # atno 17342 bound_to 10162
  139.8594  144.7125  150.9118 LP  0  0  0  0  0  0  0  0  0  0  0  0  # atno 17343 bound_to 10162
  156.7929  130.4896  149.5382 LP  0  0  0  0  0  0  0  0  0  0  0  0  # atno 17370 bound_to 10713
  156.1232  130.6125  151.0224 LP  0  0  0  0  0  0  0  0  0  0  0  0  # atno 17371 bound_to 10713
  140.2614  134.3566  155.7405 LP  0  0  0  0  0  0  0  0  0  0  0  0  # atno 17394 bound_to 11000
  141.2198  133.7371  156.9086 LP  0  0  0  0  0  0  0  0  0  0  0  0  # atno 17395 bound_to 11000

$$$$
