AV-unprocessed.smi:1701|AV-procd|sdf|6831|dock9
  -GOLD-   22720 8 13D 1   1.00000     0.00000
 Structure written by MMmdl.
 54 56  0  0  0  0  0  0  0  0  2 V2000
  152.7627  140.6395  158.8104 C   0  0  0  0  0  0  0  0  0  0  0  0
  151.3350  141.0395  158.4066 C   0  0  0  0  0  0  0  0  0  0  0  0
  151.1862  141.2472  156.9666 N   0  0  0  0  0  0  0  0  0  0  0  0
  150.9635  142.6217  156.5117 C   0  0  0  0  0  0  0  0  0  0  0  0
  151.5754  143.6746  157.4498 C   0  0  0  0  0  0  0  0  0  0  0  0
  150.5270  140.1965  156.2906 C   0  0  0  0  0  0  0  0  0  0  0  0
  149.7399  139.2744  157.0172 C   0  0  0  0  0  0  0  0  0  0  0  0
  149.0780  138.2444  156.3236 C   0  0  0  0  0  0  0  0  0  0  0  0
  149.2087  138.1562  154.9239 C   0  0  0  0  0  0  0  0  0  0  0  0
  148.5236  137.0961  154.2680 N   0  0  0  0  0  0  0  0  0  0  0  0
  147.6253  136.2174  154.7559 C   0  0  0  0  0  0  0  0  0  0  0  0
  147.2238  136.1859  155.9158 O   0  0  0  0  0  0  0  0  0  0  0  0
  147.1727  135.3363  153.8462 N   0  0  0  0  0  0  0  0  0  0  0  0
  146.2012  134.2594  154.0399 C   0  0  2  0  0  0  0  0  0  0  0  0
  146.7243  133.0846  154.8906 C   0  0  0  0  0  0  0  0  0  0  0  0
  146.1635  131.8133  154.2217 C   0  0  0  0  0  0  0  0  0  0  0  0
  145.2822  132.2979  153.1423 N   0  3  2  0  0  0  0  0  0  0  0  0
  145.0303  131.3786  152.0111 C   0  0  0  0  0  0  0  0  0  0  0  0
  144.0348  132.0358  151.0335 C   0  0  0  0  0  0  0  0  0  0  0  0
  144.5010  133.4400  150.5965 C   0  0  0  0  0  0  0  0  0  0  0  0
  144.8368  134.3197  151.8162 C   0  0  0  0  0  0  0  0  0  0  0  0
  145.8458  133.5869  152.7147 C   0  0  1  0  0  0  0  0  0  0  0  0
  150.0192  139.1244  154.2826 C   0  0  0  0  0  0  0  0  0  0  0  0
  150.6562  140.1131  154.9445 N   0  0  0  0  0  0  0  0  0  0  0  0
  152.8294  140.4895  159.8881 H   0  0  0  0  0  0  0  0  0  0  0  0
  153.4842  141.4111  158.5402 H   0  0  0  0  0  0  0  0  0  0  0  0
  153.0684  139.7104  158.3288 H   0  0  0  0  0  0  0  0  0  0  0  0
  150.6415  140.2567  158.7152 H   0  0  0  0  0  0  0  0  0  0  0  0
  151.0331  141.9301  158.9569 H   0  0  0  0  0  0  0  0  0  0  0  0
  151.3544  142.7464  155.5012 H   0  0  0  0  0  0  0  0  0  0  0  0
  149.8899  142.7990  156.4427 H   0  0  0  0  0  0  0  0  0  0  0  0
  151.3440  144.6801  157.0986 H   0  0  0  0  0  0  0  0  0  0  0  0
  152.6604  143.5925  157.5096 H   0  0  0  0  0  0  0  0  0  0  0  0
  151.1767  143.5780  158.4599 H   0  0  0  0  0  0  0  0  0  0  0  0
  149.6480  139.3418  158.0913 H   0  0  0  0  0  0  0  0  0  0  0  0
  148.4762  137.5295  156.8657 H   0  0  0  0  0  0  0  0  0  0  0  0
  148.7575  136.9802  153.2931 H   0  0  0  0  0  0  0  0  0  0  0  0
  147.5347  135.4392  152.9089 H   0  0  0  0  0  0  0  0  0  0  0  0
  145.2846  134.6512  154.4862 H   0  0  0  0  0  0  0  0  0  0  0  0
  147.8148  133.0489  154.8956 H   0  0  0  0  0  0  0  0  0  0  0  0
  146.3955  133.1752  155.9264 H   0  0  0  0  0  0  0  0  0  0  0  0
  146.9789  131.2221  153.8016 H   0  0  0  0  0  0  0  0  0  0  0  0
  145.6118  131.1833  154.9197 H   0  0  0  0  0  0  0  0  0  0  0  0
  145.9680  131.1469  151.5037 H   0  0  0  0  0  0  0  0  0  0  0  0
  144.6252  130.4383  152.3865 H   0  0  0  0  0  0  0  0  0  0  0  0
  143.8951  131.3997  150.1590 H   0  0  0  0  0  0  0  0  0  0  0  0
  143.0585  132.1158  151.5137 H   0  0  0  0  0  0  0  0  0  0  0  0
  145.3838  133.3468  149.9628 H   0  0  0  0  0  0  0  0  0  0  0  0
  143.7331  133.9188  149.9882 H   0  0  0  0  0  0  0  0  0  0  0  0
  145.2460  135.2760  151.4886 H   0  0  0  0  0  0  0  0  0  0  0  0
  143.9266  134.5424  152.3750 H   0  0  0  0  0  0  0  0  0  0  0  0
  146.7623  133.3943  152.1512 H   0  0  0  0  0  0  0  0  0  0  0  0
  150.1859  139.1319  153.2183 H   0  0  0  0  0  0  0  0  0  0  0  0
  144.3899  132.5030  153.5688 H   0  0  0  0  0  0  0  0  0  0  0  0
  1  2  1  0  0  0  0
  1 25  1  0  0  0  0
  1 26  1  0  0  0  0
  1 27  1  0  0  0  0
  2  3  1  0  0  0  0
  2 28  1  0  0  0  0
  2 29  1  0  0  0  0
  3  4  1  0  0  0  0
  3  6  1  0  0  0  0
  4  5  1  0  0  0  0
  4 30  1  0  0  0  0
  4 31  1  0  0  0  0
  5 32  1  0  0  0  0
  5 33  1  0  0  0  0
  5 34  1  0  0  0  0
  6 24  1  0  0  0  0
  6  7  2  0  0  0  0
  7  8  1  0  0  0  0
  7 35  1  0  0  0  0
  8  9  2  0  0  0  0
  8 36  1  0  0  0  0
  9 10  1  0  0  0  0
  9 23  1  0  0  0  0
 10 11  1  0  0  0  0
 10 37  1  0  0  0  0
 11 12  2  0  0  0  0
 11 13  1  0  0  0  0
 13 14  1  0  0  0  0
 13 38  1  0  0  0  0
 14 22  1  0  0  0  0
 14 15  1  0  0  0  0
 14 39  1  0  0  0  0
 15 16  1  0  0  0  0
 15 40  1  0  0  0  0
 15 41  1  0  0  0  0
 16 17  1  0  0  0  0
 16 42  1  0  0  0  0
 16 43  1  0  0  0  0
 17 22  1  0  0  0  0
 17 18  1  0  0  0  0
 17 54  1  0  0  0  0
 18 19  1  0  0  0  0
 18 44  1  0  0  0  0
 18 45  1  0  0  0  0
 19 20  1  0  0  0  0
 19 46  1  0  0  0  0
 19 47  1  0  0  0  0
 20 21  1  0  0  0  0
 20 48  1  0  0  0  0
 20 49  1  0  0  0  0
 21 22  1  0  0  0  0
 21 50  1  0  0  0  0
 21 51  1  0  0  0  0
 22 52  1  0  0  0  0
 23 24  2  0  0  0  0
 23 53  1  0  0  0  0
M  CHG  1  17   1
M  END
> <s_m_source_file>
AV-unprocessed.smi

> <i_m_source_file_index>
1701

> <i_lp_mmshare_version>
43012

> <i_f3d_flags>
0

> <s_epik_input>
W0NIM11bQ0gyXU4oW0NIMl1bQ0gzXSljMVtjSF1bY0hdYyhbY0hdbjEpW05IXUMoPU8pW05IXVtDQEhdKFtDSDJdW0NIMl0yKVtDQEBIXShOMjMpW0NIMl1bQ0gyXVtDSDJdW0NIMl0z

> <s_epik_cmdline>
J2VwaWtfcHl0aG9uJywgJy1waCcsICc3LjAnLCAnLXRuJywgJzgnLCAnLW1hJywgJzIwMCcsICctbWV0YWxfYmluZGluZycsICctaW1hZScsICc8aW5maWxlLm1hZT4nLCAnLW9tYWUnLCAnPG91dGZpbGUubWFlPic=

> <r_lp_tautomer_probability>
1

> <r_epik_Ionization_Penalty>
0.56662

> <r_epik_Ionization_Penalty_Charging>
0.000974069

> <r_epik_Ionization_Penalty_Neutral>
0.565646

> <r_epik_State_Penalty>
2.0247

> <r_epik_Charging_Adjusted_Penalty>
2.02568

> <i_epik_Tot_Q>
1

> <i_epik_Tot_abs_Q>
1

> <r_epik_Metal_State_Penalty>
1.51504

> <b_epik_Metal_Only>
0

> <s_lp_Force_Field>
OPLS_2005

> <r_lp_Energy>
54.426

> <b_lp_Chiralities_Consistent>
1

> <s_lp_Variant>
AV-unprocessed.smi:1701-11

> <Gold.Version>
5.8.1

> <Gold.Id.Protein>
6NUR|6NUR_protein|mol2

> <Gold.PLP.Fitness>
45.9094

> <Gold.PLP.PLP>
-32.6479

> <Gold.PLP.part.hbond>
-3.6478

> <Gold.PLP.part.metal>
0.0000

> <Gold.PLP.part.buried>
-4.5009

> <Gold.PLP.part.nonpolar>
-24.9374

> <Gold.PLP.part.repulsive>
0.0869

> <Gold.PLP.ligand.clash>
0.0000

> <Gold.PLP.ligand.torsion>
1.0070

> <Gold.PLP.Chemscore.Hbond>
3.8164

> <Gold.PLP.Chemscore.CHOScore>
1.0000

> <Gold.PLP.Chemscore.Metal>
0.0000

> <Gold.Chemscore.Hbonds>
donor molecule, donor type, donor heavy atom, donor atom, acceptor molecule, acceptor atom, score
      L1  H    10    37       P1  7948  1.00
      L1  H    13    38       P1  7948  0.90
      L1  H    17    54       P1 10957  0.97
      P1  H  7989  7998       L1    24  0.95
      L1  C    23    53       P1  7957  1.00

> <Gold.PLP.Chemscore.Internal.Correction>
0.8263

> <Gold.Rescore>
     Score         DG    S(hbond)    S(metal)    S(lipo)     H(rot)  DE(clash)    DE(int)     intcor
     17.33     -19.59       1.94        0.00      93.21       1.28       0.05       2.21       ----

> <Gold.Chemscore.Fitness>
17.3258

> <Gold.Chemscore.DG>
-19.5863

> <Gold.Chemscore.ZeroCoef>
-5.4800

> <Gold.Chemscore.Hbond>
1.9423

> <Gold.Chemscore.Metal>
0.0000

> <Gold.Chemscore.Lipo>
93.2087

> <Gold.Chemscore.Internal_Hbond>
0.0000

> <Gold.Chemscore.DEClash>
0.0462

> <Gold.Chemscore.DEInternal>
2.2143

> <Gold.Chemscore.Rot>
1.2838

> <Gold.Chemscore.Internal.Correction>
   9.000000E+99

> <Gold.Chemscore.Hbonds>
donor molecule, donor type, donor heavy atom, donor atom, acceptor molecule, acceptor atom, score
      L1  H    10    37       P1  7948  0.99
      L1  H    13    38       P1  7948  0.88
      L1  H    17    54       P1 10957  0.14
      P1  H  7989  7998       L1    24  0.21

> <Gold.Chemscore.Hbond.Weighted>
-6.4874

> <Gold.Chemscore.Metal.Weighted>
-0.0000

> <Gold.Chemscore.Lipo.Weighted>
-10.9054

> <Gold.Chemscore.Internal_Hbond.Weighted>
0.0000

> <Gold.Chemscore.DEClash.Weighted>
0.0462

> <Gold.Chemscore.DEInternal.Weighted>
2.2143

> <Gold.Chemscore.Rot.Weighted>
3.2865

> <Gold.Chemscore.Internal.Correction.Weighted>
   9.000000E+99

> <Gold.Protein.RotatedTorsions>
[ 6907 6896 6895 6894 ] final   78.94 input  -60.11 | X-H torsion
[ 7974 7965 7964 7962 ] final -109.41 input  175.53 | X-H torsion
[ 8008 7997 7996 7995 ] final   33.95 input   59.86 | X-H torsion
[ 10167 10162 10161 10158 ] final -107.90 input  -65.29 | X-H torsion
[ 10718 10713 10712 10709 ] final   11.25 input   66.30 | X-H torsion
[ 10763 10752 10751 10750 ] final   30.06 input  -60.55 | X-H torsion
[ 11005 11000 10999 10996 ] final  104.06 input  -57.11 | X-H torsion

> <Gold.Protein.ActiveResidues>
 VAL166  LYS551  ARG553  GLY616  TRP617  ASP618  TYR619  PRO620  LYS621  CYS622 
 ASP623  PHE694  ASN695  SER759  ASP760  ASP761  ALA762  ILE779  LEU786  VAL792 
 PHE793  MET794  SER795  GLU796  ALA797  LYS798  CYS799  TRP800  GLU811  SER814 

> <Gold.Protein.RotatedAtoms>
  152.5179  134.3587  159.9276 H   0  0  0  0  0  0  0  0  0  0  0  0  # atno 6907 bound_to 6896
  151.3539  133.3908  159.2690 H   0  0  0  0  0  0  0  0  0  0  0  0  # atno 6908 bound_to 6896
  150.9705  134.9097  159.7843 H   0  0  0  0  0  0  0  0  0  0  0  0  # atno 6909 bound_to 6896
  145.1808  140.8970  143.3481 H   0  0  0  0  0  0  0  0  0  0  0  0  # atno 7974 bound_to 7965
  155.1469  140.3271  155.4439 H   0  0  0  0  0  0  0  0  0  0  0  0  # atno 8008 bound_to 7997
  156.2587  140.1984  156.6532 H   0  0  0  0  0  0  0  0  0  0  0  0  # atno 8009 bound_to 7997
  154.6501  140.0559  156.9932 H   0  0  0  0  0  0  0  0  0  0  0  0  # atno 8010 bound_to 7997
  140.1719  143.4035  152.1347 H   0  0  0  0  0  0  0  0  0  0  0  0  # atno 10167 bound_to 10162
  156.9928  130.6049  149.5688 H   0  0  0  0  0  0  0  0  0  0  0  0  # atno 10718 bound_to 10713
  153.0393  135.6473  154.0987 H   0  0  0  0  0  0  0  0  0  0  0  0  # atno 10763 bound_to 10752
  154.0696  135.2881  155.3312 H   0  0  0  0  0  0  0  0  0  0  0  0  # atno 10764 bound_to 10752
  154.6603  135.5394  153.8074 H   0  0  0  0  0  0  0  0  0  0  0  0  # atno 10765 bound_to 10752
  139.8788  134.9286  156.5304 H   0  0  0  0  0  0  0  0  0  0  0  0  # atno 11005 bound_to 11000
  145.0138  139.3486  143.6107 LP  0  0  0  0  0  0  0  0  0  0  0  0  # atno 17320 bound_to 7965
  146.3453  139.9411  142.8741 LP  0  0  0  0  0  0  0  0  0  0  0  0  # atno 17321 bound_to 7965
  139.5334  144.7184  151.4977 LP  0  0  0  0  0  0  0  0  0  0  0  0  # atno 17342 bound_to 10162
  140.6576  143.8566  150.6852 LP  0  0  0  0  0  0  0  0  0  0  0  0  # atno 17343 bound_to 10162
  156.0200  130.5295  150.8249 LP  0  0  0  0  0  0  0  0  0  0  0  0  # atno 17370 bound_to 10713
  157.5446  131.0942  150.9780 LP  0  0  0  0  0  0  0  0  0  0  0  0  # atno 17371 bound_to 10713
  140.8385  133.8224  155.9052 LP  0  0  0  0  0  0  0  0  0  0  0  0  # atno 17394 bound_to 11000
  140.9260  134.2081  157.4895 LP  0  0  0  0  0  0  0  0  0  0  0  0  # atno 17395 bound_to 11000

$$$$
