AV-unprocessed.smi:2278|AV-procd|sdf|9179|dock4
  -GOLD-   2272012393D 1   1.00000     0.00000
 Structure written by MMmdl.
 46 47  0  0  0  0  0  0  0  0  2 V2000
  152.9331  143.4465  162.5387 C   0  0  0  0  0  0  0  0  0  0  0  0
  152.6280  142.9399  161.1403 C   0  0  0  0  0  0  0  0  0  0  0  0
  152.8745  141.5813  160.9227 N   0  0  0  0  0  0  0  0  0  0  0  0
  152.6380  141.0609  159.7634 C   0  0  0  0  0  0  0  0  0  0  0  0
  152.1302  141.8252  158.6993 N   0  0  0  0  0  0  0  0  0  0  0  0
  151.8910  141.1004  157.4382 C   0  0  0  0  0  0  0  0  0  0  0  0
  150.3873  140.9336  157.1207 C   0  0  2  0  0  0  0  0  0  0  0  0
  150.0475  139.5814  157.3532 O   0  0  0  0  0  0  0  0  0  0  0  0
  150.0198  141.2843  155.6621 C   0  0  0  0  0  0  0  0  0  0  0  0
  148.6924  141.9403  155.5478 N   0  3  2  0  0  0  0  0  0  0  0  0
  147.7428  141.4713  156.5896 C   0  0  0  0  0  0  0  0  0  0  0  0
  146.4258  142.2637  156.5387 C   0  0  0  0  0  0  0  0  0  0  0  0
  145.7763  142.1807  155.1472 C   0  0  1  0  0  0  0  0  0  0  0  0
  144.4772  142.9955  155.0766 C   0  0  0  0  0  0  0  0  0  0  0  0
  146.7925  142.6358  154.0863 C   0  0  0  0  0  0  0  0  0  0  0  0
  148.1019  141.8357  154.1868 C   0  0  0  0  0  0  0  0  0  0  0  0
  151.8728  143.1600  158.8237 C   0  0  0  0  0  0  0  0  0  0  0  0
  151.4286  143.8239  157.8851 O   0  0  0  0  0  0  0  0  0  0  0  0
  152.1437  143.7378  160.1500 C   0  0  0  0  0  0  0  0  0  0  0  0
  151.8499  145.2220  160.3306 C   0  0  0  0  0  0  0  0  0  0  0  0
  153.6763  144.2435  162.5035 H   0  0  0  0  0  0  0  0  0  0  0  0
  153.3275  142.6512  163.1726 H   0  0  0  0  0  0  0  0  0  0  0  0
  152.0291  143.8327  163.0103 H   0  0  0  0  0  0  0  0  0  0  0  0
  152.8113  140.0063  159.5416 H   0  0  0  0  0  0  0  0  0  0  0  0
  152.3947  141.5851  156.5999 H   0  0  0  0  0  0  0  0  0  0  0  0
  152.3606  140.1162  157.4993 H   0  0  0  0  0  0  0  0  0  0  0  0
  149.8113  141.5393  157.8193 H   0  0  0  0  0  0  0  0  0  0  0  0
  149.7088  139.5004  158.2321 H   0  0  0  0  0  0  0  0  0  0  0  0
  150.7654  141.9409  155.2144 H   0  0  0  0  0  0  0  0  0  0  0  0
  150.0337  140.3649  155.0744 H   0  0  0  0  0  0  0  0  0  0  0  0
  147.5485  140.4059  156.4544 H   0  0  0  0  0  0  0  0  0  0  0  0
  148.1905  141.5897  157.5772 H   0  0  0  0  0  0  0  0  0  0  0  0
  145.7391  141.8814  157.2950 H   0  0  0  0  0  0  0  0  0  0  0  0
  146.6188  143.3064  156.7962 H   0  0  0  0  0  0  0  0  0  0  0  0
  145.5244  141.1373  154.9512 H   0  0  0  0  0  0  0  0  0  0  0  0
  144.6604  144.0532  155.2682 H   0  0  0  0  0  0  0  0  0  0  0  0
  143.7536  142.6445  155.8129 H   0  0  0  0  0  0  0  0  0  0  0  0
  144.0132  142.9110  154.0936 H   0  0  0  0  0  0  0  0  0  0  0  0
  146.3678  142.5178  153.0886 H   0  0  0  0  0  0  0  0  0  0  0  0
  147.0056  143.6989  154.2073 H   0  0  0  0  0  0  0  0  0  0  0  0
  148.8001  142.2082  153.4382 H   0  0  0  0  0  0  0  0  0  0  0  0
  147.9175  140.7867  153.9486 H   0  0  0  0  0  0  0  0  0  0  0  0
  150.7967  145.4231  160.1327 H   0  0  0  0  0  0  0  0  0  0  0  0
  152.4445  145.8111  159.6318 H   0  0  0  0  0  0  0  0  0  0  0  0
  152.0688  145.5849  161.3334 H   0  0  0  0  0  0  0  0  0  0  0  0
  148.8483  142.9215  155.7314 H   0  0  0  0  0  0  0  0  0  0  0  0
  1  2  1  0  0  0  0
  1 21  1  0  0  0  0
  1 22  1  0  0  0  0
  1 23  1  0  0  0  0
  2 19  2  0  0  0  0
  2  3  1  0  0  0  0
  3  4  2  0  0  0  0
  4  5  1  0  0  0  0
  4 24  1  0  0  0  0
  5  6  1  0  0  0  0
  5 17  1  0  0  0  0
  6  7  1  0  0  0  0
  6 25  1  0  0  0  0
  6 26  1  0  0  0  0
  7  8  1  0  0  0  0
  7  9  1  0  0  0  0
  7 27  1  0  0  0  0
  8 28  1  0  0  0  0
  9 10  1  0  0  0  0
  9 29  1  0  0  0  0
  9 30  1  0  0  0  0
 10 16  1  0  0  0  0
 10 11  1  0  0  0  0
 10 46  1  0  0  0  0
 11 12  1  0  0  0  0
 11 31  1  0  0  0  0
 11 32  1  0  0  0  0
 12 13  1  0  0  0  0
 12 33  1  0  0  0  0
 12 34  1  0  0  0  0
 13 14  1  0  0  0  0
 13 15  1  0  0  0  0
 13 35  1  0  0  0  0
 14 36  1  0  0  0  0
 14 37  1  0  0  0  0
 14 38  1  0  0  0  0
 15 16  1  0  0  0  0
 15 39  1  0  0  0  0
 15 40  1  0  0  0  0
 16 41  1  0  0  0  0
 16 42  1  0  0  0  0
 17 18  2  0  0  0  0
 17 19  1  0  0  0  0
 19 20  1  0  0  0  0
 20 43  1  0  0  0  0
 20 44  1  0  0  0  0
 20 45  1  0  0  0  0
M  CHG  1  10   1
M  END
> <s_m_source_file>
AV-unprocessed.smi

> <i_m_source_file_index>
2278

> <i_lp_mmshare_version>
43012

> <i_f3d_flags>
0

> <s_epik_input>
W0NIM11jMW5bY0hdbihjKD1PKWMxW0NIM10pW0NIMl1bQ0BIXShbT0hdKVtDSDJdTjJbQ0gyXVtDSDJdW0NIXShbQ0gzXSlbQ0gyXVtDSDJdMg==

> <s_epik_cmdline>
J2VwaWtfcHl0aG9uJywgJy1waCcsICc3LjAnLCAnLXRuJywgJzgnLCAnLW1hJywgJzIwMCcsICctbWV0YWxfYmluZGluZycsICctaW1hZScsICc8aW5maWxlLm1hZT4nLCAnLW9tYWUnLCAnPG91dGZpbGUubWFlPic=

> <r_lp_tautomer_probability>
1

> <r_epik_Ionization_Penalty>
0.00139489

> <r_epik_Ionization_Penalty_Charging>
0.00136819

> <r_epik_Ionization_Penalty_Neutral>
2.66975e-05

> <r_epik_State_Penalty>
0.000910892

> <r_epik_Charging_Adjusted_Penalty>
0.00227908

> <i_epik_Tot_Q>
1

> <i_epik_Tot_abs_Q>
1

> <r_epik_Metal_State_Penalty>
-0

> <b_epik_Metal_Only>
0

> <s_lp_Force_Field>
OPLS_2005

> <r_lp_Energy>
28.1947

> <b_lp_Chiralities_Consistent>
1

> <s_lp_Variant>
AV-unprocessed.smi:2278-1

> <Gold.Version>
5.8.1

> <Gold.Id.Protein>
6NUR|6NUR_protein|mol2

> <Gold.PLP.Fitness>
46.4388

> <Gold.PLP.PLP>
-43.4153

> <Gold.PLP.part.hbond>
-1.0000

> <Gold.PLP.part.metal>
0.0000

> <Gold.PLP.part.buried>
-7.9572

> <Gold.PLP.part.nonpolar>
-34.6781

> <Gold.PLP.part.repulsive>
0.2554

> <Gold.PLP.ligand.clash>
0.0000

> <Gold.PLP.ligand.torsion>
1.5282

> <Gold.PLP.Chemscore.Hbond>
2.0000

> <Gold.PLP.Chemscore.CHOScore>
0.0000

> <Gold.PLP.Chemscore.Metal>
0.0000

> <Gold.Chemscore.Hbonds>
donor molecule, donor type, donor heavy atom, donor atom, acceptor molecule, acceptor atom, score
      L1  H    10    46       P1  8028  2.00

> <Gold.PLP.Chemscore.Internal.Correction>
0.0800

> <Gold.Rescore>
     Score         DG    S(hbond)    S(metal)    S(lipo)     H(rot)  DE(clash)    DE(int)     intcor
     12.73     -14.27       1.00        0.00      94.72       2.20       0.03       1.51       ----

> <Gold.Chemscore.Fitness>
12.7291

> <Gold.Chemscore.DG>
-14.2711

> <Gold.Chemscore.ZeroCoef>
-5.4800

> <Gold.Chemscore.Hbond>
0.9991

> <Gold.Chemscore.Metal>
0.0000

> <Gold.Chemscore.Lipo>
94.7230

> <Gold.Chemscore.Internal_Hbond>
0.0000

> <Gold.Chemscore.DEClash>
0.0309

> <Gold.Chemscore.DEInternal>
1.5110

> <Gold.Chemscore.Rot>
2.1986

> <Gold.Chemscore.Internal.Correction>
   9.000000E+99

> <Gold.Chemscore.Hbonds>
donor molecule, donor type, donor heavy atom, donor atom, acceptor molecule, acceptor atom, score
      L1  H    10    46       P1  8028  1.00

> <Gold.Chemscore.Hbond.Weighted>
-3.3369

> <Gold.Chemscore.Metal.Weighted>
-0.0000

> <Gold.Chemscore.Lipo.Weighted>
-11.0826

> <Gold.Chemscore.Internal_Hbond.Weighted>
0.0000

> <Gold.Chemscore.DEClash.Weighted>
0.0309

> <Gold.Chemscore.DEInternal.Weighted>
1.5110

> <Gold.Chemscore.Rot.Weighted>
5.6285

> <Gold.Chemscore.Internal.Correction.Weighted>
   9.000000E+99

> <Gold.Protein.RotatedTorsions>
[ 6907 6896 6895 6894 ] final  164.03 input  -60.11 | X-H torsion
[ 7974 7965 7964 7962 ] final  155.51 input  175.53 | X-H torsion
[ 8008 7997 7996 7995 ] final  145.42 input   59.86 | X-H torsion
[ 10167 10162 10161 10158 ] final  131.59 input  -65.29 | X-H torsion
[ 10718 10713 10712 10709 ] final  -93.00 input   66.30 | X-H torsion
[ 10763 10752 10751 10750 ] final  -87.49 input  -60.55 | X-H torsion
[ 11005 11000 10999 10996 ] final  -93.75 input  -57.11 | X-H torsion

> <Gold.Protein.ActiveResidues>
 VAL166  LYS551  ARG553  GLY616  TRP617  ASP618  TYR619  PRO620  LYS621  CYS622 
 ASP623  PHE694  ASN695  SER759  ASP760  ASP761  ALA762  ILE779  LEU786  VAL792 
 PHE793  MET794  SER795  GLU796  ALA797  LYS798  CYS799  TRP800  GLU811  SER814 

> <Gold.Protein.RotatedAtoms>
  151.9161  133.3573  159.3880 H   0  0  0  0  0  0  0  0  0  0  0  0  # atno 6907 bound_to 6896
  150.7047  134.4682  159.5422 H   0  0  0  0  0  0  0  0  0  0  0  0  # atno 6908 bound_to 6896
  152.2297  134.8334  160.0526 H   0  0  0  0  0  0  0  0  0  0  0  0  # atno 6909 bound_to 6896
  144.8020  139.7078  143.6178 H   0  0  0  0  0  0  0  0  0  0  0  0  # atno 7974 bound_to 7965
  156.2883  140.2209  156.5213 H   0  0  0  0  0  0  0  0  0  0  0  0  # atno 8008 bound_to 7997
  154.7526  140.0479  157.0928 H   0  0  0  0  0  0  0  0  0  0  0  0  # atno 8009 bound_to 7997
  155.0090  140.3110  155.4840 H   0  0  0  0  0  0  0  0  0  0  0  0  # atno 8010 bound_to 7997
  139.5377  144.6699  151.4729 H   0  0  0  0  0  0  0  0  0  0  0  0  # atno 10167 bound_to 10162
  156.0008  130.5009  150.5710 H   0  0  0  0  0  0  0  0  0  0  0  0  # atno 10718 bound_to 10713
  154.6341  135.5411  153.7714 H   0  0  0  0  0  0  0  0  0  0  0  0  # atno 10763 bound_to 10752
  153.0300  135.6443  154.1257 H   0  0  0  0  0  0  0  0  0  0  0  0  # atno 10764 bound_to 10752
  154.1185  135.2922  155.3194 H   0  0  0  0  0  0  0  0  0  0  0  0  # atno 10765 bound_to 10752
  141.1489  133.7909  157.0203 H   0  0  0  0  0  0  0  0  0  0  0  0  # atno 11005 bound_to 11000
  146.2304  139.5802  142.9559 LP  0  0  0  0  0  0  0  0  0  0  0  0  # atno 17320 bound_to 7965
  145.5529  141.0411  143.2268 LP  0  0  0  0  0  0  0  0  0  0  0  0  # atno 17321 bound_to 7965
  140.6592  143.8534  150.6869 LP  0  0  0  0  0  0  0  0  0  0  0  0  # atno 17342 bound_to 10162
  140.1923  143.4026  152.1854 LP  0  0  0  0  0  0  0  0  0  0  0  0  # atno 17343 bound_to 10162
  157.3605  131.0749  151.1640 LP  0  0  0  0  0  0  0  0  0  0  0  0  # atno 17370 bound_to 10713
  157.2426  130.6576  149.5896 LP  0  0  0  0  0  0  0  0  0  0  0  0  # atno 17371 bound_to 10713
  140.0820  134.9643  157.1639 LP  0  0  0  0  0  0  0  0  0  0  0  0  # atno 17394 bound_to 11000
  140.3564  134.2542  155.7192 LP  0  0  0  0  0  0  0  0  0  0  0  0  # atno 17395 bound_to 11000

$$$$
