AV-unprocessed.smi:1209|AV-procd|sdf|5073|dock4
  -GOLD-   22720 4123D 1   1.00000     0.00000
 Structure written by MMmdl.
 49 51  0  0  0  0  0  0  0  0  2 V2000
  143.8049  144.4445  158.4187 C   0  0  0  0  0  0  0  0  0  0  0  0
  144.9806  143.5289  158.3969 C   0  0  0  0  0  0  0  0  0  0  0  0
  145.8840  143.1957  157.4281 C   0  0  0  0  0  0  0  0  0  0  0  0
  146.7436  142.2664  158.0758 C   0  0  0  0  0  0  0  0  0  0  0  0
  147.9337  141.5452  157.5036 C   0  0  0  0  0  0  0  0  0  0  0  0
  147.5314  140.4738  156.5557 N   0  3  1  0  0  0  0  0  0  0  0  0
  146.5334  140.9379  155.5591 C   0  0  0  0  0  0  0  0  0  0  0  0
  148.7026  139.8064  155.9274 C   0  0  0  0  0  0  0  0  0  0  0  0
  149.3074  140.6343  154.7757 C   0  0  2  0  0  0  0  0  0  0  0  0
  150.0861  139.7776  153.9615 O   0  0  0  0  0  0  0  0  0  0  0  0
  150.1872  141.7871  155.2987 C   0  0  0  0  0  0  0  0  0  0  0  0
  151.0680  141.3693  156.3752 N   0  0  0  0  0  0  0  0  0  0  0  0
  151.8087  140.2454  156.4237 C   0  0  0  0  0  0  0  0  0  0  0  0
  152.5461  140.0485  157.5124 N   0  0  0  0  0  0  0  0  0  0  0  0
  152.2511  141.1774  158.2574 C   0  0  0  0  0  0  0  0  0  0  0  0
  152.7080  141.5798  159.5313 C   0  0  0  0  0  0  0  0  0  0  0  0
  152.2660  142.7904  160.1108 C   0  0  0  0  0  0  0  0  0  0  0  0
  152.7801  143.1816  161.4851 C   0  0  0  0  0  0  0  0  0  0  0  0
  151.3543  143.6215  159.4115 C   0  0  0  0  0  0  0  0  0  0  0  0
  150.8673  144.9274  160.0141 C   0  0  0  0  0  0  0  0  0  0  0  0
  150.8874  143.2345  158.1378 C   0  0  0  0  0  0  0  0  0  0  0  0
  151.3322  142.0258  157.5729 C   0  0  0  0  0  0  0  0  0  0  0  0
  146.3821  142.0558  159.3310 N   0  0  0  0  0  0  0  0  0  0  0  0
  145.2592  142.8621  159.5466 O   0  0  0  0  0  0  0  0  0  0  0  0
  143.5495  144.7747  157.4115 H   0  0  0  0  0  0  0  0  0  0  0  0
  144.0144  145.3283  159.0216 H   0  0  0  0  0  0  0  0  0  0  0  0
  142.9325  143.9451  158.8407 H   0  0  0  0  0  0  0  0  0  0  0  0
  145.9212  143.5597  156.4118 H   0  0  0  0  0  0  0  0  0  0  0  0
  148.6144  142.2386  157.0062 H   0  0  0  0  0  0  0  0  0  0  0  0
  148.4950  141.1098  158.3313 H   0  0  0  0  0  0  0  0  0  0  0  0
  146.9380  141.7480  154.9509 H   0  0  0  0  0  0  0  0  0  0  0  0
  145.6277  141.2998  156.0453 H   0  0  0  0  0  0  0  0  0  0  0  0
  146.2287  140.1351  154.8893 H   0  0  0  0  0  0  0  0  0  0  0  0
  149.4539  139.6062  156.6929 H   0  0  0  0  0  0  0  0  0  0  0  0
  148.4142  138.8330  155.5277 H   0  0  0  0  0  0  0  0  0  0  0  0
  148.5168  141.0588  154.1578 H   0  0  0  0  0  0  0  0  0  0  0  0
  149.6605  139.6845  153.1227 H   0  0  0  0  0  0  0  0  0  0  0  0
  150.8037  142.1847  154.4914 H   0  0  0  0  0  0  0  0  0  0  0  0
  149.5700  142.6137  155.6527 H   0  0  0  0  0  0  0  0  0  0  0  0
  151.8042  139.5295  155.6148 H   0  0  0  0  0  0  0  0  0  0  0  0
  153.4031  140.9469  160.0631 H   0  0  0  0  0  0  0  0  0  0  0  0
  153.3423  144.1140  161.4315 H   0  0  0  0  0  0  0  0  0  0  0  0
  153.4390  142.4165  161.8963 H   0  0  0  0  0  0  0  0  0  0  0  0
  151.9511  143.3160  162.1800 H   0  0  0  0  0  0  0  0  0  0  0  0
  150.2082  145.4609  159.3287 H   0  0  0  0  0  0  0  0  0  0  0  0
  151.7095  145.5808  160.2433 H   0  0  0  0  0  0  0  0  0  0  0  0
  150.3134  144.7394  160.9340 H   0  0  0  0  0  0  0  0  0  0  0  0
  150.1911  143.8578  157.5971 H   0  0  0  0  0  0  0  0  0  0  0  0
  147.0804  139.7649  157.1171 H   0  0  0  0  0  0  0  0  0  0  0  0
  1  2  1  0  0  0  0
  1 25  1  0  0  0  0
  1 26  1  0  0  0  0
  1 27  1  0  0  0  0
  2 24  1  0  0  0  0
  2  3  2  0  0  0  0
  3  4  1  0  0  0  0
  3 28  1  0  0  0  0
  4  5  1  0  0  0  0
  4 23  2  0  0  0  0
  5  6  1  0  0  0  0
  5 29  1  0  0  0  0
  5 30  1  0  0  0  0
  6  7  1  0  0  0  0
  6  8  1  0  0  0  0
  6 49  1  0  0  0  0
  7 31  1  0  0  0  0
  7 32  1  0  0  0  0
  7 33  1  0  0  0  0
  8  9  1  0  0  0  0
  8 34  1  0  0  0  0
  8 35  1  0  0  0  0
  9 10  1  0  0  0  0
  9 11  1  0  0  0  0
  9 36  1  0  0  0  0
 10 37  1  0  0  0  0
 11 12  1  0  0  0  0
 11 38  1  0  0  0  0
 11 39  1  0  0  0  0
 12 22  1  0  0  0  0
 12 13  1  0  0  0  0
 13 14  2  0  0  0  0
 13 40  1  0  0  0  0
 14 15  1  0  0  0  0
 15 22  2  0  0  0  0
 15 16  1  0  0  0  0
 16 17  2  0  0  0  0
 16 41  1  0  0  0  0
 17 18  1  0  0  0  0
 17 19  1  0  0  0  0
 18 42  1  0  0  0  0
 18 43  1  0  0  0  0
 18 44  1  0  0  0  0
 19 20  1  0  0  0  0
 19 21  2  0  0  0  0
 20 45  1  0  0  0  0
 20 46  1  0  0  0  0
 20 47  1  0  0  0  0
 21 22  1  0  0  0  0
 21 48  1  0  0  0  0
 23 24  1  0  0  0  0
M  CHG  1   6   1
M  END
> <s_m_source_file>
AV-unprocessed.smi

> <i_m_source_file_index>
1209

> <i_lp_mmshare_version>
43012

> <i_f3d_flags>
0

> <s_epik_input>
W0NIM11jMVtjSF1jKG5vMSlbQ0gyXU4oW0NIM10pW0NIMl1bQ0BIXShbT0hdKVtDSDJdbihbY0hdbjIpYyhjMjMpW2NIXWMoW0NIM10pYyhbY0hdMylbQ0gzXQ==

> <s_epik_cmdline>
J2VwaWtfcHl0aG9uJywgJy1waCcsICc3LjAnLCAnLXRuJywgJzgnLCAnLW1hJywgJzIwMCcsICctbWV0YWxfYmluZGluZycsICctaW1hZScsICc8aW5maWxlLm1hZT4nLCAnLW9tYWUnLCAnPG91dGZpbGUubWFlPic=

> <r_epik_Ionization_Penalty>
2.05249

> <r_epik_Ionization_Penalty_Charging>
1.96618

> <r_epik_Ionization_Penalty_Neutral>
0.0863156

> <r_epik_State_Penalty>
2.19215

> <r_epik_Charging_Adjusted_Penalty>
4.15833

> <i_epik_Tot_Q>
1

> <i_epik_Tot_abs_Q>
1

> <r_epik_Metal_State_Penalty>
2.17654

> <b_epik_Metal_Only>
0

> <s_lp_Force_Field>
OPLS_2005

> <r_lp_Energy>
10.2768

> <b_lp_Chiralities_Consistent>
1

> <s_lp_Variant>
AV-unprocessed.smi:1209-5

> <Gold.Version>
5.8.1

> <Gold.Id.Protein>
6NUR|6NUR_protein|mol2

> <Gold.PLP.Fitness>
51.2043

> <Gold.PLP.PLP>
-40.5503

> <Gold.PLP.part.hbond>
-4.0000

> <Gold.PLP.part.metal>
0.0000

> <Gold.PLP.part.buried>
-5.3764

> <Gold.PLP.part.nonpolar>
-30.8340

> <Gold.PLP.part.repulsive>
0.0645

> <Gold.PLP.ligand.clash>
0.0000

> <Gold.PLP.ligand.torsion>
0.7908

> <Gold.PLP.Chemscore.Hbond>
3.9920

> <Gold.PLP.Chemscore.CHOScore>
0.0000

> <Gold.PLP.Chemscore.Metal>
0.0000

> <Gold.Chemscore.Hbonds>
donor molecule, donor type, donor heavy atom, donor atom, acceptor molecule, acceptor atom, score
      L1  H    10    37       P1  7957  0.99
      P1  H  6934  6946       L1    23  1.00
      P1  H  7989  7998       L1    10  0.98
      P1  H  7997  8010       L1    14  1.00

> <Gold.PLP.Chemscore.Internal.Correction>
0.2597

> <Gold.Rescore>
     Score         DG    S(hbond)    S(metal)    S(lipo)     H(rot)  DE(clash)    DE(int)     intcor
     17.68     -19.99       2.79        0.00      99.76       2.53       0.68       1.63       ----

> <Gold.Chemscore.Fitness>
17.6836

> <Gold.Chemscore.DG>
-19.9947

> <Gold.Chemscore.ZeroCoef>
-5.4800

> <Gold.Chemscore.Hbond>
2.7929

> <Gold.Chemscore.Metal>
0.0000

> <Gold.Chemscore.Lipo>
99.7571

> <Gold.Chemscore.Internal_Hbond>
0.0000

> <Gold.Chemscore.DEClash>
0.6777

> <Gold.Chemscore.DEInternal>
1.6335

> <Gold.Chemscore.Rot>
2.5332

> <Gold.Chemscore.Internal.Correction>
   9.000000E+99

> <Gold.Chemscore.Hbonds>
donor molecule, donor type, donor heavy atom, donor atom, acceptor molecule, acceptor atom, score
      L1  H    10    37       P1  7957  0.91
      P1  H  6934  6946       L1    23  0.92
      P1  H  7989  7998       L1    10  0.11
      P1  H  7997  8010       L1    14  0.36

> <Gold.Chemscore.Hbond.Weighted>
-9.3282

> <Gold.Chemscore.Metal.Weighted>
-0.0000

> <Gold.Chemscore.Lipo.Weighted>
-11.6716

> <Gold.Chemscore.Internal_Hbond.Weighted>
0.0000

> <Gold.Chemscore.DEClash.Weighted>
0.6777

> <Gold.Chemscore.DEInternal.Weighted>
1.6335

> <Gold.Chemscore.Rot.Weighted>
6.4851

> <Gold.Chemscore.Internal.Correction.Weighted>
   9.000000E+99

> <Gold.Protein.RotatedTorsions>
[ 6907 6896 6895 6894 ] final  -85.85 input  -60.11 | X-H torsion
[ 7974 7965 7964 7962 ] final  -99.74 input  175.53 | X-H torsion
[ 8008 7997 7996 7995 ] final   45.96 input   59.86 | X-H torsion
[ 10167 10162 10161 10158 ] final   49.72 input  -65.29 | X-H torsion
[ 10718 10713 10712 10709 ] final -139.01 input   66.30 | X-H torsion
[ 10763 10752 10751 10750 ] final  -26.83 input  -60.55 | X-H torsion
[ 11005 11000 10999 10996 ] final   55.75 input  -57.11 | X-H torsion

> <Gold.Protein.ActiveResidues>
 VAL166  LYS551  ARG553  GLY616  TRP617  ASP618  TYR619  PRO620  LYS621  CYS622 
 ASP623  PHE694  ASN695  SER759  ASP760  ASP761  ALA762  ILE779  LEU786  VAL792 
 PHE793  MET794  SER795  GLU796  ALA797  LYS798  CYS799  TRP800  GLU811  SER814 

> <Gold.Protein.RotatedAtoms>
  150.6868  134.3141  159.4758 H   0  0  0  0  0  0  0  0  0  0  0  0  # atno 6907 bound_to 6896
  152.1024  134.9330  160.0578 H   0  0  0  0  0  0  0  0  0  0  0  0  # atno 6908 bound_to 6896
  152.0604  133.4025  159.4452 H   0  0  0  0  0  0  0  0  0  0  0  0  # atno 6909 bound_to 6896
  145.3037  140.9383  143.2809 H   0  0  0  0  0  0  0  0  0  0  0  0  # atno 7974 bound_to 7965
  155.3446  140.3410  155.4239 H   0  0  0  0  0  0  0  0  0  0  0  0  # atno 8008 bound_to 7997
  156.1795  140.1659  156.8336 H   0  0  0  0  0  0  0  0  0  0  0  0  # atno 8009 bound_to 7997
  154.5318  140.0743  156.8342 H   0  0  0  0  0  0  0  0  0  0  0  0  # atno 8010 bound_to 7997
  140.2799  144.3168  150.6267 H   0  0  0  0  0  0  0  0  0  0  0  0  # atno 10167 bound_to 10162
  156.3058  130.7454  151.1518 H   0  0  0  0  0  0  0  0  0  0  0  0  # atno 10718 bound_to 10713
  153.7223  135.6944  153.5010 H   0  0  0  0  0  0  0  0  0  0  0  0  # atno 10763 bound_to 10752
  153.2195  135.4375  155.0472 H   0  0  0  0  0  0  0  0  0  0  0  0  # atno 10764 bound_to 10752
  154.8280  135.3457  154.6756 H   0  0  0  0  0  0  0  0  0  0  0  0  # atno 10765 bound_to 10752
  140.0582  134.5639  155.9182 H   0  0  0  0  0  0  0  0  0  0  0  0  # atno 11005 bound_to 11000
  144.9073  139.4573  143.6604 LP  0  0  0  0  0  0  0  0  0  0  0  0  # atno 17320 bound_to 7965
  146.3143  139.7861  142.8996 LP  0  0  0  0  0  0  0  0  0  0  0  0  # atno 17321 bound_to 7965
  140.5820  143.2172  151.7411 LP  0  0  0  0  0  0  0  0  0  0  0  0  # atno 17342 bound_to 10162
  139.4965  144.4066  152.0125 LP  0  0  0  0  0  0  0  0  0  0  0  0  # atno 17343 bound_to 10162
  157.7379  131.0546  150.5326 LP  0  0  0  0  0  0  0  0  0  0  0  0  # atno 17370 bound_to 10713
  156.5459  130.4219  149.6131 LP  0  0  0  0  0  0  0  0  0  0  0  0  # atno 17371 bound_to 10713
  141.1961  133.6590  156.5678 LP  0  0  0  0  0  0  0  0  0  0  0  0  # atno 17394 bound_to 11000
  140.3811  134.7523  157.4661 LP  0  0  0  0  0  0  0  0  0  0  0  0  # atno 17395 bound_to 11000

$$$$
