AV-unprocessed.smi:3258|AV-procd|sdf|12469|dock3
  -GOLD-   2272018363D 1   1.00000     0.00000
 Structure written by MMmdl.
 38 39  0  0  0  0  0  0  0  0  1 V2000
  148.3131  131.6389  154.2622 C   0  0  0  0  0  0  0  0  0  0  0  0
  147.6815  132.7234  153.3752 C   0  0  1  0  0  0  0  0  0  0  0  0
  146.1663  132.8453  153.6280 C   0  0  0  0  0  0  0  0  0  0  0  0
  145.4834  133.5536  152.5594 N   0  0  0  0  0  0  0  0  0  0  0  0
  145.8051  134.7717  151.9987 C   0  0  0  0  0  0  0  0  0  0  0  0
  144.8720  135.0355  151.0374 C   0  0  0  0  0  0  0  0  0  0  0  0
  144.0104  133.9038  151.0834 C   0  0  0  0  0  0  0  0  0  0  0  0
  144.3790  133.0182  151.9949 N   0  0  0  0  0  0  0  0  0  0  0  0
  148.3360  134.0079  153.6162 N   0  0  0  0  0  0  0  0  0  0  0  0
  148.7356  134.4622  154.8118 C   0  0  0  0  0  0  0  0  0  0  0  0
  148.5765  133.8540  155.8703 O   0  0  0  0  0  0  0  0  0  0  0  0
  149.3252  135.6619  154.7133 N   0  0  0  0  0  0  0  0  0  0  0  0
  149.8592  136.4359  155.8295 C   0  0  0  0  0  0  0  0  0  0  0  0
  150.6615  137.6585  155.3463 C   0  0  2  0  0  0  0  0  0  0  0  0
  151.3190  138.4406  156.4646 C   0  0  0  0  0  0  0  0  0  0  0  0
  151.6231  139.7713  155.7829 C   0  0  0  0  0  0  0  0  0  0  0  0
  150.5974  139.9538  154.8112 O   0  0  0  0  0  0  0  0  0  0  0  0
  149.8356  138.7579  154.6746 C   0  0  0  0  0  0  0  0  0  0  0  0
  147.8484  130.6686  154.0854 H   0  0  0  0  0  0  0  0  0  0  0  0
  148.1977  131.8753  155.3206 H   0  0  0  0  0  0  0  0  0  0  0  0
  149.3790  131.5323  154.0585 H   0  0  0  0  0  0  0  0  0  0  0  0
  147.8274  132.4359  152.3322 H   0  0  0  0  0  0  0  0  0  0  0  0
  145.7200  131.8532  153.7074 H   0  0  0  0  0  0  0  0  0  0  0  0
  145.9718  133.3498  154.5761 H   0  0  0  0  0  0  0  0  0  0  0  0
  146.6596  135.3438  152.3293 H   0  0  0  0  0  0  0  0  0  0  0  0
  144.8133  135.9045  150.3991 H   0  0  0  0  0  0  0  0  0  0  0  0
  143.1339  133.7013  150.4860 H   0  0  0  0  0  0  0  0  0  0  0  0
  148.5164  134.5822  152.8058 H   0  0  0  0  0  0  0  0  0  0  0  0
  149.4087  136.0741  153.7955 H   0  0  0  0  0  0  0  0  0  0  0  0
  149.0612  136.7412  156.5088 H   0  0  0  0  0  0  0  0  0  0  0  0
  150.5113  135.7777  156.4040 H   0  0  0  0  0  0  0  0  0  0  0  0
  151.4386  137.3306  154.6535 H   0  0  0  0  0  0  0  0  0  0  0  0
  150.6176  138.5938  157.2860 H   0  0  0  0  0  0  0  0  0  0  0  0
  152.2104  137.9547  156.8625 H   0  0  0  0  0  0  0  0  0  0  0  0
  151.6579  140.6019  156.4881 H   0  0  0  0  0  0  0  0  0  0  0  0
  152.5832  139.7243  155.2674 H   0  0  0  0  0  0  0  0  0  0  0  0
  149.6221  138.5409  153.6277 H   0  0  0  0  0  0  0  0  0  0  0  0
  148.8849  138.8973  155.1910 H   0  0  0  0  0  0  0  0  0  0  0  0
  1  2  1  0  0  0  0
  1 19  1  0  0  0  0
  1 20  1  0  0  0  0
  1 21  1  0  0  0  0
  2  3  1  0  0  0  0
  2  9  1  0  0  0  0
  2 22  1  0  0  0  0
  3  4  1  0  0  0  0
  3 23  1  0  0  0  0
  3 24  1  0  0  0  0
  4  8  1  0  0  0  0
  4  5  1  0  0  0  0
  5  6  2  0  0  0  0
  5 25  1  0  0  0  0
  6  7  1  0  0  0  0
  6 26  1  0  0  0  0
  7  8  2  0  0  0  0
  7 27  1  0  0  0  0
  9 10  1  0  0  0  0
  9 28  1  0  0  0  0
 10 11  2  0  0  0  0
 10 12  1  0  0  0  0
 12 13  1  0  0  0  0
 12 29  1  0  0  0  0
 13 14  1  0  0  0  0
 13 30  1  0  0  0  0
 13 31  1  0  0  0  0
 14 18  1  0  0  0  0
 14 15  1  0  0  0  0
 14 32  1  0  0  0  0
 15 16  1  0  0  0  0
 15 33  1  0  0  0  0
 15 34  1  0  0  0  0
 16 17  1  0  0  0  0
 16 35  1  0  0  0  0
 16 36  1  0  0  0  0
 17 18  1  0  0  0  0
 18 37  1  0  0  0  0
 18 38  1  0  0  0  0
M  END
> <s_m_source_file>
AV-unprocessed.smi

> <i_m_source_file_index>
3258

> <i_lp_mmshare_version>
43012

> <i_f3d_flags>
0

> <s_epik_input>
bjFbY0hdW2NIXVtjSF1uMVtDSDJdW0NAQEhdKFtDSDNdKVtOSF1DKD1PKVtOSF1bQ0gyXVtDQEBIXTJbQ0gyXVtDSDJdT1tDSDJdMg==

> <s_epik_cmdline>
J2VwaWtfcHl0aG9uJywgJy1waCcsICc3LjAnLCAnLXRuJywgJzgnLCAnLW1hJywgJzIwMCcsICctbWV0YWxfYmluZGluZycsICctaW1hZScsICc8aW5maWxlLm1hZT4nLCAnLW9tYWUnLCAnPG91dGZpbGUubWFlPic=

> <r_lp_tautomer_probability>
1

> <r_epik_Ionization_Penalty>
6.85079e-05

> <r_epik_Ionization_Penalty_Charging>
0

> <r_epik_Ionization_Penalty_Neutral>
6.85079e-05

> <r_epik_State_Penalty>
-0

> <r_epik_Charging_Adjusted_Penalty>
0

> <i_epik_Tot_Q>
0

> <i_epik_Tot_abs_Q>
0

> <r_epik_Metal_State_Penalty>
-0

> <b_epik_Metal_Only>
0

> <s_lp_Force_Field>
OPLS_2005

> <r_lp_Energy>
17.05

> <b_lp_Chiralities_Consistent>
1

> <s_lp_Variant>
AV-unprocessed.smi:3258-2

> <Gold.Version>
5.8.1

> <Gold.Id.Protein>
6NUR|6NUR_protein|mol2

> <Gold.PLP.Fitness>
42.3427

> <Gold.PLP.PLP>
-29.5196

> <Gold.PLP.part.hbond>
-3.0000

> <Gold.PLP.part.metal>
0.0000

> <Gold.PLP.part.buried>
-3.2366

> <Gold.PLP.part.nonpolar>
-23.6554

> <Gold.PLP.part.repulsive>
0.3002

> <Gold.PLP.ligand.clash>
0.0012

> <Gold.PLP.ligand.torsion>
0.5896

> <Gold.PLP.Chemscore.Hbond>
2.6500

> <Gold.PLP.Chemscore.CHOScore>
2.0000

> <Gold.PLP.Chemscore.Metal>
0.0000

> <Gold.Chemscore.Hbonds>
donor molecule, donor type, donor heavy atom, donor atom, acceptor molecule, acceptor atom, score
      L1  H     9    28       P1  7948  0.95
      L1  H    12    29       P1  7948  1.00
      P1  H  7989  7998       L1    17  0.90
      L1  C     5    25       P1  7948  1.00
      L1  C     7    27       P1 10186  1.00

> <Gold.PLP.Chemscore.Internal.Correction>
0.0534

> <Gold.Rescore>
     Score         DG    S(hbond)    S(metal)    S(lipo)     H(rot)  DE(clash)    DE(int)     intcor
      9.17     -11.41       1.04        0.00      62.07       1.87       0.05       2.19       ----

> <Gold.Chemscore.Fitness>
9.1691

> <Gold.Chemscore.DG>
-11.4149

> <Gold.Chemscore.ZeroCoef>
-5.4800

> <Gold.Chemscore.Hbond>
1.0379

> <Gold.Chemscore.Metal>
0.0000

> <Gold.Chemscore.Lipo>
62.0663

> <Gold.Chemscore.Internal_Hbond>
0.0000

> <Gold.Chemscore.DEClash>
0.0548

> <Gold.Chemscore.DEInternal>
2.1910

> <Gold.Chemscore.Rot>
1.8724

> <Gold.Chemscore.Internal.Correction>
   9.000000E+99

> <Gold.Chemscore.Hbonds>
donor molecule, donor type, donor heavy atom, donor atom, acceptor molecule, acceptor atom, score
      L1  H     9    28       P1  7948  0.21
      L1  H    12    29       P1  7948  0.67
      P1  H  7989  7998       L1    17  0.18

> <Gold.Chemscore.Hbond.Weighted>
-3.4664

> <Gold.Chemscore.Metal.Weighted>
-0.0000

> <Gold.Chemscore.Lipo.Weighted>
-7.2618

> <Gold.Chemscore.Internal_Hbond.Weighted>
0.0000

> <Gold.Chemscore.DEClash.Weighted>
0.0548

> <Gold.Chemscore.DEInternal.Weighted>
2.1910

> <Gold.Chemscore.Rot.Weighted>
4.7933

> <Gold.Chemscore.Internal.Correction.Weighted>
   9.000000E+99

> <Gold.Protein.RotatedTorsions>
[ 6907 6896 6895 6894 ] final -110.28 input  -60.11 | X-H torsion
[ 7974 7965 7964 7962 ] final  -87.87 input  175.53 | X-H torsion
[ 8008 7997 7996 7995 ] final   34.05 input   59.86 | X-H torsion
[ 10167 10162 10161 10158 ] final   98.45 input  -65.29 | X-H torsion
[ 10718 10713 10712 10709 ] final -100.70 input   66.30 | X-H torsion
[ 10763 10752 10751 10750 ] final  -63.57 input  -60.55 | X-H torsion
[ 11005 11000 10999 10996 ] final  139.83 input  -57.11 | X-H torsion

> <Gold.Protein.ActiveResidues>
 VAL166  LYS551  ARG553  GLY616  TRP617  ASP618  TYR619  PRO620  LYS621  CYS622 
 ASP623  PHE694  ASN695  SER759  ASP760  ASP761  ALA762  ILE779  LEU786  VAL792 
 PHE793  MET794  SER795  GLU796  ALA797  LYS798  CYS799  TRP800  GLU811  SER814 

> <Gold.Protein.RotatedAtoms>
  150.7615  133.9404  159.3454 H   0  0  0  0  0  0  0  0  0  0  0  0  # atno 6907 bound_to 6896
  151.7312  135.0872  160.0310 H   0  0  0  0  0  0  0  0  0  0  0  0  # atno 6908 bound_to 6896
  152.3588  133.6233  159.6035 H   0  0  0  0  0  0  0  0  0  0  0  0  # atno 6909 bound_to 6896
  145.4607  140.9561  143.1971 H   0  0  0  0  0  0  0  0  0  0  0  0  # atno 7974 bound_to 7965
  155.1486  140.3273  155.4436 H   0  0  0  0  0  0  0  0  0  0  0  0  # atno 8008 bound_to 7997
  156.2581  140.1981  156.6549 H   0  0  0  0  0  0  0  0  0  0  0  0  # atno 8009 bound_to 7997
  154.6490  140.0561  156.9920 H   0  0  0  0  0  0  0  0  0  0  0  0  # atno 8010 bound_to 7997
  139.7707  144.6923  151.0160 H   0  0  0  0  0  0  0  0  0  0  0  0  # atno 10167 bound_to 10162
  156.0171  130.5339  150.6855 H   0  0  0  0  0  0  0  0  0  0  0  0  # atno 10718 bound_to 10713
  154.3171  135.6204  153.5491 H   0  0  0  0  0  0  0  0  0  0  0  0  # atno 10763 bound_to 10752
  152.9823  135.5715  154.5112 H   0  0  0  0  0  0  0  0  0  0  0  0  # atno 10764 bound_to 10752
  154.4773  135.2861  155.1574 H   0  0  0  0  0  0  0  0  0  0  0  0  # atno 10765 bound_to 10752
  140.0283  134.9364  157.0612 H   0  0  0  0  0  0  0  0  0  0  0  0  # atno 11005 bound_to 11000
  144.8004  139.6151  143.7074 LP  0  0  0  0  0  0  0  0  0  0  0  0  # atno 17320 bound_to 7965
  146.2452  139.6084  142.9464 LP  0  0  0  0  0  0  0  0  0  0  0  0  # atno 17321 bound_to 7965
  140.7814  143.4592  151.0302 LP  0  0  0  0  0  0  0  0  0  0  0  0  # atno 17342 bound_to 10162
  139.8275  143.7735  152.3179 LP  0  0  0  0  0  0  0  0  0  0  0  0  # atno 17343 bound_to 10162
  157.4548  131.0876  151.0808 LP  0  0  0  0  0  0  0  0  0  0  0  0  # atno 17370 bound_to 10713
  157.1313  130.6103  149.5530 LP  0  0  0  0  0  0  0  0  0  0  0  0  # atno 17371 bound_to 10713
  140.4269  134.1822  155.7166 LP  0  0  0  0  0  0  0  0  0  0  0  0  # atno 17394 bound_to 11000
  141.1816  133.8402  157.1238 LP  0  0  0  0  0  0  0  0  0  0  0  0  # atno 17395 bound_to 11000

$$$$
