AV-unprocessed.smi:3036|AV-procd|sdf|11585|dock1
  -GOLD-   2272016553D 1   1.00000     0.00000
 Structure written by MMmdl.
 41 42  0  0  0  0  0  0  0  0  1 V2000
  147.3081  141.7722  155.3329 C   0  0  0  0  0  0  0  0  0  0  0  0
  148.7144  141.1538  155.3920 C   0  0  1  0  0  0  0  0  0  0  0  0
  148.9378  140.1485  154.2452 C   0  0  0  0  0  0  0  0  0  0  0  0
  150.0538  139.2556  154.5077 N   0  0  0  0  0  0  0  0  0  0  0  0
  150.0821  137.8778  154.4496 C   0  0  0  0  0  0  0  0  0  0  0  0
  151.3523  137.4840  154.7587 C   0  0  0  0  0  0  0  0  0  0  0  0
  152.0370  138.7087  154.9949 C   0  0  0  0  0  0  0  0  0  0  0  0
  151.2572  139.7673  154.8454 N   0  0  0  0  0  0  0  0  0  0  0  0
  149.7215  142.2039  155.2927 N   0  0  0  0  0  0  0  0  0  0  0  0
  150.7759  142.0642  156.2890 C   0  0  0  0  0  0  0  0  0  0  0  0
  150.1884  141.7453  157.6795 C   0  0  0  0  0  0  0  0  0  0  0  0
  151.2009  141.7735  158.8437 C   0  0  0  0  0  0  0  0  0  0  0  0
  151.3697  140.7559  159.5181 O   0  0  0  0  0  0  0  0  0  0  0  0
  151.8761  142.9206  159.0976 N   0  0  0  0  0  0  0  0  0  0  0  0
  152.8511  143.0517  160.1845 C   0  0  0  0  0  0  0  0  0  0  0  0
  152.2935  144.0430  161.2212 C   0  0  0  0  0  0  0  0  0  0  0  0
  152.0322  145.2956  160.5929 O   0  0  0  0  0  0  0  0  0  0  0  0
  151.1075  145.1961  159.5127 C   0  0  0  0  0  0  0  0  0  0  0  0
  151.6484  144.2184  158.4535 C   0  0  0  0  0  0  0  0  0  0  0  0
  146.5427  140.9973  155.3797 H   0  0  0  0  0  0  0  0  0  0  0  0
  147.1563  142.3306  154.4085 H   0  0  0  0  0  0  0  0  0  0  0  0
  147.1290  142.4504  156.1672 H   0  0  0  0  0  0  0  0  0  0  0  0
  148.8320  140.6209  156.3367 H   0  0  0  0  0  0  0  0  0  0  0  0
  148.0442  139.5397  154.0994 H   0  0  0  0  0  0  0  0  0  0  0  0
  149.1166  140.6664  153.3015 H   0  0  0  0  0  0  0  0  0  0  0  0
  149.2078  137.3003  154.1882 H   0  0  0  0  0  0  0  0  0  0  0  0
  151.7347  136.4753  154.8053 H   0  0  0  0  0  0  0  0  0  0  0  0
  153.0711  138.8590  155.2680 H   0  0  0  0  0  0  0  0  0  0  0  0
  149.2919  143.1163  155.3466 H   0  0  0  0  0  0  0  0  0  0  0  0
  151.4588  141.2695  155.9890 H   0  0  0  0  0  0  0  0  0  0  0  0
  151.3608  142.9836  156.3425 H   0  0  0  0  0  0  0  0  0  0  0  0
  149.3874  142.4565  157.8848 H   0  0  0  0  0  0  0  0  0  0  0  0
  149.7345  140.7541  157.6494 H   0  0  0  0  0  0  0  0  0  0  0  0
  153.0811  142.1017  160.6681 H   0  0  0  0  0  0  0  0  0  0  0  0
  153.7951  143.4203  159.7810 H   0  0  0  0  0  0  0  0  0  0  0  0
  151.3807  143.6562  161.6773 H   0  0  0  0  0  0  0  0  0  0  0  0
  153.0141  144.1945  162.0251 H   0  0  0  0  0  0  0  0  0  0  0  0
  150.1347  144.8684  159.8831 H   0  0  0  0  0  0  0  0  0  0  0  0
  150.9667  146.1854  159.0769 H   0  0  0  0  0  0  0  0  0  0  0  0
  152.5913  144.5889  158.0492 H   0  0  0  0  0  0  0  0  0  0  0  0
  150.9577  144.1817  157.6133 H   0  0  0  0  0  0  0  0  0  0  0  0
  1  2  1  0  0  0  0
  1 20  1  0  0  0  0
  1 21  1  0  0  0  0
  1 22  1  0  0  0  0
  2  3  1  0  0  0  0
  2  9  1  0  0  0  0
  2 23  1  0  0  0  0
  3  4  1  0  0  0  0
  3 24  1  0  0  0  0
  3 25  1  0  0  0  0
  4  8  1  0  0  0  0
  4  5  1  0  0  0  0
  5  6  2  0  0  0  0
  5 26  1  0  0  0  0
  6  7  1  0  0  0  0
  6 27  1  0  0  0  0
  7  8  2  0  0  0  0
  7 28  1  0  0  0  0
  9 10  1  0  0  0  0
  9 29  1  0  0  0  0
 10 11  1  0  0  0  0
 10 30  1  0  0  0  0
 10 31  1  0  0  0  0
 11 12  1  0  0  0  0
 11 32  1  0  0  0  0
 11 33  1  0  0  0  0
 12 13  2  0  0  0  0
 12 14  1  0  0  0  0
 14 19  1  0  0  0  0
 14 15  1  0  0  0  0
 15 16  1  0  0  0  0
 15 34  1  0  0  0  0
 15 35  1  0  0  0  0
 16 17  1  0  0  0  0
 16 36  1  0  0  0  0
 16 37  1  0  0  0  0
 17 18  1  0  0  0  0
 18 19  1  0  0  0  0
 18 38  1  0  0  0  0
 18 39  1  0  0  0  0
 19 40  1  0  0  0  0
 19 41  1  0  0  0  0
M  END
> <s_m_source_file>
AV-unprocessed.smi

> <i_m_source_file_index>
3036

> <i_lp_mmshare_version>
43012

> <i_f3d_flags>
0

> <s_epik_input>
bjFbY0hdW2NIXVtjSF1uMVtDSDJdW0NAQEhdKFtDSDNdKVtOSF1bQ0gyXVtDSDJdQyg9TylOMltDSDJdW0NIMl1PW0NIMl1bQ0gyXTI=

> <s_epik_cmdline>
J2VwaWtfcHl0aG9uJywgJy1waCcsICc3LjAnLCAnLXRuJywgJzgnLCAnLW1hJywgJzIwMCcsICctbWV0YWxfYmluZGluZycsICctaW1hZScsICc8aW5maWxlLm1hZT4nLCAnLW9tYWUnLCAnPG91dGZpbGUubWFlPic=

> <r_lp_tautomer_probability>
1

> <r_epik_Ionization_Penalty>
2.55703

> <r_epik_Ionization_Penalty_Charging>
0

> <r_epik_Ionization_Penalty_Neutral>
2.55703

> <r_epik_State_Penalty>
2.726

> <r_epik_Charging_Adjusted_Penalty>
2.726

> <i_epik_Tot_Q>
0

> <i_epik_Tot_abs_Q>
0

> <r_epik_Metal_State_Penalty>
2.72597

> <b_epik_Metal_Only>
0

> <s_lp_Force_Field>
OPLS_2005

> <r_lp_Energy>
21.9246

> <b_lp_Chiralities_Consistent>
1

> <s_lp_Variant>
AV-unprocessed.smi:3036-4

> <Gold.Version>
5.8.1

> <Gold.Id.Protein>
6NUR|6NUR_protein|mol2

> <Gold.PLP.Fitness>
51.7334

> <Gold.PLP.PLP>
-44.4104

> <Gold.PLP.part.hbond>
-2.0000

> <Gold.PLP.part.metal>
0.0000

> <Gold.PLP.part.buried>
-3.7210

> <Gold.PLP.part.nonpolar>
-39.3815

> <Gold.PLP.part.repulsive>
0.2844

> <Gold.PLP.ligand.clash>
0.0000

> <Gold.PLP.ligand.torsion>
0.9436

> <Gold.PLP.Chemscore.Hbond>
2.0000

> <Gold.PLP.Chemscore.CHOScore>
0.9996

> <Gold.PLP.Chemscore.Metal>
0.0000

> <Gold.Chemscore.Hbonds>
donor molecule, donor type, donor heavy atom, donor atom, acceptor molecule, acceptor atom, score
      L1  H     9    29       P1  8028  1.00
      P1  H  7989  7998       L1     8  1.00
      L1  C     5    26       P1  7948  0.76

> <Gold.PLP.Chemscore.Internal.Correction>
0.2114

> <Gold.Rescore>
     Score         DG    S(hbond)    S(metal)    S(lipo)     H(rot)  DE(clash)    DE(int)     intcor
     16.57     -18.45       1.89        0.00     100.45       1.99       0.12       1.75       ----

> <Gold.Chemscore.Fitness>
16.5746

> <Gold.Chemscore.DG>
-18.4487

> <Gold.Chemscore.ZeroCoef>
-5.4800

> <Gold.Chemscore.Hbond>
1.8893

> <Gold.Chemscore.Metal>
0.0000

> <Gold.Chemscore.Lipo>
100.4529

> <Gold.Chemscore.Internal_Hbond>
0.0000

> <Gold.Chemscore.DEClash>
0.1201

> <Gold.Chemscore.DEInternal>
1.7540

> <Gold.Chemscore.Rot>
1.9900

> <Gold.Chemscore.Internal.Correction>
   9.000000E+99

> <Gold.Chemscore.Hbonds>
donor molecule, donor type, donor heavy atom, donor atom, acceptor molecule, acceptor atom, score
      L1  H     9    29       P1  8028  1.00
      P1  H  7989  7998       L1     8  0.42

> <Gold.Chemscore.Hbond.Weighted>
-6.3101

> <Gold.Chemscore.Metal.Weighted>
-0.0000

> <Gold.Chemscore.Lipo.Weighted>
-11.7530

> <Gold.Chemscore.Internal_Hbond.Weighted>
0.0000

> <Gold.Chemscore.DEClash.Weighted>
0.1201

> <Gold.Chemscore.DEInternal.Weighted>
1.7540

> <Gold.Chemscore.Rot.Weighted>
5.0944

> <Gold.Chemscore.Internal.Correction.Weighted>
   9.000000E+99

> <Gold.Protein.RotatedTorsions>
[ 6907 6896 6895 6894 ] final  -37.28 input  -60.11 | X-H torsion
[ 7974 7965 7964 7962 ] final -179.60 input  175.53 | X-H torsion
[ 8008 7997 7996 7995 ] final  -25.72 input   59.86 | X-H torsion
[ 10167 10162 10161 10158 ] final  157.86 input  -65.29 | X-H torsion
[ 10718 10713 10712 10709 ] final   12.28 input   66.30 | X-H torsion
[ 10763 10752 10751 10750 ] final  -59.97 input  -60.55 | X-H torsion
[ 11005 11000 10999 10996 ] final  151.53 input  -57.11 | X-H torsion

> <Gold.Protein.ActiveResidues>
 VAL166  LYS551  ARG553  GLY616  TRP617  ASP618  TYR619  PRO620  LYS621  CYS622 
 ASP623  PHE694  ASN695  SER759  ASP760  ASP761  ALA762  ILE779  LEU786  VAL792 
 PHE793  MET794  SER795  GLU796  ALA797  LYS798  CYS799  TRP800  GLU811  SER814 

> <Gold.Protein.RotatedAtoms>
  151.0166  134.9438  159.8036 H   0  0  0  0  0  0  0  0  0  0  0  0  # atno 6907 bound_to 6896
  152.5315  134.2958  159.9070 H   0  0  0  0  0  0  0  0  0  0  0  0  # atno 6908 bound_to 6896
  151.2965  133.4100  159.2671 H   0  0  0  0  0  0  0  0  0  0  0  0  # atno 6909 bound_to 6896
  144.7138  140.0693  143.6430 H   0  0  0  0  0  0  0  0  0  0  0  0  # atno 7974 bound_to 7965
  154.4461  140.1919  156.0664 H   0  0  0  0  0  0  0  0  0  0  0  0  # atno 8008 bound_to 7997
  156.0544  140.3304  155.7361 H   0  0  0  0  0  0  0  0  0  0  0  0  # atno 8009 bound_to 7997
  155.5508  140.0595  157.2841 H   0  0  0  0  0  0  0  0  0  0  0  0  # atno 8010 bound_to 7997
  139.4824  144.4879  151.8351 H   0  0  0  0  0  0  0  0  0  0  0  0  # atno 10167 bound_to 10162
  157.0078  130.6105  149.5704 H   0  0  0  0  0  0  0  0  0  0  0  0  # atno 10718 bound_to 10713
  154.2619  135.6306  153.5278 H   0  0  0  0  0  0  0  0  0  0  0  0  # atno 10763 bound_to 10752
  152.9894  135.5589  154.5695 H   0  0  0  0  0  0  0  0  0  0  0  0  # atno 10764 bound_to 10752
  154.5246  135.2884  155.1208 H   0  0  0  0  0  0  0  0  0  0  0  0  # atno 10765 bound_to 10752
  140.1227  134.8853  157.2095 H   0  0  0  0  0  0  0  0  0  0  0  0  # atno 11005 bound_to 11000
  145.9797  139.2932  143.1049 LP  0  0  0  0  0  0  0  0  0  0  0  0  # atno 17320 bound_to 7965
  145.9024  140.9234  143.0496 LP  0  0  0  0  0  0  0  0  0  0  0  0  # atno 17321 bound_to 7965
  140.4360  144.2051  150.5889 LP  0  0  0  0  0  0  0  0  0  0  0  0  # atno 17342 bound_to 10162
  140.4731  143.2405  151.9061 LP  0  0  0  0  0  0  0  0  0  0  0  0  # atno 17343 bound_to 10162
  156.0147  130.5241  150.8098 LP  0  0  0  0  0  0  0  0  0  0  0  0  # atno 17370 bound_to 10713
  157.5343  131.0938  150.9914 LP  0  0  0  0  0  0  0  0  0  0  0  0  # atno 17371 bound_to 10713
  140.2944  134.3203  155.7306 LP  0  0  0  0  0  0  0  0  0  0  0  0  # atno 17394 bound_to 11000
  141.2155  133.7554  156.9550 LP  0  0  0  0  0  0  0  0  0  0  0  0  # atno 17395 bound_to 11000

$$$$
