AV-unprocessed.smi:1381|AV-procd|sdf|5607|dock5
  -GOLD-   22720 5213D 1   1.00000     0.00000
 Structure written by MMmdl.
 43 44  0  0  0  0  0  0  0  0  2 V2000
  145.9206  130.1973  151.4529 C   0  0  0  0  0  0  0  0  0  0  0  0
  145.7861  131.6785  151.5446 C   0  0  0  0  0  0  0  0  0  0  0  0
  146.6564  132.6718  151.8962 C   0  0  0  0  0  0  0  0  0  0  0  0
  145.8702  133.8472  151.7636 C   0  0  0  0  0  0  0  0  0  0  0  0
  146.4187  135.1255  152.0401 N   0  0  0  0  0  0  0  0  0  0  0  0
  145.8194  136.1550  152.6622 C   0  0  0  0  0  0  0  0  0  0  0  0
  144.6724  136.1447  153.1104 O   0  0  0  0  0  0  0  0  0  0  0  0
  146.6293  137.2211  152.7368 N   0  0  0  0  0  0  0  0  0  0  0  0
  146.2719  138.4954  153.3493 C   0  0  0  0  0  0  0  0  0  0  0  0
  147.2797  139.6008  152.9792 C   0  0  0  0  0  0  0  0  0  0  0  0
  148.3245  139.7867  154.0163 N   0  3  1  0  0  0  0  0  0  0  0  0
  149.5057  138.9232  153.7870 C   0  0  0  0  0  0  0  0  0  0  0  0
  150.5134  139.0697  154.9412 C   0  0  1  0  0  0  0  0  0  0  0  0
  151.7904  138.2586  154.6954 C   0  0  0  0  0  0  0  0  0  0  0  0
  150.8835  140.4393  155.0768 O   0  0  0  0  0  0  0  0  0  0  0  0
  149.7961  141.3355  155.3059 C   0  0  2  0  0  0  0  0  0  0  0  0
  149.2064  141.1874  156.7197 C   0  0  0  0  0  0  0  0  0  0  0  0
  148.7471  141.1989  154.1845 C   0  0  0  0  0  0  0  0  0  0  0  0
  144.6322  133.5944  151.3676 N   0  0  0  0  0  0  0  0  0  0  0  0
  144.5717  132.2031  151.2261 O   0  0  0  0  0  0  0  0  0  0  0  0
  146.9646  129.8949  151.5353 H   0  0  0  0  0  0  0  0  0  0  0  0
  145.5373  129.8318  150.5002 H   0  0  0  0  0  0  0  0  0  0  0  0
  145.3628  129.7091  152.2520 H   0  0  0  0  0  0  0  0  0  0  0  0
  147.6884  132.5698  152.1979 H   0  0  0  0  0  0  0  0  0  0  0  0
  147.3662  135.2726  151.7248 H   0  0  0  0  0  0  0  0  0  0  0  0
  147.5564  137.1459  152.3439 H   0  0  0  0  0  0  0  0  0  0  0  0
  145.2574  138.7613  153.0511 H   0  0  0  0  0  0  0  0  0  0  0  0
  146.2516  138.3572  154.4306 H   0  0  0  0  0  0  0  0  0  0  0  0
  147.7558  139.3206  152.0384 H   0  0  0  0  0  0  0  0  0  0  0  0
  146.7757  140.5513  152.7970 H   0  0  0  0  0  0  0  0  0  0  0  0
  149.1913  137.8816  153.7092 H   0  0  0  0  0  0  0  0  0  0  0  0
  149.9729  139.1890  152.8371 H   0  0  0  0  0  0  0  0  0  0  0  0
  150.0621  138.7154  155.8681 H   0  0  0  0  0  0  0  0  0  0  0  0
  151.5678  137.1967  154.5878 H   0  0  0  0  0  0  0  0  0  0  0  0
  152.4874  138.3688  155.5265 H   0  0  0  0  0  0  0  0  0  0  0  0
  152.2997  138.5873  153.7891 H   0  0  0  0  0  0  0  0  0  0  0  0
  150.2166  142.3398  155.2450 H   0  0  0  0  0  0  0  0  0  0  0  0
  148.4737  141.9705  156.9161 H   0  0  0  0  0  0  0  0  0  0  0  0
  149.9866  141.2707  157.4768 H   0  0  0  0  0  0  0  0  0  0  0  0
  148.7031  140.2314  156.8618 H   0  0  0  0  0  0  0  0  0  0  0  0
  149.1703  141.5569  153.2446 H   0  0  0  0  0  0  0  0  0  0  0  0
  147.8925  141.8377  154.4052 H   0  0  0  0  0  0  0  0  0  0  0  0
  147.9199  139.4893  154.8926 H   0  0  0  0  0  0  0  0  0  0  0  0
  1  2  1  0  0  0  0
  1 21  1  0  0  0  0
  1 22  1  0  0  0  0
  1 23  1  0  0  0  0
  2 20  1  0  0  0  0
  2  3  2  0  0  0  0
  3  4  1  0  0  0  0
  3 24  1  0  0  0  0
  4  5  1  0  0  0  0
  4 19  2  0  0  0  0
  5  6  1  0  0  0  0
  5 25  1  0  0  0  0
  6  7  2  0  0  0  0
  6  8  1  0  0  0  0
  8  9  1  0  0  0  0
  8 26  1  0  0  0  0
  9 10  1  0  0  0  0
  9 27  1  0  0  0  0
  9 28  1  0  0  0  0
 10 11  1  0  0  0  0
 10 29  1  0  0  0  0
 10 30  1  0  0  0  0
 11 18  1  0  0  0  0
 11 12  1  0  0  0  0
 11 43  1  0  0  0  0
 12 13  1  0  0  0  0
 12 31  1  0  0  0  0
 12 32  1  0  0  0  0
 13 14  1  0  0  0  0
 13 15  1  0  0  0  0
 13 33  1  0  0  0  0
 14 34  1  0  0  0  0
 14 35  1  0  0  0  0
 14 36  1  0  0  0  0
 15 16  1  0  0  0  0
 16 17  1  0  0  0  0
 16 18  1  0  0  0  0
 16 37  1  0  0  0  0
 17 38  1  0  0  0  0
 17 39  1  0  0  0  0
 17 40  1  0  0  0  0
 18 41  1  0  0  0  0
 18 42  1  0  0  0  0
 19 20  1  0  0  0  0
M  CHG  1  11   1
M  END
> <s_m_source_file>
AV-unprocessed.smi

> <i_m_source_file_index>
1381

> <i_lp_mmshare_version>
43012

> <i_f3d_flags>
0

> <s_epik_input>
W0NIM11jMVtjSF1jKG5vMSlbTkhdQyg9TylbTkhdW0NIMl1bQ0gyXU4yW0NIMl1bQ0BASF0oW0NIM10pT1tDQEBIXShbQ0gzXSlbQ0gyXTI=

> <s_epik_cmdline>
J2VwaWtfcHl0aG9uJywgJy1waCcsICc3LjAnLCAnLXRuJywgJzgnLCAnLW1hJywgJzIwMCcsICctbWV0YWxfYmluZGluZycsICctaW1hZScsICc8aW5maWxlLm1hZT4nLCAnLW9tYWUnLCAnPG91dGZpbGUubWFlPic=

> <r_epik_Ionization_Penalty>
0.707076

> <r_epik_Ionization_Penalty_Charging>
0.707039

> <r_epik_Ionization_Penalty_Neutral>
3.6548e-05

> <r_epik_State_Penalty>
0.730276

> <r_epik_Charging_Adjusted_Penalty>
1.43732

> <i_epik_Tot_Q>
1

> <i_epik_Tot_abs_Q>
1

> <r_epik_Metal_State_Penalty>
0.743132

> <b_epik_Metal_Only>
0

> <s_lp_Force_Field>
OPLS_2005

> <r_lp_Energy>
14.2109

> <b_lp_Chiralities_Consistent>
1

> <s_lp_Variant>
AV-unprocessed.smi:1381-6

> <Gold.Version>
5.8.1

> <Gold.Id.Protein>
6NUR|6NUR_protein|mol2

> <Gold.PLP.Fitness>
38.8269

> <Gold.PLP.PLP>
-31.9133

> <Gold.PLP.part.hbond>
-3.6367

> <Gold.PLP.part.metal>
0.0000

> <Gold.PLP.part.buried>
-0.3007

> <Gold.PLP.part.nonpolar>
-27.8675

> <Gold.PLP.part.repulsive>
0.5105

> <Gold.PLP.ligand.clash>
0.0000

> <Gold.PLP.ligand.torsion>
1.0535

> <Gold.PLP.Chemscore.Hbond>
3.0000

> <Gold.PLP.Chemscore.CHOScore>
0.0000

> <Gold.PLP.Chemscore.Metal>
0.0000

> <Gold.Chemscore.Hbonds>
donor molecule, donor type, donor heavy atom, donor atom, acceptor molecule, acceptor atom, score
      L1  H     5    25       P1  7948  1.00
      L1  H     8    26       P1  7948  1.00
      P1  H  7989  7998       L1    15  1.00

> <Gold.PLP.Chemscore.Internal.Correction>
0.0205

> <Gold.Rescore>
     Score         DG    S(hbond)    S(metal)    S(lipo)     H(rot)  DE(clash)    DE(int)     intcor
     16.51     -17.74       2.28        0.00      75.02       1.61       0.18       1.05       ----

> <Gold.Chemscore.Fitness>
16.5122

> <Gold.Chemscore.DG>
-17.7395

> <Gold.Chemscore.ZeroCoef>
-5.4800

> <Gold.Chemscore.Hbond>
2.2752

> <Gold.Chemscore.Metal>
0.0000

> <Gold.Chemscore.Lipo>
75.0165

> <Gold.Chemscore.Internal_Hbond>
0.0000

> <Gold.Chemscore.DEClash>
0.1799

> <Gold.Chemscore.DEInternal>
1.0474

> <Gold.Chemscore.Rot>
1.6081

> <Gold.Chemscore.Internal.Correction>
   9.000000E+99

> <Gold.Chemscore.Hbonds>
donor molecule, donor type, donor heavy atom, donor atom, acceptor molecule, acceptor atom, score
      L1  H     5    25       P1  7948  0.91
      L1  H     8    26       P1  7948  0.97
      P1  H  7989  7998       L1    15  0.32

> <Gold.Chemscore.Hbond.Weighted>
-7.5992

> <Gold.Chemscore.Metal.Weighted>
-0.0000

> <Gold.Chemscore.Lipo.Weighted>
-8.7769

> <Gold.Chemscore.Internal_Hbond.Weighted>
0.0000

> <Gold.Chemscore.DEClash.Weighted>
0.1799

> <Gold.Chemscore.DEInternal.Weighted>
1.0474

> <Gold.Chemscore.Rot.Weighted>
4.1167

> <Gold.Chemscore.Internal.Correction.Weighted>
   9.000000E+99

> <Gold.Protein.RotatedTorsions>
[ 6907 6896 6895 6894 ] final   -9.96 input  -60.11 | X-H torsion
[ 7974 7965 7964 7962 ] final  140.09 input  175.53 | X-H torsion
[ 8008 7997 7996 7995 ] final -122.81 input   59.86 | X-H torsion
[ 10167 10162 10161 10158 ] final  -74.62 input  -65.29 | X-H torsion
[ 10718 10713 10712 10709 ] final   10.75 input   66.30 | X-H torsion
[ 10763 10752 10751 10750 ] final   51.12 input  -60.55 | X-H torsion
[ 11005 11000 10999 10996 ] final  122.31 input  -57.11 | X-H torsion

> <Gold.Protein.ActiveResidues>
 VAL166  LYS551  ARG553  GLY616  TRP617  ASP618  TYR619  PRO620  LYS621  CYS622 
 ASP623  PHE694  ASN695  SER759  ASP760  ASP761  ALA762  ILE779  LEU786  VAL792 
 PHE793  MET794  SER795  GLU796  ALA797  LYS798  CYS799  TRP800  GLU811  SER814 

> <Gold.Protein.RotatedAtoms>
  151.4095  135.0983  159.9580 H   0  0  0  0  0  0  0  0  0  0  0  0  # atno 6907 bound_to 6896
  152.5024  133.8811  159.7357 H   0  0  0  0  0  0  0  0  0  0  0  0  # atno 6908 bound_to 6896
  150.9302  133.6718  159.2840 H   0  0  0  0  0  0  0  0  0  0  0  0  # atno 6909 bound_to 6896
  144.9218  139.5158  143.5659 H   0  0  0  0  0  0  0  0  0  0  0  0  # atno 7974 bound_to 7965
  155.1703  140.0408  157.2861 H   0  0  0  0  0  0  0  0  0  0  0  0  # atno 8008 bound_to 7997
  154.6274  140.2516  155.7447 H   0  0  0  0  0  0  0  0  0  0  0  0  # atno 8009 bound_to 7997
  156.2466  140.2882  156.0610 H   0  0  0  0  0  0  0  0  0  0  0  0  # atno 8010 bound_to 7997
  140.5011  143.2361  151.7750 H   0  0  0  0  0  0  0  0  0  0  0  0  # atno 10167 bound_to 10162
  156.9855  130.6022  149.5681 H   0  0  0  0  0  0  0  0  0  0  0  0  # atno 10718 bound_to 10713
  152.9785  135.5856  154.4363 H   0  0  0  0  0  0  0  0  0  0  0  0  # atno 10763 bound_to 10752
  154.3970  135.2768  155.2122 H   0  0  0  0  0  0  0  0  0  0  0  0  # atno 10764 bound_to 10752
  154.3969  135.6112  153.5929 H   0  0  0  0  0  0  0  0  0  0  0  0  # atno 10765 bound_to 10752
  139.9263  134.9641  156.8090 H   0  0  0  0  0  0  0  0  0  0  0  0  # atno 11005 bound_to 11000
  146.3208  139.8104  142.8947 LP  0  0  0  0  0  0  0  0  0  0  0  0  # atno 17320 bound_to 7965
  145.3283  141.0260  143.3461 LP  0  0  0  0  0  0  0  0  0  0  0  0  # atno 17321 bound_to 7965
  139.4872  144.4520  151.9642 LP  0  0  0  0  0  0  0  0  0  0  0  0  # atno 17342 bound_to 10162
  140.3609  144.2974  150.5933 LP  0  0  0  0  0  0  0  0  0  0  0  0  # atno 17343 bound_to 10162
  156.0227  130.5322  150.8322 LP  0  0  0  0  0  0  0  0  0  0  0  0  # atno 17370 bound_to 10713
  157.5496  131.0943  150.9714 LP  0  0  0  0  0  0  0  0  0  0  0  0  # atno 17371 bound_to 10713
  140.6328  133.9890  155.7670 LP  0  0  0  0  0  0  0  0  0  0  0  0  # atno 17394 bound_to 11000
  141.0822  134.0045  157.3368 LP  0  0  0  0  0  0  0  0  0  0  0  0  # atno 17395 bound_to 11000

$$$$
