AV-unprocessed.smi:2465|AV-procd|sdf|9722|dock1
  -GOLD-   2272013363D 1   1.00000     0.00000
 Structure written by MMmdl.
 40 41  0  0  0  0  0  0  0  0  1 V2000
  147.4557  133.3329  151.9548 C   0  0  0  0  0  0  0  0  0  0  0  0
  146.1496  133.5911  151.2246 C   0  0  0  0  0  0  0  0  0  0  0  0
  145.4130  132.5073  150.7035 C   0  0  0  0  0  0  0  0  0  0  0  0
  144.2073  132.7728  150.0275 C   0  0  0  0  0  0  0  0  0  0  0  0
  143.7207  134.0171  149.8452 N   0  0  0  0  0  0  0  0  0  0  0  0
  144.4260  135.0534  150.3459 C   0  0  0  0  0  0  0  0  0  0  0  0
  145.6441  134.9031  151.0559 C   0  0  0  0  0  0  0  0  0  0  0  0
  146.3957  136.0012  151.5627 N   0  0  0  0  0  0  0  0  0  0  0  0
  145.9487  137.1402  152.1190 C   0  0  0  0  0  0  0  0  0  0  0  0
  144.7669  137.4219  152.3167 O   0  0  0  0  0  0  0  0  0  0  0  0
  146.9664  137.9427  152.4613 N   0  0  0  0  0  0  0  0  0  0  0  0
  146.8250  139.2490  153.0943 C   0  0  0  0  0  0  0  0  0  0  0  0
  148.1287  139.6911  153.7773 C   0  0  0  0  0  0  0  0  0  0  0  0
  148.9511  138.5002  154.2942 C   0  0  0  0  0  0  0  0  0  0  0  0
  150.2744  138.9211  154.7447 N   0  0  0  0  0  0  0  0  0  0  0  0
  150.4901  140.2617  155.2623 C   0  0  0  0  0  0  0  0  0  0  0  0
  151.9160  140.2429  155.8312 C   0  0  0  0  0  0  0  0  0  0  0  0
  152.5711  138.9767  155.2686 C   0  0  0  0  0  0  0  0  0  0  0  0
  151.3956  138.1909  154.7126 C   0  0  0  0  0  0  0  0  0  0  0  0
  151.4993  137.0376  154.2974 O   0  0  0  0  0  0  0  0  0  0  0  0
  147.6954  132.2694  151.9759 H   0  0  0  0  0  0  0  0  0  0  0  0
  147.3909  133.6848  152.9848 H   0  0  0  0  0  0  0  0  0  0  0  0
  148.2774  133.8532  151.4619 H   0  0  0  0  0  0  0  0  0  0  0  0
  145.7608  131.4910  150.8157 H   0  0  0  0  0  0  0  0  0  0  0  0
  143.6208  131.9639  149.6174 H   0  0  0  0  0  0  0  0  0  0  0  0
  143.9985  136.0226  150.1427 H   0  0  0  0  0  0  0  0  0  0  0  0
  147.3976  135.8803  151.5496 H   0  0  0  0  0  0  0  0  0  0  0  0
  147.9067  137.6295  152.2690 H   0  0  0  0  0  0  0  0  0  0  0  0
  146.5468  139.9696  152.3249 H   0  0  0  0  0  0  0  0  0  0  0  0
  146.0036  139.2284  153.8125 H   0  0  0  0  0  0  0  0  0  0  0  0
  148.7352  140.2653  153.0754 H   0  0  0  0  0  0  0  0  0  0  0  0
  147.8931  140.3641  154.6028 H   0  0  0  0  0  0  0  0  0  0  0  0
  148.4275  138.0069  155.1146 H   0  0  0  0  0  0  0  0  0  0  0  0
  149.0606  137.7540  153.5060 H   0  0  0  0  0  0  0  0  0  0  0  0
  150.4034  140.9808  154.4467 H   0  0  0  0  0  0  0  0  0  0  0  0
  149.7531  140.5171  156.0248 H   0  0  0  0  0  0  0  0  0  0  0  0
  152.4694  141.1439  155.5642 H   0  0  0  0  0  0  0  0  0  0  0  0
  151.8832  140.1884  156.9201 H   0  0  0  0  0  0  0  0  0  0  0  0
  153.2649  139.2121  154.4610 H   0  0  0  0  0  0  0  0  0  0  0  0
  153.1023  138.4115  156.0349 H   0  0  0  0  0  0  0  0  0  0  0  0
  1  2  1  0  0  0  0
  1 21  1  0  0  0  0
  1 22  1  0  0  0  0
  1 23  1  0  0  0  0
  2  7  1  0  0  0  0
  2  3  2  0  0  0  0
  3  4  1  0  0  0  0
  3 24  1  0  0  0  0
  4  5  2  0  0  0  0
  4 25  1  0  0  0  0
  5  6  1  0  0  0  0
  6  7  2  0  0  0  0
  6 26  1  0  0  0  0
  7  8  1  0  0  0  0
  8  9  1  0  0  0  0
  8 27  1  0  0  0  0
  9 10  2  0  0  0  0
  9 11  1  0  0  0  0
 11 12  1  0  0  0  0
 11 28  1  0  0  0  0
 12 13  1  0  0  0  0
 12 29  1  0  0  0  0
 12 30  1  0  0  0  0
 13 14  1  0  0  0  0
 13 31  1  0  0  0  0
 13 32  1  0  0  0  0
 14 15  1  0  0  0  0
 14 33  1  0  0  0  0
 14 34  1  0  0  0  0
 15 19  1  0  0  0  0
 15 16  1  0  0  0  0
 16 17  1  0  0  0  0
 16 35  1  0  0  0  0
 16 36  1  0  0  0  0
 17 18  1  0  0  0  0
 17 37  1  0  0  0  0
 17 38  1  0  0  0  0
 18 19  1  0  0  0  0
 18 39  1  0  0  0  0
 18 40  1  0  0  0  0
 19 20  2  0  0  0  0
M  END
> <s_m_source_file>
AV-unprocessed.smi

> <i_m_source_file_index>
2465

> <i_lp_mmshare_version>
43012

> <i_f3d_flags>
0

> <s_epik_input>
W0NIM11jMVtjSF1bY0hdbltjSF1jMVtOSF1DKD1PKVtOSF1bQ0gyXVtDSDJdW0NIMl1OMltDSDJdW0NIMl1bQ0gyXUMyPU8=

> <s_epik_cmdline>
J2VwaWtfcHl0aG9uJywgJy1waCcsICc3LjAnLCAnLXRuJywgJzgnLCAnLW1hJywgJzIwMCcsICctbWV0YWxfYmluZGluZycsICctaW1hZScsICc8aW5maWxlLm1hZT4nLCAnLW9tYWUnLCAnPG91dGZpbGUubWFlPic=

> <r_epik_Ionization_Penalty>
0.0211997

> <r_epik_Ionization_Penalty_Charging>
0

> <r_epik_Ionization_Penalty_Neutral>
0.0211997

> <r_epik_State_Penalty>
0.0170047

> <r_epik_Charging_Adjusted_Penalty>
0.0170047

> <i_epik_Tot_Q>
0

> <i_epik_Tot_abs_Q>
0

> <r_epik_Metal_State_Penalty>
0.0163833

> <b_epik_Metal_Only>
0

> <s_lp_Force_Field>
OPLS_2005

> <r_lp_Energy>
19.6331

> <b_lp_Chiralities_Consistent>
1

> <s_lp_Variant>
AV-unprocessed.smi:2465-1

> <Gold.Version>
5.8.1

> <Gold.Id.Protein>
6NUR|6NUR_protein|mol2

> <Gold.PLP.Fitness>
46.6803

> <Gold.PLP.PLP>
-36.6731

> <Gold.PLP.part.hbond>
-3.0000

> <Gold.PLP.part.metal>
0.0000

> <Gold.PLP.part.buried>
-4.1730

> <Gold.PLP.part.nonpolar>
-34.6097

> <Gold.PLP.part.repulsive>
5.2667

> <Gold.PLP.ligand.clash>
0.0000

> <Gold.PLP.ligand.torsion>
0.9851

> <Gold.PLP.Chemscore.Hbond>
2.9600

> <Gold.PLP.Chemscore.CHOScore>
1.0000

> <Gold.PLP.Chemscore.Metal>
0.0000

> <Gold.Chemscore.Hbonds>
donor molecule, donor type, donor heavy atom, donor atom, acceptor molecule, acceptor atom, score
      L1  H     8    27       P1  7948  1.00
      L1  H    11    28       P1  7948  0.93
      P1  H 10752 10764       L1    20  1.00
      L1  C     6    26       P1 10171  0.92

> <Gold.PLP.Chemscore.Internal.Correction>
0.0976

> <Gold.Rescore>
     Score         DG    S(hbond)    S(metal)    S(lipo)     H(rot)  DE(clash)    DE(int)     intcor
     17.20     -19.85       2.91        0.00      77.88       1.74       1.66       0.98       ----

> <Gold.Chemscore.Fitness>
17.2010

> <Gold.Chemscore.DG>
-19.8461

> <Gold.Chemscore.ZeroCoef>
-5.4800

> <Gold.Chemscore.Hbond>
2.9074

> <Gold.Chemscore.Metal>
0.0000

> <Gold.Chemscore.Lipo>
77.8847

> <Gold.Chemscore.Internal_Hbond>
0.0000

> <Gold.Chemscore.DEClash>
1.6605

> <Gold.Chemscore.DEInternal>
0.9846

> <Gold.Chemscore.Rot>
1.7410

> <Gold.Chemscore.Internal.Correction>
   9.000000E+99

> <Gold.Chemscore.Hbonds>
donor molecule, donor type, donor heavy atom, donor atom, acceptor molecule, acceptor atom, score
      L1  H     8    27       P1  7948  0.97
      L1  H    11    28       P1  7948  0.91
      P1  H 10752 10764       L1    20  0.96

> <Gold.Chemscore.Hbond.Weighted>
-9.7107

> <Gold.Chemscore.Metal.Weighted>
-0.0000

> <Gold.Chemscore.Lipo.Weighted>
-9.1125

> <Gold.Chemscore.Internal_Hbond.Weighted>
0.0000

> <Gold.Chemscore.DEClash.Weighted>
1.6605

> <Gold.Chemscore.DEInternal.Weighted>
0.9846

> <Gold.Chemscore.Rot.Weighted>
4.4571

> <Gold.Chemscore.Internal.Correction.Weighted>
   9.000000E+99

> <Gold.Protein.RotatedTorsions>
[ 6907 6896 6895 6894 ] final   58.73 input  -60.11 | X-H torsion
[ 7974 7965 7964 7962 ] final -160.46 input  175.53 | X-H torsion
[ 8008 7997 7996 7995 ] final   41.76 input   59.86 | X-H torsion
[ 10167 10162 10161 10158 ] final  -91.74 input  -65.29 | X-H torsion
[ 10718 10713 10712 10709 ] final   96.58 input   66.30 | X-H torsion
[ 10763 10752 10751 10750 ] final  -71.12 input  -60.55 | X-H torsion
[ 11005 11000 10999 10996 ] final  -28.77 input  -57.11 | X-H torsion

> <Gold.Protein.ActiveResidues>
 VAL166  LYS551  ARG553  GLY616  TRP617  ASP618  TYR619  PRO620  LYS621  CYS622 
 ASP623  PHE694  ASN695  SER759  ASP760  ASP761  ALA762  ILE779  LEU786  VAL792 
 PHE793  MET794  SER795  GLU796  ALA797  LYS798  CYS799  TRP800  GLU811  SER814 

> <Gold.Protein.RotatedAtoms>
  152.3850  134.6531  160.0128 H   0  0  0  0  0  0  0  0  0  0  0  0  # atno 6907 bound_to 6896
  151.6782  133.3307  159.3221 H   0  0  0  0  0  0  0  0  0  0  0  0  # atno 6908 bound_to 6896
  150.7778  134.6740  159.6452 H   0  0  0  0  0  0  0  0  0  0  0  0  # atno 6909 bound_to 6896
  144.7426  140.3538  143.6110 H   0  0  0  0  0  0  0  0  0  0  0  0  # atno 7974 bound_to 7965
  155.2750  140.3368  155.4262 H   0  0  0  0  0  0  0  0  0  0  0  0  # atno 8008 bound_to 7997
  156.2116  140.1772  156.7724 H   0  0  0  0  0  0  0  0  0  0  0  0  # atno 8009 bound_to 7997
  154.5694  140.0673  156.8926 H   0  0  0  0  0  0  0  0  0  0  0  0  # atno 8010 bound_to 7997
  140.3419  143.2937  151.9825 H   0  0  0  0  0  0  0  0  0  0  0  0  # atno 10167 bound_to 10162
  157.6925  131.0582  150.4513 H   0  0  0  0  0  0  0  0  0  0  0  0  # atno 10718 bound_to 10713
  154.4273  135.5972  153.6047 H   0  0  0  0  0  0  0  0  0  0  0  0  # atno 10763 bound_to 10752
  152.9797  135.5966  154.3882 H   0  0  0  0  0  0  0  0  0  0  0  0  # atno 10764 bound_to 10752
  154.3716  135.2841  155.2242 H   0  0  0  0  0  0  0  0  0  0  0  0  # atno 10765 bound_to 10752
  140.9238  133.7382  156.0838 H   0  0  0  0  0  0  0  0  0  0  0  0  # atno 11005 bound_to 11000
  145.7248  139.1720  143.2464 LP  0  0  0  0  0  0  0  0  0  0  0  0  # atno 17320 bound_to 7965
  146.1250  140.7260  142.9439 LP  0  0  0  0  0  0  0  0  0  0  0  0  # atno 17321 bound_to 7965
  139.4839  144.6149  151.7364 LP  0  0  0  0  0  0  0  0  0  0  0  0  # atno 17342 bound_to 10162
  140.5301  144.0744  150.6051 LP  0  0  0  0  0  0  0  0  0  0  0  0  # atno 17343 bound_to 10162
  156.4864  130.4085  149.6431 LP  0  0  0  0  0  0  0  0  0  0  0  0  # atno 17370 bound_to 10713
  156.3458  130.7406  151.2358 LP  0  0  0  0  0  0  0  0  0  0  0  0  # atno 17371 bound_to 10713
  140.7953  134.3570  157.5454 LP  0  0  0  0  0  0  0  0  0  0  0  0  # atno 17394 bound_to 11000
  139.8781  134.9165  156.3156 LP  0  0  0  0  0  0  0  0  0  0  0  0  # atno 17395 bound_to 11000

$$$$
