AV-unprocessed.smi:38|AV-procd|sdf|340|dock4
  -GOLD-   2262016173D 1   1.00000     0.00000
 Structure written by MMmdl.
 28 29  0  0  0  0  0  0  0  0  1 V2000
  153.3620  139.4399  157.6224 O   0  0  0  0  0  0  0  0  0  0  0  0
  152.4448  139.9381  156.9727 C   0  0  0  0  0  0  0  0  0  0  0  0
  151.6984  140.9925  157.5054 N   0  0  0  0  0  0  0  0  0  0  0  0
  150.6349  141.6349  156.8696 C   0  0  0  0  0  0  0  0  0  0  0  0
  150.0600  142.5690  157.4269 O   0  0  0  0  0  0  0  0  0  0  0  0
  150.2680  141.1691  155.5871 N   0  0  0  0  0  0  0  0  0  0  0  0
  149.1258  141.8619  154.8707 C   0  0  2  0  0  0  0  0  0  0  0  0
  147.8010  141.6861  155.6282 C   0  0  0  0  0  0  0  0  0  0  0  0
  146.8256  141.4794  154.4905 C   0  0  2  0  0  0  0  0  0  0  0  0
  145.6372  140.8419  154.9143 O   0  0  0  0  0  0  0  0  0  0  0  0
  147.6574  140.6800  153.4805 C   0  0  2  0  0  0  0  0  0  0  0  0
  147.7828  139.1704  153.7855 C   0  0  0  0  0  0  0  0  0  0  0  0
  148.8606  138.6230  153.0568 O   0  0  0  0  0  0  0  0  0  0  0  0
  148.9423  141.2940  153.6018 O   0  0  0  0  0  0  0  0  0  0  0  0
  151.0026  140.1400  155.0067 C   0  0  0  0  0  0  0  0  0  0  0  0
  152.0358  139.5281  155.6327 C   0  0  0  0  0  0  0  0  0  0  0  0
  152.6962  138.5375  155.0094 F   0  0  0  0  0  0  0  0  0  0  0  0
  151.9531  141.3200  158.4257 H   0  0  0  0  0  0  0  0  0  0  0  0
  149.4364  142.9024  154.7594 H   0  0  0  0  0  0  0  0  0  0  0  0
  146.5687  142.4479  154.0590 H   0  0  0  0  0  0  0  0  0  0  0  0
  147.2604  140.8223  152.4745 H   0  0  0  0  0  0  0  0  0  0  0  0
  147.8511  140.8001  156.2638 H   0  0  0  0  0  0  0  0  0  0  0  0
  147.5748  142.5563  156.2450 H   0  0  0  0  0  0  0  0  0  0  0  0
  145.1038  140.6633  154.1548 H   0  0  0  0  0  0  0  0  0  0  0  0
  147.9070  138.9730  154.8498 H   0  0  0  0  0  0  0  0  0  0  0  0
  146.8881  138.6364  153.4660 H   0  0  0  0  0  0  0  0  0  0  0  0
  149.1778  139.2765  152.4525 H   0  0  0  0  0  0  0  0  0  0  0  0
  150.7634  139.7924  154.0131 H   0  0  0  0  0  0  0  0  0  0  0  0
  1  2  2  0  0  0  0
  2 16  1  0  0  0  0
  2  3  1  0  0  0  0
  3 18  1  0  0  0  0
  3  4  1  0  0  0  0
  4  5  2  0  0  0  0
  4  6  1  0  0  0  0
  6  7  1  0  0  0  0
  6 15  1  0  0  0  0
  7 19  1  0  0  0  0
  7 14  1  0  0  0  0
  7  8  1  0  0  0  0
  8  9  1  0  0  0  0
  8 22  1  0  0  0  0
  8 23  1  0  0  0  0
  9 20  1  0  0  0  0
  9 10  1  0  0  0  0
  9 11  1  0  0  0  0
 10 24  1  0  0  0  0
 11 21  1  0  0  0  0
 11 12  1  0  0  0  0
 11 14  1  0  0  0  0
 12 13  1  0  0  0  0
 12 25  1  0  0  0  0
 12 26  1  0  0  0  0
 13 27  1  0  0  0  0
 15 16  2  0  0  0  0
 15 28  1  0  0  0  0
 16 17  1  0  0  0  0
M  END
> <s_m_source_file>
AV-unprocessed.smi

> <i_m_source_file_index>
38

> <i_lp_mmshare_version>
43012

> <i_f3d_flags>
0

> <s_epik_input>
Tz1jMVtuSF1jKD1PKW4oW2NIXWMxRilbQ0BIXTJbQ0gyXVtDQEhdKFtPSF0pW0NASF0oTzIpW0NIMl1bT0hd

> <s_epik_cmdline>
J2VwaWtfcHl0aG9uJywgJy1waCcsICc3LjAnLCAnLXRuJywgJzgnLCAnLW1hJywgJzIwMCcsICctbWV0YWxfYmluZGluZycsICctaW1hZScsICc8aW5maWxlLm1hZT4nLCAnLW9tYWUnLCAnPG91dGZpbGUubWFlPic=

> <r_lp_tautomer_probability>
0.999537

> <r_epik_Ionization_Penalty>
0.0357432

> <r_epik_Ionization_Penalty_Charging>
0.0357431

> <r_epik_Ionization_Penalty_Neutral>
1.19946e-07

> <r_epik_State_Penalty>
0.0298169

> <r_epik_Charging_Adjusted_Penalty>
0.06556

> <i_epik_Tot_Q>
0

> <i_epik_Tot_abs_Q>
0

> <r_epik_Metal_State_Penalty>
2.348

> <b_epik_Metal_Only>
0

> <s_epik_Chemistry_Notes>
This compound contains an acetal/aminal-like group ( X-CH(R)-Y where X, Y are N, S, or O) that may be acid/base labile, releasing an aldehyde.

> <s_lp_Force_Field>
OPLS_2005

> <r_lp_Energy>
30.3129

> <b_lp_Chiralities_Consistent>
1

> <s_lp_Variant>
AV-unprocessed.smi:38-6

> <Gold.Version>
5.8.1

> <Gold.Id.Protein>
6NUR|6NUR_protein|mol2

> <Gold.PLP.Fitness>
38.9838

> <Gold.PLP.PLP>
-27.8229

> <Gold.PLP.part.hbond>
-5.5035

> <Gold.PLP.part.metal>
0.0000

> <Gold.PLP.part.buried>
0.6321

> <Gold.PLP.part.nonpolar>
-25.1396

> <Gold.PLP.part.repulsive>
2.4240

> <Gold.PLP.ligand.clash>
0.0000

> <Gold.PLP.ligand.torsion>
0.1168

> <Gold.PLP.Chemscore.Hbond>
3.7905

> <Gold.PLP.Chemscore.CHOScore>
0.0000

> <Gold.PLP.Chemscore.Metal>
0.0000

> <Gold.Chemscore.Hbonds>
donor molecule, donor type, donor heavy atom, donor atom, acceptor molecule, acceptor atom, score
      L1  H    10    24       P1 10175  0.59
      L1  H    13    27       P1  7957  1.00
      P1  H  7997  8008       L1     1  0.94
      P1  H  8011  8017       L1    14  0.90

> <Gold.PLP.Chemscore.Internal.Correction>
0.0229

> <Gold.Rescore>
     Score         DG    S(hbond)    S(metal)    S(lipo)     H(rot)  DE(clash)    DE(int)     intcor
      9.83     -11.98       2.95        0.00      35.16       2.91       1.33       0.83       ----

> <Gold.Chemscore.Fitness>
9.8252

> <Gold.Chemscore.DG>
-11.9834

> <Gold.Chemscore.ZeroCoef>
-5.4800

> <Gold.Chemscore.Hbond>
2.9491

> <Gold.Chemscore.Metal>
0.0000

> <Gold.Chemscore.Lipo>
35.1571

> <Gold.Chemscore.Internal_Hbond>
0.0000

> <Gold.Chemscore.DEClash>
1.3312

> <Gold.Chemscore.DEInternal>
0.8270

> <Gold.Chemscore.Rot>
2.9141

> <Gold.Chemscore.Internal.Correction>
   9.000000E+99

> <Gold.Chemscore.Hbonds>
donor molecule, donor type, donor heavy atom, donor atom, acceptor molecule, acceptor atom, score
      L1  H    10    24       P1 10175  0.58
      L1  H    13    27       P1  7957  0.95
      P1  H  7997  8008       L1     1  0.70
      P1  H  8011  8017       L1    14  0.57

> <Gold.Chemscore.Hbond.Weighted>
-9.8501

> <Gold.Chemscore.Metal.Weighted>
-0.0000

> <Gold.Chemscore.Lipo.Weighted>
-4.1134

> <Gold.Chemscore.Internal_Hbond.Weighted>
0.0000

> <Gold.Chemscore.DEClash.Weighted>
1.3312

> <Gold.Chemscore.DEInternal.Weighted>
0.8270

> <Gold.Chemscore.Rot.Weighted>
7.4601

> <Gold.Chemscore.Internal.Correction.Weighted>
   9.000000E+99

> <Gold.Protein.RotatedTorsions>
[ 6907 6896 6895 6894 ] final -153.92 input  -60.11 | X-H torsion
[ 7974 7965 7964 7962 ] final  153.90 input  175.53 | X-H torsion
[ 8008 7997 7996 7995 ] final  -99.01 input   59.86 | X-H torsion
[ 10167 10162 10161 10158 ] final  -26.90 input  -65.29 | X-H torsion
[ 10718 10713 10712 10709 ] final  -67.57 input   66.30 | X-H torsion
[ 10763 10752 10751 10750 ] final -139.87 input  -60.55 | X-H torsion
[ 11005 11000 10999 10996 ] final -150.43 input  -57.11 | X-H torsion

> <Gold.Protein.ActiveResidues>
 VAL166  LYS551  ARG553  GLY616  TRP617  ASP618  TYR619  PRO620  LYS621  CYS622 
 ASP623  PHE694  ASN695  SER759  ASP760  ASP761  ALA762  ILE779  LEU786  VAL792 
 PHE793  MET794  SER795  GLU796  ALA797  LYS798  CYS799  TRP800  GLU811  SER814 

> <Gold.Protein.RotatedAtoms>
  151.2498  133.4356  159.2610 H   0  0  0  0  0  0  0  0  0  0  0  0  # atno 6907 bound_to 6896
  151.0628  134.9748  159.8279 H   0  0  0  0  0  0  0  0  0  0  0  0  # atno 6908 bound_to 6896
  152.5401  134.2447  159.8928 H   0  0  0  0  0  0  0  0  0  0  0  0  # atno 6909 bound_to 6896
  144.8123  139.6863  143.6136 H   0  0  0  0  0  0  0  0  0  0  0  0  # atno 7974 bound_to 7965
  154.8089  140.0451  157.1328 H   0  0  0  0  0  0  0  0  0  0  0  0  # atno 8008 bound_to 7997
  154.9391  140.3050  155.5109 H   0  0  0  0  0  0  0  0  0  0  0  0  # atno 8009 bound_to 7997
  156.2969  140.2309  156.4458 H   0  0  0  0  0  0  0  0  0  0  0  0  # atno 8010 bound_to 7997
  140.7280  143.4139  151.1061 H   0  0  0  0  0  0  0  0  0  0  0  0  # atno 10167 bound_to 10162
  156.0550  130.4280  150.1874 H   0  0  0  0  0  0  0  0  0  0  0  0  # atno 10718 bound_to 10713
  154.8596  135.3570  154.5616 H   0  0  0  0  0  0  0  0  0  0  0  0  # atno 10763 bound_to 10752
  153.6231  135.7005  153.5308 H   0  0  0  0  0  0  0  0  0  0  0  0  # atno 10764 bound_to 10752
  153.3112  135.4178  155.1297 H   0  0  0  0  0  0  0  0  0  0  0  0  # atno 10765 bound_to 10752
  140.7403  134.3522  157.5149 H   0  0  0  0  0  0  0  0  0  0  0  0  # atno 11005 bound_to 11000
  146.2423  139.6027  142.9483 LP  0  0  0  0  0  0  0  0  0  0  0  0  # atno 17320 bound_to 7965
  145.5294  141.0428  143.2391 LP  0  0  0  0  0  0  0  0  0  0  0  0  # atno 17321 bound_to 7965
  139.7776  143.8403  152.3132 LP  0  0  0  0  0  0  0  0  0  0  0  0  # atno 17342 bound_to 10162
  139.8343  144.7239  150.9411 LP  0  0  0  0  0  0  0  0  0  0  0  0  # atno 17343 bound_to 10162
  156.9951  130.9905  151.3405 LP  0  0  0  0  0  0  0  0  0  0  0  0  # atno 17370 bound_to 10713
  157.5512  130.8184  149.8148 LP  0  0  0  0  0  0  0  0  0  0  0  0  # atno 17371 bound_to 10713
  139.8807  134.9076  156.2949 LP  0  0  0  0  0  0  0  0  0  0  0  0  # atno 17394 bound_to 11000
  140.9843  133.7248  156.0718 LP  0  0  0  0  0  0  0  0  0  0  0  0  # atno 17395 bound_to 11000

$$$$
