AV-unprocessed.smi:2489|AV-procd|sdf|9801|dock3
  -GOLD-   2272013433D 1   1.00000     0.00000
 Structure written by MMmdl.
 33 34  0  0  0  0  0  0  0  0  1 V2000
  152.7324  143.4866  161.7332 C   0  0  0  0  0  0  0  0  0  0  0  0
  153.2903  142.9744  160.5314 O   0  0  0  0  0  0  0  0  0  0  0  0
  152.5424  143.0945  159.3827 C   0  0  0  0  0  0  0  0  0  0  0  0
  152.1611  144.3798  158.8025 C   0  0  0  0  0  0  0  0  0  0  0  0
  151.4314  144.3774  157.6771 C   0  0  0  0  0  0  0  0  0  0  0  0
  151.0340  143.2028  157.0552 N   0  0  0  0  0  0  0  0  0  0  0  0
  151.3643  141.9319  157.5586 C   0  0  0  0  0  0  0  0  0  0  0  0
  151.0229  140.7958  157.0235 N   0  0  0  0  0  0  0  0  0  0  0  0
  150.2754  140.7107  155.8517 C   0  0  0  0  0  0  0  0  0  0  0  0
  150.6611  140.6059  154.6838 O   0  0  0  0  0  0  0  0  0  0  0  0
  148.7681  140.7543  156.1372 C   0  0  2  0  0  0  0  0  0  0  0  0
  148.0027  139.5669  155.5267 C   0  0  0  0  0  0  0  0  0  0  0  0
  147.1897  140.1989  154.4146 C   0  0  0  0  0  0  0  0  0  0  0  0
  146.9568  141.6045  154.9557 C   0  0  2  0  0  0  0  0  0  0  0  0
  146.5831  142.6342  153.8843 C   0  0  0  0  0  0  0  0  0  0  0  0
  148.2082  141.9265  155.5428 O   0  0  0  0  0  0  0  0  0  0  0  0
  152.1555  141.9449  158.7814 C   0  0  0  0  0  0  0  0  0  0  0  0
  153.4342  143.3243  162.5512 H   0  0  0  0  0  0  0  0  0  0  0  0
  151.8033  142.9773  161.9928 H   0  0  0  0  0  0  0  0  0  0  0  0
  152.5516  144.5603  161.6652 H   0  0  0  0  0  0  0  0  0  0  0  0
  152.4421  145.3232  159.2453 H   0  0  0  0  0  0  0  0  0  0  0  0
  151.1048  145.2797  157.1817 H   0  0  0  0  0  0  0  0  0  0  0  0
  148.5983  140.7950  157.2145 H   0  0  0  0  0  0  0  0  0  0  0  0
  148.6452  138.7669  155.1553 H   0  0  0  0  0  0  0  0  0  0  0  0
  147.3393  139.1329  156.2760 H   0  0  0  0  0  0  0  0  0  0  0  0
  147.7810  140.2360  153.4985 H   0  0  0  0  0  0  0  0  0  0  0  0
  146.2642  139.6627  154.2040 H   0  0  0  0  0  0  0  0  0  0  0  0
  146.1978  141.5813  155.7398 H   0  0  0  0  0  0  0  0  0  0  0  0
  145.6383  142.3751  153.4061 H   0  0  0  0  0  0  0  0  0  0  0  0
  147.3471  142.6924  153.1084 H   0  0  0  0  0  0  0  0  0  0  0  0
  146.4754  143.6274  154.3207 H   0  0  0  0  0  0  0  0  0  0  0  0
  152.4605  141.0181  159.2462 H   0  0  0  0  0  0  0  0  0  0  0  0
  150.4854  143.3032  156.2127 H   0  0  0  0  0  0  0  0  0  0  0  0
  1  2  1  0  0  0  0
  1 18  1  0  0  0  0
  1 19  1  0  0  0  0
  1 20  1  0  0  0  0
  2  3  1  0  0  0  0
  3 17  2  0  0  0  0
  3  4  1  0  0  0  0
  4  5  2  0  0  0  0
  4 21  1  0  0  0  0
  5  6  1  0  0  0  0
  5 22  1  0  0  0  0
  6  7  1  0  0  0  0
  6 33  1  0  0  0  0
  7  8  2  0  0  0  0
  7 17  1  0  0  0  0
  8  9  1  0  0  0  0
  9 10  2  0  0  0  0
  9 11  1  0  0  0  0
 11 16  1  0  0  0  0
 11 12  1  0  0  0  0
 11 23  1  0  0  0  0
 12 13  1  0  0  0  0
 12 24  1  0  0  0  0
 12 25  1  0  0  0  0
 13 14  1  0  0  0  0
 13 26  1  0  0  0  0
 13 27  1  0  0  0  0
 14 15  1  0  0  0  0
 14 16  1  0  0  0  0
 14 28  1  0  0  0  0
 15 29  1  0  0  0  0
 15 30  1  0  0  0  0
 15 31  1  0  0  0  0
 17 32  1  0  0  0  0
M  END
> <s_m_source_file>
AV-unprocessed.smi

> <i_m_source_file_index>
2489

> <i_lp_mmshare_version>
43012

> <i_f3d_flags>
0

> <s_epik_input>
W0NIM11PYzFbY0hdW2NIXW5jKFtjSF0xKVtOSF1DKD1PKVtDQEBIXTJbQ0gyXVtDSDJdW0NASF0oTzIpW0NIM10=

> <s_epik_cmdline>
J2VwaWtfcHl0aG9uJywgJy1waCcsICc3LjAnLCAnLXRuJywgJzgnLCAnLW1hJywgJzIwMCcsICctbWV0YWxfYmluZGluZycsICctaW1hZScsICc8aW5maWxlLm1hZT4nLCAnLW9tYWUnLCAnPG91dGZpbGUubWFlPic=

> <r_epik_Ionization_Penalty>
0.410206

> <r_epik_Ionization_Penalty_Charging>
0.410206

> <r_epik_Ionization_Penalty_Neutral>
6.57528e-13

> <r_epik_State_Penalty>
1.30987

> <r_epik_Charging_Adjusted_Penalty>
1.72007

> <i_epik_Tot_Q>
0

> <i_epik_Tot_abs_Q>
0

> <r_epik_Metal_State_Penalty>
1.32171

> <b_epik_Metal_Only>
0

> <s_lp_Force_Field>
OPLS_2005

> <r_lp_Energy>
35.4329

> <b_lp_Chiralities_Consistent>
1

> <s_lp_Variant>
AV-unprocessed.smi:2489-7

> <Gold.Version>
5.8.1

> <Gold.Id.Protein>
6NUR|6NUR_protein|mol2

> <Gold.PLP.Fitness>
37.2418

> <Gold.PLP.PLP>
-32.8565

> <Gold.PLP.part.hbond>
-1.8401

> <Gold.PLP.part.metal>
0.0000

> <Gold.PLP.part.buried>
-5.1073

> <Gold.PLP.part.nonpolar>
-26.1118

> <Gold.PLP.part.repulsive>
0.6181

> <Gold.PLP.ligand.clash>
0.0000

> <Gold.PLP.ligand.torsion>
0.8094

> <Gold.PLP.Chemscore.Hbond>
1.3182

> <Gold.PLP.Chemscore.CHOScore>
0.6805

> <Gold.PLP.Chemscore.Metal>
0.0000

> <Gold.Chemscore.Hbonds>
donor molecule, donor type, donor heavy atom, donor atom, acceptor molecule, acceptor atom, score
      L1  H     6    33       P1  8028  0.35
      P1  H  7989  7998       L1    10  0.98
      L1  C     5    22       P1  8028  0.36

> <Gold.PLP.Chemscore.Internal.Correction>
0.0079

> <Gold.Rescore>
     Score         DG    S(hbond)    S(metal)    S(lipo)     H(rot)  DE(clash)    DE(int)     intcor
     15.11     -16.03       1.24        0.00      81.72       1.23       0.15       0.77       ----

> <Gold.Chemscore.Fitness>
15.1124

> <Gold.Chemscore.DG>
-16.0330

> <Gold.Chemscore.ZeroCoef>
-5.4800

> <Gold.Chemscore.Hbond>
1.2370

> <Gold.Chemscore.Metal>
0.0000

> <Gold.Chemscore.Lipo>
81.7173

> <Gold.Chemscore.Internal_Hbond>
0.0000

> <Gold.Chemscore.DEClash>
0.1500

> <Gold.Chemscore.DEInternal>
0.7706

> <Gold.Chemscore.Rot>
1.2264

> <Gold.Chemscore.Internal.Correction>
   9.000000E+99

> <Gold.Chemscore.Hbonds>
donor molecule, donor type, donor heavy atom, donor atom, acceptor molecule, acceptor atom, score
      L1  H     6    33       P1  8028  0.36
      P1  H  7989  7998       L1    10  0.89

> <Gold.Chemscore.Hbond.Weighted>
-4.1316

> <Gold.Chemscore.Metal.Weighted>
-0.0000

> <Gold.Chemscore.Lipo.Weighted>
-9.5609

> <Gold.Chemscore.Internal_Hbond.Weighted>
0.0000

> <Gold.Chemscore.DEClash.Weighted>
0.1500

> <Gold.Chemscore.DEInternal.Weighted>
0.7706

> <Gold.Chemscore.Rot.Weighted>
3.1396

> <Gold.Chemscore.Internal.Correction.Weighted>
   9.000000E+99

> <Gold.Protein.RotatedTorsions>
[ 6907 6896 6895 6894 ] final   17.91 input  -60.11 | X-H torsion
[ 7974 7965 7964 7962 ] final  -51.55 input  175.53 | X-H torsion
[ 8008 7997 7996 7995 ] final   54.00 input   59.86 | X-H torsion
[ 10167 10162 10161 10158 ] final    5.69 input  -65.29 | X-H torsion
[ 10718 10713 10712 10709 ] final  108.10 input   66.30 | X-H torsion
[ 10763 10752 10751 10750 ] final  129.46 input  -60.55 | X-H torsion
[ 11005 11000 10999 10996 ] final  111.64 input  -57.11 | X-H torsion

> <Gold.Protein.ActiveResidues>
 VAL166  LYS551  ARG553  GLY616  TRP617  ASP618  TYR619  PRO620  LYS621  CYS622 
 ASP623  PHE694  ASN695  SER759  ASP760  ASP761  ALA762  ILE779  LEU786  VAL792 
 PHE793  MET794  SER795  GLU796  ALA797  LYS798  CYS799  TRP800  GLU811  SER814 

> <Gold.Protein.RotatedAtoms>
  151.8570  135.0537  160.0464 H   0  0  0  0  0  0  0  0  0  0  0  0  # atno 6907 bound_to 6896
  152.2692  133.5363  159.5437 H   0  0  0  0  0  0  0  0  0  0  0  0  # atno 6908 bound_to 6896
  150.7145  134.0637  159.3882 H   0  0  0  0  0  0  0  0  0  0  0  0  # atno 6909 bound_to 6896
  145.9177  140.7861  142.9663 H   0  0  0  0  0  0  0  0  0  0  0  0  # atno 7974 bound_to 7965
  155.4775  140.3467  155.4335 H   0  0  0  0  0  0  0  0  0  0  0  0  # atno 8008 bound_to 7997
  156.1060  140.1448  156.9431 H   0  0  0  0  0  0  0  0  0  0  0  0  # atno 8009 bound_to 7997
  154.4725  140.0896  156.7158 H   0  0  0  0  0  0  0  0  0  0  0  0  # atno 8010 bound_to 7997
  140.6468  143.7641  150.7512 H   0  0  0  0  0  0  0  0  0  0  0  0  # atno 10167 bound_to 10162
  157.6600  131.0886  150.6255 H   0  0  0  0  0  0  0  0  0  0  0  0  # atno 10718 bound_to 10713
  153.7420  135.3222  155.3306 H   0  0  0  0  0  0  0  0  0  0  0  0  # atno 10763 bound_to 10752
  154.8292  135.4547  154.1017 H   0  0  0  0  0  0  0  0  0  0  0  0  # atno 10764 bound_to 10752
  153.2194  135.6946  153.8100 H   0  0  0  0  0  0  0  0  0  0  0  0  # atno 10765 bound_to 10752
  139.8908  134.9512  156.6463 H   0  0  0  0  0  0  0  0  0  0  0  0  # atno 11005 bound_to 11000
  144.6749  140.1926  143.7395 LP  0  0  0  0  0  0  0  0  0  0  0  0  # atno 17320 bound_to 7965
  145.8590  139.2213  143.1727 LP  0  0  0  0  0  0  0  0  0  0  0  0  # atno 17321 bound_to 7965
  140.1284  143.4548  152.2270 LP  0  0  0  0  0  0  0  0  0  0  0  0  # atno 17342 bound_to 10162
  139.5680  144.7446  151.3969 LP  0  0  0  0  0  0  0  0  0  0  0  0  # atno 17343 bound_to 10162
  156.6558  130.4498  149.5704 LP  0  0  0  0  0  0  0  0  0  0  0  0  # atno 17370 bound_to 10713
  156.2103  130.6675  151.1263 LP  0  0  0  0  0  0  0  0  0  0  0  0  # atno 17371 bound_to 10713
  140.7555  133.8861  155.8379 LP  0  0  0  0  0  0  0  0  0  0  0  0  # atno 17394 bound_to 11000
  140.9965  134.1208  157.4358 LP  0  0  0  0  0  0  0  0  0  0  0  0  # atno 17395 bound_to 11000

$$$$
