AV-unprocessed.smi:1663|AV-procd|sdf|6665|dock4
  -GOLD-   22720 7373D 1   1.00000     0.00000
 Structure written by MMmdl.
 39 40  0  0  0  0  0  0  0  0  2 V2000
  146.9064  135.9225  154.5373 C   0  0  0  0  0  0  0  0  0  0  0  0
  147.5054  137.2301  154.1938 N   0  3  2  0  0  0  0  0  0  0  0  0
  148.5508  137.6449  155.1616 C   0  0  0  0  0  0  0  0  0  0  0  0
  149.2408  138.9432  154.7090 C   0  0  0  0  0  0  0  0  0  0  0  0
  148.2195  140.0787  154.4954 C   0  0  1  0  0  0  0  0  0  0  0  0
  148.8722  141.3838  153.9919 C   0  0  0  0  0  0  0  0  0  0  0  0
  149.3423  142.2398  155.0768 N   0  0  0  0  0  0  0  0  0  0  0  0
  150.2781  141.8999  155.9749 C   0  0  0  0  0  0  0  0  0  0  0  0
  150.8742  140.8225  155.9564 O   0  0  0  0  0  0  0  0  0  0  0  0
  150.4670  142.8801  156.8762 N   0  0  0  0  0  0  0  0  0  0  0  0
  151.3359  142.8851  158.0000 C   0  0  0  0  0  0  0  0  0  0  0  0
  151.3141  144.0713  158.7679 C   0  0  0  0  0  0  0  0  0  0  0  0
  152.1349  144.1741  159.9078 C   0  0  0  0  0  0  0  0  0  0  0  0
  152.9577  143.0867  160.2509 C   0  0  0  0  0  0  0  0  0  0  0  0
  152.9209  141.9432  159.4319 C   0  0  0  0  0  0  0  0  0  0  0  0
  152.1354  141.8427  158.3387 N   0  0  0  0  0  0  0  0  0  0  0  0
  147.1300  139.5977  153.5202 C   0  0  0  0  0  0  0  0  0  0  0  0
  146.4831  138.2870  153.9973 C   0  0  0  0  0  0  0  0  0  0  0  0
  146.3918  135.9671  155.4980 H   0  0  0  0  0  0  0  0  0  0  0  0
  147.6748  135.1511  154.5957 H   0  0  0  0  0  0  0  0  0  0  0  0
  146.1866  135.6164  153.7774 H   0  0  0  0  0  0  0  0  0  0  0  0
  148.1032  137.7817  156.1473 H   0  0  0  0  0  0  0  0  0  0  0  0
  149.2942  136.8528  155.2580 H   0  0  0  0  0  0  0  0  0  0  0  0
  149.9812  139.2329  155.4551 H   0  0  0  0  0  0  0  0  0  0  0  0
  149.7898  138.7610  153.7840 H   0  0  0  0  0  0  0  0  0  0  0  0
  147.7382  140.2854  155.4527 H   0  0  0  0  0  0  0  0  0  0  0  0
  149.7259  141.1514  153.3549 H   0  0  0  0  0  0  0  0  0  0  0  0
  148.1708  141.9417  153.3688 H   0  0  0  0  0  0  0  0  0  0  0  0
  148.9037  143.1448  155.1654 H   0  0  0  0  0  0  0  0  0  0  0  0
  149.9077  143.7118  156.7585 H   0  0  0  0  0  0  0  0  0  0  0  0
  150.6744  144.8967  158.4914 H   0  0  0  0  0  0  0  0  0  0  0  0
  152.1321  145.0716  160.5084 H   0  0  0  0  0  0  0  0  0  0  0  0
  153.6003  143.1274  161.1180 H   0  0  0  0  0  0  0  0  0  0  0  0
  153.5379  141.0870  159.6602 H   0  0  0  0  0  0  0  0  0  0  0  0
  146.3622  140.3647  153.4124 H   0  0  0  0  0  0  0  0  0  0  0  0
  147.5598  139.4513  152.5281 H   0  0  0  0  0  0  0  0  0  0  0  0
  145.7512  137.9545  153.2601 H   0  0  0  0  0  0  0  0  0  0  0  0
  145.9418  138.4524  154.9303 H   0  0  0  0  0  0  0  0  0  0  0  0
  147.9679  137.1075  153.3041 H   0  0  0  0  0  0  0  0  0  0  0  0
  1  2  1  0  0  0  0
  1 19  1  0  0  0  0
  1 20  1  0  0  0  0
  1 21  1  0  0  0  0
  2 18  1  0  0  0  0
  2  3  1  0  0  0  0
  2 39  1  0  0  0  0
  3  4  1  0  0  0  0
  3 22  1  0  0  0  0
  3 23  1  0  0  0  0
  4  5  1  0  0  0  0
  4 24  1  0  0  0  0
  4 25  1  0  0  0  0
  5  6  1  0  0  0  0
  5 17  1  0  0  0  0
  5 26  1  0  0  0  0
  6  7  1  0  0  0  0
  6 27  1  0  0  0  0
  6 28  1  0  0  0  0
  7  8  1  0  0  0  0
  7 29  1  0  0  0  0
  8  9  2  0  0  0  0
  8 10  1  0  0  0  0
 10 11  1  0  0  0  0
 10 30  1  0  0  0  0
 11 16  1  0  0  0  0
 11 12  2  0  0  0  0
 12 13  1  0  0  0  0
 12 31  1  0  0  0  0
 13 14  2  0  0  0  0
 13 32  1  0  0  0  0
 14 15  1  0  0  0  0
 14 33  1  0  0  0  0
 15 16  2  0  0  0  0
 15 34  1  0  0  0  0
 17 18  1  0  0  0  0
 17 35  1  0  0  0  0
 17 36  1  0  0  0  0
 18 37  1  0  0  0  0
 18 38  1  0  0  0  0
M  CHG  1   2   1
M  END
> <s_m_source_file>
AV-unprocessed.smi

> <i_m_source_file_index>
1663

> <i_lp_mmshare_version>
43012

> <i_f3d_flags>
0

> <s_epik_input>
W0NIM11OMVtDSDJdW0NIMl1bQ0hdKFtDSDJdW0NIMl0xKVtDSDJdW05IXUMoPU8pW05IXWMyW2NIXVtjSF1bY0hdW2NIXW4y

> <s_epik_cmdline>
J2VwaWtfcHl0aG9uJywgJy1waCcsICc3LjAnLCAnLXRuJywgJzgnLCAnLW1hJywgJzIwMCcsICctbWV0YWxfYmluZGluZycsICctaW1hZScsICc8aW5maWxlLm1hZT4nLCAnLW9tYWUnLCAnPG91dGZpbGUubWFlPic=

> <r_epik_Ionization_Penalty>
0.00110639

> <r_epik_Ionization_Penalty_Charging>
0.00106265

> <r_epik_Ionization_Penalty_Neutral>
4.37361e-05

> <r_epik_State_Penalty>
0.000695551

> <r_epik_Charging_Adjusted_Penalty>
0.0017582

> <i_epik_Tot_Q>
1

> <i_epik_Tot_abs_Q>
1

> <r_epik_Metal_State_Penalty>
-0

> <b_epik_Metal_Only>
0

> <s_lp_Force_Field>
OPLS_2005

> <r_lp_Energy>
18.6494

> <b_lp_Chiralities_Consistent>
1

> <s_lp_Variant>
AV-unprocessed.smi:1663-1

> <Gold.Version>
5.8.1

> <Gold.Id.Protein>
6NUR|6NUR_protein|mol2

> <Gold.PLP.Fitness>
43.7635

> <Gold.PLP.PLP>
-32.4913

> <Gold.PLP.part.hbond>
-3.0151

> <Gold.PLP.part.metal>
0.0000

> <Gold.PLP.part.buried>
-2.1121

> <Gold.PLP.part.nonpolar>
-27.4757

> <Gold.PLP.part.repulsive>
0.2860

> <Gold.PLP.ligand.clash>
0.0000

> <Gold.PLP.ligand.torsion>
0.3537

> <Gold.PLP.Chemscore.Hbond>
3.9920

> <Gold.PLP.Chemscore.CHOScore>
0.0000

> <Gold.PLP.Chemscore.Metal>
0.0000

> <Gold.Chemscore.Hbonds>
donor molecule, donor type, donor heavy atom, donor atom, acceptor molecule, acceptor atom, score
      L1  H     2    39       P1  7948  2.00
      L1  H     7    29       P1  8028  1.00
      L1  H    10    30       P1  8028  0.98

> <Gold.PLP.Chemscore.Internal.Correction>
0.0036

> <Gold.Rescore>
     Score         DG    S(hbond)    S(metal)    S(lipo)     H(rot)  DE(clash)    DE(int)     intcor
     17.81     -21.24       2.94        0.00      78.82       1.28       0.44       3.00       ----

> <Gold.Chemscore.Fitness>
17.8067

> <Gold.Chemscore.DG>
-21.2404

> <Gold.Chemscore.ZeroCoef>
-5.4800

> <Gold.Chemscore.Hbond>
2.9364

> <Gold.Chemscore.Metal>
0.0000

> <Gold.Chemscore.Lipo>
78.8200

> <Gold.Chemscore.Internal_Hbond>
0.0000

> <Gold.Chemscore.DEClash>
0.4377

> <Gold.Chemscore.DEInternal>
2.9960

> <Gold.Chemscore.Rot>
1.2770

> <Gold.Chemscore.Internal.Correction>
   9.000000E+99

> <Gold.Chemscore.Hbonds>
donor molecule, donor type, donor heavy atom, donor atom, acceptor molecule, acceptor atom, score
      L1  H     2    39       P1  7948  0.98
      L1  H     7    29       P1  8028  0.97
      L1  H    10    30       P1  8028  0.93

> <Gold.Chemscore.Hbond.Weighted>
-9.8076

> <Gold.Chemscore.Metal.Weighted>
-0.0000

> <Gold.Chemscore.Lipo.Weighted>
-9.2219

> <Gold.Chemscore.Internal_Hbond.Weighted>
0.0000

> <Gold.Chemscore.DEClash.Weighted>
0.4377

> <Gold.Chemscore.DEInternal.Weighted>
2.9960

> <Gold.Chemscore.Rot.Weighted>
3.2691

> <Gold.Chemscore.Internal.Correction.Weighted>
   9.000000E+99

> <Gold.Protein.RotatedTorsions>
[ 6907 6896 6895 6894 ] final -163.46 input  -60.11 | X-H torsion
[ 7974 7965 7964 7962 ] final -176.12 input  175.53 | X-H torsion
[ 8008 7997 7996 7995 ] final  131.72 input   59.86 | X-H torsion
[ 10167 10162 10161 10158 ] final  169.01 input  -65.29 | X-H torsion
[ 10718 10713 10712 10709 ] final  -50.07 input   66.30 | X-H torsion
[ 10763 10752 10751 10750 ] final  -40.40 input  -60.55 | X-H torsion
[ 11005 11000 10999 10996 ] final  147.56 input  -57.11 | X-H torsion

> <Gold.Protein.ActiveResidues>
 VAL166  LYS551  ARG553  GLY616  TRP617  ASP618  TYR619  PRO620  LYS621  CYS622 
 ASP623  PHE694  ASN695  SER759  ASP760  ASP761  ALA762  ILE779  LEU786  VAL792 
 PHE793  MET794  SER795  GLU796  ALA797  LYS798  CYS799  TRP800  GLU811  SER814 

> <Gold.Protein.RotatedAtoms>
  151.3964  133.3772  159.2726 H   0  0  0  0  0  0  0  0  0  0  0  0  # atno 6907 bound_to 6896
  150.9466  134.8872  159.7656 H   0  0  0  0  0  0  0  0  0  0  0  0  # atno 6908 bound_to 6896
  152.5094  134.3917  159.9438 H   0  0  0  0  0  0  0  0  0  0  0  0  # atno 6909 bound_to 6896
  144.7127  140.1218  143.6404 H   0  0  0  0  0  0  0  0  0  0  0  0  # atno 7974 bound_to 7965
  156.2974  140.2564  156.2972 H   0  0  0  0  0  0  0  0  0  0  0  0  # atno 8008 bound_to 7997
  154.9452  140.0395  157.2135 H   0  0  0  0  0  0  0  0  0  0  0  0  # atno 8009 bound_to 7997
  154.8088  140.2841  155.5872 H   0  0  0  0  0  0  0  0  0  0  0  0  # atno 8010 bound_to 7997
  139.4982  144.3752  151.9681 H   0  0  0  0  0  0  0  0  0  0  0  0  # atno 10167 bound_to 10162
  156.1834  130.4151  149.9474 H   0  0  0  0  0  0  0  0  0  0  0  0  # atno 10718 bound_to 10713
  153.9454  135.6756  153.4744 H   0  0  0  0  0  0  0  0  0  0  0  0  # atno 10763 bound_to 10752
  153.0911  135.4874  154.8687 H   0  0  0  0  0  0  0  0  0  0  0  0  # atno 10764 bound_to 10752
  154.7354  135.3148  154.8778 H   0  0  0  0  0  0  0  0  0  0  0  0  # atno 10765 bound_to 10752
  140.0886  134.9055  157.1614 H   0  0  0  0  0  0  0  0  0  0  0  0  # atno 11005 bound_to 11000
  145.9364  139.2640  143.1294 LP  0  0  0  0  0  0  0  0  0  0  0  0  # atno 17320 bound_to 7965
  145.9469  140.8938  143.0279 LP  0  0  0  0  0  0  0  0  0  0  0  0  # atno 17321 bound_to 7965
  140.3189  144.3451  150.6014 LP  0  0  0  0  0  0  0  0  0  0  0  0  # atno 17342 bound_to 10162
  140.5739  143.2178  151.7550 LP  0  0  0  0  0  0  0  0  0  0  0  0  # atno 17343 bound_to 10162
  156.7237  130.9016  151.3620 LP  0  0  0  0  0  0  0  0  0  0  0  0  # atno 17370 bound_to 10713
  157.6883  130.9208  150.0445 LP  0  0  0  0  0  0  0  0  0  0  0  0  # atno 17371 bound_to 10713
  140.3385  134.2730  155.7216 LP  0  0  0  0  0  0  0  0  0  0  0  0  # atno 17394 bound_to 11000
  141.2070  133.7816  157.0142 LP  0  0  0  0  0  0  0  0  0  0  0  0  # atno 17395 bound_to 11000

$$$$
