AV-unprocessed.smi:334|AV-procd|sdf|2368|dock10
  -GOLD-   2262022283D 1   1.00000     0.00000
 Structure written by MMmdl.
 44 46  0  0  0  0  0  0  0  0  3 V2000
  146.1218  142.9446  156.2024 C   0  0  0  0  0  0  0  0  0  0  0  0
  147.2367  141.9905  156.6696 C   0  0  2  0  0  0  0  0  0  0  0  0
  148.4614  142.7609  156.8806 N   0  0  0  0  0  0  0  0  0  0  0  0
  149.3698  142.5360  157.8422 C   0  0  0  0  0  0  0  0  0  0  0  0
  149.2682  141.6285  158.6690 O   0  0  0  0  0  0  0  0  0  0  0  0
  150.5830  143.4769  157.8509 C   0  0  0  0  0  0  0  0  0  0  0  0
  151.4784  143.2612  159.0001 N   0  0  0  0  0  0  0  0  0  0  0  0
  152.4980  142.3010  158.8464 C   0  0  0  0  0  0  0  0  0  0  0  0
  153.3690  142.0173  159.8346 C   0  0  0  0  0  0  0  0  0  0  0  0
  154.4067  141.0247  159.6608 N   0  3  0  0  0  0  0  0  0  0  0  0
  154.4482  140.3948  158.6088 O   0  0  0  0  0  0  0  0  0  0  0  0
  155.2131  140.8408  160.5678 O   0  5  0  0  0  0  0  0  0  0  0  0
  153.2293  142.7393  161.0845 C   0  0  0  0  0  0  0  0  0  0  0  0
  152.2543  143.6566  161.2386 C   0  0  0  0  0  0  0  0  0  0  0  0
  151.3054  143.9614  160.1628 C   0  0  0  0  0  0  0  0  0  0  0  0
  150.4101  144.7954  160.2987 O   0  0  0  0  0  0  0  0  0  0  0  0
  147.5122  140.8488  155.6595 C   0  0  1  0  0  0  0  0  0  0  0  0
  146.2268  140.2239  155.0594 C   0  0  0  0  0  0  0  0  0  0  0  0
  146.4611  140.3140  153.5416 C   0  0  2  0  0  0  0  0  0  0  0  0
  147.5805  139.3398  153.1324 C   0  0  0  0  0  0  0  0  0  0  0  0
  148.8427  140.0233  153.6900 C   0  0  0  0  0  0  0  0  0  0  0  0
  148.2739  141.2787  154.3796 C   0  0  1  0  0  0  0  0  0  0  0  0
  147.1518  141.6652  153.4213 C   0  0  0  0  0  0  0  0  0  0  0  0
  145.1634  142.4358  156.1100 H   0  0  0  0  0  0  0  0  0  0  0  0
  146.3587  143.3873  155.2344 H   0  0  0  0  0  0  0  0  0  0  0  0
  145.9790  143.7602  156.9121 H   0  0  0  0  0  0  0  0  0  0  0  0
  146.9325  141.5447  157.6180 H   0  0  0  0  0  0  0  0  0  0  0  0
  148.6296  143.5255  156.2427 H   0  0  0  0  0  0  0  0  0  0  0  0
  151.1233  143.3421  156.9129 H   0  0  0  0  0  0  0  0  0  0  0  0
  150.2380  144.5125  157.8331 H   0  0  0  0  0  0  0  0  0  0  0  0
  152.5128  141.8139  157.8820 H   0  0  0  0  0  0  0  0  0  0  0  0
  153.9042  142.5488  161.9061 H   0  0  0  0  0  0  0  0  0  0  0  0
  152.1680  144.1813  162.1790 H   0  0  0  0  0  0  0  0  0  0  0  0
  148.0817  140.0754  156.1778 H   0  0  0  0  0  0  0  0  0  0  0  0
  146.0675  139.1985  155.3953 H   0  0  0  0  0  0  0  0  0  0  0  0
  145.3386  140.7988  155.3265 H   0  0  0  0  0  0  0  0  0  0  0  0
  145.5502  140.2075  152.9519 H   0  0  0  0  0  0  0  0  0  0  0  0
  147.4296  138.3417  153.5453 H   0  0  0  0  0  0  0  0  0  0  0  0
  147.6414  139.2487  152.0471 H   0  0  0  0  0  0  0  0  0  0  0  0
  149.3970  139.3821  154.3763 H   0  0  0  0  0  0  0  0  0  0  0  0
  149.5164  140.3007  152.8781 H   0  0  0  0  0  0  0  0  0  0  0  0
  149.0268  142.0509  154.5312 H   0  0  0  0  0  0  0  0  0  0  0  0
  147.5013  141.8835  152.4106 H   0  0  0  0  0  0  0  0  0  0  0  0
  146.5413  142.4976  153.7744 H   0  0  0  0  0  0  0  0  0  0  0  0
  1  2  1  0  0  0  0
  1 24  1  0  0  0  0
  1 25  1  0  0  0  0
  1 26  1  0  0  0  0
  2  3  1  0  0  0  0
  2 17  1  0  0  0  0
  2 27  1  0  0  0  0
  3  4  1  0  0  0  0
  3 28  1  0  0  0  0
  4  5  2  0  0  0  0
  4  6  1  0  0  0  0
  6  7  1  0  0  0  0
  6 29  1  0  0  0  0
  6 30  1  0  0  0  0
  7 15  1  0  0  0  0
  7  8  1  0  0  0  0
  8  9  2  0  0  0  0
  8 31  1  0  0  0  0
  9 10  1  0  0  0  0
  9 13  1  0  0  0  0
 10 11  2  0  0  0  0
 10 12  1  0  0  0  0
 13 14  2  0  0  0  0
 13 32  1  0  0  0  0
 14 15  1  0  0  0  0
 14 33  1  0  0  0  0
 15 16  2  0  0  0  0
 17 22  1  0  0  0  0
 17 18  1  0  0  0  0
 17 34  1  0  0  0  0
 18 19  1  0  0  0  0
 18 35  1  0  0  0  0
 18 36  1  0  0  0  0
 19 23  1  0  0  0  0
 19 20  1  0  0  0  0
 19 37  1  0  0  0  0
 20 21  1  0  0  0  0
 20 38  1  0  0  0  0
 20 39  1  0  0  0  0
 21 22  1  0  0  0  0
 21 40  1  0  0  0  0
 21 41  1  0  0  0  0
 22 23  1  0  0  0  0
 22 42  1  0  0  0  0
 23 43  1  0  0  0  0
 23 44  1  0  0  0  0
M  CHG  1  10   1
M  CHG  1  12  -1
M  END
> <s_m_source_file>
AV-unprocessed.smi

> <i_m_source_file_index>
334

> <i_lp_mmshare_version>
43012

> <i_f3d_flags>
0

> <s_epik_input>
W0NIMl0xW0NIMl1bQ0BIXShbQ0gyXTIpW0NAQEhdKFtDSDJdW0NAQEhdMTIpW0NASF0oW0NIM10pW05IXUMoPU8pW0NIMl1uM1tjSF1jKFtOK10oPU8pW08tXSlbY0hdW2NIXWMzPU8=

> <s_epik_cmdline>
J2VwaWtfcHl0aG9uJywgJy1waCcsICc3LjAnLCAnLXRuJywgJzgnLCAnLW1hJywgJzIwMCcsICctbWV0YWxfYmluZGluZycsICctaW1hZScsICc8aW5maWxlLm1hZT4nLCAnLW9tYWUnLCAnPG91dGZpbGUubWFlPic=

> <r_lp_tautomer_probability>
1

> <r_epik_Ionization_Penalty>
2.17081e-08

> <r_epik_Ionization_Penalty_Charging>
8.1195e-11

> <r_epik_Ionization_Penalty_Neutral>
2.16269e-08

> <r_epik_State_Penalty>
-0

> <r_epik_Charging_Adjusted_Penalty>
8.1195e-11

> <i_epik_Tot_Q>
0

> <i_epik_Tot_abs_Q>
2

> <r_epik_Metal_State_Penalty>
-0

> <b_epik_Metal_Only>
0

> <s_lp_Force_Field>
OPLS_2005

> <r_lp_Energy>
62.5387

> <b_lp_Chiralities_Consistent>
1

> <s_lp_Variant>
AV-unprocessed.smi:334-7

> <Gold.Version>
5.8.1

> <Gold.Id.Protein>
6NUR|6NUR_protein|mol2

> <Gold.PLP.Fitness>
43.6996

> <Gold.PLP.PLP>
-39.7538

> <Gold.PLP.part.hbond>
-4.5151

> <Gold.PLP.part.metal>
0.0000

> <Gold.PLP.part.buried>
0.3299

> <Gold.PLP.part.nonpolar>
-34.7640

> <Gold.PLP.part.repulsive>
0.2099

> <Gold.PLP.ligand.clash>
0.0000

> <Gold.PLP.ligand.torsion>
0.9931

> <Gold.PLP.Chemscore.Hbond>
1.9600

> <Gold.PLP.Chemscore.CHOScore>
0.0000

> <Gold.PLP.Chemscore.Metal>
0.0000

> <Gold.Chemscore.Hbonds>
donor molecule, donor type, donor heavy atom, donor atom, acceptor molecule, acceptor atom, score
      L1  H     3    28       P1  8028  0.54
      P1  H  7997  8009       L1    11  0.61

> <Gold.PLP.Chemscore.Internal.Correction>
0.0519

> <Gold.Rescore>
     Score         DG    S(hbond)    S(metal)    S(lipo)     H(rot)  DE(clash)    DE(int)     intcor
     15.90     -18.81       1.88        0.00      98.65       1.75       2.30       0.62       ----

> <Gold.Chemscore.Fitness>
15.9013

> <Gold.Chemscore.DG>
-18.8121

> <Gold.Chemscore.ZeroCoef>
-5.4800

> <Gold.Chemscore.Hbond>
1.8751

> <Gold.Chemscore.Metal>
0.0000

> <Gold.Chemscore.Lipo>
98.6538

> <Gold.Chemscore.Internal_Hbond>
0.0000

> <Gold.Chemscore.DEClash>
2.2951

> <Gold.Chemscore.DEInternal>
0.6157

> <Gold.Chemscore.Rot>
1.7474

> <Gold.Chemscore.Internal.Correction>
   9.000000E+99

> <Gold.Chemscore.Hbonds>
donor molecule, donor type, donor heavy atom, donor atom, acceptor molecule, acceptor atom, score
      L1  H     3    28       P1  8028  0.46
      P1  H  7997  8009       L1    11  0.59

> <Gold.Chemscore.Hbond.Weighted>
-6.2629

> <Gold.Chemscore.Metal.Weighted>
-0.0000

> <Gold.Chemscore.Lipo.Weighted>
-11.5425

> <Gold.Chemscore.Internal_Hbond.Weighted>
0.0000

> <Gold.Chemscore.DEClash.Weighted>
2.2951

> <Gold.Chemscore.DEInternal.Weighted>
0.6157

> <Gold.Chemscore.Rot.Weighted>
4.4733

> <Gold.Chemscore.Internal.Correction.Weighted>
   9.000000E+99

> <Gold.Protein.RotatedTorsions>
[ 6907 6896 6895 6894 ] final -123.29 input  -60.11 | X-H torsion
[ 7974 7965 7964 7962 ] final   62.79 input  175.53 | X-H torsion
[ 8008 7997 7996 7995 ] final  121.97 input   59.86 | X-H torsion
[ 10167 10162 10161 10158 ] final   83.34 input  -65.29 | X-H torsion
[ 10718 10713 10712 10709 ] final  134.17 input   66.30 | X-H torsion
[ 10763 10752 10751 10750 ] final  -76.30 input  -60.55 | X-H torsion
[ 11005 11000 10999 10996 ] final  166.34 input  -57.11 | X-H torsion

> <Gold.Protein.ActiveResidues>
 VAL166  LYS551  ARG553  GLY616  TRP617  ASP618  TYR619  PRO620  LYS621  CYS622 
 ASP623  PHE694  ASN695  SER759  ASP760  ASP761  ALA762  ILE779  LEU786  VAL792 
 PHE793  MET794  SER795  GLU796  ALA797  LYS798  CYS799  TRP800  GLU811  SER814 

> <Gold.Protein.RotatedAtoms>
  150.8657  133.7579  159.2977 H   0  0  0  0  0  0  0  0  0  0  0  0  # atno 6907 bound_to 6896
  151.5207  135.1065  159.9887 H   0  0  0  0  0  0  0  0  0  0  0  0  # atno 6908 bound_to 6896
  152.4659  133.7877  159.6941 H   0  0  0  0  0  0  0  0  0  0  0  0  # atno 6909 bound_to 6896
  145.8693  139.3367  143.0772 H   0  0  0  0  0  0  0  0  0  0  0  0  # atno 7974 bound_to 7965
  156.2708  140.2796  156.1392 H   0  0  0  0  0  0  0  0  0  0  0  0  # atno 8008 bound_to 7997
  155.0971  140.0389  157.2703 H   0  0  0  0  0  0  0  0  0  0  0  0  # atno 8009 bound_to 7997
  154.6844  140.2615  155.6881 H   0  0  0  0  0  0  0  0  0  0  0  0  # atno 8010 bound_to 7997
  139.9194  144.6222  150.8455 H   0  0  0  0  0  0  0  0  0  0  0  0  # atno 10167 bound_to 10162
  157.4700  131.1079  150.9815 H   0  0  0  0  0  0  0  0  0  0  0  0  # atno 10718 bound_to 10713
  154.4980  135.5802  153.6509 H   0  0  0  0  0  0  0  0  0  0  0  0  # atno 10763 bound_to 10752
  152.9874  135.6129  154.3039 H   0  0  0  0  0  0  0  0  0  0  0  0  # atno 10764 bound_to 10752
  154.2944  135.2848  155.2619 H   0  0  0  0  0  0  0  0  0  0  0  0  # atno 10765 bound_to 10752
  140.2654  134.7869  157.3628 H   0  0  0  0  0  0  0  0  0  0  0  0  # atno 11005 bound_to 11000
  145.9156  140.9150  143.0431 LP  0  0  0  0  0  0  0  0  0  0  0  0  # atno 17320 bound_to 7965
  144.6726  140.1219  143.7449 LP  0  0  0  0  0  0  0  0  0  0  0  0  # atno 17321 bound_to 7965
  140.7666  143.3308  151.2415 LP  0  0  0  0  0  0  0  0  0  0  0  0  # atno 17342 bound_to 10162
  139.6874  143.9750  152.2841 LP  0  0  0  0  0  0  0  0  0  0  0  0  # atno 17343 bound_to 10162
  157.0583  130.5815  149.5381 LP  0  0  0  0  0  0  0  0  0  0  0  0  # atno 17370 bound_to 10713
  156.0069  130.5156  150.7858 LP  0  0  0  0  0  0  0  0  0  0  0  0  # atno 17371 bound_to 10713
  140.1424  134.4955  155.8021 LP  0  0  0  0  0  0  0  0  0  0  0  0  # atno 17394 bound_to 11000
  141.2185  133.6830  156.7234 LP  0  0  0  0  0  0  0  0  0  0  0  0  # atno 17395 bound_to 11000

$$$$
