AV-unprocessed.smi:821|AV-procd|sdf|3838|dock6
  -GOLD-   22720 1283D 1   1.00000     0.00000
 Structure written by MMmdl.
 44 45  0  0  0  0  0  0  0  0  1 V2000
  148.3357  135.1485  156.4696 C   0  0  0  0  0  0  0  0  0  0  0  0
  149.5123  135.4868  155.5381 C   0  0  2  0  0  0  0  0  0  0  0  0
  149.5729  137.0012  155.2408 C   0  0  0  0  0  0  0  0  0  0  0  0
  150.8880  137.6211  155.4054 N   0  0  0  0  0  0  0  0  0  0  0  0
  151.6886  137.5828  154.1836 C   0  0  0  0  0  0  0  0  0  0  0  0
  153.0534  138.2692  154.3676 C   0  0  0  0  0  0  0  0  0  0  0  0
  152.8610  139.6091  154.8089 O   0  0  0  0  0  0  0  0  0  0  0  0
  152.1279  139.6843  156.0269 C   0  0  0  0  0  0  0  0  0  0  0  0
  150.7590  139.0067  155.8450 C   0  0  0  0  0  0  0  0  0  0  0  0
  149.3632  134.7467  154.2873 N   0  0  0  0  0  0  0  0  0  0  0  0
  149.2940  133.4115  154.1754 C   0  0  0  0  0  0  0  0  0  0  0  0
  149.3720  132.6467  155.1373 O   0  0  0  0  0  0  0  0  0  0  0  0
  149.1303  132.8592  152.7533 C   0  0  0  0  0  0  0  0  0  0  0  0
  147.8842  132.0933  152.5810 N   0  0  0  0  0  0  0  0  0  0  0  0
  147.8394  130.8070  153.1478 C   0  0  0  0  0  0  0  0  0  0  0  0
  146.7518  130.0308  153.0501 C   0  0  0  0  0  0  0  0  0  0  0  0
  145.6066  130.5469  152.3404 C   0  0  0  0  0  0  0  0  0  0  0  0
  145.6190  131.7813  151.7863 C   0  0  0  0  0  0  0  0  0  0  0  0
  144.4147  132.3446  151.0351 C   0  0  0  0  0  0  0  0  0  0  0  0
  144.1190  133.5689  151.4736 F   0  0  0  0  0  0  0  0  0  0  0  0
  144.6717  132.4208  149.7287 F   0  0  0  0  0  0  0  0  0  0  0  0
  143.3313  131.5827  151.1936 F   0  0  0  0  0  0  0  0  0  0  0  0
  146.8231  132.6291  151.9009 C   0  0  0  0  0  0  0  0  0  0  0  0
  146.8821  133.7597  151.4140 O   0  0  0  0  0  0  0  0  0  0  0  0
  148.4238  135.6762  157.4196 H   0  0  0  0  0  0  0  0  0  0  0  0
  148.2997  134.0819  156.6941 H   0  0  0  0  0  0  0  0  0  0  0  0
  147.3813  135.4264  156.0211 H   0  0  0  0  0  0  0  0  0  0  0  0
  150.4339  135.1862  156.0409 H   0  0  0  0  0  0  0  0  0  0  0  0
  149.1765  137.2102  154.2455 H   0  0  0  0  0  0  0  0  0  0  0  0
  148.8888  137.4989  155.9299 H   0  0  0  0  0  0  0  0  0  0  0  0
  151.8584  136.5509  153.8769 H   0  0  0  0  0  0  0  0  0  0  0  0
  151.1468  138.0673  153.3698 H   0  0  0  0  0  0  0  0  0  0  0  0
  153.6646  137.7254  155.0895 H   0  0  0  0  0  0  0  0  0  0  0  0
  153.6030  138.2791  153.4264 H   0  0  0  0  0  0  0  0  0  0  0  0
  152.6925  139.2078  156.8297 H   0  0  0  0  0  0  0  0  0  0  0  0
  151.9993  140.7313  156.3025 H   0  0  0  0  0  0  0  0  0  0  0  0
  150.1728  139.5721  155.1188 H   0  0  0  0  0  0  0  0  0  0  0  0
  150.2109  139.0473  156.7869 H   0  0  0  0  0  0  0  0  0  0  0  0
  149.2981  135.2951  153.4422 H   0  0  0  0  0  0  0  0  0  0  0  0
  149.1704  133.6753  152.0290 H   0  0  0  0  0  0  0  0  0  0  0  0
  149.9995  132.2390  152.5306 H   0  0  0  0  0  0  0  0  0  0  0  0
  148.7348  130.4987  153.6679 H   0  0  0  0  0  0  0  0  0  0  0  0
  146.7312  129.0465  153.4940 H   0  0  0  0  0  0  0  0  0  0  0  0
  144.7292  129.9228  152.2603 H   0  0  0  0  0  0  0  0  0  0  0  0
  1  2  1  0  0  0  0
  1 25  1  0  0  0  0
  1 26  1  0  0  0  0
  1 27  1  0  0  0  0
  2  3  1  0  0  0  0
  2 10  1  0  0  0  0
  2 28  1  0  0  0  0
  3  4  1  0  0  0  0
  3 29  1  0  0  0  0
  3 30  1  0  0  0  0
  4  9  1  0  0  0  0
  4  5  1  0  0  0  0
  5  6  1  0  0  0  0
  5 31  1  0  0  0  0
  5 32  1  0  0  0  0
  6  7  1  0  0  0  0
  6 33  1  0  0  0  0
  6 34  1  0  0  0  0
  7  8  1  0  0  0  0
  8  9  1  0  0  0  0
  8 35  1  0  0  0  0
  8 36  1  0  0  0  0
  9 37  1  0  0  0  0
  9 38  1  0  0  0  0
 10 11  1  0  0  0  0
 10 39  1  0  0  0  0
 11 12  2  0  0  0  0
 11 13  1  0  0  0  0
 13 14  1  0  0  0  0
 13 40  1  0  0  0  0
 13 41  1  0  0  0  0
 14 23  1  0  0  0  0
 14 15  1  0  0  0  0
 15 16  2  0  0  0  0
 15 42  1  0  0  0  0
 16 17  1  0  0  0  0
 16 43  1  0  0  0  0
 17 18  2  0  0  0  0
 17 44  1  0  0  0  0
 18 19  1  0  0  0  0
 18 23  1  0  0  0  0
 19 20  1  0  0  0  0
 19 21  1  0  0  0  0
 19 22  1  0  0  0  0
 23 24  2  0  0  0  0
M  END
> <s_m_source_file>
AV-unprocessed.smi

> <i_m_source_file_index>
821

> <i_lp_mmshare_version>
43012

> <i_f3d_flags>
0

> <s_epik_input>
W0NIMl0xW0NIMl1PW0NIMl1bQ0gyXU4xW0NIMl1bQ0BASF0oW0NIM10pW05IXUMoPU8pW0NIMl1uMltjSF1bY0hdW2NIXWMoQyhGKShGKUYpYzI9Tw==

> <s_epik_cmdline>
J2VwaWtfcHl0aG9uJywgJy1waCcsICc3LjAnLCAnLXRuJywgJzgnLCAnLW1hJywgJzIwMCcsICctbWV0YWxfYmluZGluZycsICctaW1hZScsICc8aW5maWxlLm1hZT4nLCAnLW9tYWUnLCAnPG91dGZpbGUubWFlPic=

> <r_lp_tautomer_probability>
1

> <r_epik_Ionization_Penalty>
0.237382

> <r_epik_Ionization_Penalty_Charging>
1.90699e-09

> <r_epik_Ionization_Penalty_Neutral>
0.237382

> <r_epik_State_Penalty>
0.228245

> <r_epik_Charging_Adjusted_Penalty>
0.228245

> <i_epik_Tot_Q>
0

> <i_epik_Tot_abs_Q>
0

> <r_epik_Metal_State_Penalty>
0.228219

> <b_epik_Metal_Only>
0

> <s_lp_Force_Field>
OPLS_2005

> <r_lp_Energy>
36.3962

> <b_lp_Chiralities_Consistent>
1

> <s_lp_Variant>
AV-unprocessed.smi:821-1

> <Gold.Version>
5.8.1

> <Gold.Id.Protein>
6NUR|6NUR_protein|mol2

> <Gold.PLP.Fitness>
44.1352

> <Gold.PLP.PLP>
-39.8572

> <Gold.PLP.part.hbond>
-2.8516

> <Gold.PLP.part.metal>
0.0000

> <Gold.PLP.part.buried>
-0.5966

> <Gold.PLP.part.nonpolar>
-37.4573

> <Gold.PLP.part.repulsive>
0.7410

> <Gold.PLP.ligand.clash>
0.0000

> <Gold.PLP.ligand.torsion>
1.5524

> <Gold.PLP.Chemscore.Hbond>
2.3473

> <Gold.PLP.Chemscore.CHOScore>
0.0000

> <Gold.PLP.Chemscore.Metal>
0.0000

> <Gold.Chemscore.Hbonds>
donor molecule, donor type, donor heavy atom, donor atom, acceptor molecule, acceptor atom, score
      L1  H    10    39       P1  7948  0.90
      P1  H  7989  7998       L1     7  0.32
      P1  H  7997  8010       L1     7  0.20

> <Gold.PLP.Chemscore.Internal.Correction>
0.3410

> <Gold.Rescore>
     Score         DG    S(hbond)    S(metal)    S(lipo)     H(rot)  DE(clash)    DE(int)     intcor
     10.27     -13.96       1.72        0.00      69.13       2.09       0.22       3.47       ----

> <Gold.Chemscore.Fitness>
10.2714

> <Gold.Chemscore.DG>
-13.9583

> <Gold.Chemscore.ZeroCoef>
-5.4800

> <Gold.Chemscore.Hbond>
1.7207

> <Gold.Chemscore.Metal>
0.0000

> <Gold.Chemscore.Lipo>
69.1269

> <Gold.Chemscore.Internal_Hbond>
0.0000

> <Gold.Chemscore.DEClash>
0.2168

> <Gold.Chemscore.DEInternal>
3.4701

> <Gold.Chemscore.Rot>
2.0924

> <Gold.Chemscore.Internal.Correction>
   9.000000E+99

> <Gold.Chemscore.Hbonds>
donor molecule, donor type, donor heavy atom, donor atom, acceptor molecule, acceptor atom, score
      L1  H    10    39       P1  7948  0.18
      P1  H  7989  7998       L1     7  0.10

> <Gold.Chemscore.Hbond.Weighted>
-5.7471

> <Gold.Chemscore.Metal.Weighted>
-0.0000

> <Gold.Chemscore.Lipo.Weighted>
-8.0878

> <Gold.Chemscore.Internal_Hbond.Weighted>
0.0000

> <Gold.Chemscore.DEClash.Weighted>
0.2168

> <Gold.Chemscore.DEInternal.Weighted>
3.4701

> <Gold.Chemscore.Rot.Weighted>
5.3566

> <Gold.Chemscore.Internal.Correction.Weighted>
   9.000000E+99

> <Gold.Protein.RotatedTorsions>
[ 6907 6896 6895 6894 ] final  140.62 input  -60.11 | X-H torsion
[ 7974 7965 7964 7962 ] final  -15.48 input  175.53 | X-H torsion
[ 8008 7997 7996 7995 ] final   99.25 input   59.86 | X-H torsion
[ 10167 10162 10161 10158 ] final  -29.84 input  -65.29 | X-H torsion
[ 10718 10713 10712 10709 ] final -120.27 input   66.30 | X-H torsion
[ 10763 10752 10751 10750 ] final  150.98 input  -60.55 | X-H torsion
[ 11005 11000 10999 10996 ] final  151.13 input  -57.11 | X-H torsion

> <Gold.Protein.ActiveResidues>
 VAL166  LYS551  ARG553  GLY616  TRP617  ASP618  TYR619  PRO620  LYS621  CYS622 
 ASP623  PHE694  ASN695  SER759  ASP760  ASP761  ALA762  ILE779  LEU786  VAL792 
 PHE793  MET794  SER795  GLU796  ALA797  LYS798  CYS799  TRP800  GLU811  SER814 

> <Gold.Protein.RotatedAtoms>
  152.2408  133.5134  159.5268 H   0  0  0  0  0  0  0  0  0  0  0  0  # atno 6907 bound_to 6896
  150.7064  134.1092  159.4003 H   0  0  0  0  0  0  0  0  0  0  0  0  # atno 6908 bound_to 6896
  151.9012  135.0377  160.0557 H   0  0  0  0  0  0  0  0  0  0  0  0  # atno 6909 bound_to 6896
  146.2030  140.3499  142.8417 H   0  0  0  0  0  0  0  0  0  0  0  0  # atno 7974 bound_to 7965
  156.1086  140.3231  155.8040 H   0  0  0  0  0  0  0  0  0  0  0  0  # atno 8008 bound_to 7997
  155.4713  140.0547  157.2996 H   0  0  0  0  0  0  0  0  0  0  0  0  # atno 8009 bound_to 7997
  154.4744  140.2026  155.9929 H   0  0  0  0  0  0  0  0  0  0  0  0  # atno 8010 bound_to 7997
  140.7256  143.3897  151.1453 H   0  0  0  0  0  0  0  0  0  0  0  0  # atno 10167 bound_to 10162
  156.1245  130.6348  150.9519 H   0  0  0  0  0  0  0  0  0  0  0  0  # atno 10718 bound_to 10713
  154.0964  135.2849  155.3261 H   0  0  0  0  0  0  0  0  0  0  0  0  # atno 10763 bound_to 10752
  154.6585  135.5343  153.7992 H   0  0  0  0  0  0  0  0  0  0  0  0  # atno 10764 bound_to 10752
  153.0395  135.6528  154.1130 H   0  0  0  0  0  0  0  0  0  0  0  0  # atno 10765 bound_to 10752
  140.1192  134.8874  157.2048 H   0  0  0  0  0  0  0  0  0  0  0  0  # atno 11005 bound_to 11000
  144.8727  140.7294  143.6037 LP  0  0  0  0  0  0  0  0  0  0  0  0  # atno 17320 bound_to 7965
  145.3418  139.1730  143.4481 LP  0  0  0  0  0  0  0  0  0  0  0  0  # atno 17321 bound_to 7965
  139.7499  143.8794  152.3074 LP  0  0  0  0  0  0  0  0  0  0  0  0  # atno 17342 bound_to 10162
  139.8644  144.7100  150.9061 LP  0  0  0  0  0  0  0  0  0  0  0  0  # atno 17343 bound_to 10162
  157.6427  131.0908  150.8218 LP  0  0  0  0  0  0  0  0  0  0  0  0  # atno 17370 bound_to 10713
  156.8310  130.5016  149.5331 LP  0  0  0  0  0  0  0  0  0  0  0  0  # atno 17371 bound_to 10713
  140.2988  134.3156  155.7295 LP  0  0  0  0  0  0  0  0  0  0  0  0  # atno 17394 bound_to 11000
  141.2148  133.7579  156.9610 LP  0  0  0  0  0  0  0  0  0  0  0  0  # atno 17395 bound_to 11000

$$$$
