AV-unprocessed.smi:1699|AV-procd|sdf|6817|dock8
  -GOLD-   22720 7593D 1   1.00000     0.00000
 Structure written by MMmdl.
 37 38  0  0  0  0  0  0  0  0  1 V2000
  151.1249  137.6901  154.4211 C   0  0  0  0  0  0  0  0  0  0  0  0
  150.5456  139.0399  154.8133 C   0  0  0  0  0  0  0  0  0  0  0  0
  151.3010  139.9033  155.6351 C   0  0  0  0  0  0  0  0  0  0  0  0
  150.7644  141.1513  155.9949 C   0  0  0  0  0  0  0  0  0  0  0  0
  149.4869  141.4855  155.5139 C   0  0  0  0  0  0  0  0  0  0  0  0
  148.7577  140.6664  154.7291 N   0  0  0  0  0  0  0  0  0  0  0  0
  149.2610  139.4577  154.3727 C   0  0  0  0  0  0  0  0  0  0  0  0
  148.5464  138.5396  153.5523 N   0  0  0  0  0  0  0  0  0  0  0  0
  147.2335  138.5208  153.2625 C   0  0  0  0  0  0  0  0  0  0  0  0
  146.4047  139.3416  153.6565 O   0  0  0  0  0  0  0  0  0  0  0  0
  146.9308  137.4811  152.4705 N   0  0  0  0  0  0  0  0  0  0  0  0
  145.6047  137.1701  151.9415 C   0  0  2  0  0  0  0  0  0  0  0  0
  144.6497  136.9369  153.1223 C   0  0  0  0  0  0  0  0  0  0  0  0
  145.6911  135.9454  151.0078 C   0  0  1  0  0  0  0  0  0  0  0  0
  146.2225  134.6713  151.6670 C   0  0  0  0  0  0  0  0  0  0  0  0
  145.6215  133.5520  150.8300 C   0  0  0  0  0  0  0  0  0  0  0  0
  144.5277  134.2431  150.0120 C   0  0  0  0  0  0  0  0  0  0  0  0
  144.3990  135.5347  150.5873 O   0  0  0  0  0  0  0  0  0  0  0  0
  152.1177  137.5448  154.8478 H   0  0  0  0  0  0  0  0  0  0  0  0
  151.2113  137.6131  153.3370 H   0  0  0  0  0  0  0  0  0  0  0  0
  150.4855  136.8816  154.7769 H   0  0  0  0  0  0  0  0  0  0  0  0
  152.2806  139.6155  155.9872 H   0  0  0  0  0  0  0  0  0  0  0  0
  151.3171  141.8343  156.6224 H   0  0  0  0  0  0  0  0  0  0  0  0
  149.0374  142.4347  155.7658 H   0  0  0  0  0  0  0  0  0  0  0  0
  149.1040  137.8070  153.1396 H   0  0  0  0  0  0  0  0  0  0  0  0
  147.6799  136.8625  152.1970 H   0  0  0  0  0  0  0  0  0  0  0  0
  145.2246  138.0212  151.3733 H   0  0  0  0  0  0  0  0  0  0  0  0
  143.6302  136.7584  152.7800 H   0  0  0  0  0  0  0  0  0  0  0  0
  144.6225  137.8058  153.7808 H   0  0  0  0  0  0  0  0  0  0  0  0
  144.9562  136.0764  153.7181 H   0  0  0  0  0  0  0  0  0  0  0  0
  146.2883  136.1818  150.1246 H   0  0  0  0  0  0  0  0  0  0  0  0
  147.3118  134.6369  151.6983 H   0  0  0  0  0  0  0  0  0  0  0  0
  145.8549  134.5952  152.6912 H   0  0  0  0  0  0  0  0  0  0  0  0
  146.3642  133.0971  150.1735 H   0  0  0  0  0  0  0  0  0  0  0  0
  145.2116  132.7686  151.4684 H   0  0  0  0  0  0  0  0  0  0  0  0
  144.8340  134.3451  148.9698 H   0  0  0  0  0  0  0  0  0  0  0  0
  143.5802  133.7046  150.0377 H   0  0  0  0  0  0  0  0  0  0  0  0
  1  2  1  0  0  0  0
  1 19  1  0  0  0  0
  1 20  1  0  0  0  0
  1 21  1  0  0  0  0
  2  7  1  0  0  0  0
  2  3  2  0  0  0  0
  3  4  1  0  0  0  0
  3 22  1  0  0  0  0
  4  5  2  0  0  0  0
  4 23  1  0  0  0  0
  5  6  1  0  0  0  0
  5 24  1  0  0  0  0
  6  7  2  0  0  0  0
  7  8  1  0  0  0  0
  8  9  1  0  0  0  0
  8 25  1  0  0  0  0
  9 10  2  0  0  0  0
  9 11  1  0  0  0  0
 11 12  1  0  0  0  0
 11 26  1  0  0  0  0
 12 13  1  0  0  0  0
 12 14  1  0  0  0  0
 12 27  1  0  0  0  0
 13 28  1  0  0  0  0
 13 29  1  0  0  0  0
 13 30  1  0  0  0  0
 14 18  1  0  0  0  0
 14 15  1  0  0  0  0
 14 31  1  0  0  0  0
 15 16  1  0  0  0  0
 15 32  1  0  0  0  0
 15 33  1  0  0  0  0
 16 17  1  0  0  0  0
 16 34  1  0  0  0  0
 16 35  1  0  0  0  0
 17 18  1  0  0  0  0
 17 36  1  0  0  0  0
 17 37  1  0  0  0  0
M  END
> <s_m_source_file>
AV-unprocessed.smi

> <i_m_source_file_index>
1699

> <i_lp_mmshare_version>
43012

> <i_f3d_flags>
0

> <s_epik_input>
W0NIM11jMVtjSF1bY0hdW2NIXW5jMVtOSF1DKD1PKVtOSF1bQ0BIXShbQ0gzXSlbQ0BASF0yW0NIMl1bQ0gyXVtDSDJdTzI=

> <s_epik_cmdline>
J2VwaWtfcHl0aG9uJywgJy1waCcsICc3LjAnLCAnLXRuJywgJzgnLCAnLW1hJywgJzIwMCcsICctbWV0YWxfYmluZGluZycsICctaW1hZScsICc8aW5maWxlLm1hZT4nLCAnLW9tYWUnLCAnPG91dGZpbGUubWFlPic=

> <r_lp_tautomer_probability>
1

> <r_epik_Ionization_Penalty>
5.52788e-05

> <r_epik_Ionization_Penalty_Charging>
0

> <r_epik_Ionization_Penalty_Neutral>
5.52788e-05

> <r_epik_State_Penalty>
-0

> <r_epik_Charging_Adjusted_Penalty>
0

> <i_epik_Tot_Q>
0

> <i_epik_Tot_abs_Q>
0

> <r_epik_Metal_State_Penalty>
-0

> <b_epik_Metal_Only>
0

> <s_lp_Force_Field>
OPLS_2005

> <r_lp_Energy>
21.1127

> <b_lp_Chiralities_Consistent>
1

> <s_lp_Variant>
AV-unprocessed.smi:1699-3

> <Gold.Version>
5.8.1

> <Gold.Id.Protein>
6NUR|6NUR_protein|mol2

> <Gold.PLP.Fitness>
40.7492

> <Gold.PLP.PLP>
-32.3484

> <Gold.PLP.part.hbond>
-2.8806

> <Gold.PLP.part.metal>
0.0000

> <Gold.PLP.part.buried>
-2.7753

> <Gold.PLP.part.nonpolar>
-28.6053

> <Gold.PLP.part.repulsive>
0.6282

> <Gold.PLP.ligand.clash>
0.0000

> <Gold.PLP.ligand.torsion>
0.0931

> <Gold.PLP.Chemscore.Hbond>
1.8550

> <Gold.PLP.Chemscore.CHOScore>
1.0000

> <Gold.PLP.Chemscore.Metal>
0.0000

> <Gold.Chemscore.Hbonds>
donor molecule, donor type, donor heavy atom, donor atom, acceptor molecule, acceptor atom, score
      L1  H     8    25       P1  7948  0.85
      L1  H    11    26       P1  7948  0.80
      L1  C     5    24       P1  8028  1.00

> <Gold.PLP.Chemscore.Internal.Correction>
0.0220

> <Gold.Rescore>
     Score         DG    S(hbond)    S(metal)    S(lipo)     H(rot)  DE(clash)    DE(int)     intcor
     15.53     -17.11       1.92        0.00      71.20       1.22       0.16       1.42       ----

> <Gold.Chemscore.Fitness>
15.5345

> <Gold.Chemscore.DG>
-17.1105

> <Gold.Chemscore.ZeroCoef>
-5.4800

> <Gold.Chemscore.Hbond>
1.9233

> <Gold.Chemscore.Metal>
0.0000

> <Gold.Chemscore.Lipo>
71.1959

> <Gold.Chemscore.Internal_Hbond>
0.0000

> <Gold.Chemscore.DEClash>
0.1574

> <Gold.Chemscore.DEInternal>
1.4185

> <Gold.Chemscore.Rot>
1.2200

> <Gold.Chemscore.Internal.Correction>
   9.000000E+99

> <Gold.Chemscore.Hbonds>
donor molecule, donor type, donor heavy atom, donor atom, acceptor molecule, acceptor atom, score
      L1  H     8    25       P1  7948  0.79
      L1  H    11    26       P1  7948  0.79

> <Gold.Chemscore.Hbond.Weighted>
-6.4237

> <Gold.Chemscore.Metal.Weighted>
-0.0000

> <Gold.Chemscore.Lipo.Weighted>
-8.3299

> <Gold.Chemscore.Internal_Hbond.Weighted>
0.0000

> <Gold.Chemscore.DEClash.Weighted>
0.1574

> <Gold.Chemscore.DEInternal.Weighted>
1.4185

> <Gold.Chemscore.Rot.Weighted>
3.1232

> <Gold.Chemscore.Internal.Correction.Weighted>
   9.000000E+99

> <Gold.Protein.RotatedTorsions>
[ 6907 6896 6895 6894 ] final   95.01 input  -60.11 | X-H torsion
[ 7974 7965 7964 7962 ] final   -2.20 input  175.53 | X-H torsion
[ 8008 7997 7996 7995 ] final  157.91 input   59.86 | X-H torsion
[ 10167 10162 10161 10158 ] final  -45.51 input  -65.29 | X-H torsion
[ 10718 10713 10712 10709 ] final   97.72 input   66.30 | X-H torsion
[ 10763 10752 10751 10750 ] final  129.38 input  -60.55 | X-H torsion
[ 11005 11000 10999 10996 ] final  154.66 input  -57.11 | X-H torsion

> <Gold.Protein.ActiveResidues>
 VAL166  LYS551  ARG553  GLY616  TRP617  ASP618  TYR619  PRO620  LYS621  CYS622 
 ASP623  PHE694  ASN695  SER759  ASP760  ASP761  ALA762  ILE779  LEU786  VAL792 
 PHE793  MET794  SER795  GLU796  ALA797  LYS798  CYS799  TRP800  GLU811  SER814 

> <Gold.Protein.RotatedAtoms>
  152.5446  134.1106  159.8356 H   0  0  0  0  0  0  0  0  0  0  0  0  # atno 6907 bound_to 6896
  151.1173  133.5122  159.2611 H   0  0  0  0  0  0  0  0  0  0  0  0  # atno 6908 bound_to 6896
  151.1818  135.0374  159.8850 H   0  0  0  0  0  0  0  0  0  0  0  0  # atno 6909 bound_to 6896
  146.2407  140.1535  142.8333 H   0  0  0  0  0  0  0  0  0  0  0  0  # atno 7974 bound_to 7965
  156.2335  140.1872  156.7181 H   0  0  0  0  0  0  0  0  0  0  0  0  # atno 8008 bound_to 7997
  154.6064  140.0628  156.9464 H   0  0  0  0  0  0  0  0  0  0  0  0  # atno 8009 bound_to 7997
  155.2088  140.3298  155.4334 H   0  0  0  0  0  0  0  0  0  0  0  0  # atno 8010 bound_to 7997
  140.6855  143.2876  151.3649 H   0  0  0  0  0  0  0  0  0  0  0  0  # atno 10167 bound_to 10162
  157.6908  131.0618  150.4686 H   0  0  0  0  0  0  0  0  0  0  0  0  # atno 10718 bound_to 10713
  153.7409  135.3224  155.3304 H   0  0  0  0  0  0  0  0  0  0  0  0  # atno 10763 bound_to 10752
  154.8295  135.4544  154.1027 H   0  0  0  0  0  0  0  0  0  0  0  0  # atno 10764 bound_to 10752
  153.2202  135.6947  153.8091 H   0  0  0  0  0  0  0  0  0  0  0  0  # atno 10765 bound_to 10752
  140.1509  134.8675  157.2453 H   0  0  0  0  0  0  0  0  0  0  0  0  # atno 11005 bound_to 11000
  145.0148  140.8744  143.5202 LP  0  0  0  0  0  0  0  0  0  0  0  0  # atno 17320 bound_to 7965
  145.1574  139.2478  143.5409 LP  0  0  0  0  0  0  0  0  0  0  0  0  # atno 17321 bound_to 7965
  139.6210  144.0907  152.2391 LP  0  0  0  0  0  0  0  0  0  0  0  0  # atno 17342 bound_to 10162
  140.0351  144.6051  150.7456 LP  0  0  0  0  0  0  0  0  0  0  0  0  # atno 17343 bound_to 10162
  156.5025  130.4120  149.6345 LP  0  0  0  0  0  0  0  0  0  0  0  0  # atno 17370 bound_to 10713
  156.3314  130.7334  151.2264 LP  0  0  0  0  0  0  0  0  0  0  0  0  # atno 17371 bound_to 10713
  140.2606  134.3576  155.7408 LP  0  0  0  0  0  0  0  0  0  0  0  0  # atno 17394 bound_to 11000
  141.2199  133.7367  156.9074 LP  0  0  0  0  0  0  0  0  0  0  0  0  # atno 17395 bound_to 11000

$$$$
