AV-unprocessed.smi:3112|AV-procd|sdf|11841|dock2
  -GOLD-   2272017213D 1   1.00000     0.00000
 Structure written by MMmdl.
 37 37  0  0  0  0  0  0  0  0  2 V2000
  146.2079  142.3652  154.9593 C   0  0  0  0  0  0  0  0  0  0  0  0
  147.5158  142.3556  154.1560 C   0  0  0  0  0  0  0  0  0  0  0  0
  148.3240  141.0550  154.3158 C   0  0  1  0  0  0  0  0  0  0  0  0
  149.4216  141.0845  153.4242 O   0  0  0  0  0  0  0  0  0  0  0  0
  148.8608  140.8799  155.7460 C   0  0  0  0  0  0  0  0  0  0  0  0
  149.8841  141.9006  156.0566 N   0  3  0  0  0  0  0  0  0  0  0  0
  150.3485  141.9304  157.4637 C   0  0  2  0  0  0  0  0  0  0  0  0
  149.2728  142.5795  158.3552 C   0  0  0  0  0  0  0  0  0  0  0  0
  151.7153  142.6593  157.5495 C   0  0  1  0  0  0  0  0  0  0  0  0
  151.6061  144.1905  157.4210 C   0  0  0  0  0  0  0  0  0  0  0  0
  152.4053  142.3163  158.7888 N   0  0  0  0  0  0  0  0  0  0  0  0
  152.7380  143.1337  159.8514 C   0  0  0  0  0  0  0  0  0  0  0  0
  153.3392  142.3526  160.7958 C   0  0  0  0  0  0  0  0  0  0  0  0
  153.3217  141.0520  160.2202 C   0  0  0  0  0  0  0  0  0  0  0  0
  152.7536  141.0321  159.0253 N   0  0  0  0  0  0  0  0  0  0  0  0
  145.6898  143.3172  154.8425 H   0  0  0  0  0  0  0  0  0  0  0  0
  146.3975  142.2197  156.0232 H   0  0  0  0  0  0  0  0  0  0  0  0
  145.5297  141.5783  154.6286 H   0  0  0  0  0  0  0  0  0  0  0  0
  147.3001  142.5353  153.1018 H   0  0  0  0  0  0  0  0  0  0  0  0
  148.1243  143.1975  154.4884 H   0  0  0  0  0  0  0  0  0  0  0  0
  147.6887  140.2050  154.0618 H   0  0  0  0  0  0  0  0  0  0  0  0
  149.3304  140.3741  152.8071 H   0  0  0  0  0  0  0  0  0  0  0  0
  148.0444  140.9227  156.4675 H   0  0  0  0  0  0  0  0  0  0  0  0
  149.3213  139.8958  155.8431 H   0  0  0  0  0  0  0  0  0  0  0  0
  150.6881  141.7003  155.4780 H   0  0  0  0  0  0  0  0  0  0  0  0
  150.4980  140.9016  157.7960 H   0  0  0  0  0  0  0  0  0  0  0  0
  149.5437  142.5360  159.4097 H   0  0  0  0  0  0  0  0  0  0  0  0
  148.3126  142.0723  158.2624 H   0  0  0  0  0  0  0  0  0  0  0  0
  149.1198  143.6269  158.0925 H   0  0  0  0  0  0  0  0  0  0  0  0
  152.3373  142.3132  156.7213 H   0  0  0  0  0  0  0  0  0  0  0  0
  151.2668  144.4883  156.4292 H   0  0  0  0  0  0  0  0  0  0  0  0
  152.5755  144.6650  157.5780 H   0  0  0  0  0  0  0  0  0  0  0  0
  150.9107  144.6067  158.1505 H   0  0  0  0  0  0  0  0  0  0  0  0
  152.5214  144.1919  159.8488 H   0  0  0  0  0  0  0  0  0  0  0  0
  153.7304  142.6622  161.7536 H   0  0  0  0  0  0  0  0  0  0  0  0
  153.6966  140.1274  160.6341 H   0  0  0  0  0  0  0  0  0  0  0  0
  149.5338  142.8139  155.8033 H   0  0  0  0  0  0  0  0  0  0  0  0
  1  2  1  0  0  0  0
  1 16  1  0  0  0  0
  1 17  1  0  0  0  0
  1 18  1  0  0  0  0
  2  3  1  0  0  0  0
  2 19  1  0  0  0  0
  2 20  1  0  0  0  0
  3  4  1  0  0  0  0
  3  5  1  0  0  0  0
  3 21  1  0  0  0  0
  4 22  1  0  0  0  0
  5  6  1  0  0  0  0
  5 23  1  0  0  0  0
  5 24  1  0  0  0  0
  6  7  1  0  0  0  0
  6 25  1  0  0  0  0
  6 37  1  0  0  0  0
  7  8  1  0  0  0  0
  7  9  1  0  0  0  0
  7 26  1  0  0  0  0
  8 27  1  0  0  0  0
  8 28  1  0  0  0  0
  8 29  1  0  0  0  0
  9 10  1  0  0  0  0
  9 11  1  0  0  0  0
  9 30  1  0  0  0  0
 10 31  1  0  0  0  0
 10 32  1  0  0  0  0
 10 33  1  0  0  0  0
 11 15  1  0  0  0  0
 11 12  1  0  0  0  0
 12 13  2  0  0  0  0
 12 34  1  0  0  0  0
 13 14  1  0  0  0  0
 13 35  1  0  0  0  0
 14 15  2  0  0  0  0
 14 36  1  0  0  0  0
M  CHG  1   6   1
M  END
> <s_m_source_file>
AV-unprocessed.smi

> <i_m_source_file_index>
3112

> <i_lp_mmshare_version>
43012

> <i_f3d_flags>
0

> <s_epik_input>
W0NIM11bQ0gyXVtDQEhdKFtPSF0pW0NIMl1bTkhdW0NASF0oW0NIM10pW0NASF0oW0NIM10pbjFbY0hdW2NIXVtjSF1uMQ==

> <s_epik_cmdline>
J2VwaWtfcHl0aG9uJywgJy1waCcsICc3LjAnLCAnLXRuJywgJzgnLCAnLW1hJywgJzIwMCcsICctbWV0YWxfYmluZGluZycsICctaW1hZScsICc8aW5maWxlLm1hZT4nLCAnLW9tYWUnLCAnPG91dGZpbGUubWFlPic=

> <r_lp_tautomer_probability>
1

> <r_epik_Ionization_Penalty>
0.0154842

> <r_epik_Ionization_Penalty_Charging>
0.0154724

> <r_epik_Ionization_Penalty_Neutral>
1.17979e-05

> <r_epik_State_Penalty>
0.0121607

> <r_epik_Charging_Adjusted_Penalty>
0.0276331

> <i_epik_Tot_Q>
1

> <i_epik_Tot_abs_Q>
1

> <r_epik_Metal_State_Penalty>
0.0121863

> <b_epik_Metal_Only>
0

> <s_lp_Force_Field>
OPLS_2005

> <r_lp_Energy>
12.5622

> <b_lp_Chiralities_Consistent>
1

> <s_lp_Variant>
AV-unprocessed.smi:3112-6

> <Gold.Version>
5.8.1

> <Gold.Id.Protein>
6NUR|6NUR_protein|mol2

> <Gold.PLP.Fitness>
47.6104

> <Gold.PLP.PLP>
-37.0170

> <Gold.PLP.part.hbond>
-4.0000

> <Gold.PLP.part.metal>
0.0000

> <Gold.PLP.part.buried>
-3.1198

> <Gold.PLP.part.nonpolar>
-29.1414

> <Gold.PLP.part.repulsive>
0.0947

> <Gold.PLP.ligand.clash>
0.0000

> <Gold.PLP.ligand.torsion>
0.5553

> <Gold.PLP.Chemscore.Hbond>
3.8675

> <Gold.PLP.Chemscore.CHOScore>
0.0000

> <Gold.PLP.Chemscore.Metal>
0.0000

> <Gold.Chemscore.Hbonds>
donor molecule, donor type, donor heavy atom, donor atom, acceptor molecule, acceptor atom, score
      L1  H     4    22       P1  7957  0.78
      L1  H     6    37       P1  8028  2.00
      P1  H  7989  7998       L1     4  0.08
      P1  H  8011  8017       L1     4  1.00

> <Gold.PLP.Chemscore.Internal.Correction>
0.1014

> <Gold.Rescore>
     Score         DG    S(hbond)    S(metal)    S(lipo)     H(rot)  DE(clash)    DE(int)     intcor
     17.13     -17.89       2.31        0.00      92.77       2.41       0.16       0.59       ----

> <Gold.Chemscore.Fitness>
17.1332

> <Gold.Chemscore.DG>
-17.8851

> <Gold.Chemscore.ZeroCoef>
-5.4800

> <Gold.Chemscore.Hbond>
2.3106

> <Gold.Chemscore.Metal>
0.0000

> <Gold.Chemscore.Lipo>
92.7730

> <Gold.Chemscore.Internal_Hbond>
0.0000

> <Gold.Chemscore.DEClash>
0.1619

> <Gold.Chemscore.DEInternal>
0.5900

> <Gold.Chemscore.Rot>
2.4089

> <Gold.Chemscore.Internal.Correction>
   9.000000E+99

> <Gold.Chemscore.Hbonds>
donor molecule, donor type, donor heavy atom, donor atom, acceptor molecule, acceptor atom, score
      L1  H     4    22       P1  7957  0.78
      L1  H     6    37       P1  8028  0.94
      P1  H  7989  7998       L1     4  0.01
      P1  H  8011  8017       L1     4  0.25

> <Gold.Chemscore.Hbond.Weighted>
-7.7173

> <Gold.Chemscore.Metal.Weighted>
-0.0000

> <Gold.Chemscore.Lipo.Weighted>
-10.8544

> <Gold.Chemscore.Internal_Hbond.Weighted>
0.0000

> <Gold.Chemscore.DEClash.Weighted>
0.1619

> <Gold.Chemscore.DEInternal.Weighted>
0.5900

> <Gold.Chemscore.Rot.Weighted>
6.1667

> <Gold.Chemscore.Internal.Correction.Weighted>
   9.000000E+99

> <Gold.Protein.RotatedTorsions>
[ 6907 6896 6895 6894 ] final  143.01 input  -60.11 | X-H torsion
[ 7974 7965 7964 7962 ] final -130.84 input  175.53 | X-H torsion
[ 8008 7997 7996 7995 ] final  -78.09 input   59.86 | X-H torsion
[ 10167 10162 10161 10158 ] final   14.60 input  -65.29 | X-H torsion
[ 10718 10713 10712 10709 ] final  140.91 input   66.30 | X-H torsion
[ 10763 10752 10751 10750 ] final   12.13 input  -60.55 | X-H torsion
[ 11005 11000 10999 10996 ] final  -90.57 input  -57.11 | X-H torsion

> <Gold.Protein.ActiveResidues>
 VAL166  LYS551  ARG553  GLY616  TRP617  ASP618  TYR619  PRO620  LYS621  CYS622 
 ASP623  PHE694  ASN695  SER759  ASP760  ASP761  ALA762  ILE779  LEU786  VAL792 
 PHE793  MET794  SER795  GLU796  ALA797  LYS798  CYS799  TRP800  GLU811  SER814 

> <Gold.Protein.RotatedAtoms>
  152.2117  133.4916  159.5113 H   0  0  0  0  0  0  0  0  0  0  0  0  # atno 6907 bound_to 6896
  150.6991  134.1459  159.4131 H   0  0  0  0  0  0  0  0  0  0  0  0  # atno 6908 bound_to 6896
  151.9378  135.0227  160.0584 H   0  0  0  0  0  0  0  0  0  0  0  0  # atno 6909 bound_to 6896
  144.9436  140.7266  143.4831 H   0  0  0  0  0  0  0  0  0  0  0  0  # atno 7974 bound_to 7965
  154.5657  140.0700  156.8888 H   0  0  0  0  0  0  0  0  0  0  0  0  # atno 8008 bound_to 7997
  155.2728  140.3366  155.4246 H   0  0  0  0  0  0  0  0  0  0  0  0  # atno 8009 bound_to 7997
  156.2078  140.1747  156.7746 H   0  0  0  0  0  0  0  0  0  0  0  0  # atno 8010 bound_to 7997
  140.5924  143.8768  150.6886 H   0  0  0  0  0  0  0  0  0  0  0  0  # atno 10167 bound_to 10162
  157.3980  131.1013  151.0581 H   0  0  0  0  0  0  0  0  0  0  0  0  # atno 10718 bound_to 10713
  153.1854  135.6834  153.8422 H   0  0  0  0  0  0  0  0  0  0  0  0  # atno 10763 bound_to 10752
  153.7740  135.3192  155.3357 H   0  0  0  0  0  0  0  0  0  0  0  0  # atno 10764 bound_to 10752
  154.8085  135.4733  154.0551 H   0  0  0  0  0  0  0  0  0  0  0  0  # atno 10765 bound_to 10752
  141.1563  133.7700  156.9756 H   0  0  0  0  0  0  0  0  0  0  0  0  # atno 11005 bound_to 11000
  145.2952  139.1869  143.4719 LP  0  0  0  0  0  0  0  0  0  0  0  0  # atno 17320 bound_to 7965
  146.3295  140.2935  142.8616 LP  0  0  0  0  0  0  0  0  0  0  0  0  # atno 17321 bound_to 7965
  140.2294  143.3747  152.1578 LP  0  0  0  0  0  0  0  0  0  0  0  0  # atno 17342 bound_to 10162
  139.5236  144.7074  151.5313 LP  0  0  0  0  0  0  0  0  0  0  0  0  # atno 17343 bound_to 10162
  157.1590  130.6217  149.5605 LP  0  0  0  0  0  0  0  0  0  0  0  0  # atno 17370 bound_to 10713
  155.9815  130.4823  150.6833 LP  0  0  0  0  0  0  0  0  0  0  0  0  # atno 17371 bound_to 10713
  140.1100  134.9482  157.2051 LP  0  0  0  0  0  0  0  0  0  0  0  0  # atno 17394 bound_to 11000
  140.3206  134.2921  155.7247 LP  0  0  0  0  0  0  0  0  0  0  0  0  # atno 17395 bound_to 11000

$$$$
