AV-unprocessed.smi:2742|AV-procd|sdf|10562|dock4
  -GOLD-   2272015 13D 1   1.00000     0.00000
 Structure written by MMmdl.
 37 38  0  0  0  0  0  0  0  0  1 V2000
  143.5631  141.9108  158.0551 C   0  0  0  0  0  0  0  0  0  0  0  0
  144.6332  140.5724  157.4627 S   0  0  0  0  0  0  0  0  0  0  0  0
  145.8227  141.5071  156.4566 C   0  0  2  0  0  0  0  0  0  0  0  0
  145.0861  142.3265  155.3826 C   0  0  0  0  0  0  0  0  0  0  0  0
  146.0695  143.1145  154.5041 C   0  0  0  0  0  0  0  0  0  0  0  0
  147.1041  142.1820  153.8523 C   0  0  0  0  0  0  0  0  0  0  0  0
  147.8530  141.3250  154.8949 C   0  0  1  0  0  0  0  0  0  0  0  0
  148.7680  142.1395  155.6945 N   0  0  0  0  0  0  0  0  0  0  0  0
  149.7055  141.6646  156.5276 C   0  0  0  0  0  0  0  0  0  0  0  0
  149.8875  140.4640  156.7267 O   0  0  0  0  0  0  0  0  0  0  0  0
  150.3921  142.6664  157.1043 N   0  0  0  0  0  0  0  0  0  0  0  0
  151.4671  142.6054  158.0347 C   0  0  0  0  0  0  0  0  0  0  0  0
  152.1856  141.4276  158.3560 C   0  0  0  0  0  0  0  0  0  0  0  0
  153.2401  141.5124  159.2873 C   0  0  0  0  0  0  0  0  0  0  0  0
  153.6112  142.6618  159.8897 N   0  0  0  0  0  0  0  0  0  0  0  0
  152.9321  143.7843  159.5736 C   0  0  0  0  0  0  0  0  0  0  0  0
  151.8621  143.8092  158.6568 C   0  0  0  0  0  0  0  0  0  0  0  0
  151.2254  144.9735  158.3821 F   0  0  0  0  0  0  0  0  0  0  0  0
  146.8649  140.5716  155.8083 C   0  0  0  0  0  0  0  0  0  0  0  0
  142.7595  141.5014  158.6671 H   0  0  0  0  0  0  0  0  0  0  0  0
  143.1181  142.4437  157.2146 H   0  0  0  0  0  0  0  0  0  0  0  0
  144.1258  142.6201  158.6610 H   0  0  0  0  0  0  0  0  0  0  0  0
  146.3310  142.2046  157.1234 H   0  0  0  0  0  0  0  0  0  0  0  0
  144.4911  141.6616  154.7549 H   0  0  0  0  0  0  0  0  0  0  0  0
  144.3846  143.0151  155.8548 H   0  0  0  0  0  0  0  0  0  0  0  0
  145.5234  143.6581  153.7326 H   0  0  0  0  0  0  0  0  0  0  0  0
  146.5781  143.8672  155.1077 H   0  0  0  0  0  0  0  0  0  0  0  0
  146.5924  141.5215  153.1513 H   0  0  0  0  0  0  0  0  0  0  0  0
  147.8091  142.7633  153.2567 H   0  0  0  0  0  0  0  0  0  0  0  0
  148.4434  140.5758  154.3642 H   0  0  0  0  0  0  0  0  0  0  0  0
  148.6856  143.1407  155.5954 H   0  0  0  0  0  0  0  0  0  0  0  0
  150.0819  143.5998  156.8765 H   0  0  0  0  0  0  0  0  0  0  0  0
  151.9646  140.4716  157.9090 H   0  0  0  0  0  0  0  0  0  0  0  0
  153.8049  140.6307  159.5516 H   0  0  0  0  0  0  0  0  0  0  0  0
  153.2522  144.6912  160.0649 H   0  0  0  0  0  0  0  0  0  0  0  0
  147.4173  140.0250  156.5726 H   0  0  0  0  0  0  0  0  0  0  0  0
  146.3447  139.8169  155.2166 H   0  0  0  0  0  0  0  0  0  0  0  0
  1  2  1  0  0  0  0
  1 20  1  0  0  0  0
  1 21  1  0  0  0  0
  1 22  1  0  0  0  0
  2  3  1  0  0  0  0
  3 19  1  0  0  0  0
  3  4  1  0  0  0  0
  3 23  1  0  0  0  0
  4  5  1  0  0  0  0
  4 24  1  0  0  0  0
  4 25  1  0  0  0  0
  5  6  1  0  0  0  0
  5 26  1  0  0  0  0
  5 27  1  0  0  0  0
  6  7  1  0  0  0  0
  6 28  1  0  0  0  0
  6 29  1  0  0  0  0
  7  8  1  0  0  0  0
  7 19  1  0  0  0  0
  7 30  1  0  0  0  0
  8  9  1  0  0  0  0
  8 31  1  0  0  0  0
  9 10  2  0  0  0  0
  9 11  1  0  0  0  0
 11 12  1  0  0  0  0
 11 32  1  0  0  0  0
 12 17  1  0  0  0  0
 12 13  2  0  0  0  0
 13 14  1  0  0  0  0
 13 33  1  0  0  0  0
 14 15  2  0  0  0  0
 14 34  1  0  0  0  0
 15 16  1  0  0  0  0
 16 17  2  0  0  0  0
 16 35  1  0  0  0  0
 17 18  1  0  0  0  0
 19 36  1  0  0  0  0
 19 37  1  0  0  0  0
M  END
> <s_m_source_file>
AV-unprocessed.smi

> <i_m_source_file_index>
2742

> <i_lp_mmshare_version>
43012

> <i_f3d_flags>
0

> <s_epik_input>
W0NIM11TW0NAQEhdMVtDSDJdW0NIMl1bQ0gyXVtDQEhdKFtDSDJdMSlbTkhdQyg9TylbTkhdYzJbY0hdW2NIXW5bY0hdYzJG

> <s_epik_cmdline>
J2VwaWtfcHl0aG9uJywgJy1waCcsICc3LjAnLCAnLXRuJywgJzgnLCAnLW1hJywgJzIwMCcsICctbWV0YWxfYmluZGluZycsICctaW1hZScsICc8aW5maWxlLm1hZT4nLCAnLW9tYWUnLCAnPG91dGZpbGUubWFlPic=

> <r_epik_Ionization_Penalty>
0.00344009

> <r_epik_Ionization_Penalty_Charging>
0

> <r_epik_Ionization_Penalty_Neutral>
0.00344009

> <r_epik_State_Penalty>
0.0024078

> <r_epik_Charging_Adjusted_Penalty>
0.0024078

> <i_epik_Tot_Q>
0

> <i_epik_Tot_abs_Q>
0

> <r_epik_Metal_State_Penalty>
-0

> <b_epik_Metal_Only>
0

> <s_lp_Force_Field>
OPLS_2005

> <r_lp_Energy>
13.9457

> <b_lp_Chiralities_Consistent>
1

> <s_lp_Variant>
AV-unprocessed.smi:2742-1

> <Gold.Version>
5.8.1

> <Gold.Id.Protein>
6NUR|6NUR_protein|mol2

> <Gold.PLP.Fitness>
40.2568

> <Gold.PLP.PLP>
-34.6417

> <Gold.PLP.part.hbond>
-2.0000

> <Gold.PLP.part.metal>
0.0000

> <Gold.PLP.part.buried>
-6.8902

> <Gold.PLP.part.nonpolar>
-25.7260

> <Gold.PLP.part.repulsive>
0.1548

> <Gold.PLP.ligand.clash>
0.0000

> <Gold.PLP.ligand.torsion>
0.1147

> <Gold.PLP.Chemscore.Hbond>
1.9440

> <Gold.PLP.Chemscore.CHOScore>
0.0000

> <Gold.PLP.Chemscore.Metal>
0.0000

> <Gold.Chemscore.Hbonds>
donor molecule, donor type, donor heavy atom, donor atom, acceptor molecule, acceptor atom, score
      L1  H     8    31       P1  8028  1.00
      L1  H    11    32       P1  8028  0.93

> <Gold.PLP.Chemscore.Internal.Correction>
0.0126

> <Gold.Rescore>
     Score         DG    S(hbond)    S(metal)    S(lipo)     H(rot)  DE(clash)    DE(int)     intcor
     17.20     -18.54       1.96        0.00      81.71       1.19       0.02       1.32       ----

> <Gold.Chemscore.Fitness>
17.1985

> <Gold.Chemscore.DG>
-18.5432

> <Gold.Chemscore.ZeroCoef>
-5.4800

> <Gold.Chemscore.Hbond>
1.9591

> <Gold.Chemscore.Metal>
0.0000

> <Gold.Chemscore.Lipo>
81.7087

> <Gold.Chemscore.Internal_Hbond>
0.0000

> <Gold.Chemscore.DEClash>
0.0243

> <Gold.Chemscore.DEInternal>
1.3204

> <Gold.Chemscore.Rot>
1.1875

> <Gold.Chemscore.Internal.Correction>
   9.000000E+99

> <Gold.Chemscore.Hbonds>
donor molecule, donor type, donor heavy atom, donor atom, acceptor molecule, acceptor atom, score
      L1  H     8    31       P1  8028  0.98
      L1  H    11    32       P1  8028  0.84

> <Gold.Chemscore.Hbond.Weighted>
-6.5433

> <Gold.Chemscore.Metal.Weighted>
-0.0000

> <Gold.Chemscore.Lipo.Weighted>
-9.5599

> <Gold.Chemscore.Internal_Hbond.Weighted>
0.0000

> <Gold.Chemscore.DEClash.Weighted>
0.0243

> <Gold.Chemscore.DEInternal.Weighted>
1.3204

> <Gold.Chemscore.Rot.Weighted>
3.0400

> <Gold.Chemscore.Internal.Correction.Weighted>
   9.000000E+99

> <Gold.Protein.RotatedTorsions>
[ 6907 6896 6895 6894 ] final    3.25 input  -60.11 | X-H torsion
[ 7974 7965 7964 7962 ] final  121.22 input  175.53 | X-H torsion
[ 8008 7997 7996 7995 ] final -140.73 input   59.86 | X-H torsion
[ 10167 10162 10161 10158 ] final -151.60 input  -65.29 | X-H torsion
[ 10718 10713 10712 10709 ] final -178.88 input   66.30 | X-H torsion
[ 10763 10752 10751 10750 ] final   76.38 input  -60.55 | X-H torsion
[ 11005 11000 10999 10996 ] final -146.13 input  -57.11 | X-H torsion

> <Gold.Protein.ActiveResidues>
 VAL166  LYS551  ARG553  GLY616  TRP617  ASP618  TYR619  PRO620  LYS621  CYS622 
 ASP623  PHE694  ASN695  SER759  ASP760  ASP761  ALA762  ILE779  LEU786  VAL792 
 PHE793  MET794  SER795  GLU796  ALA797  LYS798  CYS799  TRP800  GLU811  SER814 

> <Gold.Protein.RotatedAtoms>
  151.6221  135.1031  160.0103 H   0  0  0  0  0  0  0  0  0  0  0  0  # atno 6907 bound_to 6896
  152.4152  133.7023  159.6441 H   0  0  0  0  0  0  0  0  0  0  0  0  # atno 6908 bound_to 6896
  150.8041  133.8469  159.3235 H   0  0  0  0  0  0  0  0  0  0  0  0  # atno 6909 bound_to 6896
  145.1219  139.3383  143.4710 H   0  0  0  0  0  0  0  0  0  0  0  0  # atno 7974 bound_to 7965
  155.4661  140.0549  157.2985 H   0  0  0  0  0  0  0  0  0  0  0  0  # atno 8008 bound_to 7997
  154.4717  140.2043  155.9932 H   0  0  0  0  0  0  0  0  0  0  0  0  # atno 8009 bound_to 7997
  156.1067  140.3210  155.8020 H   0  0  0  0  0  0  0  0  0  0  0  0  # atno 8010 bound_to 7997
  139.7253  143.8893  152.2517 H   0  0  0  0  0  0  0  0  0  0  0  0  # atno 10167 bound_to 10162
  156.8509  130.9719  151.3092 H   0  0  0  0  0  0  0  0  0  0  0  0  # atno 10718 bound_to 10713
  153.0721  135.4953  154.8327 H   0  0  0  0  0  0  0  0  0  0  0  0  # atno 10763 bound_to 10752
  154.7037  135.3006  154.9305 H   0  0  0  0  0  0  0  0  0  0  0  0  # atno 10764 bound_to 10752
  154.0020  135.6765  153.4812 H   0  0  0  0  0  0  0  0  0  0  0  0  # atno 10765 bound_to 10752
  140.7851  134.3034  157.5032 H   0  0  0  0  0  0  0  0  0  0  0  0  # atno 11005 bound_to 11000
  146.3520  140.1182  142.8601 LP  0  0  0  0  0  0  0  0  0  0  0  0  # atno 17320 bound_to 7965
  145.0731  140.9169  143.4870 LP  0  0  0  0  0  0  0  0  0  0  0  0  # atno 17321 bound_to 7965
  139.8800  144.7022  150.8888 LP  0  0  0  0  0  0  0  0  0  0  0  0  # atno 17342 bound_to 10162
  140.7761  143.3668  151.1723 LP  0  0  0  0  0  0  0  0  0  0  0  0  # atno 17343 bound_to 10162
  157.6304  130.8724  149.9263 LP  0  0  0  0  0  0  0  0  0  0  0  0  # atno 17370 bound_to 10713
  156.0829  130.3671  150.0545 LP  0  0  0  0  0  0  0  0  0  0  0  0  # atno 17371 bound_to 10713
  139.8738  134.9341  156.3599 LP  0  0  0  0  0  0  0  0  0  0  0  0  # atno 17394 bound_to 11000
  140.9444  133.7492  156.0189 LP  0  0  0  0  0  0  0  0  0  0  0  0  # atno 17395 bound_to 11000

$$$$
