AV-unprocessed.smi:2864|AV-procd|sdf|11013|dock7
  -GOLD-   2272015473D 1   1.00000     0.00000
 Structure written by MMmdl.
 37 38  0  0  0  0  0  0  0  0  1 V2000
  153.4693  139.6398  160.1464 C   0  0  0  0  0  0  0  0  0  0  0  0
  152.9672  141.0268  159.8019 C   0  0  0  0  0  0  0  0  0  0  0  0
  153.5787  142.1605  160.3687 C   0  0  0  0  0  0  0  0  0  0  0  0
  153.1173  143.4474  160.0378 C   0  0  0  0  0  0  0  0  0  0  0  0
  152.0406  143.6166  159.1411 C   0  0  0  0  0  0  0  0  0  0  0  0
  151.5920  145.0283  158.8015 C   0  0  0  0  0  0  0  0  0  0  0  0
  151.4100  142.4769  158.5750 C   0  0  0  0  0  0  0  0  0  0  0  0
  150.2469  142.6178  157.5926 C   0  0  2  0  0  0  0  0  0  0  0  0
  149.1274  143.2453  158.1896 O   0  0  0  0  0  0  0  0  0  0  0  0
  149.8115  141.2369  157.0549 C   0  0  0  0  0  0  0  0  0  0  0  0
  148.9194  141.3566  155.8953 N   0  0  0  0  0  0  0  0  0  0  0  0
  147.7129  141.9767  156.1733 N   0  0  0  0  0  0  0  0  0  0  0  0
  146.8140  142.1421  155.2575 C   0  0  0  0  0  0  0  0  0  0  0  0
  145.5292  142.8230  155.6609 C   0  0  0  0  0  0  0  0  0  0  0  0
  145.3008  143.8735  154.8722 F   0  0  0  0  0  0  0  0  0  0  0  0
  144.4934  141.9887  155.5668 F   0  0  0  0  0  0  0  0  0  0  0  0
  145.6147  143.2515  156.9209 F   0  0  0  0  0  0  0  0  0  0  0  0
  147.0845  141.6687  153.9101 C   0  0  0  0  0  0  0  0  0  0  0  0
  148.2600  141.0604  153.6426 C   0  0  0  0  0  0  0  0  0  0  0  0
  149.2756  140.8630  154.6741 C   0  0  0  0  0  0  0  0  0  0  0  0
  150.3488  140.2988  154.4647 O   0  0  0  0  0  0  0  0  0  0  0  0
  151.8914  141.1887  158.9070 C   0  0  0  0  0  0  0  0  0  0  0  0
  153.8703  139.6120  161.1600 H   0  0  0  0  0  0  0  0  0  0  0  0
  154.2592  139.3441  159.4558 H   0  0  0  0  0  0  0  0  0  0  0  0
  152.6641  138.9073  160.0819 H   0  0  0  0  0  0  0  0  0  0  0  0
  154.4059  142.0478  161.0542 H   0  0  0  0  0  0  0  0  0  0  0  0
  153.6005  144.3088  160.4753 H   0  0  0  0  0  0  0  0  0  0  0  0
  151.5606  145.1754  157.7220 H   0  0  0  0  0  0  0  0  0  0  0  0
  152.2739  145.7719  159.2148 H   0  0  0  0  0  0  0  0  0  0  0  0
  150.5999  145.2218  159.2096 H   0  0  0  0  0  0  0  0  0  0  0  0
  150.5504  143.2624  156.7685 H   0  0  0  0  0  0  0  0  0  0  0  0
  149.3114  143.3784  159.1071 H   0  0  0  0  0  0  0  0  0  0  0  0
  150.6967  140.6910  156.7220 H   0  0  0  0  0  0  0  0  0  0  0  0
  149.3887  140.6160  157.8473 H   0  0  0  0  0  0  0  0  0  0  0  0
  146.3484  141.8033  153.1316 H   0  0  0  0  0  0  0  0  0  0  0  0
  148.4569  140.7093  152.6401 H   0  0  0  0  0  0  0  0  0  0  0  0
  151.4360  140.3119  158.4702 H   0  0  0  0  0  0  0  0  0  0  0  0
  1  2  1  0  0  0  0
  1 23  1  0  0  0  0
  1 24  1  0  0  0  0
  1 25  1  0  0  0  0
  2 22  1  0  0  0  0
  2  3  2  0  0  0  0
  3  4  1  0  0  0  0
  3 26  1  0  0  0  0
  4  5  2  0  0  0  0
  4 27  1  0  0  0  0
  5  6  1  0  0  0  0
  5  7  1  0  0  0  0
  6 28  1  0  0  0  0
  6 29  1  0  0  0  0
  6 30  1  0  0  0  0
  7  8  1  0  0  0  0
  7 22  2  0  0  0  0
  8  9  1  0  0  0  0
  8 10  1  0  0  0  0
  8 31  1  0  0  0  0
  9 32  1  0  0  0  0
 10 11  1  0  0  0  0
 10 33  1  0  0  0  0
 10 34  1  0  0  0  0
 11 20  1  0  0  0  0
 11 12  1  0  0  0  0
 12 13  2  0  0  0  0
 13 14  1  0  0  0  0
 13 18  1  0  0  0  0
 14 15  1  0  0  0  0
 14 16  1  0  0  0  0
 14 17  1  0  0  0  0
 18 19  2  0  0  0  0
 18 35  1  0  0  0  0
 19 20  1  0  0  0  0
 19 36  1  0  0  0  0
 20 21  2  0  0  0  0
 22 37  1  0  0  0  0
M  END
> <s_m_source_file>
AV-unprocessed.smi

> <i_m_source_file_index>
2864

> <i_lp_mmshare_version>
43012

> <i_f3d_flags>
0

> <s_epik_input>
W0NIM11jMVtjSF1bY0hdYyhbQ0gzXSljKFtjSF0xKVtDQEhdKFtPSF0pW0NIMl1uMm5jKEMoRikoRilGKVtjSF1bY0hdYzI9Tw==

> <s_epik_cmdline>
J2VwaWtfcHl0aG9uJywgJy1waCcsICc3LjAnLCAnLXRuJywgJzgnLCAnLW1hJywgJzIwMCcsICctbWV0YWxfYmluZGluZycsICctaW1hZScsICc8aW5maWxlLm1hZT4nLCAnLW9tYWUnLCAnPG91dGZpbGUubWFlPic=

> <r_lp_tautomer_probability>
1

> <r_epik_Ionization_Penalty>
5.25156e-08

> <r_epik_Ionization_Penalty_Charging>
3.92872e-09

> <r_epik_Ionization_Penalty_Neutral>
4.85868e-08

> <r_epik_State_Penalty>
-0

> <r_epik_Charging_Adjusted_Penalty>
3.92872e-09

> <i_epik_Tot_Q>
0

> <i_epik_Tot_abs_Q>
0

> <r_epik_Metal_State_Penalty>
-0

> <b_epik_Metal_Only>
0

> <s_lp_Force_Field>
OPLS_2005

> <r_lp_Energy>
30.6225

> <b_lp_Chiralities_Consistent>
1

> <s_lp_Variant>
AV-unprocessed.smi:2864-1

> <Gold.Version>
5.8.1

> <Gold.Id.Protein>
6NUR|6NUR_protein|mol2

> <Gold.PLP.Fitness>
48.6580

> <Gold.PLP.PLP>
-46.0016

> <Gold.PLP.part.hbond>
-2.6122

> <Gold.PLP.part.metal>
0.0000

> <Gold.PLP.part.buried>
-4.3941

> <Gold.PLP.part.nonpolar>
-39.2447

> <Gold.PLP.part.repulsive>
0.7345

> <Gold.PLP.ligand.clash>
0.0000

> <Gold.PLP.ligand.torsion>
0.1767

> <Gold.PLP.Chemscore.Hbond>
1.0000

> <Gold.PLP.Chemscore.CHOScore>
0.0000

> <Gold.PLP.Chemscore.Metal>
0.0000

> <Gold.Chemscore.Hbonds>
donor molecule, donor type, donor heavy atom, donor atom, acceptor molecule, acceptor atom, score
      P1  H  7989  7998       L1    21  1.00

> <Gold.PLP.Chemscore.Internal.Correction>
0.0099

> <Gold.Rescore>
     Score         DG    S(hbond)    S(metal)    S(lipo)     H(rot)  DE(clash)    DE(int)     intcor
     15.44     -17.10       0.98        0.00     116.20       2.05       0.08       1.58       ----

> <Gold.Chemscore.Fitness>
15.4432

> <Gold.Chemscore.DG>
-17.0979

> <Gold.Chemscore.ZeroCoef>
-5.4800

> <Gold.Chemscore.Hbond>
0.9804

> <Gold.Chemscore.Metal>
0.0000

> <Gold.Chemscore.Lipo>
116.2035

> <Gold.Chemscore.Internal_Hbond>
0.0000

> <Gold.Chemscore.DEClash>
0.0771

> <Gold.Chemscore.DEInternal>
1.5775

> <Gold.Chemscore.Rot>
2.0517

> <Gold.Chemscore.Internal.Correction>
   9.000000E+99

> <Gold.Chemscore.Hbonds>
donor molecule, donor type, donor heavy atom, donor atom, acceptor molecule, acceptor atom, score
      P1  H  7989  7998       L1    21  0.97

> <Gold.Chemscore.Hbond.Weighted>
-3.2744

> <Gold.Chemscore.Metal.Weighted>
-0.0000

> <Gold.Chemscore.Lipo.Weighted>
-13.5958

> <Gold.Chemscore.Internal_Hbond.Weighted>
0.0000

> <Gold.Chemscore.DEClash.Weighted>
0.0771

> <Gold.Chemscore.DEInternal.Weighted>
1.5775

> <Gold.Chemscore.Rot.Weighted>
5.2524

> <Gold.Chemscore.Internal.Correction.Weighted>
   9.000000E+99

> <Gold.Protein.RotatedTorsions>
[ 6907 6896 6895 6894 ] final   23.70 input  -60.11 | X-H torsion
[ 7974 7965 7964 7962 ] final -146.06 input  175.53 | X-H torsion
[ 8008 7997 7996 7995 ] final -139.17 input   59.86 | X-H torsion
[ 10167 10162 10161 10158 ] final  -37.23 input  -65.29 | X-H torsion
[ 10718 10713 10712 10709 ] final  -11.14 input   66.30 | X-H torsion
[ 10763 10752 10751 10750 ] final    3.51 input  -60.55 | X-H torsion
[ 11005 11000 10999 10996 ] final  -54.05 input  -57.11 | X-H torsion

> <Gold.Protein.ActiveResidues>
 VAL166  LYS551  ARG553  GLY616  TRP617  ASP618  TYR619  PRO620  LYS621  CYS622 
 ASP623  PHE694  ASN695  SER759  ASP760  ASP761  ALA762  ILE779  LEU786  VAL792 
 PHE793  MET794  SER795  GLU796  ALA797  LYS798  CYS799  TRP800  GLU811  SER814 

> <Gold.Protein.RotatedAtoms>
  151.9463  135.0190  160.0538 H   0  0  0  0  0  0  0  0  0  0  0  0  # atno 6907 bound_to 6896
  152.1992  133.4824  159.5058 H   0  0  0  0  0  0  0  0  0  0  0  0  # atno 6908 bound_to 6896
  150.6951  134.1529  159.4190 H   0  0  0  0  0  0  0  0  0  0  0  0  # atno 6909 bound_to 6896
  144.8185  140.5505  143.5594 H   0  0  0  0  0  0  0  0  0  0  0  0  # atno 7974 bound_to 7965
  155.4404  140.0531  157.3011 H   0  0  0  0  0  0  0  0  0  0  0  0  # atno 8008 bound_to 7997
  154.4821  140.2085  155.9697 H   0  0  0  0  0  0  0  0  0  0  0  0  # atno 8009 bound_to 7997
  156.1220  140.3186  155.8227 H   0  0  0  0  0  0  0  0  0  0  0  0  # atno 8010 bound_to 7997
  140.7123  143.3355  151.2472 H   0  0  0  0  0  0  0  0  0  0  0  0  # atno 10167 bound_to 10162
  156.6633  130.4988  149.6023 H   0  0  0  0  0  0  0  0  0  0  0  0  # atno 10718 bound_to 10713
  153.2825  135.6942  153.7372 H   0  0  0  0  0  0  0  0  0  0  0  0  # atno 10763 bound_to 10752
  153.6354  135.3403  155.3055 H   0  0  0  0  0  0  0  0  0  0  0  0  # atno 10764 bound_to 10752
  154.8499  135.4419  154.1882 H   0  0  0  0  0  0  0  0  0  0  0  0  # atno 10765 bound_to 10752
  141.1006  133.6618  156.4263 H   0  0  0  0  0  0  0  0  0  0  0  0  # atno 11005 bound_to 11000
  145.5159  139.1478  143.3579 LP  0  0  0  0  0  0  0  0  0  0  0  0  # atno 17320 bound_to 7965
  146.2489  140.5300  142.8902 LP  0  0  0  0  0  0  0  0  0  0  0  0  # atno 17321 bound_to 7965
  139.6849  143.9791  152.2829 LP  0  0  0  0  0  0  0  0  0  0  0  0  # atno 17342 bound_to 10162
  139.9433  144.6668  150.8245 LP  0  0  0  0  0  0  0  0  0  0  0  0  # atno 17343 bound_to 10162
  156.1994  130.6610  151.1150 LP  0  0  0  0  0  0  0  0  0  0  0  0  # atno 17370 bound_to 10713
  157.7102  131.0738  150.6527 LP  0  0  0  0  0  0  0  0  0  0  0  0  # atno 17371 bound_to 10713
  140.5030  134.6467  157.5256 LP  0  0  0  0  0  0  0  0  0  0  0  0  # atno 17394 bound_to 11000
  139.9857  134.7066  155.9779 LP  0  0  0  0  0  0  0  0  0  0  0  0  # atno 17395 bound_to 11000

$$$$
