AV-unprocessed.smi:2998|AV-procd|sdf|11416|dock9
  -GOLD-   2272016343D 1   1.00000     0.00000
 Structure written by MMmdl.
 41 43  0  0  0  0  0  0  0  0  1 V2000
  148.2948  140.5045  156.7980 O   0  0  0  0  0  0  0  0  0  0  0  0
  148.6250  141.6018  156.3459 C   0  0  0  0  0  0  0  0  0  0  0  0
  150.1013  141.9330  156.0811 C   0  0  0  0  0  0  0  0  0  0  0  0
  150.8882  142.1285  157.3129 N   0  0  0  0  0  0  0  0  0  0  0  0
  151.3004  143.4452  157.5977 C   0  0  0  0  0  0  0  0  0  0  0  0
  151.9882  143.7304  158.6571 N   0  0  0  0  0  0  0  0  0  0  0  0
  152.3447  142.7135  159.5505 C   0  0  0  0  0  0  0  0  0  0  0  0
  153.1735  143.0991  160.7682 C   0  0  0  0  0  0  0  0  0  0  0  0
  153.4584  141.9797  161.7840 C   0  0  0  0  0  0  0  0  0  0  0  0
  153.2592  143.0221  162.8901 C   0  0  0  0  0  0  0  0  0  0  0  0
  152.4138  143.8218  161.8925 C   0  0  0  0  0  0  0  0  0  0  0  0
  151.9834  141.4302  159.3130 C   0  0  0  0  0  0  0  0  0  0  0  0
  151.2004  141.0784  158.1285 C   0  0  0  0  0  0  0  0  0  0  0  0
  150.8478  139.9242  157.8850 O   0  0  0  0  0  0  0  0  0  0  0  0
  147.7439  142.5660  156.0413 N   0  0  0  0  0  0  0  0  0  0  0  0
  146.2976  142.4690  156.2184 C   0  0  0  0  0  0  0  0  0  0  0  0
  145.5774  142.6594  154.8716 C   0  0  0  0  0  0  0  0  0  0  0  0
  144.9540  144.0539  154.9256 C   0  0  0  0  0  0  0  0  0  0  0  0
  144.6103  144.2487  156.3989 C   0  0  0  0  0  0  0  0  0  0  0  0
  145.7615  143.5766  157.1507 C   0  0  0  0  0  0  0  0  0  0  0  0
  150.5191  141.1392  155.4592 H   0  0  0  0  0  0  0  0  0  0  0  0
  150.1610  142.8327  155.4655 H   0  0  0  0  0  0  0  0  0  0  0  0
  151.0042  144.1994  156.8666 H   0  0  0  0  0  0  0  0  0  0  0  0
  154.0831  143.6320  160.4851 H   0  0  0  0  0  0  0  0  0  0  0  0
  152.6929  141.2017  161.8072 H   0  0  0  0  0  0  0  0  0  0  0  0
  154.4623  141.5575  161.7291 H   0  0  0  0  0  0  0  0  0  0  0  0
  152.7169  142.6629  163.7651 H   0  0  0  0  0  0  0  0  0  0  0  0
  154.1845  143.5310  163.1656 H   0  0  0  0  0  0  0  0  0  0  0  0
  152.5650  144.9012  161.9262 H   0  0  0  0  0  0  0  0  0  0  0  0
  151.3552  143.5602  161.9404 H   0  0  0  0  0  0  0  0  0  0  0  0
  152.2703  140.6503  160.0033 H   0  0  0  0  0  0  0  0  0  0  0  0
  148.1001  143.4351  155.6705 H   0  0  0  0  0  0  0  0  0  0  0  0
  146.0478  141.4837  156.6166 H   0  0  0  0  0  0  0  0  0  0  0  0
  146.2304  142.5326  154.0068 H   0  0  0  0  0  0  0  0  0  0  0  0
  144.7827  141.9176  154.7824 H   0  0  0  0  0  0  0  0  0  0  0  0
  145.6892  144.7988  154.6183 H   0  0  0  0  0  0  0  0  0  0  0  0
  144.0855  144.1523  154.2738 H   0  0  0  0  0  0  0  0  0  0  0  0
  144.4894  145.2987  156.6672 H   0  0  0  0  0  0  0  0  0  0  0  0
  143.6742  143.7370  156.6264 H   0  0  0  0  0  0  0  0  0  0  0  0
  145.4387  143.1799  158.1137 H   0  0  0  0  0  0  0  0  0  0  0  0
  146.5351  144.3191  157.3541 H   0  0  0  0  0  0  0  0  0  0  0  0
  1  2  2  0  0  0  0
  2  3  1  0  0  0  0
  2 15  1  0  0  0  0
  3  4  1  0  0  0  0
  3 21  1  0  0  0  0
  3 22  1  0  0  0  0
  4 13  1  0  0  0  0
  4  5  1  0  0  0  0
  5  6  2  0  0  0  0
  5 23  1  0  0  0  0
  6  7  1  0  0  0  0
  7  8  1  0  0  0  0
  7 12  2  0  0  0  0
  8 11  1  0  0  0  0
  8  9  1  0  0  0  0
  8 24  1  0  0  0  0
  9 10  1  0  0  0  0
  9 25  1  0  0  0  0
  9 26  1  0  0  0  0
 10 11  1  0  0  0  0
 10 27  1  0  0  0  0
 10 28  1  0  0  0  0
 11 29  1  0  0  0  0
 11 30  1  0  0  0  0
 12 13  1  0  0  0  0
 12 31  1  0  0  0  0
 13 14  2  0  0  0  0
 15 16  1  0  0  0  0
 15 32  1  0  0  0  0
 16 20  1  0  0  0  0
 16 17  1  0  0  0  0
 16 33  1  0  0  0  0
 17 18  1  0  0  0  0
 17 34  1  0  0  0  0
 17 35  1  0  0  0  0
 18 19  1  0  0  0  0
 18 36  1  0  0  0  0
 18 37  1  0  0  0  0
 19 20  1  0  0  0  0
 19 38  1  0  0  0  0
 19 39  1  0  0  0  0
 20 40  1  0  0  0  0
 20 41  1  0  0  0  0
M  END
> <s_m_source_file>
AV-unprocessed.smi

> <i_m_source_file_index>
2998

> <i_lp_mmshare_version>
43012

> <i_f3d_flags>
0

> <s_epik_input>
W0NIMl0xW0NIMl1bQ0gyXVtDSDJdW0NIXTFbTkhdQyg9TylbQ0gyXW4yW2NIXW5jKFtjSF1jMj1PKVtDSF0zW0NIMl1bQ0gyXVtDSDJdMw==

> <s_epik_cmdline>
J2VwaWtfcHl0aG9uJywgJy1waCcsICc3LjAnLCAnLXRuJywgJzgnLCAnLW1hJywgJzIwMCcsICctbWV0YWxfYmluZGluZycsICctaW1hZScsICc8aW5maWxlLm1hZT4nLCAnLW9tYWUnLCAnPG91dGZpbGUubWFlPic=

> <r_lp_tautomer_probability>
1

> <r_epik_Ionization_Penalty>
7.51496e-06

> <r_epik_Ionization_Penalty_Charging>
8.69507e-09

> <r_epik_Ionization_Penalty_Neutral>
7.50627e-06

> <r_epik_State_Penalty>
-0

> <r_epik_Charging_Adjusted_Penalty>
8.69507e-09

> <i_epik_Tot_Q>
0

> <i_epik_Tot_abs_Q>
0

> <r_epik_Metal_State_Penalty>
-0

> <b_epik_Metal_Only>
0

> <s_lp_Force_Field>
OPLS_2005

> <r_lp_Energy>
32.6408

> <b_lp_Chiralities_Consistent>
1

> <s_lp_Variant>
AV-unprocessed.smi:2998-1

> <Gold.Version>
5.8.1

> <Gold.Id.Protein>
6NUR|6NUR_protein|mol2

> <Gold.PLP.Fitness>
49.9848

> <Gold.PLP.PLP>
-44.4916

> <Gold.PLP.part.hbond>
-1.0000

> <Gold.PLP.part.metal>
0.0000

> <Gold.PLP.part.buried>
-7.4099

> <Gold.PLP.part.nonpolar>
-36.5710

> <Gold.PLP.part.repulsive>
0.1308

> <Gold.PLP.ligand.clash>
0.0000

> <Gold.PLP.ligand.torsion>
0.4302

> <Gold.PLP.Chemscore.Hbond>
0.9920

> <Gold.PLP.Chemscore.CHOScore>
1.0000

> <Gold.PLP.Chemscore.Metal>
0.0000

> <Gold.Chemscore.Hbonds>
donor molecule, donor type, donor heavy atom, donor atom, acceptor molecule, acceptor atom, score
      L1  H    15    32       P1  8028  0.88
      L1  C     5    23       P1  8028  1.00

> <Gold.PLP.Chemscore.Internal.Correction>
0.3775

> <Gold.Rescore>
     Score         DG    S(hbond)    S(metal)    S(lipo)     H(rot)  DE(clash)    DE(int)     intcor
     14.99     -15.73       0.95        0.00      96.11       1.63       0.03       0.71       ----

> <Gold.Chemscore.Fitness>
14.9937

> <Gold.Chemscore.DG>
-15.7333

> <Gold.Chemscore.ZeroCoef>
-5.4800

> <Gold.Chemscore.Hbond>
0.9516

> <Gold.Chemscore.Metal>
0.0000

> <Gold.Chemscore.Lipo>
96.1127

> <Gold.Chemscore.Internal_Hbond>
0.0000

> <Gold.Chemscore.DEClash>
0.0268

> <Gold.Chemscore.DEInternal>
0.7129

> <Gold.Chemscore.Rot>
1.6290

> <Gold.Chemscore.Internal.Correction>
   9.000000E+99

> <Gold.Chemscore.Hbonds>
donor molecule, donor type, donor heavy atom, donor atom, acceptor molecule, acceptor atom, score
      L1  H    15    32       P1  8028  0.51

> <Gold.Chemscore.Hbond.Weighted>
-3.1783

> <Gold.Chemscore.Metal.Weighted>
-0.0000

> <Gold.Chemscore.Lipo.Weighted>
-11.2452

> <Gold.Chemscore.Internal_Hbond.Weighted>
0.0000

> <Gold.Chemscore.DEClash.Weighted>
0.0268

> <Gold.Chemscore.DEInternal.Weighted>
0.7129

> <Gold.Chemscore.Rot.Weighted>
4.1702

> <Gold.Chemscore.Internal.Correction.Weighted>
   9.000000E+99

> <Gold.Protein.RotatedTorsions>
[ 6907 6896 6895 6894 ] final   43.06 input  -60.11 | X-H torsion
[ 7974 7965 7964 7962 ] final   86.81 input  175.53 | X-H torsion
[ 8008 7997 7996 7995 ] final  -43.46 input   59.86 | X-H torsion
[ 10167 10162 10161 10158 ] final -170.77 input  -65.29 | X-H torsion
[ 10718 10713 10712 10709 ] final   84.67 input   66.30 | X-H torsion
[ 10763 10752 10751 10750 ] final  -60.46 input  -60.55 | X-H torsion
[ 11005 11000 10999 10996 ] final   40.64 input  -57.11 | X-H torsion

> <Gold.Protein.ActiveResidues>
 VAL166  LYS551  ARG553  GLY616  TRP617  ASP618  TYR619  PRO620  LYS621  CYS622 
 ASP623  PHE694  ASN695  SER759  ASP760  ASP761  ALA762  ILE779  LEU786  VAL792 
 PHE793  MET794  SER795  GLU796  ALA797  LYS798  CYS799  TRP800  GLU811  SER814 

> <Gold.Protein.RotatedAtoms>
  152.2157  134.8460  160.0491 H   0  0  0  0  0  0  0  0  0  0  0  0  # atno 6907 bound_to 6896
  151.9262  133.3594  159.3923 H   0  0  0  0  0  0  0  0  0  0  0  0  # atno 6908 bound_to 6896
  150.6987  134.4509  159.5380 H   0  0  0  0  0  0  0  0  0  0  0  0  # atno 6909 bound_to 6896
  145.5673  139.2310  143.2426 H   0  0  0  0  0  0  0  0  0  0  0  0  # atno 7974 bound_to 7965
  154.3997  140.1447  156.3522 H   0  0  0  0  0  0  0  0  0  0  0  0  # atno 8008 bound_to 7997
  155.8258  140.3467  155.5521 H   0  0  0  0  0  0  0  0  0  0  0  0  # atno 8009 bound_to 7997
  155.8240  140.0902  157.1822 H   0  0  0  0  0  0  0  0  0  0  0  0  # atno 8010 bound_to 7997
  139.5841  144.1356  152.1553 H   0  0  0  0  0  0  0  0  0  0  0  0  # atno 10167 bound_to 10162
  157.6902  131.0143  150.2707 H   0  0  0  0  0  0  0  0  0  0  0  0  # atno 10718 bound_to 10713
  154.2695  135.6293  153.5305 H   0  0  0  0  0  0  0  0  0  0  0  0  # atno 10763 bound_to 10752
  152.9882  135.5607  154.5615 H   0  0  0  0  0  0  0  0  0  0  0  0  # atno 10764 bound_to 10752
  154.5182  135.2881  155.1260 H   0  0  0  0  0  0  0  0  0  0  0  0  # atno 10765 bound_to 10752
  140.1911  134.3986  155.8146 H   0  0  0  0  0  0  0  0  0  0  0  0  # atno 11005 bound_to 11000
  146.1809  140.6499  142.9189 LP  0  0  0  0  0  0  0  0  0  0  0  0  # atno 17320 bound_to 7965
  144.7454  140.5054  143.6839 LP  0  0  0  0  0  0  0  0  0  0  0  0  # atno 17321 bound_to 7965
  140.0916  144.5616  150.7050 LP  0  0  0  0  0  0  0  0  0  0  0  0  # atno 17342 bound_to 10162
  140.7116  143.2509  151.4564 LP  0  0  0  0  0  0  0  0  0  0  0  0  # atno 17343 bound_to 10162
  156.3270  130.3794  149.7524 LP  0  0  0  0  0  0  0  0  0  0  0  0  # atno 17370 bound_to 10713
  156.5076  130.8157  151.3156 LP  0  0  0  0  0  0  0  0  0  0  0  0  # atno 17371 bound_to 10713
  141.2226  133.7047  156.8097 LP  0  0  0  0  0  0  0  0  0  0  0  0  # atno 17394 bound_to 11000
  140.2159  134.8793  157.3325 LP  0  0  0  0  0  0  0  0  0  0  0  0  # atno 17395 bound_to 11000

$$$$
