AV-unprocessed.smi:3335|AV-procd|sdf|12847|dock3
  -GOLD-   2272019233D 1   1.00000     0.00000
 Structure written by MMmdl.
 46 47  0  0  0  0  0  0  0  0  1 V2000
  145.9627  136.2235  151.5268 C   0  0  0  0  0  0  0  0  0  0  0  0
  146.4408  137.3553  152.3898 C   0  0  0  0  0  0  0  0  0  0  0  0
  146.3488  138.7513  152.1295 C   0  0  0  0  0  0  0  0  0  0  0  0
  146.8734  139.4888  153.0936 N   0  0  0  0  0  0  0  0  0  0  0  0
  147.3140  138.5959  154.0089 N   0  0  0  0  0  0  0  0  0  0  0  0
  147.9947  139.0427  155.2228 C   0  0  2  0  0  0  0  0  0  0  0  0
  147.0214  139.6603  156.2470 C   0  0  0  0  0  0  0  0  0  0  0  0
  149.2324  139.9372  154.9383 C   0  0  1  0  0  0  0  0  0  0  0  0
  148.8439  141.2600  154.2466 C   0  0  0  0  0  0  0  0  0  0  0  0
  149.9684  140.1705  156.1842 N   0  0  0  0  0  0  0  0  0  0  0  0
  151.4075  140.4529  156.0292 C   0  0  2  0  0  0  0  0  0  0  0  0
  152.0598  139.3242  155.2162 C   0  0  0  0  0  0  0  0  0  0  0  0
  152.1276  140.5871  157.3885 C   0  0  0  0  0  0  0  0  0  0  0  0
  152.8736  139.6784  157.7586 O   0  0  0  0  0  0  0  0  0  0  0  0
  151.9215  141.6877  158.1443 N   0  0  0  0  0  0  0  0  0  0  0  0
  152.5314  141.8791  159.4595 C   0  0  0  0  0  0  0  0  0  0  0  0
  151.8529  143.1108  160.0590 C   0  0  0  0  0  0  0  0  0  0  0  0
  151.3938  143.9064  158.8463 C   0  0  0  0  0  0  0  0  0  0  0  0
  151.0917  142.8400  157.7936 C   0  0  0  0  0  0  0  0  0  0  0  0
  147.0680  137.3003  153.6020 C   0  0  0  0  0  0  0  0  0  0  0  0
  145.9676  136.4917  150.4701 H   0  0  0  0  0  0  0  0  0  0  0  0
  144.9441  135.9290  151.7794 H   0  0  0  0  0  0  0  0  0  0  0  0
  146.5910  135.3391  151.6353 H   0  0  0  0  0  0  0  0  0  0  0  0
  145.9210  139.2479  151.2710 H   0  0  0  0  0  0  0  0  0  0  0  0
  148.3750  138.1364  155.6967 H   0  0  0  0  0  0  0  0  0  0  0  0
  147.5348  139.8953  157.1796 H   0  0  0  0  0  0  0  0  0  0  0  0
  146.2139  138.9668  156.4836 H   0  0  0  0  0  0  0  0  0  0  0  0
  146.5681  140.5816  155.8803 H   0  0  0  0  0  0  0  0  0  0  0  0
  149.8773  139.3757  154.2607 H   0  0  0  0  0  0  0  0  0  0  0  0
  148.1744  141.0775  153.4059 H   0  0  0  0  0  0  0  0  0  0  0  0
  149.7153  141.7754  153.8441 H   0  0  0  0  0  0  0  0  0  0  0  0
  148.3373  141.9410  154.9315 H   0  0  0  0  0  0  0  0  0  0  0  0
  149.8173  139.3836  156.7990 H   0  0  0  0  0  0  0  0  0  0  0  0
  151.5110  141.3650  155.4429 H   0  0  0  0  0  0  0  0  0  0  0  0
  153.1218  139.5137  155.0551 H   0  0  0  0  0  0  0  0  0  0  0  0
  151.5943  139.2309  154.2345 H   0  0  0  0  0  0  0  0  0  0  0  0
  151.9662  138.3604  155.7189 H   0  0  0  0  0  0  0  0  0  0  0  0
  152.4041  141.0061  160.1018 H   0  0  0  0  0  0  0  0  0  0  0  0
  153.6009  142.0540  159.3327 H   0  0  0  0  0  0  0  0  0  0  0  0
  150.9844  142.8023  160.6425 H   0  0  0  0  0  0  0  0  0  0  0  0
  152.5115  143.6802  160.7155 H   0  0  0  0  0  0  0  0  0  0  0  0
  150.5369  144.5465  159.0590 H   0  0  0  0  0  0  0  0  0  0  0  0
  152.2084  144.5432  158.4984 H   0  0  0  0  0  0  0  0  0  0  0  0
  151.3023  143.2119  156.7901 H   0  0  0  0  0  0  0  0  0  0  0  0
  150.0413  142.5488  157.8398 H   0  0  0  0  0  0  0  0  0  0  0  0
  147.3618  136.4521  154.2029 H   0  0  0  0  0  0  0  0  0  0  0  0
  1  2  1  0  0  0  0
  1 21  1  0  0  0  0
  1 22  1  0  0  0  0
  1 23  1  0  0  0  0
  2 20  2  0  0  0  0
  2  3  1  0  0  0  0
  3  4  2  0  0  0  0
  3 24  1  0  0  0  0
  4  5  1  0  0  0  0
  5  6  1  0  0  0  0
  5 20  1  0  0  0  0
  6  7  1  0  0  0  0
  6  8  1  0  0  0  0
  6 25  1  0  0  0  0
  7 26  1  0  0  0  0
  7 27  1  0  0  0  0
  7 28  1  0  0  0  0
  8  9  1  0  0  0  0
  8 10  1  0  0  0  0
  8 29  1  0  0  0  0
  9 30  1  0  0  0  0
  9 31  1  0  0  0  0
  9 32  1  0  0  0  0
 10 11  1  0  0  0  0
 10 33  1  0  0  0  0
 11 12  1  0  0  0  0
 11 13  1  0  0  0  0
 11 34  1  0  0  0  0
 12 35  1  0  0  0  0
 12 36  1  0  0  0  0
 12 37  1  0  0  0  0
 13 14  2  0  0  0  0
 13 15  1  0  0  0  0
 15 19  1  0  0  0  0
 15 16  1  0  0  0  0
 16 17  1  0  0  0  0
 16 38  1  0  0  0  0
 16 39  1  0  0  0  0
 17 18  1  0  0  0  0
 17 40  1  0  0  0  0
 17 41  1  0  0  0  0
 18 19  1  0  0  0  0
 18 42  1  0  0  0  0
 18 43  1  0  0  0  0
 19 44  1  0  0  0  0
 19 45  1  0  0  0  0
 20 46  1  0  0  0  0
M  END
> <s_m_source_file>
AV-unprocessed.smi

> <i_m_source_file_index>
3335

> <i_lp_mmshare_version>
43012

> <i_f3d_flags>
0

> <s_epik_input>
W0NIM11jMVtjSF1ubihbY0hdMSlbQ0BIXShbQ0gzXSlbQ0BIXShbQ0gzXSlbTkhdW0NASF0oW0NIM10pQyg9TylOMltDSDJdW0NIMl1bQ0gyXVtDSDJdMg==

> <s_epik_cmdline>
J2VwaWtfcHl0aG9uJywgJy1waCcsICc3LjAnLCAnLXRuJywgJzgnLCAnLW1hJywgJzIwMCcsICctbWV0YWxfYmluZGluZycsICctaW1hZScsICc8aW5maWxlLm1hZT4nLCAnLW9tYWUnLCAnPG91dGZpbGUubWFlPic=

> <r_lp_tautomer_probability>
1

> <r_epik_Ionization_Penalty>
0.918803

> <r_epik_Ionization_Penalty_Charging>
0

> <r_epik_Ionization_Penalty_Neutral>
0.918803

> <r_epik_State_Penalty>
0.958258

> <r_epik_Charging_Adjusted_Penalty>
0.958258

> <i_epik_Tot_Q>
0

> <i_epik_Tot_abs_Q>
0

> <r_epik_Metal_State_Penalty>
0.956786

> <b_epik_Metal_Only>
0

> <s_lp_Force_Field>
OPLS_2005

> <r_lp_Energy>
40.8069

> <b_lp_Chiralities_Consistent>
1

> <s_lp_Variant>
AV-unprocessed.smi:3335-11

> <Gold.Version>
5.8.1

> <Gold.Id.Protein>
6NUR|6NUR_protein|mol2

> <Gold.PLP.Fitness>
38.4308

> <Gold.PLP.PLP>
-33.2174

> <Gold.PLP.part.hbond>
-1.0000

> <Gold.PLP.part.metal>
0.0000

> <Gold.PLP.part.buried>
0.4148

> <Gold.PLP.part.nonpolar>
-32.6350

> <Gold.PLP.part.repulsive>
0.2387

> <Gold.PLP.ligand.clash>
0.0000

> <Gold.PLP.ligand.torsion>
0.7887

> <Gold.PLP.Chemscore.Hbond>
1.0000

> <Gold.PLP.Chemscore.CHOScore>
1.1893

> <Gold.PLP.Chemscore.Metal>
0.0000

> <Gold.Chemscore.Hbonds>
donor molecule, donor type, donor heavy atom, donor atom, acceptor molecule, acceptor atom, score
      P1  H  7997  8009       L1    14  1.00
      L1  C     3    24       P1 10171  0.88
      L1  C     3    24       P1 10175  0.14

> <Gold.PLP.Chemscore.Internal.Correction>
0.2230

> <Gold.Rescore>
     Score         DG    S(hbond)    S(metal)    S(lipo)     H(rot)  DE(clash)    DE(int)     intcor
     13.34     -15.22       0.89        0.00      93.25       1.62       0.21       1.66       ----

> <Gold.Chemscore.Fitness>
13.3417

> <Gold.Chemscore.DG>
-15.2198

> <Gold.Chemscore.ZeroCoef>
-5.4800

> <Gold.Chemscore.Hbond>
0.8916

> <Gold.Chemscore.Metal>
0.0000

> <Gold.Chemscore.Lipo>
93.2472

> <Gold.Chemscore.Internal_Hbond>
0.0000

> <Gold.Chemscore.DEClash>
0.2141

> <Gold.Chemscore.DEInternal>
1.6640

> <Gold.Chemscore.Rot>
1.6204

> <Gold.Chemscore.Internal.Correction>
   9.000000E+99

> <Gold.Chemscore.Hbonds>
donor molecule, donor type, donor heavy atom, donor atom, acceptor molecule, acceptor atom, score
      P1  H  7997  8009       L1    14  0.63

> <Gold.Chemscore.Hbond.Weighted>
-2.9780

> <Gold.Chemscore.Metal.Weighted>
-0.0000

> <Gold.Chemscore.Lipo.Weighted>
-10.9099

> <Gold.Chemscore.Internal_Hbond.Weighted>
0.0000

> <Gold.Chemscore.DEClash.Weighted>
0.2141

> <Gold.Chemscore.DEInternal.Weighted>
1.6640

> <Gold.Chemscore.Rot.Weighted>
4.1482

> <Gold.Chemscore.Internal.Correction.Weighted>
   9.000000E+99

> <Gold.Protein.RotatedTorsions>
[ 6907 6896 6895 6894 ] final -161.18 input  -60.11 | X-H torsion
[ 7974 7965 7964 7962 ] final   64.83 input  175.53 | X-H torsion
[ 8008 7997 7996 7995 ] final  151.29 input   59.86 | X-H torsion
[ 10167 10162 10161 10158 ] final -150.80 input  -65.29 | X-H torsion
[ 10718 10713 10712 10709 ] final  106.09 input   66.30 | X-H torsion
[ 10763 10752 10751 10750 ] final  -39.60 input  -60.55 | X-H torsion
[ 11005 11000 10999 10996 ] final -109.13 input  -57.11 | X-H torsion

> <Gold.Protein.ActiveResidues>
 VAL166  LYS551  ARG553  GLY616  TRP617  ASP618  TYR619  PRO620  LYS621  CYS622 
 ASP623  PHE694  ASN695  SER759  ASP760  ASP761  ALA762  ILE779  LEU786  VAL792 
 PHE793  MET794  SER795  GLU796  ALA797  LYS798  CYS799  TRP800  GLU811  SER814 

> <Gold.Protein.RotatedAtoms>
  151.3607  133.3891  159.2689 H   0  0  0  0  0  0  0  0  0  0  0  0  # atno 6907 bound_to 6896
  150.9728  134.9099  159.7808 H   0  0  0  0  0  0  0  0  0  0  0  0  # atno 6908 bound_to 6896
  152.5190  134.3569  159.9323 H   0  0  0  0  0  0  0  0  0  0  0  0  # atno 6909 bound_to 6896
  145.8456  139.3222  143.0905 H   0  0  0  0  0  0  0  0  0  0  0  0  # atno 7974 bound_to 7965
  156.2680  140.2052  156.6153 H   0  0  0  0  0  0  0  0  0  0  0  0  # atno 8008 bound_to 7997
  154.6800  140.0541  157.0279 H   0  0  0  0  0  0  0  0  0  0  0  0  # atno 8009 bound_to 7997
  155.1015  140.3206  155.4549 H   0  0  0  0  0  0  0  0  0  0  0  0  # atno 8010 bound_to 7997
  139.7323  143.8790  152.2538 H   0  0  0  0  0  0  0  0  0  0  0  0  # atno 10167 bound_to 10162
  157.6681  131.0843  150.5954 H   0  0  0  0  0  0  0  0  0  0  0  0  # atno 10718 bound_to 10713
  153.9321  135.6771  153.4745 H   0  0  0  0  0  0  0  0  0  0  0  0  # atno 10763 bound_to 10752
  153.0974  135.4844  154.8801 H   0  0  0  0  0  0  0  0  0  0  0  0  # atno 10764 bound_to 10752
  154.7422  135.3163  154.8665 H   0  0  0  0  0  0  0  0  0  0  0  0  # atno 10765 bound_to 10752
  141.0864  133.9131  157.2175 H   0  0  0  0  0  0  0  0  0  0  0  0  # atno 11005 bound_to 11000
  145.9415  140.8976  143.0305 LP  0  0  0  0  0  0  0  0  0  0  0  0  # atno 17320 bound_to 7965
  144.6731  140.1556  143.7426 LP  0  0  0  0  0  0  0  0  0  0  0  0  # atno 17321 bound_to 7965
  139.8716  144.7065  150.8981 LP  0  0  0  0  0  0  0  0  0  0  0  0  # atno 17342 bound_to 10162
  140.7773  143.3733  151.1608 LP  0  0  0  0  0  0  0  0  0  0  0  0  # atno 17343 bound_to 10162
  156.6254  130.4417  149.5806 LP  0  0  0  0  0  0  0  0  0  0  0  0  # atno 17370 bound_to 10713
  156.2323  130.6802  151.1475 LP  0  0  0  0  0  0  0  0  0  0  0  0  # atno 17371 bound_to 10713
  139.9683  135.0135  156.9446 LP  0  0  0  0  0  0  0  0  0  0  0  0  # atno 17394 bound_to 11000
  140.5352  134.0774  155.7326 LP  0  0  0  0  0  0  0  0  0  0  0  0  # atno 17395 bound_to 11000

$$$$
