AV-unprocessed.smi:1978|AV-procd|sdf|7994|dock8
  -GOLD-   2272010173D 1   1.00000     0.00000
 Structure written by MMmdl.
 45 46  0  0  0  0  0  0  0  0  2 V2000
  151.6712  141.7525  158.1884 C   0  0  0  0  0  0  0  0  0  0  0  0
  151.1900  140.9668  157.0174 C   0  0  0  0  0  0  0  0  0  0  0  0
  150.9933  139.6301  156.8119 C   0  0  0  0  0  0  0  0  0  0  0  0
  150.5267  139.5785  155.4717 C   0  0  0  0  0  0  0  0  0  0  0  0
  150.1996  138.3403  154.8624 N   0  0  0  0  0  0  0  0  0  0  0  0
  149.5748  137.2926  155.4254 C   0  0  0  0  0  0  0  0  0  0  0  0
  149.1714  137.2460  156.5879 O   0  0  0  0  0  0  0  0  0  0  0  0
  149.4372  136.2799  154.5573 N   0  0  0  0  0  0  0  0  0  0  0  0
  148.7902  135.0079  154.8622 C   0  0  0  0  0  0  0  0  0  0  0  0
  147.2587  135.0476  154.6228 C   0  0  2  0  0  0  0  0  0  0  0  0
  146.4932  134.0578  155.5251 C   0  0  0  0  0  0  0  0  0  0  0  0
  146.8870  134.8810  153.1805 N   0  3  2  0  0  0  0  0  0  0  0  0
  145.6985  135.6833  152.7668 C   0  0  0  0  0  0  0  0  0  0  0  0
  145.5345  135.6956  151.2402 C   0  0  0  0  0  0  0  0  0  0  0  0
  145.4138  134.2692  150.7003 C   0  0  0  0  0  0  0  0  0  0  0  0
  146.6211  133.4431  151.1554 C   0  0  0  0  0  0  0  0  0  0  0  0
  146.7877  133.4651  152.6906 C   0  0  1  0  0  0  0  0  0  0  0  0
  147.9950  132.5873  153.0781 C   0  0  0  0  0  0  0  0  0  0  0  0
  150.4433  140.7749  154.9105 N   0  0  0  0  0  0  0  0  0  0  0  0
  150.8678  141.6710  155.8986 O   0  0  0  0  0  0  0  0  0  0  0  0
  151.8695  141.1007  159.0394 H   0  0  0  0  0  0  0  0  0  0  0  0
  150.9268  142.4882  158.4929 H   0  0  0  0  0  0  0  0  0  0  0  0
  152.5925  142.2824  157.9460 H   0  0  0  0  0  0  0  0  0  0  0  0
  151.1604  138.8226  157.5091 H   0  0  0  0  0  0  0  0  0  0  0  0
  150.4665  138.2453  153.8938 H   0  0  0  0  0  0  0  0  0  0  0  0
  149.7955  136.3993  153.6207 H   0  0  0  0  0  0  0  0  0  0  0  0
  149.2623  134.2242  154.2687 H   0  0  0  0  0  0  0  0  0  0  0  0
  149.0087  134.7777  155.9048 H   0  0  0  0  0  0  0  0  0  0  0  0
  146.8898  136.0206  154.9406 H   0  0  0  0  0  0  0  0  0  0  0  0
  146.5712  134.3442  156.5742 H   0  0  0  0  0  0  0  0  0  0  0  0
  146.8768  133.0410  155.4459 H   0  0  0  0  0  0  0  0  0  0  0  0
  145.4314  134.0393  155.2775 H   0  0  0  0  0  0  0  0  0  0  0  0
  144.7972  135.2769  153.2270 H   0  0  0  0  0  0  0  0  0  0  0  0
  145.7851  136.7152  153.1016 H   0  0  0  0  0  0  0  0  0  0  0  0
  144.6519  136.2736  150.9645 H   0  0  0  0  0  0  0  0  0  0  0  0
  146.3888  136.1947  150.7808 H   0  0  0  0  0  0  0  0  0  0  0  0
  144.4923  133.8113  151.0622 H   0  0  0  0  0  0  0  0  0  0  0  0
  145.3518  134.2809  149.6117 H   0  0  0  0  0  0  0  0  0  0  0  0
  146.5054  132.4169  150.8044 H   0  0  0  0  0  0  0  0  0  0  0  0
  147.5245  133.8297  150.6813 H   0  0  0  0  0  0  0  0  0  0  0  0
  145.8955  133.0136  153.1265 H   0  0  0  0  0  0  0  0  0  0  0  0
  147.9452  131.6167  152.5838 H   0  0  0  0  0  0  0  0  0  0  0  0
  148.0261  132.3801  154.1475 H   0  0  0  0  0  0  0  0  0  0  0  0
  148.9377  133.0541  152.7903 H   0  0  0  0  0  0  0  0  0  0  0  0
  147.6665  135.2748  152.6734 H   0  0  0  0  0  0  0  0  0  0  0  0
  1  2  1  0  0  0  0
  1 21  1  0  0  0  0
  1 22  1  0  0  0  0
  1 23  1  0  0  0  0
  2 20  1  0  0  0  0
  2  3  2  0  0  0  0
  3  4  1  0  0  0  0
  3 24  1  0  0  0  0
  4  5  1  0  0  0  0
  4 19  2  0  0  0  0
  5  6  1  0  0  0  0
  5 25  1  0  0  0  0
  6  7  2  0  0  0  0
  6  8  1  0  0  0  0
  8  9  1  0  0  0  0
  8 26  1  0  0  0  0
  9 10  1  0  0  0  0
  9 27  1  0  0  0  0
  9 28  1  0  0  0  0
 10 11  1  0  0  0  0
 10 12  1  0  0  0  0
 10 29  1  0  0  0  0
 11 30  1  0  0  0  0
 11 31  1  0  0  0  0
 11 32  1  0  0  0  0
 12 17  1  0  0  0  0
 12 13  1  0  0  0  0
 12 45  1  0  0  0  0
 13 14  1  0  0  0  0
 13 33  1  0  0  0  0
 13 34  1  0  0  0  0
 14 15  1  0  0  0  0
 14 35  1  0  0  0  0
 14 36  1  0  0  0  0
 15 16  1  0  0  0  0
 15 37  1  0  0  0  0
 15 38  1  0  0  0  0
 16 17  1  0  0  0  0
 16 39  1  0  0  0  0
 16 40  1  0  0  0  0
 17 18  1  0  0  0  0
 17 41  1  0  0  0  0
 18 42  1  0  0  0  0
 18 43  1  0  0  0  0
 18 44  1  0  0  0  0
 19 20  1  0  0  0  0
M  CHG  1  12   1
M  END
> <s_m_source_file>
AV-unprocessed.smi

> <i_m_source_file_index>
1978

> <i_lp_mmshare_version>
43012

> <i_f3d_flags>
0

> <s_epik_input>
W0NIM11jMVtjSF1jKG5vMSlbTkhdQyg9TylbTkhdW0NIMl1bQ0BIXShbQ0gzXSlOMltDSDJdW0NIMl1bQ0gyXVtDSDJdW0NASF0yW0NIM10=

> <s_epik_cmdline>
J2VwaWtfcHl0aG9uJywgJy1waCcsICc3LjAnLCAnLXRuJywgJzgnLCAnLW1hJywgJzIwMCcsICctbWV0YWxfYmluZGluZycsICctaW1hZScsICc8aW5maWxlLm1hZT4nLCAnLW9tYWUnLCAnPG91dGZpbGUubWFlPic=

> <r_epik_Ionization_Penalty>
0.00265971

> <r_epik_Ionization_Penalty_Charging>
0.00262393

> <r_epik_Ionization_Penalty_Neutral>
3.57846e-05

> <r_epik_State_Penalty>
0.00182566

> <r_epik_Charging_Adjusted_Penalty>
0.00444959

> <i_epik_Tot_Q>
1

> <i_epik_Tot_abs_Q>
1

> <r_epik_Metal_State_Penalty>
0.0216344

> <b_epik_Metal_Only>
0

> <s_lp_Force_Field>
OPLS_2005

> <r_lp_Energy>
19.2971

> <b_lp_Chiralities_Consistent>
1

> <s_lp_Variant>
AV-unprocessed.smi:1978-3

> <Gold.Version>
5.8.1

> <Gold.Id.Protein>
6NUR|6NUR_protein|mol2

> <Gold.PLP.Fitness>
34.5918

> <Gold.PLP.PLP>
-26.5751

> <Gold.PLP.part.hbond>
-3.0000

> <Gold.PLP.part.metal>
0.0000

> <Gold.PLP.part.buried>
-2.9074

> <Gold.PLP.part.nonpolar>
-20.6388

> <Gold.PLP.part.repulsive>
0.2409

> <Gold.PLP.ligand.clash>
0.0000

> <Gold.PLP.ligand.torsion>
1.3525

> <Gold.PLP.Chemscore.Hbond>
3.5360

> <Gold.PLP.Chemscore.CHOScore>
0.0000

> <Gold.PLP.Chemscore.Metal>
0.0000

> <Gold.Chemscore.Hbonds>
donor molecule, donor type, donor heavy atom, donor atom, acceptor molecule, acceptor atom, score
      L1  H     8    26       P1  7948  0.67
      L1  H    12    45       P1  7948  2.00
      P1  H  7989  7998       L1    19  0.85

> <Gold.PLP.Chemscore.Internal.Correction>
0.1138

> <Gold.Rescore>
     Score         DG    S(hbond)    S(metal)    S(lipo)     H(rot)  DE(clash)    DE(int)     intcor
     12.11     -14.49       2.00        0.00      53.71       1.55       0.02       2.36       ----

> <Gold.Chemscore.Fitness>
12.1100

> <Gold.Chemscore.DG>
-14.4874

> <Gold.Chemscore.ZeroCoef>
-5.4800

> <Gold.Chemscore.Hbond>
2.0012

> <Gold.Chemscore.Metal>
0.0000

> <Gold.Chemscore.Lipo>
53.7142

> <Gold.Chemscore.Internal_Hbond>
0.0000

> <Gold.Chemscore.DEClash>
0.0203

> <Gold.Chemscore.DEInternal>
2.3571

> <Gold.Chemscore.Rot>
1.5474

> <Gold.Chemscore.Internal.Correction>
   9.000000E+99

> <Gold.Chemscore.Hbonds>
donor molecule, donor type, donor heavy atom, donor atom, acceptor molecule, acceptor atom, score
      L1  H     8    26       P1  7948  0.20
      L1  H    12    45       P1  7948  1.00
      P1  H  7989  7998       L1    19  0.40

> <Gold.Chemscore.Hbond.Weighted>
-6.6841

> <Gold.Chemscore.Metal.Weighted>
-0.0000

> <Gold.Chemscore.Lipo.Weighted>
-6.2846

> <Gold.Chemscore.Internal_Hbond.Weighted>
0.0000

> <Gold.Chemscore.DEClash.Weighted>
0.0203

> <Gold.Chemscore.DEInternal.Weighted>
2.3571

> <Gold.Chemscore.Rot.Weighted>
3.9612

> <Gold.Chemscore.Internal.Correction.Weighted>
   9.000000E+99

> <Gold.Protein.RotatedTorsions>
[ 6907 6896 6895 6894 ] final   76.01 input  -60.11 | X-H torsion
[ 7974 7965 7964 7962 ] final  -86.10 input  175.53 | X-H torsion
[ 8008 7997 7996 7995 ] final   66.43 input   59.86 | X-H torsion
[ 10167 10162 10161 10158 ] final -130.48 input  -65.29 | X-H torsion
[ 10718 10713 10712 10709 ] final  -59.24 input   66.30 | X-H torsion
[ 10763 10752 10751 10750 ] final -107.31 input  -60.55 | X-H torsion
[ 11005 11000 10999 10996 ] final -121.13 input  -57.11 | X-H torsion

> <Gold.Protein.ActiveResidues>
 VAL166  LYS551  ARG553  GLY616  TRP617  ASP618  TYR619  PRO620  LYS621  CYS622 
 ASP623  PHE694  ASN695  SER759  ASP760  ASP761  ALA762  ILE779  LEU786  VAL792 
 PHE793  MET794  SER795  GLU796  ALA797  LYS798  CYS799  TRP800  GLU811  SER814 

> <Gold.Protein.RotatedAtoms>
  152.5053  134.4033  159.9423 H   0  0  0  0  0  0  0  0  0  0  0  0  # atno 6907 bound_to 6896
  151.3998  133.3755  159.2738 H   0  0  0  0  0  0  0  0  0  0  0  0  # atno 6908 bound_to 6896
  150.9370  134.8803  159.7647 H   0  0  0  0  0  0  0  0  0  0  0  0  # atno 6909 bound_to 6896
  145.4844  140.9555  143.1847 H   0  0  0  0  0  0  0  0  0  0  0  0  # atno 7974 bound_to 7965
  155.6773  140.3497  155.4841 H   0  0  0  0  0  0  0  0  0  0  0  0  # atno 8008 bound_to 7997
  155.9637  140.1142  157.0896 H   0  0  0  0  0  0  0  0  0  0  0  0  # atno 8009 bound_to 7997
  154.4149  140.1170  156.5199 H   0  0  0  0  0  0  0  0  0  0  0  0  # atno 8010 bound_to 7997
  139.9289  143.6295  152.2535 H   0  0  0  0  0  0  0  0  0  0  0  0  # atno 10167 bound_to 10162
  156.1076  130.4178  150.0687 H   0  0  0  0  0  0  0  0  0  0  0  0  # atno 10718 bound_to 10713
  154.8067  135.4679  154.0411 H   0  0  0  0  0  0  0  0  0  0  0  0  # atno 10763 bound_to 10752
  153.1874  135.6850  153.8404 H   0  0  0  0  0  0  0  0  0  0  0  0  # atno 10764 bound_to 10752
  153.7934  135.3240  155.3359 H   0  0  0  0  0  0  0  0  0  0  0  0  # atno 10765 bound_to 10752
  141.0092  134.0289  157.3436 H   0  0  0  0  0  0  0  0  0  0  0  0  # atno 11005 bound_to 11000
  144.7870  139.6406  143.7130 LP  0  0  0  0  0  0  0  0  0  0  0  0  # atno 17320 bound_to 7965
  146.2322  139.5835  142.9548 LP  0  0  0  0  0  0  0  0  0  0  0  0  # atno 17321 bound_to 7965
  139.6799  144.7656  151.1628 LP  0  0  0  0  0  0  0  0  0  0  0  0  # atno 17342 bound_to 10162
  140.7643  143.5740  150.8965 LP  0  0  0  0  0  0  0  0  0  0  0  0  # atno 17343 bound_to 10162
  156.8659  130.9507  151.3614 LP  0  0  0  0  0  0  0  0  0  0  0  0  # atno 17370 bound_to 10713
  157.6255  130.8688  149.9181 LP  0  0  0  0  0  0  0  0  0  0  0  0  # atno 17371 bound_to 10713
  139.9080  135.0184  156.7572 LP  0  0  0  0  0  0  0  0  0  0  0  0  # atno 17394 bound_to 11000
  140.6761  133.9516  155.7884 LP  0  0  0  0  0  0  0  0  0  0  0  0  # atno 17395 bound_to 11000

$$$$
