AV-unprocessed.smi:1429|AV-procd|sdf|5821|dock9
  -GOLD-   22720 5473D 1   1.00000     0.00000
 Structure written by MMmdl.
 29 30  0  0  0  0  0  0  0  0  2 V2000
  146.3223  134.6218  162.6518 C   0  0  0  0  0  0  0  0  0  0  0  0
  147.0478  135.5605  161.7500 C   0  0  0  0  0  0  0  0  0  0  0  0
  147.4638  136.7650  162.1479 N   0  0  0  0  0  0  0  0  0  0  0  0
  148.1139  137.4544  161.1346 N   0  0  0  0  0  0  0  0  0  0  0  0
  148.1719  136.7681  159.9845 C   0  0  0  0  0  0  0  0  0  0  0  0
  148.7637  137.2597  158.8833 N   0  5  0  0  0  0  0  0  0  0  0  0
  150.1048  137.4340  158.8566 C   0  0  0  0  0  0  0  0  0  0  0  0
  150.9575  136.6010  159.1730 O   0  0  0  0  0  0  0  0  0  0  0  0
  150.4826  138.6489  158.4379 N   0  0  0  0  0  0  0  0  0  0  0  0
  151.8613  139.1032  158.3067 C   0  0  0  0  0  0  0  0  0  0  0  0
  152.2402  139.2875  156.8282 C   0  0  1  0  0  0  0  0  0  0  0  0
  152.0716  138.0380  155.9888 C   0  0  0  0  0  0  0  0  0  0  0  0
  152.0486  138.6128  154.5764 C   0  0  0  0  0  0  0  0  0  0  0  0
  151.4366  139.8939  154.6915 O   0  0  0  0  0  0  0  0  0  0  0  0
  151.3622  140.2797  156.0617 C   0  0  0  0  0  0  0  0  0  0  0  0
  147.4262  135.1727  160.0801 S   0  0  0  0  0  0  0  0  0  0  0  0
  145.3456  135.0317  162.9093 H   0  0  0  0  0  0  0  0  0  0  0  0
  146.8926  134.4664  163.5678 H   0  0  0  0  0  0  0  0  0  0  0  0
  146.1790  133.6589  162.1616 H   0  0  0  0  0  0  0  0  0  0  0  0
  149.7560  139.3036  158.1880 H   0  0  0  0  0  0  0  0  0  0  0  0
  151.9750  140.0472  158.8413 H   0  0  0  0  0  0  0  0  0  0  0  0
  152.5321  138.3838  158.7796 H   0  0  0  0  0  0  0  0  0  0  0  0
  153.2801  139.6119  156.7574 H   0  0  0  0  0  0  0  0  0  0  0  0
  152.8690  137.3094  156.1378 H   0  0  0  0  0  0  0  0  0  0  0  0
  151.1194  137.5539  156.2106 H   0  0  0  0  0  0  0  0  0  0  0  0
  153.0651  138.7463  154.2042 H   0  0  0  0  0  0  0  0  0  0  0  0
  151.5112  137.9748  153.8744 H   0  0  0  0  0  0  0  0  0  0  0  0
  150.3220  140.2041  156.3820 H   0  0  0  0  0  0  0  0  0  0  0  0
  151.6826  141.3126  156.2007 H   0  0  0  0  0  0  0  0  0  0  0  0
  1  2  1  0  0  0  0
  1 17  1  0  0  0  0
  1 18  1  0  0  0  0
  1 19  1  0  0  0  0
  2 16  1  0  0  0  0
  2  3  2  0  0  0  0
  3  4  1  0  0  0  0
  4  5  2  0  0  0  0
  5  6  1  0  0  0  0
  5 16  1  0  0  0  0
  6  7  1  0  0  0  0
  7  8  2  0  0  0  0
  7  9  1  0  0  0  0
  9 10  1  0  0  0  0
  9 20  1  0  0  0  0
 10 11  1  0  0  0  0
 10 21  1  0  0  0  0
 10 22  1  0  0  0  0
 11 15  1  0  0  0  0
 11 12  1  0  0  0  0
 11 23  1  0  0  0  0
 12 13  1  0  0  0  0
 12 24  1  0  0  0  0
 12 25  1  0  0  0  0
 13 14  1  0  0  0  0
 13 26  1  0  0  0  0
 13 27  1  0  0  0  0
 14 15  1  0  0  0  0
 15 28  1  0  0  0  0
 15 29  1  0  0  0  0
M  CHG  1   6  -1
M  END
> <s_m_source_file>
AV-unprocessed.smi

> <i_m_source_file_index>
1429

> <i_lp_mmshare_version>
43012

> <i_f3d_flags>
0

> <s_epik_input>
W0NIM11jMW5uYyhzMSlbTkhdQyg9TylbTkhdW0NIMl1bQ0BASF0yW0NIMl1bQ0gyXU9bQ0gyXTI=

> <s_epik_cmdline>
J2VwaWtfcHl0aG9uJywgJy1waCcsICc3LjAnLCAnLXRuJywgJzgnLCAnLW1hJywgJzIwMCcsICctbWV0YWxfYmluZGluZycsICctaW1hZScsICc8aW5maWxlLm1hZT4nLCAnLW9tYWUnLCAnPG91dGZpbGUubWFlPic=

> <r_lp_tautomer_probability>
1

> <r_epik_Ionization_Penalty>
4.4122

> <r_epik_Ionization_Penalty_Charging>
4.26477

> <r_epik_Ionization_Penalty_Neutral>
0.147429

> <r_epik_State_Penalty>
4.26433

> <r_epik_Charging_Adjusted_Penalty>
8.5291

> <i_epik_Tot_Q>
-1

> <i_epik_Tot_abs_Q>
1

> <r_epik_Metal_State_Penalty>
0.713483

> <b_epik_Metal_Only>
1

> <s_lp_Force_Field>
OPLS_2005

> <r_lp_Energy>
16.2384

> <b_lp_Chiralities_Consistent>
1

> <s_lp_Variant>
AV-unprocessed.smi:1429-4

> <Gold.Version>
5.8.1

> <Gold.Id.Protein>
6NUR|6NUR_protein|mol2

> <Gold.PLP.Fitness>
37.7343

> <Gold.PLP.PLP>
-28.8928

> <Gold.PLP.part.hbond>
-3.9828

> <Gold.PLP.part.metal>
0.0000

> <Gold.PLP.part.buried>
-4.9104

> <Gold.PLP.part.nonpolar>
-20.5665

> <Gold.PLP.part.repulsive>
0.2195

> <Gold.PLP.ligand.clash>
0.0000

> <Gold.PLP.ligand.torsion>
1.1306

> <Gold.PLP.Chemscore.Hbond>
3.6960

> <Gold.PLP.Chemscore.CHOScore>
0.0000

> <Gold.PLP.Chemscore.Metal>
0.0000

> <Gold.Chemscore.Hbonds>
donor molecule, donor type, donor heavy atom, donor atom, acceptor molecule, acceptor atom, score
      P1  H  6896  6909       L1     8  1.00
      P1  H  6931  6943       L1     4  0.67
      P1  H  6934  6947       L1     4  0.59
      P1  H  7989  7998       L1    14  1.00

> <Gold.PLP.Chemscore.Internal.Correction>
0.0147

> <Gold.Rescore>
     Score         DG    S(hbond)    S(metal)    S(lipo)     H(rot)  DE(clash)    DE(int)     intcor
     17.47     -18.27       3.28        0.00      44.16       1.30       0.00       0.80       ----

> <Gold.Chemscore.Fitness>
17.4676

> <Gold.Chemscore.DG>
-18.2659

> <Gold.Chemscore.ZeroCoef>
-5.4800

> <Gold.Chemscore.Hbond>
3.2760

> <Gold.Chemscore.Metal>
0.0000

> <Gold.Chemscore.Lipo>
44.1609

> <Gold.Chemscore.Internal_Hbond>
0.0000

> <Gold.Chemscore.DEClash>
0.0029

> <Gold.Chemscore.DEInternal>
0.7954

> <Gold.Chemscore.Rot>
1.2980

> <Gold.Chemscore.Internal.Correction>
   9.000000E+99

> <Gold.Chemscore.Hbonds>
donor molecule, donor type, donor heavy atom, donor atom, acceptor molecule, acceptor atom, score
      P1  H  6896  6909       L1     8  0.97
      P1  H  6931  6943       L1     4  0.20
      P1  H  6934  6947       L1     4  0.26
      P1  H  7989  7998       L1    14  0.88

> <Gold.Chemscore.Hbond.Weighted>
-10.9419

> <Gold.Chemscore.Metal.Weighted>
-0.0000

> <Gold.Chemscore.Lipo.Weighted>
-5.1668

> <Gold.Chemscore.Internal_Hbond.Weighted>
0.0000

> <Gold.Chemscore.DEClash.Weighted>
0.0029

> <Gold.Chemscore.DEInternal.Weighted>
0.7954

> <Gold.Chemscore.Rot.Weighted>
3.3229

> <Gold.Chemscore.Internal.Correction.Weighted>
   9.000000E+99

> <Gold.Protein.RotatedTorsions>
[ 6907 6896 6895 6894 ] final   87.79 input  -60.11 | X-H torsion
[ 7974 7965 7964 7962 ] final  149.58 input  175.53 | X-H torsion
[ 8008 7997 7996 7995 ] final  -18.07 input   59.86 | X-H torsion
[ 10167 10162 10161 10158 ] final  -62.90 input  -65.29 | X-H torsion
[ 10718 10713 10712 10709 ] final  122.02 input   66.30 | X-H torsion
[ 10763 10752 10751 10750 ] final  -55.92 input  -60.55 | X-H torsion
[ 11005 11000 10999 10996 ] final -106.64 input  -57.11 | X-H torsion

> <Gold.Protein.ActiveResidues>
 VAL166  LYS551  ARG553  GLY616  TRP617  ASP618  TYR619  PRO620  LYS621  CYS622 
 ASP623  PHE694  ASN695  SER759  ASP760  ASP761  ALA762  ILE779  LEU786  VAL792 
 PHE793  MET794  SER795  GLU796  ALA797  LYS798  CYS799  TRP800  GLU811  SER814 

> <Gold.Protein.RotatedAtoms>
  152.5416  134.2222  159.8791 H   0  0  0  0  0  0  0  0  0  0  0  0  # atno 6907 bound_to 6896
  151.2198  133.4502  159.2608 H   0  0  0  0  0  0  0  0  0  0  0  0  # atno 6908 bound_to 6896
  151.0816  134.9875  159.8415 H   0  0  0  0  0  0  0  0  0  0  0  0  # atno 6909 bound_to 6896
  144.8427  139.6299  143.6009 H   0  0  0  0  0  0  0  0  0  0  0  0  # atno 7974 bound_to 7965
  154.4932  140.2125  155.9503 H   0  0  0  0  0  0  0  0  0  0  0  0  # atno 8008 bound_to 7997
  156.1334  140.3193  155.8352 H   0  0  0  0  0  0  0  0  0  0  0  0  # atno 8009 bound_to 7997
  155.4254  140.0500  157.3013 H   0  0  0  0  0  0  0  0  0  0  0  0  # atno 8010 bound_to 7997
  140.5907  143.2341  151.6145 H   0  0  0  0  0  0  0  0  0  0  0  0  # atno 10167 bound_to 10162
  157.5774  131.1078  150.8252 H   0  0  0  0  0  0  0  0  0  0  0  0  # atno 10718 bound_to 10713
  154.1985  135.6415  153.5080 H   0  0  0  0  0  0  0  0  0  0  0  0  # atno 10763 bound_to 10752
  153.0017  135.5445  154.6340 H   0  0  0  0  0  0  0  0  0  0  0  0  # atno 10764 bound_to 10752
  154.5747  135.2920  155.0766 H   0  0  0  0  0  0  0  0  0  0  0  0  # atno 10765 bound_to 10752
  141.0994  133.8911  157.1880 H   0  0  0  0  0  0  0  0  0  0  0  0  # atno 11005 bound_to 11000
  146.2717  139.6652  142.9291 LP  0  0  0  0  0  0  0  0  0  0  0  0  # atno 17320 bound_to 7965
  145.4660  141.0434  143.2725 LP  0  0  0  0  0  0  0  0  0  0  0  0  # atno 17321 bound_to 7965
  139.5226  144.3158  152.0953 LP  0  0  0  0  0  0  0  0  0  0  0  0  # atno 17342 bound_to 10162
  140.2323  144.4356  150.6295 LP  0  0  0  0  0  0  0  0  0  0  0  0  # atno 17343 bound_to 10162
  156.8708  130.5145  149.5297 LP  0  0  0  0  0  0  0  0  0  0  0  0  # atno 17370 bound_to 10713
  156.0819  130.5827  150.9578 LP  0  0  0  0  0  0  0  0  0  0  0  0  # atno 17371 bound_to 10713
  139.9841  135.0088  156.9820 LP  0  0  0  0  0  0  0  0  0  0  0  0  # atno 17394 bound_to 11000
  140.5059  134.1051  155.7260 LP  0  0  0  0  0  0  0  0  0  0  0  0  # atno 17395 bound_to 11000

$$$$
