AV-unprocessed.smi:3287|AV-procd|sdf|12590|dock2
  -GOLD-   2272018513D 1   1.00000     0.00000
 Structure written by MMmdl.
 43 44  0  0  0  0  0  0  0  0  2 V2000
  153.8939  141.6515  159.8273 C   0  0  0  0  0  0  0  0  0  0  0  0
  152.5212  141.8293  159.1540 C   0  0  2  0  0  0  0  0  0  0  0  0
  152.2854  140.6910  158.1408 C   0  0  0  0  0  0  0  0  0  0  0  0
  150.9239  140.8139  157.4435 C   0  0  0  0  0  0  0  0  0  0  0  0
  150.7837  142.1707  156.7368 C   0  0  1  0  0  0  0  0  0  0  0  0
  149.4588  142.2597  156.0844 N   0  3  0  0  0  0  0  0  0  0  0  0
  149.2967  141.4357  154.8670 C   0  0  0  0  0  0  0  0  0  0  0  0
  147.9402  141.6951  154.1883 C   0  0  2  0  0  0  0  0  0  0  0  0
  147.1030  142.3923  155.0904 O   0  0  0  0  0  0  0  0  0  0  0  0
  147.3051  140.3954  153.7196 C   0  0  0  0  0  0  0  0  0  0  0  0
  146.9258  140.2299  152.3711 C   0  0  0  0  0  0  0  0  0  0  0  0
  146.3481  139.0055  151.9788 C   0  0  0  0  0  0  0  0  0  0  0  0
  146.1399  137.9778  152.8293 N   0  0  0  0  0  0  0  0  0  0  0  0
  146.5063  138.1401  154.1184 C   0  0  0  0  0  0  0  0  0  0  0  0
  147.0916  139.3229  154.6127 C   0  0  0  0  0  0  0  0  0  0  0  0
  150.9962  143.3127  157.7505 C   0  0  0  0  0  0  0  0  0  0  0  0
  152.3584  143.2123  158.4694 C   0  0  1  0  0  0  0  0  0  0  0  0
  152.5187  144.3882  159.4501 C   0  0  0  0  0  0  0  0  0  0  0  0
  154.7064  141.7992  159.1154 H   0  0  0  0  0  0  0  0  0  0  0  0
  153.9980  140.6494  160.2443 H   0  0  0  0  0  0  0  0  0  0  0  0
  154.0360  142.3513  160.6504 H   0  0  0  0  0  0  0  0  0  0  0  0
  151.7604  141.7435  159.9316 H   0  0  0  0  0  0  0  0  0  0  0  0
  153.0779  140.6951  157.3909 H   0  0  0  0  0  0  0  0  0  0  0  0
  152.3457  139.7254  158.6445 H   0  0  0  0  0  0  0  0  0  0  0  0
  150.8093  140.0030  156.7231 H   0  0  0  0  0  0  0  0  0  0  0  0
  150.1267  140.6903  158.1782 H   0  0  0  0  0  0  0  0  0  0  0  0
  151.5508  142.2293  155.9626 H   0  0  0  0  0  0  0  0  0  0  0  0
  148.7691  141.9373  156.7484 H   0  0  0  0  0  0  0  0  0  0  0  0
  150.0992  141.6702  154.1674 H   0  0  0  0  0  0  0  0  0  0  0  0
  149.3942  140.3795  155.1233 H   0  0  0  0  0  0  0  0  0  0  0  0
  148.0894  142.3388  153.3200 H   0  0  0  0  0  0  0  0  0  0  0  0
  147.5701  143.1509  155.4075 H   0  0  0  0  0  0  0  0  0  0  0  0
  147.0714  141.0195  151.6486 H   0  0  0  0  0  0  0  0  0  0  0  0
  146.0467  138.8470  150.9540 H   0  0  0  0  0  0  0  0  0  0  0  0
  146.3297  137.3017  154.7759 H   0  0  0  0  0  0  0  0  0  0  0  0
  147.3693  139.3991  155.6540 H   0  0  0  0  0  0  0  0  0  0  0  0
  150.9328  144.2769  157.2460 H   0  0  0  0  0  0  0  0  0  0  0  0
  150.1933  143.3001  158.4892 H   0  0  0  0  0  0  0  0  0  0  0  0
  153.1387  143.3093  157.7127 H   0  0  0  0  0  0  0  0  0  0  0  0
  151.8166  144.3110  160.2809 H   0  0  0  0  0  0  0  0  0  0  0  0
  152.3382  145.3411  158.9521 H   0  0  0  0  0  0  0  0  0  0  0  0
  153.5254  144.4358  159.8644 H   0  0  0  0  0  0  0  0  0  0  0  0
  149.2627  143.2259  155.8658 H   0  0  0  0  0  0  0  0  0  0  0  0
  1  2  1  0  0  0  0
  1 19  1  0  0  0  0
  1 20  1  0  0  0  0
  1 21  1  0  0  0  0
  2 17  1  0  0  0  0
  2  3  1  0  0  0  0
  2 22  1  0  0  0  0
  3  4  1  0  0  0  0
  3 23  1  0  0  0  0
  3 24  1  0  0  0  0
  4  5  1  0  0  0  0
  4 25  1  0  0  0  0
  4 26  1  0  0  0  0
  5  6  1  0  0  0  0
  5 16  1  0  0  0  0
  5 27  1  0  0  0  0
  6  7  1  0  0  0  0
  6 28  1  0  0  0  0
  6 43  1  0  0  0  0
  7  8  1  0  0  0  0
  7 29  1  0  0  0  0
  7 30  1  0  0  0  0
  8  9  1  0  0  0  0
  8 10  1  0  0  0  0
  8 31  1  0  0  0  0
  9 32  1  0  0  0  0
 10 15  1  0  0  0  0
 10 11  2  0  0  0  0
 11 12  1  0  0  0  0
 11 33  1  0  0  0  0
 12 13  2  0  0  0  0
 12 34  1  0  0  0  0
 13 14  1  0  0  0  0
 14 15  2  0  0  0  0
 14 35  1  0  0  0  0
 15 36  1  0  0  0  0
 16 17  1  0  0  0  0
 16 37  1  0  0  0  0
 16 38  1  0  0  0  0
 17 18  1  0  0  0  0
 17 39  1  0  0  0  0
 18 40  1  0  0  0  0
 18 41  1  0  0  0  0
 18 42  1  0  0  0  0
M  CHG  1   6   1
M  END
> <s_m_source_file>
AV-unprocessed.smi

> <i_m_source_file_index>
3287

> <i_lp_mmshare_version>
43012

> <i_f3d_flags>
0

> <s_epik_input>
W0NIM11bQ0BASF0xW0NIMl1bQ0gyXVtDQEhdKFtDSDJdW0NASF0xW0NIM10pW05IXVtDSDJdW0NASF0oW09IXSljMltjSF1bY0hdbltjSF1bY0hdMg==

> <s_epik_cmdline>
J2VwaWtfcHl0aG9uJywgJy1waCcsICc3LjAnLCAnLXRuJywgJzgnLCAnLW1hJywgJzIwMCcsICctbWV0YWxfYmluZGluZycsICctaW1hZScsICc8aW5maWxlLm1hZT4nLCAnLW9tYWUnLCAnPG91dGZpbGUubWFlPic=

> <r_lp_tautomer_probability>
1

> <r_epik_Ionization_Penalty>
0.00537262

> <r_epik_Ionization_Penalty_Charging>
0.00321624

> <r_epik_Ionization_Penalty_Neutral>
0.00215638

> <r_epik_State_Penalty>
-0

> <r_epik_Charging_Adjusted_Penalty>
0.00321624

> <i_epik_Tot_Q>
1

> <i_epik_Tot_abs_Q>
1

> <r_epik_Metal_State_Penalty>
-0

> <b_epik_Metal_Only>
0

> <s_lp_Force_Field>
OPLS_2005

> <r_lp_Energy>
16.0387

> <b_lp_Chiralities_Consistent>
1

> <s_lp_Variant>
AV-unprocessed.smi:3287-1

> <Gold.Version>
5.8.1

> <Gold.Id.Protein>
6NUR|6NUR_protein|mol2

> <Gold.PLP.Fitness>
49.2495

> <Gold.PLP.PLP>
-39.0953

> <Gold.PLP.part.hbond>
-2.0000

> <Gold.PLP.part.metal>
0.0000

> <Gold.PLP.part.buried>
-1.3282

> <Gold.PLP.part.nonpolar>
-37.4449

> <Gold.PLP.part.repulsive>
0.3751

> <Gold.PLP.ligand.clash>
0.0000

> <Gold.PLP.ligand.torsion>
0.7972

> <Gold.PLP.Chemscore.Hbond>
3.0000

> <Gold.PLP.Chemscore.CHOScore>
0.9093

> <Gold.PLP.Chemscore.Metal>
0.0000

> <Gold.Chemscore.Hbonds>
donor molecule, donor type, donor heavy atom, donor atom, acceptor molecule, acceptor atom, score
      L1  H     6    43       P1  8028  2.00
      L1  H     9    32       P1  8028  1.00
      L1  C    12    34       P1 10171  1.00

> <Gold.PLP.Chemscore.Internal.Correction>
0.0209

> <Gold.Rescore>
     Score         DG    S(hbond)    S(metal)    S(lipo)     H(rot)  DE(clash)    DE(int)     intcor
     19.20     -20.25       1.81        0.00     116.13       1.90       0.14       0.91       ----

> <Gold.Chemscore.Fitness>
19.1972

> <Gold.Chemscore.DG>
-20.2499

> <Gold.Chemscore.ZeroCoef>
-5.4800

> <Gold.Chemscore.Hbond>
1.8130

> <Gold.Chemscore.Metal>
0.0000

> <Gold.Chemscore.Lipo>
116.1304

> <Gold.Chemscore.Internal_Hbond>
0.0000

> <Gold.Chemscore.DEClash>
0.1384

> <Gold.Chemscore.DEInternal>
0.9143

> <Gold.Chemscore.Rot>
1.9035

> <Gold.Chemscore.Internal.Correction>
   9.000000E+99

> <Gold.Chemscore.Hbonds>
donor molecule, donor type, donor heavy atom, donor atom, acceptor molecule, acceptor atom, score
      L1  H     6    43       P1  8028  0.95
      L1  H     9    32       P1  8028  0.28

> <Gold.Chemscore.Hbond.Weighted>
-6.0555

> <Gold.Chemscore.Metal.Weighted>
-0.0000

> <Gold.Chemscore.Lipo.Weighted>
-13.5873

> <Gold.Chemscore.Internal_Hbond.Weighted>
0.0000

> <Gold.Chemscore.DEClash.Weighted>
0.1384

> <Gold.Chemscore.DEInternal.Weighted>
0.9143

> <Gold.Chemscore.Rot.Weighted>
4.8729

> <Gold.Chemscore.Internal.Correction.Weighted>
   9.000000E+99

> <Gold.Protein.RotatedTorsions>
[ 6907 6896 6895 6894 ] final   88.59 input  -60.11 | X-H torsion
[ 7974 7965 7964 7962 ] final  -13.95 input  175.53 | X-H torsion
[ 8008 7997 7996 7995 ] final  102.87 input   59.86 | X-H torsion
[ 10167 10162 10161 10158 ] final   49.43 input  -65.29 | X-H torsion
[ 10718 10713 10712 10709 ] final   43.11 input   66.30 | X-H torsion
[ 10763 10752 10751 10750 ] final  170.76 input  -60.55 | X-H torsion
[ 11005 11000 10999 10996 ] final  -61.41 input  -57.11 | X-H torsion

> <Gold.Protein.ActiveResidues>
 VAL166  LYS551  ARG553  GLY616  TRP617  ASP618  TYR619  PRO620  LYS621  CYS622 
 ASP623  PHE694  ASN695  SER759  ASP760  ASP761  ALA762  ILE779  LEU786  VAL792 
 PHE793  MET794  SER795  GLU796  ALA797  LYS798  CYS799  TRP800  GLU811  SER814 

> <Gold.Protein.RotatedAtoms>
  152.5427  134.2097  159.8744 H   0  0  0  0  0  0  0  0  0  0  0  0  # atno 6907 bound_to 6896
  151.2081  133.4565  159.2605 H   0  0  0  0  0  0  0  0  0  0  0  0  # atno 6908 bound_to 6896
  151.0924  134.9936  159.8464 H   0  0  0  0  0  0  0  0  0  0  0  0  # atno 6909 bound_to 6896
  146.2094  140.3278  142.8396 H   0  0  0  0  0  0  0  0  0  0  0  0  # atno 7974 bound_to 7965
  156.1432  140.3174  155.8529 H   0  0  0  0  0  0  0  0  0  0  0  0  # atno 8008 bound_to 7997
  155.4114  140.0506  157.3048 H   0  0  0  0  0  0  0  0  0  0  0  0  # atno 8009 bound_to 7997
  154.4994  140.2123  155.9391 H   0  0  0  0  0  0  0  0  0  0  0  0  # atno 8010 bound_to 7997
  140.2830  144.3135  150.6259 H   0  0  0  0  0  0  0  0  0  0  0  0  # atno 10167 bound_to 10162
  157.4123  130.7921  149.7441 H   0  0  0  0  0  0  0  0  0  0  0  0  # atno 10718 bound_to 10713
  154.4022  135.2755  155.2089 H   0  0  0  0  0  0  0  0  0  0  0  0  # atno 10763 bound_to 10752
  154.4110  135.6022  153.5956 H   0  0  0  0  0  0  0  0  0  0  0  0  # atno 10764 bound_to 10752
  152.9831  135.5949  154.4292 H   0  0  0  0  0  0  0  0  0  0  0  0  # atno 10765 bound_to 10752
  141.1323  133.6630  156.5371 H   0  0  0  0  0  0  0  0  0  0  0  0  # atno 11005 bound_to 11000
  144.8874  140.7479  143.5948 LP  0  0  0  0  0  0  0  0  0  0  0  0  # atno 17320 bound_to 7965
  145.3200  139.1791  143.4593 LP  0  0  0  0  0  0  0  0  0  0  0  0  # atno 17321 bound_to 7965
  140.5796  143.2174  151.7452 LP  0  0  0  0  0  0  0  0  0  0  0  0  # atno 17342 bound_to 10162
  139.4957  144.4099  152.0091 LP  0  0  0  0  0  0  0  0  0  0  0  0  # atno 17343 bound_to 10162
  155.9854  130.3983  150.3262 LP  0  0  0  0  0  0  0  0  0  0  0  0  # atno 17370 bound_to 10713
  157.1401  131.0294  151.2931 LP  0  0  0  0  0  0  0  0  0  0  0  0  # atno 17371 bound_to 10713
  140.4169  134.7222  157.4868 LP  0  0  0  0  0  0  0  0  0  0  0  0  # atno 17394 bound_to 11000
  140.0387  134.6299  155.9009 LP  0  0  0  0  0  0  0  0  0  0  0  0  # atno 17395 bound_to 11000

$$$$
