AV-unprocessed.smi:241|AV-procd|sdf|1843|dock2
  -GOLD-   2262020463D 1   1.00000     0.00000
 Structure written by MMmdl.
 54 57  0  0  0  0  0  0  0  0  1 V2000
  152.1506  144.7827  158.4433 C   0  0  0  0  0  0  0  0  0  0  0  0
  152.8339  143.5468  158.5523 O   0  0  0  0  0  0  0  0  0  0  0  0
  152.6890  142.9571  159.8349 C   0  0  0  0  0  0  0  0  0  0  0  0
  153.4942  141.6451  159.9042 C   0  0  1  0  0  0  0  0  0  0  0  0
  154.1168  141.3657  161.2807 C   0  0  0  0  0  0  0  0  0  0  0  0
  153.9748  139.8482  161.4880 C   0  0  2  0  0  0  0  0  0  0  0  0
  155.2124  139.2081  161.7627 O   0  0  0  0  0  0  0  0  0  0  0  0
  155.8132  139.6384  162.9735 C   0  0  0  0  0  0  0  0  0  0  0  0
  153.4038  139.3296  160.1664 C   0  0  0  0  0  0  0  0  0  0  0  0
  152.7052  140.4599  159.5797 N   0  0  0  0  0  0  0  0  0  0  0  0
  152.2585  140.2469  158.3158 C   0  0  0  0  0  0  0  0  0  0  0  0
  152.9740  139.4787  157.4512 N   0  0  0  0  0  0  0  0  0  0  0  0
  152.5305  139.2674  156.2089 C   0  0  0  0  0  0  0  0  0  0  0  0
  151.4138  139.7170  155.6341 N   0  0  0  0  0  0  0  0  0  0  0  0
  150.6876  140.4837  156.4974 C   0  0  0  0  0  0  0  0  0  0  0  0
  151.0357  140.7984  157.8415 C   0  0  0  0  0  0  0  0  0  0  0  0
  150.0661  141.6224  158.4005 N   0  0  0  0  0  0  0  0  0  0  0  0
  149.1958  141.7860  157.4417 C   0  0  0  0  0  0  0  0  0  0  0  0
  149.4763  141.1143  156.2731 N   0  0  0  0  0  0  0  0  0  0  0  0
  148.7175  141.1555  155.0579 C   0  0  0  0  0  0  0  0  0  0  0  0
  148.5001  142.4691  154.3045 C   0  0  0  0  0  0  0  0  0  0  0  0
  147.1160  141.9629  153.8367 C   0  0  0  0  0  0  0  0  0  0  0  0
  145.9667  142.9848  153.8758 C   0  0  0  0  0  0  0  0  0  0  0  0
  145.8295  143.5663  155.1554 O   0  0  0  0  0  0  0  0  0  0  0  0
  147.0787  141.2101  152.4900 C   0  0  0  0  0  0  0  0  0  0  0  0
  147.5642  139.8881  152.6039 O   0  0  0  0  0  0  0  0  0  0  0  0
  147.1916  141.0354  155.0702 C   0  0  0  0  0  0  0  0  0  0  0  0
  154.3145  141.7065  159.1872 H   0  0  0  0  0  0  0  0  0  0  0  0
  153.2509  139.6497  162.2806 H   0  0  0  0  0  0  0  0  0  0  0  0
  152.2896  145.1917  157.4426 H   0  0  0  0  0  0  0  0  0  0  0  0
  152.5347  145.5097  159.1599 H   0  0  0  0  0  0  0  0  0  0  0  0
  151.0801  144.6574  158.6102 H   0  0  0  0  0  0  0  0  0  0  0  0
  153.0187  143.6550  160.6050 H   0  0  0  0  0  0  0  0  0  0  0  0
  151.6355  142.7481  160.0263 H   0  0  0  0  0  0  0  0  0  0  0  0
  155.1569  141.6931  161.3000 H   0  0  0  0  0  0  0  0  0  0  0  0
  153.5953  141.8949  162.0788 H   0  0  0  0  0  0  0  0  0  0  0  0
  156.7595  139.1166  163.1153 H   0  0  0  0  0  0  0  0  0  0  0  0
  155.1756  139.4134  163.8293 H   0  0  0  0  0  0  0  0  0  0  0  0
  156.0200  140.7091  162.9646 H   0  0  0  0  0  0  0  0  0  0  0  0
  154.2060  139.0170  159.4957 H   0  0  0  0  0  0  0  0  0  0  0  0
  152.7477  138.4748  160.3304 H   0  0  0  0  0  0  0  0  0  0  0  0
  153.1598  138.6479  155.5871 H   0  0  0  0  0  0  0  0  0  0  0  0
  148.3174  142.4031  157.5645 H   0  0  0  0  0  0  0  0  0  0  0  0
  149.1598  140.4036  154.4022 H   0  0  0  0  0  0  0  0  0  0  0  0
  148.4296  143.3287  154.9740 H   0  0  0  0  0  0  0  0  0  0  0  0
  149.2192  142.6552  153.5066 H   0  0  0  0  0  0  0  0  0  0  0  0
  146.1138  143.7765  153.1406 H   0  0  0  0  0  0  0  0  0  0  0  0
  145.0156  142.5119  153.6299 H   0  0  0  0  0  0  0  0  0  0  0  0
  146.6928  143.6818  155.5234 H   0  0  0  0  0  0  0  0  0  0  0  0
  146.0628  141.1527  152.0987 H   0  0  0  0  0  0  0  0  0  0  0  0
  147.6634  141.7324  151.7322 H   0  0  0  0  0  0  0  0  0  0  0  0
  148.4349  139.8555  152.2377 H   0  0  0  0  0  0  0  0  0  0  0  0
  146.8184  140.0233  154.9094 H   0  0  0  0  0  0  0  0  0  0  0  0
  146.7512  141.4730  155.9682 H   0  0  0  0  0  0  0  0  0  0  0  0
  1  2  1  0  0  0  0
  1 30  1  0  0  0  0
  1 31  1  0  0  0  0
  1 32  1  0  0  0  0
  2  3  1  0  0  0  0
  3  4  1  0  0  0  0
  3 33  1  0  0  0  0
  3 34  1  0  0  0  0
  4 28  1  0  0  0  0
  4 10  1  0  0  0  0
  4  5  1  0  0  0  0
  5  6  1  0  0  0  0
  5 35  1  0  0  0  0
  5 36  1  0  0  0  0
  6 29  1  0  0  0  0
  6  7  1  0  0  0  0
  6  9  1  0  0  0  0
  7  8  1  0  0  0  0
  8 37  1  0  0  0  0
  8 38  1  0  0  0  0
  8 39  1  0  0  0  0
  9 10  1  0  0  0  0
  9 40  1  0  0  0  0
  9 41  1  0  0  0  0
 10 11  1  0  0  0  0
 11 16  1  0  0  0  0
 11 12  2  0  0  0  0
 12 13  1  0  0  0  0
 13 14  2  0  0  0  0
 13 42  1  0  0  0  0
 14 15  1  0  0  0  0
 15 19  1  0  0  0  0
 15 16  2  0  0  0  0
 16 17  1  0  0  0  0
 17 18  2  0  0  0  0
 18 19  1  0  0  0  0
 18 43  1  0  0  0  0
 19 20  1  0  0  0  0
 20 27  1  0  0  0  0
 20 21  1  0  0  0  0
 20 44  1  0  0  0  0
 21 22  1  0  0  0  0
 21 45  1  0  0  0  0
 21 46  1  0  0  0  0
 22 23  1  0  0  0  0
 22 25  1  0  0  0  0
 22 27  1  0  0  0  0
 23 24  1  0  0  0  0
 23 47  1  0  0  0  0
 23 48  1  0  0  0  0
 24 49  1  0  0  0  0
 25 26  1  0  0  0  0
 25 50  1  0  0  0  0
 25 51  1  0  0  0  0
 26 52  1  0  0  0  0
 27 53  1  0  0  0  0
 27 54  1  0  0  0  0
M  END
> <s_m_source_file>
AV-unprocessed.smi

> <i_m_source_file_index>
241

> <i_lp_mmshare_version>
43012

> <i_f3d_flags>
0

> <s_epik_input>
W0NIM11PW0NIMl1bQ0BASF0xW0NIMl1bQ0BASF0oT1tDSDNdKVtDSDJdTjFjKG5bY0hdbjIpYyhjMjMpbltjSF1uM1tDSF0oW0NIMl00KVtDSDJdQzQoW0NIMl1bT0hdKVtDSDJdW09IXQ==

> <s_epik_cmdline>
J2VwaWtfcHl0aG9uJywgJy1waCcsICc3LjAnLCAnLXRuJywgJzgnLCAnLW1hJywgJzIwMCcsICctbWV0YWxfYmluZGluZycsICctaW1hZScsICc8aW5maWxlLm1hZT4nLCAnLW9tYWUnLCAnPG91dGZpbGUubWFlPic=

> <r_lp_tautomer_probability>
1

> <r_epik_Ionization_Penalty>
0.00568677

> <r_epik_Ionization_Penalty_Charging>
0

> <r_epik_Ionization_Penalty_Neutral>
0.00568677

> <r_epik_State_Penalty>
0.00400877

> <r_epik_Charging_Adjusted_Penalty>
0.00400877

> <i_epik_Tot_Q>
0

> <i_epik_Tot_abs_Q>
0

> <r_epik_Metal_State_Penalty>
-0

> <b_epik_Metal_Only>
0

> <s_lp_Force_Field>
OPLS_2005

> <r_lp_Energy>
54.996

> <b_lp_Chiralities_Consistent>
1

> <s_lp_Variant>
AV-unprocessed.smi:241-4

> <Gold.Version>
5.8.1

> <Gold.Id.Protein>
6NUR|6NUR_protein|mol2

> <Gold.PLP.Fitness>
47.1175

> <Gold.PLP.PLP>
-41.9649

> <Gold.PLP.part.hbond>
-3.0000

> <Gold.PLP.part.metal>
0.0000

> <Gold.PLP.part.buried>
-0.5299

> <Gold.PLP.part.nonpolar>
-38.2838

> <Gold.PLP.part.repulsive>
0.0650

> <Gold.PLP.ligand.clash>
0.3973

> <Gold.PLP.ligand.torsion>
2.0550

> <Gold.PLP.Chemscore.Hbond>
2.9913

> <Gold.PLP.Chemscore.CHOScore>
0.0000

> <Gold.PLP.Chemscore.Metal>
0.0000

> <Gold.Chemscore.Hbonds>
donor molecule, donor type, donor heavy atom, donor atom, acceptor molecule, acceptor atom, score
      L1  H    26    52       P1  7957  1.00
      P1  H  7997  8009       L1    12  0.45

> <Gold.PLP.Chemscore.Internal.Correction>
0.6862

> <Gold.Rescore>
     Score         DG    S(hbond)    S(metal)    S(lipo)     H(rot)  DE(clash)    DE(int)     intcor
      7.86     -13.83       1.67        0.00     110.52       3.97       2.99       2.98       ----

> <Gold.Chemscore.Fitness>
7.8554

> <Gold.Chemscore.DG>
-13.8303

> <Gold.Chemscore.ZeroCoef>
-5.4800

> <Gold.Chemscore.Hbond>
1.6734

> <Gold.Chemscore.Metal>
0.0000

> <Gold.Chemscore.Lipo>
110.5243

> <Gold.Chemscore.Internal_Hbond>
0.0000

> <Gold.Chemscore.DEClash>
2.9948

> <Gold.Chemscore.DEInternal>
2.9800

> <Gold.Chemscore.Rot>
3.9727

> <Gold.Chemscore.Internal.Correction>
   9.000000E+99

> <Gold.Chemscore.Hbonds>
donor molecule, donor type, donor heavy atom, donor atom, acceptor molecule, acceptor atom, score
      L1  H    26    52       P1  7957  0.97
      P1  H  7989  7998       L1    14  0.04
      P1  H  7997  8009       L1    12  0.02

> <Gold.Chemscore.Hbond.Weighted>
-5.5891

> <Gold.Chemscore.Metal.Weighted>
-0.0000

> <Gold.Chemscore.Lipo.Weighted>
-12.9313

> <Gold.Chemscore.Internal_Hbond.Weighted>
0.0000

> <Gold.Chemscore.DEClash.Weighted>
2.9948

> <Gold.Chemscore.DEInternal.Weighted>
2.9800

> <Gold.Chemscore.Rot.Weighted>
10.1702

> <Gold.Chemscore.Internal.Correction.Weighted>
   9.000000E+99

> <Gold.Protein.RotatedTorsions>
[ 6907 6896 6895 6894 ] final  116.94 input  -60.11 | X-H torsion
[ 7974 7965 7964 7962 ] final  132.25 input  175.53 | X-H torsion
[ 8008 7997 7996 7995 ] final  169.53 input   59.86 | X-H torsion
[ 10167 10162 10161 10158 ] final -160.86 input  -65.29 | X-H torsion
[ 10718 10713 10712 10709 ] final  -69.97 input   66.30 | X-H torsion
[ 10763 10752 10751 10750 ] final  142.28 input  -60.55 | X-H torsion
[ 11005 11000 10999 10996 ] final   71.28 input  -57.11 | X-H torsion

> <Gold.Protein.ActiveResidues>
 VAL166  LYS551  ARG553  GLY616  TRP617  ASP618  TYR619  PRO620  LYS621  CYS622 
 ASP623  PHE694  ASN695  SER759  ASP760  ASP761  ALA762  ILE779  LEU786  VAL792 
 PHE793  MET794  SER795  GLU796  ALA797  LYS798  CYS799  TRP800  GLU811  SER814 

> <Gold.Protein.RotatedAtoms>
  152.4645  133.7893  159.6892 H   0  0  0  0  0  0  0  0  0  0  0  0  # atno 6907 bound_to 6896
  150.8603  133.7643  159.3001 H   0  0  0  0  0  0  0  0  0  0  0  0  # atno 6908 bound_to 6896
  151.5211  135.1070  159.9930 H   0  0  0  0  0  0  0  0  0  0  0  0  # atno 6909 bound_to 6896
  144.9988  139.4332  143.5302 H   0  0  0  0  0  0  0  0  0  0  0  0  # atno 7974 bound_to 7965
  156.1449  140.1562  156.8863 H   0  0  0  0  0  0  0  0  0  0  0  0  # atno 8008 bound_to 7997
  154.5019  140.0823  156.7854 H   0  0  0  0  0  0  0  0  0  0  0  0  # atno 8009 bound_to 7997
  155.4008  140.3414  155.4259 H   0  0  0  0  0  0  0  0  0  0  0  0  # atno 8010 bound_to 7997
  139.6508  144.0088  152.2160 H   0  0  0  0  0  0  0  0  0  0  0  0  # atno 10167 bound_to 10162
  156.0430  130.4322  150.2227 H   0  0  0  0  0  0  0  0  0  0  0  0  # atno 10718 bound_to 10713
  153.9532  135.2968  155.3437 H   0  0  0  0  0  0  0  0  0  0  0  0  # atno 10763 bound_to 10752
  154.7415  135.5022  153.9134 H   0  0  0  0  0  0  0  0  0  0  0  0  # atno 10764 bound_to 10752
  153.0983  135.6727  153.9829 H   0  0  0  0  0  0  0  0  0  0  0  0  # atno 10765 bound_to 10752
  139.9552  134.7157  156.0770 H   0  0  0  0  0  0  0  0  0  0  0  0  # atno 11005 bound_to 11000
  146.3447  139.9364  142.8746 LP  0  0  0  0  0  0  0  0  0  0  0  0  # atno 17320 bound_to 7965
  145.2182  140.9924  143.4061 LP  0  0  0  0  0  0  0  0  0  0  0  0  # atno 17321 bound_to 7965
  139.9802  144.6434  150.7908 LP  0  0  0  0  0  0  0  0  0  0  0  0  # atno 17342 bound_to 10162
  140.7536  143.3012  151.3075 LP  0  0  0  0  0  0  0  0  0  0  0  0  # atno 17343 bound_to 10162
  157.0320  131.0010  151.3309 LP  0  0  0  0  0  0  0  0  0  0  0  0  # atno 17370 bound_to 10713
  157.5271  130.8034  149.7874 LP  0  0  0  0  0  0  0  0  0  0  0  0  # atno 17371 bound_to 10713
  141.1222  133.6609  156.3244 LP  0  0  0  0  0  0  0  0  0  0  0  0  # atno 17394 bound_to 11000
  140.5626  134.5919  157.5437 LP  0  0  0  0  0  0  0  0  0  0  0  0  # atno 17395 bound_to 11000

$$$$
