AV-unprocessed.smi:3171|AV-procd|sdf|12111|dock1
  -GOLD-   2272017553D 1   1.00000     0.00000
 Structure written by MMmdl.
 33 34  0  0  0  0  0  0  0  0  1 V2000
  153.0607  143.2264  163.3521 C   0  0  0  0  0  0  0  0  0  0  0  0
  152.7916  142.7054  161.9515 C   0  0  0  0  0  0  0  0  0  0  0  0
  151.8252  143.3628  161.2742 N   0  0  0  0  0  0  0  0  0  0  0  0
  151.5083  143.0029  160.0296 N   0  0  0  0  0  0  0  0  0  0  0  0
  152.1442  141.9752  159.4166 C   0  0  0  0  0  0  0  0  0  0  0  0
  151.7618  141.6633  158.0981 N   0  0  0  0  0  0  0  0  0  0  0  0
  150.3601  141.7011  157.6968 C   0  0  0  0  0  0  0  0  0  0  0  0
  150.1722  141.3472  156.2127 C   0  0  2  0  0  0  0  0  0  0  0  0
  148.7088  141.2720  155.7864 C   0  0  0  0  0  0  0  0  0  0  0  0
  148.7514  140.3888  154.5506 C   0  0  0  0  0  0  0  0  0  0  0  0
  150.0838  139.6431  154.6745 C   0  0  0  0  0  0  0  0  0  0  0  0
  150.6197  140.0302  155.9328 O   0  0  0  0  0  0  0  0  0  0  0  0
  153.1710  141.2430  160.0683 C   0  0  0  0  0  0  0  0  0  0  0  0
  153.8611  140.1425  159.3985 C   0  0  0  0  0  0  0  0  0  0  0  0
  154.4073  139.2710  158.8683 N   0  0  0  0  0  0  0  0  0  0  0  0
  153.5056  141.6171  161.3944 C   0  0  0  0  0  0  0  0  0  0  0  0
  154.5932  140.8871  162.1789 C   0  0  0  0  0  0  0  0  0  0  0  0
  154.1116  143.4937  163.4650 H   0  0  0  0  0  0  0  0  0  0  0  0
  152.8103  142.4691  164.0951 H   0  0  0  0  0  0  0  0  0  0  0  0
  152.4674  144.1160  163.5685 H   0  0  0  0  0  0  0  0  0  0  0  0
  152.3747  141.0657  157.5624 H   0  0  0  0  0  0  0  0  0  0  0  0
  149.7428  141.0661  158.3328 H   0  0  0  0  0  0  0  0  0  0  0  0
  150.0114  142.7204  157.8637 H   0  0  0  0  0  0  0  0  0  0  0  0
  150.7058  142.0556  155.5754 H   0  0  0  0  0  0  0  0  0  0  0  0
  148.1170  140.7848  156.5628 H   0  0  0  0  0  0  0  0  0  0  0  0
  148.2717  142.2522  155.5945 H   0  0  0  0  0  0  0  0  0  0  0  0
  147.8999  139.7082  154.5193 H   0  0  0  0  0  0  0  0  0  0  0  0
  148.7363  140.9889  153.6401 H   0  0  0  0  0  0  0  0  0  0  0  0
  149.9628  138.5608  154.6244 H   0  0  0  0  0  0  0  0  0  0  0  0
  150.7688  139.9460  153.8815 H   0  0  0  0  0  0  0  0  0  0  0  0
  154.4578  139.8069  162.1138 H   0  0  0  0  0  0  0  0  0  0  0  0
  154.5965  141.1381  163.2382 H   0  0  0  0  0  0  0  0  0  0  0  0
  155.5751  141.1333  161.7739 H   0  0  0  0  0  0  0  0  0  0  0  0
  1  2  1  0  0  0  0
  1 18  1  0  0  0  0
  1 19  1  0  0  0  0
  1 20  1  0  0  0  0
  2 16  1  0  0  0  0
  2  3  2  0  0  0  0
  3  4  1  0  0  0  0
  4  5  2  0  0  0  0
  5  6  1  0  0  0  0
  5 13  1  0  0  0  0
  6  7  1  0  0  0  0
  6 21  1  0  0  0  0
  7  8  1  0  0  0  0
  7 22  1  0  0  0  0
  7 23  1  0  0  0  0
  8 12  1  0  0  0  0
  8  9  1  0  0  0  0
  8 24  1  0  0  0  0
  9 10  1  0  0  0  0
  9 25  1  0  0  0  0
  9 26  1  0  0  0  0
 10 11  1  0  0  0  0
 10 27  1  0  0  0  0
 10 28  1  0  0  0  0
 11 12  1  0  0  0  0
 11 29  1  0  0  0  0
 11 30  1  0  0  0  0
 13 14  1  0  0  0  0
 13 16  2  0  0  0  0
 14 15  3  0  0  0  0
 16 17  1  0  0  0  0
 17 31  1  0  0  0  0
 17 32  1  0  0  0  0
 17 33  1  0  0  0  0
M  END
> <s_m_source_file>
AV-unprocessed.smi

> <i_m_source_file_index>
3171

> <i_lp_mmshare_version>
43012

> <i_f3d_flags>
0

> <s_epik_input>
W0NIM11jMW5uYyhjKEMjTiljMVtDSDNdKVtOSF1bQ0gyXVtDQEBIXTJbQ0gyXVtDSDJdW0NIMl1PMg==

> <s_epik_cmdline>
J2VwaWtfcHl0aG9uJywgJy1waCcsICc3LjAnLCAnLXRuJywgJzgnLCAnLW1hJywgJzIwMCcsICctbWV0YWxfYmluZGluZycsICctaW1hZScsICc8aW5maWxlLm1hZT4nLCAnLW9tYWUnLCAnPG91dGZpbGUubWFlPic=

> <r_lp_tautomer_probability>
1

> <r_epik_Ionization_Penalty>
0.00108228

> <r_epik_Ionization_Penalty_Charging>
0

> <r_epik_Ionization_Penalty_Neutral>
0.00108228

> <r_epik_State_Penalty>
-0

> <r_epik_Charging_Adjusted_Penalty>
0

> <i_epik_Tot_Q>
0

> <i_epik_Tot_abs_Q>
0

> <r_epik_Metal_State_Penalty>
-0

> <b_epik_Metal_Only>
0

> <s_lp_Force_Field>
OPLS_2005

> <r_lp_Energy>
28.7028

> <b_lp_Chiralities_Consistent>
1

> <s_lp_Variant>
AV-unprocessed.smi:3171-1

> <Gold.Version>
5.8.1

> <Gold.Id.Protein>
6NUR|6NUR_protein|mol2

> <Gold.PLP.Fitness>
38.1225

> <Gold.PLP.PLP>
-35.7326

> <Gold.PLP.part.hbond>
-1.0000

> <Gold.PLP.part.metal>
0.0000

> <Gold.PLP.part.buried>
-1.9711

> <Gold.PLP.part.nonpolar>
-32.3366

> <Gold.PLP.part.repulsive>
0.2396

> <Gold.PLP.ligand.clash>
0.0000

> <Gold.PLP.ligand.torsion>
0.3099

> <Gold.PLP.Chemscore.Hbond>
1.0000

> <Gold.PLP.Chemscore.CHOScore>
0.0000

> <Gold.PLP.Chemscore.Metal>
0.0000

> <Gold.Chemscore.Hbonds>
donor molecule, donor type, donor heavy atom, donor atom, acceptor molecule, acceptor atom, score
      P1  H  7997  8009       L1    15  1.00

> <Gold.PLP.Chemscore.Internal.Correction>
0.0097

> <Gold.Rescore>
     Score         DG    S(hbond)    S(metal)    S(lipo)     H(rot)  DE(clash)    DE(int)     intcor
     14.56     -15.17       0.90        0.00      83.78       1.22       0.26       0.35       ----

> <Gold.Chemscore.Fitness>
14.5592

> <Gold.Chemscore.DG>
-15.1697

> <Gold.Chemscore.ZeroCoef>
-5.4800

> <Gold.Chemscore.Hbond>
0.8998

> <Gold.Chemscore.Metal>
0.0000

> <Gold.Chemscore.Lipo>
83.7841

> <Gold.Chemscore.Internal_Hbond>
0.0000

> <Gold.Chemscore.DEClash>
0.2577

> <Gold.Chemscore.DEInternal>
0.3528

> <Gold.Chemscore.Rot>
1.2181

> <Gold.Chemscore.Internal.Correction>
   9.000000E+99

> <Gold.Chemscore.Hbonds>
donor molecule, donor type, donor heavy atom, donor atom, acceptor molecule, acceptor atom, score
      P1  H  7997  8009       L1    15  0.40

> <Gold.Chemscore.Hbond.Weighted>
-3.0052

> <Gold.Chemscore.Metal.Weighted>
-0.0000

> <Gold.Chemscore.Lipo.Weighted>
-9.8027

> <Gold.Chemscore.Internal_Hbond.Weighted>
0.0000

> <Gold.Chemscore.DEClash.Weighted>
0.2577

> <Gold.Chemscore.DEInternal.Weighted>
0.3528

> <Gold.Chemscore.Rot.Weighted>
3.1182

> <Gold.Chemscore.Internal.Correction.Weighted>
   9.000000E+99

> <Gold.Protein.RotatedTorsions>
[ 6907 6896 6895 6894 ] final -144.93 input  -60.11 | X-H torsion
[ 7974 7965 7964 7962 ] final -125.58 input  175.53 | X-H torsion
[ 8008 7997 7996 7995 ] final  130.49 input   59.86 | X-H torsion
[ 10167 10162 10161 10158 ] final  -90.02 input  -65.29 | X-H torsion
[ 10718 10713 10712 10709 ] final   44.25 input   66.30 | X-H torsion
[ 10763 10752 10751 10750 ] final   71.58 input  -60.55 | X-H torsion
[ 11005 11000 10999 10996 ] final   26.73 input  -57.11 | X-H torsion

> <Gold.Protein.ActiveResidues>
 VAL166  LYS551  ARG553  GLY616  TRP617  ASP618  TYR619  PRO620  LYS621  CYS622 
 ASP623  PHE694  ASN695  SER759  ASP760  ASP761  ALA762  ILE779  LEU786  VAL792 
 PHE793  MET794  SER795  GLU796  ALA797  LYS798  CYS799  TRP800  GLU811  SER814 

> <Gold.Protein.RotatedAtoms>
  151.1207  133.5106  159.2601 H   0  0  0  0  0  0  0  0  0  0  0  0  # atno 6907 bound_to 6896
  151.1864  135.0383  159.8824 H   0  0  0  0  0  0  0  0  0  0  0  0  # atno 6908 bound_to 6896
  152.5455  134.1053  159.8388 H   0  0  0  0  0  0  0  0  0  0  0  0  # atno 6909 bound_to 6896
  144.9961  140.7778  143.4524 H   0  0  0  0  0  0  0  0  0  0  0  0  # atno 7974 bound_to 7965
  156.2955  140.2595  156.2770 H   0  0  0  0  0  0  0  0  0  0  0  0  # atno 8008 bound_to 7997
  154.9639  140.0392  157.2221 H   0  0  0  0  0  0  0  0  0  0  0  0  # atno 8009 bound_to 7997
  154.7921  140.2813  155.5988 H   0  0  0  0  0  0  0  0  0  0  0  0  # atno 8010 bound_to 7997
  140.3590  143.2851  151.9637 H   0  0  0  0  0  0  0  0  0  0  0  0  # atno 10167 bound_to 10162
  157.4247  130.7990  149.7548 H   0  0  0  0  0  0  0  0  0  0  0  0  # atno 10718 bound_to 10713
  153.0407  135.5131  154.7614 H   0  0  0  0  0  0  0  0  0  0  0  0  # atno 10763 bound_to 10752
  154.6554  135.2931  154.9936 H   0  0  0  0  0  0  0  0  0  0  0  0  # atno 10764 bound_to 10752
  154.0806  135.6664  153.4890 H   0  0  0  0  0  0  0  0  0  0  0  0  # atno 10765 bound_to 10752
  140.3339  134.2407  155.7698 H   0  0  0  0  0  0  0  0  0  0  0  0  # atno 11005 bound_to 11000
  145.2217  139.2156  143.5089 LP  0  0  0  0  0  0  0  0  0  0  0  0  # atno 17320 bound_to 7965
  146.3442  140.2076  142.8590 LP  0  0  0  0  0  0  0  0  0  0  0  0  # atno 17321 bound_to 7965
  139.4816  144.6009  151.7607 LP  0  0  0  0  0  0  0  0  0  0  0  0  # atno 17342 bound_to 10162
  140.5145  144.0974  150.6004 LP  0  0  0  0  0  0  0  0  0  0  0  0  # atno 17343 bound_to 10162
  155.9892  130.3953  150.3082 LP  0  0  0  0  0  0  0  0  0  0  0  0  # atno 17370 bound_to 10713
  157.1233  131.0252  151.3000 LP  0  0  0  0  0  0  0  0  0  0  0  0  # atno 17371 bound_to 10713
  141.2056  133.7855  157.0223 LP  0  0  0  0  0  0  0  0  0  0  0  0  # atno 17394 bound_to 11000
  140.0837  134.9633  157.1666 LP  0  0  0  0  0  0  0  0  0  0  0  0  # atno 17395 bound_to 11000

$$$$
