AV-unprocessed.smi:287|AV-procd|sdf|2196|dock2
  -GOLD-   2262022 03D 1   1.00000     0.00000
 Structure written by MMmdl.
 55 58  0  0  0  0  0  0  0  0  1 V2000
  150.0492  141.6776  156.5770 C   0  0  0  0  0  0  0  0  0  0  0  0
  150.4649  140.2656  156.3442 C   0  0  0  0  0  0  0  0  0  0  0  0
  150.0961  139.0703  156.8890 C   0  0  0  0  0  0  0  0  0  0  0  0
  150.8612  138.0534  156.2440 C   0  0  0  0  0  0  0  0  0  0  0  0
  150.7759  136.5589  156.5259 C   0  0  2  0  0  0  0  0  0  0  0  0
  149.9506  136.3032  157.7995 C   0  0  0  0  0  0  0  0  0  0  0  0
  152.0376  135.9746  156.7865 O   0  0  0  0  0  0  0  0  0  0  0  0
  150.1715  135.7788  155.3371 C   0  0  0  0  0  0  0  0  0  0  0  0
  150.6706  134.4129  155.2422 N   0  0  0  0  0  0  0  0  0  0  0  0
  149.8759  133.4069  154.8214 C   0  0  0  0  0  0  0  0  0  0  0  0
  150.3188  132.1612  155.1104 N   0  0  0  0  0  0  0  0  0  0  0  0
  149.6115  131.0951  154.7322 C   0  0  0  0  0  0  0  0  0  0  0  0
  148.4555  131.0572  154.0703 N   0  0  0  0  0  0  0  0  0  0  0  0
  147.9912  132.3057  153.7727 C   0  0  0  0  0  0  0  0  0  0  0  0
  148.6425  133.5287  154.1134 C   0  0  0  0  0  0  0  0  0  0  0  0
  147.8843  134.5965  153.6502 N   0  0  0  0  0  0  0  0  0  0  0  0
  146.8613  134.0375  153.0669 C   0  0  0  0  0  0  0  0  0  0  0  0
  146.8317  132.6616  153.1003 N   0  0  0  0  0  0  0  0  0  0  0  0
  145.7760  131.7940  152.4672 C   0  0  1  0  0  0  0  0  0  0  0  0
  144.8034  132.6204  151.9126 O   0  0  0  0  0  0  0  0  0  0  0  0
  145.0828  132.8324  150.5362 C   0  0  2  0  0  0  0  0  0  0  0  0
  143.7961  133.2382  149.8017 C   0  0  0  0  0  0  0  0  0  0  0  0
  142.9109  132.1405  149.7316 O   0  0  0  0  0  0  0  0  0  0  0  0
  145.6399  131.4723  150.0865 C   0  0  1  0  0  0  0  0  0  0  0  0
  146.5874  131.6462  149.0523 O   0  0  0  0  0  0  0  0  0  0  0  0
  146.3013  130.8882  151.3396 C   0  0  2  0  0  0  0  0  0  0  0  0
  145.8875  129.5494  151.5263 O   0  0  0  0  0  0  0  0  0  0  0  0
  151.6437  138.7266  155.3360 C   0  0  0  0  0  0  0  0  0  0  0  0
  152.6591  138.3049  154.3255 C   0  0  0  0  0  0  0  0  0  0  0  0
  151.4117  140.0676  155.3933 O   0  0  0  0  0  0  0  0  0  0  0  0
  145.3607  131.2373  153.3085 H   0  0  0  0  0  0  0  0  0  0  0  0
  145.8384  133.6115  150.4350 H   0  0  0  0  0  0  0  0  0  0  0  0
  144.8282  130.8301  149.7398 H   0  0  0  0  0  0  0  0  0  0  0  0
  147.3902  130.9022  151.3063 H   0  0  0  0  0  0  0  0  0  0  0  0
  149.1953  141.7257  157.2532 H   0  0  0  0  0  0  0  0  0  0  0  0
  149.7649  142.1568  155.6399 H   0  0  0  0  0  0  0  0  0  0  0  0
  150.8635  142.2519  157.0189 H   0  0  0  0  0  0  0  0  0  0  0  0
  149.3562  138.9382  157.6646 H   0  0  0  0  0  0  0  0  0  0  0  0
  148.9289  136.6696  157.6934 H   0  0  0  0  0  0  0  0  0  0  0  0
  150.3899  136.8031  158.6640 H   0  0  0  0  0  0  0  0  0  0  0  0
  149.8900  135.2386  158.0294 H   0  0  0  0  0  0  0  0  0  0  0  0
  151.9004  135.1508  157.2283 H   0  0  0  0  0  0  0  0  0  0  0  0
  149.0816  135.7856  155.3825 H   0  0  0  0  0  0  0  0  0  0  0  0
  150.4553  136.2859  154.4137 H   0  0  0  0  0  0  0  0  0  0  0  0
  151.6532  134.2935  155.4420 H   0  0  0  0  0  0  0  0  0  0  0  0
  150.0308  130.1357  154.9962 H   0  0  0  0  0  0  0  0  0  0  0  0
  146.0905  134.6232  152.5873 H   0  0  0  0  0  0  0  0  0  0  0  0
  143.2879  134.0322  150.3494 H   0  0  0  0  0  0  0  0  0  0  0  0
  144.0110  133.6185  148.8025 H   0  0  0  0  0  0  0  0  0  0  0  0
  142.0243  132.4653  149.7691 H   0  0  0  0  0  0  0  0  0  0  0  0
  147.4513  131.6476  149.4352 H   0  0  0  0  0  0  0  0  0  0  0  0
  145.3433  129.2992  150.7953 H   0  0  0  0  0  0  0  0  0  0  0  0
  153.5108  137.8271  154.8096 H   0  0  0  0  0  0  0  0  0  0  0  0
  153.0314  139.1586  153.7583 H   0  0  0  0  0  0  0  0  0  0  0  0
  152.2281  137.5959  153.6184 H   0  0  0  0  0  0  0  0  0  0  0  0
  1  2  1  0  0  0  0
  1 35  1  0  0  0  0
  1 36  1  0  0  0  0
  1 37  1  0  0  0  0
  2 30  1  0  0  0  0
  2  3  2  0  0  0  0
  3  4  1  0  0  0  0
  3 38  1  0  0  0  0
  4  5  1  0  0  0  0
  4 28  2  0  0  0  0
  5  6  1  0  0  0  0
  5  7  1  0  0  0  0
  5  8  1  0  0  0  0
  6 39  1  0  0  0  0
  6 40  1  0  0  0  0
  6 41  1  0  0  0  0
  7 42  1  0  0  0  0
  8  9  1  0  0  0  0
  8 43  1  0  0  0  0
  8 44  1  0  0  0  0
  9 10  1  0  0  0  0
  9 45  1  0  0  0  0
 10 15  1  0  0  0  0
 10 11  2  0  0  0  0
 11 12  1  0  0  0  0
 12 13  2  0  0  0  0
 12 46  1  0  0  0  0
 13 14  1  0  0  0  0
 14 18  1  0  0  0  0
 14 15  2  0  0  0  0
 15 16  1  0  0  0  0
 16 17  2  0  0  0  0
 17 18  1  0  0  0  0
 17 47  1  0  0  0  0
 18 19  1  0  0  0  0
 19 31  1  0  0  0  0
 19 26  1  0  0  0  0
 19 20  1  0  0  0  0
 20 21  1  0  0  0  0
 21 32  1  0  0  0  0
 21 22  1  0  0  0  0
 21 24  1  0  0  0  0
 22 23  1  0  0  0  0
 22 48  1  0  0  0  0
 22 49  1  0  0  0  0
 23 50  1  0  0  0  0
 24 33  1  0  0  0  0
 24 25  1  0  0  0  0
 24 26  1  0  0  0  0
 25 51  1  0  0  0  0
 26 34  1  0  0  0  0
 26 27  1  0  0  0  0
 27 52  1  0  0  0  0
 28 29  1  0  0  0  0
 28 30  1  0  0  0  0
 29 53  1  0  0  0  0
 29 54  1  0  0  0  0
 29 55  1  0  0  0  0
M  END
> <s_m_source_file>
AV-unprocessed.smi

> <i_m_source_file_index>
287

> <i_lp_mmshare_version>
43012

> <i_f3d_flags>
0

> <s_epik_input>
W0NIM11jMVtjSF1jKGMobzEpW0NIM10pW0NAQF0oW0NIM10pKFtPSF0pW0NIMl1bTkhdYyhuW2NIXW4yKWMoYzIzKW5bY0hdbjNbQ0BASF00T1tDQEhdKFtDSDJdW09IXSlbQ0BASF0oW09IXSlbQ0BIXTRbT0hd

> <s_epik_cmdline>
J2VwaWtfcHl0aG9uJywgJy1waCcsICc3LjAnLCAnLXRuJywgJzgnLCAnLW1hJywgJzIwMCcsICctbWV0YWxfYmluZGluZycsICctaW1hZScsICc8aW5maWxlLm1hZT4nLCAnLW9tYWUnLCAnPG91dGZpbGUubWFlPic=

> <r_lp_tautomer_probability>
1

> <r_epik_Ionization_Penalty>
0.000992612

> <r_epik_Ionization_Penalty_Charging>
0

> <r_epik_Ionization_Penalty_Neutral>
0.000992612

> <r_epik_State_Penalty>
-0

> <r_epik_Charging_Adjusted_Penalty>
0

> <i_epik_Tot_Q>
0

> <i_epik_Tot_abs_Q>
0

> <r_epik_Metal_State_Penalty>
-0

> <b_epik_Metal_Only>
0

> <s_epik_Chemistry_Notes>
This compound contains an acetal/aminal-like group ( X-CH(R)-Y where X, Y are N, S, or O) that may be acid/base labile, releasing an aldehyde.

> <s_lp_Force_Field>
OPLS_2005

> <r_lp_Energy>
37.3025

> <b_lp_Chiralities_Consistent>
1

> <s_lp_Variant>
AV-unprocessed.smi:287-20

> <Gold.Version>
5.8.1

> <Gold.Id.Protein>
6NUR|6NUR_protein|mol2

> <Gold.PLP.Fitness>
48.6436

> <Gold.PLP.PLP>
-38.4663

> <Gold.PLP.part.hbond>
-5.5451

> <Gold.PLP.part.metal>
0.0000

> <Gold.PLP.part.buried>
-5.0565

> <Gold.PLP.part.nonpolar>
-31.8559

> <Gold.PLP.part.repulsive>
4.2469

> <Gold.PLP.ligand.clash>
0.0000

> <Gold.PLP.ligand.torsion>
1.1098

> <Gold.PLP.Chemscore.Hbond>
4.1015

> <Gold.PLP.Chemscore.CHOScore>
0.0000

> <Gold.PLP.Chemscore.Metal>
0.0000

> <Gold.Chemscore.Hbonds>
donor molecule, donor type, donor heavy atom, donor atom, acceptor molecule, acceptor atom, score
      L1  H    23    50       P1 10186  0.43
      L1  H    25    51       P1 10747  1.00
      P1  H  7989  7998       L1    30  0.91
      P1  H 10752 10764       L1     7  0.84
      P1  H 10785 10796       L1    23  0.46

> <Gold.PLP.Chemscore.Internal.Correction>
0.0924

> <Gold.Rescore>
     Score         DG    S(hbond)    S(metal)    S(lipo)     H(rot)  DE(clash)    DE(int)     intcor
     11.80     -16.46       3.90        0.00      97.77       5.27       3.08       1.59       ----

> <Gold.Chemscore.Fitness>
11.7956

> <Gold.Chemscore.DG>
-16.4650

> <Gold.Chemscore.ZeroCoef>
-5.4800

> <Gold.Chemscore.Hbond>
3.9012

> <Gold.Chemscore.Metal>
0.0000

> <Gold.Chemscore.Lipo>
97.7692

> <Gold.Chemscore.Internal_Hbond>
0.0000

> <Gold.Chemscore.DEClash>
3.0792

> <Gold.Chemscore.DEInternal>
1.5902

> <Gold.Chemscore.Rot>
5.2672

> <Gold.Chemscore.Internal.Correction>
   9.000000E+99

> <Gold.Chemscore.Hbonds>
donor molecule, donor type, donor heavy atom, donor atom, acceptor molecule, acceptor atom, score
      L1  H    23    50       P1 10186  0.43
      L1  H    25    51       P1 10747  0.98
      P1  H  7989  7998       L1    30  0.60
      P1  H 10752 10764       L1     7  0.31
      P1  H 10785 10796       L1    23  0.42

> <Gold.Chemscore.Hbond.Weighted>
-13.0299

> <Gold.Chemscore.Metal.Weighted>
-0.0000

> <Gold.Chemscore.Lipo.Weighted>
-11.4390

> <Gold.Chemscore.Internal_Hbond.Weighted>
0.0000

> <Gold.Chemscore.DEClash.Weighted>
3.0792

> <Gold.Chemscore.DEInternal.Weighted>
1.5902

> <Gold.Chemscore.Rot.Weighted>
13.4839

> <Gold.Chemscore.Internal.Correction.Weighted>
   9.000000E+99

> <Gold.Protein.RotatedTorsions>
[ 6907 6896 6895 6894 ] final   26.30 input  -60.11 | X-H torsion
[ 7974 7965 7964 7962 ] final   86.64 input  175.53 | X-H torsion
[ 8008 7997 7996 7995 ] final    9.01 input   59.86 | X-H torsion
[ 10167 10162 10161 10158 ] final  -65.76 input  -65.29 | X-H torsion
[ 10718 10713 10712 10709 ] final  151.07 input   66.30 | X-H torsion
[ 10763 10752 10751 10750 ] final  -21.89 input  -60.55 | X-H torsion
[ 11005 11000 10999 10996 ] final  -42.69 input  -57.11 | X-H torsion

> <Gold.Protein.ActiveResidues>
 VAL166  LYS551  ARG553  GLY616  TRP617  ASP618  TYR619  PRO620  LYS621  CYS622 
 ASP623  PHE694  ASN695  SER759  ASP760  ASP761  ALA762  ILE779  LEU786  VAL792 
 PHE793  MET794  SER795  GLU796  ALA797  LYS798  CYS799  TRP800  GLU811  SER814 

> <Gold.Protein.RotatedAtoms>
  151.9855  135.0007  160.0559 H   0  0  0  0  0  0  0  0  0  0  0  0  # atno 6907 bound_to 6896
  152.1657  133.4606  159.4892 H   0  0  0  0  0  0  0  0  0  0  0  0  # atno 6908 bound_to 6896
  150.6894  134.1933  159.4337 H   0  0  0  0  0  0  0  0  0  0  0  0  # atno 6909 bound_to 6896
  145.5696  139.2312  143.2414 H   0  0  0  0  0  0  0  0  0  0  0  0  # atno 7974 bound_to 7965
  154.7743  140.2807  155.6113 H   0  0  0  0  0  0  0  0  0  0  0  0  # atno 8008 bound_to 7997
  156.2939  140.2635  156.2481 H   0  0  0  0  0  0  0  0  0  0  0  0  # atno 8009 bound_to 7997
  154.9861  140.0374  157.2289 H   0  0  0  0  0  0  0  0  0  0  0  0  # atno 8010 bound_to 7997
  140.5706  143.2317  151.6546 H   0  0  0  0  0  0  0  0  0  0  0  0  # atno 10167 bound_to 10162
  157.2754  131.0825  151.1570 H   0  0  0  0  0  0  0  0  0  0  0  0  # atno 10718 bound_to 10713
  153.6433  135.6984  153.5234 H   0  0  0  0  0  0  0  0  0  0  0  0  # atno 10763 bound_to 10752
  153.2765  135.4199  155.1037 H   0  0  0  0  0  0  0  0  0  0  0  0  # atno 10764 bound_to 10752
  154.8494  135.3591  154.5977 H   0  0  0  0  0  0  0  0  0  0  0  0  # atno 10765 bound_to 10752
  141.0333  133.6811  156.2629 H   0  0  0  0  0  0  0  0  0  0  0  0  # atno 11005 bound_to 11000
  146.1794  140.6521  142.9196 LP  0  0  0  0  0  0  0  0  0  0  0  0  # atno 17320 bound_to 7965
  144.7444  140.5029  143.6846 LP  0  0  0  0  0  0  0  0  0  0  0  0  # atno 17321 bound_to 7965
  139.5115  144.3505  152.0656 LP  0  0  0  0  0  0  0  0  0  0  0  0  # atno 17342 bound_to 10162
  140.2642  144.4034  150.6174 LP  0  0  0  0  0  0  0  0  0  0  0  0  # atno 17343 bound_to 10162
  157.3025  130.6850  149.6172 LP  0  0  0  0  0  0  0  0  0  0  0  0  # atno 17370 bound_to 10713
  155.9663  130.4388  150.5231 LP  0  0  0  0  0  0  0  0  0  0  0  0  # atno 17371 bound_to 10713
  140.6368  134.5207  157.5565 LP  0  0  0  0  0  0  0  0  0  0  0  0  # atno 17394 bound_to 11000
  139.9223  134.8125  156.1175 LP  0  0  0  0  0  0  0  0  0  0  0  0  # atno 17395 bound_to 11000

$$$$
