AV-unprocessed.smi:3141|AV-procd|sdf|11965|dock1
  -GOLD-   2272017363D 1   1.00000     0.00000
 Structure written by MMmdl.
 36 38  0  0  0  0  0  0  0  0  2 V2000
  151.0124  141.3927  157.7259 O   0  0  0  0  0  0  0  0  0  0  0  0
  150.5574  142.3826  157.1513 C   0  0  0  0  0  0  0  0  0  0  0  0
  151.0516  143.6212  157.2761 N   0  0  0  0  0  0  0  0  0  0  0  0
  152.1737  143.9854  158.0788 C   0  0  0  0  0  0  0  0  0  0  0  0
  152.1381  143.6188  159.5468 C   0  0  0  0  0  0  0  0  0  0  0  0
  151.9656  145.0535  159.1306 C   0  0  0  0  0  0  0  0  0  0  0  0
  149.5087  142.3468  156.3171 N   0  0  0  0  0  0  0  0  0  0  0  0
  148.7631  141.1399  155.9701 C   0  0  1  0  0  0  0  0  0  0  0  0
  147.2476  141.4203  155.9576 C   0  0  0  0  0  0  0  0  0  0  0  0
  146.7952  141.2898  154.5008 C   0  0  0  0  0  0  0  0  0  0  0  0
  147.7697  140.2883  153.8891 C   0  0  0  0  0  0  0  0  0  0  0  0
  149.1087  140.6441  154.5450 C   0  0  2  0  0  0  0  0  0  0  0  0
  150.0937  139.5522  154.5146 N   0  0  0  0  0  0  0  0  0  0  0  0
  151.2190  139.4404  155.2912 C   0  0  0  0  0  0  0  0  0  0  0  0
  151.8277  138.2648  154.9353 C   0  0  0  0  0  0  0  0  0  0  0  0
  151.0509  137.7075  153.9559 N   0  3  0  0  0  0  0  0  0  0  0  0
  149.9982  138.4909  153.7008 C   0  0  0  0  0  0  0  0  0  0  0  0
  150.6041  144.3651  156.7604 H   0  0  0  0  0  0  0  0  0  0  0  0
  153.1548  143.9652  157.6059 H   0  0  0  0  0  0  0  0  0  0  0  0
  151.2604  143.0952  159.9208 H   0  0  0  0  0  0  0  0  0  0  0  0
  153.0797  143.3420  160.0169 H   0  0  0  0  0  0  0  0  0  0  0  0
  152.7913  145.7353  159.3231 H   0  0  0  0  0  0  0  0  0  0  0  0
  150.9722  145.4876  159.2271 H   0  0  0  0  0  0  0  0  0  0  0  0
  149.2055  143.2108  155.8915 H   0  0  0  0  0  0  0  0  0  0  0  0
  148.9597  140.3727  156.7211 H   0  0  0  0  0  0  0  0  0  0  0  0
  146.7394  140.6655  156.5592 H   0  0  0  0  0  0  0  0  0  0  0  0
  146.9828  142.3917  156.3777 H   0  0  0  0  0  0  0  0  0  0  0  0
  145.7554  140.9739  154.4115 H   0  0  0  0  0  0  0  0  0  0  0  0
  146.8949  142.2525  153.9977 H   0  0  0  0  0  0  0  0  0  0  0  0
  147.4592  139.2767  154.1536 H   0  0  0  0  0  0  0  0  0  0  0  0
  147.8066  140.3515  152.8010 H   0  0  0  0  0  0  0  0  0  0  0  0
  149.5341  141.4721  153.9740 H   0  0  0  0  0  0  0  0  0  0  0  0
  151.4937  140.1840  156.0254 H   0  0  0  0  0  0  0  0  0  0  0  0
  152.7305  137.7950  155.2977 H   0  0  0  0  0  0  0  0  0  0  0  0
  149.2211  138.3001  152.9821 H   0  0  0  0  0  0  0  0  0  0  0  0
  151.2409  136.8278  153.4923 H   0  0  0  0  0  0  0  0  0  0  0  0
  1  2  2  0  0  0  0
  2  3  1  0  0  0  0
  2  7  1  0  0  0  0
  3  4  1  0  0  0  0
  3 18  1  0  0  0  0
  4  6  1  0  0  0  0
  4  5  1  0  0  0  0
  4 19  1  0  0  0  0
  5  6  1  0  0  0  0
  5 20  1  0  0  0  0
  5 21  1  0  0  0  0
  6 22  1  0  0  0  0
  6 23  1  0  0  0  0
  7  8  1  0  0  0  0
  7 24  1  0  0  0  0
  8 12  1  0  0  0  0
  8  9  1  0  0  0  0
  8 25  1  0  0  0  0
  9 10  1  0  0  0  0
  9 26  1  0  0  0  0
  9 27  1  0  0  0  0
 10 11  1  0  0  0  0
 10 28  1  0  0  0  0
 10 29  1  0  0  0  0
 11 12  1  0  0  0  0
 11 30  1  0  0  0  0
 11 31  1  0  0  0  0
 12 13  1  0  0  0  0
 12 32  1  0  0  0  0
 13 17  1  0  0  0  0
 13 14  1  0  0  0  0
 14 15  2  0  0  0  0
 14 33  1  0  0  0  0
 15 16  1  0  0  0  0
 15 34  1  0  0  0  0
 16 17  2  0  0  0  0
 16 36  1  0  0  0  0
 17 35  1  0  0  0  0
M  CHG  1  16   1
M  END
> <s_m_source_file>
AV-unprocessed.smi

> <i_m_source_file_index>
3141

> <i_lp_mmshare_version>
43012

> <i_f3d_flags>
0

> <s_epik_input>
W0NIMl0xW0NIMl1bQ0hdMVtOSF1DKD1PKVtOSF1bQ0BASF0yW0NIMl1bQ0gyXVtDSDJdW0NASF0ybjNbY0hdW2NIXW5bY0hdMw==

> <s_epik_cmdline>
J2VwaWtfcHl0aG9uJywgJy1waCcsICc3LjAnLCAnLXRuJywgJzgnLCAnLW1hJywgJzIwMCcsICctbWV0YWxfYmluZGluZycsICctaW1hZScsICc8aW5maWxlLm1hZT4nLCAnLW9tYWUnLCAnPG91dGZpbGUubWFlPic=

> <r_lp_tautomer_probability>
1

> <r_epik_Ionization_Penalty>
0.205063

> <r_epik_Ionization_Penalty_Charging>
0

> <r_epik_Ionization_Penalty_Neutral>
0.205063

> <r_epik_State_Penalty>
0.194948

> <r_epik_Charging_Adjusted_Penalty>
0.194948

> <i_epik_Tot_Q>
1

> <i_epik_Tot_abs_Q>
1

> <r_epik_Metal_State_Penalty>
0.500882

> <b_epik_Metal_Only>
0

> <s_lp_Force_Field>
OPLS_2005

> <r_lp_Energy>
34.662

> <b_lp_Chiralities_Consistent>
1

> <s_lp_Variant>
AV-unprocessed.smi:3141-4

> <Gold.Version>
5.8.1

> <Gold.Id.Protein>
6NUR|6NUR_protein|mol2

> <Gold.PLP.Fitness>
50.2446

> <Gold.PLP.PLP>
-36.9423

> <Gold.PLP.part.hbond>
-3.4107

> <Gold.PLP.part.metal>
0.0000

> <Gold.PLP.part.buried>
0.9924

> <Gold.PLP.part.nonpolar>
-34.1463

> <Gold.PLP.part.repulsive>
0.2198

> <Gold.PLP.ligand.clash>
0.0000

> <Gold.PLP.ligand.torsion>
0.7280

> <Gold.PLP.Chemscore.Hbond>
3.6188

> <Gold.PLP.Chemscore.CHOScore>
1.2865

> <Gold.PLP.Chemscore.Metal>
0.0000

> <Gold.Chemscore.Hbonds>
donor molecule, donor type, donor heavy atom, donor atom, acceptor molecule, acceptor atom, score
      L1  H     3    18       P1  8028  0.81
      L1  H     7    24       P1  8028  1.00
      L1  H    16    36       P1  7949  1.02
      L1  C    17    35       P1  7948  0.86
      L1  C    17    35       P1  7957  0.49

> <Gold.PLP.Chemscore.Internal.Correction>
0.0423

> <Gold.Rescore>
     Score         DG    S(hbond)    S(metal)    S(lipo)     H(rot)  DE(clash)    DE(int)     intcor
     17.10     -19.47       2.63        0.00      79.83       1.61       1.58       0.79       ----

> <Gold.Chemscore.Fitness>
17.1000

> <Gold.Chemscore.DG>
-19.4699

> <Gold.Chemscore.ZeroCoef>
-5.4800

> <Gold.Chemscore.Hbond>
2.6252

> <Gold.Chemscore.Metal>
0.0000

> <Gold.Chemscore.Lipo>
79.8329

> <Gold.Chemscore.Internal_Hbond>
0.0000

> <Gold.Chemscore.DEClash>
1.5777

> <Gold.Chemscore.DEInternal>
0.7921

> <Gold.Chemscore.Rot>
1.6088

> <Gold.Chemscore.Internal.Correction>
   9.000000E+99

> <Gold.Chemscore.Hbonds>
donor molecule, donor type, donor heavy atom, donor atom, acceptor molecule, acceptor atom, score
      L1  H     3    18       P1  8028  0.73
      L1  H     7    24       P1  8028  0.96
      L1  H    16    36       P1  7949  0.30

> <Gold.Chemscore.Hbond.Weighted>
-8.7680

> <Gold.Chemscore.Metal.Weighted>
-0.0000

> <Gold.Chemscore.Lipo.Weighted>
-9.3405

> <Gold.Chemscore.Internal_Hbond.Weighted>
0.0000

> <Gold.Chemscore.DEClash.Weighted>
1.5777

> <Gold.Chemscore.DEInternal.Weighted>
0.7921

> <Gold.Chemscore.Rot.Weighted>
4.1186

> <Gold.Chemscore.Internal.Correction.Weighted>
   9.000000E+99

> <Gold.Protein.RotatedTorsions>
[ 6907 6896 6895 6894 ] final  178.58 input  -60.11 | X-H torsion
[ 7974 7965 7964 7962 ] final    6.57 input  175.53 | X-H torsion
[ 8008 7997 7996 7995 ] final   -4.94 input   59.86 | X-H torsion
[ 10167 10162 10161 10158 ] final  130.70 input  -65.29 | X-H torsion
[ 10718 10713 10712 10709 ] final  101.38 input   66.30 | X-H torsion
[ 10763 10752 10751 10750 ] final -136.32 input  -60.55 | X-H torsion
[ 11005 11000 10999 10996 ] final -140.09 input  -57.11 | X-H torsion

> <Gold.Protein.ActiveResidues>
 VAL166  LYS551  ARG553  GLY616  TRP617  ASP618  TYR619  PRO620  LYS621  CYS622 
 ASP623  PHE694  ASN695  SER759  ASP760  ASP761  ALA762  ILE779  LEU786  VAL792 
 PHE793  MET794  SER795  GLU796  ALA797  LYS798  CYS799  TRP800  GLU811  SER814 

> <Gold.Protein.RotatedAtoms>
  151.6855  133.3311  159.3229 H   0  0  0  0  0  0  0  0  0  0  0  0  # atno 6907 bound_to 6896
  150.7803  134.6744  159.6419 H   0  0  0  0  0  0  0  0  0  0  0  0  # atno 6908 bound_to 6896
  152.3858  134.6522  160.0178 H   0  0  0  0  0  0  0  0  0  0  0  0  # atno 6909 bound_to 6896
  146.2433  140.0213  142.8397 H   0  0  0  0  0  0  0  0  0  0  0  0  # atno 7974 bound_to 7965
  154.6090  140.2471  155.7693 H   0  0  0  0  0  0  0  0  0  0  0  0  # atno 8008 bound_to 7997
  156.2359  140.2950  156.0262 H   0  0  0  0  0  0  0  0  0  0  0  0  # atno 8009 bound_to 7997
  155.2083  140.0396  157.2919 H   0  0  0  0  0  0  0  0  0  0  0  0  # atno 8010 bound_to 7997
  139.5418  144.6737  151.4601 H   0  0  0  0  0  0  0  0  0  0  0  0  # atno 10167 bound_to 10162
  157.6831  131.0724  150.5243 H   0  0  0  0  0  0  0  0  0  0  0  0  # atno 10718 bound_to 10713
  154.8686  135.3676  154.5042 H   0  0  0  0  0  0  0  0  0  0  0  0  # atno 10763 bound_to 10752
  153.5681  135.7021  153.5522 H   0  0  0  0  0  0  0  0  0  0  0  0  # atno 10764 bound_to 10752
  153.3567  135.4057  155.1650 H   0  0  0  0  0  0  0  0  0  0  0  0  # atno 10765 bound_to 10752
  140.8457  134.2348  157.4787 H   0  0  0  0  0  0  0  0  0  0  0  0  # atno 11005 bound_to 11000
  145.1238  140.9478  143.4584 LP  0  0  0  0  0  0  0  0  0  0  0  0  # atno 17320 bound_to 7965
  145.0454  139.3225  143.5955 LP  0  0  0  0  0  0  0  0  0  0  0  0  # atno 17321 bound_to 7965
  140.6650  143.8416  150.6932 LP  0  0  0  0  0  0  0  0  0  0  0  0  # atno 17342 bound_to 10162
  140.1823  143.4105  152.1924 LP  0  0  0  0  0  0  0  0  0  0  0  0  # atno 17343 bound_to 10162
  156.5555  130.4242  149.6087 LP  0  0  0  0  0  0  0  0  0  0  0  0  # atno 17370 bound_to 10713
  156.2865  130.7100  151.1938 LP  0  0  0  0  0  0  0  0  0  0  0  0  # atno 17371 bound_to 10713
  139.8703  134.9658  156.4540 LP  0  0  0  0  0  0  0  0  0  0  0  0  # atno 17394 bound_to 11000
  140.8846  133.7892  155.9504 LP  0  0  0  0  0  0  0  0  0  0  0  0  # atno 17395 bound_to 11000

$$$$
