AV-unprocessed.smi:3237|AV-procd|sdf|12368|dock10
  -GOLD-   2272018233D 1   1.00000     0.00000
 Structure written by MMmdl.
 36 38  0  0  0  0  0  0  0  0  3 V2000
  147.5211  134.8307  162.7411 C   0  0  0  0  0  0  0  0  0  0  0  0
  147.2652  135.6774  161.5417 C   0  0  0  0  0  0  0  0  0  0  0  0
  146.4820  135.5083  160.4353 C   0  0  0  0  0  0  0  0  0  0  0  0
  146.7155  136.6948  159.6879 C   0  0  0  0  0  0  0  0  0  0  0  0
  146.1561  137.0074  158.5089 N   0  5  0  0  0  0  0  0  0  0  0  0
  146.8523  137.7178  157.5928 C   0  0  0  0  0  0  0  0  0  0  0  0
  147.9221  138.3031  157.7764 O   0  0  0  0  0  0  0  0  0  0  0  0
  146.2729  137.7507  156.3851 N   0  0  0  0  0  0  0  0  0  0  0  0
  146.8001  138.4365  155.2113 C   0  0  1  0  0  0  0  0  0  0  0  0
  146.7361  137.6263  153.9203 C   0  0  0  0  0  0  0  0  0  0  0  0
  146.8227  138.7116  152.8418 C   0  0  0  0  0  0  0  0  0  0  0  0
  146.2622  139.9512  153.4358 N   0  3  2  0  0  0  0  0  0  0  0  0
  147.1145  141.1427  153.2298 C   0  0  0  0  0  0  0  0  0  0  0  0
  148.1835  141.3107  154.2830 C   0  0  0  0  0  0  0  0  0  0  0  0
  146.9541  142.1930  154.3028 C   0  0  0  0  0  0  0  0  0  0  0  0
  145.9724  139.6704  154.8589 C   0  0  0  0  0  0  0  0  0  0  0  0
  147.5528  137.5187  160.2952 N   0  0  0  0  0  0  0  0  0  0  0  0
  147.9164  136.8700  161.4813 O   0  0  0  0  0  0  0  0  0  0  0  0
  146.6320  134.2593  163.0084 H   0  0  0  0  0  0  0  0  0  0  0  0
  147.7993  135.4421  163.5998 H   0  0  0  0  0  0  0  0  0  0  0  0
  148.3310  134.1270  162.5492 H   0  0  0  0  0  0  0  0  0  0  0  0
  145.8469  134.6687  160.1958 H   0  0  0  0  0  0  0  0  0  0  0  0
  145.3965  137.2605  156.2796 H   0  0  0  0  0  0  0  0  0  0  0  0
  147.8308  138.7454  155.3975 H   0  0  0  0  0  0  0  0  0  0  0  0
  147.5336  136.8869  153.8406 H   0  0  0  0  0  0  0  0  0  0  0  0
  145.7812  137.1031  153.8481 H   0  0  0  0  0  0  0  0  0  0  0  0
  147.8674  138.8645  152.5656 H   0  0  0  0  0  0  0  0  0  0  0  0
  146.2823  138.4324  151.9371 H   0  0  0  0  0  0  0  0  0  0  0  0
  147.3058  141.4294  152.1970 H   0  0  0  0  0  0  0  0  0  0  0  0
  148.2691  140.5487  155.0557 H   0  0  0  0  0  0  0  0  0  0  0  0
  149.1215  141.7691  153.9763 H   0  0  0  0  0  0  0  0  0  0  0  0
  147.0822  143.2331  154.0101 H   0  0  0  0  0  0  0  0  0  0  0  0
  146.2220  142.0182  155.0894 H   0  0  0  0  0  0  0  0  0  0  0  0
  144.9071  139.4513  154.9456 H   0  0  0  0  0  0  0  0  0  0  0  0
  146.1876  140.5169  155.5127 H   0  0  0  0  0  0  0  0  0  0  0  0
  145.3766  140.1365  152.9871 H   0  0  0  0  0  0  0  0  0  0  0  0
  1  2  1  0  0  0  0
  1 19  1  0  0  0  0
  1 20  1  0  0  0  0
  1 21  1  0  0  0  0
  2 18  1  0  0  0  0
  2  3  2  0  0  0  0
  3  4  1  0  0  0  0
  3 22  1  0  0  0  0
  4  5  1  0  0  0  0
  4 17  2  0  0  0  0
  5  6  1  0  0  0  0
  6  7  2  0  0  0  0
  6  8  1  0  0  0  0
  8  9  1  0  0  0  0
  8 23  1  0  0  0  0
  9 16  1  0  0  0  0
  9 10  1  0  0  0  0
  9 24  1  0  0  0  0
 10 11  1  0  0  0  0
 10 25  1  0  0  0  0
 10 26  1  0  0  0  0
 11 12  1  0  0  0  0
 11 27  1  0  0  0  0
 11 28  1  0  0  0  0
 12 13  1  0  0  0  0
 12 16  1  0  0  0  0
 12 36  1  0  0  0  0
 13 15  1  0  0  0  0
 13 14  1  0  0  0  0
 13 29  1  0  0  0  0
 14 15  1  0  0  0  0
 14 30  1  0  0  0  0
 14 31  1  0  0  0  0
 15 32  1  0  0  0  0
 15 33  1  0  0  0  0
 16 34  1  0  0  0  0
 16 35  1  0  0  0  0
 17 18  1  0  0  0  0
M  CHG  1   5  -1
M  CHG  1  12   1
M  END
> <s_m_source_file>
AV-unprocessed.smi

> <i_m_source_file_index>
3237

> <i_lp_mmshare_version>
43012

> <i_f3d_flags>
0

> <s_epik_input>
W0NIM11jMVtjSF1jKG5vMSlbTkhdQyg9TylbTkhdW0NAQEhdMltDSDJdW0NIMl1OKFtDSDJdMilbQ0hdM1tDSDJdW0NIMl0z

> <s_epik_cmdline>
J2VwaWtfcHl0aG9uJywgJy1waCcsICc3LjAnLCAnLXRuJywgJzgnLCAnLW1hJywgJzIwMCcsICctbWV0YWxfYmluZGluZycsICctaW1hZScsICc8aW5maWxlLm1hZT4nLCAnLW9tYWUnLCAnPG91dGZpbGUubWFlPic=

> <r_epik_Ionization_Penalty>
6.08472

> <r_epik_Ionization_Penalty_Charging>
6.08464

> <r_epik_Ionization_Penalty_Neutral>
8.41751e-05

> <r_epik_State_Penalty>
6.08438

> <r_epik_Charging_Adjusted_Penalty>
12.169

> <i_epik_Tot_Q>
0

> <i_epik_Tot_abs_Q>
2

> <r_epik_Metal_State_Penalty>
2.0369

> <b_epik_Metal_Only>
1

> <s_lp_Force_Field>
OPLS_2005

> <r_lp_Energy>
24.4971

> <b_lp_Chiralities_Consistent>
1

> <s_lp_Variant>
AV-unprocessed.smi:3237-6

> <Gold.Version>
5.8.1

> <Gold.Id.Protein>
6NUR|6NUR_protein|mol2

> <Gold.PLP.Fitness>
35.2938

> <Gold.PLP.PLP>
-25.7355

> <Gold.PLP.part.hbond>
-4.6989

> <Gold.PLP.part.metal>
0.0000

> <Gold.PLP.part.buried>
-4.2718

> <Gold.PLP.part.nonpolar>
-17.8843

> <Gold.PLP.part.repulsive>
0.0000

> <Gold.PLP.ligand.clash>
0.0000

> <Gold.PLP.ligand.torsion>
1.0450

> <Gold.PLP.Chemscore.Hbond>
3.4600

> <Gold.PLP.Chemscore.CHOScore>
0.0000

> <Gold.PLP.Chemscore.Metal>
0.0000

> <Gold.Chemscore.Hbonds>
donor molecule, donor type, donor heavy atom, donor atom, acceptor molecule, acceptor atom, score
      L1  H    12    36       P1 10175  2.00
      P1  H  6931  6943       L1    18  0.55
      P1  H  6934  6947       L1    17  0.87

> <Gold.PLP.Chemscore.Internal.Correction>
1.2683

> <Gold.Rescore>
     Score         DG    S(hbond)    S(metal)    S(lipo)     H(rot)  DE(clash)    DE(int)     intcor
     12.00     -14.67       1.88        0.00      52.22       1.25       0.02       2.65       ----

> <Gold.Chemscore.Fitness>
11.9960

> <Gold.Chemscore.DG>
-14.6667

> <Gold.Chemscore.ZeroCoef>
-5.4800

> <Gold.Chemscore.Hbond>
1.8766

> <Gold.Chemscore.Metal>
0.0000

> <Gold.Chemscore.Lipo>
52.2195

> <Gold.Chemscore.Internal_Hbond>
0.0000

> <Gold.Chemscore.DEClash>
0.0174

> <Gold.Chemscore.DEInternal>
2.6534

> <Gold.Chemscore.Rot>
1.2464

> <Gold.Chemscore.Internal.Correction>
   9.000000E+99

> <Gold.Chemscore.Hbonds>
donor molecule, donor type, donor heavy atom, donor atom, acceptor molecule, acceptor atom, score
      L1  H    12    36       P1 10175  0.99
      P1  H  6931  6943       L1    18  0.03
      P1  H  6934  6947       L1    17  0.19

> <Gold.Chemscore.Hbond.Weighted>
-6.2679

> <Gold.Chemscore.Metal.Weighted>
-0.0000

> <Gold.Chemscore.Lipo.Weighted>
-6.1097

> <Gold.Chemscore.Internal_Hbond.Weighted>
0.0000

> <Gold.Chemscore.DEClash.Weighted>
0.0174

> <Gold.Chemscore.DEInternal.Weighted>
2.6534

> <Gold.Chemscore.Rot.Weighted>
3.1909

> <Gold.Chemscore.Internal.Correction.Weighted>
   9.000000E+99

> <Gold.Protein.RotatedTorsions>
[ 6907 6896 6895 6894 ] final    9.70 input  -60.11 | X-H torsion
[ 7974 7965 7964 7962 ] final  138.08 input  175.53 | X-H torsion
[ 8008 7997 7996 7995 ] final  175.24 input   59.86 | X-H torsion
[ 10167 10162 10161 10158 ] final  -37.87 input  -65.29 | X-H torsion
[ 10718 10713 10712 10709 ] final   69.24 input   66.30 | X-H torsion
[ 10763 10752 10751 10750 ] final -103.06 input  -60.55 | X-H torsion
[ 11005 11000 10999 10996 ] final  -37.01 input  -57.11 | X-H torsion

> <Gold.Protein.ActiveResidues>
 VAL166  LYS551  ARG553  GLY616  TRP617  ASP618  TYR619  PRO620  LYS621  CYS622 
 ASP623  PHE694  ASN695  SER759  ASP760  ASP761  ALA762  ILE779  LEU786  VAL792 
 PHE793  MET794  SER795  GLU796  ALA797  LYS798  CYS799  TRP800  GLU811  SER814 

> <Gold.Protein.RotatedAtoms>
  151.7264  135.0884  160.0292 H   0  0  0  0  0  0  0  0  0  0  0  0  # atno 6907 bound_to 6896
  152.3569  133.6244  159.5994 H   0  0  0  0  0  0  0  0  0  0  0  0  # atno 6908 bound_to 6896
  150.7577  133.9402  159.3495 H   0  0  0  0  0  0  0  0  0  0  0  0  # atno 6909 bound_to 6896
  144.9407  139.4935  143.5573 H   0  0  0  0  0  0  0  0  0  0  0  0  # atno 7974 bound_to 7965
  156.0891  140.1414  156.9616 H   0  0  0  0  0  0  0  0  0  0  0  0  # atno 8008 bound_to 7997
  154.4630  140.0936  156.6993 H   0  0  0  0  0  0  0  0  0  0  0  0  # atno 8009 bound_to 7997
  155.4950  140.3449  155.4363 H   0  0  0  0  0  0  0  0  0  0  0  0  # atno 8010 bound_to 7997
  140.7107  143.3314  151.2561 H   0  0  0  0  0  0  0  0  0  0  0  0  # atno 10167 bound_to 10162
  157.6335  130.9415  150.0487 H   0  0  0  0  0  0  0  0  0  0  0  0  # atno 10718 bound_to 10713
  154.7780  135.4837  153.9784 H   0  0  0  0  0  0  0  0  0  0  0  0  # atno 10763 bound_to 10752
  153.1455  135.6781  153.8969 H   0  0  0  0  0  0  0  0  0  0  0  0  # atno 10764 bound_to 10752
  153.8630  135.3153  155.3417 H   0  0  0  0  0  0  0  0  0  0  0  0  # atno 10765 bound_to 10752
  140.9919  133.7000  156.1865 H   0  0  0  0  0  0  0  0  0  0  0  0  # atno 11005 bound_to 11000
  146.3284  139.8423  142.8888 LP  0  0  0  0  0  0  0  0  0  0  0  0  # atno 17320 bound_to 7965
  145.2996  141.0190  143.3616 LP  0  0  0  0  0  0  0  0  0  0  0  0  # atno 17321 bound_to 7965
  139.6797  143.9876  152.2801 LP  0  0  0  0  0  0  0  0  0  0  0  0  # atno 17342 bound_to 10162
  139.9502  144.6625  150.8179 LP  0  0  0  0  0  0  0  0  0  0  0  0  # atno 17343 bound_to 10162
  156.1556  130.3643  149.9374 LP  0  0  0  0  0  0  0  0  0  0  0  0  # atno 17370 bound_to 10713
  156.7384  130.9070  151.3630 LP  0  0  0  0  0  0  0  0  0  0  0  0  # atno 17371 bound_to 10713
  140.7026  134.4547  157.5585 LP  0  0  0  0  0  0  0  0  0  0  0  0  # atno 17394 bound_to 11000
  139.8996  134.8587  156.1952 LP  0  0  0  0  0  0  0  0  0  0  0  0  # atno 17395 bound_to 11000

$$$$
