AV-unprocessed.smi:227|AV-procd|sdf|1740|dock5
  -GOLD-   2262020243D 1   1.00000     0.00000
 Structure written by MMmdl.
 54 58  0  0  0  0  0  0  0  0  1 V2000
  148.4620  138.3617  152.9563 O   0  0  0  0  0  0  0  0  0  0  0  0
  149.4703  138.2751  153.9417 C   0  0  0  0  0  0  0  0  0  0  0  0
  148.8593  138.2398  155.3658 C   0  0  1  0  0  0  0  0  0  0  0  0
  148.3901  136.7991  155.7268 C   0  0  0  0  0  0  0  0  0  0  0  0
  147.5079  136.1893  154.7413 N   0  0  0  0  0  0  0  0  0  0  0  0
  146.3253  136.7033  154.2592 C   0  0  0  0  0  0  0  0  0  0  0  0
  145.7121  135.9603  153.3805 N   0  0  0  0  0  0  0  0  0  0  0  0
  146.5376  134.8527  153.2296 C   0  0  0  0  0  0  0  0  0  0  0  0
  146.4758  133.6616  152.4491 C   0  0  0  0  0  0  0  0  0  0  0  0
  145.4427  133.3539  151.6190 N   0  0  0  0  0  0  0  0  0  0  0  0
  145.6705  133.0172  150.2220 C   0  0  2  0  0  0  0  0  0  0  0  0
  144.2393  132.9886  149.6584 C   0  0  0  0  0  0  0  0  0  0  0  0
  143.4541  132.4357  150.8595 C   0  0  0  0  0  0  0  0  0  0  0  0
  144.5829  132.2084  151.8815 C   0  0  1  0  0  0  0  0  0  0  0  0
  145.4062  130.9733  151.4360 C   0  0  2  0  0  0  0  0  0  0  0  0
  146.2653  130.3488  152.5530 C   0  0  0  0  0  0  0  0  0  0  0  0
  147.2617  129.5199  151.9939 O   0  0  0  0  0  0  0  0  0  0  0  0
  146.2226  131.5774  150.2752 C   0  0  0  0  0  0  0  0  0  0  0  0
  147.5248  132.8018  152.5426 N   0  0  0  0  0  0  0  0  0  0  0  0
  148.5472  133.0658  153.3601 C   0  0  0  0  0  0  0  0  0  0  0  0
  148.7233  134.1171  154.1607 N   0  0  0  0  0  0  0  0  0  0  0  0
  147.6842  134.9945  154.0629 C   0  0  0  0  0  0  0  0  0  0  0  0
  149.8345  138.8548  156.4186 C   0  0  1  0  0  0  0  0  0  0  0  0
  151.1843  138.1493  156.5285 C   0  0  0  0  0  0  0  0  0  0  0  0
  152.0257  138.7920  155.4263 C   0  0  0  0  0  0  0  0  0  0  0  0
  151.4289  140.0573  155.1685 O   0  0  0  0  0  0  0  0  0  0  0  0
  150.3483  140.2594  156.0681 C   0  0  0  0  0  0  0  0  0  0  0  0
  148.8573  138.6450  152.1460 H   0  0  0  0  0  0  0  0  0  0  0  0
  150.0891  137.3975  153.7551 H   0  0  0  0  0  0  0  0  0  0  0  0
  150.1116  139.1403  153.7931 H   0  0  0  0  0  0  0  0  0  0  0  0
  147.9645  138.8638  155.3472 H   0  0  0  0  0  0  0  0  0  0  0  0
  149.2410  136.1367  155.8779 H   0  0  0  0  0  0  0  0  0  0  0  0
  147.8744  136.7996  156.6874 H   0  0  0  0  0  0  0  0  0  0  0  0
  145.9215  137.6507  154.5830 H   0  0  0  0  0  0  0  0  0  0  0  0
  146.3170  133.7095  149.6814 H   0  0  0  0  0  0  0  0  0  0  0  0
  143.8976  133.9933  149.4065 H   0  0  0  0  0  0  0  0  0  0  0  0
  144.1510  132.3651  148.7680 H   0  0  0  0  0  0  0  0  0  0  0  0
  142.7456  133.1795  151.2265 H   0  0  0  0  0  0  0  0  0  0  0  0
  142.8975  131.5276  150.6249 H   0  0  0  0  0  0  0  0  0  0  0  0
  144.1939  132.1265  152.8949 H   0  0  0  0  0  0  0  0  0  0  0  0
  144.7295  130.2023  151.0639 H   0  0  0  0  0  0  0  0  0  0  0  0
  146.7476  131.1079  153.1675 H   0  0  0  0  0  0  0  0  0  0  0  0
  145.6442  129.7453  153.2156 H   0  0  0  0  0  0  0  0  0  0  0  0
  147.8160  130.0475  151.4394 H   0  0  0  0  0  0  0  0  0  0  0  0
  146.0827  131.0383  149.3377 H   0  0  0  0  0  0  0  0  0  0  0  0
  147.2902  131.5811  150.4984 H   0  0  0  0  0  0  0  0  0  0  0  0
  149.3344  132.3267  153.3783 H   0  0  0  0  0  0  0  0  0  0  0  0
  149.3408  138.8653  157.3907 H   0  0  0  0  0  0  0  0  0  0  0  0
  151.6287  138.3839  157.4971 H   0  0  0  0  0  0  0  0  0  0  0  0
  151.1612  137.0646  156.4525 H   0  0  0  0  0  0  0  0  0  0  0  0
  153.0690  138.9018  155.7234 H   0  0  0  0  0  0  0  0  0  0  0  0
  151.9934  138.1975  154.5128 H   0  0  0  0  0  0  0  0  0  0  0  0
  149.6072  140.9332  155.6446 H   0  0  0  0  0  0  0  0  0  0  0  0
  150.7383  140.7431  156.9652 H   0  0  0  0  0  0  0  0  0  0  0  0
  1  2  1  0  0  0  0
  1 28  1  0  0  0  0
  2  3  1  0  0  0  0
  2 29  1  0  0  0  0
  2 30  1  0  0  0  0
  3  4  1  0  0  0  0
  3 23  1  0  0  0  0
  3 31  1  0  0  0  0
  4  5  1  0  0  0  0
  4 32  1  0  0  0  0
  4 33  1  0  0  0  0
  5 22  1  0  0  0  0
  5  6  1  0  0  0  0
  6  7  2  0  0  0  0
  6 34  1  0  0  0  0
  7  8  1  0  0  0  0
  8 22  2  0  0  0  0
  8  9  1  0  0  0  0
  9 10  1  0  0  0  0
  9 19  2  0  0  0  0
 10 14  1  0  0  0  0
 10 11  1  0  0  0  0
 11 18  1  0  0  0  0
 11 12  1  0  0  0  0
 11 35  1  0  0  0  0
 12 13  1  0  0  0  0
 12 36  1  0  0  0  0
 12 37  1  0  0  0  0
 13 14  1  0  0  0  0
 13 38  1  0  0  0  0
 13 39  1  0  0  0  0
 14 15  1  0  0  0  0
 14 40  1  0  0  0  0
 15 16  1  0  0  0  0
 15 18  1  0  0  0  0
 15 41  1  0  0  0  0
 16 17  1  0  0  0  0
 16 42  1  0  0  0  0
 16 43  1  0  0  0  0
 17 44  1  0  0  0  0
 18 45  1  0  0  0  0
 18 46  1  0  0  0  0
 19 20  1  0  0  0  0
 20 21  2  0  0  0  0
 20 47  1  0  0  0  0
 21 22  1  0  0  0  0
 23 27  1  0  0  0  0
 23 24  1  0  0  0  0
 23 48  1  0  0  0  0
 24 25  1  0  0  0  0
 24 49  1  0  0  0  0
 24 50  1  0  0  0  0
 25 26  1  0  0  0  0
 25 51  1  0  0  0  0
 25 52  1  0  0  0  0
 26 27  1  0  0  0  0
 27 53  1  0  0  0  0
 27 54  1  0  0  0  0
M  END
> <s_m_source_file>
AV-unprocessed.smi

> <i_m_source_file_index>
227

> <i_lp_mmshare_version>
43012

> <i_f3d_flags>
0

> <s_epik_input>
W0NIMl0xT1tDSDJdW0NIMl1bQ0BIXTFbQ0BIXShbQ0gyXVtPSF0pW0NIMl1uKFtjSF1uMiljKGMyMyluW2NIXW5jM04oW0NASF00NSlbQ0BASF0oW0NIMl1bQ0gyXTQpW0NASF0oW0NIMl01KVtDSDJdW09IXQ==

> <s_epik_cmdline>
J2VwaWtfcHl0aG9uJywgJy1waCcsICc3LjAnLCAnLXRuJywgJzgnLCAnLW1hJywgJzIwMCcsICctbWV0YWxfYmluZGluZycsICctaW1hZScsICc8aW5maWxlLm1hZT4nLCAnLW9tYWUnLCAnPG91dGZpbGUubWFlPic=

> <r_lp_tautomer_probability>
1

> <r_epik_Ionization_Penalty>
0.0055791

> <r_epik_Ionization_Penalty_Charging>
0

> <r_epik_Ionization_Penalty_Neutral>
0.0055791

> <r_epik_State_Penalty>
0.00401299

> <r_epik_Charging_Adjusted_Penalty>
0.00401299

> <i_epik_Tot_Q>
0

> <i_epik_Tot_abs_Q>
0

> <r_epik_Metal_State_Penalty>
-0

> <b_epik_Metal_Only>
0

> <s_lp_Force_Field>
OPLS_2005

> <r_lp_Energy>
90.2099

> <b_lp_Chiralities_Consistent>
1

> <s_lp_Variant>
AV-unprocessed.smi:227-14

> <Gold.Version>
5.8.1

> <Gold.Id.Protein>
6NUR|6NUR_protein|mol2

> <Gold.PLP.Fitness>
41.7205

> <Gold.PLP.PLP>
-33.6029

> <Gold.PLP.part.hbond>
-3.9414

> <Gold.PLP.part.metal>
0.0000

> <Gold.PLP.part.buried>
1.6907

> <Gold.PLP.part.nonpolar>
-30.8284

> <Gold.PLP.part.repulsive>
1.3350

> <Gold.PLP.ligand.clash>
0.0000

> <Gold.PLP.ligand.torsion>
0.5336

> <Gold.PLP.Chemscore.Hbond>
3.0000

> <Gold.PLP.Chemscore.CHOScore>
0.0000

> <Gold.PLP.Chemscore.Metal>
0.0000

> <Gold.Chemscore.Hbonds>
donor molecule, donor type, donor heavy atom, donor atom, acceptor molecule, acceptor atom, score
      L1  H     1    28       P1  7957  0.99
      L1  H    17    44       P1 10747  1.00
      P1  H  7989  7998       L1    26  1.00

> <Gold.PLP.Chemscore.Internal.Correction>
0.1848

> <Gold.Rescore>
     Score         DG    S(hbond)    S(metal)    S(lipo)     H(rot)  DE(clash)    DE(int)     intcor
      9.38     -16.23       2.93        0.00      87.28       3.61       0.94       5.92       ----

> <Gold.Chemscore.Fitness>
9.3756

> <Gold.Chemscore.DG>
-16.2349

> <Gold.Chemscore.ZeroCoef>
-5.4800

> <Gold.Chemscore.Hbond>
2.9275

> <Gold.Chemscore.Metal>
0.0000

> <Gold.Chemscore.Lipo>
87.2759

> <Gold.Chemscore.Internal_Hbond>
0.0000

> <Gold.Chemscore.DEClash>
0.9366

> <Gold.Chemscore.DEInternal>
5.9227

> <Gold.Chemscore.Rot>
3.6071

> <Gold.Chemscore.Internal.Correction>
   9.000000E+99

> <Gold.Chemscore.Hbonds>
donor molecule, donor type, donor heavy atom, donor atom, acceptor molecule, acceptor atom, score
      L1  H     1    28       P1  7957  0.69
      L1  H    17    44       P1 10747  1.00
      P1  H  7989  7998       L1    26  0.95

> <Gold.Chemscore.Hbond.Weighted>
-9.7778

> <Gold.Chemscore.Metal.Weighted>
-0.0000

> <Gold.Chemscore.Lipo.Weighted>
-10.2113

> <Gold.Chemscore.Internal_Hbond.Weighted>
0.0000

> <Gold.Chemscore.DEClash.Weighted>
0.9366

> <Gold.Chemscore.DEInternal.Weighted>
5.9227

> <Gold.Chemscore.Rot.Weighted>
9.2342

> <Gold.Chemscore.Internal.Correction.Weighted>
   9.000000E+99

> <Gold.Protein.RotatedTorsions>
[ 6907 6896 6895 6894 ] final   18.38 input  -60.11 | X-H torsion
[ 7974 7965 7964 7962 ] final -169.35 input  175.53 | X-H torsion
[ 8008 7997 7996 7995 ] final  104.84 input   59.86 | X-H torsion
[ 10167 10162 10161 10158 ] final   35.35 input  -65.29 | X-H torsion
[ 10718 10713 10712 10709 ] final   11.69 input   66.30 | X-H torsion
[ 10763 10752 10751 10750 ] final   32.83 input  -60.55 | X-H torsion
[ 11005 11000 10999 10996 ] final -127.85 input  -57.11 | X-H torsion

> <Gold.Protein.ActiveResidues>
 VAL166  LYS551  ARG553  GLY616  TRP617  ASP618  TYR619  PRO620  LYS621  CYS622 
 ASP623  PHE694  ASN695  SER759  ASP760  ASP761  ALA762  ILE779  LEU786  VAL792 
 PHE793  MET794  SER795  GLU796  ALA797  LYS798  CYS799  TRP800  GLU811  SER814 

> <Gold.Protein.RotatedAtoms>
  151.8644  135.0512  160.0472 H   0  0  0  0  0  0  0  0  0  0  0  0  # atno 6907 bound_to 6896
  152.2638  133.5316  159.5406 H   0  0  0  0  0  0  0  0  0  0  0  0  # atno 6908 bound_to 6896
  150.7126  134.0709  159.3906 H   0  0  0  0  0  0  0  0  0  0  0  0  # atno 6909 bound_to 6896
  144.7187  140.2234  143.6313 H   0  0  0  0  0  0  0  0  0  0  0  0  # atno 7974 bound_to 7965
  156.1608  140.3141  155.8803 H   0  0  0  0  0  0  0  0  0  0  0  0  # atno 8008 bound_to 7997
  155.3787  140.0486  157.3061 H   0  0  0  0  0  0  0  0  0  0  0  0  # atno 8009 bound_to 7997
  154.5144  140.2176  155.9105 H   0  0  0  0  0  0  0  0  0  0  0  0  # atno 8010 bound_to 7997
  140.4230  144.1433  150.6150 H   0  0  0  0  0  0  0  0  0  0  0  0  # atno 10167 bound_to 10162
  156.9993  130.6073  149.5694 H   0  0  0  0  0  0  0  0  0  0  0  0  # atno 10718 bound_to 10713
  153.0242  135.6403  154.1416 H   0  0  0  0  0  0  0  0  0  0  0  0  # atno 10763 bound_to 10752
  154.1146  135.2850  155.3224 H   0  0  0  0  0  0  0  0  0  0  0  0  # atno 10764 bound_to 10752
  154.6307  135.5493  153.7739 H   0  0  0  0  0  0  0  0  0  0  0  0  # atno 10765 bound_to 10752
  140.9565  134.0994  157.4011 H   0  0  0  0  0  0  0  0  0  0  0  0  # atno 11005 bound_to 11000
  145.8479  139.2161  143.1789 LP  0  0  0  0  0  0  0  0  0  0  0  0  # atno 17320 bound_to 7965
  146.0287  140.8279  142.9887 LP  0  0  0  0  0  0  0  0  0  0  0  0  # atno 17321 bound_to 7965
  140.4513  143.2486  151.9344 LP  0  0  0  0  0  0  0  0  0  0  0  0  # atno 17342 bound_to 10162
  139.4783  144.5559  151.8314 LP  0  0  0  0  0  0  0  0  0  0  0  0  # atno 17343 bound_to 10162
  156.0177  130.5271  150.8184 LP  0  0  0  0  0  0  0  0  0  0  0  0  # atno 17370 bound_to 10713
  157.5402  131.0940  150.9838 LP  0  0  0  0  0  0  0  0  0  0  0  0  # atno 17371 bound_to 10713
  139.8864  135.0081  156.6495 LP  0  0  0  0  0  0  0  0  0  0  0  0  # atno 17394 bound_to 11000
  140.7528  133.8883  155.8360 LP  0  0  0  0  0  0  0  0  0  0  0  0  # atno 17395 bound_to 11000

$$$$
