AV-unprocessed.smi:219|AV-procd|sdf|1681|dock2
  -GOLD-   2262020113D 1   1.00000     0.00000
 Structure written by MMmdl.
 50 53  0  0  0  0  0  0  0  0  1 V2000
  150.0464  135.3492  154.0144 N   0  0  0  0  0  0  0  0  0  0  0  0
  150.9836  136.1488  154.5292 C   0  0  0  0  0  0  0  0  0  0  0  0
  151.7589  135.7697  155.4048 O   0  0  0  0  0  0  0  0  0  0  0  0
  151.0340  137.5910  154.0092 C   0  0  0  0  0  0  0  0  0  0  0  0
  150.7104  138.6885  155.0665 C   0  0  1  0  0  0  0  0  0  0  0  0
  151.7529  139.8243  154.9407 C   0  0  0  0  0  0  0  0  0  0  0  0
  151.4921  140.9648  155.9332 C   0  0  0  0  0  0  0  0  0  0  0  0
  150.0640  141.4890  155.7572 C   0  0  0  0  0  0  0  0  0  0  0  0
  149.0593  140.3411  155.9115 C   0  0  0  0  0  0  0  0  0  0  0  0
  149.3479  139.2504  154.9778 N   0  0  0  0  0  0  0  0  0  0  0  0
  148.3339  138.3570  154.9481 C   0  0  0  0  0  0  0  0  0  0  0  0
  148.1420  137.5100  155.9943 N   0  0  0  0  0  0  0  0  0  0  0  0
  147.1578  136.6073  155.9464 C   0  0  0  0  0  0  0  0  0  0  0  0
  146.2784  136.3816  154.9677 N   0  0  0  0  0  0  0  0  0  0  0  0
  146.4736  137.2316  153.9182 C   0  0  0  0  0  0  0  0  0  0  0  0
  147.4622  138.2502  153.8342 C   0  0  0  0  0  0  0  0  0  0  0  0
  147.3583  138.9225  152.6240 N   0  0  0  0  0  0  0  0  0  0  0  0
  146.3702  138.3232  152.0173 C   0  0  0  0  0  0  0  0  0  0  0  0
  145.7927  137.2852  152.7148 N   0  0  0  0  0  0  0  0  0  0  0  0
  144.6985  136.4373  152.2680 C   0  0  0  0  0  0  0  0  0  0  0  0
  145.0564  135.5734  151.0352 C   0  0  2  0  0  0  0  0  0  0  0  0
  145.2387  136.4240  149.9159 O   0  0  0  0  0  0  0  0  0  0  0  0
  143.9783  134.5549  150.6895 C   0  0  0  0  0  0  0  0  0  0  0  0
  144.7724  133.4424  150.0183 C   0  0  0  0  0  0  0  0  0  0  0  0
  145.9560  133.3812  150.7959 O   0  0  0  0  0  0  0  0  0  0  0  0
  146.3190  134.7000  151.1955 C   0  0  0  0  0  0  0  0  0  0  0  0
  149.9813  134.3908  154.3256 H   0  0  0  0  0  0  0  0  0  0  0  0
  149.4102  135.7020  153.3144 H   0  0  0  0  0  0  0  0  0  0  0  0
  152.0451  137.7366  153.6262 H   0  0  0  0  0  0  0  0  0  0  0  0
  150.3796  137.6958  153.1427 H   0  0  0  0  0  0  0  0  0  0  0  0
  150.8168  138.2567  156.0630 H   0  0  0  0  0  0  0  0  0  0  0  0
  152.7577  139.4323  155.1019 H   0  0  0  0  0  0  0  0  0  0  0  0
  151.7371  140.2230  153.9251 H   0  0  0  0  0  0  0  0  0  0  0  0
  151.6329  140.6067  156.9539 H   0  0  0  0  0  0  0  0  0  0  0  0
  152.2107  141.7703  155.7805 H   0  0  0  0  0  0  0  0  0  0  0  0
  149.8558  142.2702  156.4883 H   0  0  0  0  0  0  0  0  0  0  0  0
  149.9549  141.9442  154.7718 H   0  0  0  0  0  0  0  0  0  0  0  0
  149.0931  139.9650  156.9351 H   0  0  0  0  0  0  0  0  0  0  0  0
  148.0488  140.7169  155.7424 H   0  0  0  0  0  0  0  0  0  0  0  0
  147.0671  135.9692  156.8130 H   0  0  0  0  0  0  0  0  0  0  0  0
  146.0417  138.6155  151.0306 H   0  0  0  0  0  0  0  0  0  0  0  0
  144.4011  135.7980  153.1002 H   0  0  0  0  0  0  0  0  0  0  0  0
  143.8395  137.0726  152.0489 H   0  0  0  0  0  0  0  0  0  0  0  0
  144.8312  137.2557  150.1036 H   0  0  0  0  0  0  0  0  0  0  0  0
  143.5202  134.1644  151.5992 H   0  0  0  0  0  0  0  0  0  0  0  0
  143.1807  134.9540  150.0613 H   0  0  0  0  0  0  0  0  0  0  0  0
  144.2440  132.4889  150.0133 H   0  0  0  0  0  0  0  0  0  0  0  0
  145.0235  133.7047  148.9894 H   0  0  0  0  0  0  0  0  0  0  0  0
  147.1541  135.0625  150.5941 H   0  0  0  0  0  0  0  0  0  0  0  0
  146.6605  134.6509  152.2284 H   0  0  0  0  0  0  0  0  0  0  0  0
  1  2  1  0  0  0  0
  1 27  1  0  0  0  0
  1 28  1  0  0  0  0
  2  3  2  0  0  0  0
  2  4  1  0  0  0  0
  4  5  1  0  0  0  0
  4 29  1  0  0  0  0
  4 30  1  0  0  0  0
  5 10  1  0  0  0  0
  5  6  1  0  0  0  0
  5 31  1  0  0  0  0
  6  7  1  0  0  0  0
  6 32  1  0  0  0  0
  6 33  1  0  0  0  0
  7  8  1  0  0  0  0
  7 34  1  0  0  0  0
  7 35  1  0  0  0  0
  8  9  1  0  0  0  0
  8 36  1  0  0  0  0
  8 37  1  0  0  0  0
  9 10  1  0  0  0  0
  9 38  1  0  0  0  0
  9 39  1  0  0  0  0
 10 11  1  0  0  0  0
 11 16  1  0  0  0  0
 11 12  2  0  0  0  0
 12 13  1  0  0  0  0
 13 14  2  0  0  0  0
 13 40  1  0  0  0  0
 14 15  1  0  0  0  0
 15 19  1  0  0  0  0
 15 16  2  0  0  0  0
 16 17  1  0  0  0  0
 17 18  2  0  0  0  0
 18 19  1  0  0  0  0
 18 41  1  0  0  0  0
 19 20  1  0  0  0  0
 20 21  1  0  0  0  0
 20 42  1  0  0  0  0
 20 43  1  0  0  0  0
 21 26  1  0  0  0  0
 21 22  1  0  0  0  0
 21 23  1  0  0  0  0
 22 44  1  0  0  0  0
 23 24  1  0  0  0  0
 23 45  1  0  0  0  0
 23 46  1  0  0  0  0
 24 25  1  0  0  0  0
 24 47  1  0  0  0  0
 24 48  1  0  0  0  0
 25 26  1  0  0  0  0
 26 49  1  0  0  0  0
 26 50  1  0  0  0  0
M  END
> <s_m_source_file>
AV-unprocessed.smi

> <i_m_source_file_index>
219

> <i_lp_mmshare_version>
43012

> <i_f3d_flags>
0

> <s_epik_input>
W05IMl1DKD1PKVtDSDJdW0NAQEhdMVtDSDJdW0NIMl1bQ0gyXVtDSDJdTjFjKG5bY0hdbjIpYyhjMjMpbltjSF1uM1tDSDJdW0NAQF00KFtPSF0pW0NIMl1bQ0gyXU9bQ0gyXTQ=

> <s_epik_cmdline>
J2VwaWtfcHl0aG9uJywgJy1waCcsICc3LjAnLCAnLXRuJywgJzgnLCAnLW1hJywgJzIwMCcsICctbWV0YWxfYmluZGluZycsICctaW1hZScsICc8aW5maWxlLm1hZT4nLCAnLW9tYWUnLCAnPG91dGZpbGUubWFlPic=

> <r_lp_tautomer_probability>
1

> <r_epik_Ionization_Penalty>
0.00228532

> <r_epik_Ionization_Penalty_Charging>
0

> <r_epik_Ionization_Penalty_Neutral>
0.00228532

> <r_epik_State_Penalty>
0.00140978

> <r_epik_Charging_Adjusted_Penalty>
0.00140978

> <i_epik_Tot_Q>
0

> <i_epik_Tot_abs_Q>
0

> <r_epik_Metal_State_Penalty>
-0

> <b_epik_Metal_Only>
0

> <s_lp_Force_Field>
OPLS_2005

> <r_lp_Energy>
35.4504

> <b_lp_Chiralities_Consistent>
1

> <s_lp_Variant>
AV-unprocessed.smi:219-4

> <Gold.Version>
5.8.1

> <Gold.Id.Protein>
6NUR|6NUR_protein|mol2

> <Gold.PLP.Fitness>
45.2174

> <Gold.PLP.PLP>
-34.5826

> <Gold.PLP.part.hbond>
-4.0000

> <Gold.PLP.part.metal>
0.0000

> <Gold.PLP.part.buried>
-3.5071

> <Gold.PLP.part.nonpolar>
-30.2330

> <Gold.PLP.part.repulsive>
1.8848

> <Gold.PLP.ligand.clash>
0.0000

> <Gold.PLP.ligand.torsion>
0.8330

> <Gold.PLP.Chemscore.Hbond>
3.0000

> <Gold.PLP.Chemscore.CHOScore>
1.0000

> <Gold.PLP.Chemscore.Metal>
0.0000

> <Gold.Chemscore.Hbonds>
donor molecule, donor type, donor heavy atom, donor atom, acceptor molecule, acceptor atom, score
      L1  H     1    28       P1  7948  1.00
      L1  H    22    44       P1 10171  1.00
      P1  H 10752 10765       L1     3  0.81
      L1  C    18    41       P1 10171  1.00

> <Gold.PLP.Chemscore.Internal.Correction>
0.3008

> <Gold.Rescore>
     Score         DG    S(hbond)    S(metal)    S(lipo)     H(rot)  DE(clash)    DE(int)     intcor
     11.89     -13.65       2.58        0.00      70.05       3.37       0.89       0.87       ----

> <Gold.Chemscore.Fitness>
11.8935

> <Gold.Chemscore.DG>
-13.6537

> <Gold.Chemscore.ZeroCoef>
-5.4800

> <Gold.Chemscore.Hbond>
2.5762

> <Gold.Chemscore.Metal>
0.0000

> <Gold.Chemscore.Lipo>
70.0485

> <Gold.Chemscore.Internal_Hbond>
0.0000

> <Gold.Chemscore.DEClash>
0.8892

> <Gold.Chemscore.DEInternal>
0.8711

> <Gold.Chemscore.Rot>
3.3697

> <Gold.Chemscore.Internal.Correction>
   9.000000E+99

> <Gold.Chemscore.Hbonds>
donor molecule, donor type, donor heavy atom, donor atom, acceptor molecule, acceptor atom, score
      L1  H     1    28       P1  7948  0.24
      L1  H    22    44       P1 10171  0.98
      P1  H 10752 10765       L1     3  0.75

> <Gold.Chemscore.Hbond.Weighted>
-8.6044

> <Gold.Chemscore.Metal.Weighted>
-0.0000

> <Gold.Chemscore.Lipo.Weighted>
-8.1957

> <Gold.Chemscore.Internal_Hbond.Weighted>
0.0000

> <Gold.Chemscore.DEClash.Weighted>
0.8892

> <Gold.Chemscore.DEInternal.Weighted>
0.8711

> <Gold.Chemscore.Rot.Weighted>
8.6264

> <Gold.Chemscore.Internal.Correction.Weighted>
   9.000000E+99

> <Gold.Protein.RotatedTorsions>
[ 6907 6896 6895 6894 ] final  132.82 input  -60.11 | X-H torsion
[ 7974 7965 7964 7962 ] final  -68.51 input  175.53 | X-H torsion
[ 8008 7997 7996 7995 ] final  -37.09 input   59.86 | X-H torsion
[ 10167 10162 10161 10158 ] final   11.14 input  -65.29 | X-H torsion
[ 10718 10713 10712 10709 ] final -121.10 input   66.30 | X-H torsion
[ 10763 10752 10751 10750 ] final -149.75 input  -60.55 | X-H torsion
[ 11005 11000 10999 10996 ] final   64.25 input  -57.11 | X-H torsion

> <Gold.Protein.ActiveResidues>
 VAL166  LYS551  ARG553  GLY616  TRP617  ASP618  TYR619  PRO620  LYS621  CYS622 
 ASP623  PHE694  ASN695  SER759  ASP760  ASP761  ALA762  ILE779  LEU786  VAL792 
 PHE793  MET794  SER795  GLU796  ALA797  LYS798  CYS799  TRP800  GLU811  SER814 

> <Gold.Protein.RotatedAtoms>
  152.3284  133.5931  159.5792 H   0  0  0  0  0  0  0  0  0  0  0  0  # atno 6907 bound_to 6896
  150.7409  133.9905  159.3614 H   0  0  0  0  0  0  0  0  0  0  0  0  # atno 6908 bound_to 6896
  151.7782  135.0769  160.0421 H   0  0  0  0  0  0  0  0  0  0  0  0  # atno 6909 bound_to 6896
  145.7156  140.9060  143.0657 H   0  0  0  0  0  0  0  0  0  0  0  0  # atno 7974 bound_to 7965
  154.4060  140.1613  156.2480 H   0  0  0  0  0  0  0  0  0  0  0  0  # atno 8008 bound_to 7997
  155.9144  140.3425  155.6101 H   0  0  0  0  0  0  0  0  0  0  0  0  # atno 8009 bound_to 7997
  155.7297  140.0779  157.2285 H   0  0  0  0  0  0  0  0  0  0  0  0  # atno 8010 bound_to 7997
  140.6150  143.8327  150.7108 H   0  0  0  0  0  0  0  0  0  0  0  0  # atno 10167 bound_to 10162
  156.1310  130.6395  150.9622 H   0  0  0  0  0  0  0  0  0  0  0  0  # atno 10718 bound_to 10713
  154.8159  135.3301  154.7177 H   0  0  0  0  0  0  0  0  0  0  0  0  # atno 10763 bound_to 10752
  153.7817  135.6918  153.4891 H   0  0  0  0  0  0  0  0  0  0  0  0  # atno 10764 bound_to 10752
  153.1975  135.4528  155.0174 H   0  0  0  0  0  0  0  0  0  0  0  0  # atno 10765 bound_to 10752
  139.9971  134.6500  155.9992 H   0  0  0  0  0  0  0  0  0  0  0  0  # atno 11005 bound_to 11000
  144.6930  139.9133  143.7464 LP  0  0  0  0  0  0  0  0  0  0  0  0  # atno 17320 bound_to 7965
  146.0672  139.3663  143.0545 LP  0  0  0  0  0  0  0  0  0  0  0  0  # atno 17321 bound_to 7965
  140.1904  143.4041  152.1867 LP  0  0  0  0  0  0  0  0  0  0  0  0  # atno 17342 bound_to 10162
  139.5391  144.7239  151.4792 LP  0  0  0  0  0  0  0  0  0  0  0  0  # atno 17343 bound_to 10162
  157.6488  131.0900  150.8095 LP  0  0  0  0  0  0  0  0  0  0  0  0  # atno 17370 bound_to 10713
  156.8180  130.4974  149.5347 LP  0  0  0  0  0  0  0  0  0  0  0  0  # atno 17371 bound_to 10713
  141.1613  133.6539  156.4328 LP  0  0  0  0  0  0  0  0  0  0  0  0  # atno 17394 bound_to 11000
  140.4798  134.6675  157.5166 LP  0  0  0  0  0  0  0  0  0  0  0  0  # atno 17395 bound_to 11000

$$$$
