AV-unprocessed.smi:99|AV-procd|sdf|886|dock4
  -GOLD-   2262017363D 1   1.00000     0.00000
 Structure written by MMmdl.
 52 55  0  0  0  0  0  0  0  0  2 V2000
  148.8798  136.5276  158.0026 O   0  0  0  0  0  0  0  0  0  0  0  0
  149.2796  136.3662  159.1574 C   0  0  0  0  0  0  0  0  0  0  0  0
  150.4017  136.9300  159.6442 O   0  0  0  0  0  0  0  0  0  0  0  0
  150.9776  138.0450  158.9857 C   0  0  0  0  0  0  0  0  0  0  0  0
  152.4651  137.7563  158.7019 C   0  0  1  0  0  0  0  0  0  0  0  0
  152.6087  136.6289  157.8417 O   0  0  0  0  0  0  0  0  0  0  0  0
  152.5477  137.0058  156.4936 C   0  0  1  0  0  0  0  0  0  0  0  0
  151.1806  136.6417  155.9301 N   0  0  0  0  0  0  0  0  0  0  0  0
  150.3714  137.6007  155.3381 C   0  0  0  0  0  0  0  0  0  0  0  0
  149.1456  137.2996  154.8639 C   0  0  0  0  0  0  0  0  0  0  0  0
  148.6418  135.9373  154.9984 C   0  0  0  0  0  0  0  0  0  0  0  0
  147.5433  135.6579  154.5227 O   0  0  0  0  0  0  0  0  0  0  0  0
  149.4168  135.0311  155.6599 N   0  5  0  0  0  0  0  0  0  0  0  0
  150.6485  135.3408  156.1597 C   0  0  0  0  0  0  0  0  0  0  0  0
  151.3212  134.5448  156.8147 O   0  0  0  0  0  0  0  0  0  0  0  0
  152.8232  138.5296  156.4622 C   0  0  2  0  0  0  0  0  0  0  0  0
  153.9213  138.8501  155.6337 O   0  0  0  0  0  0  0  0  0  0  0  0
  153.1748  138.8554  157.9071 C   0  0  1  0  0  0  0  0  0  0  0  0
  152.7223  140.1622  158.2424 O   0  0  0  0  0  0  0  0  0  0  0  0
  153.0899  140.7435  159.4034 C   0  0  0  0  0  0  0  0  0  0  0  0
  153.7339  140.1678  160.2825 O   0  0  0  0  0  0  0  0  0  0  0  0
  152.6243  142.1557  159.5144 C   0  0  0  0  0  0  0  0  0  0  0  0
  152.5485  142.7630  160.7897 C   0  0  0  0  0  0  0  0  0  0  0  0
  152.1131  144.0956  160.9245 C   0  0  0  0  0  0  0  0  0  0  0  0
  151.7467  144.8368  159.7860 C   0  0  0  0  0  0  0  0  0  0  0  0
  151.8159  144.2434  158.5121 C   0  0  0  0  0  0  0  0  0  0  0  0
  152.2517  142.9112  158.3751 C   0  0  0  0  0  0  0  0  0  0  0  0
  148.5753  135.5192  160.1620 C   0  0  0  0  0  0  0  0  0  0  0  0
  148.3362  136.0345  161.4570 C   0  0  0  0  0  0  0  0  0  0  0  0
  147.6686  135.2598  162.4252 C   0  0  0  0  0  0  0  0  0  0  0  0
  147.2308  133.9604  162.1097 C   0  0  0  0  0  0  0  0  0  0  0  0
  147.4615  133.4367  160.8245 C   0  0  0  0  0  0  0  0  0  0  0  0
  148.1293  134.2098  159.8550 C   0  0  0  0  0  0  0  0  0  0  0  0
  150.4421  138.2738  158.0638 H   0  0  0  0  0  0  0  0  0  0  0  0
  150.8790  138.9135  159.6375 H   0  0  0  0  0  0  0  0  0  0  0  0
  152.9829  137.5733  159.6439 H   0  0  0  0  0  0  0  0  0  0  0  0
  153.2493  136.4093  155.9081 H   0  0  0  0  0  0  0  0  0  0  0  0
  150.7059  138.6223  155.2500 H   0  0  0  0  0  0  0  0  0  0  0  0
  148.5352  138.0631  154.4042 H   0  0  0  0  0  0  0  0  0  0  0  0
  151.9287  139.0736  156.1549 H   0  0  0  0  0  0  0  0  0  0  0  0
  153.7422  138.5121  154.7684 H   0  0  0  0  0  0  0  0  0  0  0  0
  154.2534  138.7592  158.0460 H   0  0  0  0  0  0  0  0  0  0  0  0
  152.8239  142.2136  161.6786 H   0  0  0  0  0  0  0  0  0  0  0  0
  152.0601  144.5493  161.9032 H   0  0  0  0  0  0  0  0  0  0  0  0
  151.4132  145.8587  159.8900 H   0  0  0  0  0  0  0  0  0  0  0  0
  151.5347  144.8108  157.6371 H   0  0  0  0  0  0  0  0  0  0  0  0
  152.2926  142.4870  157.3823 H   0  0  0  0  0  0  0  0  0  0  0  0
  148.6623  137.0301  161.7220 H   0  0  0  0  0  0  0  0  0  0  0  0
  147.4925  135.6635  163.4111 H   0  0  0  0  0  0  0  0  0  0  0  0
  146.7184  133.3666  162.8523 H   0  0  0  0  0  0  0  0  0  0  0  0
  147.1254  132.4396  160.5807 H   0  0  0  0  0  0  0  0  0  0  0  0
  148.2878  133.7781  158.8777 H   0  0  0  0  0  0  0  0  0  0  0  0
  1  2  2  0  0  0  0
  2  3  1  0  0  0  0
  2 28  1  0  0  0  0
  3  4  1  0  0  0  0
  4  5  1  0  0  0  0
  4 34  1  0  0  0  0
  4 35  1  0  0  0  0
  5 18  1  0  0  0  0
  5  6  1  0  0  0  0
  5 36  1  0  0  0  0
  6  7  1  0  0  0  0
  7  8  1  0  0  0  0
  7 16  1  0  0  0  0
  7 37  1  0  0  0  0
  8 14  1  0  0  0  0
  8  9  1  0  0  0  0
  9 10  2  0  0  0  0
  9 38  1  0  0  0  0
 10 11  1  0  0  0  0
 10 39  1  0  0  0  0
 11 12  2  0  0  0  0
 11 13  1  0  0  0  0
 13 14  1  0  0  0  0
 14 15  2  0  0  0  0
 16 17  1  0  0  0  0
 16 18  1  0  0  0  0
 16 40  1  0  0  0  0
 17 41  1  0  0  0  0
 18 19  1  0  0  0  0
 18 42  1  0  0  0  0
 19 20  1  0  0  0  0
 20 21  2  0  0  0  0
 20 22  1  0  0  0  0
 22 27  1  0  0  0  0
 22 23  2  0  0  0  0
 23 24  1  0  0  0  0
 23 43  1  0  0  0  0
 24 25  2  0  0  0  0
 24 44  1  0  0  0  0
 25 26  1  0  0  0  0
 25 45  1  0  0  0  0
 26 27  2  0  0  0  0
 26 46  1  0  0  0  0
 27 47  1  0  0  0  0
 28 33  1  0  0  0  0
 28 29  2  0  0  0  0
 29 30  1  0  0  0  0
 29 48  1  0  0  0  0
 30 31  2  0  0  0  0
 30 49  1  0  0  0  0
 31 32  1  0  0  0  0
 31 50  1  0  0  0  0
 32 33  2  0  0  0  0
 32 51  1  0  0  0  0
 33 52  1  0  0  0  0
M  CHG  1  13  -1
M  END
> <s_m_source_file>
AV-unprocessed.smi

> <i_m_source_file_index>
99

> <i_lp_mmshare_version>
43012

> <i_f3d_flags>
0

> <s_epik_input>
W2NIXTFbY0hdW2NIXVtjSF1bY0hdYzFDKD1PKU9bQ0gyXVtDQEBIXTJPW0NAQEhdKG4zW2NIXVtjSF1jKD1PKVtuSF1jMz1PKVtDQEBIXShbT0hdKVtDQEhdMk9DKD1PKWM0W2NIXVtjSF1bY0hdW2NIXVtjSF00

> <s_epik_cmdline>
J2VwaWtfcHl0aG9uJywgJy1waCcsICc3LjAnLCAnLXRuJywgJzgnLCAnLW1hJywgJzIwMCcsICctbWV0YWxfYmluZGluZycsICctaW1hZScsICc8aW5maWxlLm1hZT4nLCAnLW9tYWUnLCAnPG91dGZpbGUubWFlPic=

> <r_lp_tautomer_probability>
1

> <r_epik_Ionization_Penalty>
2.89159

> <r_epik_Ionization_Penalty_Charging>
2.1077e-08

> <r_epik_Ionization_Penalty_Neutral>
2.89159

> <r_epik_State_Penalty>
2.88671

> <r_epik_Charging_Adjusted_Penalty>
2.88671

> <i_epik_Tot_Q>
-1

> <i_epik_Tot_abs_Q>
1

> <r_epik_Metal_State_Penalty>
0.0727308

> <b_epik_Metal_Only>
1

> <s_epik_Chemistry_Notes>
This compound has an ester and may undergo hydrolysis at high or low pH. This compound contains an acetal/aminal-like group ( X-CH(R)-Y where X, Y are N, S, or O) that may be acid/base labile, releasing an aldehyde.

> <s_lp_Force_Field>
OPLS_2005

> <r_lp_Energy>
40.5539

> <b_lp_Chiralities_Consistent>
1

> <s_lp_Variant>
AV-unprocessed.smi:99-22

> <Gold.Version>
5.8.1

> <Gold.Id.Protein>
6NUR|6NUR_protein|mol2

> <Gold.PLP.Fitness>
58.2864

> <Gold.PLP.PLP>
-59.0947

> <Gold.PLP.part.hbond>
-3.8252

> <Gold.PLP.part.metal>
0.0000

> <Gold.PLP.part.buried>
-7.9022

> <Gold.PLP.part.nonpolar>
-47.8406

> <Gold.PLP.part.repulsive>
0.1172

> <Gold.PLP.ligand.clash>
0.0000

> <Gold.PLP.ligand.torsion>
1.9018

> <Gold.PLP.Chemscore.Hbond>
0.8885

> <Gold.PLP.Chemscore.CHOScore>
0.0000

> <Gold.PLP.Chemscore.Metal>
0.0000

> <Gold.Chemscore.Hbonds>
donor molecule, donor type, donor heavy atom, donor atom, acceptor molecule, acceptor atom, score
      P1  H  7997  8009       L1    17  0.52

> <Gold.PLP.Chemscore.Internal.Correction>
0.3298

> <Gold.Rescore>
     Score         DG    S(hbond)    S(metal)    S(lipo)     H(rot)  DE(clash)    DE(int)     intcor
     13.17     -16.54       0.71        0.00     142.87       3.13       0.63       2.75       ----

> <Gold.Chemscore.Fitness>
13.1671

> <Gold.Chemscore.DG>
-16.5408

> <Gold.Chemscore.ZeroCoef>
-5.4800

> <Gold.Chemscore.Hbond>
0.7095

> <Gold.Chemscore.Metal>
0.0000

> <Gold.Chemscore.Lipo>
142.8688

> <Gold.Chemscore.Internal_Hbond>
0.0000

> <Gold.Chemscore.DEClash>
0.6274

> <Gold.Chemscore.DEInternal>
2.7463

> <Gold.Chemscore.Rot>
3.1346

> <Gold.Chemscore.Internal.Correction>
   9.000000E+99

> <Gold.Chemscore.Hbonds>
donor molecule, donor type, donor heavy atom, donor atom, acceptor molecule, acceptor atom, score
      P1  H  7997  8009       L1    17  0.21

> <Gold.Chemscore.Hbond.Weighted>
-2.3697

> <Gold.Chemscore.Metal.Weighted>
-0.0000

> <Gold.Chemscore.Lipo.Weighted>
-16.7157

> <Gold.Chemscore.Internal_Hbond.Weighted>
0.0000

> <Gold.Chemscore.DEClash.Weighted>
0.6274

> <Gold.Chemscore.DEInternal.Weighted>
2.7463

> <Gold.Chemscore.Rot.Weighted>
8.0246

> <Gold.Chemscore.Internal.Correction.Weighted>
   9.000000E+99

> <Gold.Protein.RotatedTorsions>
[ 6907 6896 6895 6894 ] final  103.64 input  -60.11 | X-H torsion
[ 7974 7965 7964 7962 ] final  162.12 input  175.53 | X-H torsion
[ 8008 7997 7996 7995 ] final -154.88 input   59.86 | X-H torsion
[ 10167 10162 10161 10158 ] final   -0.77 input  -65.29 | X-H torsion
[ 10718 10713 10712 10709 ] final -128.88 input   66.30 | X-H torsion
[ 10763 10752 10751 10750 ] final -128.77 input  -60.55 | X-H torsion
[ 11005 11000 10999 10996 ] final  152.92 input  -57.11 | X-H torsion

> <Gold.Protein.ActiveResidues>
 VAL166  LYS551  ARG553  GLY616  TRP617  ASP618  TYR619  PRO620  LYS621  CYS622 
 ASP623  PHE694  ASN695  SER759  ASP760  ASP761  ALA762  ILE779  LEU786  VAL792 
 PHE793  MET794  SER795  GLU796  ALA797  LYS798  CYS799  TRP800  GLU811  SER814 

> <Gold.Protein.RotatedAtoms>
  152.5289  133.9796  159.7800 H   0  0  0  0  0  0  0  0  0  0  0  0  # atno 6907 bound_to 6896
  151.0052  133.6009  159.2697 H   0  0  0  0  0  0  0  0  0  0  0  0  # atno 6908 bound_to 6896
  151.3104  135.0799  159.9323 H   0  0  0  0  0  0  0  0  0  0  0  0  # atno 6909 bound_to 6896
  144.7652  139.7995  143.6318 H   0  0  0  0  0  0  0  0  0  0  0  0  # atno 7974 bound_to 7965
  155.6932  140.0758  157.2439 H   0  0  0  0  0  0  0  0  0  0  0  0  # atno 8008 bound_to 7997
  154.4085  140.1661  156.2162 H   0  0  0  0  0  0  0  0  0  0  0  0  # atno 8009 bound_to 7997
  155.9433  140.3383  155.6348 H   0  0  0  0  0  0  0  0  0  0  0  0  # atno 8010 bound_to 7997
  140.6782  143.6855  150.8070 H   0  0  0  0  0  0  0  0  0  0  0  0  # atno 10167 bound_to 10162
  156.1993  130.6847  151.0520 H   0  0  0  0  0  0  0  0  0  0  0  0  # atno 10718 bound_to 10713
  154.8757  135.3917  154.3811 H   0  0  0  0  0  0  0  0  0  0  0  0  # atno 10763 bound_to 10752
  153.4558  135.7028  153.6086 H   0  0  0  0  0  0  0  0  0  0  0  0  # atno 10764 bound_to 10752
  153.4606  135.3813  155.2304 H   0  0  0  0  0  0  0  0  0  0  0  0  # atno 10765 bound_to 10752
  140.1351  134.8776  157.2256 H   0  0  0  0  0  0  0  0  0  0  0  0  # atno 11005 bound_to 11000
  146.1752  139.4920  142.9902 LP  0  0  0  0  0  0  0  0  0  0  0  0  # atno 17320 bound_to 7965
  145.6493  141.0266  143.1769 LP  0  0  0  0  0  0  0  0  0  0  0  0  # atno 17321 bound_to 7965
  140.0551  143.5211  152.2655 LP  0  0  0  0  0  0  0  0  0  0  0  0  # atno 17342 bound_to 10162
  139.6087  144.7603  151.3002 LP  0  0  0  0  0  0  0  0  0  0  0  0  # atno 17343 bound_to 10162
  157.6976  131.0788  150.6920 LP  0  0  0  0  0  0  0  0  0  0  0  0  # atno 17370 bound_to 10713
  156.6978  130.4614  149.5581 LP  0  0  0  0  0  0  0  0  0  0  0  0  # atno 17371 bound_to 10713
  140.2793  134.3368  155.7348 LP  0  0  0  0  0  0  0  0  0  0  0  0  # atno 17394 bound_to 11000
  141.2177  133.7469  156.9340 LP  0  0  0  0  0  0  0  0  0  0  0  0  # atno 17395 bound_to 11000

$$$$
