AV-unprocessed.smi:1399|AV-procd|sdf|5684|dock2
  -GOLD-   22720 5313D 1   1.00000     0.00000
 Structure written by MMmdl.
 37 38  0  0  0  0  0  0  0  0  3 V2000
  149.7067  142.4993  155.3884 N   0  5  0  0  0  0  0  0  0  0  0  0
  149.4993  141.4175  154.6137 C   0  0  0  0  0  0  0  0  0  0  0  0
  150.2957  140.5234  154.3353 O   0  0  0  0  0  0  0  0  0  0  0  0
  148.0683  141.3523  154.0695 C   0  0  0  0  0  0  0  0  0  0  0  0
  147.8138  140.0241  153.4581 N   0  3  2  0  0  0  0  0  0  0  0  0
  146.8025  140.0872  152.3724 C   0  0  0  0  0  0  0  0  0  0  0  0
  146.6636  138.7302  151.6615 C   0  0  0  0  0  0  0  0  0  0  0  0
  146.3132  137.6142  152.6586 C   0  0  1  0  0  0  0  0  0  0  0  0
  146.2700  136.3266  151.9716 N   0  0  0  0  0  0  0  0  0  0  0  0
  145.1537  135.6331  151.7050 C   0  0  0  0  0  0  0  0  0  0  0  0
  144.0250  136.0183  152.0097 O   0  0  0  0  0  0  0  0  0  0  0  0
  145.4328  134.4790  151.0777 N   0  0  0  0  0  0  0  0  0  0  0  0
  144.5089  133.4970  150.6400 C   0  0  0  0  0  0  0  0  0  0  0  0
  144.3535  132.9163  149.3468 C   0  0  0  0  0  0  0  0  0  0  0  0
  143.3728  132.0246  149.3364 N   0  0  0  0  0  0  0  0  0  0  0  0
  142.9031  132.0295  150.6042 N   0  0  0  0  0  0  0  0  0  0  0  0
  143.5668  132.9094  151.4304 C   0  0  0  0  0  0  0  0  0  0  0  0
  147.3537  137.5935  153.7927 C   0  0  0  0  0  0  0  0  0  0  0  0
  147.4790  138.9740  154.4577 C   0  0  0  0  0  0  0  0  0  0  0  0
  142.1375  131.4338  150.8861 H   0  0  0  0  0  0  0  0  0  0  0  0
  149.0298  143.2708  155.3493 H   0  0  0  0  0  0  0  0  0  0  0  0
  147.3153  141.5755  154.8286 H   0  0  0  0  0  0  0  0  0  0  0  0
  147.9846  142.1335  153.3128 H   0  0  0  0  0  0  0  0  0  0  0  0
  145.8418  140.3970  152.7870 H   0  0  0  0  0  0  0  0  0  0  0  0
  147.0928  140.8437  151.6425 H   0  0  0  0  0  0  0  0  0  0  0  0
  145.8963  138.7967  150.8894 H   0  0  0  0  0  0  0  0  0  0  0  0
  147.5981  138.4933  151.1501 H   0  0  0  0  0  0  0  0  0  0  0  0
  145.3295  137.8300  153.0807 H   0  0  0  0  0  0  0  0  0  0  0  0
  147.1541  135.9329  151.6840 H   0  0  0  0  0  0  0  0  0  0  0  0
  146.4059  134.2782  150.8999 H   0  0  0  0  0  0  0  0  0  0  0  0
  144.9002  133.0988  148.4338 H   0  0  0  0  0  0  0  0  0  0  0  0
  143.3163  133.0360  152.4732 H   0  0  0  0  0  0  0  0  0  0  0  0
  147.0798  136.8508  154.5430 H   0  0  0  0  0  0  0  0  0  0  0  0
  148.3261  137.2919  153.4002 H   0  0  0  0  0  0  0  0  0  0  0  0
  148.2485  138.9270  155.2285 H   0  0  0  0  0  0  0  0  0  0  0  0
  146.5461  139.2333  154.9607 H   0  0  0  0  0  0  0  0  0  0  0  0
  148.6840  139.7517  153.0237 H   0  0  0  0  0  0  0  0  0  0  0  0
  1  2  1  0  0  0  0
  1 21  1  0  0  0  0
  2  3  2  0  0  0  0
  2  4  1  0  0  0  0
  4  5  1  0  0  0  0
  4 22  1  0  0  0  0
  4 23  1  0  0  0  0
  5 19  1  0  0  0  0
  5  6  1  0  0  0  0
  5 37  1  0  0  0  0
  6  7  1  0  0  0  0
  6 24  1  0  0  0  0
  6 25  1  0  0  0  0
  7  8  1  0  0  0  0
  7 26  1  0  0  0  0
  7 27  1  0  0  0  0
  8  9  1  0  0  0  0
  8 18  1  0  0  0  0
  8 28  1  0  0  0  0
  9 10  1  0  0  0  0
  9 29  1  0  0  0  0
 10 11  2  0  0  0  0
 10 12  1  0  0  0  0
 12 13  1  0  0  0  0
 12 30  1  0  0  0  0
 13 17  2  0  0  0  0
 13 14  1  0  0  0  0
 14 15  2  0  0  0  0
 14 31  1  0  0  0  0
 15 16  1  0  0  0  0
 16 20  1  0  0  0  0
 16 17  1  0  0  0  0
 17 32  1  0  0  0  0
 18 19  1  0  0  0  0
 18 33  1  0  0  0  0
 18 34  1  0  0  0  0
 19 35  1  0  0  0  0
 19 36  1  0  0  0  0
M  CHG  1   1  -1
M  CHG  1   5   1
M  END
> <s_m_source_file>
AV-unprocessed.smi

> <i_m_source_file_index>
1399

> <i_lp_mmshare_version>
43012

> <i_f3d_flags>
0

> <s_epik_input>
W05IMl1DKD1PKVtDSDJdTjFbQ0gyXVtDSDJdW0NIXShbQ0gyXVtDSDJdMSlbTkhdQyg9TylbTkhdYzJbY0hdbltuSF1bY0hdMg==

> <s_epik_cmdline>
J2VwaWtfcHl0aG9uJywgJy1waCcsICc3LjAnLCAnLXRuJywgJzgnLCAnLW1hJywgJzIwMCcsICctbWV0YWxfYmluZGluZycsICctaW1hZScsICc8aW5maWxlLm1hZT4nLCAnLW9tYWUnLCAnPG91dGZpbGUubWFlPic=

> <r_lp_tautomer_probability>
0.5

> <r_epik_Ionization_Penalty>
5.72885

> <r_epik_Ionization_Penalty_Charging>
5.7288

> <r_epik_Ionization_Penalty_Neutral>
4.21226e-05

> <r_epik_State_Penalty>
6.54882

> <r_epik_Charging_Adjusted_Penalty>
12.2776

> <i_epik_Tot_Q>
0

> <i_epik_Tot_abs_Q>
2

> <r_epik_Metal_State_Penalty>
2.51297

> <b_epik_Metal_Only>
1

> <s_lp_Force_Field>
OPLS_2005

> <r_lp_Energy>
11.0753

> <b_lp_Chiralities_Consistent>
1

> <s_lp_Variant>
AV-unprocessed.smi:1399-4

> <Gold.Version>
5.8.1

> <Gold.Id.Protein>
6NUR|6NUR_protein|mol2

> <Gold.PLP.Fitness>
47.1543

> <Gold.PLP.PLP>
-31.6234

> <Gold.PLP.part.hbond>
-6.5090

> <Gold.PLP.part.metal>
0.0000

> <Gold.PLP.part.buried>
0.9265

> <Gold.PLP.part.nonpolar>
-27.2424

> <Gold.PLP.part.repulsive>
0.8254

> <Gold.PLP.ligand.clash>
0.0000

> <Gold.PLP.ligand.torsion>
0.9866

> <Gold.PLP.Chemscore.Hbond>
4.6538

> <Gold.PLP.Chemscore.CHOScore>
1.1689

> <Gold.PLP.Chemscore.Metal>
0.0000

> <Gold.Chemscore.Hbonds>
donor molecule, donor type, donor heavy atom, donor atom, acceptor molecule, acceptor atom, score
      L1  H     1    21       P1  8028  0.76
      L1  H     5    37       P1  7957  0.60
      L1  H     9    29       P1  7948  0.83
      L1  H    16    20       P1 10952  0.23
      P1  H  7989  7998       L1     3  0.90
      P1  H 10785 10796       L1    15  1.00
      L1  C    14    31       P1  7921  1.00
      L1  C    17    32       P1 10957  0.58

> <Gold.PLP.Chemscore.Internal.Correction>
0.0360

> <Gold.Rescore>
     Score         DG    S(hbond)    S(metal)    S(lipo)     H(rot)  DE(clash)    DE(int)     intcor
     15.85     -18.61       3.22        0.00      65.37       2.06       1.93       0.84       ----

> <Gold.Chemscore.Fitness>
15.8490

> <Gold.Chemscore.DG>
-18.6148

> <Gold.Chemscore.ZeroCoef>
-5.4800

> <Gold.Chemscore.Hbond>
3.2204

> <Gold.Chemscore.Metal>
0.0000

> <Gold.Chemscore.Lipo>
65.3684

> <Gold.Chemscore.Internal_Hbond>
0.0000

> <Gold.Chemscore.DEClash>
1.9283

> <Gold.Chemscore.DEInternal>
0.8374

> <Gold.Chemscore.Rot>
2.0584

> <Gold.Chemscore.Internal.Correction>
   9.000000E+99

> <Gold.Chemscore.Hbonds>
donor molecule, donor type, donor heavy atom, donor atom, acceptor molecule, acceptor atom, score
      L1  H     1    21       P1  8028  0.73
      L1  H     5    37       P1  7957  0.59
      L1  H     9    29       P1  7948  0.83
      L1  H    16    20       P1 10952  0.02
      P1  H  7989  7998       L1     3  0.84
      P1  H 10785 10796       L1    15  0.47

> <Gold.Chemscore.Hbond.Weighted>
-10.7561

> <Gold.Chemscore.Metal.Weighted>
-0.0000

> <Gold.Chemscore.Lipo.Weighted>
-7.6481

> <Gold.Chemscore.Internal_Hbond.Weighted>
0.0000

> <Gold.Chemscore.DEClash.Weighted>
1.9283

> <Gold.Chemscore.DEInternal.Weighted>
0.8374

> <Gold.Chemscore.Rot.Weighted>
5.2695

> <Gold.Chemscore.Internal.Correction.Weighted>
   9.000000E+99

> <Gold.Protein.RotatedTorsions>
[ 6907 6896 6895 6894 ] final  -79.31 input  -60.11 | X-H torsion
[ 7974 7965 7964 7962 ] final  133.25 input  175.53 | X-H torsion
[ 8008 7997 7996 7995 ] final    1.93 input   59.86 | X-H torsion
[ 10167 10162 10161 10158 ] final   81.68 input  -65.29 | X-H torsion
[ 10718 10713 10712 10709 ] final  100.18 input   66.30 | X-H torsion
[ 10763 10752 10751 10750 ] final   11.27 input  -60.55 | X-H torsion
[ 11005 11000 10999 10996 ] final   98.15 input  -57.11 | X-H torsion

> <Gold.Protein.ActiveResidues>
 VAL166  LYS551  ARG553  GLY616  TRP617  ASP618  TYR619  PRO620  LYS621  CYS622 
 ASP623  PHE694  ASN695  SER759  ASP760  ASP761  ALA762  ILE779  LEU786  VAL792 
 PHE793  MET794  SER795  GLU796  ALA797  LYS798  CYS799  TRP800  GLU811  SER814 

> <Gold.Protein.RotatedAtoms>
  150.6953  134.4141  159.5174 H   0  0  0  0  0  0  0  0  0  0  0  0  # atno 6907 bound_to 6896
  152.1894  134.8682  160.0528 H   0  0  0  0  0  0  0  0  0  0  0  0  # atno 6908 bound_to 6896
  151.9643  133.3670  159.4084 H   0  0  0  0  0  0  0  0  0  0  0  0  # atno 6909 bound_to 6896
  144.9884  139.4432  143.5351 H   0  0  0  0  0  0  0  0  0  0  0  0  # atno 7974 bound_to 7965
  154.6856  140.2642  155.6864 H   0  0  0  0  0  0  0  0  0  0  0  0  # atno 8008 bound_to 7997
  156.2713  140.2801  156.1339 H   0  0  0  0  0  0  0  0  0  0  0  0  # atno 8009 bound_to 7997
  155.0969  140.0374  157.2675 H   0  0  0  0  0  0  0  0  0  0  0  0  # atno 8010 bound_to 7997
  139.9368  144.6116  150.8291 H   0  0  0  0  0  0  0  0  0  0  0  0  # atno 10167 bound_to 10162
  157.6860  131.0691  150.5062 H   0  0  0  0  0  0  0  0  0  0  0  0  # atno 10718 bound_to 10713
  153.1944  135.6847  153.8311 H   0  0  0  0  0  0  0  0  0  0  0  0  # atno 10763 bound_to 10752
  153.7599  135.3211  155.3336 H   0  0  0  0  0  0  0  0  0  0  0  0  # atno 10764 bound_to 10752
  154.8136  135.4701  154.0681 H   0  0  0  0  0  0  0  0  0  0  0  0  # atno 10765 bound_to 10752
  139.8773  134.9035  156.4413 H   0  0  0  0  0  0  0  0  0  0  0  0  # atno 11005 bound_to 11000
  146.3425  139.9200  142.8768 LP  0  0  0  0  0  0  0  0  0  0  0  0  # atno 17320 bound_to 7965
  145.2320  140.9977  143.3985 LP  0  0  0  0  0  0  0  0  0  0  0  0  # atno 17321 bound_to 7965
  140.7622  143.3193  151.2659 LP  0  0  0  0  0  0  0  0  0  0  0  0  # atno 17342 bound_to 10162
  139.6737  143.9975  152.2768 LP  0  0  0  0  0  0  0  0  0  0  0  0  # atno 17343 bound_to 10162
  156.5381  130.4201  149.6168 LP  0  0  0  0  0  0  0  0  0  0  0  0  # atno 17370 bound_to 10713
  156.3010  130.7176  151.2048 LP  0  0  0  0  0  0  0  0  0  0  0  0  # atno 17371 bound_to 10713
  140.8997  133.7788  155.9666 LP  0  0  0  0  0  0  0  0  0  0  0  0  # atno 17394 bound_to 11000
  140.8664  134.2779  157.5211 LP  0  0  0  0  0  0  0  0  0  0  0  0  # atno 17395 bound_to 11000

$$$$
