AV-unprocessed.smi:187|AV-procd|sdf|1468|dock3
  -GOLD-   2262019283D 1   1.00000     0.00000
 Structure written by MMmdl.
 53 56  0  0  0  0  0  0  0  0  1 V2000
  153.2415  143.3010  159.6552 C   0  0  0  0  0  0  0  0  0  0  0  0
  153.2427  141.8497  160.1772 C   0  0  2  0  0  0  0  0  0  0  0  0
  154.6298  141.5019  160.7546 C   0  0  0  0  0  0  0  0  0  0  0  0
  154.6835  140.0522  161.2562 C   0  0  0  0  0  0  0  0  0  0  0  0
  154.2866  139.0844  160.1256 C   0  0  1  0  0  0  0  0  0  0  0  0
  154.2893  137.6314  160.6170 C   0  0  0  0  0  0  0  0  0  0  0  0
  155.4139  137.1808  161.1786 N   0  0  0  0  0  0  0  0  0  0  0  0
  153.2920  136.9227  160.4927 O   0  0  0  0  0  0  0  0  0  0  0  0
  152.9006  139.4728  159.5752 C   0  0  0  0  0  0  0  0  0  0  0  0
  152.8700  140.8705  159.1458 N   0  0  0  0  0  0  0  0  0  0  0  0
  151.7383  141.1347  158.4557 C   0  0  0  0  0  0  0  0  0  0  0  0
  150.8833  142.0379  158.9948 N   0  0  0  0  0  0  0  0  0  0  0  0
  149.7447  142.3382  158.3629 C   0  0  0  0  0  0  0  0  0  0  0  0
  149.2839  141.8654  157.2026 N   0  0  0  0  0  0  0  0  0  0  0  0
  150.1500  140.9662  156.6525 C   0  0  0  0  0  0  0  0  0  0  0  0
  151.3891  140.5425  157.2094 C   0  0  0  0  0  0  0  0  0  0  0  0
  151.9906  139.6093  156.3741 N   0  0  0  0  0  0  0  0  0  0  0  0
  151.1503  139.4814  155.3838 C   0  0  0  0  0  0  0  0  0  0  0  0
  150.0318  140.2812  155.4556 N   0  0  0  0  0  0  0  0  0  0  0  0
  148.9387  140.3152  154.5290 C   0  0  0  0  0  0  0  0  0  0  0  0
  148.4155  141.6392  153.9667 C   0  0  0  0  0  0  0  0  0  0  0  0
  146.9895  141.0446  153.9141 C   0  0  0  0  0  0  0  0  0  0  0  0
  145.8613  141.9855  154.3681 C   0  0  0  0  0  0  0  0  0  0  0  0
  145.6591  143.0291  153.4370 O   0  0  0  0  0  0  0  0  0  0  0  0
  146.5965  140.3903  152.5741 C   0  0  0  0  0  0  0  0  0  0  0  0
  147.1599  139.1008  152.4439 O   0  0  0  0  0  0  0  0  0  0  0  0
  147.5022  140.0676  154.9945 C   0  0  0  0  0  0  0  0  0  0  0  0
  153.5759  143.9926  160.4287 H   0  0  0  0  0  0  0  0  0  0  0  0
  152.2463  143.6246  159.3498 H   0  0  0  0  0  0  0  0  0  0  0  0
  153.9076  143.4141  158.7992 H   0  0  0  0  0  0  0  0  0  0  0  0
  152.5189  141.7786  160.9898 H   0  0  0  0  0  0  0  0  0  0  0  0
  155.3941  141.6478  159.9897 H   0  0  0  0  0  0  0  0  0  0  0  0
  154.8771  142.1804  161.5716 H   0  0  0  0  0  0  0  0  0  0  0  0
  155.6869  139.8240  161.6178 H   0  0  0  0  0  0  0  0  0  0  0  0
  154.0104  139.9402  162.1079 H   0  0  0  0  0  0  0  0  0  0  0  0
  155.0148  139.1806  159.3179 H   0  0  0  0  0  0  0  0  0  0  0  0
  155.4633  136.2309  161.5173 H   0  0  0  0  0  0  0  0  0  0  0  0
  156.2121  137.7936  161.2625 H   0  0  0  0  0  0  0  0  0  0  0  0
  152.6458  138.8251  158.7344 H   0  0  0  0  0  0  0  0  0  0  0  0
  152.1354  139.3172  160.3378 H   0  0  0  0  0  0  0  0  0  0  0  0
  149.1132  143.0615  158.8572 H   0  0  0  0  0  0  0  0  0  0  0  0
  151.3308  138.8003  154.5651 H   0  0  0  0  0  0  0  0  0  0  0  0
  149.2070  139.6314  153.7218 H   0  0  0  0  0  0  0  0  0  0  0  0
  148.5074  142.4601  154.6807 H   0  0  0  0  0  0  0  0  0  0  0  0
  148.8403  141.9159  153.0014 H   0  0  0  0  0  0  0  0  0  0  0  0
  144.9208  141.4423  154.4654 H   0  0  0  0  0  0  0  0  0  0  0  0
  146.0666  142.4180  155.3476 H   0  0  0  0  0  0  0  0  0  0  0  0
  144.7532  143.0194  153.1674 H   0  0  0  0  0  0  0  0  0  0  0  0
  145.5146  140.2903  152.4856 H   0  0  0  0  0  0  0  0  0  0  0  0
  146.9123  140.9980  151.7256 H   0  0  0  0  0  0  0  0  0  0  0  0
  148.0598  139.1929  152.1708 H   0  0  0  0  0  0  0  0  0  0  0  0
  147.1611  139.0378  154.8812 H   0  0  0  0  0  0  0  0  0  0  0  0
  147.3269  140.4264  156.0107 H   0  0  0  0  0  0  0  0  0  0  0  0
  1  2  1  0  0  0  0
  1 28  1  0  0  0  0
  1 29  1  0  0  0  0
  1 30  1  0  0  0  0
  2 10  1  0  0  0  0
  2  3  1  0  0  0  0
  2 31  1  0  0  0  0
  3  4  1  0  0  0  0
  3 32  1  0  0  0  0
  3 33  1  0  0  0  0
  4  5  1  0  0  0  0
  4 34  1  0  0  0  0
  4 35  1  0  0  0  0
  5  6  1  0  0  0  0
  5  9  1  0  0  0  0
  5 36  1  0  0  0  0
  6  7  1  0  0  0  0
  6  8  2  0  0  0  0
  7 37  1  0  0  0  0
  7 38  1  0  0  0  0
  9 10  1  0  0  0  0
  9 39  1  0  0  0  0
  9 40  1  0  0  0  0
 10 11  1  0  0  0  0
 11 16  1  0  0  0  0
 11 12  2  0  0  0  0
 12 13  1  0  0  0  0
 13 14  2  0  0  0  0
 13 41  1  0  0  0  0
 14 15  1  0  0  0  0
 15 19  1  0  0  0  0
 15 16  2  0  0  0  0
 16 17  1  0  0  0  0
 17 18  2  0  0  0  0
 18 19  1  0  0  0  0
 18 42  1  0  0  0  0
 19 20  1  0  0  0  0
 20 27  1  0  0  0  0
 20 21  1  0  0  0  0
 20 43  1  0  0  0  0
 21 22  1  0  0  0  0
 21 44  1  0  0  0  0
 21 45  1  0  0  0  0
 22 23  1  0  0  0  0
 22 25  1  0  0  0  0
 22 27  1  0  0  0  0
 23 24  1  0  0  0  0
 23 46  1  0  0  0  0
 23 47  1  0  0  0  0
 24 48  1  0  0  0  0
 25 26  1  0  0  0  0
 25 49  1  0  0  0  0
 25 50  1  0  0  0  0
 26 51  1  0  0  0  0
 27 52  1  0  0  0  0
 27 53  1  0  0  0  0
M  END
> <s_m_source_file>
AV-unprocessed.smi

> <i_m_source_file_index>
187

> <i_lp_mmshare_version>
43012

> <i_f3d_flags>
0

> <s_epik_input>
W0NIM11bQ0BASF0xW0NIMl1bQ0gyXVtDQEBIXShDKD1PKVtOSDJdKVtDSDJdTjFjKG5bY0hdbjIpYyhjMjMpbltjSF1uM1tDSF0oW0NIMl00KVtDSDJdQzQoW0NIMl1bT0hdKVtDSDJdW09IXQ==

> <s_epik_cmdline>
J2VwaWtfcHl0aG9uJywgJy1waCcsICc3LjAnLCAnLXRuJywgJzgnLCAnLW1hJywgJzIwMCcsICctbWV0YWxfYmluZGluZycsICctaW1hZScsICc8aW5maWxlLm1hZT4nLCAnLW9tYWUnLCAnPG91dGZpbGUubWFlPic=

> <r_lp_tautomer_probability>
1

> <r_epik_Ionization_Penalty>
0.0017711

> <r_epik_Ionization_Penalty_Charging>
0

> <r_epik_Ionization_Penalty_Neutral>
0.0017711

> <r_epik_State_Penalty>
0.00107211

> <r_epik_Charging_Adjusted_Penalty>
0.00107211

> <i_epik_Tot_Q>
0

> <i_epik_Tot_abs_Q>
0

> <r_epik_Metal_State_Penalty>
-0

> <b_epik_Metal_Only>
0

> <s_lp_Force_Field>
OPLS_2005

> <r_lp_Energy>
40.3757

> <b_lp_Chiralities_Consistent>
1

> <s_lp_Variant>
AV-unprocessed.smi:187-1

> <Gold.Version>
5.8.1

> <Gold.Id.Protein>
6NUR|6NUR_protein|mol2

> <Gold.PLP.Fitness>
48.9819

> <Gold.PLP.PLP>
-42.8857

> <Gold.PLP.part.hbond>
-2.2514

> <Gold.PLP.part.metal>
0.0000

> <Gold.PLP.part.buried>
-0.3584

> <Gold.PLP.part.nonpolar>
-38.8852

> <Gold.PLP.part.repulsive>
0.1253

> <Gold.PLP.ligand.clash>
0.1064

> <Gold.PLP.ligand.torsion>
1.0315

> <Gold.PLP.Chemscore.Hbond>
2.5200

> <Gold.PLP.Chemscore.CHOScore>
0.0000

> <Gold.PLP.Chemscore.Metal>
0.0000

> <Gold.Chemscore.Hbonds>
donor molecule, donor type, donor heavy atom, donor atom, acceptor molecule, acceptor atom, score
      L1  H    24    48       P1 10174  0.01
      L1  H    26    51       P1  7957  1.00
      P1  H  6896  6909       L1     8  0.34
      P1  H  7997  8009       L1    17  0.08

> <Gold.PLP.Chemscore.Internal.Correction>
0.7056

> <Gold.Rescore>
     Score         DG    S(hbond)    S(metal)    S(lipo)     H(rot)  DE(clash)    DE(int)     intcor
      9.38     -13.15       2.12        0.00      92.30       3.99       0.38       3.38       ----

> <Gold.Chemscore.Fitness>
9.3793

> <Gold.Chemscore.DG>
-13.1466

> <Gold.Chemscore.ZeroCoef>
-5.4800

> <Gold.Chemscore.Hbond>
2.1205

> <Gold.Chemscore.Metal>
0.0000

> <Gold.Chemscore.Lipo>
92.2996

> <Gold.Chemscore.Internal_Hbond>
0.0000

> <Gold.Chemscore.DEClash>
0.3838

> <Gold.Chemscore.DEInternal>
3.3835

> <Gold.Chemscore.Rot>
3.9902

> <Gold.Chemscore.Internal.Correction>
   9.000000E+99

> <Gold.Chemscore.Hbonds>
donor molecule, donor type, donor heavy atom, donor atom, acceptor molecule, acceptor atom, score
      L1  H    26    51       P1  7957  0.93
      P1  H  6896  6909       L1     8  0.35
      P1  H  7997  8009       L1    17  0.06

> <Gold.Chemscore.Hbond.Weighted>
-7.0824

> <Gold.Chemscore.Metal.Weighted>
-0.0000

> <Gold.Chemscore.Lipo.Weighted>
-10.7991

> <Gold.Chemscore.Internal_Hbond.Weighted>
0.0000

> <Gold.Chemscore.DEClash.Weighted>
0.3838

> <Gold.Chemscore.DEInternal.Weighted>
3.3835

> <Gold.Chemscore.Rot.Weighted>
10.2148

> <Gold.Chemscore.Internal.Correction.Weighted>
   9.000000E+99

> <Gold.Protein.RotatedTorsions>
[ 6907 6896 6895 6894 ] final  157.78 input  -60.11 | X-H torsion
[ 7974 7965 7964 7962 ] final  -69.17 input  175.53 | X-H torsion
[ 8008 7997 7996 7995 ] final -162.83 input   59.86 | X-H torsion
[ 10167 10162 10161 10158 ] final -136.65 input  -65.29 | X-H torsion
[ 10718 10713 10712 10709 ] final   77.37 input   66.30 | X-H torsion
[ 10763 10752 10751 10750 ] final -127.67 input  -60.55 | X-H torsion
[ 11005 11000 10999 10996 ] final  -40.00 input  -57.11 | X-H torsion

> <Gold.Protein.ActiveResidues>
 VAL166  LYS551  ARG553  GLY616  TRP617  ASP618  TYR619  PRO620  LYS621  CYS622 
 ASP623  PHE694  ASN695  SER759  ASP760  ASP761  ALA762  ILE779  LEU786  VAL792 
 PHE793  MET794  SER795  GLU796  ALA797  LYS798  CYS799  TRP800  GLU811  SER814 

> <Gold.Protein.RotatedAtoms>
  152.0101  133.3858  159.4216 H   0  0  0  0  0  0  0  0  0  0  0  0  # atno 6907 bound_to 6896
  150.6900  134.3739  159.5013 H   0  0  0  0  0  0  0  0  0  0  0  0  # atno 6908 bound_to 6896
  152.1499  134.8996  160.0599 H   0  0  0  0  0  0  0  0  0  0  0  0  # atno 6909 bound_to 6896
  145.7071  140.9093  143.0700 H   0  0  0  0  0  0  0  0  0  0  0  0  # atno 7974 bound_to 7965
  155.8125  140.0908  157.1895 H   0  0  0  0  0  0  0  0  0  0  0  0  # atno 8008 bound_to 7997
  154.3979  140.1452  156.3464 H   0  0  0  0  0  0  0  0  0  0  0  0  # atno 8009 bound_to 7997
  155.8350  140.3441  155.5598 H   0  0  0  0  0  0  0  0  0  0  0  0  # atno 8010 bound_to 7997
  139.8656  143.7022  152.2645 H   0  0  0  0  0  0  0  0  0  0  0  0  # atno 10167 bound_to 10162
  157.6708  130.9818  150.1632 H   0  0  0  0  0  0  0  0  0  0  0  0  # atno 10718 bound_to 10713
  154.8753  135.3954  154.3632 H   0  0  0  0  0  0  0  0  0  0  0  0  # atno 10763 bound_to 10752
  153.4402  135.7026  153.6179 H   0  0  0  0  0  0  0  0  0  0  0  0  # atno 10764 bound_to 10752
  153.4763  135.3779  155.2387 H   0  0  0  0  0  0  0  0  0  0  0  0  # atno 10765 bound_to 10752
  141.0143  133.6893  156.2263 H   0  0  0  0  0  0  0  0  0  0  0  0  # atno 11005 bound_to 11000
  144.6952  139.9025  143.7459 LP  0  0  0  0  0  0  0  0  0  0  0  0  # atno 17320 bound_to 7965
  146.0746  139.3734  143.0502 LP  0  0  0  0  0  0  0  0  0  0  0  0  # atno 17321 bound_to 7965
  139.7332  144.7577  151.0769 LP  0  0  0  0  0  0  0  0  0  0  0  0  # atno 17342 bound_to 10162
  140.7768  143.5062  150.9709 LP  0  0  0  0  0  0  0  0  0  0  0  0  # atno 17343 bound_to 10162
  156.2404  130.3690  149.8344 LP  0  0  0  0  0  0  0  0  0  0  0  0  # atno 17370 bound_to 10713
  156.6146  130.8601  151.3462 LP  0  0  0  0  0  0  0  0  0  0  0  0  # atno 17371 bound_to 10713
  140.6681  134.4897  157.5586 LP  0  0  0  0  0  0  0  0  0  0  0  0  # atno 17394 bound_to 11000
  139.9108  134.8349  156.1536 LP  0  0  0  0  0  0  0  0  0  0  0  0  # atno 17395 bound_to 11000

$$$$
