AV-unprocessed.smi:1762|AV-procd|sdf|7101|dock3
  -GOLD-   22720 8323D 1   1.00000     0.00000
 Structure written by MMmdl.
 52 53  0  0  0  0  0  0  0  0  1 V2000
  151.8830  137.9906  154.4291 C   0  0  0  0  0  0  0  0  0  0  0  0
  150.8268  138.9152  155.0448 C   0  0  2  0  0  0  0  0  0  0  0  0
  149.4510  138.7556  154.3725 C   0  0  0  0  0  0  0  0  0  0  0  0
  148.4510  139.7005  154.8968 N   0  0  0  0  0  0  0  0  0  0  0  0
  147.0875  139.5442  154.3166 C   0  0  1  0  0  0  0  0  0  0  0  0
  146.6009  138.0761  154.2744 C   0  0  0  0  0  0  0  0  0  0  0  0
  146.3995  137.4553  155.3190 O   0  0  0  0  0  0  0  0  0  0  0  0
  146.4284  137.5344  153.0582 N   0  0  0  0  0  0  0  0  0  0  0  0
  145.9638  136.1761  152.8047 C   0  0  0  0  0  0  0  0  0  0  0  0
  145.7346  135.9289  151.3041 C   0  0  0  0  0  0  0  0  0  0  0  0
  145.3894  134.4819  151.0074 C   0  0  0  0  0  0  0  0  0  0  0  0
  144.1006  133.9785  151.2840 C   0  0  0  0  0  0  0  0  0  0  0  0
  143.8330  132.6256  150.9986 C   0  0  0  0  0  0  0  0  0  0  0  0
  144.8596  131.8321  150.4514 C   0  0  0  0  0  0  0  0  0  0  0  0
  146.1137  132.4292  150.2140 C   0  0  0  0  0  0  0  0  0  0  0  0
  146.3810  133.7251  150.4853 N   0  0  0  0  0  0  0  0  0  0  0  0
  145.9922  140.4669  154.9510 C   0  0  0  0  0  0  0  0  0  0  0  0
  146.1228  141.9499  154.5515 C   0  0  0  0  0  0  0  0  0  0  0  0
  145.8822  140.3340  156.4841 C   0  0  0  0  0  0  0  0  0  0  0  0
  148.9814  141.0623  154.7530 C   0  0  0  0  0  0  0  0  0  0  0  0
  150.3757  141.2485  155.3846 C   0  0  1  0  0  0  0  0  0  0  0  0
  150.3466  141.2961  156.9227 C   0  0  0  0  0  0  0  0  0  0  0  0
  151.2782  140.2573  154.8989 O   0  0  0  0  0  0  0  0  0  0  0  0
  151.5936  136.9441  154.5275 H   0  0  0  0  0  0  0  0  0  0  0  0
  152.8464  138.1161  154.9239 H   0  0  0  0  0  0  0  0  0  0  0  0
  152.0233  138.2013  153.3686 H   0  0  0  0  0  0  0  0  0  0  0  0
  150.7422  138.6736  156.1046 H   0  0  0  0  0  0  0  0  0  0  0  0
  149.5500  138.8868  153.2935 H   0  0  0  0  0  0  0  0  0  0  0  0
  149.1480  137.7218  154.5326 H   0  0  0  0  0  0  0  0  0  0  0  0
  147.1605  139.8534  153.2716 H   0  0  0  0  0  0  0  0  0  0  0  0
  146.6218  138.1092  152.2509 H   0  0  0  0  0  0  0  0  0  0  0  0
  146.7169  135.4858  153.1855 H   0  0  0  0  0  0  0  0  0  0  0  0
  145.0501  135.9822  153.3692 H   0  0  0  0  0  0  0  0  0  0  0  0
  144.9317  136.5676  150.9333 H   0  0  0  0  0  0  0  0  0  0  0  0
  146.6271  136.2038  150.7399 H   0  0  0  0  0  0  0  0  0  0  0  0
  143.3351  134.6124  151.7073 H   0  0  0  0  0  0  0  0  0  0  0  0
  142.8588  132.2040  151.1974 H   0  0  0  0  0  0  0  0  0  0  0  0
  144.6905  130.7910  150.2194 H   0  0  0  0  0  0  0  0  0  0  0  0
  146.9240  131.8501  149.7966 H   0  0  0  0  0  0  0  0  0  0  0  0
  145.0229  140.1262  154.5909 H   0  0  0  0  0  0  0  0  0  0  0  0
  147.0351  142.3986  154.9439 H   0  0  0  0  0  0  0  0  0  0  0  0
  145.2844  142.5306  154.9369 H   0  0  0  0  0  0  0  0  0  0  0  0
  146.1299  142.0748  153.4686 H   0  0  0  0  0  0  0  0  0  0  0  0
  146.7469  140.7570  156.9965 H   0  0  0  0  0  0  0  0  0  0  0  0
  145.7919  139.2898  156.7840 H   0  0  0  0  0  0  0  0  0  0  0  0
  145.0012  140.8572  156.8567 H   0  0  0  0  0  0  0  0  0  0  0  0
  149.0363  141.3213  153.6941 H   0  0  0  0  0  0  0  0  0  0  0  0
  148.3211  141.7938  155.2139 H   0  0  0  0  0  0  0  0  0  0  0  0
  150.7697  142.2074  155.0472 H   0  0  0  0  0  0  0  0  0  0  0  0
  149.7529  142.1409  157.2725 H   0  0  0  0  0  0  0  0  0  0  0  0
  151.3521  141.4096  157.3278 H   0  0  0  0  0  0  0  0  0  0  0  0
  149.9110  140.3947  157.3534 H   0  0  0  0  0  0  0  0  0  0  0  0
  1  2  1  0  0  0  0
  1 24  1  0  0  0  0
  1 25  1  0  0  0  0
  1 26  1  0  0  0  0
  2 23  1  0  0  0  0
  2  3  1  0  0  0  0
  2 27  1  0  0  0  0
  3  4  1  0  0  0  0
  3 28  1  0  0  0  0
  3 29  1  0  0  0  0
  4  5  1  0  0  0  0
  4 20  1  0  0  0  0
  5  6  1  0  0  0  0
  5 17  1  0  0  0  0
  5 30  1  0  0  0  0
  6  7  2  0  0  0  0
  6  8  1  0  0  0  0
  8  9  1  0  0  0  0
  8 31  1  0  0  0  0
  9 10  1  0  0  0  0
  9 32  1  0  0  0  0
  9 33  1  0  0  0  0
 10 11  1  0  0  0  0
 10 34  1  0  0  0  0
 10 35  1  0  0  0  0
 11 16  1  0  0  0  0
 11 12  2  0  0  0  0
 12 13  1  0  0  0  0
 12 36  1  0  0  0  0
 13 14  2  0  0  0  0
 13 37  1  0  0  0  0
 14 15  1  0  0  0  0
 14 38  1  0  0  0  0
 15 16  2  0  0  0  0
 15 39  1  0  0  0  0
 17 18  1  0  0  0  0
 17 19  1  0  0  0  0
 17 40  1  0  0  0  0
 18 41  1  0  0  0  0
 18 42  1  0  0  0  0
 18 43  1  0  0  0  0
 19 44  1  0  0  0  0
 19 45  1  0  0  0  0
 19 46  1  0  0  0  0
 20 21  1  0  0  0  0
 20 47  1  0  0  0  0
 20 48  1  0  0  0  0
 21 22  1  0  0  0  0
 21 23  1  0  0  0  0
 21 49  1  0  0  0  0
 22 50  1  0  0  0  0
 22 51  1  0  0  0  0
 22 52  1  0  0  0  0
M  END
> <s_m_source_file>
AV-unprocessed.smi

> <i_m_source_file_index>
1762

> <i_lp_mmshare_version>
43012

> <i_f3d_flags>
0

> <s_epik_input>
W0NIM11bQ0BASF0xW0NIMl1OKFtDSDJdW0NASF0oTzEpW0NIM10pW0NAQEhdKFtDSF0oW0NIM10pW0NIM10pQyg9TylbTkhdW0NIMl1bQ0gyXWMyW2NIXVtjSF1bY0hdW2NIXW4y

> <s_epik_cmdline>
J2VwaWtfcHl0aG9uJywgJy1waCcsICc3LjAnLCAnLXRuJywgJzgnLCAnLW1hJywgJzIwMCcsICctbWV0YWxfYmluZGluZycsICctaW1hZScsICc8aW5maWxlLm1hZT4nLCAnLW9tYWUnLCAnPG91dGZpbGUubWFlPic=

> <r_epik_Ionization_Penalty>
0.0399736

> <r_epik_Ionization_Penalty_Charging>
0

> <r_epik_Ionization_Penalty_Neutral>
0.0399736

> <r_epik_State_Penalty>
0.0317634

> <r_epik_Charging_Adjusted_Penalty>
0.0317634

> <i_epik_Tot_Q>
0

> <i_epik_Tot_abs_Q>
0

> <r_epik_Metal_State_Penalty>
0.0307795

> <b_epik_Metal_Only>
0

> <s_lp_Force_Field>
OPLS_2005

> <r_lp_Energy>
29.8059

> <b_lp_Chiralities_Consistent>
1

> <s_lp_Variant>
AV-unprocessed.smi:1762-3

> <Gold.Version>
5.8.1

> <Gold.Id.Protein>
6NUR|6NUR_protein|mol2

> <Gold.PLP.Fitness>
43.9669

> <Gold.PLP.PLP>
-38.7217

> <Gold.PLP.part.hbond>
-1.5044

> <Gold.PLP.part.metal>
0.0000

> <Gold.PLP.part.buried>
-5.7282

> <Gold.PLP.part.nonpolar>
-32.1474

> <Gold.PLP.part.repulsive>
0.9395

> <Gold.PLP.ligand.clash>
0.0001

> <Gold.PLP.ligand.torsion>
0.5836

> <Gold.PLP.Chemscore.Hbond>
1.0000

> <Gold.PLP.Chemscore.CHOScore>
0.9979

> <Gold.PLP.Chemscore.Metal>
0.0000

> <Gold.Chemscore.Hbonds>
donor molecule, donor type, donor heavy atom, donor atom, acceptor molecule, acceptor atom, score
      P1  H  7989  7998       L1    23  1.00
      L1  C    15    39       P1 10747  1.00

> <Gold.PLP.Chemscore.Internal.Correction>
0.4189

> <Gold.Rescore>
     Score         DG    S(hbond)    S(metal)    S(lipo)     H(rot)  DE(clash)    DE(int)     intcor
     14.97     -15.99       0.86        0.00     100.20       1.60       0.08       0.93       ----

> <Gold.Chemscore.Fitness>
14.9718

> <Gold.Chemscore.DG>
-15.9910

> <Gold.Chemscore.ZeroCoef>
-5.4800

> <Gold.Chemscore.Hbond>
0.8627

> <Gold.Chemscore.Metal>
0.0000

> <Gold.Chemscore.Lipo>
100.2023

> <Gold.Chemscore.Internal_Hbond>
0.0000

> <Gold.Chemscore.DEClash>
0.0850

> <Gold.Chemscore.DEInternal>
0.9342

> <Gold.Chemscore.Rot>
1.5993

> <Gold.Chemscore.Internal.Correction>
   9.000000E+99

> <Gold.Chemscore.Hbonds>
donor molecule, donor type, donor heavy atom, donor atom, acceptor molecule, acceptor atom, score
      P1  H  7989  7998       L1    23  0.24

> <Gold.Chemscore.Hbond.Weighted>
-2.8814

> <Gold.Chemscore.Metal.Weighted>
-0.0000

> <Gold.Chemscore.Lipo.Weighted>
-11.7237

> <Gold.Chemscore.Internal_Hbond.Weighted>
0.0000

> <Gold.Chemscore.DEClash.Weighted>
0.0850

> <Gold.Chemscore.DEInternal.Weighted>
0.9342

> <Gold.Chemscore.Rot.Weighted>
4.0941

> <Gold.Chemscore.Internal.Correction.Weighted>
   9.000000E+99

> <Gold.Protein.RotatedTorsions>
[ 6907 6896 6895 6894 ] final  122.46 input  -60.11 | X-H torsion
[ 7974 7965 7964 7962 ] final   21.36 input  175.53 | X-H torsion
[ 8008 7997 7996 7995 ] final -108.74 input   59.86 | X-H torsion
[ 10167 10162 10161 10158 ] final -146.60 input  -65.29 | X-H torsion
[ 10718 10713 10712 10709 ] final  -54.32 input   66.30 | X-H torsion
[ 10763 10752 10751 10750 ] final   49.23 input  -60.55 | X-H torsion
[ 11005 11000 10999 10996 ] final -142.18 input  -57.11 | X-H torsion

> <Gold.Protein.ActiveResidues>
 VAL166  LYS551  ARG553  GLY616  TRP617  ASP618  TYR619  PRO620  LYS621  CYS622 
 ASP623  PHE694  ASN695  SER759  ASP760  ASP761  ALA762  ILE779  LEU786  VAL792 
 PHE793  MET794  SER795  GLU796  ALA797  LYS798  CYS799  TRP800  GLU811  SER814 

> <Gold.Protein.RotatedAtoms>
  152.4241  133.7166  159.6508 H   0  0  0  0  0  0  0  0  0  0  0  0  # atno 6907 bound_to 6896
  150.8117  133.8398  159.3185 H   0  0  0  0  0  0  0  0  0  0  0  0  # atno 6908 bound_to 6896
  151.6106  135.1042  160.0132 H   0  0  0  0  0  0  0  0  0  0  0  0  # atno 6909 bound_to 6896
  146.2074  139.8039  142.8715 H   0  0  0  0  0  0  0  0  0  0  0  0  # atno 7974 bound_to 7965
  154.9488  140.0401  157.2134 H   0  0  0  0  0  0  0  0  0  0  0  0  # atno 8008 bound_to 7997
  154.7998  140.2850  155.5908 H   0  0  0  0  0  0  0  0  0  0  0  0  # atno 8009 bound_to 7997
  156.2960  140.2557  156.2864 H   0  0  0  0  0  0  0  0  0  0  0  0  # atno 8010 bound_to 7997
  139.7699  143.8253  152.2622 H   0  0  0  0  0  0  0  0  0  0  0  0  # atno 10167 bound_to 10162
  156.1461  130.4153  150.0022 H   0  0  0  0  0  0  0  0  0  0  0  0  # atno 10718 bound_to 10713
  152.9788  135.5918  154.4054 H   0  0  0  0  0  0  0  0  0  0  0  0  # atno 10763 bound_to 10752
  154.3695  135.2767  155.2276 H   0  0  0  0  0  0  0  0  0  0  0  0  # atno 10764 bound_to 10752
  154.4237  135.6053  153.6080 H   0  0  0  0  0  0  0  0  0  0  0  0  # atno 10765 bound_to 10752
  140.8251  134.2584  157.4883 H   0  0  0  0  0  0  0  0  0  0  0  0  # atno 11005 bound_to 11000
  145.3267  141.0257  143.3469 LP  0  0  0  0  0  0  0  0  0  0  0  0  # atno 17320 bound_to 7965
  144.8827  139.4881  143.6715 LP  0  0  0  0  0  0  0  0  0  0  0  0  # atno 17321 bound_to 7965
  139.8284  144.7264  150.9481 LP  0  0  0  0  0  0  0  0  0  0  0  0  # atno 17342 bound_to 10162
  140.7813  143.4092  151.1020 LP  0  0  0  0  0  0  0  0  0  0  0  0  # atno 17343 bound_to 10162
  156.7893  130.9250  151.3646 LP  0  0  0  0  0  0  0  0  0  0  0  0  # atno 17370 bound_to 10713
  157.6618  130.8972  149.9845 LP  0  0  0  0  0  0  0  0  0  0  0  0  # atno 17371 bound_to 10713
  139.8707  134.9556  156.4212 LP  0  0  0  0  0  0  0  0  0  0  0  0  # atno 17394 bound_to 11000
  140.9058  133.7747  155.9733 LP  0  0  0  0  0  0  0  0  0  0  0  0  # atno 17395 bound_to 11000

$$$$
