AV-unprocessed.smi:72|AV-procd|sdf|738|dock2
  -GOLD-   2262017 73D 1   1.00000     0.00000
 Structure written by MMmdl.
 28 29  0  0  0  0  0  0  0  0  2 V2000
  153.2407  137.3421  155.4005 N   0  0  0  0  0  0  0  0  0  0  0  0
  152.4355  138.2989  155.2399 C   0  0  0  0  0  0  0  0  0  0  0  0
  151.4669  138.2575  154.1675 N   0  0  0  0  0  0  0  0  0  0  0  0
  150.6160  139.2336  154.0842 C   0  0  0  0  0  0  0  0  0  0  0  0
  150.5874  140.3233  155.0561 N   0  0  0  0  0  0  0  0  0  0  0  0
  149.6018  141.4807  154.9321 C   0  0  1  0  0  0  0  0  0  0  0  0
  148.9586  141.4243  153.6862 O   0  0  0  0  0  0  0  0  0  0  0  0
  147.6112  140.9691  153.8035 C   0  0  1  0  0  0  0  0  0  0  0  0
  147.5371  139.4272  153.7131 C   0  0  0  0  0  0  0  0  0  0  0  0
  147.4385  139.0285  152.3623 O   0  0  0  0  0  0  0  0  0  0  0  0
  147.2125  141.5609  155.1589 C   0  0  1  0  0  0  0  0  0  0  0  0
  146.1157  140.8989  155.7582 O   0  0  0  0  0  0  0  0  0  0  0  0
  148.4781  141.4294  155.9959 C   0  0  2  0  0  0  0  0  0  0  0  0
  148.5530  142.5171  156.8959 O   0  0  0  0  0  0  0  0  0  0  0  0
  151.6299  140.3923  156.0229 C   0  0  0  0  0  0  0  0  0  0  0  0
  151.6953  141.3885  156.7426 O   0  0  0  0  0  0  0  0  0  0  0  0
  152.5211  139.3656  156.1055 N   0  5  0  0  0  0  0  0  0  0  0  0
  150.2260  142.3745  154.9826 H   0  0  0  0  0  0  0  0  0  0  0  0
  146.9994  141.4066  153.0133 H   0  0  0  0  0  0  0  0  0  0  0  0
  146.9611  142.6136  155.0167 H   0  0  0  0  0  0  0  0  0  0  0  0
  148.4972  140.4743  156.5237 H   0  0  0  0  0  0  0  0  0  0  0  0
  153.8707  137.4879  156.1756 H   0  0  0  0  0  0  0  0  0  0  0  0
  149.8765  139.2908  153.2857 H   0  0  0  0  0  0  0  0  0  0  0  0
  148.3799  138.9381  154.1986 H   0  0  0  0  0  0  0  0  0  0  0  0
  146.6383  139.0574  154.2059 H   0  0  0  0  0  0  0  0  0  0  0  0
  148.2648  139.2018  151.9379 H   0  0  0  0  0  0  0  0  0  0  0  0
  146.4049  140.0444  156.0395 H   0  0  0  0  0  0  0  0  0  0  0  0
  148.8373  143.2788  156.4123 H   0  0  0  0  0  0  0  0  0  0  0  0
  1  2  2  0  0  0  0
  1 22  1  0  0  0  0
  2 17  1  0  0  0  0
  2  3  1  0  0  0  0
  3  4  2  0  0  0  0
  4  5  1  0  0  0  0
  4 23  1  0  0  0  0
  5  6  1  0  0  0  0
  5 15  1  0  0  0  0
  6 18  1  0  0  0  0
  6 13  1  0  0  0  0
  6  7  1  0  0  0  0
  7  8  1  0  0  0  0
  8 19  1  0  0  0  0
  8  9  1  0  0  0  0
  8 11  1  0  0  0  0
  9 10  1  0  0  0  0
  9 24  1  0  0  0  0
  9 25  1  0  0  0  0
 10 26  1  0  0  0  0
 11 20  1  0  0  0  0
 11 12  1  0  0  0  0
 11 13  1  0  0  0  0
 12 27  1  0  0  0  0
 13 21  1  0  0  0  0
 13 14  1  0  0  0  0
 14 28  1  0  0  0  0
 15 16  2  0  0  0  0
 15 17  1  0  0  0  0
M  CHG  1  17  -1
M  END
> <s_m_source_file>
AV-unprocessed.smi

> <i_m_source_file_index>
72

> <i_lp_mmshare_version>
43012

> <i_f3d_flags>
0

> <s_epik_input>
W05IMl1jMW5bY0hdbihjKD1PKW4xKVtDQEBIXTJPW0NASF0oW0NIMl1bT0hdKVtDQEBIXShbT0hdKVtDQEhdMltPSF0=

> <s_epik_cmdline>
J2VwaWtfcHl0aG9uJywgJy1waCcsICc3LjAnLCAnLXRuJywgJzgnLCAnLW1hJywgJzIwMCcsICctbWV0YWxfYmluZGluZycsICctaW1hZScsICc8aW5maWxlLm1hZT4nLCAnLW9tYWUnLCAnPG91dGZpbGUubWFlPic=

> <r_lp_tautomer_probability>
7.17554e-07

> <r_epik_Ionization_Penalty>
12.8705

> <r_epik_Ionization_Penalty_Charging>
5.64144

> <r_epik_Ionization_Penalty_Neutral>
7.22905

> <r_epik_State_Penalty>
3.30104

> <r_epik_Charging_Adjusted_Penalty>
8.94249

> <i_epik_Tot_Q>
-1

> <i_epik_Tot_abs_Q>
1

> <r_epik_Metal_State_Penalty>
0.529074

> <b_epik_Metal_Only>
1

> <s_epik_Chemistry_Notes>
This compound contains an acetal/aminal-like group ( X-CH(R)-Y where X, Y are N, S, or O) that may be acid/base labile, releasing an aldehyde.

> <s_lp_Force_Field>
OPLS_2005

> <r_lp_Energy>
34.678

> <b_lp_Chiralities_Consistent>
1

> <s_lp_Variant>
AV-unprocessed.smi:72-76

> <Gold.Version>
5.8.1

> <Gold.Id.Protein>
6NUR|6NUR_protein|mol2

> <Gold.PLP.Fitness>
44.8279

> <Gold.PLP.PLP>
-27.3455

> <Gold.PLP.part.hbond>
-6.5786

> <Gold.PLP.part.metal>
0.0000

> <Gold.PLP.part.buried>
-2.0378

> <Gold.PLP.part.nonpolar>
-19.2917

> <Gold.PLP.part.repulsive>
1.0428

> <Gold.PLP.ligand.clash>
0.0000

> <Gold.PLP.ligand.torsion>
0.6552

> <Gold.PLP.Chemscore.Hbond>
5.2320

> <Gold.PLP.Chemscore.CHOScore>
1.0000

> <Gold.PLP.Chemscore.Metal>
0.0000

> <Gold.Chemscore.Hbonds>
donor molecule, donor type, donor heavy atom, donor atom, acceptor molecule, acceptor atom, score
      L1  H    10    26       P1  7957  1.00
      L1  H    14    28       P1  8028  1.00
      P1  H  7997  8010       L1    17  2.00
      P1  H  8011  8017       L1     7  0.80
      P1  H 10752 10764       L1     1  0.21
      L1  C     4    23       P1  7957  1.00

> <Gold.PLP.Chemscore.Internal.Correction>
0.0968

> <Gold.Rescore>
     Score         DG    S(hbond)    S(metal)    S(lipo)     H(rot)  DE(clash)    DE(int)     intcor
      8.06      -8.98       3.38        0.00      21.75       4.04       0.18       0.73       ----

> <Gold.Chemscore.Fitness>
8.0641

> <Gold.Chemscore.DG>
-8.9816

> <Gold.Chemscore.ZeroCoef>
-5.4800

> <Gold.Chemscore.Hbond>
3.3831

> <Gold.Chemscore.Metal>
0.0000

> <Gold.Chemscore.Lipo>
21.7548

> <Gold.Chemscore.Internal_Hbond>
0.0000

> <Gold.Chemscore.DEClash>
0.1848

> <Gold.Chemscore.DEInternal>
0.7327

> <Gold.Chemscore.Rot>
4.0403

> <Gold.Chemscore.Internal.Correction>
   9.000000E+99

> <Gold.Chemscore.Hbonds>
donor molecule, donor type, donor heavy atom, donor atom, acceptor molecule, acceptor atom, score
      L1  H    10    26       P1  7957  0.99
      L1  H    14    28       P1  8028  0.95
      P1  H  7997  8010       L1    17  0.62
      P1  H  8011  8017       L1     7  0.72
      P1  H 10752 10764       L1     1  0.07

> <Gold.Chemscore.Hbond.Weighted>
-11.2994

> <Gold.Chemscore.Metal.Weighted>
-0.0000

> <Gold.Chemscore.Lipo.Weighted>
-2.5453

> <Gold.Chemscore.Internal_Hbond.Weighted>
0.0000

> <Gold.Chemscore.DEClash.Weighted>
0.1848

> <Gold.Chemscore.DEInternal.Weighted>
0.7327

> <Gold.Chemscore.Rot.Weighted>
10.3431

> <Gold.Chemscore.Internal.Correction.Weighted>
   9.000000E+99

> <Gold.Protein.RotatedTorsions>
[ 6907 6896 6895 6894 ] final  114.69 input  -60.11 | X-H torsion
[ 7974 7965 7964 7962 ] final   60.98 input  175.53 | X-H torsion
[ 8008 7997 7996 7995 ] final   76.06 input   59.86 | X-H torsion
[ 10167 10162 10161 10158 ] final -121.12 input  -65.29 | X-H torsion
[ 10718 10713 10712 10709 ] final -125.22 input   66.30 | X-H torsion
[ 10763 10752 10751 10750 ] final  -14.43 input  -60.55 | X-H torsion
[ 11005 11000 10999 10996 ] final   20.72 input  -57.11 | X-H torsion

> <Gold.Protein.ActiveResidues>
 VAL166  LYS551  ARG553  GLY616  TRP617  ASP618  TYR619  PRO620  LYS621  CYS622 
 ASP623  PHE694  ASN695  SER759  ASP760  ASP761  ALA762  ILE779  LEU786  VAL792 
 PHE793  MET794  SER795  GLU796  ALA797  LYS798  CYS799  TRP800  GLU811  SER814 

> <Gold.Protein.RotatedAtoms>
  152.4787  133.8201  159.7048 H   0  0  0  0  0  0  0  0  0  0  0  0  # atno 6907 bound_to 6896
  150.8821  133.7348  159.2935 H   0  0  0  0  0  0  0  0  0  0  0  0  # atno 6908 bound_to 6896
  151.4848  135.1058  159.9840 H   0  0  0  0  0  0  0  0  0  0  0  0  # atno 6909 bound_to 6896
  145.8900  139.3504  143.0655 H   0  0  0  0  0  0  0  0  0  0  0  0  # atno 7974 bound_to 7965
  155.8219  140.3469  155.5519 H   0  0  0  0  0  0  0  0  0  0  0  0  # atno 8008 bound_to 7997
  155.8333  140.0930  157.1799 H   0  0  0  0  0  0  0  0  0  0  0  0  # atno 8009 bound_to 7997
  154.4004  140.1408  156.3628 H   0  0  0  0  0  0  0  0  0  0  0  0  # atno 8010 bound_to 7997
  140.0285  143.5272  152.2187 H   0  0  0  0  0  0  0  0  0  0  0  0  # atno 10167 bound_to 10162
  156.1656  130.6632  151.0110 H   0  0  0  0  0  0  0  0  0  0  0  0  # atno 10718 bound_to 10713
  153.5281  135.7015  153.5697 H   0  0  0  0  0  0  0  0  0  0  0  0  # atno 10763 bound_to 10752
  153.3717  135.3943  155.1793 H   0  0  0  0  0  0  0  0  0  0  0  0  # atno 10764 bound_to 10752
  154.8687  135.3813  154.4775 H   0  0  0  0  0  0  0  0  0  0  0  0  # atno 10765 bound_to 10752
  140.3995  134.1733  155.7663 H   0  0  0  0  0  0  0  0  0  0  0  0  # atno 11005 bound_to 11000
  145.8920  140.9297  143.0547 LP  0  0  0  0  0  0  0  0  0  0  0  0  # atno 17320 bound_to 7965
  144.6730  140.0919  143.7465 LP  0  0  0  0  0  0  0  0  0  0  0  0  # atno 17321 bound_to 7965
  139.6092  144.7604  151.2991 LP  0  0  0  0  0  0  0  0  0  0  0  0  # atno 17342 bound_to 10162
  140.7312  143.6858  150.7963 LP  0  0  0  0  0  0  0  0  0  0  0  0  # atno 17343 bound_to 10162
  157.6765  131.0849  150.7480 LP  0  0  0  0  0  0  0  0  0  0  0  0  # atno 17370 bound_to 10713
  156.7541  130.4778  149.5450 LP  0  0  0  0  0  0  0  0  0  0  0  0  # atno 17371 bound_to 10713
  141.1862  133.8307  157.1077 LP  0  0  0  0  0  0  0  0  0  0  0  0  # atno 17394 bound_to 11000
  140.0347  134.9884  157.0848 LP  0  0  0  0  0  0  0  0  0  0  0  0  # atno 17395 bound_to 11000

$$$$
