AV-unprocessed.smi:1430|AV-procd|sdf|5822|dock4
  -GOLD-   22720 5473D 1   1.00000     0.00000
 Structure written by MMmdl.
 46 47  0  0  0  0  0  0  0  0  1 V2000
  146.5626  128.9178  152.6575 C   0  0  0  0  0  0  0  0  0  0  0  0
  147.3938  129.3356  153.7350 O   0  0  0  0  0  0  0  0  0  0  0  0
  147.8428  130.6403  153.7481 C   0  0  0  0  0  0  0  0  0  0  0  0
  148.9202  130.9738  154.5921 C   0  0  0  0  0  0  0  0  0  0  0  0
  149.3789  132.3044  154.6121 C   0  0  0  0  0  0  0  0  0  0  0  0
  148.7458  133.2639  153.7966 C   0  0  0  0  0  0  0  0  0  0  0  0
  149.2427  134.5953  153.8316 N   0  0  0  0  0  0  0  0  0  0  0  0
  150.0529  135.1682  154.7386 C   0  0  0  0  0  0  0  0  0  0  0  0
  150.5263  134.6097  155.7277 O   0  0  0  0  0  0  0  0  0  0  0  0
  150.3040  136.4462  154.4217 N   0  0  0  0  0  0  0  0  0  0  0  0
  151.1581  137.3473  155.1858 C   0  0  0  0  0  0  0  0  0  0  0  0
  151.7359  138.4608  154.2926 C   0  0  0  0  0  0  0  0  0  0  0  0
  151.2153  139.8005  154.5606 N   0  0  0  0  0  0  0  0  0  0  0  0
  149.7769  139.9027  154.3256 C   0  0  0  0  0  0  0  0  0  0  0  0
  149.2382  141.3120  154.6398 C   0  0  1  0  0  0  0  0  0  0  0  0
  147.7168  141.3989  154.4801 C   0  0  0  0  0  0  0  0  0  0  0  0
  149.5674  141.6503  155.9843 O   0  0  0  0  0  0  0  0  0  0  0  0
  150.9675  141.6139  156.2461 C   0  0  1  0  0  0  0  0  0  0  0  0
  151.1956  142.0091  157.7090 C   0  0  0  0  0  0  0  0  0  0  0  0
  151.4984  140.2018  155.9340 C   0  0  0  0  0  0  0  0  0  0  0  0
  147.6794  132.8266  152.9730 C   0  0  0  0  0  0  0  0  0  0  0  0
  147.2355  131.5515  152.9489 N   0  0  0  0  0  0  0  0  0  0  0  0
  146.2936  127.8707  152.7951 H   0  0  0  0  0  0  0  0  0  0  0  0
  147.0780  129.0035  151.6998 H   0  0  0  0  0  0  0  0  0  0  0  0
  145.6373  129.4947  152.6194 H   0  0  0  0  0  0  0  0  0  0  0  0
  149.3865  130.2226  155.2125 H   0  0  0  0  0  0  0  0  0  0  0  0
  150.2049  132.5826  155.2506 H   0  0  0  0  0  0  0  0  0  0  0  0
  148.9953  135.1677  153.0379 H   0  0  0  0  0  0  0  0  0  0  0  0
  149.8757  136.8235  153.5891 H   0  0  0  0  0  0  0  0  0  0  0  0
  150.6020  137.7765  156.0211 H   0  0  0  0  0  0  0  0  0  0  0  0
  151.9554  136.7438  155.6183 H   0  0  0  0  0  0  0  0  0  0  0  0
  152.8240  138.4660  154.3734 H   0  0  0  0  0  0  0  0  0  0  0  0
  151.5149  138.2043  153.2555 H   0  0  0  0  0  0  0  0  0  0  0  0
  149.5468  139.6681  153.2869 H   0  0  0  0  0  0  0  0  0  0  0  0
  149.2509  139.1677  154.9370 H   0  0  0  0  0  0  0  0  0  0  0  0
  149.7023  142.0377  153.9698 H   0  0  0  0  0  0  0  0  0  0  0  0
  147.4154  141.1598  153.4600 H   0  0  0  0  0  0  0  0  0  0  0  0
  147.3577  142.4035  154.7057 H   0  0  0  0  0  0  0  0  0  0  0  0
  147.2095  140.7050  155.1510 H   0  0  0  0  0  0  0  0  0  0  0  0
  151.4666  142.3424  155.6046 H   0  0  0  0  0  0  0  0  0  0  0  0
  152.2577  142.0060  157.9549 H   0  0  0  0  0  0  0  0  0  0  0  0
  150.6928  141.3191  158.3874 H   0  0  0  0  0  0  0  0  0  0  0  0
  150.8114  143.0102  157.9063 H   0  0  0  0  0  0  0  0  0  0  0  0
  151.0520  139.4855  156.6258 H   0  0  0  0  0  0  0  0  0  0  0  0
  152.5744  140.1752  156.1104 H   0  0  0  0  0  0  0  0  0  0  0  0
  147.1672  133.4906  152.2948 H   0  0  0  0  0  0  0  0  0  0  0  0
  1  2  1  0  0  0  0
  1 23  1  0  0  0  0
  1 24  1  0  0  0  0
  1 25  1  0  0  0  0
  2  3  1  0  0  0  0
  3 22  1  0  0  0  0
  3  4  2  0  0  0  0
  4  5  1  0  0  0  0
  4 26  1  0  0  0  0
  5  6  2  0  0  0  0
  5 27  1  0  0  0  0
  6  7  1  0  0  0  0
  6 21  1  0  0  0  0
  7  8  1  0  0  0  0
  7 28  1  0  0  0  0
  8  9  2  0  0  0  0
  8 10  1  0  0  0  0
 10 11  1  0  0  0  0
 10 29  1  0  0  0  0
 11 12  1  0  0  0  0
 11 30  1  0  0  0  0
 11 31  1  0  0  0  0
 12 13  1  0  0  0  0
 12 32  1  0  0  0  0
 12 33  1  0  0  0  0
 13 20  1  0  0  0  0
 13 14  1  0  0  0  0
 14 15  1  0  0  0  0
 14 34  1  0  0  0  0
 14 35  1  0  0  0  0
 15 16  1  0  0  0  0
 15 17  1  0  0  0  0
 15 36  1  0  0  0  0
 16 37  1  0  0  0  0
 16 38  1  0  0  0  0
 16 39  1  0  0  0  0
 17 18  1  0  0  0  0
 18 19  1  0  0  0  0
 18 20  1  0  0  0  0
 18 40  1  0  0  0  0
 19 41  1  0  0  0  0
 19 42  1  0  0  0  0
 19 43  1  0  0  0  0
 20 44  1  0  0  0  0
 20 45  1  0  0  0  0
 21 22  2  0  0  0  0
 21 46  1  0  0  0  0
M  END
> <s_m_source_file>
AV-unprocessed.smi

> <i_m_source_file_index>
1430

> <i_lp_mmshare_version>
43012

> <i_f3d_flags>
0

> <s_epik_input>
W0NIM11PYzFbY0hdW2NIXWMoW2NIXW4xKVtOSF1DKD1PKVtOSF1bQ0gyXVtDSDJdTjJbQ0gyXVtDQEBIXShbQ0gzXSlPW0NAQEhdKFtDSDNdKVtDSDJdMg==

> <s_epik_cmdline>
J2VwaWtfcHl0aG9uJywgJy1waCcsICc3LjAnLCAnLXRuJywgJzgnLCAnLW1hJywgJzIwMCcsICctbWV0YWxfYmluZGluZycsICctaW1hZScsICc8aW5maWxlLm1hZT4nLCAnLW9tYWUnLCAnPG91dGZpbGUubWFlPic=

> <r_lp_tautomer_probability>
1

> <r_epik_Ionization_Penalty>
0.266083

> <r_epik_Ionization_Penalty_Charging>
0

> <r_epik_Ionization_Penalty_Neutral>
0.266083

> <r_epik_State_Penalty>
0.257924

> <r_epik_Charging_Adjusted_Penalty>
0.257924

> <i_epik_Tot_Q>
0

> <i_epik_Tot_abs_Q>
0

> <r_epik_Metal_State_Penalty>
0.257922

> <b_epik_Metal_Only>
0

> <s_lp_Force_Field>
OPLS_2005

> <r_lp_Energy>
23.3408

> <b_lp_Chiralities_Consistent>
1

> <s_lp_Variant>
AV-unprocessed.smi:1430-1

> <Gold.Version>
5.8.1

> <Gold.Id.Protein>
6NUR|6NUR_protein|mol2

> <Gold.PLP.Fitness>
47.7416

> <Gold.PLP.PLP>
-40.9904

> <Gold.PLP.part.hbond>
-4.0582

> <Gold.PLP.part.metal>
0.0000

> <Gold.PLP.part.buried>
-3.5848

> <Gold.PLP.part.nonpolar>
-34.0877

> <Gold.PLP.part.repulsive>
0.5115

> <Gold.PLP.ligand.clash>
0.0000

> <Gold.PLP.ligand.torsion>
0.7913

> <Gold.PLP.Chemscore.Hbond>
2.7660

> <Gold.PLP.Chemscore.CHOScore>
0.0000

> <Gold.PLP.Chemscore.Metal>
0.0000

> <Gold.Chemscore.Hbonds>
donor molecule, donor type, donor heavy atom, donor atom, acceptor molecule, acceptor atom, score
      L1  H     7    28       P1  7948  0.95
      L1  H    10    29       P1  7948  0.82
      P1  H  7989  7998       L1    13  0.85

> <Gold.PLP.Chemscore.Internal.Correction>
0.0358

> <Gold.Rescore>
     Score         DG    S(hbond)    S(metal)    S(lipo)     H(rot)  DE(clash)    DE(int)     intcor
     14.01     -16.20       1.71        0.00      80.17       1.71       0.02       2.17       ----

> <Gold.Chemscore.Fitness>
14.0098

> <Gold.Chemscore.DG>
-16.2016

> <Gold.Chemscore.ZeroCoef>
-5.4800

> <Gold.Chemscore.Hbond>
1.7130

> <Gold.Chemscore.Metal>
0.0000

> <Gold.Chemscore.Lipo>
80.1676

> <Gold.Chemscore.Internal_Hbond>
0.0000

> <Gold.Chemscore.DEClash>
0.0207

> <Gold.Chemscore.DEInternal>
2.1710

> <Gold.Chemscore.Rot>
1.7107

> <Gold.Chemscore.Internal.Correction>
   9.000000E+99

> <Gold.Chemscore.Hbonds>
donor molecule, donor type, donor heavy atom, donor atom, acceptor molecule, acceptor atom, score
      L1  H     7    28       P1  7948  0.20
      L1  H    10    29       P1  7948  0.31
      P1  H  7989  7998       L1    13  0.11

> <Gold.Chemscore.Hbond.Weighted>
-5.7214

> <Gold.Chemscore.Metal.Weighted>
-0.0000

> <Gold.Chemscore.Lipo.Weighted>
-9.3796

> <Gold.Chemscore.Internal_Hbond.Weighted>
0.0000

> <Gold.Chemscore.DEClash.Weighted>
0.0207

> <Gold.Chemscore.DEInternal.Weighted>
2.1710

> <Gold.Chemscore.Rot.Weighted>
4.3794

> <Gold.Chemscore.Internal.Correction.Weighted>
   9.000000E+99

> <Gold.Protein.RotatedTorsions>
[ 6907 6896 6895 6894 ] final  -30.13 input  -60.11 | X-H torsion
[ 7974 7965 7964 7962 ] final -160.62 input  175.53 | X-H torsion
[ 8008 7997 7996 7995 ] final   32.37 input   59.86 | X-H torsion
[ 10167 10162 10161 10158 ] final  -90.57 input  -65.29 | X-H torsion
[ 10718 10713 10712 10709 ] final   95.82 input   66.30 | X-H torsion
[ 10763 10752 10751 10750 ] final  -30.59 input  -60.55 | X-H torsion
[ 11005 11000 10999 10996 ] final   13.81 input  -57.11 | X-H torsion

> <Gold.Protein.ActiveResidues>
 VAL166  LYS551  ARG553  GLY616  TRP617  ASP618  TYR619  PRO620  LYS621  CYS622 
 ASP623  PHE694  ASN695  SER759  ASP760  ASP761  ALA762  ILE779  LEU786  VAL792 
 PHE793  MET794  SER795  GLU796  ALA797  LYS798  CYS799  TRP800  GLU811  SER814 

> <Gold.Protein.RotatedAtoms>
  151.1098  135.0020  159.8488 H   0  0  0  0  0  0  0  0  0  0  0  0  # atno 6907 bound_to 6896
  152.5442  134.1850  159.8661 H   0  0  0  0  0  0  0  0  0  0  0  0  # atno 6908 bound_to 6896
  151.1899  133.4629  159.2628 H   0  0  0  0  0  0  0  0  0  0  0  0  # atno 6909 bound_to 6896
  144.7420  140.3515  143.6115 H   0  0  0  0  0  0  0  0  0  0  0  0  # atno 7974 bound_to 7965
  155.1215  140.3248  155.4496 H   0  0  0  0  0  0  0  0  0  0  0  0  # atno 8008 bound_to 7997
  156.2661  140.2026  156.6285 H   0  0  0  0  0  0  0  0  0  0  0  0  # atno 8009 bound_to 7997
  154.6680  140.0539  157.0122 H   0  0  0  0  0  0  0  0  0  0  0  0  # atno 8010 bound_to 7997
  140.3535  143.2878  151.9698 H   0  0  0  0  0  0  0  0  0  0  0  0  # atno 10167 bound_to 10162
  157.6934  131.0558  150.4397 H   0  0  0  0  0  0  0  0  0  0  0  0  # atno 10718 bound_to 10713
  153.7834  135.6903  153.4884 H   0  0  0  0  0  0  0  0  0  0  0  0  # atno 10763 bound_to 10752
  153.1796  135.4511  155.0009 H   0  0  0  0  0  0  0  0  0  0  0  0  # atno 10764 bound_to 10752
  154.8072  135.3362  154.7336 H   0  0  0  0  0  0  0  0  0  0  0  0  # atno 10765 bound_to 10752
  140.4766  134.0977  155.7743 H   0  0  0  0  0  0  0  0  0  0  0  0  # atno 11005 bound_to 11000
  145.7271  139.1726  143.2451 LP  0  0  0  0  0  0  0  0  0  0  0  0  # atno 17320 bound_to 7965
  146.1234  140.7280  142.9447 LP  0  0  0  0  0  0  0  0  0  0  0  0  # atno 17321 bound_to 7965
  139.4823  144.6055  151.7529 LP  0  0  0  0  0  0  0  0  0  0  0  0  # atno 17342 bound_to 10162
  140.5196  144.0900  150.6018 LP  0  0  0  0  0  0  0  0  0  0  0  0  # atno 17343 bound_to 10162
  156.4757  130.4062  149.6491 LP  0  0  0  0  0  0  0  0  0  0  0  0  # atno 17370 bound_to 10713
  156.3556  130.7454  151.2420 LP  0  0  0  0  0  0  0  0  0  0  0  0  # atno 17371 bound_to 10713
  141.1551  133.8897  157.1997 LP  0  0  0  0  0  0  0  0  0  0  0  0  # atno 17394 bound_to 11000
  139.9852  135.0084  156.9845 LP  0  0  0  0  0  0  0  0  0  0  0  0  # atno 17395 bound_to 11000

$$$$
