AV-unprocessed.smi:3335|AV-procd|sdf|12850|dock2
  -GOLD-   2272019243D 1   1.00000     0.00000
 Structure written by MMmdl.
 46 47  0  0  0  0  0  0  0  0  1 V2000
  152.1535  145.6555  159.6427 C   0  0  0  0  0  0  0  0  0  0  0  0
  152.5459  144.2976  160.1489 C   0  0  0  0  0  0  0  0  0  0  0  0
  152.3727  143.7679  161.4583 C   0  0  0  0  0  0  0  0  0  0  0  0
  152.8222  142.5298  161.5744 N   0  0  0  0  0  0  0  0  0  0  0  0
  153.3081  142.2235  160.3500 N   0  0  0  0  0  0  0  0  0  0  0  0
  153.8689  140.9015  160.0765 C   0  0  1  0  0  0  0  0  0  0  0  0
  154.3575  140.1962  161.3573 C   0  0  0  0  0  0  0  0  0  0  0  0
  152.9415  140.0133  159.2022 C   0  0  2  0  0  0  0  0  0  0  0  0
  153.5750  138.6368  158.9141 C   0  0  0  0  0  0  0  0  0  0  0  0
  152.5969  140.7326  157.9720 N   0  0  0  0  0  0  0  0  0  0  0  0
  151.5456  140.1434  157.1232 C   0  0  1  0  0  0  0  0  0  0  0  0
  150.5079  139.4429  158.0135 C   0  0  0  0  0  0  0  0  0  0  0  0
  150.8366  141.1947  156.2434 C   0  0  0  0  0  0  0  0  0  0  0  0
  151.1139  142.3847  156.4042 O   0  0  0  0  0  0  0  0  0  0  0  0
  149.9414  140.7928  155.3153 N   0  0  0  0  0  0  0  0  0  0  0  0
  149.5654  139.3930  155.1236 C   0  0  0  0  0  0  0  0  0  0  0  0
  148.3631  139.4097  154.1803 C   0  0  0  0  0  0  0  0  0  0  0  0
  148.5260  140.7032  153.3957 C   0  0  0  0  0  0  0  0  0  0  0  0
  149.2187  141.6498  154.3758 C   0  0  0  0  0  0  0  0  0  0  0  0
  153.1445  143.2744  159.4702 C   0  0  0  0  0  0  0  0  0  0  0  0
  151.6361  146.2387  160.4047 H   0  0  0  0  0  0  0  0  0  0  0  0
  151.4863  145.5865  158.7836 H   0  0  0  0  0  0  0  0  0  0  0  0
  153.0228  146.2343  159.3307 H   0  0  0  0  0  0  0  0  0  0  0  0
  151.9318  144.2424  162.3226 H   0  0  0  0  0  0  0  0  0  0  0  0
  154.7684  141.0799  159.4852 H   0  0  0  0  0  0  0  0  0  0  0  0
  154.8604  139.2589  161.1177 H   0  0  0  0  0  0  0  0  0  0  0  0
  153.5372  139.9645  162.0370 H   0  0  0  0  0  0  0  0  0  0  0  0
  155.0687  140.8201  161.8991 H   0  0  0  0  0  0  0  0  0  0  0  0
  152.0240  139.8510  159.7695 H   0  0  0  0  0  0  0  0  0  0  0  0
  153.9681  138.1912  159.8279 H   0  0  0  0  0  0  0  0  0  0  0  0
  154.3975  138.7095  158.2019 H   0  0  0  0  0  0  0  0  0  0  0  0
  152.8456  137.9321  158.5172 H   0  0  0  0  0  0  0  0  0  0  0  0
  153.4222  140.9872  157.4470 H   0  0  0  0  0  0  0  0  0  0  0  0
  152.0115  139.3740  156.5095 H   0  0  0  0  0  0  0  0  0  0  0  0
  149.7269  138.9705  157.4164 H   0  0  0  0  0  0  0  0  0  0  0  0
  150.0258  140.1429  158.6977 H   0  0  0  0  0  0  0  0  0  0  0  0
  150.9740  138.6620  158.6152 H   0  0  0  0  0  0  0  0  0  0  0  0
  150.4019  138.8592  154.6702 H   0  0  0  0  0  0  0  0  0  0  0  0
  149.3197  138.9016  156.0663 H   0  0  0  0  0  0  0  0  0  0  0  0
  148.3154  138.5284  153.5401 H   0  0  0  0  0  0  0  0  0  0  0  0
  147.4419  139.4506  154.7629 H   0  0  0  0  0  0  0  0  0  0  0  0
  149.1743  140.5284  152.5360 H   0  0  0  0  0  0  0  0  0  0  0  0
  147.5788  141.0961  153.0254 H   0  0  0  0  0  0  0  0  0  0  0  0
  148.4789  142.2354  154.9237 H   0  0  0  0  0  0  0  0  0  0  0  0
  149.8822  142.3377  153.8502 H   0  0  0  0  0  0  0  0  0  0  0  0
  153.4608  143.2056  158.4398 H   0  0  0  0  0  0  0  0  0  0  0  0
  1  2  1  0  0  0  0
  1 21  1  0  0  0  0
  1 22  1  0  0  0  0
  1 23  1  0  0  0  0
  2 20  2  0  0  0  0
  2  3  1  0  0  0  0
  3  4  2  0  0  0  0
  3 24  1  0  0  0  0
  4  5  1  0  0  0  0
  5  6  1  0  0  0  0
  5 20  1  0  0  0  0
  6  7  1  0  0  0  0
  6  8  1  0  0  0  0
  6 25  1  0  0  0  0
  7 26  1  0  0  0  0
  7 27  1  0  0  0  0
  7 28  1  0  0  0  0
  8  9  1  0  0  0  0
  8 10  1  0  0  0  0
  8 29  1  0  0  0  0
  9 30  1  0  0  0  0
  9 31  1  0  0  0  0
  9 32  1  0  0  0  0
 10 11  1  0  0  0  0
 10 33  1  0  0  0  0
 11 12  1  0  0  0  0
 11 13  1  0  0  0  0
 11 34  1  0  0  0  0
 12 35  1  0  0  0  0
 12 36  1  0  0  0  0
 12 37  1  0  0  0  0
 13 14  2  0  0  0  0
 13 15  1  0  0  0  0
 15 19  1  0  0  0  0
 15 16  1  0  0  0  0
 16 17  1  0  0  0  0
 16 38  1  0  0  0  0
 16 39  1  0  0  0  0
 17 18  1  0  0  0  0
 17 40  1  0  0  0  0
 17 41  1  0  0  0  0
 18 19  1  0  0  0  0
 18 42  1  0  0  0  0
 18 43  1  0  0  0  0
 19 44  1  0  0  0  0
 19 45  1  0  0  0  0
 20 46  1  0  0  0  0
M  END
> <s_m_source_file>
AV-unprocessed.smi

> <i_m_source_file_index>
3335

> <i_lp_mmshare_version>
43012

> <i_f3d_flags>
0

> <s_epik_input>
W0NIM11jMVtjSF1ubihbY0hdMSlbQ0BIXShbQ0gzXSlbQ0BIXShbQ0gzXSlbTkhdW0NASF0oW0NIM10pQyg9TylOMltDSDJdW0NIMl1bQ0gyXVtDSDJdMg==

> <s_epik_cmdline>
J2VwaWtfcHl0aG9uJywgJy1waCcsICc3LjAnLCAnLXRuJywgJzgnLCAnLW1hJywgJzIwMCcsICctbWV0YWxfYmluZGluZycsICctaW1hZScsICc8aW5maWxlLm1hZT4nLCAnLW9tYWUnLCAnPG91dGZpbGUubWFlPic=

> <r_lp_tautomer_probability>
1

> <r_epik_Ionization_Penalty>
0.918803

> <r_epik_Ionization_Penalty_Charging>
0

> <r_epik_Ionization_Penalty_Neutral>
0.918803

> <r_epik_State_Penalty>
0.958258

> <r_epik_Charging_Adjusted_Penalty>
0.958258

> <i_epik_Tot_Q>
0

> <i_epik_Tot_abs_Q>
0

> <r_epik_Metal_State_Penalty>
0.956786

> <b_epik_Metal_Only>
0

> <s_lp_Force_Field>
OPLS_2005

> <r_lp_Energy>
40.2433

> <b_lp_Chiralities_Consistent>
1

> <s_lp_Variant>
AV-unprocessed.smi:3335-14

> <Gold.Version>
5.8.1

> <Gold.Id.Protein>
6NUR|6NUR_protein|mol2

> <Gold.PLP.Fitness>
42.8793

> <Gold.PLP.PLP>
-44.2948

> <Gold.PLP.part.hbond>
-0.7294

> <Gold.PLP.part.metal>
0.0000

> <Gold.PLP.part.buried>
0.7956

> <Gold.PLP.part.nonpolar>
-43.3738

> <Gold.PLP.part.repulsive>
0.1685

> <Gold.PLP.ligand.clash>
0.0000

> <Gold.PLP.ligand.torsion>
0.8638

> <Gold.PLP.Chemscore.Hbond>
0.0000

> <Gold.PLP.Chemscore.CHOScore>
0.0000

> <Gold.PLP.Chemscore.Metal>
0.0000

> <Gold.PLP.Chemscore.Internal.Correction>
0.3121

> <Gold.Rescore>
     Score         DG    S(hbond)    S(metal)    S(lipo)     H(rot)  DE(clash)    DE(int)     intcor
     11.49     -14.04       0.00        0.00     108.58       1.62       0.78       1.76       ----

> <Gold.Chemscore.Fitness>
11.4933

> <Gold.Chemscore.DG>
-14.0359

> <Gold.Chemscore.ZeroCoef>
-5.4800

> <Gold.Chemscore.Hbond>
0.0000

> <Gold.Chemscore.Metal>
0.0000

> <Gold.Chemscore.Lipo>
108.5822

> <Gold.Chemscore.Internal_Hbond>
0.0000

> <Gold.Chemscore.DEClash>
0.7816

> <Gold.Chemscore.DEInternal>
1.7610

> <Gold.Chemscore.Rot>
1.6204

> <Gold.Chemscore.Internal.Correction>
   9.000000E+99

> <Gold.Chemscore.Hbond.Weighted>
-0.0000

> <Gold.Chemscore.Metal.Weighted>
-0.0000

> <Gold.Chemscore.Lipo.Weighted>
-12.7041

> <Gold.Chemscore.Internal_Hbond.Weighted>
0.0000

> <Gold.Chemscore.DEClash.Weighted>
0.7816

> <Gold.Chemscore.DEInternal.Weighted>
1.7610

> <Gold.Chemscore.Rot.Weighted>
4.1482

> <Gold.Chemscore.Internal.Correction.Weighted>
   9.000000E+99

> <Gold.Protein.RotatedTorsions>
[ 6907 6896 6895 6894 ] final -152.42 input  -60.11 | X-H torsion
[ 7974 7965 7964 7962 ] final -166.45 input  175.53 | X-H torsion
[ 8008 7997 7996 7995 ] final  -68.15 input   59.86 | X-H torsion
[ 10167 10162 10161 10158 ] final   -5.39 input  -65.29 | X-H torsion
[ 10718 10713 10712 10709 ] final   35.34 input   66.30 | X-H torsion
[ 10763 10752 10751 10750 ] final  -37.11 input  -60.55 | X-H torsion
[ 11005 11000 10999 10996 ] final    6.56 input  -57.11 | X-H torsion

> <Gold.Protein.ActiveResidues>
 VAL166  LYS551  ARG553  GLY616  TRP617  ASP618  TYR619  PRO620  LYS621  CYS622 
 ASP623  PHE694  ASN695  SER759  ASP760  ASP761  ALA762  ILE779  LEU786  VAL792 
 PHE793  MET794  SER795  GLU796  ALA797  LYS798  CYS799  TRP800  GLU811  SER814 

> <Gold.Protein.RotatedAtoms>
  151.2275  133.4468  159.2602 H   0  0  0  0  0  0  0  0  0  0  0  0  # atno 6907 bound_to 6896
  151.0826  134.9868  159.8374 H   0  0  0  0  0  0  0  0  0  0  0  0  # atno 6908 bound_to 6896
  152.5426  134.2213  159.8841 H   0  0  0  0  0  0  0  0  0  0  0  0  # atno 6909 bound_to 6896
  144.7245  140.2665  143.6257 H   0  0  0  0  0  0  0  0  0  0  0  0  # atno 7974 bound_to 7965
  154.4848  140.0878  156.7462 H   0  0  0  0  0  0  0  0  0  0  0  0  # atno 8008 bound_to 7997
  155.4377  140.3452  155.4268 H   0  0  0  0  0  0  0  0  0  0  0  0  # atno 8009 bound_to 7997
  156.1245  140.1483  156.9144 H   0  0  0  0  0  0  0  0  0  0  0  0  # atno 8010 bound_to 7997
  140.6961  143.6314  150.8519 H   0  0  0  0  0  0  0  0  0  0  0  0  # atno 10167 bound_to 10162
  157.3215  130.7450  149.6788 H   0  0  0  0  0  0  0  0  0  0  0  0  # atno 10718 bound_to 10713
  153.8909  135.6812  153.4761 H   0  0  0  0  0  0  0  0  0  0  0  0  # atno 10763 bound_to 10752
  153.1182  135.4752  154.9148 H   0  0  0  0  0  0  0  0  0  0  0  0  # atno 10764 bound_to 10752
  154.7623  135.3214  154.8307 H   0  0  0  0  0  0  0  0  0  0  0  0  # atno 10765 bound_to 10752
  140.5581  134.0219  155.7961 H   0  0  0  0  0  0  0  0  0  0  0  0  # atno 11005 bound_to 11000
  145.8084  139.1993  143.2007 LP  0  0  0  0  0  0  0  0  0  0  0  0  # atno 17320 bound_to 7965
  146.0616  140.7964  142.9732 LP  0  0  0  0  0  0  0  0  0  0  0  0  # atno 17321 bound_to 7965
  140.0032  143.5722  152.2867 LP  0  0  0  0  0  0  0  0  0  0  0  0  # atno 17342 bound_to 10162
  139.6419  144.7655  151.2322 LP  0  0  0  0  0  0  0  0  0  0  0  0  # atno 17343 bound_to 10162
  155.9686  130.4222  150.4503 LP  0  0  0  0  0  0  0  0  0  0  0  0  # atno 17370 bound_to 10713
  157.2520  131.0548  151.2373 LP  0  0  0  0  0  0  0  0  0  0  0  0  # atno 17371 bound_to 10713
  141.1131  133.9584  157.2873 LP  0  0  0  0  0  0  0  0  0  0  0  0  # atno 17394 bound_to 11000
  139.9421  135.0189  156.8742 LP  0  0  0  0  0  0  0  0  0  0  0  0  # atno 17395 bound_to 11000

$$$$
