AV-unprocessed.smi:2965|AV-procd|sdf|11322|dock6
  -GOLD-   2272016223D 1   1.00000     0.00000
 Structure written by MMmdl.
 36 37  0  0  0  0  0  0  0  0  1 V2000
  152.7432  139.6351  156.1538 O   0  0  0  0  0  0  0  0  0  0  0  0
  151.6827  139.3133  156.6922 C   0  0  0  0  0  0  0  0  0  0  0  0
  151.5724  139.2081  158.2201 C   0  0  0  0  0  0  0  0  0  0  0  0
  152.2124  140.3268  158.9326 N   0  0  0  0  0  0  0  0  0  0  0  0
  151.6333  141.6017  158.7765 C   0  0  0  0  0  0  0  0  0  0  0  0
  152.1271  142.7082  159.3648 C   0  0  0  0  0  0  0  0  0  0  0  0
  151.4468  144.0616  159.2287 C   0  0  0  0  0  0  0  0  0  0  0  0
  151.5166  144.5071  157.9741 F   0  0  0  0  0  0  0  0  0  0  0  0
  150.1607  143.9569  159.5601 F   0  0  0  0  0  0  0  0  0  0  0  0
  152.0092  144.9695  160.0276 F   0  0  0  0  0  0  0  0  0  0  0  0
  153.2886  142.5241  160.2125 C   0  0  0  0  0  0  0  0  0  0  0  0
  153.8469  141.3097  160.3830 C   0  0  0  0  0  0  0  0  0  0  0  0
  153.3093  140.1190  159.7210 C   0  0  0  0  0  0  0  0  0  0  0  0
  153.8125  139.0049  159.8667 O   0  0  0  0  0  0  0  0  0  0  0  0
  150.5707  139.0174  156.0031 N   0  0  0  0  0  0  0  0  0  0  0  0
  150.4537  139.0364  154.5497 C   0  0  0  0  0  0  0  0  0  0  0  0
  149.1373  139.6879  154.0947 C   0  0  2  0  0  0  0  0  0  0  0  0
  148.9766  141.1347  154.5568 C   0  0  0  0  0  0  0  0  0  0  0  0
  147.4743  141.2966  154.5248 C   0  0  0  0  0  0  0  0  0  0  0  0
  147.0018  139.9331  155.0216 C   0  0  0  0  0  0  0  0  0  0  0  0
  148.0173  139.0034  154.6511 O   0  0  0  0  0  0  0  0  0  0  0  0
  150.5199  139.1377  158.5016 H   0  0  0  0  0  0  0  0  0  0  0  0
  152.0126  138.2583  158.5272 H   0  0  0  0  0  0  0  0  0  0  0  0
  150.7514  141.6203  158.1525 H   0  0  0  0  0  0  0  0  0  0  0  0
  153.7209  143.3754  160.7175 H   0  0  0  0  0  0  0  0  0  0  0  0
  154.7130  141.2102  161.0210 H   0  0  0  0  0  0  0  0  0  0  0  0
  149.7460  138.7525  156.5221 H   0  0  0  0  0  0  0  0  0  0  0  0
  151.3034  139.5861  154.1442 H   0  0  0  0  0  0  0  0  0  0  0  0
  150.5271  138.0200  154.1592 H   0  0  0  0  0  0  0  0  0  0  0  0
  149.0473  139.6540  153.0076 H   0  0  0  0  0  0  0  0  0  0  0  0
  149.3429  141.2577  155.5770 H   0  0  0  0  0  0  0  0  0  0  0  0
  149.4983  141.8464  153.9163 H   0  0  0  0  0  0  0  0  0  0  0  0
  147.1167  142.1228  155.1399 H   0  0  0  0  0  0  0  0  0  0  0  0
  147.1381  141.4610  153.5001 H   0  0  0  0  0  0  0  0  0  0  0  0
  146.9146  139.9322  156.1087 H   0  0  0  0  0  0  0  0  0  0  0  0
  146.0343  139.6532  154.6045 H   0  0  0  0  0  0  0  0  0  0  0  0
  1  2  2  0  0  0  0
  2  3  1  0  0  0  0
  2 15  1  0  0  0  0
  3  4  1  0  0  0  0
  3 22  1  0  0  0  0
  3 23  1  0  0  0  0
  4 13  1  0  0  0  0
  4  5  1  0  0  0  0
  5  6  2  0  0  0  0
  5 24  1  0  0  0  0
  6  7  1  0  0  0  0
  6 11  1  0  0  0  0
  7  8  1  0  0  0  0
  7  9  1  0  0  0  0
  7 10  1  0  0  0  0
 11 12  2  0  0  0  0
 11 25  1  0  0  0  0
 12 13  1  0  0  0  0
 12 26  1  0  0  0  0
 13 14  2  0  0  0  0
 15 16  1  0  0  0  0
 15 27  1  0  0  0  0
 16 17  1  0  0  0  0
 16 28  1  0  0  0  0
 16 29  1  0  0  0  0
 17 21  1  0  0  0  0
 17 18  1  0  0  0  0
 17 30  1  0  0  0  0
 18 19  1  0  0  0  0
 18 31  1  0  0  0  0
 18 32  1  0  0  0  0
 19 20  1  0  0  0  0
 19 33  1  0  0  0  0
 19 34  1  0  0  0  0
 20 21  1  0  0  0  0
 20 35  1  0  0  0  0
 20 36  1  0  0  0  0
M  END
> <s_m_source_file>
AV-unprocessed.smi

> <i_m_source_file_index>
2965

> <i_lp_mmshare_version>
43012

> <i_f3d_flags>
0

> <s_epik_input>
TzFbQ0gyXVtDSDJdW0NIMl1bQ0BIXTFbQ0gyXVtOSF1DKD1PKVtDSDJdbjJbY0hdYyhDKEYpKEYpRilbY0hdW2NIXWMyPU8=

> <s_epik_cmdline>
J2VwaWtfcHl0aG9uJywgJy1waCcsICc3LjAnLCAnLXRuJywgJzgnLCAnLW1hJywgJzIwMCcsICctbWV0YWxfYmluZGluZycsICctaW1hZScsICc8aW5maWxlLm1hZT4nLCAnLW9tYWUnLCAnPG91dGZpbGUubWFlPic=

> <r_lp_tautomer_probability>
1

> <r_epik_Ionization_Penalty>
4.53327e-08

> <r_epik_Ionization_Penalty_Charging>
1.84737e-08

> <r_epik_Ionization_Penalty_Neutral>
2.6859e-08

> <r_epik_State_Penalty>
-0

> <r_epik_Charging_Adjusted_Penalty>
1.84737e-08

> <i_epik_Tot_Q>
0

> <i_epik_Tot_abs_Q>
0

> <r_epik_Metal_State_Penalty>
-0

> <b_epik_Metal_Only>
0

> <s_lp_Force_Field>
OPLS_2005

> <r_lp_Energy>
28.8202

> <b_lp_Chiralities_Consistent>
1

> <s_lp_Variant>
AV-unprocessed.smi:2965-1

> <Gold.Version>
5.8.1

> <Gold.Id.Protein>
6NUR|6NUR_protein|mol2

> <Gold.PLP.Fitness>
49.1655

> <Gold.PLP.PLP>
-47.0564

> <Gold.PLP.part.hbond>
-1.0000

> <Gold.PLP.part.metal>
0.0000

> <Gold.PLP.part.buried>
-2.0914

> <Gold.PLP.part.nonpolar>
-42.4563

> <Gold.PLP.part.repulsive>
0.1548

> <Gold.PLP.ligand.clash>
0.0000

> <Gold.PLP.ligand.torsion>
0.4741

> <Gold.PLP.Chemscore.Hbond>
1.0000

> <Gold.PLP.Chemscore.CHOScore>
0.0000

> <Gold.PLP.Chemscore.Metal>
0.0000

> <Gold.Chemscore.Hbonds>
donor molecule, donor type, donor heavy atom, donor atom, acceptor molecule, acceptor atom, score
      P1  H  7997  8010       L1     1  1.00

> <Gold.PLP.Chemscore.Internal.Correction>
0.0574

> <Gold.Rescore>
     Score         DG    S(hbond)    S(metal)    S(lipo)     H(rot)  DE(clash)    DE(int)     intcor
     13.61     -14.29       1.00        0.00      87.68       1.87       0.18       0.49       ----

> <Gold.Chemscore.Fitness>
13.6114

> <Gold.Chemscore.DG>
-14.2886

> <Gold.Chemscore.ZeroCoef>
-5.4800

> <Gold.Chemscore.Hbond>
0.9978

> <Gold.Chemscore.Metal>
0.0000

> <Gold.Chemscore.Lipo>
87.6775

> <Gold.Chemscore.Internal_Hbond>
0.0000

> <Gold.Chemscore.DEClash>
0.1845

> <Gold.Chemscore.DEInternal>
0.4927

> <Gold.Chemscore.Rot>
1.8681

> <Gold.Chemscore.Internal.Correction>
   9.000000E+99

> <Gold.Chemscore.Hbonds>
donor molecule, donor type, donor heavy atom, donor atom, acceptor molecule, acceptor atom, score
      P1  H  7997  8010       L1     1  1.00

> <Gold.Chemscore.Hbond.Weighted>
-3.3325

> <Gold.Chemscore.Metal.Weighted>
-0.0000

> <Gold.Chemscore.Lipo.Weighted>
-10.2583

> <Gold.Chemscore.Internal_Hbond.Weighted>
0.0000

> <Gold.Chemscore.DEClash.Weighted>
0.1845

> <Gold.Chemscore.DEInternal.Weighted>
0.4927

> <Gold.Chemscore.Rot.Weighted>
4.7822

> <Gold.Chemscore.Internal.Correction.Weighted>
   9.000000E+99

> <Gold.Protein.RotatedTorsions>
[ 6907 6896 6895 6894 ] final -132.47 input  -60.11 | X-H torsion
[ 7974 7965 7964 7962 ] final  115.04 input  175.53 | X-H torsion
[ 8008 7997 7996 7995 ] final   85.01 input   59.86 | X-H torsion
[ 10167 10162 10161 10158 ] final   23.78 input  -65.29 | X-H torsion
[ 10718 10713 10712 10709 ] final -172.76 input   66.30 | X-H torsion
[ 10763 10752 10751 10750 ] final   63.04 input  -60.55 | X-H torsion
[ 11005 11000 10999 10996 ] final  -59.41 input  -57.11 | X-H torsion

> <Gold.Protein.ActiveResidues>
 VAL166  LYS551  ARG553  GLY616  TRP617  ASP618  TYR619  PRO620  LYS621  CYS622 
 ASP623  PHE694  ASN695  SER759  ASP760  ASP761  ALA762  ILE779  LEU786  VAL792 
 PHE793  MET794  SER795  GLU796  ALA797  LYS798  CYS799  TRP800  GLU811  SER814 

> <Gold.Protein.RotatedAtoms>
  150.9628  133.6427  159.2751 H   0  0  0  0  0  0  0  0  0  0  0  0  # atno 6907 bound_to 6896
  151.3744  135.0927  159.9485 H   0  0  0  0  0  0  0  0  0  0  0  0  # atno 6908 bound_to 6896
  152.5154  133.9175  159.7573 H   0  0  0  0  0  0  0  0  0  0  0  0  # atno 6909 bound_to 6896
  145.1969  139.2972  143.4339 H   0  0  0  0  0  0  0  0  0  0  0  0  # atno 7974 bound_to 7965
  155.9444  140.3405  155.6355 H   0  0  0  0  0  0  0  0  0  0  0  0  # atno 8008 bound_to 7997
  155.6998  140.0759  157.2433 H   0  0  0  0  0  0  0  0  0  0  0  0  # atno 8009 bound_to 7997
  154.4109  140.1642  156.2166 H   0  0  0  0  0  0  0  0  0  0  0  0  # atno 8010 bound_to 7997
  140.5241  143.9953  150.6431 H   0  0  0  0  0  0  0  0  0  0  0  0  # atno 10167 bound_to 10162
  156.7603  130.9411  151.3117 H   0  0  0  0  0  0  0  0  0  0  0  0  # atno 10718 bound_to 10713
  153.0003  135.5443  154.6288 H   0  0  0  0  0  0  0  0  0  0  0  0  # atno 10763 bound_to 10752
  154.5570  135.2831  155.0957 H   0  0  0  0  0  0  0  0  0  0  0  0  # atno 10764 bound_to 10752
  154.2174  135.6456  153.5186 H   0  0  0  0  0  0  0  0  0  0  0  0  # atno 10765 bound_to 10752
  141.1247  133.6616  156.5068 H   0  0  0  0  0  0  0  0  0  0  0  0  # atno 11005 bound_to 11000
  146.3425  140.2200  142.8591 LP  0  0  0  0  0  0  0  0  0  0  0  0  # atno 17320 bound_to 7965
  144.9986  140.8611  143.5295 LP  0  0  0  0  0  0  0  0  0  0  0  0  # atno 17321 bound_to 7965
  140.3310  143.3078  152.0687 LP  0  0  0  0  0  0  0  0  0  0  0  0  # atno 17342 bound_to 10162
  139.4932  144.6509  151.6677 LP  0  0  0  0  0  0  0  0  0  0  0  0  # atno 17343 bound_to 10162
  157.6737  130.9075  150.0101 LP  0  0  0  0  0  0  0  0  0  0  0  0  # atno 17370 bound_to 10713
  156.1343  130.3643  149.9681 LP  0  0  0  0  0  0  0  0  0  0  0  0  # atno 17371 bound_to 10713
  140.4401  134.7023  157.4987 LP  0  0  0  0  0  0  0  0  0  0  0  0  # atno 17394 bound_to 11000
  140.0235  134.6512  155.9206 LP  0  0  0  0  0  0  0  0  0  0  0  0  # atno 17395 bound_to 11000

$$$$
