AV-unprocessed.smi:107|AV-procd|sdf|1027|dock3
  -GOLD-   2262018 23D 1   1.00000     0.00000
 Structure written by MMmdl.
 30 31  0  0  0  0  0  0  0  0  2 V2000
  151.5989  144.6346  158.7218 C   0  0  0  0  0  0  0  0  0  0  0  0
  151.6149  143.1205  158.6061 C   0  0  0  0  0  0  0  0  0  0  0  0
  150.7697  142.4503  157.7913 C   0  0  0  0  0  0  0  0  0  0  0  0
  150.7910  141.0707  157.6884 N   0  0  0  0  0  0  0  0  0  0  0  0
  149.8496  140.3539  156.7505 C   0  0  2  0  0  0  0  0  0  0  0  0
  150.4804  140.1706  155.3760 C   0  0  0  0  0  0  0  0  0  0  0  0
  149.2615  140.1801  154.4611 C   0  0  2  0  0  0  0  0  0  0  0  0
  149.5178  140.9806  153.3219 O   0  0  0  0  0  0  0  0  0  0  0  0
  148.0952  140.6800  155.3494 C   0  0  2  0  0  0  0  0  0  0  0  0
  147.2227  141.8044  154.7599 C   0  0  0  0  0  0  0  0  0  0  0  0
  148.0396  142.8346  154.2449 O   0  0  0  0  0  0  0  0  0  0  0  0
  148.7236  141.1386  156.5405 O   0  0  0  0  0  0  0  0  0  0  0  0
  151.7441  140.3246  158.4282 C   0  0  0  0  0  0  0  0  0  0  0  0
  151.7663  139.1024  158.2795 O   0  0  0  0  0  0  0  0  0  0  0  0
  152.5945  140.9911  159.2605 N   0  5  0  0  0  0  0  0  0  0  0  0
  152.5820  142.3485  159.3964 C   0  0  0  0  0  0  0  0  0  0  0  0
  153.3540  142.9368  160.1531 O   0  0  0  0  0  0  0  0  0  0  0  0
  150.8354  145.0735  158.0790 H   0  0  0  0  0  0  0  0  0  0  0  0
  152.5649  145.0484  158.4306 H   0  0  0  0  0  0  0  0  0  0  0  0
  151.3899  144.9360  159.7486 H   0  0  0  0  0  0  0  0  0  0  0  0
  150.0635  143.0134  157.1991 H   0  0  0  0  0  0  0  0  0  0  0  0
  149.5484  139.4206  157.2301 H   0  0  0  0  0  0  0  0  0  0  0  0
  151.1386  141.0167  155.1689 H   0  0  0  0  0  0  0  0  0  0  0  0
  151.0612  139.2488  155.3320 H   0  0  0  0  0  0  0  0  0  0  0  0
  149.0444  139.1677  154.1182 H   0  0  0  0  0  0  0  0  0  0  0  0
  149.8127  140.4196  152.6212 H   0  0  0  0  0  0  0  0  0  0  0  0
  147.4735  139.8193  155.6030 H   0  0  0  0  0  0  0  0  0  0  0  0
  146.5566  141.4237  153.9848 H   0  0  0  0  0  0  0  0  0  0  0  0
  146.6020  142.2542  155.5351 H   0  0  0  0  0  0  0  0  0  0  0  0
  148.8563  142.4553  153.9587 H   0  0  0  0  0  0  0  0  0  0  0  0
  1  2  1  0  0  0  0
  1 18  1  0  0  0  0
  1 19  1  0  0  0  0
  1 20  1  0  0  0  0
  2 16  1  0  0  0  0
  2  3  2  0  0  0  0
  3  4  1  0  0  0  0
  3 21  1  0  0  0  0
  4  5  1  0  0  0  0
  4 13  1  0  0  0  0
  5 12  1  0  0  0  0
  5  6  1  0  0  0  0
  5 22  1  0  0  0  0
  6  7  1  0  0  0  0
  6 23  1  0  0  0  0
  6 24  1  0  0  0  0
  7  8  1  0  0  0  0
  7  9  1  0  0  0  0
  7 25  1  0  0  0  0
  8 26  1  0  0  0  0
  9 10  1  0  0  0  0
  9 12  1  0  0  0  0
  9 27  1  0  0  0  0
 10 11  1  0  0  0  0
 10 28  1  0  0  0  0
 10 29  1  0  0  0  0
 11 30  1  0  0  0  0
 13 14  2  0  0  0  0
 13 15  1  0  0  0  0
 15 16  1  0  0  0  0
 16 17  2  0  0  0  0
M  CHG  1  15  -1
M  END
> <s_m_source_file>
AV-unprocessed.smi

> <i_m_source_file_index>
107

> <i_lp_mmshare_version>
43012

> <i_f3d_flags>
0

> <s_epik_input>
Tz1jMVtuSF1jKD1PKW4oW2NIXWMxW0NIM10pW0NAQEhdMltDSDJdW0NAQEhdKFtPSF0pW0NASF0oTzIpW0NIMl1bT0hd

> <s_epik_cmdline>
J2VwaWtfcHl0aG9uJywgJy1waCcsICc3LjAnLCAnLXRuJywgJzgnLCAnLW1hJywgJzIwMCcsICctbWV0YWxfYmluZGluZycsICctaW1hZScsICc8aW5maWxlLm1hZT4nLCAnLW9tYWUnLCAnPG91dGZpbGUubWFlPic=

> <r_lp_tautomer_probability>
0.999537

> <r_epik_Ionization_Penalty>
3.66603

> <r_epik_Ionization_Penalty_Charging>
1.09773e-07

> <r_epik_Ionization_Penalty_Neutral>
3.66603

> <r_epik_State_Penalty>
3.66562

> <r_epik_Charging_Adjusted_Penalty>
3.66562

> <i_epik_Tot_Q>
-1

> <i_epik_Tot_abs_Q>
1

> <r_epik_Metal_State_Penalty>
0.234536

> <b_epik_Metal_Only>
1

> <s_epik_Chemistry_Notes>
This compound contains an acetal/aminal-like group ( X-CH(R)-Y where X, Y are N, S, or O) that may be acid/base labile, releasing an aldehyde.

> <s_lp_Force_Field>
OPLS_2005

> <r_lp_Energy>
40.7454

> <b_lp_Chiralities_Consistent>
1

> <s_lp_Variant>
AV-unprocessed.smi:107-15

> <Gold.Version>
5.8.1

> <Gold.Id.Protein>
6NUR|6NUR_protein|mol2

> <Gold.PLP.Fitness>
43.5246

> <Gold.PLP.PLP>
-34.2665

> <Gold.PLP.part.hbond>
-4.8499

> <Gold.PLP.part.metal>
0.0000

> <Gold.PLP.part.buried>
-2.6925

> <Gold.PLP.part.nonpolar>
-25.3414

> <Gold.PLP.part.repulsive>
0.0900

> <Gold.PLP.ligand.clash>
0.0000

> <Gold.PLP.ligand.torsion>
0.7658

> <Gold.PLP.Chemscore.Hbond>
2.5885

> <Gold.PLP.Chemscore.CHOScore>
1.0000

> <Gold.PLP.Chemscore.Metal>
0.0000

> <Gold.Chemscore.Hbonds>
donor molecule, donor type, donor heavy atom, donor atom, acceptor molecule, acceptor atom, score
      L1  H     8    26       P1  7957  0.86
      P1  H  8011  8017       L1     8  0.55
      P1  H  8022  8030       L1    11  0.54
      L1  C     3    21       P1  8028  0.89

> <Gold.PLP.Chemscore.Internal.Correction>
0.0242

> <Gold.Rescore>
     Score         DG    S(hbond)    S(metal)    S(lipo)     H(rot)  DE(clash)    DE(int)     intcor
     11.20     -11.92       1.99        0.00      56.93       2.69       0.35       0.37       ----

> <Gold.Chemscore.Fitness>
11.1996

> <Gold.Chemscore.DG>
-11.9175

> <Gold.Chemscore.ZeroCoef>
-5.4800

> <Gold.Chemscore.Hbond>
1.9926

> <Gold.Chemscore.Metal>
0.0000

> <Gold.Chemscore.Lipo>
56.9337

> <Gold.Chemscore.Internal_Hbond>
0.0000

> <Gold.Chemscore.DEClash>
0.3514

> <Gold.Chemscore.DEInternal>
0.3665

> <Gold.Chemscore.Rot>
2.6871

> <Gold.Chemscore.Internal.Correction>
   9.000000E+99

> <Gold.Chemscore.Hbonds>
donor molecule, donor type, donor heavy atom, donor atom, acceptor molecule, acceptor atom, score
      L1  H     8    26       P1  7957  0.80
      P1  H  8011  8017       L1     8  0.03
      P1  H  8022  8030       L1    11  0.04

> <Gold.Chemscore.Hbond.Weighted>
-6.6553

> <Gold.Chemscore.Metal.Weighted>
-0.0000

> <Gold.Chemscore.Lipo.Weighted>
-6.6612

> <Gold.Chemscore.Internal_Hbond.Weighted>
0.0000

> <Gold.Chemscore.DEClash.Weighted>
0.3514

> <Gold.Chemscore.DEInternal.Weighted>
0.3665

> <Gold.Chemscore.Rot.Weighted>
6.8791

> <Gold.Chemscore.Internal.Correction.Weighted>
   9.000000E+99

> <Gold.Protein.RotatedTorsions>
[ 6907 6896 6895 6894 ] final  -11.68 input  -60.11 | X-H torsion
[ 7974 7965 7964 7962 ] final   46.46 input  175.53 | X-H torsion
[ 8008 7997 7996 7995 ] final -177.11 input   59.86 | X-H torsion
[ 10167 10162 10161 10158 ] final   49.26 input  -65.29 | X-H torsion
[ 10718 10713 10712 10709 ] final  -52.21 input   66.30 | X-H torsion
[ 10763 10752 10751 10750 ] final   80.28 input  -60.55 | X-H torsion
[ 11005 11000 10999 10996 ] final  133.77 input  -57.11 | X-H torsion

> <Gold.Protein.ActiveResidues>
 VAL166  LYS551  ARG553  GLY616  TRP617  ASP618  TYR619  PRO620  LYS621  CYS622 
 ASP623  PHE694  ASN695  SER759  ASP760  ASP761  ALA762  ILE779  LEU786  VAL792 
 PHE793  MET794  SER795  GLU796  ALA797  LYS798  CYS799  TRP800  GLU811  SER814 

> <Gold.Protein.RotatedAtoms>
  151.3825  135.0942  159.9500 H   0  0  0  0  0  0  0  0  0  0  0  0  # atno 6907 bound_to 6896
  152.5104  133.9058  159.7474 H   0  0  0  0  0  0  0  0  0  0  0  0  # atno 6908 bound_to 6896
  150.9495  133.6510  159.2803 H   0  0  0  0  0  0  0  0  0  0  0  0  # atno 6909 bound_to 6896
  146.0388  139.4854  142.9791 H   0  0  0  0  0  0  0  0  0  0  0  0  # atno 7974 bound_to 7965
  156.0030  140.1224  157.0529 H   0  0  0  0  0  0  0  0  0  0  0  0  # atno 8008 bound_to 7997
  154.4249  140.1103  156.5792 H   0  0  0  0  0  0  0  0  0  0  0  0  # atno 8009 bound_to 7997
  155.6186  140.3472  155.4647 H   0  0  0  0  0  0  0  0  0  0  0  0  # atno 8010 bound_to 7997
  140.2848  144.3115  150.6255 H   0  0  0  0  0  0  0  0  0  0  0  0  # atno 10167 bound_to 10162
  156.1641  130.4149  149.9747 H   0  0  0  0  0  0  0  0  0  0  0  0  # atno 10718 bound_to 10713
  153.1020  135.4808  154.8884 H   0  0  0  0  0  0  0  0  0  0  0  0  # atno 10763 bound_to 10752
  154.7389  135.3077  154.8765 H   0  0  0  0  0  0  0  0  0  0  0  0  # atno 10764 bound_to 10752
  153.9379  135.6837  153.4798 H   0  0  0  0  0  0  0  0  0  0  0  0  # atno 10765 bound_to 10752
  139.9873  134.9528  156.9772 H   0  0  0  0  0  0  0  0  0  0  0  0  # atno 11005 bound_to 11000
  145.6919  141.0161  143.1550 LP  0  0  0  0  0  0  0  0  0  0  0  0  # atno 17320 bound_to 7965
  144.7064  139.8543  143.7428 LP  0  0  0  0  0  0  0  0  0  0  0  0  # atno 17321 bound_to 7965
  140.5782  143.2175  151.7477 LP  0  0  0  0  0  0  0  0  0  0  0  0  # atno 17342 bound_to 10162
  139.4953  144.4119  152.0071 LP  0  0  0  0  0  0  0  0  0  0  0  0  # atno 17343 bound_to 10162
  156.7567  130.9135  151.3640 LP  0  0  0  0  0  0  0  0  0  0  0  0  # atno 17370 bound_to 10713
  157.6755  130.9090  150.0140 LP  0  0  0  0  0  0  0  0  0  0  0  0  # atno 17371 bound_to 10713
  140.4978  134.1128  155.7244 LP  0  0  0  0  0  0  0  0  0  0  0  0  # atno 17394 bound_to 11000
  141.1535  133.8925  157.2037 LP  0  0  0  0  0  0  0  0  0  0  0  0  # atno 17395 bound_to 11000

$$$$
