AV-unprocessed.smi:1588|AV-procd|sdf|6392|dock5
  -GOLD-   22720 7 23D 1   1.00000     0.00000
 Structure written by MMmdl.
 37 38  0  0  0  0  0  0  0  0  2 V2000
  143.9364  132.1902  149.6898 C   0  0  0  0  0  0  0  0  0  0  0  0
  143.6794  132.6682  151.1253 C   0  0  0  0  0  0  0  0  0  0  0  0
  143.5180  134.1392  151.2058 N   0  3  2  0  0  0  0  0  0  0  0  0
  144.5367  134.9068  150.4502 C   0  0  0  0  0  0  0  0  0  0  0  0
  145.0381  136.0158  151.3820 C   0  0  0  0  0  0  0  0  0  0  0  0
  143.9498  136.1363  152.4490 C   0  0  2  0  0  0  0  0  0  0  0  0
  144.4020  136.7600  153.7834 C   0  0  0  0  0  0  0  0  0  0  0  0
  144.7834  138.1609  153.6314 N   0  0  0  0  0  0  0  0  0  0  0  0
  145.9765  138.6815  153.9528 C   0  0  0  0  0  0  0  0  0  0  0  0
  146.9058  138.0200  154.4157 O   0  0  0  0  0  0  0  0  0  0  0  0
  146.0185  139.9995  153.6984 N   0  0  0  0  0  0  0  0  0  0  0  0
  147.1114  140.8806  153.8975 C   0  0  0  0  0  0  0  0  0  0  0  0
  148.4580  140.5916  153.5459 C   0  0  0  0  0  0  0  0  0  0  0  0
  149.2637  141.6001  153.8468 N   0  0  0  0  0  0  0  0  0  0  0  0
  148.4443  142.5302  154.3870 N   0  0  0  0  0  0  0  0  0  0  0  0
  147.1256  142.1355  154.4392 C   0  0  0  0  0  0  0  0  0  0  0  0
  143.4751  134.6892  152.5785 C   0  0  0  0  0  0  0  0  0  0  0  0
  148.7958  143.4202  154.7108 H   0  0  0  0  0  0  0  0  0  0  0  0
  144.1033  131.1132  149.6670 H   0  0  0  0  0  0  0  0  0  0  0  0
  144.8189  132.6705  149.2663 H   0  0  0  0  0  0  0  0  0  0  0  0
  143.0905  132.4033  149.0358 H   0  0  0  0  0  0  0  0  0  0  0  0
  142.8008  132.1727  151.5409 H   0  0  0  0  0  0  0  0  0  0  0  0
  144.5275  132.3758  151.7462 H   0  0  0  0  0  0  0  0  0  0  0  0
  145.3657  134.2823  150.1134 H   0  0  0  0  0  0  0  0  0  0  0  0
  144.0619  135.3298  149.5644 H   0  0  0  0  0  0  0  0  0  0  0  0
  145.9769  135.7037  151.8423 H   0  0  0  0  0  0  0  0  0  0  0  0
  145.2223  136.9534  150.8567 H   0  0  0  0  0  0  0  0  0  0  0  0
  143.1292  136.7280  152.0388 H   0  0  0  0  0  0  0  0  0  0  0  0
  143.5807  136.7187  154.4993 H   0  0  0  0  0  0  0  0  0  0  0  0
  145.2166  136.1818  154.2233 H   0  0  0  0  0  0  0  0  0  0  0  0
  144.0815  138.7837  153.2587 H   0  0  0  0  0  0  0  0  0  0  0  0
  145.1814  140.4185  153.3206 H   0  0  0  0  0  0  0  0  0  0  0  0
  148.8693  139.7023  153.0913 H   0  0  0  0  0  0  0  0  0  0  0  0
  146.3486  142.7674  154.8433 H   0  0  0  0  0  0  0  0  0  0  0  0
  142.4753  134.6176  153.0079 H   0  0  0  0  0  0  0  0  0  0  0  0
  144.1582  134.1306  153.2210 H   0  0  0  0  0  0  0  0  0  0  0  0
  142.6316  134.3662  150.7776 H   0  0  0  0  0  0  0  0  0  0  0  0
  1  2  1  0  0  0  0
  1 19  1  0  0  0  0
  1 20  1  0  0  0  0
  1 21  1  0  0  0  0
  2  3  1  0  0  0  0
  2 22  1  0  0  0  0
  2 23  1  0  0  0  0
  3 17  1  0  0  0  0
  3  4  1  0  0  0  0
  3 37  1  0  0  0  0
  4  5  1  0  0  0  0
  4 24  1  0  0  0  0
  4 25  1  0  0  0  0
  5  6  1  0  0  0  0
  5 26  1  0  0  0  0
  5 27  1  0  0  0  0
  6  7  1  0  0  0  0
  6 17  1  0  0  0  0
  6 28  1  0  0  0  0
  7  8  1  0  0  0  0
  7 29  1  0  0  0  0
  7 30  1  0  0  0  0
  8  9  1  0  0  0  0
  8 31  1  0  0  0  0
  9 10  2  0  0  0  0
  9 11  1  0  0  0  0
 11 12  1  0  0  0  0
 11 32  1  0  0  0  0
 12 16  2  0  0  0  0
 12 13  1  0  0  0  0
 13 14  2  0  0  0  0
 13 33  1  0  0  0  0
 14 15  1  0  0  0  0
 15 18  1  0  0  0  0
 15 16  1  0  0  0  0
 16 34  1  0  0  0  0
 17 35  1  0  0  0  0
 17 36  1  0  0  0  0
M  CHG  1   3   1
M  END
> <s_m_source_file>
AV-unprocessed.smi

> <i_m_source_file_index>
1588

> <i_lp_mmshare_version>
43012

> <i_f3d_flags>
0

> <s_epik_input>
W0NIM11bQ0gyXU4xW0NIMl1bQ0gyXVtDQEhdKFtDSDJdMSlbQ0gyXVtOSF1DKD1PKVtOSF1jMltjSF1uW25IXVtjSF0y

> <s_epik_cmdline>
J2VwaWtfcHl0aG9uJywgJy1waCcsICc3LjAnLCAnLXRuJywgJzgnLCAnLW1hJywgJzIwMCcsICctbWV0YWxfYmluZGluZycsICctaW1hZScsICc8aW5maWxlLm1hZT4nLCAnLW9tYWUnLCAnPG91dGZpbGUubWFlPic=

> <r_lp_tautomer_probability>
0.5

> <r_epik_Ionization_Penalty>
0.000628417

> <r_epik_Ionization_Penalty_Charging>
0.000582718

> <r_epik_Ionization_Penalty_Neutral>
4.56984e-05

> <r_epik_State_Penalty>
0.000366292

> <r_epik_Charging_Adjusted_Penalty>
0.00094901

> <i_epik_Tot_Q>
1

> <i_epik_Tot_abs_Q>
1

> <r_epik_Metal_State_Penalty>
-0

> <b_epik_Metal_Only>
0

> <s_lp_Force_Field>
OPLS_2005

> <r_lp_Energy>
30.9502

> <b_lp_Chiralities_Consistent>
1

> <s_lp_Variant>
AV-unprocessed.smi:1588-4

> <Gold.Version>
5.8.1

> <Gold.Id.Protein>
6NUR|6NUR_protein|mol2

> <Gold.PLP.Fitness>
48.4950

> <Gold.PLP.PLP>
-30.5269

> <Gold.PLP.part.hbond>
-5.8698

> <Gold.PLP.part.metal>
0.0000

> <Gold.PLP.part.buried>
-1.0676

> <Gold.PLP.part.nonpolar>
-24.1420

> <Gold.PLP.part.repulsive>
1.5612

> <Gold.PLP.ligand.clash>
0.0000

> <Gold.PLP.ligand.torsion>
0.4468

> <Gold.PLP.Chemscore.Hbond>
5.5680

> <Gold.PLP.Chemscore.CHOScore>
0.7154

> <Gold.PLP.Chemscore.Metal>
0.0000

> <Gold.Chemscore.Hbonds>
donor molecule, donor type, donor heavy atom, donor atom, acceptor molecule, acceptor atom, score
      L1  H     3    37       P1 10186  2.00
      L1  H     8    31       P1 10175  0.98
      L1  H    11    32       P1 10175  1.00
      L1  H    15    18       P1  8028  1.00
      P1  H  8011  8017       L1    14  0.67
      L1  C    13    33       P1  7957  0.66

> <Gold.PLP.Chemscore.Internal.Correction>
0.0113

> <Gold.Rescore>
     Score         DG    S(hbond)    S(metal)    S(lipo)     H(rot)  DE(clash)    DE(int)     intcor
     20.08     -21.65       3.79        0.00      64.46       1.58       1.15       0.42       ----

> <Gold.Chemscore.Fitness>
20.0841

> <Gold.Chemscore.DG>
-21.6501

> <Gold.Chemscore.ZeroCoef>
-5.4800

> <Gold.Chemscore.Hbond>
3.7906

> <Gold.Chemscore.Metal>
0.0000

> <Gold.Chemscore.Lipo>
64.4637

> <Gold.Chemscore.Internal_Hbond>
0.0000

> <Gold.Chemscore.DEClash>
1.1477

> <Gold.Chemscore.DEInternal>
0.4183

> <Gold.Chemscore.Rot>
1.5753

> <Gold.Chemscore.Internal.Correction>
   9.000000E+99

> <Gold.Chemscore.Hbonds>
donor molecule, donor type, donor heavy atom, donor atom, acceptor molecule, acceptor atom, score
      L1  H     3    37       P1 10186  0.28
      L1  H     8    31       P1 10175  0.93
      L1  H    11    32       P1 10175  0.98
      L1  H    15    18       P1  8028  0.97
      P1  H  8011  8017       L1    14  0.15

> <Gold.Chemscore.Hbond.Weighted>
-12.6607

> <Gold.Chemscore.Metal.Weighted>
-0.0000

> <Gold.Chemscore.Lipo.Weighted>
-7.5422

> <Gold.Chemscore.Internal_Hbond.Weighted>
0.0000

> <Gold.Chemscore.DEClash.Weighted>
1.1477

> <Gold.Chemscore.DEInternal.Weighted>
0.4183

> <Gold.Chemscore.Rot.Weighted>
4.0328

> <Gold.Chemscore.Internal.Correction.Weighted>
   9.000000E+99

> <Gold.Protein.RotatedTorsions>
[ 6907 6896 6895 6894 ] final    0.79 input  -60.11 | X-H torsion
[ 7974 7965 7964 7962 ] final -130.37 input  175.53 | X-H torsion
[ 8008 7997 7996 7995 ] final -136.40 input   59.86 | X-H torsion
[ 10167 10162 10161 10158 ] final   36.71 input  -65.29 | X-H torsion
[ 10718 10713 10712 10709 ] final   68.19 input   66.30 | X-H torsion
[ 10763 10752 10751 10750 ] final   56.14 input  -60.55 | X-H torsion
[ 11005 11000 10999 10996 ] final  -89.25 input  -57.11 | X-H torsion

> <Gold.Protein.ActiveResidues>
 VAL166  LYS551  ARG553  GLY616  TRP617  ASP618  TYR619  PRO620  LYS621  CYS622 
 ASP623  PHE694  ASN695  SER759  ASP760  ASP761  ALA762  ILE779  LEU786  VAL792 
 PHE793  MET794  SER795  GLU796  ALA797  LYS798  CYS799  TRP800  GLU811  SER814 

> <Gold.Protein.RotatedAtoms>
  151.5822  135.1058  160.0019 H   0  0  0  0  0  0  0  0  0  0  0  0  # atno 6907 bound_to 6896
  152.4348  133.7338  159.6613 H   0  0  0  0  0  0  0  0  0  0  0  0  # atno 6908 bound_to 6896
  150.8245  133.8126  159.3147 H   0  0  0  0  0  0  0  0  0  0  0  0  # atno 6909 bound_to 6896
  144.9481  140.7314  143.4805 H   0  0  0  0  0  0  0  0  0  0  0  0  # atno 7974 bound_to 7965
  155.3946  140.0502  157.3039 H   0  0  0  0  0  0  0  0  0  0  0  0  # atno 8008 bound_to 7997
  154.5020  140.2160  155.9289 H   0  0  0  0  0  0  0  0  0  0  0  0  # atno 8009 bound_to 7997
  156.1479  140.3142  155.8605 H   0  0  0  0  0  0  0  0  0  0  0  0  # atno 8010 bound_to 7997
  140.4102  144.1603  150.6139 H   0  0  0  0  0  0  0  0  0  0  0  0  # atno 10167 bound_to 10162
  157.6275  130.9361  150.0344 H   0  0  0  0  0  0  0  0  0  0  0  0  # atno 10718 bound_to 10713
  152.9827  135.5686  154.5181 H   0  0  0  0  0  0  0  0  0  0  0  0  # atno 10763 bound_to 10752
  154.4673  135.2783  155.1670 H   0  0  0  0  0  0  0  0  0  0  0  0  # atno 10764 bound_to 10752
  154.3233  135.6264  153.5571 H   0  0  0  0  0  0  0  0  0  0  0  0  # atno 10765 bound_to 10752
  141.1588  133.7619  156.9568 H   0  0  0  0  0  0  0  0  0  0  0  0  # atno 11005 bound_to 11000
  145.2886  139.1892  143.4752 LP  0  0  0  0  0  0  0  0  0  0  0  0  # atno 17320 bound_to 7965
  146.3311  140.2859  142.8612 LP  0  0  0  0  0  0  0  0  0  0  0  0  # atno 17321 bound_to 7965
  140.4646  143.2436  151.9173 LP  0  0  0  0  0  0  0  0  0  0  0  0  # atno 17342 bound_to 10162
  139.4783  144.5432  151.8497 LP  0  0  0  0  0  0  0  0  0  0  0  0  # atno 17343 bound_to 10162
  156.1456  130.3642  149.9515 LP  0  0  0  0  0  0  0  0  0  0  0  0  # atno 17370 bound_to 10713
  156.7546  130.9128  151.3639 LP  0  0  0  0  0  0  0  0  0  0  0  0  # atno 17371 bound_to 10713
  140.1220  134.9411  157.2216 LP  0  0  0  0  0  0  0  0  0  0  0  0  # atno 17394 bound_to 11000
  140.3060  134.3077  155.7278 LP  0  0  0  0  0  0  0  0  0  0  0  0  # atno 17395 bound_to 11000

$$$$
