AV-unprocessed.smi:3199|AV-procd|sdf|12234|dock8
  -GOLD-   2272018 63D 1   1.00000     0.00000
 Structure written by MMmdl.
 36 37  0  0  0  0  0  0  0  0  2 V2000
  146.4884  138.5966  151.9784 C   0  0  0  0  0  0  0  0  0  0  0  0
  147.3777  139.3953  152.9081 C   0  0  0  0  0  0  0  0  0  0  0  0
  147.0512  140.7035  153.3257 C   0  0  0  0  0  0  0  0  0  0  0  0
  147.9304  141.3907  154.1881 C   0  0  0  0  0  0  0  0  0  0  0  0
  149.1187  140.7580  154.6141 C   0  0  0  0  0  0  0  0  0  0  0  0
  150.0880  141.4749  155.5337 C   0  0  0  0  0  0  0  0  0  0  0  0
  150.4622  140.6321  156.7600 C   0  0  0  0  0  0  0  0  0  0  0  0
  151.2954  141.4037  157.6708 N   0  0  0  0  0  0  0  0  0  0  0  0
  152.4249  140.9537  158.2353 C   0  0  0  0  0  0  0  0  0  0  0  0
  152.8734  139.8248  158.0336 O   0  0  0  0  0  0  0  0  0  0  0  0
  153.1585  141.9416  159.1509 C   0  0  1  0  0  0  0  0  0  0  0  0
  152.4559  143.3011  159.3366 C   0  0  0  0  0  0  0  0  0  0  0  0
  152.0338  143.2927  160.7934 C   0  0  0  0  0  0  0  0  0  0  0  0
  153.0847  142.3882  161.4212 C   0  0  0  0  0  0  0  0  0  0  0  0
  153.2379  141.3639  160.4522 O   0  0  0  0  0  0  0  0  0  0  0  0
  149.3912  139.4472  154.1672 C   0  0  0  0  0  0  0  0  0  0  0  0
  148.5229  138.8223  153.3416 N   0  3  0  0  0  0  0  0  0  0  0  0
  145.5621  139.1312  151.7656 H   0  0  0  0  0  0  0  0  0  0  0  0
  146.2314  137.6365  152.4265 H   0  0  0  0  0  0  0  0  0  0  0  0
  146.9987  138.4111  151.0328 H   0  0  0  0  0  0  0  0  0  0  0  0
  146.1402  141.1778  152.9902 H   0  0  0  0  0  0  0  0  0  0  0  0
  147.6943  142.3928  154.5160 H   0  0  0  0  0  0  0  0  0  0  0  0
  150.9856  141.7317  154.9689 H   0  0  0  0  0  0  0  0  0  0  0  0
  149.6438  142.4198  155.8506 H   0  0  0  0  0  0  0  0  0  0  0  0
  149.5621  140.3074  157.2848 H   0  0  0  0  0  0  0  0  0  0  0  0
  150.9976  139.7336  156.4479 H   0  0  0  0  0  0  0  0  0  0  0  0
  151.0011  142.3462  157.8820 H   0  0  0  0  0  0  0  0  0  0  0  0
  154.1707  142.1070  158.7774 H   0  0  0  0  0  0  0  0  0  0  0  0
  153.1695  144.1073  159.1620 H   0  0  0  0  0  0  0  0  0  0  0  0
  151.6104  143.4699  158.6686 H   0  0  0  0  0  0  0  0  0  0  0  0
  152.0050  144.2881  161.2373 H   0  0  0  0  0  0  0  0  0  0  0  0
  151.0457  142.8419  160.8950 H   0  0  0  0  0  0  0  0  0  0  0  0
  154.0307  142.9166  161.5497 H   0  0  0  0  0  0  0  0  0  0  0  0
  152.7762  141.9873  162.3870 H   0  0  0  0  0  0  0  0  0  0  0  0
  150.2717  138.8839  154.4407 H   0  0  0  0  0  0  0  0  0  0  0  0
  148.7426  137.8758  153.0300 H   0  0  0  0  0  0  0  0  0  0  0  0
  1  2  1  0  0  0  0
  1 18  1  0  0  0  0
  1 19  1  0  0  0  0
  1 20  1  0  0  0  0
  2 17  1  0  0  0  0
  2  3  2  0  0  0  0
  3  4  1  0  0  0  0
  3 21  1  0  0  0  0
  4  5  2  0  0  0  0
  4 22  1  0  0  0  0
  5  6  1  0  0  0  0
  5 16  1  0  0  0  0
  6  7  1  0  0  0  0
  6 23  1  0  0  0  0
  6 24  1  0  0  0  0
  7  8  1  0  0  0  0
  7 25  1  0  0  0  0
  7 26  1  0  0  0  0
  8  9  1  0  0  0  0
  8 27  1  0  0  0  0
  9 10  2  0  0  0  0
  9 11  1  0  0  0  0
 11 15  1  0  0  0  0
 11 12  1  0  0  0  0
 11 28  1  0  0  0  0
 12 13  1  0  0  0  0
 12 29  1  0  0  0  0
 12 30  1  0  0  0  0
 13 14  1  0  0  0  0
 13 31  1  0  0  0  0
 13 32  1  0  0  0  0
 14 15  1  0  0  0  0
 14 33  1  0  0  0  0
 14 34  1  0  0  0  0
 16 17  2  0  0  0  0
 16 35  1  0  0  0  0
 17 36  1  0  0  0  0
M  CHG  1  17   1
M  END
> <s_m_source_file>
AV-unprocessed.smi

> <i_m_source_file_index>
3199

> <i_lp_mmshare_version>
43012

> <i_f3d_flags>
0

> <s_epik_input>
W0NIM11jMVtjSF1bY0hdYyhbY0hdbjEpW0NIMl1bQ0gyXVtOSF1DKD1PKVtDQEBIXTJbQ0gyXVtDSDJdW0NIMl1PMg==

> <s_epik_cmdline>
J2VwaWtfcHl0aG9uJywgJy1waCcsICc3LjAnLCAnLXRuJywgJzgnLCAnLW1hJywgJzIwMCcsICctbWV0YWxfYmluZGluZycsICctaW1hZScsICc8aW5maWxlLm1hZT4nLCAnLW9tYWUnLCAnPG91dGZpbGUubWFlPic=

> <r_epik_Ionization_Penalty>
1.4683

> <r_epik_Ionization_Penalty_Charging>
1.4683

> <r_epik_Ionization_Penalty_Neutral>
5.71603e-08

> <r_epik_State_Penalty>
1.5559

> <r_epik_Charging_Adjusted_Penalty>
3.0242

> <i_epik_Tot_Q>
1

> <i_epik_Tot_abs_Q>
1

> <r_epik_Metal_State_Penalty>
1.60421

> <b_epik_Metal_Only>
0

> <s_lp_Force_Field>
OPLS_2005

> <r_lp_Energy>
24.4706

> <b_lp_Chiralities_Consistent>
1

> <s_lp_Variant>
AV-unprocessed.smi:3199-4

> <Gold.Version>
5.8.1

> <Gold.Id.Protein>
6NUR|6NUR_protein|mol2

> <Gold.PLP.Fitness>
48.6242

> <Gold.PLP.PLP>
-39.9905

> <Gold.PLP.part.hbond>
-3.0000

> <Gold.PLP.part.metal>
0.0000

> <Gold.PLP.part.buried>
-2.3459

> <Gold.PLP.part.nonpolar>
-35.1081

> <Gold.PLP.part.repulsive>
0.1238

> <Gold.PLP.ligand.clash>
0.0000

> <Gold.PLP.ligand.torsion>
0.1614

> <Gold.PLP.Chemscore.Hbond>
2.9825

> <Gold.PLP.Chemscore.CHOScore>
0.0000

> <Gold.PLP.Chemscore.Metal>
0.0000

> <Gold.Chemscore.Hbonds>
donor molecule, donor type, donor heavy atom, donor atom, acceptor molecule, acceptor atom, score
      L1  H    17    36       P1  7948  2.00
      P1  H  7997  8010       L1    10  0.98

> <Gold.PLP.Chemscore.Internal.Correction>
0.0089

> <Gold.Rescore>
     Score         DG    S(hbond)    S(metal)    S(lipo)     H(rot)  DE(clash)    DE(int)     intcor
     18.81     -19.95       1.86        0.00     104.79       1.56       1.02       0.12       ----

> <Gold.Chemscore.Fitness>
18.8126

> <Gold.Chemscore.DG>
-19.9534

> <Gold.Chemscore.ZeroCoef>
-5.4800

> <Gold.Chemscore.Hbond>
1.8591

> <Gold.Chemscore.Metal>
0.0000

> <Gold.Chemscore.Lipo>
104.7938

> <Gold.Chemscore.Internal_Hbond>
0.0000

> <Gold.Chemscore.DEClash>
1.0248

> <Gold.Chemscore.DEInternal>
0.1159

> <Gold.Chemscore.Rot>
1.5613

> <Gold.Chemscore.Internal.Correction>
   9.000000E+99

> <Gold.Chemscore.Hbonds>
donor molecule, donor type, donor heavy atom, donor atom, acceptor molecule, acceptor atom, score
      L1  H    17    36       P1  7948  0.95
      P1  H  7997  8010       L1    10  0.53

> <Gold.Chemscore.Hbond.Weighted>
-6.2094

> <Gold.Chemscore.Metal.Weighted>
-0.0000

> <Gold.Chemscore.Lipo.Weighted>
-12.2609

> <Gold.Chemscore.Internal_Hbond.Weighted>
0.0000

> <Gold.Chemscore.DEClash.Weighted>
1.0248

> <Gold.Chemscore.DEInternal.Weighted>
0.1159

> <Gold.Chemscore.Rot.Weighted>
3.9969

> <Gold.Chemscore.Internal.Correction.Weighted>
   9.000000E+99

> <Gold.Protein.RotatedTorsions>
[ 6907 6896 6895 6894 ] final  116.09 input  -60.11 | X-H torsion
[ 7974 7965 7964 7962 ] final   49.25 input  175.53 | X-H torsion
[ 8008 7997 7996 7995 ] final   26.49 input   59.86 | X-H torsion
[ 10167 10162 10161 10158 ] final  -23.16 input  -65.29 | X-H torsion
[ 10718 10713 10712 10709 ] final  -44.88 input   66.30 | X-H torsion
[ 10763 10752 10751 10750 ] final -172.30 input  -60.55 | X-H torsion
[ 11005 11000 10999 10996 ] final   51.43 input  -57.11 | X-H torsion

> <Gold.Protein.ActiveResidues>
 VAL166  LYS551  ARG553  GLY616  TRP617  ASP618  TYR619  PRO620  LYS621  CYS622 
 ASP623  PHE694  ASN695  SER759  ASP760  ASP761  ALA762  ILE779  LEU786  VAL792 
 PHE793  MET794  SER795  GLU796  ALA797  LYS798  CYS799  TRP800  GLU811  SER814 

> <Gold.Protein.RotatedAtoms>
  152.4700  133.8009  159.6951 H   0  0  0  0  0  0  0  0  0  0  0  0  # atno 6907 bound_to 6896
  150.8685  133.7531  159.2975 H   0  0  0  0  0  0  0  0  0  0  0  0  # atno 6908 bound_to 6896
  151.5073  135.1067  159.9897 H   0  0  0  0  0  0  0  0  0  0  0  0  # atno 6909 bound_to 6896
  146.0127  139.4561  142.9946 H   0  0  0  0  0  0  0  0  0  0  0  0  # atno 7974 bound_to 7965
  155.0281  140.3155  155.4768 H   0  0  0  0  0  0  0  0  0  0  0  0  # atno 8008 bound_to 7997
  156.2879  140.2185  156.5344 H   0  0  0  0  0  0  0  0  0  0  0  0  # atno 8009 bound_to 7997
  154.7394  140.0475  157.0785 H   0  0  0  0  0  0  0  0  0  0  0  0  # atno 8010 bound_to 7997
  140.7287  143.4469  151.0574 H   0  0  0  0  0  0  0  0  0  0  0  0  # atno 10167 bound_to 10162
  156.2340  130.4174  149.8840 H   0  0  0  0  0  0  0  0  0  0  0  0  # atno 10718 bound_to 10713
  154.6208  135.2875  155.0328 H   0  0  0  0  0  0  0  0  0  0  0  0  # atno 10763 bound_to 10752
  154.1523  135.6501  153.4970 H   0  0  0  0  0  0  0  0  0  0  0  0  # atno 10764 bound_to 10752
  153.0235  135.5358  154.6997 H   0  0  0  0  0  0  0  0  0  0  0  0  # atno 10765 bound_to 10752
  140.0933  134.5180  155.8831 H   0  0  0  0  0  0  0  0  0  0  0  0  # atno 11005 bound_to 11000
  145.7317  141.0040  143.1348 LP  0  0  0  0  0  0  0  0  0  0  0  0  # atno 17320 bound_to 7965
  144.6959  139.8993  143.7457 LP  0  0  0  0  0  0  0  0  0  0  0  0  # atno 17321 bound_to 7965
  139.8141  143.7910  152.3173 LP  0  0  0  0  0  0  0  0  0  0  0  0  # atno 17342 bound_to 10162
  139.7970  144.7389  150.9877 LP  0  0  0  0  0  0  0  0  0  0  0  0  # atno 17343 bound_to 10162
  156.6445  130.8718  151.3520 LP  0  0  0  0  0  0  0  0  0  0  0  0  # atno 17370 bound_to 10713
  157.7146  130.9481  150.1209 LP  0  0  0  0  0  0  0  0  0  0  0  0  # atno 17371 bound_to 10713
  141.2084  133.6674  156.6372 LP  0  0  0  0  0  0  0  0  0  0  0  0  # atno 17394 bound_to 11000
  140.3321  134.7919  157.4334 LP  0  0  0  0  0  0  0  0  0  0  0  0  # atno 17395 bound_to 11000

$$$$
