AV-unprocessed.smi:2790|AV-procd|sdf|10768|dock2
  -GOLD-   2272015203D 1   1.00000     0.00000
 Structure written by MMmdl.
 45 46  0  0  0  0  0  0  0  0  1 V2000
  147.7296  134.0586  162.0596 C   0  0  0  0  0  0  0  0  0  0  0  0
  147.4924  135.4494  161.6745 N   0  0  0  0  0  0  0  0  0  0  0  0
  147.7516  136.3229  162.8135 C   0  0  0  0  0  0  0  0  0  0  0  0
  148.3201  135.8752  160.5221 C   0  0  0  0  0  0  0  0  0  0  0  0
  147.6892  136.9647  159.6471 C   0  0  0  0  0  0  0  0  0  0  0  0
  146.6092  137.4638  159.9620 O   0  0  0  0  0  0  0  0  0  0  0  0
  148.3728  137.3163  158.5495 N   0  0  0  0  0  0  0  0  0  0  0  0
  147.9644  138.3486  157.6029 C   0  0  0  0  0  0  0  0  0  0  0  0
  149.0677  138.6536  156.5577 C   0  0  0  0  0  0  0  0  0  0  0  0
  148.4742  139.5714  155.4619 C   0  0  0  0  0  0  0  0  0  0  0  0
  147.3621  139.1934  154.6683 C   0  0  0  0  0  0  0  0  0  0  0  0
  146.8603  140.0953  153.7094 C   0  0  0  0  0  0  0  0  0  0  0  0
  147.3739  141.3248  153.5049 N   0  0  0  0  0  0  0  0  0  0  0  0
  148.4176  141.6994  154.2711 C   0  0  0  0  0  0  0  0  0  0  0  0
  148.9934  140.8726  155.2556 C   0  0  0  0  0  0  0  0  0  0  0  0
  150.2583  139.3353  157.2927 C   0  0  0  0  0  0  0  0  0  0  0  0
  151.4783  139.5591  156.3815 C   0  0  0  0  0  0  0  0  0  0  0  0
  151.9832  138.2267  155.8109 C   0  0  0  0  0  0  0  0  0  0  0  0
  150.8571  137.4726  155.0913 C   0  0  0  0  0  0  0  0  0  0  0  0
  149.6219  137.3051  156.0008 C   0  0  0  0  0  0  0  0  0  0  0  0
  147.4513  133.3658  161.2651 H   0  0  0  0  0  0  0  0  0  0  0  0
  147.1291  133.7930  162.9303 H   0  0  0  0  0  0  0  0  0  0  0  0
  148.7784  133.8884  162.3079 H   0  0  0  0  0  0  0  0  0  0  0  0
  147.5359  137.3617  162.5606 H   0  0  0  0  0  0  0  0  0  0  0  0
  148.7913  136.2606  163.1394 H   0  0  0  0  0  0  0  0  0  0  0  0
  147.1145  136.0572  163.6579 H   0  0  0  0  0  0  0  0  0  0  0  0
  149.2743  136.2606  160.8847 H   0  0  0  0  0  0  0  0  0  0  0  0
  148.5517  135.0107  159.8968 H   0  0  0  0  0  0  0  0  0  0  0  0
  149.2496  136.8488  158.3679 H   0  0  0  0  0  0  0  0  0  0  0  0
  147.0552  138.0105  157.1033 H   0  0  0  0  0  0  0  0  0  0  0  0
  147.6982  139.2570  158.1464 H   0  0  0  0  0  0  0  0  0  0  0  0
  146.8784  138.2354  154.7726 H   0  0  0  0  0  0  0  0  0  0  0  0
  146.0169  139.8213  153.0932 H   0  0  0  0  0  0  0  0  0  0  0  0
  148.8029  142.6939  154.1008 H   0  0  0  0  0  0  0  0  0  0  0  0
  149.8137  141.2546  155.8427 H   0  0  0  0  0  0  0  0  0  0  0  0
  149.9641  140.2768  157.7540 H   0  0  0  0  0  0  0  0  0  0  0  0
  150.5723  138.7051  158.1264 H   0  0  0  0  0  0  0  0  0  0  0  0
  151.2221  140.2394  155.5685 H   0  0  0  0  0  0  0  0  0  0  0  0
  152.2768  140.0419  156.9457 H   0  0  0  0  0  0  0  0  0  0  0  0
  152.8136  138.4017  155.1262 H   0  0  0  0  0  0  0  0  0  0  0  0
  152.3746  137.6091  156.6204 H   0  0  0  0  0  0  0  0  0  0  0  0
  150.5932  138.0044  154.1778 H   0  0  0  0  0  0  0  0  0  0  0  0
  151.2162  136.4926  154.7759 H   0  0  0  0  0  0  0  0  0  0  0  0
  149.9148  136.6716  156.8396 H   0  0  0  0  0  0  0  0  0  0  0  0
  148.8500  136.7354  155.4842 H   0  0  0  0  0  0  0  0  0  0  0  0
  1  2  1  0  0  0  0
  1 21  1  0  0  0  0
  1 22  1  0  0  0  0
  1 23  1  0  0  0  0
  2  3  1  0  0  0  0
  2  4  1  0  0  0  0
  3 24  1  0  0  0  0
  3 25  1  0  0  0  0
  3 26  1  0  0  0  0
  4  5  1  0  0  0  0
  4 27  1  0  0  0  0
  4 28  1  0  0  0  0
  5  6  2  0  0  0  0
  5  7  1  0  0  0  0
  7  8  1  0  0  0  0
  7 29  1  0  0  0  0
  8  9  1  0  0  0  0
  8 30  1  0  0  0  0
  8 31  1  0  0  0  0
  9 20  1  0  0  0  0
  9 10  1  0  0  0  0
  9 16  1  0  0  0  0
 10 15  1  0  0  0  0
 10 11  2  0  0  0  0
 11 12  1  0  0  0  0
 11 32  1  0  0  0  0
 12 13  2  0  0  0  0
 12 33  1  0  0  0  0
 13 14  1  0  0  0  0
 14 15  2  0  0  0  0
 14 34  1  0  0  0  0
 15 35  1  0  0  0  0
 16 17  1  0  0  0  0
 16 36  1  0  0  0  0
 16 37  1  0  0  0  0
 17 18  1  0  0  0  0
 17 38  1  0  0  0  0
 17 39  1  0  0  0  0
 18 19  1  0  0  0  0
 18 40  1  0  0  0  0
 18 41  1  0  0  0  0
 19 20  1  0  0  0  0
 19 42  1  0  0  0  0
 19 43  1  0  0  0  0
 20 44  1  0  0  0  0
 20 45  1  0  0  0  0
M  END
> <s_m_source_file>
AV-unprocessed.smi

> <i_m_source_file_index>
2790

> <i_lp_mmshare_version>
43012

> <i_f3d_flags>
0

> <s_epik_input>
W0NIM11OKFtDSDNdKVtDSDJdQyg9TylbTkhdW0NIMl1DMShbQ0gyXVtDSDJdW0NIMl1bQ0gyXVtDSDJdMSljMltjSF1bY0hdbltjSF1bY0hdMg==

> <s_epik_cmdline>
J2VwaWtfcHl0aG9uJywgJy1waCcsICc3LjAnLCAnLXRuJywgJzgnLCAnLW1hJywgJzIwMCcsICctbWV0YWxfYmluZGluZycsICctaW1hZScsICc8aW5maWxlLm1hZT4nLCAnLW9tYWUnLCAnPG91dGZpbGUubWFlPic=

> <r_epik_Ionization_Penalty>
1.73486

> <r_epik_Ionization_Penalty_Charging>
0

> <r_epik_Ionization_Penalty_Neutral>
1.73486

> <r_epik_State_Penalty>
1.84779

> <r_epik_Charging_Adjusted_Penalty>
1.84779

> <i_epik_Tot_Q>
0

> <i_epik_Tot_abs_Q>
0

> <r_epik_Metal_State_Penalty>
1.83713

> <b_epik_Metal_Only>
0

> <s_lp_Force_Field>
OPLS_2005

> <r_lp_Energy>
21.958

> <b_lp_Chiralities_Consistent>
1

> <s_lp_Variant>
AV-unprocessed.smi:2790-3

> <Gold.Version>
5.8.1

> <Gold.Id.Protein>
6NUR|6NUR_protein|mol2

> <Gold.PLP.Fitness>
34.9978

> <Gold.PLP.PLP>
-26.8781

> <Gold.PLP.part.hbond>
-1.0000

> <Gold.PLP.part.metal>
0.0000

> <Gold.PLP.part.buried>
-4.3389

> <Gold.PLP.part.nonpolar>
-22.0176

> <Gold.PLP.part.repulsive>
0.3016

> <Gold.PLP.ligand.clash>
0.0000

> <Gold.PLP.ligand.torsion>
0.4743

> <Gold.PLP.Chemscore.Hbond>
1.0000

> <Gold.PLP.Chemscore.CHOScore>
2.0000

> <Gold.PLP.Chemscore.Metal>
0.0000

> <Gold.Chemscore.Hbonds>
donor molecule, donor type, donor heavy atom, donor atom, acceptor molecule, acceptor atom, score
      P1  H  6934  6947       L1     6  1.00
      L1  C    12    33       P1 10175  1.00
      L1  C    14    34       P1  8028  1.00

> <Gold.PLP.Chemscore.Internal.Correction>
0.0682

> <Gold.Rescore>
     Score         DG    S(hbond)    S(metal)    S(lipo)     H(rot)  DE(clash)    DE(int)     intcor
     11.73     -13.30       0.81        0.00      77.61       1.55       0.17       1.41       ----

> <Gold.Chemscore.Fitness>
11.7279

> <Gold.Chemscore.DG>
-13.3026

> <Gold.Chemscore.ZeroCoef>
-5.4800

> <Gold.Chemscore.Hbond>
0.8118

> <Gold.Chemscore.Metal>
0.0000

> <Gold.Chemscore.Lipo>
77.6118

> <Gold.Chemscore.Internal_Hbond>
0.0000

> <Gold.Chemscore.DEClash>
0.1671

> <Gold.Chemscore.DEInternal>
1.4075

> <Gold.Chemscore.Rot>
1.5505

> <Gold.Chemscore.Internal.Correction>
   9.000000E+99

> <Gold.Chemscore.Hbonds>
donor molecule, donor type, donor heavy atom, donor atom, acceptor molecule, acceptor atom, score
      P1  H  6934  6947       L1     6  0.34

> <Gold.Chemscore.Hbond.Weighted>
-2.7113

> <Gold.Chemscore.Metal.Weighted>
-0.0000

> <Gold.Chemscore.Lipo.Weighted>
-9.0806

> <Gold.Chemscore.Internal_Hbond.Weighted>
0.0000

> <Gold.Chemscore.DEClash.Weighted>
0.1671

> <Gold.Chemscore.DEInternal.Weighted>
1.4075

> <Gold.Chemscore.Rot.Weighted>
3.9693

> <Gold.Chemscore.Internal.Correction.Weighted>
   9.000000E+99

> <Gold.Protein.RotatedTorsions>
[ 6907 6896 6895 6894 ] final -118.92 input  -60.11 | X-H torsion
[ 7974 7965 7964 7962 ] final -141.30 input  175.53 | X-H torsion
[ 8008 7997 7996 7995 ] final  -47.84 input   59.86 | X-H torsion
[ 10167 10162 10161 10158 ] final   61.69 input  -65.29 | X-H torsion
[ 10718 10713 10712 10709 ] final   37.76 input   66.30 | X-H torsion
[ 10763 10752 10751 10750 ] final -126.18 input  -60.55 | X-H torsion
[ 11005 11000 10999 10996 ] final   -9.52 input  -57.11 | X-H torsion

> <Gold.Protein.ActiveResidues>
 VAL166  LYS551  ARG553  GLY616  TRP617  ASP618  TYR619  PRO620  LYS621  CYS622 
 ASP623  PHE694  ASN695  SER759  ASP760  ASP761  ALA762  ILE779  LEU786  VAL792 
 PHE793  MET794  SER795  GLU796  ALA797  LYS798  CYS799  TRP800  GLU811  SER814 

> <Gold.Protein.RotatedAtoms>
  150.8260  133.8170  159.3118 H   0  0  0  0  0  0  0  0  0  0  0  0  # atno 6907 bound_to 6896
  151.5914  135.1051  160.0049 H   0  0  0  0  0  0  0  0  0  0  0  0  # atno 6908 bound_to 6896
  152.4345  133.7295  159.6636 H   0  0  0  0  0  0  0  0  0  0  0  0  # atno 6909 bound_to 6896
  144.8530  140.6096  143.5378 H   0  0  0  0  0  0  0  0  0  0  0  0  # atno 7974 bound_to 7965
  154.4021  140.1336  156.4240 H   0  0  0  0  0  0  0  0  0  0  0  0  # atno 8008 bound_to 7997
  155.7615  140.3486  155.5180 H   0  0  0  0  0  0  0  0  0  0  0  0  # atno 8009 bound_to 7997
  155.8855  140.0994  157.1446 H   0  0  0  0  0  0  0  0  0  0  0  0  # atno 8010 bound_to 7997
  140.1520  144.4453  150.6754 H   0  0  0  0  0  0  0  0  0  0  0  0  # atno 10167 bound_to 10162
  157.3508  130.7597  149.6977 H   0  0  0  0  0  0  0  0  0  0  0  0  # atno 10718 bound_to 10713
  154.8743  135.4004  154.3389 H   0  0  0  0  0  0  0  0  0  0  0  0  # atno 10763 bound_to 10752
  153.4191  135.7022  153.6311 H   0  0  0  0  0  0  0  0  0  0  0  0  # atno 10764 bound_to 10752
  153.4981  135.3733  155.2496 H   0  0  0  0  0  0  0  0  0  0  0  0  # atno 10765 bound_to 10752
  140.7350  133.8717  155.8923 H   0  0  0  0  0  0  0  0  0  0  0  0  # atno 11005 bound_to 11000
  145.4463  139.1529  143.3943 LP  0  0  0  0  0  0  0  0  0  0  0  0  # atno 17320 bound_to 7965
  146.2800  140.4586  142.8780 LP  0  0  0  0  0  0  0  0  0  0  0  0  # atno 17321 bound_to 7965
  140.6696  143.2281  151.5658 LP  0  0  0  0  0  0  0  0  0  0  0  0  # atno 17342 bound_to 10162
  139.5421  144.2619  152.1371 LP  0  0  0  0  0  0  0  0  0  0  0  0  # atno 17343 bound_to 10162
  155.9721  130.4141  150.4115 LP  0  0  0  0  0  0  0  0  0  0  0  0  # atno 17370 bound_to 10713
  157.2178  131.0475  151.2563 LP  0  0  0  0  0  0  0  0  0  0  0  0  # atno 17371 bound_to 10713
  140.9887  134.1308  157.4428 LP  0  0  0  0  0  0  0  0  0  0  0  0  # atno 17394 bound_to 11000
  139.8818  135.0033  156.6182 LP  0  0  0  0  0  0  0  0  0  0  0  0  # atno 17395 bound_to 11000

$$$$
