AV-unprocessed.smi:109|AV-procd|sdf|1045|dock9
  -GOLD-   2262018 83D 1   1.00000     0.00000
 Structure written by MMmdl.
 58 61  0  0  0  0  0  0  0  0  1 V2000
  148.7044  141.9340  154.0732 O   0  0  0  0  0  0  0  0  0  0  0  0
  149.5338  141.1356  154.8894 C   0  0  0  0  0  0  0  0  0  0  0  0
  149.2792  141.4617  156.3712 C   0  0  0  0  0  0  0  0  0  0  0  0
  150.5457  141.4090  157.2611 C   0  0  2  0  0  0  0  0  0  0  0  0
  150.8621  140.0143  157.5788 N   0  0  0  0  0  0  0  0  0  0  0  0
  151.2038  139.1143  156.6294 C   0  0  0  0  0  0  0  0  0  0  0  0
  151.8167  139.4924  155.4773 N   0  0  0  0  0  0  0  0  0  0  0  0
  152.1353  138.5781  154.5559 C   0  0  0  0  0  0  0  0  0  0  0  0
  151.9365  137.2583  154.5855 N   0  0  0  0  0  0  0  0  0  0  0  0
  151.3240  136.8751  155.7427 C   0  0  0  0  0  0  0  0  0  0  0  0
  150.9273  137.7340  156.8046 C   0  0  0  0  0  0  0  0  0  0  0  0
  150.3308  136.9890  157.8143 N   0  0  0  0  0  0  0  0  0  0  0  0
  150.3764  135.7612  157.3702 C   0  0  0  0  0  0  0  0  0  0  0  0
  150.9582  135.6058  156.1303 N   0  0  0  0  0  0  0  0  0  0  0  0
  151.1608  134.3545  155.3388 C   0  0  1  0  0  0  0  0  0  0  0  0
  150.8193  133.2783  156.1470 O   0  0  0  0  0  0  0  0  0  0  0  0
  150.4762  132.1937  155.3010 C   0  0  1  0  0  0  0  0  0  0  0  0
  149.6913  131.1381  156.0942 C   0  0  0  0  0  0  0  0  0  0  0  0
  150.4956  130.6167  157.1299 O   0  0  0  0  0  0  0  0  0  0  0  0
  149.6508  132.8747  154.2007 C   0  0  2  0  0  0  0  0  0  0  0  0
  149.7872  132.1669  152.9844 O   0  0  0  0  0  0  0  0  0  0  0  0
  150.2637  134.2717  154.0853 C   0  0  1  0  0  0  0  0  0  0  0  0
  149.2540  135.2643  154.0260 O   0  0  0  0  0  0  0  0  0  0  0  0
  150.4131  142.2196  158.5827 C   0  0  0  0  0  0  0  0  0  0  0  0
  149.9137  143.6704  158.3661 C   0  0  0  0  0  0  0  0  0  0  0  0
  149.8305  144.4660  159.6795 C   0  0  0  0  0  0  0  0  0  0  0  0
  151.1760  144.4804  160.4144 C   0  0  0  0  0  0  0  0  0  0  0  0
  151.6694  143.0502  160.6625 C   0  0  0  0  0  0  0  0  0  0  0  0
  151.7610  142.2594  159.3484 C   0  0  0  0  0  0  0  0  0  0  0  0
  152.2263  134.3228  155.1062 H   0  0  0  0  0  0  0  0  0  0  0  0
  151.3907  131.7715  154.8776 H   0  0  0  0  0  0  0  0  0  0  0  0
  148.6006  132.9311  154.4927 H   0  0  0  0  0  0  0  0  0  0  0  0
  150.9059  134.3672  153.2084 H   0  0  0  0  0  0  0  0  0  0  0  0
  148.5004  142.7302  154.5392 H   0  0  0  0  0  0  0  0  0  0  0  0
  149.3250  140.0880  154.6726 H   0  0  0  0  0  0  0  0  0  0  0  0
  150.5752  141.3245  154.6277 H   0  0  0  0  0  0  0  0  0  0  0  0
  148.8497  142.4615  156.4001 H   0  0  0  0  0  0  0  0  0  0  0  0
  148.5199  140.7882  156.7713 H   0  0  0  0  0  0  0  0  0  0  0  0
  151.3591  141.8687  156.7002 H   0  0  0  0  0  0  0  0  0  0  0  0
  150.8089  139.7726  158.5581 H   0  0  0  0  0  0  0  0  0  0  0  0
  152.6185  138.9591  153.6684 H   0  0  0  0  0  0  0  0  0  0  0  0
  149.9807  134.9308  157.9371 H   0  0  0  0  0  0  0  0  0  0  0  0
  148.7671  131.5512  156.4997 H   0  0  0  0  0  0  0  0  0  0  0  0
  149.4178  130.3067  155.4440 H   0  0  0  0  0  0  0  0  0  0  0  0
  149.9417  130.4102  157.8672 H   0  0  0  0  0  0  0  0  0  0  0  0
  150.2586  132.7095  152.3707 H   0  0  0  0  0  0  0  0  0  0  0  0
  149.3307  135.7202  153.2020 H   0  0  0  0  0  0  0  0  0  0  0  0
  149.6827  141.7123  159.2154 H   0  0  0  0  0  0  0  0  0  0  0  0
  150.5731  144.1872  157.6676 H   0  0  0  0  0  0  0  0  0  0  0  0
  148.9203  143.6767  157.9206 H   0  0  0  0  0  0  0  0  0  0  0  0
  149.5096  145.4876  159.4743 H   0  0  0  0  0  0  0  0  0  0  0  0
  149.0676  144.0270  160.3237 H   0  0  0  0  0  0  0  0  0  0  0  0
  151.9119  145.0272  159.8236 H   0  0  0  0  0  0  0  0  0  0  0  0
  151.0793  145.0121  161.3615 H   0  0  0  0  0  0  0  0  0  0  0  0
  152.6446  143.0741  161.1498 H   0  0  0  0  0  0  0  0  0  0  0  0
  150.9925  142.5412  161.3500 H   0  0  0  0  0  0  0  0  0  0  0  0
  152.1047  141.2513  159.5801 H   0  0  0  0  0  0  0  0  0  0  0  0
  152.5289  142.7029  158.7128 H   0  0  0  0  0  0  0  0  0  0  0  0
  1  2  1  0  0  0  0
  1 34  1  0  0  0  0
  2  3  1  0  0  0  0
  2 35  1  0  0  0  0
  2 36  1  0  0  0  0
  3  4  1  0  0  0  0
  3 37  1  0  0  0  0
  3 38  1  0  0  0  0
  4  5  1  0  0  0  0
  4 24  1  0  0  0  0
  4 39  1  0  0  0  0
  5  6  1  0  0  0  0
  5 40  1  0  0  0  0
  6 11  1  0  0  0  0
  6  7  2  0  0  0  0
  7  8  1  0  0  0  0
  8  9  2  0  0  0  0
  8 41  1  0  0  0  0
  9 10  1  0  0  0  0
 10 14  1  0  0  0  0
 10 11  2  0  0  0  0
 11 12  1  0  0  0  0
 12 13  2  0  0  0  0
 13 14  1  0  0  0  0
 13 42  1  0  0  0  0
 14 15  1  0  0  0  0
 15 30  1  0  0  0  0
 15 22  1  0  0  0  0
 15 16  1  0  0  0  0
 16 17  1  0  0  0  0
 17 31  1  0  0  0  0
 17 18  1  0  0  0  0
 17 20  1  0  0  0  0
 18 19  1  0  0  0  0
 18 43  1  0  0  0  0
 18 44  1  0  0  0  0
 19 45  1  0  0  0  0
 20 32  1  0  0  0  0
 20 21  1  0  0  0  0
 20 22  1  0  0  0  0
 21 46  1  0  0  0  0
 22 33  1  0  0  0  0
 22 23  1  0  0  0  0
 23 47  1  0  0  0  0
 24 29  1  0  0  0  0
 24 25  1  0  0  0  0
 24 48  1  0  0  0  0
 25 26  1  0  0  0  0
 25 49  1  0  0  0  0
 25 50  1  0  0  0  0
 26 27  1  0  0  0  0
 26 51  1  0  0  0  0
 26 52  1  0  0  0  0
 27 28  1  0  0  0  0
 27 53  1  0  0  0  0
 27 54  1  0  0  0  0
 28 29  1  0  0  0  0
 28 55  1  0  0  0  0
 28 56  1  0  0  0  0
 29 57  1  0  0  0  0
 29 58  1  0  0  0  0
M  END
> <s_m_source_file>
AV-unprocessed.smi

> <i_m_source_file_index>
109

> <i_lp_mmshare_version>
43012

> <i_f3d_flags>
0

> <s_epik_input>
W0NIMl0xW0NIMl1bQ0gyXVtDSDJdW0NIMl1bQ0hdMVtDQEhdKFtDSDJdW0NIMl1bT0hdKVtOSF1jKG5bY0hdbjIpYyhjMjMpbltjSF1uM1tDQEBIXTRPW0NASF0oW0NIMl1bT0hdKVtDQEBIXShbT0hdKVtDQEhdNFtPSF0=

> <s_epik_cmdline>
J2VwaWtfcHl0aG9uJywgJy1waCcsICc3LjAnLCAnLXRuJywgJzgnLCAnLW1hJywgJzIwMCcsICctbWV0YWxfYmluZGluZycsICctaW1hZScsICc8aW5maWxlLm1hZT4nLCAnLW9tYWUnLCAnPG91dGZpbGUubWFlPic=

> <r_lp_tautomer_probability>
1

> <r_epik_Ionization_Penalty>
0.000793976

> <r_epik_Ionization_Penalty_Charging>
0

> <r_epik_Ionization_Penalty_Neutral>
0.000793976

> <r_epik_State_Penalty>
-0

> <r_epik_Charging_Adjusted_Penalty>
0

> <i_epik_Tot_Q>
0

> <i_epik_Tot_abs_Q>
0

> <r_epik_Metal_State_Penalty>
-0

> <b_epik_Metal_Only>
0

> <s_epik_Chemistry_Notes>
This compound contains an acetal/aminal-like group ( X-CH(R)-Y where X, Y are N, S, or O) that may be acid/base labile, releasing an aldehyde.

> <s_lp_Force_Field>
OPLS_2005

> <r_lp_Energy>
53.6553

> <b_lp_Chiralities_Consistent>
1

> <s_lp_Variant>
AV-unprocessed.smi:109-15

> <Gold.Version>
5.8.1

> <Gold.Id.Protein>
6NUR|6NUR_protein|mol2

> <Gold.PLP.Fitness>
54.7248

> <Gold.PLP.PLP>
-46.4017

> <Gold.PLP.part.hbond>
-4.1215

> <Gold.PLP.part.metal>
0.0000

> <Gold.PLP.part.buried>
-6.5658

> <Gold.PLP.part.nonpolar>
-35.4248

> <Gold.PLP.part.repulsive>
0.1986

> <Gold.PLP.ligand.clash>
0.0000

> <Gold.PLP.ligand.torsion>
0.8581

> <Gold.PLP.Chemscore.Hbond>
3.2902

> <Gold.PLP.Chemscore.CHOScore>
0.0000

> <Gold.PLP.Chemscore.Metal>
0.0000

> <Gold.Chemscore.Hbonds>
donor molecule, donor type, donor heavy atom, donor atom, acceptor molecule, acceptor atom, score
      L1  H     1    34       P1  8028  0.36
      L1  H    23    47       P1  7948  0.80
      P1  H  8011  8017       L1     1  0.37
      P1  H 10752 10764       L1     9  0.88

> <Gold.PLP.Chemscore.Internal.Correction>
0.1687

> <Gold.Rescore>
     Score         DG    S(hbond)    S(metal)    S(lipo)     H(rot)  DE(clash)    DE(int)     intcor
     11.40     -12.95       2.76        0.00     104.78       5.47       0.08       1.48       ----

> <Gold.Chemscore.Fitness>
11.3962

> <Gold.Chemscore.DG>
-12.9532

> <Gold.Chemscore.ZeroCoef>
-5.4800

> <Gold.Chemscore.Hbond>
2.7567

> <Gold.Chemscore.Metal>
0.0000

> <Gold.Chemscore.Lipo>
104.7802

> <Gold.Chemscore.Internal_Hbond>
0.0000

> <Gold.Chemscore.DEClash>
0.0811

> <Gold.Chemscore.DEInternal>
1.4759

> <Gold.Chemscore.Rot>
5.4662

> <Gold.Chemscore.Internal.Correction>
   9.000000E+99

> <Gold.Chemscore.Hbonds>
donor molecule, donor type, donor heavy atom, donor atom, acceptor molecule, acceptor atom, score
      L1  H     1    34       P1  8028  0.35
      L1  H    23    47       P1  7948  0.23
      P1  H  8011  8017       L1     1  0.15
      P1  H 10752 10764       L1     9  0.26

> <Gold.Chemscore.Hbond.Weighted>
-9.2075

> <Gold.Chemscore.Metal.Weighted>
-0.0000

> <Gold.Chemscore.Lipo.Weighted>
-12.2593

> <Gold.Chemscore.Internal_Hbond.Weighted>
0.0000

> <Gold.Chemscore.DEClash.Weighted>
0.0811

> <Gold.Chemscore.DEInternal.Weighted>
1.4759

> <Gold.Chemscore.Rot.Weighted>
13.9935

> <Gold.Chemscore.Internal.Correction.Weighted>
   9.000000E+99

> <Gold.Protein.RotatedTorsions>
[ 6907 6896 6895 6894 ] final  -51.03 input  -60.11 | X-H torsion
[ 7974 7965 7964 7962 ] final  174.43 input  175.53 | X-H torsion
[ 8008 7997 7996 7995 ] final -145.39 input   59.86 | X-H torsion
[ 10167 10162 10161 10158 ] final   13.97 input  -65.29 | X-H torsion
[ 10718 10713 10712 10709 ] final   98.35 input   66.30 | X-H torsion
[ 10763 10752 10751 10750 ] final  -85.01 input  -60.55 | X-H torsion
[ 11005 11000 10999 10996 ] final  161.29 input  -57.11 | X-H torsion

> <Gold.Protein.ActiveResidues>
 VAL166  LYS551  ARG553  GLY616  TRP617  ASP618  TYR619  PRO620  LYS621  CYS622 
 ASP623  PHE694  ASN695  SER759  ASP760  ASP761  ALA762  ILE779  LEU786  VAL792 
 PHE793  MET794  SER795  GLU796  ALA797  LYS798  CYS799  TRP800  GLU811  SER814 

> <Gold.Protein.RotatedAtoms>
  150.8650  134.8011  159.7111 H   0  0  0  0  0  0  0  0  0  0  0  0  # atno 6907 bound_to 6896
  152.4674  134.5039  159.9743 H   0  0  0  0  0  0  0  0  0  0  0  0  # atno 6908 bound_to 6896
  151.5136  133.3441  159.2925 H   0  0  0  0  0  0  0  0  0  0  0  0  # atno 6909 bound_to 6896
  144.7222  139.9797  143.6438 H   0  0  0  0  0  0  0  0  0  0  0  0  # atno 7974 bound_to 7965
  155.5424  140.0609  157.2867 H   0  0  0  0  0  0  0  0  0  0  0  0  # atno 8008 bound_to 7997
  154.4448  140.1917  156.0648 H   0  0  0  0  0  0  0  0  0  0  0  0  # atno 8009 bound_to 7997
  156.0575  140.3276  155.7427 H   0  0  0  0  0  0  0  0  0  0  0  0  # atno 8010 bound_to 7997
  140.5967  143.8687  150.6925 H   0  0  0  0  0  0  0  0  0  0  0  0  # atno 10167 bound_to 10162
  157.6897  131.0637  150.4782 H   0  0  0  0  0  0  0  0  0  0  0  0  # atno 10718 bound_to 10713
  154.6062  135.5500  153.7425 H   0  0  0  0  0  0  0  0  0  0  0  0  # atno 10763 bound_to 10752
  153.0175  135.6378  154.1644 H   0  0  0  0  0  0  0  0  0  0  0  0  # atno 10764 bound_to 10752
  154.1583  135.2898  155.3096 H   0  0  0  0  0  0  0  0  0  0  0  0  # atno 10765 bound_to 10752
  140.2143  134.8244  157.3154 H   0  0  0  0  0  0  0  0  0  0  0  0  # atno 11005 bound_to 11000
  146.0498  139.3500  143.0646 LP  0  0  0  0  0  0  0  0  0  0  0  0  # atno 17320 bound_to 7965
  145.8230  140.9670  143.0889 LP  0  0  0  0  0  0  0  0  0  0  0  0  # atno 17321 bound_to 7965
  140.2223  143.3799  152.1633 LP  0  0  0  0  0  0  0  0  0  0  0  0  # atno 17342 bound_to 10162
  139.5263  144.7106  151.5217 LP  0  0  0  0  0  0  0  0  0  0  0  0  # atno 17343 bound_to 10162
  156.5116  130.4140  149.6298 LP  0  0  0  0  0  0  0  0  0  0  0  0  # atno 17370 bound_to 10713
  156.3235  130.7293  151.2210 LP  0  0  0  0  0  0  0  0  0  0  0  0  # atno 17371 bound_to 10713
  140.1917  134.4364  155.7712 LP  0  0  0  0  0  0  0  0  0  0  0  0  # atno 17394 bound_to 11000
  141.2225  133.7030  156.8038 LP  0  0  0  0  0  0  0  0  0  0  0  0  # atno 17395 bound_to 11000

$$$$
