AV-unprocessed.smi:331|AV-procd|sdf|2351|dock3
  -GOLD-   2262022263D 1   1.00000     0.00000
 Structure written by MMmdl.
 37 38  0  0  0  0  0  0  0  0  2 V2000
  150.5415  141.2110  157.3439 O   0  0  0  0  0  0  0  0  0  0  0  0
  150.0966  142.2692  156.9044 C   0  0  0  0  0  0  0  0  0  0  0  0
  150.6746  143.4620  157.1233 N   0  0  0  0  0  0  0  0  0  0  0  0
  151.8616  143.6827  157.9434 C   0  0  0  0  0  0  0  0  0  0  0  0
  151.5251  144.2529  159.3357 C   0  0  0  0  0  0  0  0  0  0  0  0
  152.2620  143.5569  160.4676 C   0  0  0  0  0  0  0  0  0  0  0  0
  153.0980  142.4476  160.2086 C   0  0  0  0  0  0  0  0  0  0  0  0
  153.7570  141.8125  161.2815 C   0  0  0  0  0  0  0  0  0  0  0  0
  153.5689  142.3035  162.5895 C   0  0  0  0  0  0  0  0  0  0  0  0
  152.7640  143.3686  162.7987 N   0  3  0  0  0  0  0  0  0  0  0  0
  152.1135  144.0029  161.7986 C   0  0  0  0  0  0  0  0  0  0  0  0
  148.9773  142.3167  156.1604 N   0  0  0  0  0  0  0  0  0  0  0  0
  148.1213  141.2015  155.7478 C   0  0  0  0  0  0  0  0  0  0  0  0
  148.9151  140.1931  154.8951 C   0  0  0  0  0  0  0  0  0  0  0  0
  148.0513  139.9030  153.6668 C   0  0  0  0  0  0  0  0  0  0  0  0
  147.2629  141.1900  153.4500 C   0  0  0  0  0  0  0  0  0  0  0  0
  146.9506  141.6791  154.8643 C   0  0  0  0  0  0  0  0  0  0  0  0
  150.2488  144.2772  156.7068 H   0  0  0  0  0  0  0  0  0  0  0  0
  152.4338  142.7584  158.0372 H   0  0  0  0  0  0  0  0  0  0  0  0
  152.4994  144.3860  157.4076 H   0  0  0  0  0  0  0  0  0  0  0  0
  151.7587  145.3180  159.3641 H   0  0  0  0  0  0  0  0  0  0  0  0
  150.4515  144.1779  159.5125 H   0  0  0  0  0  0  0  0  0  0  0  0
  153.2274  142.0811  159.2003 H   0  0  0  0  0  0  0  0  0  0  0  0
  154.3969  140.9607  161.1028 H   0  0  0  0  0  0  0  0  0  0  0  0
  154.0337  141.8795  163.4676 H   0  0  0  0  0  0  0  0  0  0  0  0
  151.4960  144.8394  162.0921 H   0  0  0  0  0  0  0  0  0  0  0  0
  148.7124  143.2247  155.8063 H   0  0  0  0  0  0  0  0  0  0  0  0
  147.7301  140.6868  156.6274 H   0  0  0  0  0  0  0  0  0  0  0  0
  149.8614  140.6261  154.5667 H   0  0  0  0  0  0  0  0  0  0  0  0
  149.1535  139.2842  155.4482 H   0  0  0  0  0  0  0  0  0  0  0  0
  148.6417  139.6189  152.7954 H   0  0  0  0  0  0  0  0  0  0  0  0
  147.3640  139.0846  153.8845 H   0  0  0  0  0  0  0  0  0  0  0  0
  147.8888  141.9219  152.9376 H   0  0  0  0  0  0  0  0  0  0  0  0
  146.3656  141.0390  152.8497 H   0  0  0  0  0  0  0  0  0  0  0  0
  146.0276  141.2120  155.2098 H   0  0  0  0  0  0  0  0  0  0  0  0
  146.7923  142.7581  154.8949 H   0  0  0  0  0  0  0  0  0  0  0  0
  152.6416  143.7081  163.7530 H   0  0  0  0  0  0  0  0  0  0  0  0
  1  2  2  0  0  0  0
  2  3  1  0  0  0  0
  2 12  1  0  0  0  0
  3  4  1  0  0  0  0
  3 18  1  0  0  0  0
  4  5  1  0  0  0  0
  4 19  1  0  0  0  0
  4 20  1  0  0  0  0
  5  6  1  0  0  0  0
  5 21  1  0  0  0  0
  5 22  1  0  0  0  0
  6 11  1  0  0  0  0
  6  7  2  0  0  0  0
  7  8  1  0  0  0  0
  7 23  1  0  0  0  0
  8  9  2  0  0  0  0
  8 24  1  0  0  0  0
  9 10  1  0  0  0  0
  9 25  1  0  0  0  0
 10 11  2  0  0  0  0
 10 37  1  0  0  0  0
 11 26  1  0  0  0  0
 12 13  1  0  0  0  0
 12 27  1  0  0  0  0
 13 17  1  0  0  0  0
 13 14  1  0  0  0  0
 13 28  1  0  0  0  0
 14 15  1  0  0  0  0
 14 29  1  0  0  0  0
 14 30  1  0  0  0  0
 15 16  1  0  0  0  0
 15 31  1  0  0  0  0
 15 32  1  0  0  0  0
 16 17  1  0  0  0  0
 16 33  1  0  0  0  0
 16 34  1  0  0  0  0
 17 35  1  0  0  0  0
 17 36  1  0  0  0  0
M  CHG  1  10   1
M  END
> <s_m_source_file>
AV-unprocessed.smi

> <i_m_source_file_index>
331

> <i_lp_mmshare_version>
43012

> <i_f3d_flags>
0

> <s_epik_input>
W0NIMl0xW0NIMl1bQ0gyXVtDSDJdW0NIXTFbTkhdQyg9TylbTkhdW0NIMl1bQ0gyXWMyW2NIXVtjSF1bY0hdbltjSF0y

> <s_epik_cmdline>
J2VwaWtfcHl0aG9uJywgJy1waCcsICc3LjAnLCAnLXRuJywgJzgnLCAnLW1hJywgJzIwMCcsICctbWV0YWxfYmluZGluZycsICctaW1hZScsICc8aW5maWxlLm1hZT4nLCAnLW9tYWUnLCAnPG91dGZpbGUubWFlPic=

> <r_epik_Ionization_Penalty>
2.21063

> <r_epik_Ionization_Penalty_Charging>
2.21057

> <r_epik_Ionization_Penalty_Neutral>
5.76468e-05

> <r_epik_State_Penalty>
2.35476

> <r_epik_Charging_Adjusted_Penalty>
4.56533

> <i_epik_Tot_Q>
1

> <i_epik_Tot_abs_Q>
1

> <r_epik_Metal_State_Penalty>
2.36886

> <b_epik_Metal_Only>
0

> <s_lp_Force_Field>
OPLS_2005

> <r_lp_Energy>
33.3407

> <b_lp_Chiralities_Consistent>
1

> <s_lp_Variant>
AV-unprocessed.smi:331-2

> <Gold.Version>
5.8.1

> <Gold.Id.Protein>
6NUR|6NUR_protein|mol2

> <Gold.PLP.Fitness>
45.5988

> <Gold.PLP.PLP>
-41.0107

> <Gold.PLP.part.hbond>
-2.5299

> <Gold.PLP.part.metal>
0.0000

> <Gold.PLP.part.buried>
-3.9418

> <Gold.PLP.part.nonpolar>
-34.4790

> <Gold.PLP.part.repulsive>
0.2162

> <Gold.PLP.ligand.clash>
0.0000

> <Gold.PLP.ligand.torsion>
0.4594

> <Gold.PLP.Chemscore.Hbond>
1.8320

> <Gold.PLP.Chemscore.CHOScore>
0.0000

> <Gold.PLP.Chemscore.Metal>
0.0000

> <Gold.Chemscore.Hbonds>
donor molecule, donor type, donor heavy atom, donor atom, acceptor molecule, acceptor atom, score
      L1  H     3    18       P1  8028  0.83
      L1  H    12    27       P1  8028  0.94

> <Gold.PLP.Chemscore.Internal.Correction>
0.0109

> <Gold.Rescore>
     Score         DG    S(hbond)    S(metal)    S(lipo)     H(rot)  DE(clash)    DE(int)     intcor
     19.66     -20.20       1.89        0.00     106.76       1.59       0.07       0.47       ----

> <Gold.Chemscore.Fitness>
19.6580

> <Gold.Chemscore.DG>
-20.2046

> <Gold.Chemscore.ZeroCoef>
-5.4800

> <Gold.Chemscore.Hbond>
1.8897

> <Gold.Chemscore.Metal>
0.0000

> <Gold.Chemscore.Lipo>
106.7649

> <Gold.Chemscore.Internal_Hbond>
0.0000

> <Gold.Chemscore.DEClash>
0.0719

> <Gold.Chemscore.DEInternal>
0.4747

> <Gold.Chemscore.Rot>
1.5932

> <Gold.Chemscore.Internal.Correction>
   9.000000E+99

> <Gold.Chemscore.Hbonds>
donor molecule, donor type, donor heavy atom, donor atom, acceptor molecule, acceptor atom, score
      L1  H     3    18       P1  8028  0.81
      L1  H    12    27       P1  8028  0.88

> <Gold.Chemscore.Hbond.Weighted>
-6.3116

> <Gold.Chemscore.Metal.Weighted>
-0.0000

> <Gold.Chemscore.Lipo.Weighted>
-12.4915

> <Gold.Chemscore.Internal_Hbond.Weighted>
0.0000

> <Gold.Chemscore.DEClash.Weighted>
0.0719

> <Gold.Chemscore.DEInternal.Weighted>
0.4747

> <Gold.Chemscore.Rot.Weighted>
4.0785

> <Gold.Chemscore.Internal.Correction.Weighted>
   9.000000E+99

> <Gold.Protein.RotatedTorsions>
[ 6907 6896 6895 6894 ] final  -85.58 input  -60.11 | X-H torsion
[ 7974 7965 7964 7962 ] final -142.37 input  175.53 | X-H torsion
[ 8008 7997 7996 7995 ] final  -51.91 input   59.86 | X-H torsion
[ 10167 10162 10161 10158 ] final  -77.02 input  -65.29 | X-H torsion
[ 10718 10713 10712 10709 ] final  -93.75 input   66.30 | X-H torsion
[ 10763 10752 10751 10750 ] final   -8.89 input  -60.55 | X-H torsion
[ 11005 11000 10999 10996 ] final  -37.87 input  -57.11 | X-H torsion

> <Gold.Protein.ActiveResidues>
 VAL166  LYS551  ARG553  GLY616  TRP617  ASP618  TYR619  PRO620  LYS621  CYS622 
 ASP623  PHE694  ASN695  SER759  ASP760  ASP761  ALA762  ILE779  LEU786  VAL792 
 PHE793  MET794  SER795  GLU796  ALA797  LYS798  CYS799  TRP800  GLU811  SER814 

> <Gold.Protein.RotatedAtoms>
  150.6870  134.3182  159.4775 H   0  0  0  0  0  0  0  0  0  0  0  0  # atno 6907 bound_to 6896
  152.1061  134.9305  160.0577 H   0  0  0  0  0  0  0  0  0  0  0  0  # atno 6908 bound_to 6896
  152.0566  133.4008  159.4436 H   0  0  0  0  0  0  0  0  0  0  0  0  # atno 6909 bound_to 6896
  144.8449  140.5966  143.5428 H   0  0  0  0  0  0  0  0  0  0  0  0  # atno 7974 bound_to 7965
  154.4094  140.1236  156.4906 H   0  0  0  0  0  0  0  0  0  0  0  0  # atno 8008 bound_to 7997
  155.6994  140.3495  155.4907 H   0  0  0  0  0  0  0  0  0  0  0  0  # atno 8009 bound_to 7997
  155.9399  140.1085  157.1054 H   0  0  0  0  0  0  0  0  0  0  0  0  # atno 8010 bound_to 7997
  140.4806  143.2403  151.8063 H   0  0  0  0  0  0  0  0  0  0  0  0  # atno 10167 bound_to 10162
  156.0017  130.5039  150.5823 H   0  0  0  0  0  0  0  0  0  0  0  0  # atno 10718 bound_to 10713
  153.4469  135.7014  153.6133 H   0  0  0  0  0  0  0  0  0  0  0  0  # atno 10763 bound_to 10752
  153.4484  135.3764  155.2270 H   0  0  0  0  0  0  0  0  0  0  0  0  # atno 10764 bound_to 10752
  154.8728  135.3991  154.3876 H   0  0  0  0  0  0  0  0  0  0  0  0  # atno 10765 bound_to 10752
  140.9984  133.6968  156.1978 H   0  0  0  0  0  0  0  0  0  0  0  0  # atno 11005 bound_to 11000
  145.4618  139.1512  143.3862 LP  0  0  0  0  0  0  0  0  0  0  0  0  # atno 17320 bound_to 7965
  146.2735  140.4748  142.8805 LP  0  0  0  0  0  0  0  0  0  0  0  0  # atno 17321 bound_to 7965
  139.4833  144.4777  151.9346 LP  0  0  0  0  0  0  0  0  0  0  0  0  # atno 17342 bound_to 10162
  140.3862  144.2674  150.5904 LP  0  0  0  0  0  0  0  0  0  0  0  0  # atno 17343 bound_to 10162
  157.3701  131.0764  151.1565 LP  0  0  0  0  0  0  0  0  0  0  0  0  # atno 17370 bound_to 10713
  157.2321  130.6530  149.5854 LP  0  0  0  0  0  0  0  0  0  0  0  0  # atno 17371 bound_to 10713
  140.6928  134.4648  157.5588 LP  0  0  0  0  0  0  0  0  0  0  0  0  # atno 17394 bound_to 11000
  139.9026  134.8520  156.1832 LP  0  0  0  0  0  0  0  0  0  0  0  0  # atno 17395 bound_to 11000

$$$$
