AV-unprocessed.smi:684|AV-procd|sdf|3332|dock2
  -GOLD-   22720 0303D 1   1.00000     0.00000
 Structure written by MMmdl.
 40 41  0  0  0  0  0  0  0  0  1 V2000
  151.6261  145.8476  160.5007 C   0  0  0  0  0  0  0  0  0  0  0  0
  152.3642  144.5179  160.6932 C   0  0  0  0  0  0  0  0  0  0  0  0
  152.1248  143.6068  159.5875 N   0  0  0  0  0  0  0  0  0  0  0  0
  151.1490  143.8999  158.7009 N   0  0  0  0  0  0  0  0  0  0  0  0
  151.1800  142.8929  157.8418 C   0  0  0  0  0  0  0  0  0  0  0  0
  150.3418  142.7340  156.7089 N   0  0  0  0  0  0  0  0  0  0  0  0
  150.1699  141.6281  155.9647 C   0  0  0  0  0  0  0  0  0  0  0  0
  150.7360  140.5508  156.1537 O   0  0  0  0  0  0  0  0  0  0  0  0
  149.2972  141.8448  154.9694 N   0  0  0  0  0  0  0  0  0  0  0  0
  148.8820  140.8597  153.9742 C   0  0  0  0  0  0  0  0  0  0  0  0
  147.3587  140.6126  153.9938 C   0  0  0  0  0  0  0  0  0  0  0  0
  146.9664  139.5646  152.9419 C   0  0  0  0  0  0  0  0  0  0  0  0
  146.5416  141.9015  153.7973 C   0  0  0  0  0  0  0  0  0  0  0  0
  152.1720  141.9239  158.1508 C   0  0  0  0  0  0  0  0  0  0  0  0
  152.7586  142.4122  159.2856 C   0  0  0  0  0  0  0  0  0  0  0  0
  153.8716  141.8573  160.1153 C   0  0  0  0  0  0  0  0  0  0  0  0
  153.8014  140.4665  160.7001 C   0  0  0  0  0  0  0  0  0  0  0  0
  153.7131  141.6750  161.6047 C   0  0  0  0  0  0  0  0  0  0  0  0
  151.8130  146.5195  161.3384 H   0  0  0  0  0  0  0  0  0  0  0  0
  150.5488  145.6950  160.4304 H   0  0  0  0  0  0  0  0  0  0  0  0
  151.9534  146.3512  159.5905 H   0  0  0  0  0  0  0  0  0  0  0  0
  153.4377  144.6926  160.7799 H   0  0  0  0  0  0  0  0  0  0  0  0
  152.0508  144.0422  161.6228 H   0  0  0  0  0  0  0  0  0  0  0  0
  149.8166  143.5509  156.4353 H   0  0  0  0  0  0  0  0  0  0  0  0
  148.8862  142.7636  154.8928 H   0  0  0  0  0  0  0  0  0  0  0  0
  149.2071  141.1492  152.9733 H   0  0  0  0  0  0  0  0  0  0  0  0
  149.4059  139.9312  154.2029 H   0  0  0  0  0  0  0  0  0  0  0  0
  147.0981  140.2032  154.9709 H   0  0  0  0  0  0  0  0  0  0  0  0
  147.1937  139.9117  151.9334 H   0  0  0  0  0  0  0  0  0  0  0  0
  145.8994  139.3442  152.9854 H   0  0  0  0  0  0  0  0  0  0  0  0
  147.5009  138.6275  153.1002 H   0  0  0  0  0  0  0  0  0  0  0  0
  146.7934  142.3889  152.8549 H   0  0  0  0  0  0  0  0  0  0  0  0
  146.7181  142.6168  154.6004 H   0  0  0  0  0  0  0  0  0  0  0  0
  145.4721  141.6897  153.7864 H   0  0  0  0  0  0  0  0  0  0  0  0
  152.4150  141.0119  157.6262 H   0  0  0  0  0  0  0  0  0  0  0  0
  154.8409  142.1898  159.7488 H   0  0  0  0  0  0  0  0  0  0  0  0
  152.8905  139.8906  160.5484 H   0  0  0  0  0  0  0  0  0  0  0  0
  154.7211  139.8856  160.7255 H   0  0  0  0  0  0  0  0  0  0  0  0
  154.5733  141.9018  162.2311 H   0  0  0  0  0  0  0  0  0  0  0  0
  152.7430  141.9044  162.0417 H   0  0  0  0  0  0  0  0  0  0  0  0
  1  2  1  0  0  0  0
  1 19  1  0  0  0  0
  1 20  1  0  0  0  0
  1 21  1  0  0  0  0
  2  3  1  0  0  0  0
  2 22  1  0  0  0  0
  2 23  1  0  0  0  0
  3 15  1  0  0  0  0
  3  4  1  0  0  0  0
  4  5  2  0  0  0  0
  5  6  1  0  0  0  0
  5 14  1  0  0  0  0
  6  7  1  0  0  0  0
  6 24  1  0  0  0  0
  7  8  2  0  0  0  0
  7  9  1  0  0  0  0
  9 10  1  0  0  0  0
  9 25  1  0  0  0  0
 10 11  1  0  0  0  0
 10 26  1  0  0  0  0
 10 27  1  0  0  0  0
 11 12  1  0  0  0  0
 11 13  1  0  0  0  0
 11 28  1  0  0  0  0
 12 29  1  0  0  0  0
 12 30  1  0  0  0  0
 12 31  1  0  0  0  0
 13 32  1  0  0  0  0
 13 33  1  0  0  0  0
 13 34  1  0  0  0  0
 14 15  2  0  0  0  0
 14 35  1  0  0  0  0
 15 16  1  0  0  0  0
 16 18  1  0  0  0  0
 16 17  1  0  0  0  0
 16 36  1  0  0  0  0
 17 18  1  0  0  0  0
 17 37  1  0  0  0  0
 17 38  1  0  0  0  0
 18 39  1  0  0  0  0
 18 40  1  0  0  0  0
M  END
> <s_m_source_file>
AV-unprocessed.smi

> <i_m_source_file_index>
684

> <i_lp_mmshare_version>
43012

> <i_f3d_flags>
0

> <s_epik_input>
W0NIMl0xW0NIMl1bQ0hdMWMyW2NIXWMobm4yW0NIMl1bQ0gzXSlbTkhdQyg9TylbTkhdW0NIMl1bQ0hdKFtDSDNdKVtDSDNd

> <s_epik_cmdline>
J2VwaWtfcHl0aG9uJywgJy1waCcsICc3LjAnLCAnLXRuJywgJzgnLCAnLW1hJywgJzIwMCcsICctbWV0YWxfYmluZGluZycsICctaW1hZScsICc8aW5maWxlLm1hZT4nLCAnLW9tYWUnLCAnPG91dGZpbGUubWFlPic=

> <r_lp_tautomer_probability>
1

> <r_epik_Ionization_Penalty>
4.15598e-05

> <r_epik_Ionization_Penalty_Charging>
0

> <r_epik_Ionization_Penalty_Neutral>
4.15598e-05

> <r_epik_State_Penalty>
-0

> <r_epik_Charging_Adjusted_Penalty>
0

> <i_epik_Tot_Q>
0

> <i_epik_Tot_abs_Q>
0

> <r_epik_Metal_State_Penalty>
-0

> <b_epik_Metal_Only>
0

> <s_lp_Force_Field>
OPLS_2005

> <r_lp_Energy>
10.212

> <b_lp_Chiralities_Consistent>
1

> <s_lp_Variant>
AV-unprocessed.smi:684-1

> <Gold.Version>
5.8.1

> <Gold.Id.Protein>
6NUR|6NUR_protein|mol2

> <Gold.PLP.Fitness>
47.0478

> <Gold.PLP.PLP>
-41.5448

> <Gold.PLP.part.hbond>
-2.0000

> <Gold.PLP.part.metal>
0.0000

> <Gold.PLP.part.buried>
-4.8437

> <Gold.PLP.part.nonpolar>
-35.7632

> <Gold.PLP.part.repulsive>
0.3876

> <Gold.PLP.ligand.clash>
0.0000

> <Gold.PLP.ligand.torsion>
0.2343

> <Gold.PLP.Chemscore.Hbond>
1.9280

> <Gold.PLP.Chemscore.CHOScore>
0.0000

> <Gold.PLP.Chemscore.Metal>
0.0000

> <Gold.Chemscore.Hbonds>
donor molecule, donor type, donor heavy atom, donor atom, acceptor molecule, acceptor atom, score
      L1  H     6    24       P1  8028  1.00
      L1  H     9    25       P1  8028  0.80

> <Gold.PLP.Chemscore.Internal.Correction>
0.1876

> <Gold.Rescore>
     Score         DG    S(hbond)    S(metal)    S(lipo)     H(rot)  DE(clash)    DE(int)     intcor
     17.81     -20.46       1.89        0.00     105.54       1.45       1.10       1.54       ----

> <Gold.Chemscore.Fitness>
17.8137

> <Gold.Chemscore.DG>
-20.4576

> <Gold.Chemscore.ZeroCoef>
-5.4800

> <Gold.Chemscore.Hbond>
1.8949

> <Gold.Chemscore.Metal>
0.0000

> <Gold.Chemscore.Lipo>
105.5414

> <Gold.Chemscore.Internal_Hbond>
0.0000

> <Gold.Chemscore.DEClash>
1.1030

> <Gold.Chemscore.DEInternal>
1.5410

> <Gold.Chemscore.Rot>
1.4452

> <Gold.Chemscore.Internal.Correction>
   9.000000E+99

> <Gold.Chemscore.Hbonds>
donor molecule, donor type, donor heavy atom, donor atom, acceptor molecule, acceptor atom, score
      L1  H     6    24       P1  8028  1.00
      L1  H     9    25       P1  8028  0.75

> <Gold.Chemscore.Hbond.Weighted>
-6.3291

> <Gold.Chemscore.Metal.Weighted>
-0.0000

> <Gold.Chemscore.Lipo.Weighted>
-12.3483

> <Gold.Chemscore.Internal_Hbond.Weighted>
0.0000

> <Gold.Chemscore.DEClash.Weighted>
1.1030

> <Gold.Chemscore.DEInternal.Weighted>
1.5410

> <Gold.Chemscore.Rot.Weighted>
3.6998

> <Gold.Chemscore.Internal.Correction.Weighted>
   9.000000E+99

> <Gold.Protein.RotatedTorsions>
[ 6907 6896 6895 6894 ] final  167.29 input  -60.11 | X-H torsion
[ 7974 7965 7964 7962 ] final  -64.18 input  175.53 | X-H torsion
[ 8008 7997 7996 7995 ] final   -3.79 input   59.86 | X-H torsion
[ 10167 10162 10161 10158 ] final   -6.97 input  -65.29 | X-H torsion
[ 10718 10713 10712 10709 ] final  118.00 input   66.30 | X-H torsion
[ 10763 10752 10751 10750 ] final   86.94 input  -60.55 | X-H torsion
[ 11005 11000 10999 10996 ] final -158.15 input  -57.11 | X-H torsion

> <Gold.Protein.ActiveResidues>
 VAL166  LYS551  ARG553  GLY616  TRP617  ASP618  TYR619  PRO620  LYS621  CYS622 
 ASP623  PHE694  ASN695  SER759  ASP760  ASP761  ALA762  ILE779  LEU786  VAL792 
 PHE793  MET794  SER795  GLU796  ALA797  LYS798  CYS799  TRP800  GLU811  SER814 

> <Gold.Protein.RotatedAtoms>
  151.8656  133.3465  159.3717 H   0  0  0  0  0  0  0  0  0  0  0  0  # atno 6907 bound_to 6896
  150.7167  134.5163  159.5641 H   0  0  0  0  0  0  0  0  0  0  0  0  # atno 6908 bound_to 6896
  152.2685  134.7958  160.0469 H   0  0  0  0  0  0  0  0  0  0  0  0  # atno 6909 bound_to 6896
  145.7699  140.8818  143.0386 H   0  0  0  0  0  0  0  0  0  0  0  0  # atno 7974 bound_to 7965
  154.6211  140.2500  155.7548 H   0  0  0  0  0  0  0  0  0  0  0  0  # atno 8008 bound_to 7997
  156.2427  140.2926  156.0439 H   0  0  0  0  0  0  0  0  0  0  0  0  # atno 8009 bound_to 7997
  155.1895  140.0391  157.2888 H   0  0  0  0  0  0  0  0  0  0  0  0  # atno 8010 bound_to 7997
  140.7014  143.6134  150.8682 H   0  0  0  0  0  0  0  0  0  0  0  0  # atno 10167 bound_to 10162
  157.6059  131.1043  150.7694 H   0  0  0  0  0  0  0  0  0  0  0  0  # atno 10718 bound_to 10713
  153.1619  135.4562  154.9784 H   0  0  0  0  0  0  0  0  0  0  0  0  # atno 10763 bound_to 10752
  154.7904  135.3218  154.7793 H   0  0  0  0  0  0  0  0  0  0  0  0  # atno 10764 bound_to 10752
  153.8281  135.6941  153.4872 H   0  0  0  0  0  0  0  0  0  0  0  0  # atno 10765 bound_to 10752
  140.6567  134.4392  157.5235 H   0  0  0  0  0  0  0  0  0  0  0  0  # atno 11005 bound_to 11000
  144.6814  139.9840  143.7484 LP  0  0  0  0  0  0  0  0  0  0  0  0  # atno 17320 bound_to 7965
  146.0180  139.3227  143.0830 LP  0  0  0  0  0  0  0  0  0  0  0  0  # atno 17321 bound_to 7965
  139.9856  143.5903  152.2928 LP  0  0  0  0  0  0  0  0  0  0  0  0  # atno 17342 bound_to 10162
  139.6540  144.7661  151.2093 LP  0  0  0  0  0  0  0  0  0  0  0  0  # atno 17343 bound_to 10162
  156.8083  130.4944  149.5359 LP  0  0  0  0  0  0  0  0  0  0  0  0  # atno 17370 bound_to 10713
  156.1146  130.6065  151.0100 LP  0  0  0  0  0  0  0  0  0  0  0  0  # atno 17371 bound_to 10713
  139.9027  134.8520  156.1831 LP  0  0  0  0  0  0  0  0  0  0  0  0  # atno 17394 bound_to 11000
  141.0496  133.6896  156.1746 LP  0  0  0  0  0  0  0  0  0  0  0  0  # atno 17395 bound_to 11000

$$$$
