AV-unprocessed.smi:1508|AV-procd|sdf|6089|dock5
  -GOLD-   22720 6213D 1   1.00000     0.00000
 Structure written by MMmdl.
 37 38  0  0  0  0  0  0  0  0  3 V2000
  144.4014  135.0954  155.0630 C   0  0  0  0  0  0  0  0  0  0  0  0
  145.6214  134.1955  154.8092 C   0  0  0  0  0  0  0  0  0  0  0  0
  146.8343  134.9124  154.1555 C   0  0  1  0  0  0  0  0  0  0  0  0
  148.1789  134.1872  154.4267 C   0  0  0  0  0  0  0  0  0  0  0  0
  149.3266  135.0748  154.2572 N   0  0  0  0  0  0  0  0  0  0  0  0
  150.2852  135.3250  155.1604 C   0  0  0  0  0  0  0  0  0  0  0  0
  150.2703  134.7565  156.2541 O   0  0  0  0  0  0  0  0  0  0  0  0
  151.1995  136.2272  154.7403 N   0  5  0  0  0  0  0  0  0  0  0  0
  150.8879  137.5336  154.7109 C   0  0  0  0  0  0  0  0  0  0  0  0
  151.8262  138.4939  154.6961 N   0  0  0  0  0  0  0  0  0  0  0  0
  151.2946  139.7761  154.6671 N   0  0  0  0  0  0  0  0  0  0  0  0
  149.9622  139.7496  154.6682 C   0  0  0  0  0  0  0  0  0  0  0  0
  149.2358  138.1568  154.7094 S   0  0  0  0  0  0  0  0  0  0  0  0
  146.6047  135.1297  152.6965 N   0  3  0  0  0  0  0  0  0  0  0  0
  146.4872  133.8937  151.8812 C   0  0  0  0  0  0  0  0  0  0  0  0
  145.4477  134.1671  150.7850 C   0  0  0  0  0  0  0  0  0  0  0  0
  145.1632  135.6619  150.8771 C   0  0  0  0  0  0  0  0  0  0  0  0
  145.4474  135.9786  152.3406 C   0  0  0  0  0  0  0  0  0  0  0  0
  143.5920  134.5226  155.5160 H   0  0  0  0  0  0  0  0  0  0  0  0
  144.0158  135.5259  154.1400 H   0  0  0  0  0  0  0  0  0  0  0  0
  144.6405  135.9154  155.7397 H   0  0  0  0  0  0  0  0  0  0  0  0
  145.9199  133.7417  155.7540 H   0  0  0  0  0  0  0  0  0  0  0  0
  145.3121  133.3532  154.1901 H   0  0  0  0  0  0  0  0  0  0  0  0
  146.9102  135.9000  154.6137 H   0  0  0  0  0  0  0  0  0  0  0  0
  148.1693  133.7211  155.4129 H   0  0  0  0  0  0  0  0  0  0  0  0
  148.3265  133.3755  153.7150 H   0  0  0  0  0  0  0  0  0  0  0  0
  149.3936  135.5648  153.3768 H   0  0  0  0  0  0  0  0  0  0  0  0
  149.4039  140.6734  154.6491 H   0  0  0  0  0  0  0  0  0  0  0  0
  147.4604  133.6469  151.4557 H   0  0  0  0  0  0  0  0  0  0  0  0
  146.1631  133.0445  152.4848 H   0  0  0  0  0  0  0  0  0  0  0  0
  145.7958  133.8718  149.7946 H   0  0  0  0  0  0  0  0  0  0  0  0
  144.5366  133.6053  150.9958 H   0  0  0  0  0  0  0  0  0  0  0  0
  145.8561  136.2118  150.2384 H   0  0  0  0  0  0  0  0  0  0  0  0
  144.1479  135.9213  150.5753 H   0  0  0  0  0  0  0  0  0  0  0  0
  144.5858  135.7035  152.9517 H   0  0  0  0  0  0  0  0  0  0  0  0
  145.6539  137.0382  152.4940 H   0  0  0  0  0  0  0  0  0  0  0  0
  147.4166  135.6172  152.3453 H   0  0  0  0  0  0  0  0  0  0  0  0
  1  2  1  0  0  0  0
  1 19  1  0  0  0  0
  1 20  1  0  0  0  0
  1 21  1  0  0  0  0
  2  3  1  0  0  0  0
  2 22  1  0  0  0  0
  2 23  1  0  0  0  0
  3  4  1  0  0  0  0
  3 14  1  0  0  0  0
  3 24  1  0  0  0  0
  4  5  1  0  0  0  0
  4 25  1  0  0  0  0
  4 26  1  0  0  0  0
  5  6  1  0  0  0  0
  5 27  1  0  0  0  0
  6  7  2  0  0  0  0
  6  8  1  0  0  0  0
  8  9  1  0  0  0  0
  9 13  1  0  0  0  0
  9 10  2  0  0  0  0
 10 11  1  0  0  0  0
 11 12  2  0  0  0  0
 12 13  1  0  0  0  0
 12 28  1  0  0  0  0
 14 18  1  0  0  0  0
 14 15  1  0  0  0  0
 14 37  1  0  0  0  0
 15 16  1  0  0  0  0
 15 29  1  0  0  0  0
 15 30  1  0  0  0  0
 16 17  1  0  0  0  0
 16 31  1  0  0  0  0
 16 32  1  0  0  0  0
 17 18  1  0  0  0  0
 17 33  1  0  0  0  0
 17 34  1  0  0  0  0
 18 35  1  0  0  0  0
 18 36  1  0  0  0  0
M  CHG  1   8  -1
M  CHG  1  14   1
M  END
> <s_m_source_file>
AV-unprocessed.smi

> <i_m_source_file_index>
1508

> <i_lp_mmshare_version>
43012

> <i_f3d_flags>
0

> <s_epik_input>
W0NIMl0xW0NIMl1bQ0gyXVtDSDJdTjFbQ0BIXShbQ0gyXVtDSDNdKVtDSDJdW05IXUMoPU8pW05IXWMybm5bY0hdczI=

> <s_epik_cmdline>
J2VwaWtfcHl0aG9uJywgJy1waCcsICc3LjAnLCAnLXRuJywgJzgnLCAnLW1hJywgJzIwMCcsICctbWV0YWxfYmluZGluZycsICctaW1hZScsICc8aW5maWxlLm1hZT4nLCAnLW9tYWUnLCAnPG91dGZpbGUubWFlPic=

> <r_lp_tautomer_probability>
1

> <r_epik_Ionization_Penalty>
3.98086

> <r_epik_Ionization_Penalty_Charging>
3.94833

> <r_epik_Ionization_Penalty_Neutral>
0.032525

> <r_epik_State_Penalty>
3.94643

> <r_epik_Charging_Adjusted_Penalty>
7.89477

> <i_epik_Tot_Q>
0

> <i_epik_Tot_abs_Q>
2

> <r_epik_Metal_State_Penalty>
0.605555

> <b_epik_Metal_Only>
1

> <s_lp_Force_Field>
OPLS_2005

> <r_lp_Energy>
25.5937

> <b_lp_Chiralities_Consistent>
1

> <s_lp_Variant>
AV-unprocessed.smi:1508-4

> <Gold.Version>
5.8.1

> <Gold.Id.Protein>
6NUR|6NUR_protein|mol2

> <Gold.PLP.Fitness>
41.6875

> <Gold.PLP.PLP>
-25.8768

> <Gold.PLP.part.hbond>
-4.0000

> <Gold.PLP.part.metal>
0.0000

> <Gold.PLP.part.buried>
-5.6245

> <Gold.PLP.part.nonpolar>
-17.4934

> <Gold.PLP.part.repulsive>
0.3551

> <Gold.PLP.ligand.clash>
0.0000

> <Gold.PLP.ligand.torsion>
1.1719

> <Gold.PLP.Chemscore.Hbond>
6.0000

> <Gold.PLP.Chemscore.CHOScore>
0.0000

> <Gold.PLP.Chemscore.Metal>
0.0000

> <Gold.Chemscore.Hbonds>
donor molecule, donor type, donor heavy atom, donor atom, acceptor molecule, acceptor atom, score
      L1  H     5    27       P1  7948  0.95
      L1  H    14    37       P1  7948  2.00
      P1  H  7989  7998       L1    11  1.00
      P1  H 10752 10764       L1     8  2.00

> <Gold.PLP.Chemscore.Internal.Correction>
0.1546

> <Gold.Rescore>
     Score         DG    S(hbond)    S(metal)    S(lipo)     H(rot)  DE(clash)    DE(int)     intcor
     15.15     -16.39       3.36        0.00      37.99       1.86       0.00       1.24       ----

> <Gold.Chemscore.Fitness>
15.1533

> <Gold.Chemscore.DG>
-16.3949

> <Gold.Chemscore.ZeroCoef>
-5.4800

> <Gold.Chemscore.Hbond>
3.3607

> <Gold.Chemscore.Metal>
0.0000

> <Gold.Chemscore.Lipo>
37.9948

> <Gold.Chemscore.Internal_Hbond>
0.0000

> <Gold.Chemscore.DEClash>
0.0000

> <Gold.Chemscore.DEInternal>
1.2416

> <Gold.Chemscore.Rot>
1.8575

> <Gold.Chemscore.Internal.Correction>
   9.000000E+99

> <Gold.Chemscore.Hbonds>
donor molecule, donor type, donor heavy atom, donor atom, acceptor molecule, acceptor atom, score
      L1  H     5    27       P1  7948  0.21
      L1  H    14    37       P1  7948  1.00
      P1  H  7989  7998       L1    11  0.39
      P1  H 10752 10764       L1     8  0.95

> <Gold.Chemscore.Hbond.Weighted>
-11.2246

> <Gold.Chemscore.Metal.Weighted>
-0.0000

> <Gold.Chemscore.Lipo.Weighted>
-4.4454

> <Gold.Chemscore.Internal_Hbond.Weighted>
0.0000

> <Gold.Chemscore.DEClash.Weighted>
0.0000

> <Gold.Chemscore.DEInternal.Weighted>
1.2416

> <Gold.Chemscore.Rot.Weighted>
4.7551

> <Gold.Chemscore.Internal.Correction.Weighted>
   9.000000E+99

> <Gold.Protein.RotatedTorsions>
[ 6907 6896 6895 6894 ] final  -47.24 input  -60.11 | X-H torsion
[ 7974 7965 7964 7962 ] final   43.67 input  175.53 | X-H torsion
[ 8008 7997 7996 7995 ] final  168.15 input   59.86 | X-H torsion
[ 10167 10162 10161 10158 ] final  -18.33 input  -65.29 | X-H torsion
[ 10718 10713 10712 10709 ] final  134.92 input   66.30 | X-H torsion
[ 10763 10752 10751 10750 ] final  -73.48 input  -60.55 | X-H torsion
[ 11005 11000 10999 10996 ] final -138.43 input  -57.11 | X-H torsion

> <Gold.Protein.ActiveResidues>
 VAL166  LYS551  ARG553  GLY616  TRP617  ASP618  TYR619  PRO620  LYS621  CYS622 
 ASP623  PHE694  ASN695  SER759  ASP760  ASP761  ALA762  ILE779  LEU786  VAL792 
 PHE793  MET794  SER795  GLU796  ALA797  LYS798  CYS799  TRP800  GLU811  SER814 

> <Gold.Protein.RotatedAtoms>
  150.9028  134.8442  159.7371 H   0  0  0  0  0  0  0  0  0  0  0  0  # atno 6907 bound_to 6896
  152.4902  134.4476  159.9574 H   0  0  0  0  0  0  0  0  0  0  0  0  # atno 6908 bound_to 6896
  151.4526  133.3574  159.2832 H   0  0  0  0  0  0  0  0  0  0  0  0  # atno 6909 bound_to 6896
  146.0635  139.5160  142.9643 H   0  0  0  0  0  0  0  0  0  0  0  0  # atno 7974 bound_to 7965
  156.1572  140.1598  156.8673 H   0  0  0  0  0  0  0  0  0  0  0  0  # atno 8008 bound_to 7997
  154.5126  140.0797  156.8055 H   0  0  0  0  0  0  0  0  0  0  0  0  # atno 8009 bound_to 7997
  155.3780  140.3403  155.4248 H   0  0  0  0  0  0  0  0  0  0  0  0  # atno 8010 bound_to 7997
  140.7257  143.4927  150.9971 H   0  0  0  0  0  0  0  0  0  0  0  0  # atno 10167 bound_to 10162
  157.4624  131.1074  150.9904 H   0  0  0  0  0  0  0  0  0  0  0  0  # atno 10718 bound_to 10713
  154.4600  135.5896  153.6249 H   0  0  0  0  0  0  0  0  0  0  0  0  # atno 10763 bound_to 10752
  152.9822  135.6041  154.3498 H   0  0  0  0  0  0  0  0  0  0  0  0  # atno 10764 bound_to 10752
  154.3369  135.2842  155.2422 H   0  0  0  0  0  0  0  0  0  0  0  0  # atno 10765 bound_to 10752
  140.8616  134.2161  157.4704 H   0  0  0  0  0  0  0  0  0  0  0  0  # atno 11005 bound_to 11000
  145.6519  141.0261  143.1756 LP  0  0  0  0  0  0  0  0  0  0  0  0  # atno 17320 bound_to 7965
  144.7188  139.8101  143.7389 LP  0  0  0  0  0  0  0  0  0  0  0  0  # atno 17321 bound_to 7965
  139.8632  143.7288  152.3172 LP  0  0  0  0  0  0  0  0  0  0  0  0  # atno 17342 bound_to 10162
  139.7510  144.7534  151.0506 LP  0  0  0  0  0  0  0  0  0  0  0  0  # atno 17343 bound_to 10162
  157.0696  130.5859  149.5400 LP  0  0  0  0  0  0  0  0  0  0  0  0  # atno 17370 bound_to 10713
  156.0034  130.5118  150.7747 LP  0  0  0  0  0  0  0  0  0  0  0  0  # atno 17371 bound_to 10713
  139.8707  134.9732  156.4802 LP  0  0  0  0  0  0  0  0  0  0  0  0  # atno 17394 bound_to 11000
  140.8676  133.8013  155.9330 LP  0  0  0  0  0  0  0  0  0  0  0  0  # atno 17395 bound_to 11000

$$$$
