AV-unprocessed.smi:3284|AV-procd|sdf|12576|dock7
  -GOLD-   2272018503D 1   1.00000     0.00000
 Structure written by MMmdl.
 45 46  0  0  0  0  0  0  0  0  3 V2000
  151.6427  145.0656  158.9429 C   0  0  0  0  0  0  0  0  0  0  0  0
  152.1896  144.0446  159.9267 C   0  0  0  0  0  0  0  0  0  0  0  0
  152.2105  144.3044  161.2490 C   0  0  0  0  0  0  0  0  0  0  0  0
  152.7792  143.3745  162.3063 C   0  0  0  0  0  0  0  0  0  0  0  0
  153.1791  141.9980  161.7498 C   0  0  0  0  0  0  0  0  0  0  0  0
  153.7744  142.1127  160.3357 C   0  0  1  0  0  0  0  0  0  0  0  0
  154.3911  140.7866  159.8583 C   0  0  0  0  0  0  0  0  0  0  0  0
  152.7487  142.7378  159.3483 C   0  0  1  0  0  0  0  0  0  0  0  0
  151.6244  141.7511  158.9368 C   0  0  0  0  0  0  0  0  0  0  0  0
  150.7864  142.2631  157.8349 N   0  3  0  0  0  0  0  0  0  0  0  0
  149.8710  141.2591  157.2555 C   0  0  0  0  0  0  0  0  0  0  0  0
  149.9362  141.2397  155.7197 C   0  0  0  0  0  0  0  0  0  0  0  0
  150.6373  140.0385  155.1560 C   0  0  0  0  0  0  0  0  0  0  0  0
  151.9414  139.7704  155.2971 N   0  3  0  0  0  0  0  0  0  0  0  0
  152.2613  138.6018  154.6612 C   0  0  0  0  0  0  0  0  0  0  0  0
  151.1005  138.1353  154.1027 C   0  0  0  0  0  0  0  0  0  0  0  0
  150.1189  139.0382  154.4222 N   0  0  0  0  0  0  0  0  0  0  0  0
  148.7077  138.9546  154.0407 C   0  0  0  0  0  0  0  0  0  0  0  0
  152.3183  145.1849  158.0958 H   0  0  0  0  0  0  0  0  0  0  0  0
  151.5307  146.0419  159.4160 H   0  0  0  0  0  0  0  0  0  0  0  0
  150.6617  144.7729  158.5728 H   0  0  0  0  0  0  0  0  0  0  0  0
  151.8279  145.2465  161.6141 H   0  0  0  0  0  0  0  0  0  0  0  0
  153.6541  143.8651  162.7342 H   0  0  0  0  0  0  0  0  0  0  0  0
  152.0574  143.2576  163.1150 H   0  0  0  0  0  0  0  0  0  0  0  0
  153.8930  141.5297  162.4284 H   0  0  0  0  0  0  0  0  0  0  0  0
  152.3081  141.3426  161.7315 H   0  0  0  0  0  0  0  0  0  0  0  0
  154.6079  142.8143  160.4030 H   0  0  0  0  0  0  0  0  0  0  0  0
  153.6763  139.9647  159.8971 H   0  0  0  0  0  0  0  0  0  0  0  0
  155.2347  140.5057  160.4894 H   0  0  0  0  0  0  0  0  0  0  0  0
  154.7616  140.8684  158.8360 H   0  0  0  0  0  0  0  0  0  0  0  0
  153.3080  142.9990  158.4486 H   0  0  0  0  0  0  0  0  0  0  0  0
  152.0455  140.8051  158.5992 H   0  0  0  0  0  0  0  0  0  0  0  0
  150.9869  141.5287  159.7930 H   0  0  0  0  0  0  0  0  0  0  0  0
  150.2363  143.0318  158.1914 H   0  0  0  0  0  0  0  0  0  0  0  0
  150.1110  140.2724  157.6538 H   0  0  0  0  0  0  0  0  0  0  0  0
  148.8529  141.4910  157.5700 H   0  0  0  0  0  0  0  0  0  0  0  0
  148.9283  141.2302  155.3033 H   0  0  0  0  0  0  0  0  0  0  0  0
  150.4252  142.1355  155.3374 H   0  0  0  0  0  0  0  0  0  0  0  0
  153.2642  138.1996  154.6547 H   0  0  0  0  0  0  0  0  0  0  0  0
  150.9061  137.2475  153.5177 H   0  0  0  0  0  0  0  0  0  0  0  0
  148.5375  138.0396  153.4723 H   0  0  0  0  0  0  0  0  0  0  0  0
  148.4480  139.8137  153.4233 H   0  0  0  0  0  0  0  0  0  0  0  0
  148.0883  138.9382  154.9379 H   0  0  0  0  0  0  0  0  0  0  0  0
  151.3951  142.6101  157.1076 H   0  0  0  0  0  0  0  0  0  0  0  0
  152.5971  140.3466  155.8102 H   0  0  0  0  0  0  0  0  0  0  0  0
  1  2  1  0  0  0  0
  1 19  1  0  0  0  0
  1 20  1  0  0  0  0
  1 21  1  0  0  0  0
  2  8  1  0  0  0  0
  2  3  2  0  0  0  0
  3  4  1  0  0  0  0
  3 22  1  0  0  0  0
  4  5  1  0  0  0  0
  4 23  1  0  0  0  0
  4 24  1  0  0  0  0
  5  6  1  0  0  0  0
  5 25  1  0  0  0  0
  5 26  1  0  0  0  0
  6  7  1  0  0  0  0
  6  8  1  0  0  0  0
  6 27  1  0  0  0  0
  7 28  1  0  0  0  0
  7 29  1  0  0  0  0
  7 30  1  0  0  0  0
  8  9  1  0  0  0  0
  8 31  1  0  0  0  0
  9 10  1  0  0  0  0
  9 32  1  0  0  0  0
  9 33  1  0  0  0  0
 10 11  1  0  0  0  0
 10 34  1  0  0  0  0
 10 44  1  0  0  0  0
 11 12  1  0  0  0  0
 11 35  1  0  0  0  0
 11 36  1  0  0  0  0
 12 13  1  0  0  0  0
 12 37  1  0  0  0  0
 12 38  1  0  0  0  0
 13 17  1  0  0  0  0
 13 14  2  0  0  0  0
 14 15  1  0  0  0  0
 14 45  1  0  0  0  0
 15 16  2  0  0  0  0
 15 39  1  0  0  0  0
 16 17  1  0  0  0  0
 16 40  1  0  0  0  0
 17 18  1  0  0  0  0
 18 41  1  0  0  0  0
 18 42  1  0  0  0  0
 18 43  1  0  0  0  0
M  CHG  1  10   1
M  CHG  1  14   1
M  END
> <s_m_source_file>
AV-unprocessed.smi

> <i_m_source_file_index>
3284

> <i_lp_mmshare_version>
43012

> <i_f3d_flags>
0

> <s_epik_input>
W0NIM11DMT1bQ0hdW0NIMl1bQ0gyXVtDQEBIXShbQ0gzXSlbQ0BIXTFbQ0gyXVtOSF1bQ0gyXVtDSDJdYzJuW2NIXVtjSF1uMltDSDNd

> <s_epik_cmdline>
J2VwaWtfcHl0aG9uJywgJy1waCcsICc3LjAnLCAnLXRuJywgJzgnLCAnLW1hJywgJzIwMCcsICctbWV0YWxfYmluZGluZycsICctaW1hZScsICc8aW5maWxlLm1hZT4nLCAnLW9tYWUnLCAnPG91dGZpbGUubWFlPic=

> <r_lp_tautomer_probability>
1

> <r_epik_Ionization_Penalty>
0.892846

> <r_epik_Ionization_Penalty_Charging>
0.00275802

> <r_epik_Ionization_Penalty_Neutral>
0.890088

> <r_epik_State_Penalty>
0.485211

> <r_epik_Charging_Adjusted_Penalty>
0.487969

> <i_epik_Tot_Q>
2

> <i_epik_Tot_abs_Q>
2

> <r_epik_Metal_State_Penalty>
4.22898

> <b_epik_Metal_Only>
0

> <s_lp_Force_Field>
OPLS_2005

> <r_lp_Energy>
25.5845

> <b_lp_Chiralities_Consistent>
1

> <s_lp_Variant>
AV-unprocessed.smi:3284-5

> <Gold.Version>
5.8.1

> <Gold.Id.Protein>
6NUR|6NUR_protein|mol2

> <Gold.PLP.Fitness>
52.6990

> <Gold.PLP.PLP>
-50.8071

> <Gold.PLP.part.hbond>
0.0000

> <Gold.PLP.part.metal>
0.0000

> <Gold.PLP.part.buried>
-5.4391

> <Gold.PLP.part.nonpolar>
-45.2627

> <Gold.PLP.part.repulsive>
0.7741

> <Gold.PLP.ligand.clash>
0.0000

> <Gold.PLP.ligand.torsion>
0.7752

> <Gold.PLP.Chemscore.Hbond>
0.0000

> <Gold.PLP.Chemscore.CHOScore>
1.1311

> <Gold.PLP.Chemscore.Metal>
0.0000

> <Gold.Chemscore.Hbonds>
donor molecule, donor type, donor heavy atom, donor atom, acceptor molecule, acceptor atom, score
      L1  C    16    40       P1  7948  0.16
      L1  C    16    40       P1  7949  0.96

> <Gold.PLP.Chemscore.Internal.Correction>
0.0488

> <Gold.Rescore>
     Score         DG    S(hbond)    S(metal)    S(lipo)     H(rot)  DE(clash)    DE(int)     intcor
     16.30     -17.08       0.00        0.00     136.35       1.70       0.05       0.73       ----

> <Gold.Chemscore.Fitness>
16.2965

> <Gold.Chemscore.DG>
-17.0815

> <Gold.Chemscore.ZeroCoef>
-5.4800

> <Gold.Chemscore.Hbond>
0.0000

> <Gold.Chemscore.Metal>
0.0000

> <Gold.Chemscore.Lipo>
136.3477

> <Gold.Chemscore.Internal_Hbond>
0.0000

> <Gold.Chemscore.DEClash>
0.0509

> <Gold.Chemscore.DEInternal>
0.7341

> <Gold.Chemscore.Rot>
1.6997

> <Gold.Chemscore.Internal.Correction>
   9.000000E+99

> <Gold.Chemscore.Hbond.Weighted>
-0.0000

> <Gold.Chemscore.Metal.Weighted>
-0.0000

> <Gold.Chemscore.Lipo.Weighted>
-15.9527

> <Gold.Chemscore.Internal_Hbond.Weighted>
0.0000

> <Gold.Chemscore.DEClash.Weighted>
0.0509

> <Gold.Chemscore.DEInternal.Weighted>
0.7341

> <Gold.Chemscore.Rot.Weighted>
4.3512

> <Gold.Chemscore.Internal.Correction.Weighted>
   9.000000E+99

> <Gold.Protein.RotatedTorsions>
[ 6907 6896 6895 6894 ] final   -1.38 input  -60.11 | X-H torsion
[ 7974 7965 7964 7962 ] final   64.26 input  175.53 | X-H torsion
[ 8008 7997 7996 7995 ] final    6.35 input   59.86 | X-H torsion
[ 10167 10162 10161 10158 ] final -118.16 input  -65.29 | X-H torsion
[ 10718 10713 10712 10709 ] final   -3.37 input   66.30 | X-H torsion
[ 10763 10752 10751 10750 ] final  -81.28 input  -60.55 | X-H torsion
[ 11005 11000 10999 10996 ] final -167.67 input  -57.11 | X-H torsion

> <Gold.Protein.ActiveResidues>
 VAL166  LYS551  ARG553  GLY616  TRP617  ASP618  TYR619  PRO620  LYS621  CYS622 
 ASP623  PHE694  ASN695  SER759  ASP760  ASP761  ALA762  ILE779  LEU786  VAL792 
 PHE793  MET794  SER795  GLU796  ALA797  LYS798  CYS799  TRP800  GLU811  SER814 

> <Gold.Protein.RotatedAtoms>
  151.5470  135.1068  159.9940 H   0  0  0  0  0  0  0  0  0  0  0  0  # atno 6907 bound_to 6896
  152.4509  133.7623  159.6764 H   0  0  0  0  0  0  0  0  0  0  0  0  # atno 6908 bound_to 6896
  150.8437  133.7828  159.3075 H   0  0  0  0  0  0  0  0  0  0  0  0  # atno 6909 bound_to 6896
  145.8523  139.3261  143.0868 H   0  0  0  0  0  0  0  0  0  0  0  0  # atno 7974 bound_to 7965
  154.7399  140.2747  155.6382 H   0  0  0  0  0  0  0  0  0  0  0  0  # atno 8008 bound_to 7997
  156.2871  140.2699  156.2049 H   0  0  0  0  0  0  0  0  0  0  0  0  # atno 8009 bound_to 7997
  155.0271  140.0371  157.2450 H   0  0  0  0  0  0  0  0  0  0  0  0  # atno 8010 bound_to 7997
  140.0605  143.4973  152.2034 H   0  0  0  0  0  0  0  0  0  0  0  0  # atno 10167 bound_to 10162
  156.7771  130.5318  149.5757 H   0  0  0  0  0  0  0  0  0  0  0  0  # atno 10718 bound_to 10713
  154.5616  135.5632  153.7012 H   0  0  0  0  0  0  0  0  0  0  0  0  # atno 10763 bound_to 10752
  153.0020  135.6275  154.2237 H   0  0  0  0  0  0  0  0  0  0  0  0  # atno 10764 bound_to 10752
  154.2175  135.2871  155.2916 H   0  0  0  0  0  0  0  0  0  0  0  0  # atno 10765 bound_to 10752
  140.5507  134.5431  157.5121 H   0  0  0  0  0  0  0  0  0  0  0  0  # atno 11005 bound_to 11000
  145.9344  140.9025  143.0340 LP  0  0  0  0  0  0  0  0  0  0  0  0  # atno 17320 bound_to 7965
  144.6729  140.1462  143.7433 LP  0  0  0  0  0  0  0  0  0  0  0  0  # atno 17321 bound_to 7965
  139.5897  144.7545  151.3432 LP  0  0  0  0  0  0  0  0  0  0  0  0  # atno 17342 bound_to 10162
  140.7174  143.7228  150.7682 LP  0  0  0  0  0  0  0  0  0  0  0  0  # atno 17343 bound_to 10162
  156.1241  130.6131  151.0237 LP  0  0  0  0  0  0  0  0  0  0  0  0  # atno 17370 bound_to 10713
  157.6664  131.0871  150.7719 LP  0  0  0  0  0  0  0  0  0  0  0  0  # atno 17371 bound_to 10713
  139.9457  134.7707  156.0569 LP  0  0  0  0  0  0  0  0  0  0  0  0  # atno 17394 bound_to 11000
  141.1173  133.6623  156.3127 LP  0  0  0  0  0  0  0  0  0  0  0  0  # atno 17395 bound_to 11000

$$$$
