AV-unprocessed.smi:527|AV-procd|sdf|2829|dock9
  -GOLD-   2262023313D 1   1.00000     0.00000
 Structure written by MMmdl.
 43 44  0  0  0  0  0  0  0  0  2 V2000
  146.1319  142.3472  154.0340 C   0  0  0  0  0  0  0  0  0  0  0  0
  147.1167  141.2292  154.4139 C   0  0  2  0  0  0  0  0  0  0  0  0
  148.5831  141.6838  154.2700 C   0  0  0  0  0  0  0  0  0  0  0  0
  149.5577  140.5977  154.7523 C   0  0  0  0  0  0  0  0  0  0  0  0
  149.3100  139.2596  154.0396 C   0  0  0  0  0  0  0  0  0  0  0  0
  147.8436  138.8089  154.1870 C   0  0  2  0  0  0  0  0  0  0  0  0
  147.6551  137.5174  153.5283 N   0  0  0  0  0  0  0  0  0  0  0  0
  146.6082  136.6989  153.7096 C   0  0  0  0  0  0  0  0  0  0  0  0
  145.6293  136.9940  154.3983 O   0  0  0  0  0  0  0  0  0  0  0  0
  146.7777  135.5412  153.0420 N   0  0  0  0  0  0  0  0  0  0  0  0
  146.0227  134.4266  153.1295 C   0  0  0  0  0  0  0  0  0  0  0  0
  145.0329  134.2920  153.8513 O   0  0  0  0  0  0  0  0  0  0  0  0
  146.4516  133.2604  152.2372 C   0  0  0  0  0  0  0  0  0  0  0  0
  145.4738  133.0200  151.1712 N   0  0  0  0  0  0  0  0  0  0  0  0
  145.6245  132.2158  150.0702 C   0  0  0  0  0  0  0  0  0  0  0  0
  144.4563  132.3057  149.3576 C   0  0  0  0  0  0  0  0  0  0  0  0
  143.6427  133.1608  150.0519 N   0  3  0  0  0  0  0  0  0  0  0  0
  144.2624  133.5931  151.1549 C   0  0  0  0  0  0  0  0  0  0  0  0
  146.8569  139.8926  153.6689 C   0  0  2  0  0  0  0  0  0  0  0  0
  146.8594  140.0319  152.1287 C   0  0  0  0  0  0  0  0  0  0  0  0
  146.2872  142.6962  153.0132 H   0  0  0  0  0  0  0  0  0  0  0  0
  146.2506  143.2087  154.6920 H   0  0  0  0  0  0  0  0  0  0  0  0
  145.0991  142.0089  154.1213 H   0  0  0  0  0  0  0  0  0  0  0  0
  146.9506  141.0321  155.4743 H   0  0  0  0  0  0  0  0  0  0  0  0
  148.7990  141.9384  153.2320 H   0  0  0  0  0  0  0  0  0  0  0  0
  148.7471  142.5953  154.8457 H   0  0  0  0  0  0  0  0  0  0  0  0
  150.5862  140.9216  154.5895 H   0  0  0  0  0  0  0  0  0  0  0  0
  149.4445  140.4618  155.8286 H   0  0  0  0  0  0  0  0  0  0  0  0
  149.5732  139.3525  152.9854 H   0  0  0  0  0  0  0  0  0  0  0  0
  149.9754  138.5012  154.4542 H   0  0  0  0  0  0  0  0  0  0  0  0
  147.6585  138.6638  155.2536 H   0  0  0  0  0  0  0  0  0  0  0  0
  148.3804  137.2291  152.8881 H   0  0  0  0  0  0  0  0  0  0  0  0
  147.5581  135.5049  152.4030 H   0  0  0  0  0  0  0  0  0  0  0  0
  147.4227  133.4561  151.7794 H   0  0  0  0  0  0  0  0  0  0  0  0
  146.5485  132.3488  152.8290 H   0  0  0  0  0  0  0  0  0  0  0  0
  146.5275  131.6535  149.8798 H   0  0  0  0  0  0  0  0  0  0  0  0
  144.1510  131.8381  148.4326 H   0  0  0  0  0  0  0  0  0  0  0  0
  143.8647  134.2749  151.8862 H   0  0  0  0  0  0  0  0  0  0  0  0
  145.8511  139.5712  153.9428 H   0  0  0  0  0  0  0  0  0  0  0  0
  147.8206  140.3758  151.7491 H   0  0  0  0  0  0  0  0  0  0  0  0
  146.1003  140.7364  151.7908 H   0  0  0  0  0  0  0  0  0  0  0  0
  146.6344  139.0840  151.6406 H   0  0  0  0  0  0  0  0  0  0  0  0
  142.7075  133.4304  149.7725 H   0  0  0  0  0  0  0  0  0  0  0  0
  1  2  1  0  0  0  0
  1 21  1  0  0  0  0
  1 22  1  0  0  0  0
  1 23  1  0  0  0  0
  2 19  1  0  0  0  0
  2  3  1  0  0  0  0
  2 24  1  0  0  0  0
  3  4  1  0  0  0  0
  3 25  1  0  0  0  0
  3 26  1  0  0  0  0
  4  5  1  0  0  0  0
  4 27  1  0  0  0  0
  4 28  1  0  0  0  0
  5  6  1  0  0  0  0
  5 29  1  0  0  0  0
  5 30  1  0  0  0  0
  6  7  1  0  0  0  0
  6 19  1  0  0  0  0
  6 31  1  0  0  0  0
  7  8  1  0  0  0  0
  7 32  1  0  0  0  0
  8  9  2  0  0  0  0
  8 10  1  0  0  0  0
 10 11  1  0  0  0  0
 10 33  1  0  0  0  0
 11 12  2  0  0  0  0
 11 13  1  0  0  0  0
 13 14  1  0  0  0  0
 13 34  1  0  0  0  0
 13 35  1  0  0  0  0
 14 18  1  0  0  0  0
 14 15  1  0  0  0  0
 15 16  2  0  0  0  0
 15 36  1  0  0  0  0
 16 17  1  0  0  0  0
 16 37  1  0  0  0  0
 17 18  2  0  0  0  0
 17 43  1  0  0  0  0
 18 38  1  0  0  0  0
 19 20  1  0  0  0  0
 19 39  1  0  0  0  0
 20 40  1  0  0  0  0
 20 41  1  0  0  0  0
 20 42  1  0  0  0  0
M  CHG  1  17   1
M  END
> <s_m_source_file>
AV-unprocessed.smi

> <i_m_source_file_index>
527

> <i_lp_mmshare_version>
43012

> <i_f3d_flags>
0

> <s_epik_input>
W0NIM11bQ0BASF0xW0NIMl1bQ0gyXVtDSDJdW0NASF0oW0NASF0xW0NIM10pW05IXUMoPU8pW05IXUMoPU8pW0NIMl1uMltjSF1bY0hdbltjSF0y

> <s_epik_cmdline>
J2VwaWtfcHl0aG9uJywgJy1waCcsICc3LjAnLCAnLXRuJywgJzgnLCAnLW1hJywgJzIwMCcsICctbWV0YWxfYmluZGluZycsICctaW1hZScsICc8aW5maWxlLm1hZT4nLCAnLW9tYWUnLCAnPG91dGZpbGUubWFlPic=

> <r_lp_tautomer_probability>
1

> <r_epik_Ionization_Penalty>
0.816441

> <r_epik_Ionization_Penalty_Charging>
0

> <r_epik_Ionization_Penalty_Neutral>
0.816441

> <r_epik_State_Penalty>
0.849034

> <r_epik_Charging_Adjusted_Penalty>
0.849034

> <i_epik_Tot_Q>
1

> <i_epik_Tot_abs_Q>
1

> <r_epik_Metal_State_Penalty>
0.984327

> <b_epik_Metal_Only>
0

> <s_lp_Force_Field>
OPLS_2005

> <r_lp_Energy>
18.4408

> <b_lp_Chiralities_Consistent>
1

> <s_lp_Variant>
AV-unprocessed.smi:527-15

> <Gold.Version>
5.8.1

> <Gold.Id.Protein>
6NUR|6NUR_protein|mol2

> <Gold.PLP.Fitness>
48.8925

> <Gold.PLP.PLP>
-34.6100

> <Gold.PLP.part.hbond>
-3.0000

> <Gold.PLP.part.metal>
0.0000

> <Gold.PLP.part.buried>
-0.0568

> <Gold.PLP.part.nonpolar>
-31.5876

> <Gold.PLP.part.repulsive>
0.2350

> <Gold.PLP.ligand.clash>
0.0000

> <Gold.PLP.ligand.torsion>
0.3686

> <Gold.PLP.Chemscore.Hbond>
4.0000

> <Gold.PLP.Chemscore.CHOScore>
1.0000

> <Gold.PLP.Chemscore.Metal>
0.0000

> <Gold.Chemscore.Hbonds>
donor molecule, donor type, donor heavy atom, donor atom, acceptor molecule, acceptor atom, score
      L1  H     7    32       P1  7948  1.00
      L1  H    10    33       P1  7948  0.98
      L1  H    17    43       P1 10186  2.00
      L1  C    15    36       P1 10747  0.85

> <Gold.PLP.Chemscore.Internal.Correction>
0.0197

> <Gold.Rescore>
     Score         DG    S(hbond)    S(metal)    S(lipo)     H(rot)  DE(clash)    DE(int)     intcor
     16.77     -20.00       2.92        0.00      78.07       1.71       0.48       2.75       ----

> <Gold.Chemscore.Fitness>
16.7650

> <Gold.Chemscore.DG>
-19.9967

> <Gold.Chemscore.ZeroCoef>
-5.4800

> <Gold.Chemscore.Hbond>
2.9184

> <Gold.Chemscore.Metal>
0.0000

> <Gold.Chemscore.Lipo>
78.0738

> <Gold.Chemscore.Internal_Hbond>
0.0000

> <Gold.Chemscore.DEClash>
0.4817

> <Gold.Chemscore.DEInternal>
2.7500

> <Gold.Chemscore.Rot>
1.7052

> <Gold.Chemscore.Internal.Correction>
   9.000000E+99

> <Gold.Chemscore.Hbonds>
donor molecule, donor type, donor heavy atom, donor atom, acceptor molecule, acceptor atom, score
      L1  H     7    32       P1  7948  0.90
      L1  H    10    33       P1  7948  0.93
      L1  H    17    43       P1 10186  0.98

> <Gold.Chemscore.Hbond.Weighted>
-9.7473

> <Gold.Chemscore.Metal.Weighted>
-0.0000

> <Gold.Chemscore.Lipo.Weighted>
-9.1346

> <Gold.Chemscore.Internal_Hbond.Weighted>
0.0000

> <Gold.Chemscore.DEClash.Weighted>
0.4817

> <Gold.Chemscore.DEInternal.Weighted>
2.7500

> <Gold.Chemscore.Rot.Weighted>
4.3653

> <Gold.Chemscore.Internal.Correction.Weighted>
   9.000000E+99

> <Gold.Protein.RotatedTorsions>
[ 6907 6896 6895 6894 ] final  155.06 input  -60.11 | X-H torsion
[ 7974 7965 7964 7962 ] final -144.68 input  175.53 | X-H torsion
[ 8008 7997 7996 7995 ] final -107.56 input   59.86 | X-H torsion
[ 10167 10162 10161 10158 ] final  110.11 input  -65.29 | X-H torsion
[ 10718 10713 10712 10709 ] final  -34.10 input   66.30 | X-H torsion
[ 10763 10752 10751 10750 ] final  114.48 input  -60.55 | X-H torsion
[ 11005 11000 10999 10996 ] final   80.31 input  -57.11 | X-H torsion

> <Gold.Protein.ActiveResidues>
 VAL166  LYS551  ARG553  GLY616  TRP617  ASP618  TYR619  PRO620  LYS621  CYS622 
 ASP623  PHE694  ASN695  SER759  ASP760  ASP761  ALA762  ILE779  LEU786  VAL792 
 PHE793  MET794  SER795  GLU796  ALA797  LYS798  CYS799  TRP800  GLU811  SER814 

> <Gold.Protein.RotatedAtoms>
  152.0496  133.4013  159.4371 H   0  0  0  0  0  0  0  0  0  0  0  0  # atno 6907 bound_to 6896
  150.6871  134.3323  159.4841 H   0  0  0  0  0  0  0  0  0  0  0  0  # atno 6908 bound_to 6896
  152.1131  134.9259  160.0616 H   0  0  0  0  0  0  0  0  0  0  0  0  # atno 6909 bound_to 6896
  144.8280  140.5679  143.5534 H   0  0  0  0  0  0  0  0  0  0  0  0  # atno 7974 bound_to 7965
  154.9312  140.0405  157.2049 H   0  0  0  0  0  0  0  0  0  0  0  0  # atno 8008 bound_to 7997
  154.8159  140.2875  155.5799 H   0  0  0  0  0  0  0  0  0  0  0  0  # atno 8009 bound_to 7997
  156.2976  140.2528  156.3056 H   0  0  0  0  0  0  0  0  0  0  0  0  # atno 8010 bound_to 7997
  139.6714  144.7125  151.1682 H   0  0  0  0  0  0  0  0  0  0  0  0  # atno 10167 bound_to 10162
  156.3547  130.4314  149.7675 H   0  0  0  0  0  0  0  0  0  0  0  0  # atno 10718 bound_to 10713
  153.5080  135.3624  155.2572 H   0  0  0  0  0  0  0  0  0  0  0  0  # atno 10763 bound_to 10752
  154.8744  135.4016  154.3402 H   0  0  0  0  0  0  0  0  0  0  0  0  # atno 10764 bound_to 10752
  153.4050  135.7076  153.6466 H   0  0  0  0  0  0  0  0  0  0  0  0  # atno 10765 bound_to 10752
  139.9139  134.7910  156.1893 H   0  0  0  0  0  0  0  0  0  0  0  0  # atno 11005 bound_to 11000
  145.4957  139.1486  143.3685 LP  0  0  0  0  0  0  0  0  0  0  0  0  # atno 17320 bound_to 7965
  146.2585  140.5096  142.8863 LP  0  0  0  0  0  0  0  0  0  0  0  0  # atno 17321 bound_to 7965
  140.7619  143.5839  150.8866 LP  0  0  0  0  0  0  0  0  0  0  0  0  # atno 17342 bound_to 10162
  139.9505  143.6278  152.3030 LP  0  0  0  0  0  0  0  0  0  0  0  0  # atno 17343 bound_to 10162
  156.4862  130.8064  151.3076 LP  0  0  0  0  0  0  0  0  0  0  0  0  # atno 17370 bound_to 10713
  157.7466  130.9990  150.2873 LP  0  0  0  0  0  0  0  0  0  0  0  0  # atno 17371 bound_to 10713
  141.0594  133.6849  156.1923 LP  0  0  0  0  0  0  0  0  0  0  0  0  # atno 17394 bound_to 11000
  140.6685  134.4892  157.5586 LP  0  0  0  0  0  0  0  0  0  0  0  0  # atno 17395 bound_to 11000

$$$$
