AV-unprocessed.smi:380|AV-procd|sdf|2460|dock9
  -GOLD-   2262022403D 1   1.00000     0.00000
 Structure written by MMmdl.
 39 40  0  0  0  0  0  0  0  0  1 V2000
  153.0313  143.3800  159.4934 C   0  0  0  0  0  0  0  0  0  0  0  0
  151.8311  144.3165  159.2694 C   0  0  0  0  0  0  0  0  0  0  0  0
  151.6448  145.2576  160.4683 C   0  0  0  0  0  0  0  0  0  0  0  0
  150.5269  143.5435  158.9756 C   0  0  0  0  0  0  0  0  0  0  0  0
  150.3186  143.3101  157.5503 N   0  0  0  0  0  0  0  0  0  0  0  0
  150.2799  142.1052  156.9627 C   0  0  0  0  0  0  0  0  0  0  0  0
  150.4391  141.0501  157.5785 O   0  0  0  0  0  0  0  0  0  0  0  0
  150.0284  142.1066  155.4473 C   0  0  0  0  0  0  0  0  0  0  0  0
  149.6440  140.7795  154.9180 N   0  0  0  0  0  0  0  0  0  0  0  0
  150.5315  139.6911  155.1167 C   0  0  0  0  0  0  0  0  0  0  0  0
  151.5982  139.8429  155.7149 O   0  0  0  0  0  0  0  0  0  0  0  0
  150.0892  138.4108  154.5693 C   0  0  0  0  0  0  0  0  0  0  0  0
  150.9332  137.2831  154.7881 C   0  0  0  0  0  0  0  0  0  0  0  0
  151.5983  136.3530  154.9670 N   0  0  0  0  0  0  0  0  0  0  0  0
  148.9283  138.3095  153.8900 C   0  0  0  0  0  0  0  0  0  0  0  0
  148.1076  139.3919  153.6595 N   0  0  0  0  0  0  0  0  0  0  0  0
  146.8138  139.2367  153.0565 C   0  0  0  0  0  0  0  0  0  0  0  0
  146.2900  137.8420  152.7904 C   0  0  0  0  0  0  0  0  0  0  0  0
  146.6893  138.7254  151.6342 C   0  0  0  0  0  0  0  0  0  0  0  0
  148.4232  140.6527  154.2117 C   0  0  0  0  0  0  0  0  0  0  0  0
  147.6607  141.6137  154.0840 O   0  0  0  0  0  0  0  0  0  0  0  0
  152.8541  142.7041  160.3303 H   0  0  0  0  0  0  0  0  0  0  0  0
  153.9361  143.9481  159.7109 H   0  0  0  0  0  0  0  0  0  0  0  0
  153.2372  142.7730  158.6115 H   0  0  0  0  0  0  0  0  0  0  0  0
  152.0590  144.9412  158.4045 H   0  0  0  0  0  0  0  0  0  0  0  0
  151.4182  144.7009  161.3781 H   0  0  0  0  0  0  0  0  0  0  0  0
  150.8277  145.9583  160.2942 H   0  0  0  0  0  0  0  0  0  0  0  0
  152.5455  145.8440  160.6522 H   0  0  0  0  0  0  0  0  0  0  0  0
  150.5503  142.5739  159.4740 H   0  0  0  0  0  0  0  0  0  0  0  0
  149.6676  144.0766  159.3862 H   0  0  0  0  0  0  0  0  0  0  0  0
  150.1818  144.1253  156.9704 H   0  0  0  0  0  0  0  0  0  0  0  0
  149.2612  142.8476  155.2159 H   0  0  0  0  0  0  0  0  0  0  0  0
  150.9222  142.4916  154.9545 H   0  0  0  0  0  0  0  0  0  0  0  0
  148.6319  137.3450  153.5030 H   0  0  0  0  0  0  0  0  0  0  0  0
  146.0698  139.9704  153.3617 H   0  0  0  0  0  0  0  0  0  0  0  0
  146.9384  136.9976  153.0171 H   0  0  0  0  0  0  0  0  0  0  0  0
  145.2274  137.6673  152.9455 H   0  0  0  0  0  0  0  0  0  0  0  0
  145.8938  139.1427  151.0204 H   0  0  0  0  0  0  0  0  0  0  0  0
  147.5997  138.4609  151.0995 H   0  0  0  0  0  0  0  0  0  0  0  0
  1  2  1  0  0  0  0
  1 22  1  0  0  0  0
  1 23  1  0  0  0  0
  1 24  1  0  0  0  0
  2  3  1  0  0  0  0
  2  4  1  0  0  0  0
  2 25  1  0  0  0  0
  3 26  1  0  0  0  0
  3 27  1  0  0  0  0
  3 28  1  0  0  0  0
  4  5  1  0  0  0  0
  4 29  1  0  0  0  0
  4 30  1  0  0  0  0
  5  6  1  0  0  0  0
  5 31  1  0  0  0  0
  6  7  2  0  0  0  0
  6  8  1  0  0  0  0
  8  9  1  0  0  0  0
  8 32  1  0  0  0  0
  8 33  1  0  0  0  0
  9 20  1  0  0  0  0
  9 10  1  0  0  0  0
 10 11  2  0  0  0  0
 10 12  1  0  0  0  0
 12 13  1  0  0  0  0
 12 15  2  0  0  0  0
 13 14  3  0  0  0  0
 15 16  1  0  0  0  0
 15 34  1  0  0  0  0
 16 17  1  0  0  0  0
 16 20  1  0  0  0  0
 17 19  1  0  0  0  0
 17 18  1  0  0  0  0
 17 35  1  0  0  0  0
 18 19  1  0  0  0  0
 18 36  1  0  0  0  0
 18 37  1  0  0  0  0
 19 38  1  0  0  0  0
 19 39  1  0  0  0  0
 20 21  2  0  0  0  0
M  END
> <s_m_source_file>
AV-unprocessed.smi

> <i_m_source_file_index>
380

> <i_lp_mmshare_version>
43012

> <i_f3d_flags>
0

> <s_epik_input>
W0NIM11bQ0hdKFtDSDNdKVtDSDJdW05IXUMoPU8pW0NIMl1uMWMoPU8pYyhDI04pW2NIXW4oYzE9TylbQ0hdMltDSDJdW0NIMl0y

> <s_epik_cmdline>
J2VwaWtfcHl0aG9uJywgJy1waCcsICc3LjAnLCAnLXRuJywgJzgnLCAnLW1hJywgJzIwMCcsICctbWV0YWxfYmluZGluZycsICctaW1hZScsICc8aW5maWxlLm1hZT4nLCAnLW9tYWUnLCAnPG91dGZpbGUubWFlPic=

> <r_lp_tautomer_probability>
1

> <r_epik_Ionization_Penalty>
1.93825e-08

> <r_epik_Ionization_Penalty_Charging>
8.0817e-11

> <r_epik_Ionization_Penalty_Neutral>
1.93017e-08

> <r_epik_State_Penalty>
-0

> <r_epik_Charging_Adjusted_Penalty>
8.0817e-11

> <i_epik_Tot_Q>
0

> <i_epik_Tot_abs_Q>
0

> <r_epik_Metal_State_Penalty>
-0

> <b_epik_Metal_Only>
0

> <s_lp_Force_Field>
OPLS_2005

> <r_lp_Energy>
29.2237

> <b_lp_Chiralities_Consistent>
1

> <s_lp_Variant>
AV-unprocessed.smi:380-1

> <Gold.Version>
5.8.1

> <Gold.Id.Protein>
6NUR|6NUR_protein|mol2

> <Gold.PLP.Fitness>
47.7859

> <Gold.PLP.PLP>
-40.9393

> <Gold.PLP.part.hbond>
-2.0767

> <Gold.PLP.part.metal>
0.0000

> <Gold.PLP.part.buried>
0.3389

> <Gold.PLP.part.nonpolar>
-41.1408

> <Gold.PLP.part.repulsive>
0.3266

> <Gold.PLP.ligand.clash>
0.0000

> <Gold.PLP.ligand.torsion>
0.7893

> <Gold.PLP.Chemscore.Hbond>
1.7360

> <Gold.PLP.Chemscore.CHOScore>
1.0000

> <Gold.PLP.Chemscore.Metal>
0.0000

> <Gold.Chemscore.Hbonds>
donor molecule, donor type, donor heavy atom, donor atom, acceptor molecule, acceptor atom, score
      L1  H     5    31       P1  8028  0.75
      P1  H 10752 10764       L1    14  1.00
      L1  C    15    34       P1  7948  0.92

> <Gold.PLP.Chemscore.Internal.Correction>
0.2171

> <Gold.Rescore>
     Score         DG    S(hbond)    S(metal)    S(lipo)     H(rot)  DE(clash)    DE(int)     intcor
     11.75     -15.14       1.74        0.00      76.60       1.99       0.19       3.20       ----

> <Gold.Chemscore.Fitness>
11.7545

> <Gold.Chemscore.DG>
-15.1432

> <Gold.Chemscore.ZeroCoef>
-5.4800

> <Gold.Chemscore.Hbond>
1.7373

> <Gold.Chemscore.Metal>
0.0000

> <Gold.Chemscore.Lipo>
76.6030

> <Gold.Chemscore.Internal_Hbond>
0.0000

> <Gold.Chemscore.DEClash>
0.1919

> <Gold.Chemscore.DEInternal>
3.1969

> <Gold.Chemscore.Rot>
1.9930

> <Gold.Chemscore.Internal.Correction>
   9.000000E+99

> <Gold.Chemscore.Hbonds>
donor molecule, donor type, donor heavy atom, donor atom, acceptor molecule, acceptor atom, score
      L1  H     5    31       P1  8028  0.71
      P1  H 10752 10764       L1    14  0.98

> <Gold.Chemscore.Hbond.Weighted>
-5.8026

> <Gold.Chemscore.Metal.Weighted>
-0.0000

> <Gold.Chemscore.Lipo.Weighted>
-8.9625

> <Gold.Chemscore.Internal_Hbond.Weighted>
0.0000

> <Gold.Chemscore.DEClash.Weighted>
0.1919

> <Gold.Chemscore.DEInternal.Weighted>
3.1969

> <Gold.Chemscore.Rot.Weighted>
5.1020

> <Gold.Chemscore.Internal.Correction.Weighted>
   9.000000E+99

> <Gold.Protein.RotatedTorsions>
[ 6907 6896 6895 6894 ] final  120.20 input  -60.11 | X-H torsion
[ 7974 7965 7964 7962 ] final   59.16 input  175.53 | X-H torsion
[ 8008 7997 7996 7995 ] final   74.95 input   59.86 | X-H torsion
[ 10167 10162 10161 10158 ] final   94.95 input  -65.29 | X-H torsion
[ 10718 10713 10712 10709 ] final    0.40 input   66.30 | X-H torsion
[ 10763 10752 10751 10750 ] final  -54.70 input  -60.55 | X-H torsion
[ 11005 11000 10999 10996 ] final  -85.40 input  -57.11 | X-H torsion

> <Gold.Protein.ActiveResidues>
 VAL166  LYS551  ARG553  GLY616  TRP617  ASP618  TYR619  PRO620  LYS621  CYS622 
 ASP623  PHE694  ASN695  SER759  ASP760  ASP761  ALA762  ILE779  LEU786  VAL792 
 PHE793  MET794  SER795  GLU796  ALA797  LYS798  CYS799  TRP800  GLU811  SER814 

> <Gold.Protein.RotatedAtoms>
  152.4415  133.7458  159.6665 H   0  0  0  0  0  0  0  0  0  0  0  0  # atno 6907 bound_to 6896
  150.8307  133.8085  159.3106 H   0  0  0  0  0  0  0  0  0  0  0  0  # atno 6908 bound_to 6896
  151.5740  135.1064  160.0053 H   0  0  0  0  0  0  0  0  0  0  0  0  # atno 6909 bound_to 6896
  145.9102  139.3648  143.0540 H   0  0  0  0  0  0  0  0  0  0  0  0  # atno 7974 bound_to 7965
  155.8059  140.3475  155.5429 H   0  0  0  0  0  0  0  0  0  0  0  0  # atno 8008 bound_to 7997
  155.8491  140.0953  157.1706 H   0  0  0  0  0  0  0  0  0  0  0  0  # atno 8009 bound_to 7997
  154.4007  140.1380  156.3809 H   0  0  0  0  0  0  0  0  0  0  0  0  # atno 8010 bound_to 7997
  139.8035  144.6804  150.9734 H   0  0  0  0  0  0  0  0  0  0  0  0  # atno 10167 bound_to 10162
  156.8328  130.5494  149.5685 H   0  0  0  0  0  0  0  0  0  0  0  0  # atno 10718 bound_to 10713
  154.1791  135.6446  153.5029 H   0  0  0  0  0  0  0  0  0  0  0  0  # atno 10763 bound_to 10752
  153.0064  135.5401  154.6533 H   0  0  0  0  0  0  0  0  0  0  0  0  # atno 10764 bound_to 10752
  154.5892  135.2932  155.0625 H   0  0  0  0  0  0  0  0  0  0  0  0  # atno 10765 bound_to 10752
  141.1641  133.7397  156.9010 H   0  0  0  0  0  0  0  0  0  0  0  0  # atno 11005 bound_to 11000
  145.8681  140.9436  143.0665 LP  0  0  0  0  0  0  0  0  0  0  0  0  # atno 17320 bound_to 7965
  144.6742  140.0619  143.7476 LP  0  0  0  0  0  0  0  0  0  0  0  0  # atno 17321 bound_to 7965
  140.7820  143.4257  151.0771 LP  0  0  0  0  0  0  0  0  0  0  0  0  # atno 17342 bound_to 10162
  139.7928  143.8194  152.3154 LP  0  0  0  0  0  0  0  0  0  0  0  0  # atno 17343 bound_to 10162
  156.0924  130.5906  150.9756 LP  0  0  0  0  0  0  0  0  0  0  0  0  # atno 17370 bound_to 10713
  157.6397  131.0912  150.8276 LP  0  0  0  0  0  0  0  0  0  0  0  0  # atno 17371 bound_to 10713
  140.1583  134.9183  157.2681 LP  0  0  0  0  0  0  0  0  0  0  0  0  # atno 17394 bound_to 11000
  140.2641  134.3536  155.7396 LP  0  0  0  0  0  0  0  0  0  0  0  0  # atno 17395 bound_to 11000

$$$$
