AV-unprocessed.smi:780|AV-procd|sdf|3706|dock7
  -GOLD-   22720 1133D 1   1.00000     0.00000
 Structure written by MMmdl.
 48 49  0  0  0  0  0  0  0  0  1 V2000
  147.9397  131.7000  155.0491 C   0  0  0  0  0  0  0  0  0  0  0  0
  148.5402  133.0195  155.4878 C   0  0  0  0  0  0  0  0  0  0  0  0
  149.1856  133.8923  154.5297 C   0  0  0  0  0  0  0  0  0  0  0  0
  149.7149  135.0503  154.9541 C   0  0  0  0  0  0  0  0  0  0  0  0
  149.6625  135.4424  156.3043 N   0  0  0  0  0  0  0  0  0  0  0  0
  150.3326  136.7087  156.6582 C   0  0  0  0  0  0  0  0  0  0  0  0
  149.6145  137.9720  156.1482 C   0  0  0  0  0  0  0  0  0  0  0  0
  148.5965  138.3624  156.7179 O   0  0  0  0  0  0  0  0  0  0  0  0
  150.1319  138.5919  155.0775 N   0  0  0  0  0  0  0  0  0  0  0  0
  149.5804  139.7587  154.4063 C   0  0  0  0  0  0  0  0  0  0  0  0
  149.6417  140.9837  155.3339 C   0  0  0  0  0  0  0  0  0  0  0  0
  150.9996  141.1570  156.0336 C   0  0  0  0  0  0  0  0  0  0  0  0
  150.9069  142.2204  156.9691 O   0  0  0  0  0  0  0  0  0  0  0  0
  151.9335  142.2247  157.9538 C   0  0  0  0  0  0  0  0  0  0  0  0
  151.6060  141.2424  159.1001 C   0  0  0  0  0  0  0  0  0  0  0  0
  152.6404  141.3361  160.2333 C   0  0  0  0  0  0  0  0  0  0  0  0
  152.7659  142.7745  160.7593 C   0  0  0  0  0  0  0  0  0  0  0  0
  153.0894  143.7557  159.6216 C   0  0  0  0  0  0  0  0  0  0  0  0
  152.0487  143.6610  158.4943 C   0  0  0  0  0  0  0  0  0  0  0  0
  149.0629  134.6668  157.2575 C   0  0  0  0  0  0  0  0  0  0  0  0
  149.0240  134.9981  158.4424 O   0  0  0  0  0  0  0  0  0  0  0  0
  148.4862  133.4038  156.7821 C   0  0  0  0  0  0  0  0  0  0  0  0
  148.2638  131.4372  154.0418 H   0  0  0  0  0  0  0  0  0  0  0  0
  146.8511  131.7598  155.0541 H   0  0  0  0  0  0  0  0  0  0  0  0
  148.2451  130.8977  155.7216 H   0  0  0  0  0  0  0  0  0  0  0  0
  149.2466  133.6165  153.4872 H   0  0  0  0  0  0  0  0  0  0  0  0
  150.2187  135.7421  154.2945 H   0  0  0  0  0  0  0  0  0  0  0  0
  150.4248  136.7863  157.7427 H   0  0  0  0  0  0  0  0  0  0  0  0
  151.3591  136.7202  156.2879 H   0  0  0  0  0  0  0  0  0  0  0  0
  150.9723  138.2022  154.6763 H   0  0  0  0  0  0  0  0  0  0  0  0
  150.1428  139.9491  153.4911 H   0  0  0  0  0  0  0  0  0  0  0  0
  148.5471  139.5619  154.1167 H   0  0  0  0  0  0  0  0  0  0  0  0
  149.4134  141.8827  154.7608 H   0  0  0  0  0  0  0  0  0  0  0  0
  148.8590  140.8976  156.0888 H   0  0  0  0  0  0  0  0  0  0  0  0
  151.2794  140.2355  156.5429 H   0  0  0  0  0  0  0  0  0  0  0  0
  151.7767  141.3715  155.2985 H   0  0  0  0  0  0  0  0  0  0  0  0
  152.8868  141.9540  157.4958 H   0  0  0  0  0  0  0  0  0  0  0  0
  150.6126  141.4582  159.4955 H   0  0  0  0  0  0  0  0  0  0  0  0
  151.5754  140.2165  158.7358 H   0  0  0  0  0  0  0  0  0  0  0  0
  152.3612  140.6664  161.0471 H   0  0  0  0  0  0  0  0  0  0  0  0
  153.6103  140.9935  159.8703 H   0  0  0  0  0  0  0  0  0  0  0  0
  151.8332  143.0695  161.2418 H   0  0  0  0  0  0  0  0  0  0  0  0
  153.5400  142.8246  161.5256 H   0  0  0  0  0  0  0  0  0  0  0  0
  153.1265  144.7741  160.0091 H   0  0  0  0  0  0  0  0  0  0  0  0
  154.0813  143.5398  159.2224 H   0  0  0  0  0  0  0  0  0  0  0  0
  152.3170  144.3415  157.6857 H   0  0  0  0  0  0  0  0  0  0  0  0
  151.0784  143.9923  158.8674 H   0  0  0  0  0  0  0  0  0  0  0  0
  148.0057  132.7568  157.5020 H   0  0  0  0  0  0  0  0  0  0  0  0
  1  2  1  0  0  0  0
  1 23  1  0  0  0  0
  1 24  1  0  0  0  0
  1 25  1  0  0  0  0
  2 22  2  0  0  0  0
  2  3  1  0  0  0  0
  3  4  2  0  0  0  0
  3 26  1  0  0  0  0
  4  5  1  0  0  0  0
  4 27  1  0  0  0  0
  5  6  1  0  0  0  0
  5 20  1  0  0  0  0
  6  7  1  0  0  0  0
  6 28  1  0  0  0  0
  6 29  1  0  0  0  0
  7  8  2  0  0  0  0
  7  9  1  0  0  0  0
  9 10  1  0  0  0  0
  9 30  1  0  0  0  0
 10 11  1  0  0  0  0
 10 31  1  0  0  0  0
 10 32  1  0  0  0  0
 11 12  1  0  0  0  0
 11 33  1  0  0  0  0
 11 34  1  0  0  0  0
 12 13  1  0  0  0  0
 12 35  1  0  0  0  0
 12 36  1  0  0  0  0
 13 14  1  0  0  0  0
 14 19  1  0  0  0  0
 14 15  1  0  0  0  0
 14 37  1  0  0  0  0
 15 16  1  0  0  0  0
 15 38  1  0  0  0  0
 15 39  1  0  0  0  0
 16 17  1  0  0  0  0
 16 40  1  0  0  0  0
 16 41  1  0  0  0  0
 17 18  1  0  0  0  0
 17 42  1  0  0  0  0
 17 43  1  0  0  0  0
 18 19  1  0  0  0  0
 18 44  1  0  0  0  0
 18 45  1  0  0  0  0
 19 46  1  0  0  0  0
 19 47  1  0  0  0  0
 20 21  2  0  0  0  0
 20 22  1  0  0  0  0
 22 48  1  0  0  0  0
M  END
> <s_m_source_file>
AV-unprocessed.smi

> <i_m_source_file_index>
780

> <i_lp_mmshare_version>
43012

> <i_f3d_flags>
0

> <s_epik_input>
W0NIM11jMVtjSF1bY0hdbihjKD1PKVtjSF0xKVtDSDJdQyg9TylbTkhdW0NIMl1bQ0gyXVtDSDJdT1tDSF0yW0NIMl1bQ0gyXVtDSDJdW0NIMl1bQ0gyXTI=

> <s_epik_cmdline>
J2VwaWtfcHl0aG9uJywgJy1waCcsICc3LjAnLCAnLXRuJywgJzgnLCAnLW1hJywgJzIwMCcsICctbWV0YWxfYmluZGluZycsICctaW1hZScsICc8aW5maWxlLm1hZT4nLCAnLW9tYWUnLCAnPG91dGZpbGUubWFlPic=

> <r_lp_tautomer_probability>
1

> <r_epik_Ionization_Penalty>
5.32667e-07

> <r_epik_Ionization_Penalty_Charging>
5.13386e-07

> <r_epik_Ionization_Penalty_Neutral>
1.92812e-08

> <r_epik_State_Penalty>
-0

> <r_epik_Charging_Adjusted_Penalty>
5.13386e-07

> <i_epik_Tot_Q>
0

> <i_epik_Tot_abs_Q>
0

> <r_epik_Metal_State_Penalty>
-0

> <b_epik_Metal_Only>
0

> <s_lp_Force_Field>
OPLS_2005

> <r_lp_Energy>
20.4059

> <b_lp_Chiralities_Consistent>
1

> <s_lp_Variant>
AV-unprocessed.smi:780-1

> <Gold.Version>
5.8.1

> <Gold.Id.Protein>
6NUR|6NUR_protein|mol2

> <Gold.PLP.Fitness>
41.2097

> <Gold.PLP.PLP>
-37.7657

> <Gold.PLP.part.hbond>
-1.0000

> <Gold.PLP.part.metal>
0.0000

> <Gold.PLP.part.buried>
-4.4194

> <Gold.PLP.part.nonpolar>
-31.9744

> <Gold.PLP.part.repulsive>
0.1472

> <Gold.PLP.ligand.clash>
0.0000

> <Gold.PLP.ligand.torsion>
0.6907

> <Gold.PLP.Chemscore.Hbond>
1.0000

> <Gold.PLP.Chemscore.CHOScore>
0.5864

> <Gold.PLP.Chemscore.Metal>
0.0000

> <Gold.Chemscore.Hbonds>
donor molecule, donor type, donor heavy atom, donor atom, acceptor molecule, acceptor atom, score
      P1  H  6896  6909       L1    21  0.94
      L1  C     4    27       P1  7948  0.23

> <Gold.PLP.Chemscore.Internal.Correction>
0.0661

> <Gold.Rescore>
     Score         DG    S(hbond)    S(metal)    S(lipo)     H(rot)  DE(clash)    DE(int)     intcor
     16.23     -17.28       0.99        0.00     115.52       1.97       0.16       0.88       ----

> <Gold.Chemscore.Fitness>
16.2295

> <Gold.Chemscore.DG>
-17.2776

> <Gold.Chemscore.ZeroCoef>
-5.4800

> <Gold.Chemscore.Hbond>
0.9934

> <Gold.Chemscore.Metal>
0.0000

> <Gold.Chemscore.Lipo>
115.5167

> <Gold.Chemscore.Internal_Hbond>
0.0000

> <Gold.Chemscore.DEClash>
0.1641

> <Gold.Chemscore.DEInternal>
0.8840

> <Gold.Chemscore.Rot>
1.9671

> <Gold.Chemscore.Internal.Correction>
   9.000000E+99

> <Gold.Chemscore.Hbonds>
donor molecule, donor type, donor heavy atom, donor atom, acceptor molecule, acceptor atom, score
      P1  H  6896  6909       L1    21  0.58

> <Gold.Chemscore.Hbond.Weighted>
-3.3180

> <Gold.Chemscore.Metal.Weighted>
-0.0000

> <Gold.Chemscore.Lipo.Weighted>
-13.5155

> <Gold.Chemscore.Internal_Hbond.Weighted>
0.0000

> <Gold.Chemscore.DEClash.Weighted>
0.1641

> <Gold.Chemscore.DEInternal.Weighted>
0.8840

> <Gold.Chemscore.Rot.Weighted>
5.0359

> <Gold.Chemscore.Internal.Correction.Weighted>
   9.000000E+99

> <Gold.Protein.RotatedTorsions>
[ 6907 6896 6895 6894 ] final   22.18 input  -60.11 | X-H torsion
[ 7974 7965 7964 7962 ] final   92.19 input  175.53 | X-H torsion
[ 8008 7997 7996 7995 ] final  140.24 input   59.86 | X-H torsion
[ 10167 10162 10161 10158 ] final   47.81 input  -65.29 | X-H torsion
[ 10718 10713 10712 10709 ] final  -54.83 input   66.30 | X-H torsion
[ 10763 10752 10751 10750 ] final  151.43 input  -60.55 | X-H torsion
[ 11005 11000 10999 10996 ] final  -54.23 input  -57.11 | X-H torsion

> <Gold.Protein.ActiveResidues>
 VAL166  LYS551  ARG553  GLY616  TRP617  ASP618  TYR619  PRO620  LYS621  CYS622 
 ASP623  PHE694  ASN695  SER759  ASP760  ASP761  ALA762  ILE779  LEU786  VAL792 
 PHE793  MET794  SER795  GLU796  ALA797  LYS798  CYS799  TRP800  GLU811  SER814 

> <Gold.Protein.RotatedAtoms>
  151.9231  135.0289  160.0523 H   0  0  0  0  0  0  0  0  0  0  0  0  # atno 6907 bound_to 6896
  152.2182  133.4959  159.5156 H   0  0  0  0  0  0  0  0  0  0  0  0  # atno 6908 bound_to 6896
  150.6993  134.1294  159.4106 H   0  0  0  0  0  0  0  0  0  0  0  0  # atno 6909 bound_to 6896
  145.4956  139.2276  143.2805 H   0  0  0  0  0  0  0  0  0  0  0  0  # atno 7974 bound_to 7965
  156.2981  140.2346  156.4369 H   0  0  0  0  0  0  0  0  0  0  0  0  # atno 8008 bound_to 7997
  154.8221  140.0437  157.1438 H   0  0  0  0  0  0  0  0  0  0  0  0  # atno 8009 bound_to 7997
  154.9303  140.3016  155.5174 H   0  0  0  0  0  0  0  0  0  0  0  0  # atno 8010 bound_to 7997
  140.2998  144.2947  150.6221 H   0  0  0  0  0  0  0  0  0  0  0  0  # atno 10167 bound_to 10162
  156.1418  130.4154  150.0090 H   0  0  0  0  0  0  0  0  0  0  0  0  # atno 10718 bound_to 10713
  154.1037  135.2844  155.3246 H   0  0  0  0  0  0  0  0  0  0  0  0  # atno 10763 bound_to 10752
  154.6538  135.5359  153.7937 H   0  0  0  0  0  0  0  0  0  0  0  0  # atno 10764 bound_to 10752
  153.0370  135.6516  154.1199 H   0  0  0  0  0  0  0  0  0  0  0  0  # atno 10765 bound_to 10752
  141.1015  133.6617  156.4290 H   0  0  0  0  0  0  0  0  0  0  0  0  # atno 11005 bound_to 11000
  146.2257  140.5754  142.8997 LP  0  0  0  0  0  0  0  0  0  0  0  0  # atno 17320 bound_to 7965
  144.7809  140.5837  143.6606 LP  0  0  0  0  0  0  0  0  0  0  0  0  # atno 17321 bound_to 7965
  140.5661  143.2186  151.7681 LP  0  0  0  0  0  0  0  0  0  0  0  0  # atno 17342 bound_to 10162
  139.4918  144.4282  151.9902 LP  0  0  0  0  0  0  0  0  0  0  0  0  # atno 17343 bound_to 10162
  156.7974  130.9278  151.3646 LP  0  0  0  0  0  0  0  0  0  0  0  0  # atno 17370 bound_to 10713
  157.6582  130.8943  149.9774 LP  0  0  0  0  0  0  0  0  0  0  0  0  # atno 17371 bound_to 10713
  140.5009  134.6487  157.5248 LP  0  0  0  0  0  0  0  0  0  0  0  0  # atno 17394 bound_to 11000
  139.9869  134.7047  155.9758 LP  0  0  0  0  0  0  0  0  0  0  0  0  # atno 17395 bound_to 11000

$$$$
