AV-unprocessed.smi:743|AV-procd|sdf|3565|dock3
  -GOLD-   22720 0563D 1   1.00000     0.00000
 Structure written by MMmdl.
 28 29  0  0  0  0  0  0  0  0  1 V2000
  152.0538  138.7405  155.0939 C   0  0  0  0  0  0  0  0  0  0  0  0
  151.5191  139.9927  155.5843 N   0  0  0  0  0  0  0  0  0  0  0  0
  151.7788  140.6279  156.7789 C   0  0  0  0  0  0  0  0  0  0  0  0
  151.0402  141.7793  156.8053 C   0  0  0  0  0  0  0  0  0  0  0  0
  150.9568  142.8406  157.8776 C   0  0  1  0  0  0  0  0  0  0  0  0
  151.2668  142.2726  159.1938 N   0  0  0  0  0  0  0  0  0  0  0  0
  151.9631  142.8539  160.1871 C   0  0  0  0  0  0  0  0  0  0  0  0
  152.1201  142.2969  161.2711 O   0  0  0  0  0  0  0  0  0  0  0  0
  152.6010  144.2297  159.9467 C   0  0  0  0  0  0  0  0  0  0  0  0
  151.9933  144.9797  158.7525 C   0  0  0  0  0  0  0  0  0  0  0  0
  151.8646  144.0482  157.5419 C   0  0  2  0  0  0  0  0  0  0  0  0
  151.3472  144.7904  156.4063 N   0  0  0  0  0  0  0  0  0  0  0  0
  150.3552  141.7528  155.5559 C   0  0  0  0  0  0  0  0  0  0  0  0
  150.6404  140.6838  154.8307 N   0  0  0  0  0  0  0  0  0  0  0  0
  152.8599  143.6877  157.2777 H   0  0  0  0  0  0  0  0  0  0  0  0
  152.9803  138.5012  155.6169 H   0  0  0  0  0  0  0  0  0  0  0  0
  152.2610  138.8132  154.0256 H   0  0  0  0  0  0  0  0  0  0  0  0
  151.3315  137.9421  155.2658 H   0  0  0  0  0  0  0  0  0  0  0  0
  152.4618  140.2127  157.5056 H   0  0  0  0  0  0  0  0  0  0  0  0
  149.9290  143.1984  157.9572 H   0  0  0  0  0  0  0  0  0  0  0  0
  150.8801  141.3590  159.3819 H   0  0  0  0  0  0  0  0  0  0  0  0
  152.5158  144.8344  160.8502 H   0  0  0  0  0  0  0  0  0  0  0  0
  153.6664  144.0736  159.7744 H   0  0  0  0  0  0  0  0  0  0  0  0
  151.0150  145.3776  159.0276 H   0  0  0  0  0  0  0  0  0  0  0  0
  152.6200  145.8378  158.5068 H   0  0  0  0  0  0  0  0  0  0  0  0
  150.3376  144.7936  156.4338 H   0  0  0  0  0  0  0  0  0  0  0  0
  151.6381  145.7555  156.4716 H   0  0  0  0  0  0  0  0  0  0  0  0
  149.6600  142.4773  155.1580 H   0  0  0  0  0  0  0  0  0  0  0  0
  1  2  1  0  0  0  0
  1 16  1  0  0  0  0
  1 17  1  0  0  0  0
  1 18  1  0  0  0  0
  2 14  1  0  0  0  0
  2  3  1  0  0  0  0
  3  4  2  0  0  0  0
  3 19  1  0  0  0  0
  4  5  1  0  0  0  0
  4 13  1  0  0  0  0
  5 11  1  0  0  0  0
  5  6  1  0  0  0  0
  5 20  1  0  0  0  0
  6  7  1  0  0  0  0
  6 21  1  0  0  0  0
  7  8  2  0  0  0  0
  7  9  1  0  0  0  0
  9 10  1  0  0  0  0
  9 22  1  0  0  0  0
  9 23  1  0  0  0  0
 10 11  1  0  0  0  0
 10 24  1  0  0  0  0
 10 25  1  0  0  0  0
 11 15  1  0  0  0  0
 11 12  1  0  0  0  0
 12 26  1  0  0  0  0
 12 27  1  0  0  0  0
 13 14  2  0  0  0  0
 13 28  1  0  0  0  0
M  END
> <s_m_source_file>
AV-unprocessed.smi

> <i_m_source_file_index>
743

> <i_lp_mmshare_version>
43012

> <i_f3d_flags>
0

> <s_epik_input>
W0NIM11uMVtjSF1jKFtjSF1uMSlbQ0BASF0yW05IXUMoPU8pW0NIMl1bQ0gyXVtDQEBIXTJbTkgyXQ==

> <s_epik_cmdline>
J2VwaWtfcHl0aG9uJywgJy1waCcsICc3LjAnLCAnLXRuJywgJzgnLCAnLW1hJywgJzIwMCcsICctbWV0YWxfYmluZGluZycsICctaW1hZScsICc8aW5maWxlLm1hZT4nLCAnLW9tYWUnLCAnPG91dGZpbGUubWFlPic=

> <r_lp_tautomer_probability>
1

> <r_epik_Ionization_Penalty>
2.50279

> <r_epik_Ionization_Penalty_Charging>
0

> <r_epik_Ionization_Penalty_Neutral>
2.50279

> <r_epik_State_Penalty>
2.66754

> <r_epik_Charging_Adjusted_Penalty>
2.66754

> <i_epik_Tot_Q>
0

> <i_epik_Tot_abs_Q>
0

> <r_epik_Metal_State_Penalty>
2.66721

> <b_epik_Metal_Only>
0

> <s_lp_Force_Field>
OPLS_2005

> <r_lp_Energy>
8.34042

> <b_lp_Chiralities_Consistent>
1

> <s_lp_Variant>
AV-unprocessed.smi:743-6

> <Gold.Version>
5.8.1

> <Gold.Id.Protein>
6NUR|6NUR_protein|mol2

> <Gold.PLP.Fitness>
39.2414

> <Gold.PLP.PLP>
-31.0511

> <Gold.PLP.part.hbond>
-2.7367

> <Gold.PLP.part.metal>
0.0000

> <Gold.PLP.part.buried>
-1.5858

> <Gold.PLP.part.nonpolar>
-26.6654

> <Gold.PLP.part.repulsive>
0.2775

> <Gold.PLP.ligand.clash>
0.0000

> <Gold.PLP.ligand.torsion>
0.6632

> <Gold.PLP.Chemscore.Hbond>
2.1685

> <Gold.PLP.Chemscore.CHOScore>
0.9951

> <Gold.PLP.Chemscore.Metal>
0.0000

> <Gold.Chemscore.Hbonds>
donor molecule, donor type, donor heavy atom, donor atom, acceptor molecule, acceptor atom, score
      L1  H    12    26       P1  8028  1.00
      P1  H  6933  6945       L1     8  0.12
      P1  H  7989  7998       L1    14  0.78
      L1  C    13    28       P1  8028  1.00

> <Gold.PLP.Chemscore.Internal.Correction>
0.0260

> <Gold.Rescore>
     Score         DG    S(hbond)    S(metal)    S(lipo)     H(rot)  DE(clash)    DE(int)     intcor
     16.12     -16.86       1.61        0.00      73.16       1.00       0.41       0.33       ----

> <Gold.Chemscore.Fitness>
16.1156

> <Gold.Chemscore.DG>
-16.8557

> <Gold.Chemscore.ZeroCoef>
-5.4800

> <Gold.Chemscore.Hbond>
1.6096

> <Gold.Chemscore.Metal>
0.0000

> <Gold.Chemscore.Lipo>
73.1584

> <Gold.Chemscore.Internal_Hbond>
0.0000

> <Gold.Chemscore.DEClash>
0.4068

> <Gold.Chemscore.DEInternal>
0.3332

> <Gold.Chemscore.Rot>
1.0000

> <Gold.Chemscore.Internal.Correction>
   9.000000E+99

> <Gold.Chemscore.Hbonds>
donor molecule, donor type, donor heavy atom, donor atom, acceptor molecule, acceptor atom, score
      L1  H    12    26       P1  8028  0.84
      P1  H  6933  6945       L1     8  0.10
      P1  H  7989  7998       L1    14  0.13

> <Gold.Chemscore.Hbond.Weighted>
-5.3762

> <Gold.Chemscore.Metal.Weighted>
-0.0000

> <Gold.Chemscore.Lipo.Weighted>
-8.5595

> <Gold.Chemscore.Internal_Hbond.Weighted>
0.0000

> <Gold.Chemscore.DEClash.Weighted>
0.4068

> <Gold.Chemscore.DEInternal.Weighted>
0.3332

> <Gold.Chemscore.Rot.Weighted>
2.5600

> <Gold.Chemscore.Internal.Correction.Weighted>
   9.000000E+99

> <Gold.Protein.RotatedTorsions>
[ 6907 6896 6895 6894 ] final   57.71 input  -60.11 | X-H torsion
[ 7974 7965 7964 7962 ] final  118.71 input  175.53 | X-H torsion
[ 8008 7997 7996 7995 ] final   14.61 input   59.86 | X-H torsion
[ 10167 10162 10161 10158 ] final   -3.02 input  -65.29 | X-H torsion
[ 10718 10713 10712 10709 ] final  -41.52 input   66.30 | X-H torsion
[ 10763 10752 10751 10750 ] final -178.79 input  -60.55 | X-H torsion
[ 11005 11000 10999 10996 ] final   53.23 input  -57.11 | X-H torsion

> <Gold.Protein.ActiveResidues>
 VAL166  LYS551  ARG553  GLY616  TRP617  ASP618  TYR619  PRO620  LYS621  CYS622 
 ASP623  PHE694  ASN695  SER759  ASP760  ASP761  ALA762  ILE779  LEU786  VAL792 
 PHE793  MET794  SER795  GLU796  ALA797  LYS798  CYS799  TRP800  GLU811  SER814 

> <Gold.Protein.RotatedAtoms>
  152.3757  134.6667  160.0160 H   0  0  0  0  0  0  0  0  0  0  0  0  # atno 6907 bound_to 6896
  151.6946  133.3305  159.3259 H   0  0  0  0  0  0  0  0  0  0  0  0  # atno 6908 bound_to 6896
  150.7708  134.6604  159.6381 H   0  0  0  0  0  0  0  0  0  0  0  0  # atno 6909 bound_to 6896
  145.1519  139.3205  143.4562 H   0  0  0  0  0  0  0  0  0  0  0  0  # atno 7974 bound_to 7965
  154.8509  140.2929  155.5599 H   0  0  0  0  0  0  0  0  0  0  0  0  # atno 8008 bound_to 7997
  156.3016  140.2496  156.3400 H   0  0  0  0  0  0  0  0  0  0  0  0  # atno 8009 bound_to 7997
  154.9022  140.0391  157.1889 H   0  0  0  0  0  0  0  0  0  0  0  0  # atno 8010 bound_to 7997
  140.6874  143.6589  150.8284 H   0  0  0  0  0  0  0  0  0  0  0  0  # atno 10167 bound_to 10162
  156.2694  130.4205  149.8454 H   0  0  0  0  0  0  0  0  0  0  0  0  # atno 10718 bound_to 10713
  154.5433  135.2807  155.1076 H   0  0  0  0  0  0  0  0  0  0  0  0  # atno 10763 bound_to 10752
  154.2550  135.6332  153.5257 H   0  0  0  0  0  0  0  0  0  0  0  0  # atno 10764 bound_to 10752
  152.9984  135.5592  154.5978 H   0  0  0  0  0  0  0  0  0  0  0  0  # atno 10765 bound_to 10752
  140.0784  134.5372  155.8972 H   0  0  0  0  0  0  0  0  0  0  0  0  # atno 11005 bound_to 11000
  146.3493  140.1597  142.8591 LP  0  0  0  0  0  0  0  0  0  0  0  0  # atno 17320 bound_to 7965
  145.0421  140.8954  143.5046 LP  0  0  0  0  0  0  0  0  0  0  0  0  # atno 17321 bound_to 7965
  140.0298  143.5456  152.2765 LP  0  0  0  0  0  0  0  0  0  0  0  0  # atno 17342 bound_to 10162
  139.6244  144.7635  151.2670 LP  0  0  0  0  0  0  0  0  0  0  0  0  # atno 17343 bound_to 10162
  156.5941  130.8519  151.3415 LP  0  0  0  0  0  0  0  0  0  0  0  0  # atno 17370 bound_to 10713
  157.7279  130.9649  150.1717 LP  0  0  0  0  0  0  0  0  0  0  0  0  # atno 17371 bound_to 10713
  141.2038  133.6634  156.6083 LP  0  0  0  0  0  0  0  0  0  0  0  0  # atno 17394 bound_to 11000
  140.3523  134.7758  157.4476 LP  0  0  0  0  0  0  0  0  0  0  0  0  # atno 17395 bound_to 11000

$$$$
