AV-unprocessed.smi:1731|AV-procd|sdf|6975|dock4
  -GOLD-   22720 8183D 1   1.00000     0.00000
 Structure written by MMmdl.
 41 42  0  0  0  0  0  0  0  0  1 V2000
  151.0329  139.2067  154.8932 C   0  0  0  0  0  0  0  0  0  0  0  0
  149.5567  138.9323  155.2137 C   0  0  2  0  0  0  0  0  0  0  0  0
  149.3325  137.4634  155.6210 C   0  0  0  0  0  0  0  0  0  0  0  0
  147.8530  137.1802  155.9380 C   0  0  0  0  0  0  0  0  0  0  0  0
  146.9210  137.5697  154.7746 C   0  0  2  0  0  0  0  0  0  0  0  0
  147.1007  136.6487  153.6535 N   0  0  0  0  0  0  0  0  0  0  0  0
  146.2345  135.6958  153.2813 C   0  0  0  0  0  0  0  0  0  0  0  0
  145.1681  135.4799  153.8578 O   0  0  0  0  0  0  0  0  0  0  0  0
  146.6826  135.0235  152.2087 N   0  0  0  0  0  0  0  0  0  0  0  0
  146.0416  133.9543  151.5339 C   0  0  0  0  0  0  0  0  0  0  0  0
  146.6329  132.6910  151.2733 C   0  0  0  0  0  0  0  0  0  0  0  0
  145.7952  131.8939  150.6280 N   0  0  0  0  0  0  0  0  0  0  0  0
  144.6660  132.6278  150.4629 N   0  0  0  0  0  0  0  0  0  0  0  0
  143.5239  132.0476  149.7786 C   0  0  0  0  0  0  0  0  0  0  0  0
  143.3155  132.6930  148.4069 C   0  0  0  0  0  0  0  0  0  0  0  0
  142.1149  132.5477  147.8402 N   0  0  0  0  0  0  0  0  0  0  0  0
  144.2252  133.3186  147.8665 O   0  0  0  0  0  0  0  0  0  0  0  0
  144.7814  133.8913  151.0100 C   0  0  0  0  0  0  0  0  0  0  0  0
  147.1632  139.0325  154.3462 C   0  0  0  0  0  0  0  0  0  0  0  0
  148.6440  139.3093  154.0310 C   0  0  0  0  0  0  0  0  0  0  0  0
  151.3733  138.6087  154.0473 H   0  0  0  0  0  0  0  0  0  0  0  0
  151.6699  138.9705  155.7460 H   0  0  0  0  0  0  0  0  0  0  0  0
  151.1921  140.2563  154.6447 H   0  0  0  0  0  0  0  0  0  0  0  0
  149.2832  139.5611  156.0621 H   0  0  0  0  0  0  0  0  0  0  0  0
  149.6694  136.8025  154.8213 H   0  0  0  0  0  0  0  0  0  0  0  0
  149.9418  137.2224  156.4928 H   0  0  0  0  0  0  0  0  0  0  0  0
  147.7197  136.1281  156.1928 H   0  0  0  0  0  0  0  0  0  0  0  0
  147.5675  137.7442  156.8270 H   0  0  0  0  0  0  0  0  0  0  0  0
  145.8923  137.4765  155.1275 H   0  0  0  0  0  0  0  0  0  0  0  0
  147.9499  136.7519  153.1174 H   0  0  0  0  0  0  0  0  0  0  0  0
  147.5744  135.3096  151.8317 H   0  0  0  0  0  0  0  0  0  0  0  0
  147.6204  132.3330  151.5250 H   0  0  0  0  0  0  0  0  0  0  0  0
  143.6765  130.9741  149.6559 H   0  0  0  0  0  0  0  0  0  0  0  0
  142.6402  132.1757  150.4053 H   0  0  0  0  0  0  0  0  0  0  0  0
  141.9293  132.9563  146.9355 H   0  0  0  0  0  0  0  0  0  0  0  0
  141.3948  132.0282  148.3212 H   0  0  0  0  0  0  0  0  0  0  0  0
  143.9746  134.6081  150.9716 H   0  0  0  0  0  0  0  0  0  0  0  0
  146.5446  139.2865  153.4845 H   0  0  0  0  0  0  0  0  0  0  0  0
  146.8427  139.6958  155.1505 H   0  0  0  0  0  0  0  0  0  0  0  0
  148.7709  140.3640  153.7851 H   0  0  0  0  0  0  0  0  0  0  0  0
  148.9400  138.7504  153.1422 H   0  0  0  0  0  0  0  0  0  0  0  0
  1  2  1  0  0  0  0
  1 21  1  0  0  0  0
  1 22  1  0  0  0  0
  1 23  1  0  0  0  0
  2 20  1  0  0  0  0
  2  3  1  0  0  0  0
  2 24  1  0  0  0  0
  3  4  1  0  0  0  0
  3 25  1  0  0  0  0
  3 26  1  0  0  0  0
  4  5  1  0  0  0  0
  4 27  1  0  0  0  0
  4 28  1  0  0  0  0
  5  6  1  0  0  0  0
  5 19  1  0  0  0  0
  5 29  1  0  0  0  0
  6  7  1  0  0  0  0
  6 30  1  0  0  0  0
  7  8  2  0  0  0  0
  7  9  1  0  0  0  0
  9 10  1  0  0  0  0
  9 31  1  0  0  0  0
 10 18  2  0  0  0  0
 10 11  1  0  0  0  0
 11 12  2  0  0  0  0
 11 32  1  0  0  0  0
 12 13  1  0  0  0  0
 13 14  1  0  0  0  0
 13 18  1  0  0  0  0
 14 15  1  0  0  0  0
 14 33  1  0  0  0  0
 14 34  1  0  0  0  0
 15 16  1  0  0  0  0
 15 17  2  0  0  0  0
 16 35  1  0  0  0  0
 16 36  1  0  0  0  0
 18 37  1  0  0  0  0
 19 20  1  0  0  0  0
 19 38  1  0  0  0  0
 19 39  1  0  0  0  0
 20 40  1  0  0  0  0
 20 41  1  0  0  0  0
M  END
> <s_m_source_file>
AV-unprocessed.smi

> <i_m_source_file_index>
1731

> <i_lp_mmshare_version>
43012

> <i_f3d_flags>
0

> <s_epik_input>
W0NIM11bQ0BASF0xW0NIMl1bQ0gyXVtDQEhdKFtDSDJdW0NIMl0xKVtOSF1DKD1PKVtOSF1jMltjSF1ubihbY0hdMilbQ0gyXUMoPU8pW05IMl0=

> <s_epik_cmdline>
J2VwaWtfcHl0aG9uJywgJy1waCcsICc3LjAnLCAnLXRuJywgJzgnLCAnLW1hJywgJzIwMCcsICctbWV0YWxfYmluZGluZycsICctaW1hZScsICc8aW5maWxlLm1hZT4nLCAnLW9tYWUnLCAnPG91dGZpbGUubWFlPic=

> <r_lp_tautomer_probability>
1

> <r_epik_Ionization_Penalty>
4.81284e-05

> <r_epik_Ionization_Penalty_Charging>
0

> <r_epik_Ionization_Penalty_Neutral>
4.81284e-05

> <r_epik_State_Penalty>
-0

> <r_epik_Charging_Adjusted_Penalty>
0

> <i_epik_Tot_Q>
0

> <i_epik_Tot_abs_Q>
0

> <r_epik_Metal_State_Penalty>
-0

> <b_epik_Metal_Only>
0

> <s_lp_Force_Field>
OPLS_2005

> <r_lp_Energy>
11.3018

> <b_lp_Chiralities_Consistent>
1

> <s_lp_Variant>
AV-unprocessed.smi:1731-2

> <Gold.Version>
5.8.1

> <Gold.Id.Protein>
6NUR|6NUR_protein|mol2

> <Gold.PLP.Fitness>
40.3141

> <Gold.PLP.PLP>
-26.0084

> <Gold.PLP.part.hbond>
-5.9314

> <Gold.PLP.part.metal>
0.0000

> <Gold.PLP.part.buried>
0.5486

> <Gold.PLP.part.nonpolar>
-24.7273

> <Gold.PLP.part.repulsive>
4.5916

> <Gold.PLP.ligand.clash>
0.0000

> <Gold.PLP.ligand.torsion>
0.9688

> <Gold.PLP.Chemscore.Hbond>
4.4153

> <Gold.PLP.Chemscore.CHOScore>
0.9929

> <Gold.PLP.Chemscore.Metal>
0.0000

> <Gold.Chemscore.Hbonds>
donor molecule, donor type, donor heavy atom, donor atom, acceptor molecule, acceptor atom, score
      L1  H     6    30       P1  7948  0.99
      L1  H     9    31       P1  7948  1.00
      L1  H    16    35       P1 10195  0.70
      L1  H    16    36       P1 10952  0.75
      P1  H  7918  7932       L1    17  0.54
      L1  C    11    32       P1 10747  0.96

> <Gold.PLP.Chemscore.Internal.Correction>
0.0186

> <Gold.Rescore>
     Score         DG    S(hbond)    S(metal)    S(lipo)     H(rot)  DE(clash)    DE(int)     intcor
     18.11     -20.89       4.21        0.00      53.16       1.90       1.76       1.02       ----

> <Gold.Chemscore.Fitness>
18.1101

> <Gold.Chemscore.DG>
-20.8918

> <Gold.Chemscore.ZeroCoef>
-5.4800

> <Gold.Chemscore.Hbond>
4.2108

> <Gold.Chemscore.Metal>
0.0000

> <Gold.Chemscore.Lipo>
53.1554

> <Gold.Chemscore.Internal_Hbond>
0.0000

> <Gold.Chemscore.DEClash>
1.7609

> <Gold.Chemscore.DEInternal>
1.0208

> <Gold.Chemscore.Rot>
1.9029

> <Gold.Chemscore.Internal.Correction>
   9.000000E+99

> <Gold.Chemscore.Hbonds>
donor molecule, donor type, donor heavy atom, donor atom, acceptor molecule, acceptor atom, score
      L1  H     6    30       P1  7948  0.94
      L1  H     9    31       P1  7948  0.93
      L1  H    16    35       P1 10195  0.68
      L1  H    16    36       P1 10952  0.69
      P1  H  7918  7932       L1    17  0.51

> <Gold.Chemscore.Hbond.Weighted>
-14.0641

> <Gold.Chemscore.Metal.Weighted>
-0.0000

> <Gold.Chemscore.Lipo.Weighted>
-6.2192

> <Gold.Chemscore.Internal_Hbond.Weighted>
0.0000

> <Gold.Chemscore.DEClash.Weighted>
1.7609

> <Gold.Chemscore.DEInternal.Weighted>
1.0208

> <Gold.Chemscore.Rot.Weighted>
4.8714

> <Gold.Chemscore.Internal.Correction.Weighted>
   9.000000E+99

> <Gold.Protein.RotatedTorsions>
[ 6907 6896 6895 6894 ] final  -54.29 input  -60.11 | X-H torsion
[ 7974 7965 7964 7962 ] final  -62.17 input  175.53 | X-H torsion
[ 8008 7997 7996 7995 ] final  -27.57 input   59.86 | X-H torsion
[ 10167 10162 10161 10158 ] final  -16.48 input  -65.29 | X-H torsion
[ 10718 10713 10712 10709 ] final -142.18 input   66.30 | X-H torsion
[ 10763 10752 10751 10750 ] final   48.93 input  -60.55 | X-H torsion
[ 11005 11000 10999 10996 ] final  179.34 input  -57.11 | X-H torsion

> <Gold.Protein.ActiveResidues>
 VAL166  LYS551  ARG553  GLY616  TRP617  ASP618  TYR619  PRO620  LYS621  CYS622 
 ASP623  PHE694  ASN695  SER759  ASP760  ASP761  ALA762  ILE779  LEU786  VAL792 
 PHE793  MET794  SER795  GLU796  ALA797  LYS798  CYS799  TRP800  GLU811  SER814 

> <Gold.Protein.RotatedAtoms>
  150.8351  134.7620  159.6885 H   0  0  0  0  0  0  0  0  0  0  0  0  # atno 6907 bound_to 6896
  152.4449  134.5512  159.9877 H   0  0  0  0  0  0  0  0  0  0  0  0  # atno 6908 bound_to 6896
  151.5665  133.3358  159.3017 H   0  0  0  0  0  0  0  0  0  0  0  0  # atno 6909 bound_to 6896
  145.7946  140.8690  143.0263 H   0  0  0  0  0  0  0  0  0  0  0  0  # atno 7974 bound_to 7965
  154.4371  140.1868  156.0953 H   0  0  0  0  0  0  0  0  0  0  0  0  # atno 8008 bound_to 7997
  156.0334  140.3328  155.7138 H   0  0  0  0  0  0  0  0  0  0  0  0  # atno 8009 bound_to 7997
  155.5806  140.0621  157.2775 H   0  0  0  0  0  0  0  0  0  0  0  0  # atno 8010 bound_to 7997
  140.7234  143.5111  150.9748 H   0  0  0  0  0  0  0  0  0  0  0  0  # atno 10167 bound_to 10162
  156.3429  130.7647  151.1786 H   0  0  0  0  0  0  0  0  0  0  0  0  # atno 10718 bound_to 10713
  152.9789  135.5928  154.4006 H   0  0  0  0  0  0  0  0  0  0  0  0  # atno 10763 bound_to 10752
  154.3652  135.2767  155.2299 H   0  0  0  0  0  0  0  0  0  0  0  0  # atno 10764 bound_to 10752
  154.4279  135.6043  153.6105 H   0  0  0  0  0  0  0  0  0  0  0  0  # atno 10765 bound_to 10752
  140.4051  134.6742  157.4583 H   0  0  0  0  0  0  0  0  0  0  0  0  # atno 11005 bound_to 11000
  144.6777  140.0172  143.7484 LP  0  0  0  0  0  0  0  0  0  0  0  0  # atno 17320 bound_to 7965
  145.9941  139.3038  143.0967 LP  0  0  0  0  0  0  0  0  0  0  0  0  # atno 17321 bound_to 7965
  139.8825  143.7054  152.3155 LP  0  0  0  0  0  0  0  0  0  0  0  0  # atno 17342 bound_to 10162
  139.7341  144.7575  151.0755 LP  0  0  0  0  0  0  0  0  0  0  0  0  # atno 17343 bound_to 10162
  157.7449  131.0449  150.4818 LP  0  0  0  0  0  0  0  0  0  0  0  0  # atno 17370 bound_to 10713
  156.5001  130.4115  149.6358 LP  0  0  0  0  0  0  0  0  0  0  0  0  # atno 17371 bound_to 10713
  140.0308  134.6409  155.9109 LP  0  0  0  0  0  0  0  0  0  0  0  0  # atno 17394 bound_to 11000
  141.1842  133.6552  156.5148 LP  0  0  0  0  0  0  0  0  0  0  0  0  # atno 17395 bound_to 11000

$$$$
