AV-unprocessed.smi:2124|AV-procd|sdf|8655|dock7
  -GOLD-   2272011403D 1   1.00000     0.00000
 Structure written by MMmdl.
 47 49  0  0  0  0  0  0  0  0  1 V2000
  156.3598  133.9507  158.6140 C   0  0  0  0  0  0  0  0  0  0  0  0
  155.3148  135.0170  158.8663 C   0  0  0  0  0  0  0  0  0  0  0  0
  155.1252  135.5848  160.0118 N   0  0  0  0  0  0  0  0  0  0  0  0
  154.1234  136.5595  160.1228 C   0  0  0  0  0  0  0  0  0  0  0  0
  153.9555  137.1751  161.5015 C   0  0  0  0  0  0  0  0  0  0  0  0
  153.3551  136.9209  159.0536 C   0  0  0  0  0  0  0  0  0  0  0  0
  152.2527  137.9754  159.1423 C   0  0  0  0  0  0  0  0  0  0  0  0
  152.5183  139.2924  158.4085 C   0  0  0  0  0  0  0  0  0  0  0  0
  153.6304  139.5310  157.9371 O   0  0  0  0  0  0  0  0  0  0  0  0
  151.4734  140.1323  158.3182 N   0  0  0  0  0  0  0  0  0  0  0  0
  151.4326  141.4355  157.6489 C   0  0  1  0  0  0  0  0  0  0  0  0
  150.2826  141.4887  156.6235 C   0  0  0  0  0  0  0  0  0  0  0  0
  151.4019  142.6184  158.6545 C   0  0  2  0  0  0  0  0  0  0  0  0
  151.3914  144.0084  157.9732 C   0  0  0  0  0  0  0  0  0  0  0  0
  152.5689  144.7396  158.6412 C   0  0  1  0  0  0  0  0  0  0  0  0
  152.2252  145.0344  160.1129 C   0  0  0  0  0  0  0  0  0  0  0  0
  152.3126  143.6422  160.7655 C   0  0  0  0  0  0  0  0  0  0  0  0
  152.6482  142.7283  159.5716 C   0  0  2  0  0  0  0  0  0  0  0  0
  153.5909  143.6179  158.7679 C   0  0  0  0  0  0  0  0  0  0  0  0
  153.5790  136.2645  157.7512 C   0  0  0  0  0  0  0  0  0  0  0  0
  152.9393  136.5068  156.7289 O   0  0  0  0  0  0  0  0  0  0  0  0
  154.5628  135.3376  157.7374 N   0  0  0  0  0  0  0  0  0  0  0  0
  154.7539  134.8588  156.8694 H   0  0  0  0  0  0  0  0  0  0  0  0
  156.1826  133.0914  159.2613 H   0  0  0  0  0  0  0  0  0  0  0  0
  157.3548  134.3422  158.8269 H   0  0  0  0  0  0  0  0  0  0  0  0
  156.3426  133.6067  157.5787 H   0  0  0  0  0  0  0  0  0  0  0  0
  154.2121  138.2343  161.4802 H   0  0  0  0  0  0  0  0  0  0  0  0
  154.6024  136.6895  162.2330 H   0  0  0  0  0  0  0  0  0  0  0  0
  152.9270  137.0734  161.8485 H   0  0  0  0  0  0  0  0  0  0  0  0
  151.3315  137.5482  158.7450 H   0  0  0  0  0  0  0  0  0  0  0  0
  152.0270  138.2019  160.1851 H   0  0  0  0  0  0  0  0  0  0  0  0
  150.6094  139.8320  158.7457 H   0  0  0  0  0  0  0  0  0  0  0  0
  152.3660  141.4929  157.0881 H   0  0  0  0  0  0  0  0  0  0  0  0
  150.3399  142.3848  156.0063 H   0  0  0  0  0  0  0  0  0  0  0  0
  149.3064  141.4911  157.1086 H   0  0  0  0  0  0  0  0  0  0  0  0
  150.3170  140.6313  155.9505 H   0  0  0  0  0  0  0  0  0  0  0  0
  150.5091  142.5199  159.2734 H   0  0  0  0  0  0  0  0  0  0  0  0
  151.5700  143.9307  156.9000 H   0  0  0  0  0  0  0  0  0  0  0  0
  150.4444  144.5310  158.1123 H   0  0  0  0  0  0  0  0  0  0  0  0
  152.9103  145.6142  158.0869 H   0  0  0  0  0  0  0  0  0  0  0  0
  152.9550  145.7128  160.5564 H   0  0  0  0  0  0  0  0  0  0  0  0
  151.2377  145.4840  160.2228 H   0  0  0  0  0  0  0  0  0  0  0  0
  153.1130  143.6177  161.5062 H   0  0  0  0  0  0  0  0  0  0  0  0
  151.3879  143.3546  161.2671 H   0  0  0  0  0  0  0  0  0  0  0  0
  153.0745  141.7739  159.8810 H   0  0  0  0  0  0  0  0  0  0  0  0
  153.8859  143.1885  157.8093 H   0  0  0  0  0  0  0  0  0  0  0  0
  154.4867  143.9094  159.3190 H   0  0  0  0  0  0  0  0  0  0  0  0
  1  2  1  0  0  0  0
  1 24  1  0  0  0  0
  1 25  1  0  0  0  0
  1 26  1  0  0  0  0
  2 22  1  0  0  0  0
  2  3  2  0  0  0  0
  3  4  1  0  0  0  0
  4  5  1  0  0  0  0
  4  6  2  0  0  0  0
  5 27  1  0  0  0  0
  5 28  1  0  0  0  0
  5 29  1  0  0  0  0
  6  7  1  0  0  0  0
  6 20  1  0  0  0  0
  7  8  1  0  0  0  0
  7 30  1  0  0  0  0
  7 31  1  0  0  0  0
  8  9  2  0  0  0  0
  8 10  1  0  0  0  0
 10 11  1  0  0  0  0
 10 32  1  0  0  0  0
 11 12  1  0  0  0  0
 11 13  1  0  0  0  0
 11 33  1  0  0  0  0
 12 34  1  0  0  0  0
 12 35  1  0  0  0  0
 12 36  1  0  0  0  0
 13 18  1  0  0  0  0
 13 14  1  0  0  0  0
 13 37  1  0  0  0  0
 14 15  1  0  0  0  0
 14 38  1  0  0  0  0
 14 39  1  0  0  0  0
 15 19  1  0  0  0  0
 15 16  1  0  0  0  0
 15 40  1  0  0  0  0
 16 17  1  0  0  0  0
 16 41  1  0  0  0  0
 16 42  1  0  0  0  0
 17 18  1  0  0  0  0
 17 43  1  0  0  0  0
 17 44  1  0  0  0  0
 18 19  1  0  0  0  0
 18 45  1  0  0  0  0
 19 46  1  0  0  0  0
 19 47  1  0  0  0  0
 20 21  2  0  0  0  0
 20 22  1  0  0  0  0
 22 23  1  0  0  0  0
M  END
> <s_m_source_file>
AV-unprocessed.smi

> <i_m_source_file_index>
2124

> <i_lp_mmshare_version>
43012

> <i_f3d_flags>
0

> <s_epik_input>
W0NIM11jMW5jKFtDSDNdKWMoYyg9TylbbkhdMSlbQ0gyXUMoPU8pW05IXVtDQEhdKFtDSDNdKVtDQEhdKFtDSDJdW0NASF0yMylbQ0BIXShbQ0gyXTMpW0NIMl1bQ0gyXTI=

> <s_epik_cmdline>
J2VwaWtfcHl0aG9uJywgJy1waCcsICc3LjAnLCAnLXRuJywgJzgnLCAnLW1hJywgJzIwMCcsICctbWV0YWxfYmluZGluZycsICctaW1hZScsICc8aW5maWxlLm1hZT4nLCAnLW9tYWUnLCAnPG91dGZpbGUubWFlPic=

> <r_lp_tautomer_probability>
0.839158

> <r_epik_Ionization_Penalty>
0.000383628

> <r_epik_Ionization_Penalty_Charging>
0.00035045

> <r_epik_Ionization_Penalty_Neutral>
3.31781e-05

> <r_epik_State_Penalty>
0.09125

> <r_epik_Charging_Adjusted_Penalty>
0.0916005

> <i_epik_Tot_Q>
0

> <i_epik_Tot_abs_Q>
0

> <r_epik_Metal_State_Penalty>
0.255229

> <b_epik_Metal_Only>
0

> <s_lp_Force_Field>
OPLS_2005

> <r_lp_Energy>
52.5198

> <b_lp_Chiralities_Consistent>
1

> <s_lp_Variant>
AV-unprocessed.smi:2124-6

> <Gold.Version>
5.8.1

> <Gold.Id.Protein>
6NUR|6NUR_protein|mol2

> <Gold.PLP.Fitness>
46.1362

> <Gold.PLP.PLP>
-40.6400

> <Gold.PLP.part.hbond>
-1.9685

> <Gold.PLP.part.metal>
0.0000

> <Gold.PLP.part.buried>
-4.6898

> <Gold.PLP.part.nonpolar>
-33.8719

> <Gold.PLP.part.repulsive>
0.2370

> <Gold.PLP.ligand.clash>
0.0000

> <Gold.PLP.ligand.torsion>
0.2849

> <Gold.PLP.Chemscore.Hbond>
2.0000

> <Gold.PLP.Chemscore.CHOScore>
0.0000

> <Gold.PLP.Chemscore.Metal>
0.0000

> <Gold.Chemscore.Hbonds>
donor molecule, donor type, donor heavy atom, donor atom, acceptor molecule, acceptor atom, score
      P1  H  7997  8010       L1     9  0.78
      P1  H 10752 10765       L1    21  1.00

> <Gold.PLP.Chemscore.Internal.Correction>
0.0660

> <Gold.Rescore>
     Score         DG    S(hbond)    S(metal)    S(lipo)     H(rot)  DE(clash)    DE(int)     intcor
     21.15     -21.56       1.94        0.00     118.15       1.65       0.01       0.40       ----

> <Gold.Chemscore.Fitness>
21.1488

> <Gold.Chemscore.DG>
-21.5555

> <Gold.Chemscore.ZeroCoef>
-5.4800

> <Gold.Chemscore.Hbond>
1.9415

> <Gold.Chemscore.Metal>
0.0000

> <Gold.Chemscore.Lipo>
118.1511

> <Gold.Chemscore.Internal_Hbond>
0.0000

> <Gold.Chemscore.DEClash>
0.0067

> <Gold.Chemscore.DEInternal>
0.4001

> <Gold.Chemscore.Rot>
1.6534

> <Gold.Chemscore.Internal.Correction>
   9.000000E+99

> <Gold.Chemscore.Hbonds>
donor molecule, donor type, donor heavy atom, donor atom, acceptor molecule, acceptor atom, score
      P1  H  7997  8010       L1     9  0.77
      P1  H 10752 10765       L1    21  0.63

> <Gold.Chemscore.Hbond.Weighted>
-6.4845

> <Gold.Chemscore.Metal.Weighted>
-0.0000

> <Gold.Chemscore.Lipo.Weighted>
-13.8237

> <Gold.Chemscore.Internal_Hbond.Weighted>
0.0000

> <Gold.Chemscore.DEClash.Weighted>
0.0067

> <Gold.Chemscore.DEInternal.Weighted>
0.4001

> <Gold.Chemscore.Rot.Weighted>
4.2326

> <Gold.Chemscore.Internal.Correction.Weighted>
   9.000000E+99

> <Gold.Protein.RotatedTorsions>
[ 6907 6896 6895 6894 ] final  107.71 input  -60.11 | X-H torsion
[ 7974 7965 7964 7962 ] final   66.12 input  175.53 | X-H torsion
[ 8008 7997 7996 7995 ] final   22.24 input   59.86 | X-H torsion
[ 10167 10162 10161 10158 ] final   85.56 input  -65.29 | X-H torsion
[ 10718 10713 10712 10709 ] final -164.54 input   66.30 | X-H torsion
[ 10763 10752 10751 10750 ] final -118.21 input  -60.55 | X-H torsion
[ 11005 11000 10999 10996 ] final   67.01 input  -57.11 | X-H torsion

> <Gold.Protein.ActiveResidues>
 VAL166  LYS551  ARG553  GLY616  TRP617  ASP618  TYR619  PRO620  LYS621  CYS622 
 ASP623  PHE694  ASN695  SER759  ASP760  ASP761  ALA762  ILE779  LEU786  VAL792 
 PHE793  MET794  SER795  GLU796  ALA797  LYS798  CYS799  TRP800  GLU811  SER814 

> <Gold.Protein.RotatedAtoms>
  152.5143  133.9195  159.7527 H   0  0  0  0  0  0  0  0  0  0  0  0  # atno 6907 bound_to 6896
  150.9570  133.6478  159.2768 H   0  0  0  0  0  0  0  0  0  0  0  0  # atno 6908 bound_to 6896
  151.3736  135.0932  159.9526 H   0  0  0  0  0  0  0  0  0  0  0  0  # atno 6909 bound_to 6896
  145.8303  139.3135  143.0991 H   0  0  0  0  0  0  0  0  0  0  0  0  # atno 7974 bound_to 7965
  154.9626  140.3080  155.5024 H   0  0  0  0  0  0  0  0  0  0  0  0  # atno 8008 bound_to 7997
  156.2975  140.2298  156.4652 H   0  0  0  0  0  0  0  0  0  0  0  0  # atno 8009 bound_to 7997
  154.7950  140.0437  157.1218 H   0  0  0  0  0  0  0  0  0  0  0  0  # atno 8010 bound_to 7997
  139.8965  144.6355  150.8683 H   0  0  0  0  0  0  0  0  0  0  0  0  # atno 10167 bound_to 10162
  156.6405  130.8967  151.2995 H   0  0  0  0  0  0  0  0  0  0  0  0  # atno 10718 bound_to 10713
  154.8580  135.4282  154.2103 H   0  0  0  0  0  0  0  0  0  0  0  0  # atno 10763 bound_to 10752
  153.3130  135.6977  153.7104 H   0  0  0  0  0  0  0  0  0  0  0  0  # atno 10764 bound_to 10752
  153.6189  135.3505  155.2978 H   0  0  0  0  0  0  0  0  0  0  0  0  # atno 10765 bound_to 10752
  139.9797  134.6764  156.0286 H   0  0  0  0  0  0  0  0  0  0  0  0  # atno 11005 bound_to 11000
  145.9578  140.8859  143.0226 LP  0  0  0  0  0  0  0  0  0  0  0  0  # atno 17320 bound_to 7965
  144.6740  140.1769  143.7409 LP  0  0  0  0  0  0  0  0  0  0  0  0  # atno 17321 bound_to 7965
  140.7716  143.3470  151.2091 LP  0  0  0  0  0  0  0  0  0  0  0  0  # atno 17342 bound_to 10162
  139.7063  143.9449  152.2928 LP  0  0  0  0  0  0  0  0  0  0  0  0  # atno 17343 bound_to 10162
  157.7172  130.9512  150.1301 LP  0  0  0  0  0  0  0  0  0  0  0  0  # atno 17370 bound_to 10713
  156.2162  130.3670  149.8610 LP  0  0  0  0  0  0  0  0  0  0  0  0  # atno 17371 bound_to 10713
  141.1470  133.6554  156.3898 LP  0  0  0  0  0  0  0  0  0  0  0  0  # atno 17394 bound_to 11000
  140.5122  134.6384  157.5288 LP  0  0  0  0  0  0  0  0  0  0  0  0  # atno 17395 bound_to 11000

$$$$
