AV-unprocessed.smi:2837|AV-procd|sdf|10927|dock2
  -GOLD-   2272015373D 1   1.00000     0.00000
 Structure written by MMmdl.
 33 35  0  0  0  0  0  0  0  0  2 V2000
  154.3879  141.4447  160.8742 F   0  0  0  0  0  0  0  0  0  0  0  0
  153.2223  142.0425  161.2228 C   0  0  0  0  0  0  0  0  0  0  0  0
  153.3734  142.5299  162.4775 F   0  0  0  0  0  0  0  0  0  0  0  0
  152.9357  143.0596  160.3672 O   0  0  0  0  0  0  0  0  0  0  0  0
  152.0039  142.8658  159.3725 C   0  0  0  0  0  0  0  0  0  0  0  0
  151.6187  141.5437  159.0669 C   0  0  0  0  0  0  0  0  0  0  0  0
  150.6550  141.3048  158.0656 C   0  0  0  0  0  0  0  0  0  0  0  0
  150.0776  142.4007  157.3815 C   0  0  0  0  0  0  0  0  0  0  0  0
  149.1108  142.2873  156.3728 N   0  0  0  0  0  0  0  0  0  0  0  0
  148.6133  140.9872  155.9407 C   0  0  1  0  0  0  0  0  0  0  0  0
  147.0842  140.8720  156.0093 C   0  0  0  0  0  0  0  0  0  0  0  0
  146.7294  140.4886  154.5673 C   0  0  2  0  0  0  0  0  0  0  0  0
  147.1963  139.0709  154.2099 C   0  0  0  0  0  0  0  0  0  0  0  0
  148.7079  139.2610  154.0891 C   0  0  0  0  0  0  0  0  0  0  0  0
  148.8693  140.7456  154.4434 C   0  0  1  0  0  0  0  0  0  0  0  0
  147.6828  141.2653  153.8651 O   0  0  0  0  0  0  0  0  0  0  0  0
  150.4665  143.6525  157.7089 N   0  3  0  0  0  0  0  0  0  0  0  0
  151.3860  143.9225  158.6610 C   0  0  0  0  0  0  0  0  0  0  0  0
  152.4241  141.3001  161.2479 H   0  0  0  0  0  0  0  0  0  0  0  0
  152.0625  140.7145  159.5978 H   0  0  0  0  0  0  0  0  0  0  0  0
  150.3736  140.2872  157.8409 H   0  0  0  0  0  0  0  0  0  0  0  0
  148.6560  143.1167  156.0186 H   0  0  0  0  0  0  0  0  0  0  0  0
  149.1031  140.2072  156.5249 H   0  0  0  0  0  0  0  0  0  0  0  0
  146.7501  140.1260  156.7311 H   0  0  0  0  0  0  0  0  0  0  0  0
  146.6182  141.8243  156.2676 H   0  0  0  0  0  0  0  0  0  0  0  0
  145.6939  140.6962  154.2962 H   0  0  0  0  0  0  0  0  0  0  0  0
  146.9194  138.3399  154.9703 H   0  0  0  0  0  0  0  0  0  0  0  0
  146.7746  138.7500  153.2567 H   0  0  0  0  0  0  0  0  0  0  0  0
  149.2732  138.6073  154.7541 H   0  0  0  0  0  0  0  0  0  0  0  0
  149.0348  139.0711  153.0661 H   0  0  0  0  0  0  0  0  0  0  0  0
  149.7917  141.1861  154.0630 H   0  0  0  0  0  0  0  0  0  0  0  0
  151.5870  144.9718  158.8215 H   0  0  0  0  0  0  0  0  0  0  0  0
  150.0413  144.4373  157.2146 H   0  0  0  0  0  0  0  0  0  0  0  0
  1  2  1  0  0  0  0
  2  3  1  0  0  0  0
  2  4  1  0  0  0  0
  2 19  1  0  0  0  0
  4  5  1  0  0  0  0
  5 18  1  0  0  0  0
  5  6  2  0  0  0  0
  6  7  1  0  0  0  0
  6 20  1  0  0  0  0
  7  8  2  0  0  0  0
  7 21  1  0  0  0  0
  8  9  1  0  0  0  0
  8 17  1  0  0  0  0
  9 10  1  0  0  0  0
  9 22  1  0  0  0  0
 10 15  1  0  0  0  0
 10 11  1  0  0  0  0
 10 23  1  0  0  0  0
 11 12  1  0  0  0  0
 11 24  1  0  0  0  0
 11 25  1  0  0  0  0
 12 16  1  0  0  0  0
 12 13  1  0  0  0  0
 12 26  1  0  0  0  0
 13 14  1  0  0  0  0
 13 27  1  0  0  0  0
 13 28  1  0  0  0  0
 14 15  1  0  0  0  0
 14 29  1  0  0  0  0
 14 30  1  0  0  0  0
 15 16  1  0  0  0  0
 15 31  1  0  0  0  0
 17 18  2  0  0  0  0
 17 33  1  0  0  0  0
 18 32  1  0  0  0  0
M  CHG  1  17   1
M  END
> <s_m_source_file>
AV-unprocessed.smi

> <i_m_source_file_index>
2837

> <i_lp_mmshare_version>
43012

> <i_f3d_flags>
0

> <s_epik_input>
RltDSF0oRilPYzFbY0hdW2NIXWMobltjSF0xKVtOSF1bQ0BIXShbQ0gyXVtDQEBIXTIzKVtDQEBIXShPMylbQ0gyXVtDSDJdMg==

> <s_epik_cmdline>
J2VwaWtfcHl0aG9uJywgJy1waCcsICc3LjAnLCAnLXRuJywgJzgnLCAnLW1hJywgJzIwMCcsICctbWV0YWxfYmluZGluZycsICctaW1hZScsICc8aW5maWxlLm1hZT4nLCAnLW9tYWUnLCAnPG91dGZpbGUubWFlPic=

> <r_lp_tautomer_probability>
0.999429

> <r_epik_Ionization_Penalty>
2.29716

> <r_epik_Ionization_Penalty_Charging>
2.29716

> <r_epik_Ionization_Penalty_Neutral>
1.42285e-06

> <r_epik_State_Penalty>
2.44762

> <r_epik_Charging_Adjusted_Penalty>
4.74478

> <i_epik_Tot_Q>
1

> <i_epik_Tot_abs_Q>
1

> <r_epik_Metal_State_Penalty>
6.53078

> <b_epik_Metal_Only>
0

> <s_lp_Force_Field>
OPLS_2005

> <r_lp_Energy>
46.2914

> <b_lp_Chiralities_Consistent>
1

> <s_lp_Variant>
AV-unprocessed.smi:2837-8

> <Gold.Version>
5.8.1

> <Gold.Id.Protein>
6NUR|6NUR_protein|mol2

> <Gold.PLP.Fitness>
44.2886

> <Gold.PLP.PLP>
-36.0125

> <Gold.PLP.part.hbond>
-2.0000

> <Gold.PLP.part.metal>
0.0000

> <Gold.PLP.part.buried>
-4.7159

> <Gold.PLP.part.nonpolar>
-29.9407

> <Gold.PLP.part.repulsive>
0.7374

> <Gold.PLP.ligand.clash>
0.6221

> <Gold.PLP.ligand.torsion>
0.7949

> <Gold.PLP.Chemscore.Hbond>
3.4880

> <Gold.PLP.Chemscore.CHOScore>
0.0000

> <Gold.PLP.Chemscore.Metal>
0.0000

> <Gold.Chemscore.Hbonds>
donor molecule, donor type, donor heavy atom, donor atom, acceptor molecule, acceptor atom, score
      L1  H     9    22       P1  8028  1.79
      L1  H    17    33       P1  8028  1.60

> <Gold.PLP.Chemscore.Internal.Correction>
0.0240

> <Gold.Rescore>
     Score         DG    S(hbond)    S(metal)    S(lipo)     H(rot)  DE(clash)    DE(int)     intcor
     15.53     -16.28       1.73        0.00      72.35       1.34       0.02       0.73       ----

> <Gold.Chemscore.Fitness>
15.5345

> <Gold.Chemscore.DG>
-16.2849

> <Gold.Chemscore.ZeroCoef>
-5.4800

> <Gold.Chemscore.Hbond>
1.7254

> <Gold.Chemscore.Metal>
0.0000

> <Gold.Chemscore.Lipo>
72.3457

> <Gold.Chemscore.Internal_Hbond>
0.0000

> <Gold.Chemscore.DEClash>
0.0199

> <Gold.Chemscore.DEInternal>
0.7305

> <Gold.Chemscore.Rot>
1.3368

> <Gold.Chemscore.Internal.Correction>
   9.000000E+99

> <Gold.Chemscore.Hbonds>
donor molecule, donor type, donor heavy atom, donor atom, acceptor molecule, acceptor atom, score
      L1  H     9    22       P1  8028  0.87
      L1  H    17    33       P1  8028  0.40

> <Gold.Chemscore.Hbond.Weighted>
-5.7628

> <Gold.Chemscore.Metal.Weighted>
-0.0000

> <Gold.Chemscore.Lipo.Weighted>
-8.4644

> <Gold.Chemscore.Internal_Hbond.Weighted>
0.0000

> <Gold.Chemscore.DEClash.Weighted>
0.0199

> <Gold.Chemscore.DEInternal.Weighted>
0.7305

> <Gold.Chemscore.Rot.Weighted>
3.4223

> <Gold.Chemscore.Internal.Correction.Weighted>
   9.000000E+99

> <Gold.Protein.RotatedTorsions>
[ 6907 6896 6895 6894 ] final -176.13 input  -60.11 | X-H torsion
[ 7974 7965 7964 7962 ] final  112.01 input  175.53 | X-H torsion
[ 8008 7997 7996 7995 ] final   39.92 input   59.86 | X-H torsion
[ 10167 10162 10161 10158 ] final   10.95 input  -65.29 | X-H torsion
[ 10718 10713 10712 10709 ] final    0.31 input   66.30 | X-H torsion
[ 10763 10752 10751 10750 ] final  114.32 input  -60.55 | X-H torsion
[ 11005 11000 10999 10996 ] final -109.75 input  -57.11 | X-H torsion

> <Gold.Protein.ActiveResidues>
 VAL166  LYS551  ARG553  GLY616  TRP617  ASP618  TYR619  PRO620  LYS621  CYS622 
 ASP623  PHE694  ASN695  SER759  ASP760  ASP761  ALA762  ILE779  LEU786  VAL792 
 PHE793  MET794  SER795  GLU796  ALA797  LYS798  CYS799  TRP800  GLU811  SER814 

> <Gold.Protein.RotatedAtoms>
  151.5998  133.3357  159.3044 H   0  0  0  0  0  0  0  0  0  0  0  0  # atno 6907 bound_to 6896
  150.8214  134.7427  159.6787 H   0  0  0  0  0  0  0  0  0  0  0  0  # atno 6908 bound_to 6896
  152.4307  134.5788  159.9993 H   0  0  0  0  0  0  0  0  0  0  0  0  # atno 6909 bound_to 6896
  145.2350  139.2803  143.4148 H   0  0  0  0  0  0  0  0  0  0  0  0  # atno 7974 bound_to 7965
  155.2446  140.3348  155.4288 H   0  0  0  0  0  0  0  0  0  0  0  0  # atno 8008 bound_to 7997
  156.2241  140.1821  156.7450 H   0  0  0  0  0  0  0  0  0  0  0  0  # atno 8009 bound_to 7997
  154.5871  140.0644  156.9172 H   0  0  0  0  0  0  0  0  0  0  0  0  # atno 8010 bound_to 7997
  140.6162  143.8302  150.7122 H   0  0  0  0  0  0  0  0  0  0  0  0  # atno 10167 bound_to 10162
  156.8314  130.5490  149.5686 H   0  0  0  0  0  0  0  0  0  0  0  0  # atno 10718 bound_to 10713
  153.5055  135.3629  155.2561 H   0  0  0  0  0  0  0  0  0  0  0  0  # atno 10763 bound_to 10752
  154.8745  135.4010  154.3429 H   0  0  0  0  0  0  0  0  0  0  0  0  # atno 10764 bound_to 10752
  153.4073  135.7077  153.6450 H   0  0  0  0  0  0  0  0  0  0  0  0  # atno 10765 bound_to 10752
  141.0830  133.9187  157.2246 H   0  0  0  0  0  0  0  0  0  0  0  0  # atno 11005 bound_to 11000
  146.3343  140.2696  142.8605 LP  0  0  0  0  0  0  0  0  0  0  0  0  # atno 17320 bound_to 7965
  144.9641  140.8304  143.5495 LP  0  0  0  0  0  0  0  0  0  0  0  0  # atno 17321 bound_to 7965
  140.1882  143.4058  152.1883 LP  0  0  0  0  0  0  0  0  0  0  0  0  # atno 17342 bound_to 10162
  139.5401  144.7248  151.4763 LP  0  0  0  0  0  0  0  0  0  0  0  0  # atno 17343 bound_to 10162
  156.0932  130.5912  150.9768 LP  0  0  0  0  0  0  0  0  0  0  0  0  # atno 17370 bound_to 10713
  157.6404  131.0911  150.8262 LP  0  0  0  0  0  0  0  0  0  0  0  0  # atno 17371 bound_to 10713
  139.9646  135.0145  156.9352 LP  0  0  0  0  0  0  0  0  0  0  0  0  # atno 17394 bound_to 11000
  140.5425  134.0706  155.7345 LP  0  0  0  0  0  0  0  0  0  0  0  0  # atno 17395 bound_to 11000

$$$$
