AV-unprocessed.smi:3031|AV-procd|sdf|11550|dock6
  -GOLD-   2272016503D 1   1.00000     0.00000
 Structure written by MMmdl.
 48 49  0  0  0  0  0  0  0  0  3 V2000
  151.4231  142.9211  158.2356 C   0  0  0  0  0  0  0  0  0  0  0  0
  150.9961  141.7352  157.4195 C   0  0  0  0  0  0  0  0  0  0  0  0
  151.0818  140.3570  157.7676 C   0  0  0  0  0  0  0  0  0  0  0  0
  150.6145  139.5580  156.8222 N   0  0  0  0  0  0  0  0  0  0  0  0
  150.2174  140.3942  155.8398 N   0  0  0  0  0  0  0  0  0  0  0  0
  149.6384  139.8559  154.6221 C   0  0  0  0  0  0  0  0  0  0  0  0
  148.1730  140.2988  154.3994 C   0  0  1  0  0  0  0  0  0  0  0  0
  148.0025  141.8276  154.4106 C   0  0  0  0  0  0  0  0  0  0  0  0
  147.6456  139.7630  153.1243 N   0  3  0  0  0  0  0  0  0  0  0  0
  146.9077  138.4841  153.2249 C   0  0  0  0  0  0  0  0  0  0  0  0
  146.5815  137.9167  151.8317 C   0  0  2  0  0  0  0  0  0  0  0  0
  146.0585  138.9604  151.0324 O   0  0  0  0  0  0  0  0  0  0  0  0
  145.5353  136.7842  151.8993 C   0  0  0  0  0  0  0  0  0  0  0  0
  146.1533  135.4333  151.9387 N   0  3  0  0  0  0  0  0  0  0  0  0
  146.0708  134.7806  153.2696 C   0  0  0  0  0  0  0  0  0  0  0  0
  146.7613  133.4062  153.2400 C   0  0  0  0  0  0  0  0  0  0  0  0
  146.1697  132.5972  152.2315 O   0  0  0  0  0  0  0  0  0  0  0  0
  146.3203  133.1664  150.9373 C   0  0  0  0  0  0  0  0  0  0  0  0
  145.6163  134.5335  150.8896 C   0  0  0  0  0  0  0  0  0  0  0  0
  150.4338  141.7142  156.1747 C   0  0  0  0  0  0  0  0  0  0  0  0
  151.9682  142.6224  159.1313 H   0  0  0  0  0  0  0  0  0  0  0  0
  150.5676  143.5122  158.5631 H   0  0  0  0  0  0  0  0  0  0  0  0
  152.0764  143.5852  157.6695 H   0  0  0  0  0  0  0  0  0  0  0  0
  151.4668  139.9162  158.6755 H   0  0  0  0  0  0  0  0  0  0  0  0
  150.2569  140.1619  153.7764 H   0  0  0  0  0  0  0  0  0  0  0  0
  149.7109  138.7699  154.6795 H   0  0  0  0  0  0  0  0  0  0  0  0
  147.5596  139.9017  155.2098 H   0  0  0  0  0  0  0  0  0  0  0  0
  148.2711  142.2556  155.3766 H   0  0  0  0  0  0  0  0  0  0  0  0
  146.9673  142.1088  154.2145 H   0  0  0  0  0  0  0  0  0  0  0  0
  148.6256  142.3019  153.6516 H   0  0  0  0  0  0  0  0  0  0  0  0
  147.0032  140.4468  152.7491 H   0  0  0  0  0  0  0  0  0  0  0  0
  147.5212  137.7649  153.7670 H   0  0  0  0  0  0  0  0  0  0  0  0
  145.9943  138.6247  153.8053 H   0  0  0  0  0  0  0  0  0  0  0  0
  147.5033  137.5545  151.3768 H   0  0  0  0  0  0  0  0  0  0  0  0
  145.3727  139.4005  151.5125 H   0  0  0  0  0  0  0  0  0  0  0  0
  144.8940  136.9052  152.7740 H   0  0  0  0  0  0  0  0  0  0  0  0
  144.8779  136.8656  151.0317 H   0  0  0  0  0  0  0  0  0  0  0  0
  146.5397  135.4010  154.0323 H   0  0  0  0  0  0  0  0  0  0  0  0
  145.0243  134.6609  153.5553 H   0  0  0  0  0  0  0  0  0  0  0  0
  147.8325  133.5110  153.0599 H   0  0  0  0  0  0  0  0  0  0  0  0
  146.6476  132.9082  154.2031 H   0  0  0  0  0  0  0  0  0  0  0  0
  147.3785  133.2632  150.6895 H   0  0  0  0  0  0  0  0  0  0  0  0
  145.8814  132.4921  150.2018 H   0  0  0  0  0  0  0  0  0  0  0  0
  144.5419  134.4059  151.0314 H   0  0  0  0  0  0  0  0  0  0  0  0
  145.7596  134.9831  149.9063 H   0  0  0  0  0  0  0  0  0  0  0  0
  150.1735  142.5220  155.5068 H   0  0  0  0  0  0  0  0  0  0  0  0
  148.4113  139.6589  152.4740 H   0  0  0  0  0  0  0  0  0  0  0  0
  147.1336  135.5572  151.7275 H   0  0  0  0  0  0  0  0  0  0  0  0
  1  2  1  0  0  0  0
  1 21  1  0  0  0  0
  1 22  1  0  0  0  0
  1 23  1  0  0  0  0
  2 20  2  0  0  0  0
  2  3  1  0  0  0  0
  3  4  2  0  0  0  0
  3 24  1  0  0  0  0
  4  5  1  0  0  0  0
  5  6  1  0  0  0  0
  5 20  1  0  0  0  0
  6  7  1  0  0  0  0
  6 25  1  0  0  0  0
  6 26  1  0  0  0  0
  7  8  1  0  0  0  0
  7  9  1  0  0  0  0
  7 27  1  0  0  0  0
  8 28  1  0  0  0  0
  8 29  1  0  0  0  0
  8 30  1  0  0  0  0
  9 10  1  0  0  0  0
  9 31  1  0  0  0  0
  9 47  1  0  0  0  0
 10 11  1  0  0  0  0
 10 32  1  0  0  0  0
 10 33  1  0  0  0  0
 11 12  1  0  0  0  0
 11 13  1  0  0  0  0
 11 34  1  0  0  0  0
 12 35  1  0  0  0  0
 13 14  1  0  0  0  0
 13 36  1  0  0  0  0
 13 37  1  0  0  0  0
 14 19  1  0  0  0  0
 14 15  1  0  0  0  0
 14 48  1  0  0  0  0
 15 16  1  0  0  0  0
 15 38  1  0  0  0  0
 15 39  1  0  0  0  0
 16 17  1  0  0  0  0
 16 40  1  0  0  0  0
 16 41  1  0  0  0  0
 17 18  1  0  0  0  0
 18 19  1  0  0  0  0
 18 42  1  0  0  0  0
 18 43  1  0  0  0  0
 19 44  1  0  0  0  0
 19 45  1  0  0  0  0
 20 46  1  0  0  0  0
M  CHG  1   9   1
M  CHG  1  14   1
M  END
> <s_m_source_file>
AV-unprocessed.smi

> <i_m_source_file_index>
3031

> <i_lp_mmshare_version>
43012

> <i_f3d_flags>
0

> <s_epik_input>
W0NIM11jMVtjSF1ubihbY0hdMSlbQ0gyXVtDQEhdKFtDSDNdKVtOSF1bQ0gyXVtDQEhdKFtPSF0pW0NIMl1OMltDSDJdW0NIMl1PW0NIMl1bQ0gyXTI=

> <s_epik_cmdline>
J2VwaWtfcHl0aG9uJywgJy1waCcsICc3LjAnLCAnLXRuJywgJzgnLCAnLW1hJywgJzIwMCcsICctbWV0YWxfYmluZGluZycsICctaW1hZScsICc8aW5maWxlLm1hZT4nLCAnLW9tYWUnLCAnPG91dGZpbGUubWFlPic=

> <r_lp_tautomer_probability>
1

> <r_epik_Ionization_Penalty>
1.76542

> <r_epik_Ionization_Penalty_Charging>
1.76348

> <r_epik_Ionization_Penalty_Neutral>
0.00194017

> <r_epik_State_Penalty>
1.49348

> <r_epik_Charging_Adjusted_Penalty>
3.25696

> <i_epik_Tot_Q>
2

> <i_epik_Tot_abs_Q>
2

> <r_epik_Metal_State_Penalty>
1.49349

> <b_epik_Metal_Only>
0

> <s_lp_Force_Field>
OPLS_2005

> <r_lp_Energy>
28.4524

> <b_lp_Chiralities_Consistent>
1

> <s_lp_Variant>
AV-unprocessed.smi:3031-10

> <Gold.Version>
5.8.1

> <Gold.Id.Protein>
6NUR|6NUR_protein|mol2

> <Gold.PLP.Fitness>
49.0112

> <Gold.PLP.PLP>
-37.3352

> <Gold.PLP.part.hbond>
-3.6164

> <Gold.PLP.part.metal>
0.0000

> <Gold.PLP.part.buried>
-1.6003

> <Gold.PLP.part.nonpolar>
-32.3482

> <Gold.PLP.part.repulsive>
0.2347

> <Gold.PLP.ligand.clash>
0.0000

> <Gold.PLP.ligand.torsion>
1.7910

> <Gold.PLP.Chemscore.Hbond>
3.9913

> <Gold.PLP.Chemscore.CHOScore>
1.0000

> <Gold.PLP.Chemscore.Metal>
0.0000

> <Gold.Chemscore.Hbonds>
donor molecule, donor type, donor heavy atom, donor atom, acceptor molecule, acceptor atom, score
      L1  H     9    47       P1  7957  1.00
      L1  H    12    35       P1 10175  0.59
      L1  H    14    48       P1  7948  2.00
      L1  C    20    46       P1  8028  0.96

> <Gold.PLP.Chemscore.Internal.Correction>
0.2843

> <Gold.Rescore>
     Score         DG    S(hbond)    S(metal)    S(lipo)     H(rot)  DE(clash)    DE(int)     intcor
     16.70     -18.58       2.94        0.00      88.21       2.74       0.34       1.54       ----

> <Gold.Chemscore.Fitness>
16.7037

> <Gold.Chemscore.DG>
-18.5845

> <Gold.Chemscore.ZeroCoef>
-5.4800

> <Gold.Chemscore.Hbond>
2.9363

> <Gold.Chemscore.Metal>
0.0000

> <Gold.Chemscore.Lipo>
88.2086

> <Gold.Chemscore.Internal_Hbond>
0.0000

> <Gold.Chemscore.DEClash>
0.3379

> <Gold.Chemscore.DEInternal>
1.5429

> <Gold.Chemscore.Rot>
2.7434

> <Gold.Chemscore.Internal.Correction>
   9.000000E+99

> <Gold.Chemscore.Hbonds>
donor molecule, donor type, donor heavy atom, donor atom, acceptor molecule, acceptor atom, score
      L1  H     9    47       P1  7957  1.00
      L1  H    12    35       P1 10175  0.41
      L1  H    14    48       P1  7948  0.99

> <Gold.Chemscore.Hbond.Weighted>
-9.8072

> <Gold.Chemscore.Metal.Weighted>
-0.0000

> <Gold.Chemscore.Lipo.Weighted>
-10.3204

> <Gold.Chemscore.Internal_Hbond.Weighted>
0.0000

> <Gold.Chemscore.DEClash.Weighted>
0.3379

> <Gold.Chemscore.DEInternal.Weighted>
1.5429

> <Gold.Chemscore.Rot.Weighted>
7.0231

> <Gold.Chemscore.Internal.Correction.Weighted>
   9.000000E+99

> <Gold.Protein.RotatedTorsions>
[ 6907 6896 6895 6894 ] final   71.10 input  -60.11 | X-H torsion
[ 7974 7965 7964 7962 ] final  125.86 input  175.53 | X-H torsion
[ 8008 7997 7996 7995 ] final  157.44 input   59.86 | X-H torsion
[ 10167 10162 10161 10158 ] final  -88.93 input  -65.29 | X-H torsion
[ 10718 10713 10712 10709 ] final  124.34 input   66.30 | X-H torsion
[ 10763 10752 10751 10750 ] final   91.42 input  -60.55 | X-H torsion
[ 11005 11000 10999 10996 ] final   24.76 input  -57.11 | X-H torsion

> <Gold.Protein.ActiveResidues>
 VAL166  LYS551  ARG553  GLY616  TRP617  ASP618  TYR619  PRO620  LYS621  CYS622 
 ASP623  PHE694  ASN695  SER759  ASP760  ASP761  ALA762  ILE779  LEU786  VAL792 
 PHE793  MET794  SER795  GLU796  ALA797  LYS798  CYS799  TRP800  GLU811  SER814 

> <Gold.Protein.RotatedAtoms>
  152.4790  134.4770  159.9653 H   0  0  0  0  0  0  0  0  0  0  0  0  # atno 6907 bound_to 6896
  151.4780  133.3547  159.2841 H   0  0  0  0  0  0  0  0  0  0  0  0  # atno 6908 bound_to 6896
  150.8848  134.8271  159.7312 H   0  0  0  0  0  0  0  0  0  0  0  0  # atno 6909 bound_to 6896
  145.0682  139.3751  143.4971 H   0  0  0  0  0  0  0  0  0  0  0  0  # atno 7974 bound_to 7965
  156.2363  140.1885  156.7109 H   0  0  0  0  0  0  0  0  0  0  0  0  # atno 8008 bound_to 7997
  154.6114  140.0621  156.9525 H   0  0  0  0  0  0  0  0  0  0  0  0  # atno 8009 bound_to 7997
  155.2011  140.3292  155.4345 H   0  0  0  0  0  0  0  0  0  0  0  0  # atno 8010 bound_to 7997
  140.3698  143.2800  151.9514 H   0  0  0  0  0  0  0  0  0  0  0  0  # atno 10167 bound_to 10162
  157.5593  131.1090  150.8567 H   0  0  0  0  0  0  0  0  0  0  0  0  # atno 10718 bound_to 10713
  153.2081  135.4398  155.0347 H   0  0  0  0  0  0  0  0  0  0  0  0  # atno 10763 bound_to 10752
  154.8185  135.3326  154.7110 H   0  0  0  0  0  0  0  0  0  0  0  0  # atno 10764 bound_to 10752
  153.7550  135.6995  153.4993 H   0  0  0  0  0  0  0  0  0  0  0  0  # atno 10765 bound_to 10752
  140.3552  134.2185  155.7676 H   0  0  0  0  0  0  0  0  0  0  0  0  # atno 11005 bound_to 11000
  146.3527  140.0413  142.8642 LP  0  0  0  0  0  0  0  0  0  0  0  0  # atno 17320 bound_to 7965
  145.1325  140.9526  143.4536 LP  0  0  0  0  0  0  0  0  0  0  0  0  # atno 17321 bound_to 7965
  139.4805  144.5917  151.7760 LP  0  0  0  0  0  0  0  0  0  0  0  0  # atno 17342 bound_to 10162
  140.5044  144.1119  150.5979 LP  0  0  0  0  0  0  0  0  0  0  0  0  # atno 17343 bound_to 10162
  156.9069  130.5267  149.5281 LP  0  0  0  0  0  0  0  0  0  0  0  0  # atno 17370 bound_to 10713
  156.0647  130.5693  150.9265 LP  0  0  0  0  0  0  0  0  0  0  0  0  # atno 17371 bound_to 10713
  141.2000  133.7997  157.0508 LP  0  0  0  0  0  0  0  0  0  0  0  0  # atno 17394 bound_to 11000
  140.0670  134.9723  157.1403 LP  0  0  0  0  0  0  0  0  0  0  0  0  # atno 17395 bound_to 11000

$$$$
