AV-unprocessed.smi:1046|AV-procd|sdf|4548|dock5
  -GOLD-   22720 2573D 1   1.00000     0.00000
 Structure written by MMmdl.
 53 55  0  0  0  0  0  0  0  0  2 V2000
  152.7049  142.9692  160.4357 C   0  0  0  0  0  0  0  0  0  0  0  0
  151.8835  142.4124  159.2863 C   0  0  0  0  0  0  0  0  0  0  0  0
  151.7306  141.0128  159.1666 C   0  0  0  0  0  0  0  0  0  0  0  0
  150.9766  140.4546  158.1115 C   0  0  0  0  0  0  0  0  0  0  0  0
  150.7022  139.1330  157.8044 N   0  0  0  0  0  0  0  0  0  0  0  0
  149.9567  139.2610  156.7111 C   0  0  0  0  0  0  0  0  0  0  0  0
  149.7156  140.5111  156.2716 N   0  0  0  0  0  0  0  0  0  0  0  0
  148.9373  140.8900  155.1059 C   0  0  0  0  0  0  0  0  0  0  0  0
  148.3406  139.6711  154.3768 C   0  0  2  0  0  0  0  0  0  0  0  0
  149.3670  138.9901  153.6798 O   0  0  0  0  0  0  0  0  0  0  0  0
  147.2457  140.0837  153.3734 C   0  0  0  0  0  0  0  0  0  0  0  0
  146.0506  140.6671  154.0351 N   0  3  0  0  0  0  0  0  0  0  0  0
  146.1942  142.1255  154.2799 C   0  0  0  0  0  0  0  0  0  0  0  0
  144.9013  142.6980  154.8967 C   0  0  0  0  0  0  0  0  0  0  0  0
  144.5085  142.0314  156.1381 N   0  0  0  0  0  0  0  0  0  0  0  0
  145.3864  142.3655  157.2642 C   0  0  0  0  0  0  0  0  0  0  0  0
  145.0073  141.7044  158.5990 C   0  0  0  0  0  0  0  0  0  0  0  0
  146.0471  141.9028  159.5313 O   0  0  0  0  0  0  0  0  0  0  0  0
  144.3771  140.5965  155.8735 C   0  0  0  0  0  0  0  0  0  0  0  0
  145.6542  139.9634  155.2845 C   0  0  0  0  0  0  0  0  0  0  0  0
  150.3733  141.3419  157.1726 C   0  0  0  0  0  0  0  0  0  0  0  0
  150.5172  142.7363  157.2819 C   0  0  0  0  0  0  0  0  0  0  0  0
  151.2747  143.2773  158.3418 C   0  0  0  0  0  0  0  0  0  0  0  0
  151.4257  144.7841  158.4510 C   0  0  0  0  0  0  0  0  0  0  0  0
  153.1286  142.1709  161.0458 H   0  0  0  0  0  0  0  0  0  0  0  0
  152.0850  143.5912  161.0816 H   0  0  0  0  0  0  0  0  0  0  0  0
  153.5295  143.5747  160.0591 H   0  0  0  0  0  0  0  0  0  0  0  0
  152.1936  140.3536  159.8861 H   0  0  0  0  0  0  0  0  0  0  0  0
  149.5648  138.3955  156.1971 H   0  0  0  0  0  0  0  0  0  0  0  0
  148.1403  141.5581  155.4348 H   0  0  0  0  0  0  0  0  0  0  0  0
  149.5707  141.4706  154.4338 H   0  0  0  0  0  0  0  0  0  0  0  0
  147.9323  138.9922  155.1247 H   0  0  0  0  0  0  0  0  0  0  0  0
  149.4025  139.3176  152.7936 H   0  0  0  0  0  0  0  0  0  0  0  0
  147.6386  140.8007  152.6507 H   0  0  0  0  0  0  0  0  0  0  0  0
  146.9542  139.2033  152.7979 H   0  0  0  0  0  0  0  0  0  0  0  0
  147.0520  142.3118  154.9275 H   0  0  0  0  0  0  0  0  0  0  0  0
  146.3962  142.6351  153.3372 H   0  0  0  0  0  0  0  0  0  0  0  0
  145.0164  143.7684  155.0707 H   0  0  0  0  0  0  0  0  0  0  0  0
  144.0925  142.6022  154.1711 H   0  0  0  0  0  0  0  0  0  0  0  0
  146.4230  142.1280  157.0268 H   0  0  0  0  0  0  0  0  0  0  0  0
  145.3585  143.4456  157.4142 H   0  0  0  0  0  0  0  0  0  0  0  0
  144.0871  142.1347  158.9953 H   0  0  0  0  0  0  0  0  0  0  0  0
  144.8498  140.6322  158.4861 H   0  0  0  0  0  0  0  0  0  0  0  0
  146.6089  142.5932  159.2133 H   0  0  0  0  0  0  0  0  0  0  0  0
  144.0809  140.0662  156.7776 H   0  0  0  0  0  0  0  0  0  0  0  0
  143.5574  140.4433  155.1703 H   0  0  0  0  0  0  0  0  0  0  0  0
  145.4587  138.9118  155.0797 H   0  0  0  0  0  0  0  0  0  0  0  0
  146.4710  139.9925  156.0068 H   0  0  0  0  0  0  0  0  0  0  0  0
  150.0495  143.3844  156.5561 H   0  0  0  0  0  0  0  0  0  0  0  0
  150.8817  145.2973  157.6576 H   0  0  0  0  0  0  0  0  0  0  0  0
  152.4755  145.0682  158.3751 H   0  0  0  0  0  0  0  0  0  0  0  0
  151.0378  145.1396  159.4059 H   0  0  0  0  0  0  0  0  0  0  0  0
  145.2846  140.5660  153.3841 H   0  0  0  0  0  0  0  0  0  0  0  0
  1  2  1  0  0  0  0
  1 25  1  0  0  0  0
  1 26  1  0  0  0  0
  1 27  1  0  0  0  0
  2 23  1  0  0  0  0
  2  3  2  0  0  0  0
  3  4  1  0  0  0  0
  3 28  1  0  0  0  0
  4 21  2  0  0  0  0
  4  5  1  0  0  0  0
  5  6  2  0  0  0  0
  6  7  1  0  0  0  0
  6 29  1  0  0  0  0
  7  8  1  0  0  0  0
  7 21  1  0  0  0  0
  8  9  1  0  0  0  0
  8 30  1  0  0  0  0
  8 31  1  0  0  0  0
  9 10  1  0  0  0  0
  9 11  1  0  0  0  0
  9 32  1  0  0  0  0
 10 33  1  0  0  0  0
 11 12  1  0  0  0  0
 11 34  1  0  0  0  0
 11 35  1  0  0  0  0
 12 20  1  0  0  0  0
 12 13  1  0  0  0  0
 12 53  1  0  0  0  0
 13 14  1  0  0  0  0
 13 36  1  0  0  0  0
 13 37  1  0  0  0  0
 14 15  1  0  0  0  0
 14 38  1  0  0  0  0
 14 39  1  0  0  0  0
 15 16  1  0  0  0  0
 15 19  1  0  0  0  0
 16 17  1  0  0  0  0
 16 40  1  0  0  0  0
 16 41  1  0  0  0  0
 17 18  1  0  0  0  0
 17 42  1  0  0  0  0
 17 43  1  0  0  0  0
 18 44  1  0  0  0  0
 19 20  1  0  0  0  0
 19 45  1  0  0  0  0
 19 46  1  0  0  0  0
 20 47  1  0  0  0  0
 20 48  1  0  0  0  0
 21 22  1  0  0  0  0
 22 23  2  0  0  0  0
 22 49  1  0  0  0  0
 23 24  1  0  0  0  0
 24 50  1  0  0  0  0
 24 51  1  0  0  0  0
 24 52  1  0  0  0  0
M  CHG  1  12   1
M  END
> <s_m_source_file>
AV-unprocessed.smi

> <i_m_source_file_index>
1046

> <i_lp_mmshare_version>
43012

> <i_f3d_flags>
0

> <s_epik_input>
W0NIM11jKFtjSF0xKWMoW0NIM10pW2NIXWMoYzEyKW4oW2NIXW4yKVtDSDJdW0NASF0oW09IXSlbQ0gyXU4zW0NIMl1bQ0gyXU4oW0NIMl1bQ0gyXTMpW0NIMl1bQ0gyXVtPSF0=

> <s_epik_cmdline>
J2VwaWtfcHl0aG9uJywgJy1waCcsICc3LjAnLCAnLXRuJywgJzgnLCAnLW1hJywgJzIwMCcsICctbWV0YWxfYmluZGluZycsICctaW1hZScsICc8aW5maWxlLm1hZT4nLCAnLW9tYWUnLCAnPG91dGZpbGUubWFlPic=

> <r_epik_Ionization_Penalty>
0.131947

> <r_epik_Ionization_Penalty_Charging>
0.00213896

> <r_epik_Ionization_Penalty_Neutral>
0.129808

> <r_epik_State_Penalty>
0.319681

> <r_epik_Charging_Adjusted_Penalty>
0.32182

> <i_epik_Tot_Q>
1

> <i_epik_Tot_abs_Q>
1

> <r_epik_Metal_State_Penalty>
0.225417

> <b_epik_Metal_Only>
0

> <s_lp_Force_Field>
OPLS_2005

> <r_lp_Energy>
31.2013

> <b_lp_Chiralities_Consistent>
1

> <s_lp_Variant>
AV-unprocessed.smi:1046-1

> <Gold.Version>
5.8.1

> <Gold.Id.Protein>
6NUR|6NUR_protein|mol2

> <Gold.PLP.Fitness>
55.8711

> <Gold.PLP.PLP>
-44.4370

> <Gold.PLP.part.hbond>
-2.8778

> <Gold.PLP.part.metal>
0.0000

> <Gold.PLP.part.buried>
-5.9437

> <Gold.PLP.part.nonpolar>
-36.8750

> <Gold.PLP.part.repulsive>
0.1144

> <Gold.PLP.ligand.clash>
0.0000

> <Gold.PLP.ligand.torsion>
0.3840

> <Gold.PLP.Chemscore.Hbond>
3.9913

> <Gold.PLP.Chemscore.CHOScore>
0.0000

> <Gold.PLP.Chemscore.Metal>
0.0000

> <Gold.Chemscore.Hbonds>
donor molecule, donor type, donor heavy atom, donor atom, acceptor molecule, acceptor atom, score
      L1  H    10    33       P1  7957  1.00
      L1  H    12    53       P1 10175  2.00
      P1  H  6934  6946       L1    18  1.00

> <Gold.PLP.Chemscore.Internal.Correction>
0.2283

> <Gold.Rescore>
     Score         DG    S(hbond)    S(metal)    S(lipo)     H(rot)  DE(clash)    DE(int)     intcor
     18.65     -19.76       2.96        0.00     107.54       3.21       0.11       0.99       ----

> <Gold.Chemscore.Fitness>
18.6534

> <Gold.Chemscore.DG>
-19.7587

> <Gold.Chemscore.ZeroCoef>
-5.4800

> <Gold.Chemscore.Hbond>
2.9650

> <Gold.Chemscore.Metal>
0.0000

> <Gold.Chemscore.Lipo>
107.5414

> <Gold.Chemscore.Internal_Hbond>
0.0000

> <Gold.Chemscore.DEClash>
0.1104

> <Gold.Chemscore.DEInternal>
0.9950

> <Gold.Chemscore.Rot>
3.2058

> <Gold.Chemscore.Internal.Correction>
   9.000000E+99

> <Gold.Chemscore.Hbonds>
donor molecule, donor type, donor heavy atom, donor atom, acceptor molecule, acceptor atom, score
      L1  H    10    33       P1  7957  1.00
      L1  H    12    53       P1 10175  0.96
      P1  H  6934  6946       L1    18  0.78

> <Gold.Chemscore.Hbond.Weighted>
-9.9031

> <Gold.Chemscore.Metal.Weighted>
-0.0000

> <Gold.Chemscore.Lipo.Weighted>
-12.5823

> <Gold.Chemscore.Internal_Hbond.Weighted>
0.0000

> <Gold.Chemscore.DEClash.Weighted>
0.1104

> <Gold.Chemscore.DEInternal.Weighted>
0.9950

> <Gold.Chemscore.Rot.Weighted>
8.2067

> <Gold.Chemscore.Internal.Correction.Weighted>
   9.000000E+99

> <Gold.Protein.RotatedTorsions>
[ 6907 6896 6895 6894 ] final   69.87 input  -60.11 | X-H torsion
[ 7974 7965 7964 7962 ] final  137.28 input  175.53 | X-H torsion
[ 8008 7997 7996 7995 ] final   97.29 input   59.86 | X-H torsion
[ 10167 10162 10161 10158 ] final  -10.23 input  -65.29 | X-H torsion
[ 10718 10713 10712 10709 ] final   -9.46 input   66.30 | X-H torsion
[ 10763 10752 10751 10750 ] final   11.08 input  -60.55 | X-H torsion
[ 11005 11000 10999 10996 ] final  -87.27 input  -57.11 | X-H torsion

> <Gold.Protein.ActiveResidues>
 VAL166  LYS551  ARG553  GLY616  TRP617  ASP618  TYR619  PRO620  LYS621  CYS622 
 ASP623  PHE694  ASN695  SER759  ASP760  ASP761  ALA762  ILE779  LEU786  VAL792 
 PHE793  MET794  SER795  GLU796  ALA797  LYS798  CYS799  TRP800  GLU811  SER814 

> <Gold.Protein.RotatedAtoms>
  152.4714  134.4952  159.9707 H   0  0  0  0  0  0  0  0  0  0  0  0  # atno 6907 bound_to 6896
  151.4977  133.3505  159.2871 H   0  0  0  0  0  0  0  0  0  0  0  0  # atno 6908 bound_to 6896
  150.8726  134.8130  159.7227 H   0  0  0  0  0  0  0  0  0  0  0  0  # atno 6909 bound_to 6896
  144.9483  139.4848  143.5538 H   0  0  0  0  0  0  0  0  0  0  0  0  # atno 7974 bound_to 7965
  156.0886  140.3260  155.7786 H   0  0  0  0  0  0  0  0  0  0  0  0  # atno 8008 bound_to 7997
  155.5034  140.0571  157.2953 H   0  0  0  0  0  0  0  0  0  0  0  0  # atno 8009 bound_to 7997
  154.4624  140.1973  156.0225 H   0  0  0  0  0  0  0  0  0  0  0  0  # atno 8010 bound_to 7997
  140.7108  143.5770  150.9032 H   0  0  0  0  0  0  0  0  0  0  0  0  # atno 10167 bound_to 10162
  156.6877  130.5055  149.5952 H   0  0  0  0  0  0  0  0  0  0  0  0  # atno 10718 bound_to 10713
  153.1964  135.6850  153.8286 H   0  0  0  0  0  0  0  0  0  0  0  0  # atno 10763 bound_to 10752
  153.7568  135.3216  155.3331 H   0  0  0  0  0  0  0  0  0  0  0  0  # atno 10764 bound_to 10752
  154.8147  135.4694  154.0710 H   0  0  0  0  0  0  0  0  0  0  0  0  # atno 10765 bound_to 10752
  141.1619  133.7502  156.9282 H   0  0  0  0  0  0  0  0  0  0  0  0  # atno 11005 bound_to 11000
  146.3312  139.8551  142.8866 LP  0  0  0  0  0  0  0  0  0  0  0  0  # atno 17320 bound_to 7965
  145.2883  141.0159  143.3677 LP  0  0  0  0  0  0  0  0  0  0  0  0  # atno 17321 bound_to 7965
  139.9496  143.6287  152.3032 LP  0  0  0  0  0  0  0  0  0  0  0  0  # atno 17342 bound_to 10162
  139.6801  144.7656  151.1624 LP  0  0  0  0  0  0  0  0  0  0  0  0  # atno 17343 bound_to 10162
  156.1821  130.6505  151.0963 LP  0  0  0  0  0  0  0  0  0  0  0  0  # atno 17370 bound_to 10713
  157.7020  131.0772  150.6788 LP  0  0  0  0  0  0  0  0  0  0  0  0  # atno 17371 bound_to 10713
  140.1404  134.9297  157.2459 LP  0  0  0  0  0  0  0  0  0  0  0  0  # atno 17394 bound_to 11000
  140.2843  134.3313  155.7333 LP  0  0  0  0  0  0  0  0  0  0  0  0  # atno 17395 bound_to 11000

$$$$
