AV-unprocessed.smi:1995|AV-procd|sdf|8079|dock5
  -GOLD-   2272010293D 1   1.00000     0.00000
 Structure written by MMmdl.
 43 44  0  0  0  0  0  0  0  0  2 V2000
  146.4460  140.6127  155.8018 C   0  0  0  0  0  0  0  0  0  0  0  0
  147.5940  139.5914  155.7070 C   0  0  0  0  0  0  0  0  0  0  0  0
  147.7883  138.9200  154.3126 C   0  0  2  0  0  0  0  0  0  0  0  0
  147.9927  140.0581  153.2783 C   0  0  0  0  0  0  0  0  0  0  0  0
  146.5089  138.1138  153.9264 C   0  0  0  0  0  0  0  0  0  0  0  0
  146.7520  137.0488  152.9533 N   0  0  0  0  0  0  0  0  0  0  0  0
  145.8206  136.2232  152.4533 C   0  0  0  0  0  0  0  0  0  0  0  0
  144.6261  136.2931  152.7437 O   0  0  0  0  0  0  0  0  0  0  0  0
  146.3642  135.3328  151.6056 N   0  0  0  0  0  0  0  0  0  0  0  0
  145.7127  134.2995  150.8824 C   0  0  0  0  0  0  0  0  0  0  0  0
  144.4094  134.2968  150.5791 N   0  0  0  0  0  0  0  0  0  0  0  0
  144.0403  133.1561  149.8617 C   0  0  0  0  0  0  0  0  0  0  0  0
  145.0828  132.2946  149.6256 C   0  0  0  0  0  0  0  0  0  0  0  0
  146.5786  132.8858  150.2988 S   0  0  0  0  0  0  0  0  0  0  0  0
  148.9955  138.0153  154.3436 N   0  3  0  0  0  0  0  0  0  0  0  0
  150.3171  138.6971  154.4492 C   0  0  0  0  0  0  0  0  0  0  0  0
  151.4596  137.6885  154.2511 C   0  0  0  0  0  0  0  0  0  0  0  0
  151.3554  136.6586  155.2242 O   0  0  0  0  0  0  0  0  0  0  0  0
  150.1387  135.9368  155.0971 C   0  0  0  0  0  0  0  0  0  0  0  0
  148.9437  136.8818  155.3103 C   0  0  0  0  0  0  0  0  0  0  0  0
  146.3876  141.0231  156.8101 H   0  0  0  0  0  0  0  0  0  0  0  0
  145.4798  140.1590  155.5826 H   0  0  0  0  0  0  0  0  0  0  0  0
  146.5876  141.4512  155.1201 H   0  0  0  0  0  0  0  0  0  0  0  0
  148.5182  140.0682  156.0326 H   0  0  0  0  0  0  0  0  0  0  0  0
  147.4061  138.8248  156.4592 H   0  0  0  0  0  0  0  0  0  0  0  0
  147.2480  140.8465  153.3934 H   0  0  0  0  0  0  0  0  0  0  0  0
  147.9012  139.7008  152.2524 H   0  0  0  0  0  0  0  0  0  0  0  0
  148.9724  140.5261  153.3779 H   0  0  0  0  0  0  0  0  0  0  0  0
  146.0846  137.6316  154.8064 H   0  0  0  0  0  0  0  0  0  0  0  0
  145.7285  138.7738  153.5479 H   0  0  0  0  0  0  0  0  0  0  0  0
  147.7073  136.9192  152.6530 H   0  0  0  0  0  0  0  0  0  0  0  0
  147.3614  135.3961  151.4642 H   0  0  0  0  0  0  0  0  0  0  0  0
  143.0107  133.0381  149.5576 H   0  0  0  0  0  0  0  0  0  0  0  0
  145.0612  131.3524  149.0981 H   0  0  0  0  0  0  0  0  0  0  0  0
  150.4254  139.4822  153.7035 H   0  0  0  0  0  0  0  0  0  0  0  0
  150.4268  139.1655  155.4273 H   0  0  0  0  0  0  0  0  0  0  0  0
  151.4384  137.2652  153.2453 H   0  0  0  0  0  0  0  0  0  0  0  0
  152.4228  138.1858  154.3677 H   0  0  0  0  0  0  0  0  0  0  0  0
  150.0862  135.4587  154.1176 H   0  0  0  0  0  0  0  0  0  0  0  0
  150.1233  135.1394  155.8406 H   0  0  0  0  0  0  0  0  0  0  0  0
  148.9545  137.2570  156.3339 H   0  0  0  0  0  0  0  0  0  0  0  0
  148.0365  136.2925  155.1924 H   0  0  0  0  0  0  0  0  0  0  0  0
  148.9986  137.5775  153.4334 H   0  0  0  0  0  0  0  0  0  0  0  0
  1  2  1  0  0  0  0
  1 21  1  0  0  0  0
  1 22  1  0  0  0  0
  1 23  1  0  0  0  0
  2  3  1  0  0  0  0
  2 24  1  0  0  0  0
  2 25  1  0  0  0  0
  3  4  1  0  0  0  0
  3  5  1  0  0  0  0
  3 15  1  0  0  0  0
  4 26  1  0  0  0  0
  4 27  1  0  0  0  0
  4 28  1  0  0  0  0
  5  6  1  0  0  0  0
  5 29  1  0  0  0  0
  5 30  1  0  0  0  0
  6  7  1  0  0  0  0
  6 31  1  0  0  0  0
  7  8  2  0  0  0  0
  7  9  1  0  0  0  0
  9 10  1  0  0  0  0
  9 32  1  0  0  0  0
 10 14  1  0  0  0  0
 10 11  2  0  0  0  0
 11 12  1  0  0  0  0
 12 13  2  0  0  0  0
 12 33  1  0  0  0  0
 13 14  1  0  0  0  0
 13 34  1  0  0  0  0
 15 20  1  0  0  0  0
 15 16  1  0  0  0  0
 15 43  1  0  0  0  0
 16 17  1  0  0  0  0
 16 35  1  0  0  0  0
 16 36  1  0  0  0  0
 17 18  1  0  0  0  0
 17 37  1  0  0  0  0
 17 38  1  0  0  0  0
 18 19  1  0  0  0  0
 19 20  1  0  0  0  0
 19 39  1  0  0  0  0
 19 40  1  0  0  0  0
 20 41  1  0  0  0  0
 20 42  1  0  0  0  0
M  CHG  1  15   1
M  END
> <s_m_source_file>
AV-unprocessed.smi

> <i_m_source_file_index>
1995

> <i_lp_mmshare_version>
43012

> <i_f3d_flags>
0

> <s_epik_input>
W0NIMl0xW0NIMl1PW0NIMl1bQ0gyXU4xW0NAQF0oW0NIM10pKFtDSDJdW0NIM10pW0NIMl1bTkhdQyg9TylbTkhdYzJuW2NIXVtjSF1zMg==

> <s_epik_cmdline>
J2VwaWtfcHl0aG9uJywgJy1waCcsICc3LjAnLCAnLXRuJywgJzgnLCAnLW1hJywgJzIwMCcsICctbWV0YWxfYmluZGluZycsICctaW1hZScsICc8aW5maWxlLm1hZT4nLCAnLW9tYWUnLCAnPG91dGZpbGUubWFlPic=

> <r_lp_tautomer_probability>
0.999

> <r_epik_Ionization_Penalty>
0.55406

> <r_epik_Ionization_Penalty_Charging>
0.553838

> <r_epik_Ionization_Penalty_Neutral>
0.000222147

> <r_epik_State_Penalty>
0.564424

> <r_epik_Charging_Adjusted_Penalty>
1.11826

> <i_epik_Tot_Q>
1

> <i_epik_Tot_abs_Q>
1

> <r_epik_Metal_State_Penalty>
0.573776

> <b_epik_Metal_Only>
0

> <s_lp_Force_Field>
OPLS_2005

> <r_lp_Energy>
26.593

> <b_lp_Chiralities_Consistent>
1

> <s_lp_Variant>
AV-unprocessed.smi:1995-4

> <Gold.Version>
5.8.1

> <Gold.Id.Protein>
6NUR|6NUR_protein|mol2

> <Gold.PLP.Fitness>
43.5713

> <Gold.PLP.PLP>
-26.7059

> <Gold.PLP.part.hbond>
-4.0000

> <Gold.PLP.part.metal>
0.0000

> <Gold.PLP.part.buried>
-0.1064

> <Gold.PLP.part.nonpolar>
-23.2095

> <Gold.PLP.part.repulsive>
0.5108

> <Gold.PLP.ligand.clash>
0.0000

> <Gold.PLP.ligand.torsion>
0.6074

> <Gold.PLP.Chemscore.Hbond>
4.9825

> <Gold.PLP.Chemscore.CHOScore>
1.0000

> <Gold.PLP.Chemscore.Metal>
0.0000

> <Gold.Chemscore.Hbonds>
donor molecule, donor type, donor heavy atom, donor atom, acceptor molecule, acceptor atom, score
      L1  H     6    31       P1  7948  1.00
      L1  H     9    32       P1  7948  1.00
      L1  H    15    43       P1  7948  1.92
      P1  H 10752 10764       L1    18  0.65
      L1  C    12    33       P1 10186  1.00

> <Gold.PLP.Chemscore.Internal.Correction>
0.1326

> <Gold.Rescore>
     Score         DG    S(hbond)    S(metal)    S(lipo)     H(rot)  DE(clash)    DE(int)     intcor
     18.15     -20.68       3.32        0.00      74.41       1.79       1.73       0.80       ----

> <Gold.Chemscore.Fitness>
18.1469

> <Gold.Chemscore.DG>
-20.6781

> <Gold.Chemscore.ZeroCoef>
-5.4800

> <Gold.Chemscore.Hbond>
3.3191

> <Gold.Chemscore.Metal>
0.0000

> <Gold.Chemscore.Lipo>
74.4051

> <Gold.Chemscore.Internal_Hbond>
0.0000

> <Gold.Chemscore.DEClash>
1.7287

> <Gold.Chemscore.DEInternal>
0.8026

> <Gold.Chemscore.Rot>
1.7942

> <Gold.Chemscore.Internal.Correction>
   9.000000E+99

> <Gold.Chemscore.Hbonds>
donor molecule, donor type, donor heavy atom, donor atom, acceptor molecule, acceptor atom, score
      L1  H     6    31       P1  7948  0.98
      L1  H     9    32       P1  7948  0.86
      L1  H    15    43       P1  7948  0.90
      P1  H 10752 10764       L1    18  0.04

> <Gold.Chemscore.Hbond.Weighted>
-11.0858

> <Gold.Chemscore.Metal.Weighted>
-0.0000

> <Gold.Chemscore.Lipo.Weighted>
-8.7054

> <Gold.Chemscore.Internal_Hbond.Weighted>
0.0000

> <Gold.Chemscore.DEClash.Weighted>
1.7287

> <Gold.Chemscore.DEInternal.Weighted>
0.8026

> <Gold.Chemscore.Rot.Weighted>
4.5931

> <Gold.Chemscore.Internal.Correction.Weighted>
   9.000000E+99

> <Gold.Protein.RotatedTorsions>
[ 6907 6896 6895 6894 ] final  -50.55 input  -60.11 | X-H torsion
[ 7974 7965 7964 7962 ] final -165.64 input  175.53 | X-H torsion
[ 8008 7997 7996 7995 ] final -167.86 input   59.86 | X-H torsion
[ 10167 10162 10161 10158 ] final -171.54 input  -65.29 | X-H torsion
[ 10718 10713 10712 10709 ] final  -23.60 input   66.30 | X-H torsion
[ 10763 10752 10751 10750 ] final  -68.36 input  -60.55 | X-H torsion
[ 11005 11000 10999 10996 ] final   98.42 input  -57.11 | X-H torsion

> <Gold.Protein.ActiveResidues>
 VAL166  LYS551  ARG553  GLY616  TRP617  ASP618  TYR619  PRO620  LYS621  CYS622 
 ASP623  PHE694  ASN695  SER759  ASP760  ASP761  ALA762  ILE779  LEU786  VAL792 
 PHE793  MET794  SER795  GLU796  ALA797  LYS798  CYS799  TRP800  GLU811  SER814 

> <Gold.Protein.RotatedAtoms>
  150.8696  134.8067  159.7144 H   0  0  0  0  0  0  0  0  0  0  0  0  # atno 6907 bound_to 6896
  152.4705  134.4967  159.9722 H   0  0  0  0  0  0  0  0  0  0  0  0  # atno 6908 bound_to 6896
  151.5058  133.3456  159.2912 H   0  0  0  0  0  0  0  0  0  0  0  0  # atno 6909 bound_to 6896
  144.7265  140.2784  143.6240 H   0  0  0  0  0  0  0  0  0  0  0  0  # atno 7974 bound_to 7965
  155.8835  140.1013  157.1469 H   0  0  0  0  0  0  0  0  0  0  0  0  # atno 8008 bound_to 7997
  154.4007  140.1324  156.4290 H   0  0  0  0  0  0  0  0  0  0  0  0  # atno 8009 bound_to 7997
  155.7616  140.3463  155.5203 H   0  0  0  0  0  0  0  0  0  0  0  0  # atno 8010 bound_to 7997
  139.5796  144.1453  152.1497 H   0  0  0  0  0  0  0  0  0  0  0  0  # atno 10167 bound_to 10162
  156.4889  130.4562  149.6767 H   0  0  0  0  0  0  0  0  0  0  0  0  # atno 10718 bound_to 10713
  154.3879  135.6059  153.5826 H   0  0  0  0  0  0  0  0  0  0  0  0  # atno 10763 bound_to 10752
  152.9787  135.5876  154.4333 H   0  0  0  0  0  0  0  0  0  0  0  0  # atno 10764 bound_to 10752
  154.4112  135.2844  155.2013 H   0  0  0  0  0  0  0  0  0  0  0  0  # atno 10765 bound_to 10752
  139.8772  134.9048  156.4454 H   0  0  0  0  0  0  0  0  0  0  0  0  # atno 11005 bound_to 11000
  145.7974  139.1950  143.2068 LP  0  0  0  0  0  0  0  0  0  0  0  0  # atno 17320 bound_to 7965
  146.0705  140.7874  142.9690 LP  0  0  0  0  0  0  0  0  0  0  0  0  # atno 17321 bound_to 7965
  140.1004  144.5545  150.6993 LP  0  0  0  0  0  0  0  0  0  0  0  0  # atno 17342 bound_to 10162
  140.7076  143.2479  151.4680 LP  0  0  0  0  0  0  0  0  0  0  0  0  # atno 17343 bound_to 10162
  156.3446  130.7400  151.2351 LP  0  0  0  0  0  0  0  0  0  0  0  0  # atno 17370 bound_to 10713
  157.7476  131.0394  150.4548 LP  0  0  0  0  0  0  0  0  0  0  0  0  # atno 17371 bound_to 10713
  140.8970  133.7807  155.9636 LP  0  0  0  0  0  0  0  0  0  0  0  0  # atno 17394 bound_to 11000
  140.8692  134.2746  157.5198 LP  0  0  0  0  0  0  0  0  0  0  0  0  # atno 17395 bound_to 11000

$$$$
