AV-unprocessed.smi:1403|AV-procd|sdf|5697|dock6
  -GOLD-   22720 5323D 1   1.00000     0.00000
 Structure written by MMmdl.
 36 37  0  0  0  0  0  0  0  0  1 V2000
  152.5107  141.3367  159.7173 C   0  0  0  0  0  0  0  0  0  0  0  0
  151.3086  141.9163  158.9525 C   0  0  2  0  0  0  0  0  0  0  0  0
  151.3876  141.5190  157.5493 N   0  0  0  0  0  0  0  0  0  0  0  0
  151.2603  140.2667  157.0847 C   0  0  0  0  0  0  0  0  0  0  0  0
  151.0931  139.2883  157.8140 O   0  0  0  0  0  0  0  0  0  0  0  0
  151.3653  140.0942  155.5635 C   0  0  0  0  0  0  0  0  0  0  0  0
  150.0530  139.9306  154.9220 N   0  0  0  0  0  0  0  0  0  0  0  0
  149.1577  140.9897  154.8731 C   0  0  0  0  0  0  0  0  0  0  0  0
  147.9391  140.9094  154.2880 C   0  0  0  0  0  0  0  0  0  0  0  0
  147.4999  139.6659  153.6636 C   0  0  0  0  0  0  0  0  0  0  0  0
  146.4155  139.4939  153.1115 O   0  0  0  0  0  0  0  0  0  0  0  0
  148.4293  138.6247  153.7314 N   0  0  0  0  0  0  0  0  0  0  0  0
  149.6875  138.7016  154.3307 C   0  0  0  0  0  0  0  0  0  0  0  0
  150.4330  137.7227  154.3308 O   0  0  0  0  0  0  0  0  0  0  0  0
  151.2400  143.4534  159.0393 C   0  0  2  0  0  0  0  0  0  0  0  0
  152.4193  144.1818  158.3893 C   0  0  0  0  0  0  0  0  0  0  0  0
  152.4571  145.4747  159.1703 C   0  0  0  0  0  0  0  0  0  0  0  0
  152.1277  144.9881  160.5763 C   0  0  0  0  0  0  0  0  0  0  0  0
  151.2570  143.8739  160.4040 O   0  0  0  0  0  0  0  0  0  0  0  0
  148.1706  137.7444  153.3102 H   0  0  0  0  0  0  0  0  0  0  0  0
  152.4598  141.5769  160.7792 H   0  0  0  0  0  0  0  0  0  0  0  0
  153.4527  141.7284  159.3321 H   0  0  0  0  0  0  0  0  0  0  0  0
  152.5433  140.2498  159.6341 H   0  0  0  0  0  0  0  0  0  0  0  0
  150.3927  141.5138  159.3891 H   0  0  0  0  0  0  0  0  0  0  0  0
  151.5249  142.2594  156.8768 H   0  0  0  0  0  0  0  0  0  0  0  0
  151.8961  140.9406  155.1221 H   0  0  0  0  0  0  0  0  0  0  0  0
  151.9956  139.2259  155.3662 H   0  0  0  0  0  0  0  0  0  0  0  0
  149.4423  141.9319  155.3194 H   0  0  0  0  0  0  0  0  0  0  0  0
  147.2864  141.7703  154.2807 H   0  0  0  0  0  0  0  0  0  0  0  0
  150.3109  143.8168  158.5969 H   0  0  0  0  0  0  0  0  0  0  0  0
  153.3475  143.6294  158.5431 H   0  0  0  0  0  0  0  0  0  0  0  0
  152.2867  144.3356  157.3178 H   0  0  0  0  0  0  0  0  0  0  0  0
  153.4175  145.9872  159.1098 H   0  0  0  0  0  0  0  0  0  0  0  0
  151.6811  146.1528  158.8127 H   0  0  0  0  0  0  0  0  0  0  0  0
  153.0314  144.6450  161.0814 H   0  0  0  0  0  0  0  0  0  0  0  0
  151.6693  145.7631  161.1909 H   0  0  0  0  0  0  0  0  0  0  0  0
  1  2  1  0  0  0  0
  1 21  1  0  0  0  0
  1 22  1  0  0  0  0
  1 23  1  0  0  0  0
  2  3  1  0  0  0  0
  2 15  1  0  0  0  0
  2 24  1  0  0  0  0
  3  4  1  0  0  0  0
  3 25  1  0  0  0  0
  4  5  2  0  0  0  0
  4  6  1  0  0  0  0
  6  7  1  0  0  0  0
  6 26  1  0  0  0  0
  6 27  1  0  0  0  0
  7 13  1  0  0  0  0
  7  8  1  0  0  0  0
  8  9  2  0  0  0  0
  8 28  1  0  0  0  0
  9 10  1  0  0  0  0
  9 29  1  0  0  0  0
 10 11  2  0  0  0  0
 10 12  1  0  0  0  0
 12 20  1  0  0  0  0
 12 13  1  0  0  0  0
 13 14  2  0  0  0  0
 15 19  1  0  0  0  0
 15 16  1  0  0  0  0
 15 30  1  0  0  0  0
 16 17  1  0  0  0  0
 16 31  1  0  0  0  0
 16 32  1  0  0  0  0
 17 18  1  0  0  0  0
 17 33  1  0  0  0  0
 17 34  1  0  0  0  0
 18 19  1  0  0  0  0
 18 35  1  0  0  0  0
 18 36  1  0  0  0  0
M  END
> <s_m_source_file>
AV-unprocessed.smi

> <i_m_source_file_index>
1403

> <i_lp_mmshare_version>
43012

> <i_f3d_flags>
0

> <s_epik_input>
TzFbQ0gyXVtDSDJdW0NIMl1bQ0BIXTFbQ0BIXShbQ0gzXSlbTkhdQyg9TylbQ0gyXW4yW2NIXVtjSF1jKD1PKVtuSF1jMj1P

> <s_epik_cmdline>
J2VwaWtfcHl0aG9uJywgJy1waCcsICc3LjAnLCAnLXRuJywgJzgnLCAnLW1hJywgJzIwMCcsICctbWV0YWxfYmluZGluZycsICctaW1hZScsICc8aW5maWxlLm1hZT4nLCAnLW9tYWUnLCAnPG91dGZpbGUubWFlPic=

> <r_lp_tautomer_probability>
0.999537

> <r_epik_Ionization_Penalty>
0.00331407

> <r_epik_Ionization_Penalty_Charging>
0.00331405

> <r_epik_Ionization_Penalty_Neutral>
2.30132e-08

> <r_epik_State_Penalty>
0.00234266

> <r_epik_Charging_Adjusted_Penalty>
0.00565671

> <i_epik_Tot_Q>
0

> <i_epik_Tot_abs_Q>
0

> <r_epik_Metal_State_Penalty>
0.365604

> <b_epik_Metal_Only>
0

> <s_lp_Force_Field>
OPLS_2005

> <r_lp_Energy>
18.7727

> <b_lp_Chiralities_Consistent>
1

> <s_lp_Variant>
AV-unprocessed.smi:1403-1

> <Gold.Version>
5.8.1

> <Gold.Id.Protein>
6NUR|6NUR_protein|mol2

> <Gold.PLP.Fitness>
41.4308

> <Gold.PLP.PLP>
-38.4949

> <Gold.PLP.part.hbond>
-2.1616

> <Gold.PLP.part.metal>
0.0000

> <Gold.PLP.part.buried>
-1.3780

> <Gold.PLP.part.nonpolar>
-34.1609

> <Gold.PLP.part.repulsive>
0.7870

> <Gold.PLP.ligand.clash>
0.0000

> <Gold.PLP.ligand.torsion>
0.4180

> <Gold.PLP.Chemscore.Hbond>
1.0000

> <Gold.PLP.Chemscore.CHOScore>
0.2528

> <Gold.PLP.Chemscore.Metal>
0.0000

> <Gold.Chemscore.Hbonds>
donor molecule, donor type, donor heavy atom, donor atom, acceptor molecule, acceptor atom, score
      L1  H    12    20       P1  7948  0.39
      L1  C     8    28       P1  8028  0.18

> <Gold.PLP.Chemscore.Internal.Correction>
0.0135

> <Gold.Rescore>
     Score         DG    S(hbond)    S(metal)    S(lipo)     H(rot)  DE(clash)    DE(int)     intcor
     12.20     -13.46       0.93        0.00      86.20       2.04       0.24       1.01       ----

> <Gold.Chemscore.Fitness>
12.2019

> <Gold.Chemscore.DG>
-13.4601

> <Gold.Chemscore.ZeroCoef>
-5.4800

> <Gold.Chemscore.Hbond>
0.9330

> <Gold.Chemscore.Metal>
0.0000

> <Gold.Chemscore.Lipo>
86.1958

> <Gold.Chemscore.Internal_Hbond>
0.0000

> <Gold.Chemscore.DEClash>
0.2438

> <Gold.Chemscore.DEInternal>
1.0144

> <Gold.Chemscore.Rot>
2.0395

> <Gold.Chemscore.Internal.Correction>
   9.000000E+99

> <Gold.Chemscore.Hbonds>
donor molecule, donor type, donor heavy atom, donor atom, acceptor molecule, acceptor atom, score
      L1  H    12    20       P1  7948  0.41

> <Gold.Chemscore.Hbond.Weighted>
-3.1162

> <Gold.Chemscore.Metal.Weighted>
-0.0000

> <Gold.Chemscore.Lipo.Weighted>
-10.0849

> <Gold.Chemscore.Internal_Hbond.Weighted>
0.0000

> <Gold.Chemscore.DEClash.Weighted>
0.2438

> <Gold.Chemscore.DEInternal.Weighted>
1.0144

> <Gold.Chemscore.Rot.Weighted>
5.2211

> <Gold.Chemscore.Internal.Correction.Weighted>
   9.000000E+99

> <Gold.Protein.RotatedTorsions>
[ 6907 6896 6895 6894 ] final  167.49 input  -60.11 | X-H torsion
[ 7974 7965 7964 7962 ] final   13.88 input  175.53 | X-H torsion
[ 8008 7997 7996 7995 ] final  -49.44 input   59.86 | X-H torsion
[ 10167 10162 10161 10158 ] final -133.88 input  -65.29 | X-H torsion
[ 10718 10713 10712 10709 ] final  -48.40 input   66.30 | X-H torsion
[ 10763 10752 10751 10750 ] final   53.74 input  -60.55 | X-H torsion
[ 11005 11000 10999 10996 ] final -106.84 input  -57.11 | X-H torsion

> <Gold.Protein.ActiveResidues>
 VAL166  LYS551  ARG553  GLY616  TRP617  ASP618  TYR619  PRO620  LYS621  CYS622 
 ASP623  PHE694  ASN695  SER759  ASP760  ASP761  ALA762  ILE779  LEU786  VAL792 
 PHE793  MET794  SER795  GLU796  ALA797  LYS798  CYS799  TRP800  GLU811  SER814 

> <Gold.Protein.RotatedAtoms>
  151.8625  133.3460  159.3708 H   0  0  0  0  0  0  0  0  0  0  0  0  # atno 6907 bound_to 6896
  150.7175  134.5192  159.5654 H   0  0  0  0  0  0  0  0  0  0  0  0  # atno 6908 bound_to 6896
  152.2708  134.7935  160.0465 H   0  0  0  0  0  0  0  0  0  0  0  0  # atno 6909 bound_to 6896
  146.2319  139.9124  142.8522 H   0  0  0  0  0  0  0  0  0  0  0  0  # atno 7974 bound_to 7965
  154.4044  140.1297  156.4502 H   0  0  0  0  0  0  0  0  0  0  0  0  # atno 8008 bound_to 7997
  155.7373  140.3490  155.5067 H   0  0  0  0  0  0  0  0  0  0  0  0  # atno 8009 bound_to 7997
  155.9072  140.1029  157.1297 H   0  0  0  0  0  0  0  0  0  0  0  0  # atno 8010 bound_to 7997
  139.8937  143.6691  152.2607 H   0  0  0  0  0  0  0  0  0  0  0  0  # atno 10167 bound_to 10162
  156.1992  130.4155  149.9264 H   0  0  0  0  0  0  0  0  0  0  0  0  # atno 10718 bound_to 10713
  152.9798  135.5769  154.4790 H   0  0  0  0  0  0  0  0  0  0  0  0  # atno 10763 bound_to 10752
  154.4341  135.2774  155.1894 H   0  0  0  0  0  0  0  0  0  0  0  0  # atno 10764 bound_to 10752
  154.3590  135.6193  153.5734 H   0  0  0  0  0  0  0  0  0  0  0  0  # atno 10765 bound_to 10752
  141.0984  133.8928  157.1904 H   0  0  0  0  0  0  0  0  0  0  0  0  # atno 11005 bound_to 11000
  145.2217  140.9937  143.4042 LP  0  0  0  0  0  0  0  0  0  0  0  0  # atno 17320 bound_to 7965
  144.9605  139.3985  143.6358 LP  0  0  0  0  0  0  0  0  0  0  0  0  # atno 17321 bound_to 7965
  139.7087  144.7624  151.1150 LP  0  0  0  0  0  0  0  0  0  0  0  0  # atno 17342 bound_to 10162
  140.7721  143.5360  150.9367 LP  0  0  0  0  0  0  0  0  0  0  0  0  # atno 17343 bound_to 10162
  156.6980  130.8922  151.3596 LP  0  0  0  0  0  0  0  0  0  0  0  0  # atno 17370 bound_to 10713
  157.6975  130.9298  150.0688 LP  0  0  0  0  0  0  0  0  0  0  0  0  # atno 17371 bound_to 10713
  139.9828  135.0092  156.9790 LP  0  0  0  0  0  0  0  0  0  0  0  0  # atno 17394 bound_to 11000
  140.5082  134.1028  155.7264 LP  0  0  0  0  0  0  0  0  0  0  0  0  # atno 17395 bound_to 11000

$$$$
