AV-unprocessed.smi:2153|AV-procd|sdf|8769|dock4
  -GOLD-   2272011553D 1   1.00000     0.00000
 Structure written by MMmdl.
 48 49  0  0  0  0  0  0  0  0  1 V2000
  152.5277  139.3540  159.2370 C   0  0  0  0  0  0  0  0  0  0  0  0
  151.9293  140.7661  159.1347 C   0  0  1  0  0  0  0  0  0  0  0  0
  152.7418  141.7653  159.9829 C   0  0  0  0  0  0  0  0  0  0  0  0
  152.1651  143.1866  159.8997 C   0  0  0  0  0  0  0  0  0  0  0  0
  152.0878  143.6615  158.4434 C   0  0  0  0  0  0  0  0  0  0  0  0
  151.2745  142.6791  157.5907 C   0  0  0  0  0  0  0  0  0  0  0  0
  151.8314  141.2410  157.6668 C   0  0  2  0  0  0  0  0  0  0  0  0
  150.9370  140.3671  156.9903 O   0  0  0  0  0  0  0  0  0  0  0  0
  150.6853  140.7060  155.6332 C   0  0  0  0  0  0  0  0  0  0  0  0
  150.6056  139.4114  154.8077 C   0  0  0  0  0  0  0  0  0  0  0  0
  150.2664  138.2622  155.6415 N   0  0  0  0  0  0  0  0  0  0  0  0
  150.6635  136.9990  155.4256 C   0  0  0  0  0  0  0  0  0  0  0  0
  151.4410  136.6752  154.5284 O   0  0  0  0  0  0  0  0  0  0  0  0
  150.0827  135.9348  156.3621 C   0  0  0  0  0  0  0  0  0  0  0  0
  149.7927  134.6911  155.6375 N   0  0  0  0  0  0  0  0  0  0  0  0
  149.0767  134.7460  154.4550 C   0  0  0  0  0  0  0  0  0  0  0  0
  148.7935  133.6602  153.7026 C   0  0  0  0  0  0  0  0  0  0  0  0
  149.2472  132.3335  154.1014 C   0  0  0  0  0  0  0  0  0  0  0  0
  149.0105  131.3189  153.4451 O   0  0  0  0  0  0  0  0  0  0  0  0
  149.9834  132.3057  155.3105 N   0  0  0  0  0  0  0  0  0  0  0  0
  150.4836  131.0358  155.7945 C   0  0  0  0  0  0  0  0  0  0  0  0
  150.2553  133.4417  156.1053 C   0  0  0  0  0  0  0  0  0  0  0  0
  150.8764  133.3573  157.1674 O   0  0  0  0  0  0  0  0  0  0  0  0
  153.5369  139.3209  158.8251 H   0  0  0  0  0  0  0  0  0  0  0  0
  151.9237  138.6261  158.6946 H   0  0  0  0  0  0  0  0  0  0  0  0
  152.5804  139.0245  160.2748 H   0  0  0  0  0  0  0  0  0  0  0  0
  150.9188  140.7279  159.5453 H   0  0  0  0  0  0  0  0  0  0  0  0
  152.7598  141.4421  161.0242 H   0  0  0  0  0  0  0  0  0  0  0  0
  153.7793  141.7759  159.6461 H   0  0  0  0  0  0  0  0  0  0  0  0
  151.1701  143.2068  160.3459 H   0  0  0  0  0  0  0  0  0  0  0  0
  152.7796  143.8734  160.4823 H   0  0  0  0  0  0  0  0  0  0  0  0
  151.6357  144.6527  158.3996 H   0  0  0  0  0  0  0  0  0  0  0  0
  153.0933  143.7592  158.0323 H   0  0  0  0  0  0  0  0  0  0  0  0
  150.2442  142.6725  157.9398 H   0  0  0  0  0  0  0  0  0  0  0  0
  151.2447  143.0379  156.5627 H   0  0  0  0  0  0  0  0  0  0  0  0
  152.8229  141.1976  157.2115 H   0  0  0  0  0  0  0  0  0  0  0  0
  149.7605  141.2707  155.5203 H   0  0  0  0  0  0  0  0  0  0  0  0
  151.4884  141.3458  155.2665 H   0  0  0  0  0  0  0  0  0  0  0  0
  149.8769  139.5164  154.0029 H   0  0  0  0  0  0  0  0  0  0  0  0
  151.5687  139.2146  154.3362 H   0  0  0  0  0  0  0  0  0  0  0  0
  149.6307  138.4322  156.4072 H   0  0  0  0  0  0  0  0  0  0  0  0
  150.7819  135.7499  157.1793 H   0  0  0  0  0  0  0  0  0  0  0  0
  149.1764  136.3177  156.8342 H   0  0  0  0  0  0  0  0  0  0  0  0
  148.7268  135.7081  154.1097 H   0  0  0  0  0  0  0  0  0  0  0  0
  148.2292  133.7756  152.7888 H   0  0  0  0  0  0  0  0  0  0  0  0
  151.5176  131.1776  156.1144 H   0  0  0  0  0  0  0  0  0  0  0  0
  150.4686  130.2854  155.0043 H   0  0  0  0  0  0  0  0  0  0  0  0
  149.8437  130.7399  156.6271 H   0  0  0  0  0  0  0  0  0  0  0  0
  1  2  1  0  0  0  0
  1 24  1  0  0  0  0
  1 25  1  0  0  0  0
  1 26  1  0  0  0  0
  2  7  1  0  0  0  0
  2  3  1  0  0  0  0
  2 27  1  0  0  0  0
  3  4  1  0  0  0  0
  3 28  1  0  0  0  0
  3 29  1  0  0  0  0
  4  5  1  0  0  0  0
  4 30  1  0  0  0  0
  4 31  1  0  0  0  0
  5  6  1  0  0  0  0
  5 32  1  0  0  0  0
  5 33  1  0  0  0  0
  6  7  1  0  0  0  0
  6 34  1  0  0  0  0
  6 35  1  0  0  0  0
  7  8  1  0  0  0  0
  7 36  1  0  0  0  0
  8  9  1  0  0  0  0
  9 10  1  0  0  0  0
  9 37  1  0  0  0  0
  9 38  1  0  0  0  0
 10 11  1  0  0  0  0
 10 39  1  0  0  0  0
 10 40  1  0  0  0  0
 11 12  1  0  0  0  0
 11 41  1  0  0  0  0
 12 13  2  0  0  0  0
 12 14  1  0  0  0  0
 14 15  1  0  0  0  0
 14 42  1  0  0  0  0
 14 43  1  0  0  0  0
 15 22  1  0  0  0  0
 15 16  1  0  0  0  0
 16 17  2  0  0  0  0
 16 44  1  0  0  0  0
 17 18  1  0  0  0  0
 17 45  1  0  0  0  0
 18 19  2  0  0  0  0
 18 20  1  0  0  0  0
 20 21  1  0  0  0  0
 20 22  1  0  0  0  0
 21 46  1  0  0  0  0
 21 47  1  0  0  0  0
 21 48  1  0  0  0  0
 22 23  2  0  0  0  0
M  END
> <s_m_source_file>
AV-unprocessed.smi

> <i_m_source_file_index>
2153

> <i_lp_mmshare_version>
43012

> <i_f3d_flags>
0

> <s_epik_input>
W0NIM11bQ0BASF0xW0NIMl1bQ0gyXVtDSDJdW0NIMl1bQ0BIXTFPW0NIMl1bQ0gyXVtOSF1DKD1PKVtDSDJdbjJbY0hdW2NIXWMoPU8pbihbQ0gzXSljMj1P

> <s_epik_cmdline>
J2VwaWtfcHl0aG9uJywgJy1waCcsICc3LjAnLCAnLXRuJywgJzgnLCAnLW1hJywgJzIwMCcsICctbWV0YWxfYmluZGluZycsICctaW1hZScsICc8aW5maWxlLm1hZT4nLCAnLW9tYWUnLCAnPG91dGZpbGUubWFlPic=

> <r_lp_tautomer_probability>
1

> <r_epik_Ionization_Penalty>
4.02205e-08

> <r_epik_Ionization_Penalty_Charging>
1.23606e-08

> <r_epik_Ionization_Penalty_Neutral>
2.78599e-08

> <r_epik_State_Penalty>
-0

> <r_epik_Charging_Adjusted_Penalty>
1.23606e-08

> <i_epik_Tot_Q>
0

> <i_epik_Tot_abs_Q>
0

> <r_epik_Metal_State_Penalty>
-0

> <b_epik_Metal_Only>
0

> <s_lp_Force_Field>
OPLS_2005

> <r_lp_Energy>
17.7366

> <b_lp_Chiralities_Consistent>
1

> <s_lp_Variant>
AV-unprocessed.smi:2153-4

> <Gold.Version>
5.8.1

> <Gold.Id.Protein>
6NUR|6NUR_protein|mol2

> <Gold.PLP.Fitness>
50.1663

> <Gold.PLP.PLP>
-44.7794

> <Gold.PLP.part.hbond>
-2.0000

> <Gold.PLP.part.metal>
0.0000

> <Gold.PLP.part.buried>
-3.9066

> <Gold.PLP.part.nonpolar>
-37.9951

> <Gold.PLP.part.repulsive>
0.2698

> <Gold.PLP.ligand.clash>
0.0000

> <Gold.PLP.ligand.torsion>
1.1239

> <Gold.PLP.Chemscore.Hbond>
1.6400

> <Gold.PLP.Chemscore.CHOScore>
0.8840

> <Gold.PLP.Chemscore.Metal>
0.0000

> <Gold.Chemscore.Hbonds>
donor molecule, donor type, donor heavy atom, donor atom, acceptor molecule, acceptor atom, score
      P1  H  6896  6907       L1    23  0.46
      P1  H 10752 10764       L1    13  1.00
      L1  C    16    44       P1  7948  0.75

> <Gold.PLP.Chemscore.Internal.Correction>
0.0629

> <Gold.Rescore>
     Score         DG    S(hbond)    S(metal)    S(lipo)     H(rot)  DE(clash)    DE(int)     intcor
     15.41     -16.51       1.62        0.00      95.98       2.20       0.00       1.10       ----

> <Gold.Chemscore.Fitness>
15.4074

> <Gold.Chemscore.DG>
-16.5092

> <Gold.Chemscore.ZeroCoef>
-5.4800

> <Gold.Chemscore.Hbond>
1.6236

> <Gold.Chemscore.Metal>
0.0000

> <Gold.Chemscore.Lipo>
95.9829

> <Gold.Chemscore.Internal_Hbond>
0.0000

> <Gold.Chemscore.DEClash>
0.0021

> <Gold.Chemscore.DEInternal>
1.0996

> <Gold.Chemscore.Rot>
2.1968

> <Gold.Chemscore.Internal.Correction>
   9.000000E+99

> <Gold.Chemscore.Hbonds>
donor molecule, donor type, donor heavy atom, donor atom, acceptor molecule, acceptor atom, score
      P1  H  6896  6907       L1    23  0.45
      P1  H 10752 10764       L1    13  1.00

> <Gold.Chemscore.Hbond.Weighted>
-5.4229

> <Gold.Chemscore.Metal.Weighted>
-0.0000

> <Gold.Chemscore.Lipo.Weighted>
-11.2300

> <Gold.Chemscore.Internal_Hbond.Weighted>
0.0000

> <Gold.Chemscore.DEClash.Weighted>
0.0021

> <Gold.Chemscore.DEInternal.Weighted>
1.0996

> <Gold.Chemscore.Rot.Weighted>
5.6238

> <Gold.Chemscore.Internal.Correction.Weighted>
   9.000000E+99

> <Gold.Protein.RotatedTorsions>
[ 6907 6896 6895 6894 ] final -170.07 input  -60.11 | X-H torsion
[ 7974 7965 7964 7962 ] final  -26.63 input  175.53 | X-H torsion
[ 8008 7997 7996 7995 ] final   20.82 input   59.86 | X-H torsion
[ 10167 10162 10161 10158 ] final  114.61 input  -65.29 | X-H torsion
[ 10718 10713 10712 10709 ] final  138.72 input   66.30 | X-H torsion
[ 10763 10752 10751 10750 ] final  -72.19 input  -60.55 | X-H torsion
[ 11005 11000 10999 10996 ] final  -70.46 input  -57.11 | X-H torsion

> <Gold.Protein.ActiveResidues>
 VAL166  LYS551  ARG553  GLY616  TRP617  ASP618  TYR619  PRO620  LYS621  CYS622 
 ASP623  PHE694  ASN695  SER759  ASP760  ASP761  ALA762  ILE779  LEU786  VAL792 
 PHE793  MET794  SER795  GLU796  ALA797  LYS798  CYS799  TRP800  GLU811  SER814 

> <Gold.Protein.RotatedAtoms>
  151.5018  133.3503  159.2869 H   0  0  0  0  0  0  0  0  0  0  0  0  # atno 6907 bound_to 6896
  150.8768  134.8154  159.7206 H   0  0  0  0  0  0  0  0  0  0  0  0  # atno 6908 bound_to 6896
  152.4736  134.4910  159.9747 H   0  0  0  0  0  0  0  0  0  0  0  0  # atno 6909 bound_to 6896
  146.1412  140.5045  142.8651 H   0  0  0  0  0  0  0  0  0  0  0  0  # atno 7974 bound_to 7965
  154.9413  140.3053  155.5119 H   0  0  0  0  0  0  0  0  0  0  0  0  # atno 8008 bound_to 7997
  156.2995  140.2336  156.4420 H   0  0  0  0  0  0  0  0  0  0  0  0  # atno 8009 bound_to 7997
  154.8142  140.0427  157.1353 H   0  0  0  0  0  0  0  0  0  0  0  0  # atno 8010 bound_to 7997
  139.6376  144.7121  151.2302 H   0  0  0  0  0  0  0  0  0  0  0  0  # atno 10167 bound_to 10162
  157.4222  131.1040  151.0341 H   0  0  0  0  0  0  0  0  0  0  0  0  # atno 10718 bound_to 10713
  154.4422  135.5938  153.6137 H   0  0  0  0  0  0  0  0  0  0  0  0  # atno 10763 bound_to 10752
  152.9806  135.6001  154.3708 H   0  0  0  0  0  0  0  0  0  0  0  0  # atno 10764 bound_to 10752
  154.3559  135.2841  155.2325 H   0  0  0  0  0  0  0  0  0  0  0  0  # atno 10765 bound_to 10752
  141.1574  133.6790  156.6756 H   0  0  0  0  0  0  0  0  0  0  0  0  # atno 11005 bound_to 11000
  144.7795  140.5810  143.6615 LP  0  0  0  0  0  0  0  0  0  0  0  0  # atno 17320 bound_to 7965
  145.5042  139.1482  143.3641 LP  0  0  0  0  0  0  0  0  0  0  0  0  # atno 17321 bound_to 7965
  140.7474  143.6368  150.8372 LP  0  0  0  0  0  0  0  0  0  0  0  0  # atno 17342 bound_to 10162
  140.0001  143.5753  152.2878 LP  0  0  0  0  0  0  0  0  0  0  0  0  # atno 17343 bound_to 10162
  157.1267  130.6085  149.5519 LP  0  0  0  0  0  0  0  0  0  0  0  0  # atno 17370 bound_to 10713
  155.9884  130.4928  150.7170 LP  0  0  0  0  0  0  0  0  0  0  0  0  # atno 17371 bound_to 10713
  140.3142  134.8061  157.4200 LP  0  0  0  0  0  0  0  0  0  0  0  0  # atno 17394 bound_to 11000
  140.1153  134.5292  155.8230 LP  0  0  0  0  0  0  0  0  0  0  0  0  # atno 17395 bound_to 11000

$$$$
