AV-unprocessed.smi:1645|AV-procd|sdf|6605|dock7
  -GOLD-   22720 7303D 1   1.00000     0.00000
 Structure written by MMmdl.
 55 58  0  0  0  0  0  0  0  0  2 V2000
  146.7619  138.1157  155.2456 O   0  0  0  0  0  0  0  0  0  0  0  0
  147.4773  137.7120  154.3287 C   0  0  0  0  0  0  0  0  0  0  0  0
  148.7707  138.0331  154.1564 N   0  0  0  0  0  0  0  0  0  0  0  0
  149.5896  138.8403  154.9911 C   0  0  0  0  0  0  0  0  0  0  0  0
  150.9642  139.0772  154.7596 C   0  0  0  0  0  0  0  0  0  0  0  0
  151.6704  139.9126  155.6453 C   0  0  0  0  0  0  0  0  0  0  0  0
  150.9885  140.4974  156.7375 C   0  0  0  0  0  0  0  0  0  0  0  0
  151.6834  141.3358  157.6343 N   0  0  0  0  0  0  0  0  0  0  0  0
  151.2601  142.7372  157.6285 C   0  0  0  0  0  0  0  0  0  0  0  0
  152.3073  143.6366  158.3077 C   0  0  0  0  0  0  0  0  0  0  0  0
  152.6470  143.1247  159.7153 C   0  0  0  0  0  0  0  0  0  0  0  0
  153.0881  141.6553  159.6488 C   0  0  0  0  0  0  0  0  0  0  0  0
  152.0239  140.7915  158.9508 C   0  0  0  0  0  0  0  0  0  0  0  0
  149.6681  140.2768  156.9510 N   0  0  0  0  0  0  0  0  0  0  0  0
  148.9937  139.4790  156.0967 C   0  0  0  0  0  0  0  0  0  0  0  0
  147.0408  136.8984  153.3564 N   0  0  0  0  0  0  0  0  0  0  0  0
  145.6762  136.3895  153.2415 C   0  0  1  0  0  0  0  0  0  0  0  0
  144.6150  137.4172  153.6586 C   0  0  0  0  0  0  0  0  0  0  0  0
  143.4216  137.1785  152.7114 C   0  0  0  0  0  0  0  0  0  0  0  0
  143.7949  136.0478  151.8298 N   0  3  2  0  0  0  0  0  0  0  0  0
  143.2021  134.7616  152.2920 C   0  0  0  0  0  0  0  0  0  0  0  0
  143.7712  133.5530  151.5370 C   0  0  0  0  0  0  0  0  0  0  0  0
  145.2942  133.5057  151.6832 C   0  0  0  0  0  0  0  0  0  0  0  0
  145.8934  134.8083  151.1456 C   0  0  0  0  0  0  0  0  0  0  0  0
  145.2776  136.0688  151.7944 C   0  0  2  0  0  0  0  0  0  0  0  0
  149.2041  137.7114  153.3032 H   0  0  0  0  0  0  0  0  0  0  0  0
  151.4853  138.6470  153.9185 H   0  0  0  0  0  0  0  0  0  0  0  0
  152.7239  140.0875  155.4855 H   0  0  0  0  0  0  0  0  0  0  0  0
  151.0844  143.0999  156.6165 H   0  0  0  0  0  0  0  0  0  0  0  0
  150.3085  142.8134  158.1559 H   0  0  0  0  0  0  0  0  0  0  0  0
  153.2131  143.6629  157.7002 H   0  0  0  0  0  0  0  0  0  0  0  0
  151.9395  144.6613  158.3606 H   0  0  0  0  0  0  0  0  0  0  0  0
  153.4332  143.7356  160.1595 H   0  0  0  0  0  0  0  0  0  0  0  0
  151.7736  143.2177  160.3620 H   0  0  0  0  0  0  0  0  0  0  0  0
  154.0310  141.5816  159.1055 H   0  0  0  0  0  0  0  0  0  0  0  0
  153.2783  141.2745  160.6523 H   0  0  0  0  0  0  0  0  0  0  0  0
  151.1223  140.7446  159.5628 H   0  0  0  0  0  0  0  0  0  0  0  0
  152.4001  139.7726  158.8501 H   0  0  0  0  0  0  0  0  0  0  0  0
  147.9436  139.3412  156.3096 H   0  0  0  0  0  0  0  0  0  0  0  0
  147.6951  136.6208  152.6393 H   0  0  0  0  0  0  0  0  0  0  0  0
  145.5522  135.5027  153.8657 H   0  0  0  0  0  0  0  0  0  0  0  0
  144.3354  137.2925  154.7052 H   0  0  0  0  0  0  0  0  0  0  0  0
  144.9808  138.4379  153.5369 H   0  0  0  0  0  0  0  0  0  0  0  0
  142.4931  136.9944  153.2538 H   0  0  0  0  0  0  0  0  0  0  0  0
  143.2616  138.0616  152.0916 H   0  0  0  0  0  0  0  0  0  0  0  0
  143.3790  134.6329  153.3611 H   0  0  0  0  0  0  0  0  0  0  0  0
  142.1203  134.8026  152.1606 H   0  0  0  0  0  0  0  0  0  0  0  0
  143.3321  132.6330  151.9239 H   0  0  0  0  0  0  0  0  0  0  0  0
  143.4984  133.6091  150.4824 H   0  0  0  0  0  0  0  0  0  0  0  0
  145.5698  133.3656  152.7291 H   0  0  0  0  0  0  0  0  0  0  0  0
  145.6992  132.6533  151.1372 H   0  0  0  0  0  0  0  0  0  0  0  0
  146.9764  134.8040  151.2635 H   0  0  0  0  0  0  0  0  0  0  0  0
  145.7160  134.8500  150.0701 H   0  0  0  0  0  0  0  0  0  0  0  0
  145.5626  136.9228  151.1764 H   0  0  0  0  0  0  0  0  0  0  0  0
  143.4468  136.2200  150.8976 H   0  0  0  0  0  0  0  0  0  0  0  0
  1  2  2  0  0  0  0
  2  3  1  0  0  0  0
  2 16  1  0  0  0  0
  3  4  1  0  0  0  0
  3 26  1  0  0  0  0
  4 15  1  0  0  0  0
  4  5  2  0  0  0  0
  5  6  1  0  0  0  0
  5 27  1  0  0  0  0
  6  7  2  0  0  0  0
  6 28  1  0  0  0  0
  7  8  1  0  0  0  0
  7 14  1  0  0  0  0
  8 13  1  0  0  0  0
  8  9  1  0  0  0  0
  9 10  1  0  0  0  0
  9 29  1  0  0  0  0
  9 30  1  0  0  0  0
 10 11  1  0  0  0  0
 10 31  1  0  0  0  0
 10 32  1  0  0  0  0
 11 12  1  0  0  0  0
 11 33  1  0  0  0  0
 11 34  1  0  0  0  0
 12 13  1  0  0  0  0
 12 35  1  0  0  0  0
 12 36  1  0  0  0  0
 13 37  1  0  0  0  0
 13 38  1  0  0  0  0
 14 15  2  0  0  0  0
 15 39  1  0  0  0  0
 16 17  1  0  0  0  0
 16 40  1  0  0  0  0
 17 25  1  0  0  0  0
 17 18  1  0  0  0  0
 17 41  1  0  0  0  0
 18 19  1  0  0  0  0
 18 42  1  0  0  0  0
 18 43  1  0  0  0  0
 19 20  1  0  0  0  0
 19 44  1  0  0  0  0
 19 45  1  0  0  0  0
 20 25  1  0  0  0  0
 20 21  1  0  0  0  0
 20 55  1  0  0  0  0
 21 22  1  0  0  0  0
 21 46  1  0  0  0  0
 21 47  1  0  0  0  0
 22 23  1  0  0  0  0
 22 48  1  0  0  0  0
 22 49  1  0  0  0  0
 23 24  1  0  0  0  0
 23 50  1  0  0  0  0
 23 51  1  0  0  0  0
 24 25  1  0  0  0  0
 24 52  1  0  0  0  0
 24 53  1  0  0  0  0
 25 54  1  0  0  0  0
M  CHG  1  20   1
M  END
> <s_m_source_file>
AV-unprocessed.smi

> <i_m_source_file_index>
1645

> <i_lp_mmshare_version>
43012

> <i_f3d_flags>
0

> <s_epik_input>
W0NIMl0xW0NIMl1bQ0gyXVtDSDJdW0NASF0oTjEyKVtDQEBIXShbQ0gyXVtDSDJdMilbTkhdQyg9TylbTkhdYzNbY0hdW2NIXWMobltjSF0zKU40W0NIMl1bQ0gyXVtDSDJdW0NIMl1bQ0gyXTQ=

> <s_epik_cmdline>
J2VwaWtfcHl0aG9uJywgJy1waCcsICc3LjAnLCAnLXRuJywgJzgnLCAnLW1hJywgJzIwMCcsICctbWV0YWxfYmluZGluZycsICctaW1hZScsICc8aW5maWxlLm1hZT4nLCAnLW9tYWUnLCAnPG91dGZpbGUubWFlPic=

> <r_lp_tautomer_probability>
1

> <r_epik_Ionization_Penalty>
0.0808019

> <r_epik_Ionization_Penalty_Charging>
0.000974069

> <r_epik_Ionization_Penalty_Neutral>
0.0798278

> <r_epik_State_Penalty>
0.0653665

> <r_epik_Charging_Adjusted_Penalty>
0.0663406

> <i_epik_Tot_Q>
1

> <i_epik_Tot_abs_Q>
1

> <r_epik_Metal_State_Penalty>
0.0585673

> <b_epik_Metal_Only>
0

> <s_lp_Force_Field>
OPLS_2005

> <r_lp_Energy>
54.666

> <b_lp_Chiralities_Consistent>
1

> <s_lp_Variant>
AV-unprocessed.smi:1645-6

> <Gold.Version>
5.8.1

> <Gold.Id.Protein>
6NUR|6NUR_protein|mol2

> <Gold.PLP.Fitness>
47.8694

> <Gold.PLP.PLP>
-43.3165

> <Gold.PLP.part.hbond>
-2.3566

> <Gold.PLP.part.metal>
0.0000

> <Gold.PLP.part.buried>
-4.6360

> <Gold.PLP.part.nonpolar>
-36.5306

> <Gold.PLP.part.repulsive>
0.1038

> <Gold.PLP.ligand.clash>
0.0000

> <Gold.PLP.ligand.torsion>
0.5758

> <Gold.PLP.Chemscore.Hbond>
1.7603

> <Gold.PLP.Chemscore.CHOScore>
0.0000

> <Gold.PLP.Chemscore.Metal>
0.0000

> <Gold.Chemscore.Hbonds>
donor molecule, donor type, donor heavy atom, donor atom, acceptor molecule, acceptor atom, score
      L1  H     3    26       P1  7948  0.77
      L1  H    16    40       P1  7948  0.99

> <Gold.PLP.Chemscore.Internal.Correction>
0.4235

> <Gold.Rescore>
     Score         DG    S(hbond)    S(metal)    S(lipo)     H(rot)  DE(clash)    DE(int)     intcor
     17.87     -21.31       1.85        0.00     108.09       1.17       0.20       3.24       ----

> <Gold.Chemscore.Fitness>
17.8715

> <Gold.Chemscore.DG>
-21.3148

> <Gold.Chemscore.ZeroCoef>
-5.4800

> <Gold.Chemscore.Hbond>
1.8538

> <Gold.Chemscore.Metal>
0.0000

> <Gold.Chemscore.Lipo>
108.0901

> <Gold.Chemscore.Internal_Hbond>
0.0000

> <Gold.Chemscore.DEClash>
0.1987

> <Gold.Chemscore.DEInternal>
3.2446

> <Gold.Chemscore.Rot>
1.1731

> <Gold.Chemscore.Internal.Correction>
   9.000000E+99

> <Gold.Chemscore.Hbonds>
donor molecule, donor type, donor heavy atom, donor atom, acceptor molecule, acceptor atom, score
      L1  H     3    26       P1  7948  0.73
      L1  H    16    40       P1  7948  0.92

> <Gold.Chemscore.Hbond.Weighted>
-6.1916

> <Gold.Chemscore.Metal.Weighted>
-0.0000

> <Gold.Chemscore.Lipo.Weighted>
-12.6465

> <Gold.Chemscore.Internal_Hbond.Weighted>
0.0000

> <Gold.Chemscore.DEClash.Weighted>
0.1987

> <Gold.Chemscore.DEInternal.Weighted>
3.2446

> <Gold.Chemscore.Rot.Weighted>
3.0032

> <Gold.Chemscore.Internal.Correction.Weighted>
   9.000000E+99

> <Gold.Protein.RotatedTorsions>
[ 6907 6896 6895 6894 ] final -124.70 input  -60.11 | X-H torsion
[ 7974 7965 7964 7962 ] final  -12.01 input  175.53 | X-H torsion
[ 8008 7997 7996 7995 ] final  -21.10 input   59.86 | X-H torsion
[ 10167 10162 10161 10158 ] final -142.43 input  -65.29 | X-H torsion
[ 10718 10713 10712 10709 ] final  125.50 input   66.30 | X-H torsion
[ 10763 10752 10751 10750 ] final -100.89 input  -60.55 | X-H torsion
[ 11005 11000 10999 10996 ] final  -15.80 input  -57.11 | X-H torsion

> <Gold.Protein.ActiveResidues>
 VAL166  LYS551  ARG553  GLY616  TRP617  ASP618  TYR619  PRO620  LYS621  CYS622 
 ASP623  PHE694  ASN695  SER759  ASP760  ASP761  ALA762  ILE779  LEU786  VAL792 
 PHE793  MET794  SER795  GLU796  ALA797  LYS798  CYS799  TRP800  GLU811  SER814 

> <Gold.Protein.RotatedAtoms>
  150.8794  133.7394  159.2936 H   0  0  0  0  0  0  0  0  0  0  0  0  # atno 6907 bound_to 6896
  151.4980  135.1059  159.9831 H   0  0  0  0  0  0  0  0  0  0  0  0  # atno 6908 bound_to 6896
  152.4749  133.8070  159.7038 H   0  0  0  0  0  0  0  0  0  0  0  0  # atno 6909 bound_to 6896
  146.2167  140.2995  142.8374 H   0  0  0  0  0  0  0  0  0  0  0  0  # atno 7974 bound_to 7965
  154.4727  140.2044  155.9955 H   0  0  0  0  0  0  0  0  0  0  0  0  # atno 8008 bound_to 7997
  156.1038  140.3240  155.7948 H   0  0  0  0  0  0  0  0  0  0  0  0  # atno 8009 bound_to 7997
  155.4753  140.0534  157.2965 H   0  0  0  0  0  0  0  0  0  0  0  0  # atno 8010 bound_to 7997
  139.8089  143.7730  152.2662 H   0  0  0  0  0  0  0  0  0  0  0  0  # atno 10167 bound_to 10162
  157.5498  131.1094  150.8721 H   0  0  0  0  0  0  0  0  0  0  0  0  # atno 10718 bound_to 10713
  154.7615  135.4918  153.9473 H   0  0  0  0  0  0  0  0  0  0  0  0  # atno 10763 bound_to 10752
  153.1257  135.6741  153.9269 H   0  0  0  0  0  0  0  0  0  0  0  0  # atno 10764 bound_to 10752
  153.8988  135.3112  155.3427 H   0  0  0  0  0  0  0  0  0  0  0  0  # atno 10765 bound_to 10752
  140.8003  133.8219  155.9464 H   0  0  0  0  0  0  0  0  0  0  0  0  # atno 11005 bound_to 11000
  144.9068  140.7709  143.5832 LP  0  0  0  0  0  0  0  0  0  0  0  0  # atno 17320 bound_to 7965
  145.2923  139.1879  143.4733 LP  0  0  0  0  0  0  0  0  0  0  0  0  # atno 17321 bound_to 7965
  139.7873  144.7423  151.0004 LP  0  0  0  0  0  0  0  0  0  0  0  0  # atno 17342 bound_to 10162
  140.7818  143.4479  151.0456 LP  0  0  0  0  0  0  0  0  0  0  0  0  # atno 17343 bound_to 10162
  156.9249  130.5328  149.5279 LP  0  0  0  0  0  0  0  0  0  0  0  0  # atno 17370 bound_to 10713
  156.0567  130.5627  150.9106 LP  0  0  0  0  0  0  0  0  0  0  0  0  # atno 17371 bound_to 10713
  140.9301  134.2032  157.4869 LP  0  0  0  0  0  0  0  0  0  0  0  0  # atno 17394 bound_to 11000
  139.8722  134.9829  156.5176 LP  0  0  0  0  0  0  0  0  0  0  0  0  # atno 17395 bound_to 11000

$$$$
