AV-unprocessed.smi:273|AV-procd|sdf|2056|dock9
  -GOLD-   2262021293D 1   1.00000     0.00000
 Structure written by MMmdl.
 59 62  0  0  0  0  0  0  0  0  1 V2000
  151.4466  143.9511  159.2144 C   0  0  0  0  0  0  0  0  0  0  0  0
  151.6636  144.4180  157.7718 C   0  0  0  0  0  0  0  0  0  0  0  0
  151.0332  143.4967  156.8373 N   0  0  0  0  0  0  0  0  0  0  0  0
  151.1821  142.1629  156.8601 C   0  0  0  0  0  0  0  0  0  0  0  0
  151.8802  141.5928  157.6990 O   0  0  0  0  0  0  0  0  0  0  0  0
  150.4289  141.3314  155.8025 C   0  0  0  0  0  0  0  0  0  0  0  0
  148.9077  141.5908  155.8649 C   0  0  0  0  0  0  0  0  0  0  0  0
  148.1549  140.7815  154.7968 C   0  0  0  0  0  0  0  0  0  0  0  0
  148.4741  139.3582  154.8945 N   0  0  0  0  0  0  0  0  0  0  0  0
  147.6150  138.5462  154.2277 C   0  0  0  0  0  0  0  0  0  0  0  0
  146.8187  139.0550  153.2489 N   0  0  0  0  0  0  0  0  0  0  0  0
  145.9574  138.2659  152.5999 C   0  0  0  0  0  0  0  0  0  0  0  0
  145.7326  136.9613  152.7669 N   0  0  0  0  0  0  0  0  0  0  0  0
  146.5347  136.4433  153.7401 C   0  0  0  0  0  0  0  0  0  0  0  0
  147.4957  137.1562  154.5111 C   0  0  0  0  0  0  0  0  0  0  0  0
  148.1289  136.2892  155.3948 N   0  0  0  0  0  0  0  0  0  0  0  0
  147.5671  135.1334  155.1667 C   0  0  0  0  0  0  0  0  0  0  0  0
  146.5932  135.1385  154.1940 N   0  0  0  0  0  0  0  0  0  0  0  0
  145.8036  134.0063  153.7431 C   0  0  0  0  0  0  0  0  0  0  0  0
  144.9585  134.3192  152.4834 C   0  0  2  0  0  0  0  0  0  0  0  0
  143.5855  134.9466  152.8268 C   0  0  0  0  0  0  0  0  0  0  0  0
  143.0804  134.4488  154.0490 O   0  0  0  0  0  0  0  0  0  0  0  0
  144.8292  133.0800  151.5624 C   0  0  1  0  0  0  0  0  0  0  0  0
  144.1194  133.3332  150.2437 C   0  0  0  0  0  0  0  0  0  0  0  0
  144.5630  132.1434  149.3985 C   0  0  0  0  0  0  0  0  0  0  0  0
  145.8608  131.7948  149.8676 O   0  0  0  0  0  0  0  0  0  0  0  0
  146.1627  132.5253  151.0515 C   0  0  0  0  0  0  0  0  0  0  0  0
  149.9007  139.0425  154.8184 C   0  0  0  0  0  0  0  0  0  0  0  0
  150.6913  139.8085  155.8907 C   0  0  0  0  0  0  0  0  0  0  0  0
  151.9265  144.6313  159.9183 H   0  0  0  0  0  0  0  0  0  0  0  0
  151.8649  142.9569  159.3749 H   0  0  0  0  0  0  0  0  0  0  0  0
  150.3848  143.9135  159.4601 H   0  0  0  0  0  0  0  0  0  0  0  0
  151.2496  145.4191  157.6406 H   0  0  0  0  0  0  0  0  0  0  0  0
  152.7313  144.4777  157.5555 H   0  0  0  0  0  0  0  0  0  0  0  0
  150.4430  143.8980  156.1230 H   0  0  0  0  0  0  0  0  0  0  0  0
  150.7904  141.6770  154.8329 H   0  0  0  0  0  0  0  0  0  0  0  0
  148.5267  141.3247  156.8524 H   0  0  0  0  0  0  0  0  0  0  0  0
  148.6906  142.6506  155.7249 H   0  0  0  0  0  0  0  0  0  0  0  0
  147.0851  140.9584  154.9024 H   0  0  0  0  0  0  0  0  0  0  0  0
  148.4312  141.1341  153.8022 H   0  0  0  0  0  0  0  0  0  0  0  0
  145.3609  138.7497  151.8405 H   0  0  0  0  0  0  0  0  0  0  0  0
  147.8430  134.2415  155.7104 H   0  0  0  0  0  0  0  0  0  0  0  0
  146.4906  133.1819  153.5517 H   0  0  0  0  0  0  0  0  0  0  0  0
  145.1589  133.6855  154.5623 H   0  0  0  0  0  0  0  0  0  0  0  0
  145.5045  135.0774  151.9198 H   0  0  0  0  0  0  0  0  0  0  0  0
  143.6570  136.0322  152.8938 H   0  0  0  0  0  0  0  0  0  0  0  0
  142.8585  134.7459  152.0403 H   0  0  0  0  0  0  0  0  0  0  0  0
  143.2218  133.5147  154.0745 H   0  0  0  0  0  0  0  0  0  0  0  0
  144.3037  132.2829  152.0911 H   0  0  0  0  0  0  0  0  0  0  0  0
  143.0349  133.3907  150.3413 H   0  0  0  0  0  0  0  0  0  0  0  0
  144.4718  134.2623  149.7933 H   0  0  0  0  0  0  0  0  0  0  0  0
  143.8976  131.2939  149.5573 H   0  0  0  0  0  0  0  0  0  0  0  0
  144.5725  132.3721  148.3326 H   0  0  0  0  0  0  0  0  0  0  0  0
  146.8435  133.3363  150.7885 H   0  0  0  0  0  0  0  0  0  0  0  0
  146.6617  131.8909  151.7845 H   0  0  0  0  0  0  0  0  0  0  0  0
  150.0546  137.9709  154.9532 H   0  0  0  0  0  0  0  0  0  0  0  0
  150.2750  139.3002  153.8263 H   0  0  0  0  0  0  0  0  0  0  0  0
  151.7531  139.5919  155.7663 H   0  0  0  0  0  0  0  0  0  0  0  0
  150.4075  139.4367  156.8769 H   0  0  0  0  0  0  0  0  0  0  0  0
  1  2  1  0  0  0  0
  1 30  1  0  0  0  0
  1 31  1  0  0  0  0
  1 32  1  0  0  0  0
  2  3  1  0  0  0  0
  2 33  1  0  0  0  0
  2 34  1  0  0  0  0
  3  4  1  0  0  0  0
  3 35  1  0  0  0  0
  4  5  2  0  0  0  0
  4  6  1  0  0  0  0
  6 29  1  0  0  0  0
  6  7  1  0  0  0  0
  6 36  1  0  0  0  0
  7  8  1  0  0  0  0
  7 37  1  0  0  0  0
  7 38  1  0  0  0  0
  8  9  1  0  0  0  0
  8 39  1  0  0  0  0
  8 40  1  0  0  0  0
  9 10  1  0  0  0  0
  9 28  1  0  0  0  0
 10 15  1  0  0  0  0
 10 11  2  0  0  0  0
 11 12  1  0  0  0  0
 12 13  2  0  0  0  0
 12 41  1  0  0  0  0
 13 14  1  0  0  0  0
 14 18  1  0  0  0  0
 14 15  2  0  0  0  0
 15 16  1  0  0  0  0
 16 17  2  0  0  0  0
 17 18  1  0  0  0  0
 17 42  1  0  0  0  0
 18 19  1  0  0  0  0
 19 20  1  0  0  0  0
 19 43  1  0  0  0  0
 19 44  1  0  0  0  0
 20 21  1  0  0  0  0
 20 23  1  0  0  0  0
 20 45  1  0  0  0  0
 21 22  1  0  0  0  0
 21 46  1  0  0  0  0
 21 47  1  0  0  0  0
 22 48  1  0  0  0  0
 23 27  1  0  0  0  0
 23 24  1  0  0  0  0
 23 49  1  0  0  0  0
 24 25  1  0  0  0  0
 24 50  1  0  0  0  0
 24 51  1  0  0  0  0
 25 26  1  0  0  0  0
 25 52  1  0  0  0  0
 25 53  1  0  0  0  0
 26 27  1  0  0  0  0
 27 54  1  0  0  0  0
 27 55  1  0  0  0  0
 28 29  1  0  0  0  0
 28 56  1  0  0  0  0
 28 57  1  0  0  0  0
 29 58  1  0  0  0  0
 29 59  1  0  0  0  0
M  END
> <s_m_source_file>
AV-unprocessed.smi

> <i_m_source_file_index>
273

> <i_lp_mmshare_version>
43012

> <i_f3d_flags>
0

> <s_epik_input>
W0NIM11bQ0gyXVtOSF1DKD1PKVtDSF0xW0NIMl1bQ0gyXU4oW0NIMl1bQ0gyXTEpYyhuW2NIXW4yKWMoYzIzKW5bY0hdbjNbQ0gyXVtDQEhdKFtDSDJdW09IXSlbQ0BASF00W0NIMl1bQ0gyXU9bQ0gyXTQ=

> <s_epik_cmdline>
J2VwaWtfcHl0aG9uJywgJy1waCcsICc3LjAnLCAnLXRuJywgJzgnLCAnLW1hJywgJzIwMCcsICctbWV0YWxfYmluZGluZycsICctaW1hZScsICc8aW5maWxlLm1hZT4nLCAnLW9tYWUnLCAnPG91dGZpbGUubWFlPic=

> <r_lp_tautomer_probability>
1

> <r_epik_Ionization_Penalty>
0.00226556

> <r_epik_Ionization_Penalty_Charging>
0

> <r_epik_Ionization_Penalty_Neutral>
0.00226556

> <r_epik_State_Penalty>
0.00139883

> <r_epik_Charging_Adjusted_Penalty>
0.00139883

> <i_epik_Tot_Q>
0

> <i_epik_Tot_abs_Q>
0

> <r_epik_Metal_State_Penalty>
-0

> <b_epik_Metal_Only>
0

> <s_lp_Force_Field>
OPLS_2005

> <r_lp_Energy>
43.2491

> <b_lp_Chiralities_Consistent>
1

> <s_lp_Variant>
AV-unprocessed.smi:273-3

> <Gold.Version>
5.8.1

> <Gold.Id.Protein>
6NUR|6NUR_protein|mol2

> <Gold.PLP.Fitness>
48.1746

> <Gold.PLP.PLP>
-38.5515

> <Gold.PLP.part.hbond>
-2.0000

> <Gold.PLP.part.metal>
0.0000

> <Gold.PLP.part.buried>
-4.4773

> <Gold.PLP.part.nonpolar>
-33.9172

> <Gold.PLP.part.repulsive>
0.7747

> <Gold.PLP.ligand.clash>
0.0000

> <Gold.PLP.ligand.torsion>
1.1950

> <Gold.PLP.Chemscore.Hbond>
1.9840

> <Gold.PLP.Chemscore.CHOScore>
1.8154

> <Gold.PLP.Chemscore.Metal>
0.0000

> <Gold.Chemscore.Hbonds>
donor molecule, donor type, donor heavy atom, donor atom, acceptor molecule, acceptor atom, score
      L1  H     3    35       P1  8028  0.99
      L1  H    22    48       P1 10957  0.96
      L1  C    12    41       P1 10171  1.00
      L1  C    12    41       P1 10175  0.83

> <Gold.PLP.Chemscore.Internal.Correction>
0.6148

> <Gold.Rescore>
     Score         DG    S(hbond)    S(metal)    S(lipo)     H(rot)  DE(clash)    DE(int)     intcor
     11.18     -14.96       1.89        0.00      97.54       3.22       0.11       3.66       ----

> <Gold.Chemscore.Fitness>
11.1837

> <Gold.Chemscore.DG>
-14.9568

> <Gold.Chemscore.ZeroCoef>
-5.4800

> <Gold.Chemscore.Hbond>
1.8918

> <Gold.Chemscore.Metal>
0.0000

> <Gold.Chemscore.Lipo>
97.5441

> <Gold.Chemscore.Internal_Hbond>
0.0000

> <Gold.Chemscore.DEClash>
0.1116

> <Gold.Chemscore.DEInternal>
3.6615

> <Gold.Chemscore.Rot>
3.2244

> <Gold.Chemscore.Internal.Correction>
   9.000000E+99

> <Gold.Chemscore.Hbonds>
donor molecule, donor type, donor heavy atom, donor atom, acceptor molecule, acceptor atom, score
      L1  H     3    35       P1  8028  0.94
      L1  H    22    48       P1 10957  0.91

> <Gold.Chemscore.Hbond.Weighted>
-6.3187

> <Gold.Chemscore.Metal.Weighted>
-0.0000

> <Gold.Chemscore.Lipo.Weighted>
-11.4127

> <Gold.Chemscore.Internal_Hbond.Weighted>
0.0000

> <Gold.Chemscore.DEClash.Weighted>
0.1116

> <Gold.Chemscore.DEInternal.Weighted>
3.6615

> <Gold.Chemscore.Rot.Weighted>
8.2545

> <Gold.Chemscore.Internal.Correction.Weighted>
   9.000000E+99

> <Gold.Protein.RotatedTorsions>
[ 6907 6896 6895 6894 ] final -145.28 input  -60.11 | X-H torsion
[ 7974 7965 7964 7962 ] final  -14.11 input  175.53 | X-H torsion
[ 8008 7997 7996 7995 ] final   89.43 input   59.86 | X-H torsion
[ 10167 10162 10161 10158 ] final  100.20 input  -65.29 | X-H torsion
[ 10718 10713 10712 10709 ] final   -1.79 input   66.30 | X-H torsion
[ 10763 10752 10751 10750 ] final  -21.92 input  -60.55 | X-H torsion
[ 11005 11000 10999 10996 ] final  143.29 input  -57.11 | X-H torsion

> <Gold.Protein.ActiveResidues>
 VAL166  LYS551  ARG553  GLY616  TRP617  ASP618  TYR619  PRO620  LYS621  CYS622 
 ASP623  PHE694  ASN695  SER759  ASP760  ASP761  ALA762  ILE779  LEU786  VAL792 
 PHE793  MET794  SER795  GLU796  ALA797  LYS798  CYS799  TRP800  GLU811  SER814 

> <Gold.Protein.RotatedAtoms>
  151.1256  133.5073  159.2600 H   0  0  0  0  0  0  0  0  0  0  0  0  # atno 6907 bound_to 6896
  151.1813  135.0362  159.8803 H   0  0  0  0  0  0  0  0  0  0  0  0  # atno 6908 bound_to 6896
  152.5458  134.1108  159.8411 H   0  0  0  0  0  0  0  0  0  0  0  0  # atno 6909 bound_to 6896
  146.2087  140.3300  142.8398 H   0  0  0  0  0  0  0  0  0  0  0  0  # atno 7974 bound_to 7965
  155.9998  140.3361  155.6834 H   0  0  0  0  0  0  0  0  0  0  0  0  # atno 8008 bound_to 7997
  155.6306  140.0684  157.2668 H   0  0  0  0  0  0  0  0  0  0  0  0  # atno 8009 bound_to 7997
  154.4245  140.1760  156.1455 H   0  0  0  0  0  0  0  0  0  0  0  0  # atno 8010 bound_to 7997
  139.7548  144.6973  151.0378 H   0  0  0  0  0  0  0  0  0  0  0  0  # atno 10167 bound_to 10162
  156.8005  130.5391  149.5722 H   0  0  0  0  0  0  0  0  0  0  0  0  # atno 10718 bound_to 10713
  153.6438  135.6984  153.5232 H   0  0  0  0  0  0  0  0  0  0  0  0  # atno 10763 bound_to 10752
  153.2761  135.4200  155.1034 H   0  0  0  0  0  0  0  0  0  0  0  0  # atno 10764 bound_to 10752
  154.8493  135.3590  154.5982 H   0  0  0  0  0  0  0  0  0  0  0  0  # atno 10765 bound_to 10752
  140.0542  134.9239  157.1071 H   0  0  0  0  0  0  0  0  0  0  0  0  # atno 11005 bound_to 11000
  144.8859  140.7461  143.5957 LP  0  0  0  0  0  0  0  0  0  0  0  0  # atno 17320 bound_to 7965
  145.3221  139.1785  143.4582 LP  0  0  0  0  0  0  0  0  0  0  0  0  # atno 17321 bound_to 7965
  140.7801  143.4766  151.0074 LP  0  0  0  0  0  0  0  0  0  0  0  0  # atno 17342 bound_to 10162
  139.8453  143.7510  152.3179 LP  0  0  0  0  0  0  0  0  0  0  0  0  # atno 17343 bound_to 10162
  156.1104  130.6036  151.0038 LP  0  0  0  0  0  0  0  0  0  0  0  0  # atno 17370 bound_to 10713
  157.6556  131.0890  150.7954 LP  0  0  0  0  0  0  0  0  0  0  0  0  # atno 17371 bound_to 10713
  140.3870  134.2226  155.7168 LP  0  0  0  0  0  0  0  0  0  0  0  0  # atno 17394 bound_to 11000
  141.1944  133.8128  157.0757 LP  0  0  0  0  0  0  0  0  0  0  0  0  # atno 17395 bound_to 11000

$$$$
