AV-unprocessed.smi:1102|AV-procd|sdf|4767|dock4
  -GOLD-   22720 3303D 1   1.00000     0.00000
 Structure written by MMmdl.
 40 41  0  0  0  0  0  0  0  0  2 V2000
  147.1621  132.7113  152.5434 C   0  0  0  0  0  0  0  0  0  0  0  0
  146.8239  133.5140  151.3778 N   0  0  0  0  0  0  0  0  0  0  0  0
  146.4960  132.7759  150.1671 C   0  0  0  0  0  0  0  0  0  0  0  0
  145.9021  134.5291  151.6679 C   0  0  0  0  0  0  0  0  0  0  0  0
  144.5444  134.2373  151.9126 C   0  0  0  0  0  0  0  0  0  0  0  0
  143.6520  135.2901  152.2002 C   0  0  0  0  0  0  0  0  0  0  0  0
  144.1225  136.6208  152.2290 C   0  0  0  0  0  0  0  0  0  0  0  0
  143.1875  137.6461  152.5356 N   0  0  0  0  0  0  0  0  0  0  0  0
  141.9909  137.5350  153.1377 C   0  0  0  0  0  0  0  0  0  0  0  0
  141.5046  136.4879  153.5639 O   0  0  0  0  0  0  0  0  0  0  0  0
  141.3862  138.7269  153.2362 N   0  0  0  0  0  0  0  0  0  0  0  0
  140.0701  138.9530  153.8229 C   0  0  0  0  0  0  0  0  0  0  0  0
  139.5081  140.3289  153.4292 C   0  0  2  0  0  0  0  0  0  0  0  0
  140.1497  141.4971  154.1842 C   0  0  0  0  0  0  0  0  0  0  0  0
  139.0207  142.5064  154.3499 C   0  0  0  0  0  0  0  0  0  0  0  0
  137.8104  141.8202  153.7187 C   0  0  0  0  0  0  0  0  0  0  0  0
  138.1350  140.4410  153.7723 O   0  0  0  0  0  0  0  0  0  0  0  0
  145.4987  136.8534  151.9850 C   0  0  0  0  0  0  0  0  0  0  0  0
  146.3208  135.8159  151.7159 N   0  3  0  0  0  0  0  0  0  0  0  0
  147.4012  133.3463  153.3976 H   0  0  0  0  0  0  0  0  0  0  0  0
  148.0326  132.0892  152.3329 H   0  0  0  0  0  0  0  0  0  0  0  0
  146.3345  132.0575  152.8208 H   0  0  0  0  0  0  0  0  0  0  0  0
  146.2943  133.4582  149.3403 H   0  0  0  0  0  0  0  0  0  0  0  0
  145.6184  132.1458  150.3172 H   0  0  0  0  0  0  0  0  0  0  0  0
  147.3301  132.1354  149.8787 H   0  0  0  0  0  0  0  0  0  0  0  0
  144.1881  133.2178  151.8822 H   0  0  0  0  0  0  0  0  0  0  0  0
  142.6110  135.0738  152.3921 H   0  0  0  0  0  0  0  0  0  0  0  0
  143.4819  138.5846  152.3084 H   0  0  0  0  0  0  0  0  0  0  0  0
  141.8620  139.5364  152.8655 H   0  0  0  0  0  0  0  0  0  0  0  0
  139.3760  138.1577  153.5459 H   0  0  0  0  0  0  0  0  0  0  0  0
  140.1806  138.9014  154.9063 H   0  0  0  0  0  0  0  0  0  0  0  0
  139.6136  140.4884  152.3541 H   0  0  0  0  0  0  0  0  0  0  0  0
  140.5025  141.1797  155.1663 H   0  0  0  0  0  0  0  0  0  0  0  0
  141.0019  141.9084  153.6425 H   0  0  0  0  0  0  0  0  0  0  0  0
  138.8433  142.6953  155.4093 H   0  0  0  0  0  0  0  0  0  0  0  0
  139.2384  143.4613  153.8705 H   0  0  0  0  0  0  0  0  0  0  0  0
  136.8807  142.0363  154.2451 H   0  0  0  0  0  0  0  0  0  0  0  0
  137.6932  142.1228  152.6770 H   0  0  0  0  0  0  0  0  0  0  0  0
  145.9814  137.8189  152.0045 H   0  0  0  0  0  0  0  0  0  0  0  0
  147.3065  136.0137  151.5422 H   0  0  0  0  0  0  0  0  0  0  0  0
  1  2  1  0  0  0  0
  1 20  1  0  0  0  0
  1 21  1  0  0  0  0
  1 22  1  0  0  0  0
  2  3  1  0  0  0  0
  2  4  1  0  0  0  0
  3 23  1  0  0  0  0
  3 24  1  0  0  0  0
  3 25  1  0  0  0  0
  4 19  1  0  0  0  0
  4  5  2  0  0  0  0
  5  6  1  0  0  0  0
  5 26  1  0  0  0  0
  6  7  2  0  0  0  0
  6 27  1  0  0  0  0
  7  8  1  0  0  0  0
  7 18  1  0  0  0  0
  8  9  1  0  0  0  0
  8 28  1  0  0  0  0
  9 10  2  0  0  0  0
  9 11  1  0  0  0  0
 11 12  1  0  0  0  0
 11 29  1  0  0  0  0
 12 13  1  0  0  0  0
 12 30  1  0  0  0  0
 12 31  1  0  0  0  0
 13 17  1  0  0  0  0
 13 14  1  0  0  0  0
 13 32  1  0  0  0  0
 14 15  1  0  0  0  0
 14 33  1  0  0  0  0
 14 34  1  0  0  0  0
 15 16  1  0  0  0  0
 15 35  1  0  0  0  0
 15 36  1  0  0  0  0
 16 17  1  0  0  0  0
 16 37  1  0  0  0  0
 16 38  1  0  0  0  0
 18 19  2  0  0  0  0
 18 39  1  0  0  0  0
 19 40  1  0  0  0  0
M  CHG  1  19   1
M  END
> <s_m_source_file>
AV-unprocessed.smi

> <i_m_source_file_index>
1102

> <i_lp_mmshare_version>
43012

> <i_f3d_flags>
0

> <s_epik_input>
W0NIM11OKFtDSDNdKWMxW2NIXVtjSF1jKFtjSF1uMSlbTkhdQyg9TylbTkhdW0NIMl1bQ0BASF0yW0NIMl1bQ0gyXVtDSDJdTzI=

> <s_epik_cmdline>
J2VwaWtfcHl0aG9uJywgJy1waCcsICc3LjAnLCAnLXRuJywgJzgnLCAnLW1hJywgJzIwMCcsICctbWV0YWxfYmluZGluZycsICctaW1hZScsICc8aW5maWxlLm1hZT4nLCAnLW9tYWUnLCAnPG91dGZpbGUubWFlPic=

> <r_lp_tautomer_probability>
0.999994

> <r_epik_Ionization_Penalty>
0.265123

> <r_epik_Ionization_Penalty_Charging>
0.265104

> <r_epik_Ionization_Penalty_Neutral>
1.89079e-05

> <r_epik_State_Penalty>
0.257001

> <r_epik_Charging_Adjusted_Penalty>
0.522106

> <i_epik_Tot_Q>
1

> <i_epik_Tot_abs_Q>
1

> <r_epik_Metal_State_Penalty>
0.543599

> <b_epik_Metal_Only>
0

> <s_lp_Force_Field>
OPLS_2005

> <r_lp_Energy>
30.1742

> <b_lp_Chiralities_Consistent>
1

> <s_lp_Variant>
AV-unprocessed.smi:1102-1

> <Gold.Version>
5.8.1

> <Gold.Id.Protein>
6NUR|6NUR_protein|mol2

> <Gold.PLP.Fitness>
40.8123

> <Gold.PLP.PLP>
-29.5057

> <Gold.PLP.part.hbond>
-4.6014

> <Gold.PLP.part.metal>
0.0000

> <Gold.PLP.part.buried>
-1.9799

> <Gold.PLP.part.nonpolar>
-23.1441

> <Gold.PLP.part.repulsive>
0.4977

> <Gold.PLP.ligand.clash>
0.0000

> <Gold.PLP.ligand.torsion>
0.4352

> <Gold.PLP.Chemscore.Hbond>
3.9920

> <Gold.PLP.Chemscore.CHOScore>
0.0000

> <Gold.PLP.Chemscore.Metal>
0.0000

> <Gold.Chemscore.Hbonds>
donor molecule, donor type, donor heavy atom, donor atom, acceptor molecule, acceptor atom, score
      L1  H     8    28       P1 10175  1.00
      L1  H    11    29       P1 10175  0.98
      L1  H    19    40       P1  7948  2.00

> <Gold.PLP.Chemscore.Internal.Correction>
0.2011

> <Gold.Rescore>
     Score         DG    S(hbond)    S(metal)    S(lipo)     H(rot)  DE(clash)    DE(int)     intcor
     15.96     -17.65       2.89        0.00      53.09       1.45       0.01       1.68       ----

> <Gold.Chemscore.Fitness>
15.9638

> <Gold.Chemscore.DG>
-17.6494

> <Gold.Chemscore.ZeroCoef>
-5.4800

> <Gold.Chemscore.Hbond>
2.8927

> <Gold.Chemscore.Metal>
0.0000

> <Gold.Chemscore.Lipo>
53.0924

> <Gold.Chemscore.Internal_Hbond>
0.0000

> <Gold.Chemscore.DEClash>
0.0063

> <Gold.Chemscore.DEInternal>
1.6792

> <Gold.Chemscore.Rot>
1.4469

> <Gold.Chemscore.Internal.Correction>
   9.000000E+99

> <Gold.Chemscore.Hbonds>
donor molecule, donor type, donor heavy atom, donor atom, acceptor molecule, acceptor atom, score
      L1  H     8    28       P1 10175  0.99
      L1  H    11    29       P1 10175  0.50
      L1  H    19    40       P1  7948  0.99

> <Gold.Chemscore.Hbond.Weighted>
-9.6617

> <Gold.Chemscore.Metal.Weighted>
-0.0000

> <Gold.Chemscore.Lipo.Weighted>
-6.2118

> <Gold.Chemscore.Internal_Hbond.Weighted>
0.0000

> <Gold.Chemscore.DEClash.Weighted>
0.0063

> <Gold.Chemscore.DEInternal.Weighted>
1.6792

> <Gold.Chemscore.Rot.Weighted>
3.7042

> <Gold.Chemscore.Internal.Correction.Weighted>
   9.000000E+99

> <Gold.Protein.RotatedTorsions>
[ 6907 6896 6895 6894 ] final   62.17 input  -60.11 | X-H torsion
[ 7974 7965 7964 7962 ] final  101.78 input  175.53 | X-H torsion
[ 8008 7997 7996 7995 ] final -113.83 input   59.86 | X-H torsion
[ 10167 10162 10161 10158 ] final  135.59 input  -65.29 | X-H torsion
[ 10718 10713 10712 10709 ] final  -51.29 input   66.30 | X-H torsion
[ 10763 10752 10751 10750 ] final -172.71 input  -60.55 | X-H torsion
[ 11005 11000 10999 10996 ] final  125.13 input  -57.11 | X-H torsion

> <Gold.Protein.ActiveResidues>
 VAL166  LYS551  ARG553  GLY616  TRP617  ASP618  TYR619  PRO620  LYS621  CYS622 
 ASP623  PHE694  ASN695  SER759  ASP760  ASP761  ALA762  ILE779  LEU786  VAL792 
 PHE793  MET794  SER795  GLU796  ALA797  LYS798  CYS799  TRP800  GLU811  SER814 

> <Gold.Protein.RotatedAtoms>
  152.4150  134.6057  160.0012 H   0  0  0  0  0  0  0  0  0  0  0  0  # atno 6907 bound_to 6896
  151.6224  133.3332  159.3099 H   0  0  0  0  0  0  0  0  0  0  0  0  # atno 6908 bound_to 6896
  150.8039  134.7191  159.6692 H   0  0  0  0  0  0  0  0  0  0  0  0  # atno 6909 bound_to 6896
  145.3677  139.2404  143.3472 H   0  0  0  0  0  0  0  0  0  0  0  0  # atno 7974 bound_to 7965
  155.0268  140.0393  157.2459 H   0  0  0  0  0  0  0  0  0  0  0  0  # atno 8008 bound_to 7997
  154.7330  140.2734  155.6416 H   0  0  0  0  0  0  0  0  0  0  0  0  # atno 8009 bound_to 7997
  156.2846  140.2680  156.2036 H   0  0  0  0  0  0  0  0  0  0  0  0  # atno 8010 bound_to 7997
  139.5211  144.6509  151.5305 H   0  0  0  0  0  0  0  0  0  0  0  0  # atno 10167 bound_to 10162
  156.1724  130.4149  149.9628 H   0  0  0  0  0  0  0  0  0  0  0  0  # atno 10718 bound_to 10713
  154.6162  135.2870  155.0378 H   0  0  0  0  0  0  0  0  0  0  0  0  # atno 10763 bound_to 10752
  154.1589  135.6491  153.4985 H   0  0  0  0  0  0  0  0  0  0  0  0  # atno 10764 bound_to 10752
  153.0216  135.5373  154.6934 H   0  0  0  0  0  0  0  0  0  0  0  0  # atno 10765 bound_to 10752
  139.9391  134.9637  156.8512 H   0  0  0  0  0  0  0  0  0  0  0  0  # atno 11005 bound_to 11000
  146.2899  140.4323  142.8743 LP  0  0  0  0  0  0  0  0  0  0  0  0  # atno 17320 bound_to 7965
  144.8599  140.7124  143.6114 LP  0  0  0  0  0  0  0  0  0  0  0  0  # atno 17321 bound_to 7965
  140.6313  143.9070  150.6608 LP  0  0  0  0  0  0  0  0  0  0  0  0  # atno 17342 bound_to 10162
  140.2375  143.3689  152.1514 LP  0  0  0  0  0  0  0  0  0  0  0  0  # atno 17343 bound_to 10162
  156.7424  130.9084  151.3633 LP  0  0  0  0  0  0  0  0  0  0  0  0  # atno 17370 bound_to 10713
  157.6812  130.9141  150.0271 LP  0  0  0  0  0  0  0  0  0  0  0  0  # atno 17371 bound_to 10713
  140.5997  134.0183  155.7532 LP  0  0  0  0  0  0  0  0  0  0  0  0  # atno 17394 bound_to 11000
  141.1018  133.9756  157.3065 LP  0  0  0  0  0  0  0  0  0  0  0  0  # atno 17395 bound_to 11000

$$$$
