AV-unprocessed.smi:2581|AV-procd|sdf|10132|dock1
  -GOLD-   2272014143D 1   1.00000     0.00000
 Structure written by MMmdl.
 40 42  0  0  0  0  0  0  0  0  2 V2000
  150.7218  138.4074  157.6985 O   0  0  0  0  0  0  0  0  0  0  0  0
  150.6938  139.6096  157.4366 C   0  0  0  0  0  0  0  0  0  0  0  0
  151.4190  140.6086  158.2255 C   0  0  0  0  0  0  0  0  0  0  0  0
  151.4292  141.9352  157.9311 C   0  0  0  0  0  0  0  0  0  0  0  0
  152.1342  142.8654  158.6993 N   0  0  0  0  0  0  0  0  0  0  0  0
  152.1184  144.3087  158.4748 C   0  0  0  0  0  0  0  0  0  0  0  0
  151.4348  145.0198  159.6543 C   0  0  0  0  0  0  0  0  0  0  0  0
  152.1312  144.7033  160.8556 O   0  0  0  0  0  0  0  0  0  0  0  0
  152.1404  143.3034  161.1187 C   0  0  0  0  0  0  0  0  0  0  0  0
  152.8175  142.5572  159.9542 C   0  0  0  0  0  0  0  0  0  0  0  0
  150.6546  142.3206  156.7608 C   0  0  0  0  0  0  0  0  0  0  0  0
  149.9987  141.4748  156.0427 N   0  0  0  0  0  0  0  0  0  0  0  0
  149.9972  140.1319  156.3818 N   0  0  0  0  0  0  0  0  0  0  0  0
  149.2142  139.2678  155.4756 C   0  0  1  0  0  0  0  0  0  0  0  0
  147.7274  139.1674  155.8886 C   0  0  0  0  0  0  0  0  0  0  0  0
  146.9630  138.2734  154.9005 C   0  0  0  0  0  0  0  0  0  0  0  0
  147.1385  138.7779  153.4579 C   0  0  0  0  0  0  0  0  0  0  0  0
  148.5722  138.8681  153.1038 N   0  3  0  0  0  0  0  0  0  0  0  0
  149.3404  139.7470  154.0132 C   0  0  0  0  0  0  0  0  0  0  0  0
  151.9840  140.2421  159.0694 H   0  0  0  0  0  0  0  0  0  0  0  0
  153.1475  144.6582  158.3820 H   0  0  0  0  0  0  0  0  0  0  0  0
  151.6307  144.5666  157.5355 H   0  0  0  0  0  0  0  0  0  0  0  0
  151.4544  146.0994  159.5070 H   0  0  0  0  0  0  0  0  0  0  0  0
  150.3873  144.7246  159.7346 H   0  0  0  0  0  0  0  0  0  0  0  0
  152.6807  143.1212  162.0476 H   0  0  0  0  0  0  0  0  0  0  0  0
  151.1202  142.9453  161.2667 H   0  0  0  0  0  0  0  0  0  0  0  0
  152.8106  141.4895  160.1684 H   0  0  0  0  0  0  0  0  0  0  0  0
  153.8636  142.8547  159.8728 H   0  0  0  0  0  0  0  0  0  0  0  0
  150.6476  143.3829  156.5194 H   0  0  0  0  0  0  0  0  0  0  0  0
  149.5972  138.2465  155.5094 H   0  0  0  0  0  0  0  0  0  0  0  0
  147.6423  138.7653  156.8988 H   0  0  0  0  0  0  0  0  0  0  0  0
  147.2569  140.1511  155.9025 H   0  0  0  0  0  0  0  0  0  0  0  0
  147.3239  137.2471  154.9781 H   0  0  0  0  0  0  0  0  0  0  0  0
  145.9046  138.2495  155.1617 H   0  0  0  0  0  0  0  0  0  0  0  0
  146.6404  138.1055  152.7590 H   0  0  0  0  0  0  0  0  0  0  0  0
  146.6772  139.7595  153.3401 H   0  0  0  0  0  0  0  0  0  0  0  0
  148.9713  137.9410  153.1435 H   0  0  0  0  0  0  0  0  0  0  0  0
  148.9778  140.7701  153.9050 H   0  0  0  0  0  0  0  0  0  0  0  0
  150.3854  139.7447  153.7017 H   0  0  0  0  0  0  0  0  0  0  0  0
  148.6570  139.2188  152.1602 H   0  0  0  0  0  0  0  0  0  0  0  0
  1  2  2  0  0  0  0
  2 13  1  0  0  0  0
  2  3  1  0  0  0  0
  3  4  2  0  0  0  0
  3 20  1  0  0  0  0
  4  5  1  0  0  0  0
  4 11  1  0  0  0  0
  5 10  1  0  0  0  0
  5  6  1  0  0  0  0
  6  7  1  0  0  0  0
  6 21  1  0  0  0  0
  6 22  1  0  0  0  0
  7  8  1  0  0  0  0
  7 23  1  0  0  0  0
  7 24  1  0  0  0  0
  8  9  1  0  0  0  0
  9 10  1  0  0  0  0
  9 25  1  0  0  0  0
  9 26  1  0  0  0  0
 10 27  1  0  0  0  0
 10 28  1  0  0  0  0
 11 12  2  0  0  0  0
 11 29  1  0  0  0  0
 12 13  1  0  0  0  0
 13 14  1  0  0  0  0
 14 19  1  0  0  0  0
 14 15  1  0  0  0  0
 14 30  1  0  0  0  0
 15 16  1  0  0  0  0
 15 31  1  0  0  0  0
 15 32  1  0  0  0  0
 16 17  1  0  0  0  0
 16 33  1  0  0  0  0
 16 34  1  0  0  0  0
 17 18  1  0  0  0  0
 17 35  1  0  0  0  0
 17 36  1  0  0  0  0
 18 19  1  0  0  0  0
 18 37  1  0  0  0  0
 18 40  1  0  0  0  0
 19 38  1  0  0  0  0
 19 39  1  0  0  0  0
M  CHG  1  18   1
M  END
> <s_m_source_file>
AV-unprocessed.smi

> <i_m_source_file_index>
2581

> <i_lp_mmshare_version>
43012

> <i_f3d_flags>
0

> <s_epik_input>
W0NIMl0xW0NIMl1PW0NIMl1bQ0gyXU4xYyhbY0hdYzI9TylbY0hdbm4yW0NAQEhdM1tDSDJdW0NIMl1bQ0gyXVtOSF1bQ0gyXTM=

> <s_epik_cmdline>
J2VwaWtfcHl0aG9uJywgJy1waCcsICc3LjAnLCAnLXRuJywgJzgnLCAnLW1hJywgJzIwMCcsICctbWV0YWxfYmluZGluZycsICctaW1hZScsICc8aW5maWxlLm1hZT4nLCAnLW9tYWUnLCAnPG91dGZpbGUubWFlPic=

> <r_lp_tautomer_probability>
1

> <r_epik_Ionization_Penalty>
0.00140529

> <r_epik_Ionization_Penalty_Charging>
0.00140528

> <r_epik_Ionization_Penalty_Neutral>
1.0684e-08

> <r_epik_State_Penalty>
0.000937322

> <r_epik_Charging_Adjusted_Penalty>
0.00234261

> <i_epik_Tot_Q>
1

> <i_epik_Tot_abs_Q>
1

> <r_epik_Metal_State_Penalty>
-0

> <b_epik_Metal_Only>
0

> <s_lp_Force_Field>
OPLS_2005

> <r_lp_Energy>
43.4563

> <b_lp_Chiralities_Consistent>
1

> <s_lp_Variant>
AV-unprocessed.smi:2581-2

> <Gold.Version>
5.8.1

> <Gold.Id.Protein>
6NUR|6NUR_protein|mol2

> <Gold.PLP.Fitness>
42.9268

> <Gold.PLP.PLP>
-34.4829

> <Gold.PLP.part.hbond>
-1.7107

> <Gold.PLP.part.metal>
0.0000

> <Gold.PLP.part.buried>
-2.9164

> <Gold.PLP.part.nonpolar>
-30.6868

> <Gold.PLP.part.repulsive>
0.3092

> <Gold.PLP.ligand.clash>
0.0000

> <Gold.PLP.ligand.torsion>
0.6928

> <Gold.PLP.Chemscore.Hbond>
2.2605

> <Gold.PLP.Chemscore.CHOScore>
1.0000

> <Gold.PLP.Chemscore.Metal>
0.0000

> <Gold.Chemscore.Hbonds>
donor molecule, donor type, donor heavy atom, donor atom, acceptor molecule, acceptor atom, score
      L1  H    18    37       P1  7948  1.12
      L1  H    18    40       P1  7957  0.91
      L1  C    11    29       P1  8028  1.00

> <Gold.PLP.Chemscore.Internal.Correction>
0.0481

> <Gold.Rescore>
     Score         DG    S(hbond)    S(metal)    S(lipo)     H(rot)  DE(clash)    DE(int)     intcor
     16.52     -18.50       1.53        0.00      89.42       1.00       1.21       0.77       ----

> <Gold.Chemscore.Fitness>
16.5172

> <Gold.Chemscore.DG>
-18.4996

> <Gold.Chemscore.ZeroCoef>
-5.4800

> <Gold.Chemscore.Hbond>
1.5322

> <Gold.Chemscore.Metal>
0.0000

> <Gold.Chemscore.Lipo>
89.4200

> <Gold.Chemscore.Internal_Hbond>
0.0000

> <Gold.Chemscore.DEClash>
1.2101

> <Gold.Chemscore.DEInternal>
0.7724

> <Gold.Chemscore.Rot>
1.0000

> <Gold.Chemscore.Internal.Correction>
   9.000000E+99

> <Gold.Chemscore.Hbonds>
donor molecule, donor type, donor heavy atom, donor atom, acceptor molecule, acceptor atom, score
      L1  H    18    37       P1  7948  0.55
      L1  H    18    40       P1  7957  0.86

> <Gold.Chemscore.Hbond.Weighted>
-5.1175

> <Gold.Chemscore.Metal.Weighted>
-0.0000

> <Gold.Chemscore.Lipo.Weighted>
-10.4621

> <Gold.Chemscore.Internal_Hbond.Weighted>
0.0000

> <Gold.Chemscore.DEClash.Weighted>
1.2101

> <Gold.Chemscore.DEInternal.Weighted>
0.7724

> <Gold.Chemscore.Rot.Weighted>
2.5600

> <Gold.Chemscore.Internal.Correction.Weighted>
   9.000000E+99

> <Gold.Protein.RotatedTorsions>
[ 6907 6896 6895 6894 ] final  153.17 input  -60.11 | X-H torsion
[ 7974 7965 7964 7962 ] final -146.24 input  175.53 | X-H torsion
[ 8008 7997 7996 7995 ] final -177.75 input   59.86 | X-H torsion
[ 10167 10162 10161 10158 ] final -145.75 input  -65.29 | X-H torsion
[ 10718 10713 10712 10709 ] final  -12.90 input   66.30 | X-H torsion
[ 10763 10752 10751 10750 ] final -128.88 input  -60.55 | X-H torsion
[ 11005 11000 10999 10996 ] final  -70.36 input  -57.11 | X-H torsion

> <Gold.Protein.ActiveResidues>
 VAL166  LYS551  ARG553  GLY616  TRP617  ASP618  TYR619  PRO620  LYS621  CYS622 
 ASP623  PHE694  ASN695  SER759  ASP760  ASP761  ALA762  ILE779  LEU786  VAL792 
 PHE793  MET794  SER795  GLU796  ALA797  LYS798  CYS799  TRP800  GLU811  SER814 

> <Gold.Protein.RotatedAtoms>
  152.0765  133.4131  159.4481 H   0  0  0  0  0  0  0  0  0  0  0  0  # atno 6907 bound_to 6896
  150.6862  134.3032  159.4724 H   0  0  0  0  0  0  0  0  0  0  0  0  # atno 6908 bound_to 6896
  152.0869  134.9433  160.0623 H   0  0  0  0  0  0  0  0  0  0  0  0  # atno 6909 bound_to 6896
  144.8172  140.5481  143.5602 H   0  0  0  0  0  0  0  0  0  0  0  0  # atno 7974 bound_to 7965
  156.0107  140.1240  157.0457 H   0  0  0  0  0  0  0  0  0  0  0  0  # atno 8008 bound_to 7997
  154.4275  140.1088  156.5895 H   0  0  0  0  0  0  0  0  0  0  0  0  # atno 8009 bound_to 7997
  155.6084  140.3471  155.4617 H   0  0  0  0  0  0  0  0  0  0  0  0  # atno 8010 bound_to 7997
  139.7777  143.8146  152.2634 H   0  0  0  0  0  0  0  0  0  0  0  0  # atno 10167 bound_to 10162
  156.6380  130.4920  149.6105 H   0  0  0  0  0  0  0  0  0  0  0  0  # atno 10718 bound_to 10713
  154.8757  135.3914  154.3829 H   0  0  0  0  0  0  0  0  0  0  0  0  # atno 10763 bound_to 10752
  153.4574  135.7029  153.6076 H   0  0  0  0  0  0  0  0  0  0  0  0  # atno 10764 bound_to 10752
  153.4589  135.3816  155.2295 H   0  0  0  0  0  0  0  0  0  0  0  0  # atno 10765 bound_to 10752
  141.1572  133.6788  156.6741 H   0  0  0  0  0  0  0  0  0  0  0  0  # atno 11005 bound_to 11000
  145.5186  139.1477  143.3565 LP  0  0  0  0  0  0  0  0  0  0  0  0  # atno 17320 bound_to 7965
  146.2476  140.5327  142.8907 LP  0  0  0  0  0  0  0  0  0  0  0  0  # atno 17321 bound_to 7965
  139.8199  144.7300  150.9586 LP  0  0  0  0  0  0  0  0  0  0  0  0  # atno 17342 bound_to 10162
  140.7817  143.4169  151.0904 LP  0  0  0  0  0  0  0  0  0  0  0  0  # atno 17343 bound_to 10162
  156.2181  130.6720  151.1340 LP  0  0  0  0  0  0  0  0  0  0  0  0  # atno 17370 bound_to 10713
  157.7180  131.0699  150.6252 LP  0  0  0  0  0  0  0  0  0  0  0  0  # atno 17371 bound_to 10713
  140.3152  134.8053  157.4209 LP  0  0  0  0  0  0  0  0  0  0  0  0  # atno 17394 bound_to 11000
  140.1144  134.5303  155.8238 LP  0  0  0  0  0  0  0  0  0  0  0  0  # atno 17395 bound_to 11000

$$$$
