AV-unprocessed.smi:2441|AV-procd|sdf|9622|dock1
  -GOLD-   2272013253D 1   1.00000     0.00000
 Structure written by MMmdl.
 40 41  0  0  0  0  0  0  0  0  1 V2000
  149.4791  138.5277  155.0579 C   0  0  0  0  0  0  0  0  0  0  0  0
  148.8957  139.7268  154.2897 C   0  0  1  0  0  0  0  0  0  0  0  0
  147.6244  139.3080  153.5233 C   0  0  0  0  0  0  0  0  0  0  0  0
  147.0118  140.4795  152.7413 C   0  0  0  0  0  0  0  0  0  0  0  0
  146.7106  141.6634  153.6696 C   0  0  0  0  0  0  0  0  0  0  0  0
  147.9737  142.1041  154.4225 C   0  0  0  0  0  0  0  0  0  0  0  0
  148.6045  140.9393  155.2105 C   0  0  2  0  0  0  0  0  0  0  0  0
  149.8329  141.4140  155.8468 N   0  0  0  0  0  0  0  0  0  0  0  0
  150.0659  141.4745  157.1661 C   0  0  0  0  0  0  0  0  0  0  0  0
  149.2520  141.1167  158.0170 O   0  0  0  0  0  0  0  0  0  0  0  0
  151.2856  141.9884  157.4104 N   0  0  0  0  0  0  0  0  0  0  0  0
  151.9353  142.1979  158.6394 C   0  0  0  0  0  0  0  0  0  0  0  0
  151.7898  143.3072  159.4070 C   0  0  0  0  0  0  0  0  0  0  0  0
  152.4860  143.4353  160.6641 C   0  0  0  0  0  0  0  0  0  0  0  0
  153.2716  142.4251  161.0614 C   0  0  0  0  0  0  0  0  0  0  0  0
  153.4290  141.2619  160.2911 N   0  0  0  0  0  0  0  0  0  0  0  0
  154.3208  140.2434  160.8524 C   0  0  0  0  0  0  0  0  0  0  0  0
  152.7994  141.0880  159.0892 C   0  0  0  0  0  0  0  0  0  0  0  0
  152.9514  140.0603  158.4248 O   0  0  0  0  0  0  0  0  0  0  0  0
  148.7987  138.1936  155.8415 H   0  0  0  0  0  0  0  0  0  0  0  0
  150.4316  138.7735  155.5275 H   0  0  0  0  0  0  0  0  0  0  0  0
  149.6567  137.6840  154.3906 H   0  0  0  0  0  0  0  0  0  0  0  0
  149.6378  140.0338  153.5508 H   0  0  0  0  0  0  0  0  0  0  0  0
  147.8557  138.4952  152.8341 H   0  0  0  0  0  0  0  0  0  0  0  0
  146.8861  138.9153  154.2238 H   0  0  0  0  0  0  0  0  0  0  0  0
  147.6990  140.7951  151.9552 H   0  0  0  0  0  0  0  0  0  0  0  0
  146.0979  140.1561  152.2427 H   0  0  0  0  0  0  0  0  0  0  0  0
  146.3120  142.4974  153.0916 H   0  0  0  0  0  0  0  0  0  0  0  0
  145.9362  141.3831  154.3848 H   0  0  0  0  0  0  0  0  0  0  0  0
  148.6967  142.5019  153.7086 H   0  0  0  0  0  0  0  0  0  0  0  0
  147.7277  142.9227  155.1002 H   0  0  0  0  0  0  0  0  0  0  0  0
  147.8848  140.6233  155.9684 H   0  0  0  0  0  0  0  0  0  0  0  0
  150.5637  141.7315  155.2272 H   0  0  0  0  0  0  0  0  0  0  0  0
  151.8059  142.3046  156.6048 H   0  0  0  0  0  0  0  0  0  0  0  0
  151.1415  144.1187  159.1190 H   0  0  0  0  0  0  0  0  0  0  0  0
  152.3766  144.3234  161.2691 H   0  0  0  0  0  0  0  0  0  0  0  0
  153.8291  142.4385  161.9872 H   0  0  0  0  0  0  0  0  0  0  0  0
  154.3531  139.3124  160.2856 H   0  0  0  0  0  0  0  0  0  0  0  0
  154.0078  139.9891  161.8658 H   0  0  0  0  0  0  0  0  0  0  0  0
  155.3391  140.6302  160.9041 H   0  0  0  0  0  0  0  0  0  0  0  0
  1  2  1  0  0  0  0
  1 20  1  0  0  0  0
  1 21  1  0  0  0  0
  1 22  1  0  0  0  0
  2  7  1  0  0  0  0
  2  3  1  0  0  0  0
  2 23  1  0  0  0  0
  3  4  1  0  0  0  0
  3 24  1  0  0  0  0
  3 25  1  0  0  0  0
  4  5  1  0  0  0  0
  4 26  1  0  0  0  0
  4 27  1  0  0  0  0
  5  6  1  0  0  0  0
  5 28  1  0  0  0  0
  5 29  1  0  0  0  0
  6  7  1  0  0  0  0
  6 30  1  0  0  0  0
  6 31  1  0  0  0  0
  7  8  1  0  0  0  0
  7 32  1  0  0  0  0
  8  9  1  0  0  0  0
  8 33  1  0  0  0  0
  9 10  2  0  0  0  0
  9 11  1  0  0  0  0
 11 12  1  0  0  0  0
 11 34  1  0  0  0  0
 12 18  1  0  0  0  0
 12 13  2  0  0  0  0
 13 14  1  0  0  0  0
 13 35  1  0  0  0  0
 14 15  2  0  0  0  0
 14 36  1  0  0  0  0
 15 16  1  0  0  0  0
 15 37  1  0  0  0  0
 16 17  1  0  0  0  0
 16 18  1  0  0  0  0
 17 38  1  0  0  0  0
 17 39  1  0  0  0  0
 17 40  1  0  0  0  0
 18 19  2  0  0  0  0
M  END
> <s_m_source_file>
AV-unprocessed.smi

> <i_m_source_file_index>
2441

> <i_lp_mmshare_version>
43012

> <i_f3d_flags>
0

> <s_epik_input>
W0NIM11bQ0BASF0xW0NIMl1bQ0gyXVtDSDJdW0NIMl1bQ0BIXTFbTkhdQyg9TylbTkhdYzJbY0hdW2NIXVtjSF1uKFtDSDNdKWMyPU8=

> <s_epik_cmdline>
J2VwaWtfcHl0aG9uJywgJy1waCcsICc3LjAnLCAnLXRuJywgJzgnLCAnLW1hJywgJzIwMCcsICctbWV0YWxfYmluZGluZycsICctaW1hZScsICc8aW5maWxlLm1hZT4nLCAnLW9tYWUnLCAnPG91dGZpbGUubWFlPic=

> <r_lp_tautomer_probability>
1

> <r_epik_Ionization_Penalty>
2.64999e-05

> <r_epik_Ionization_Penalty_Charging>
5.09663e-06

> <r_epik_Ionization_Penalty_Neutral>
2.14032e-05

> <r_epik_State_Penalty>
-0

> <r_epik_Charging_Adjusted_Penalty>
5.09663e-06

> <i_epik_Tot_Q>
0

> <i_epik_Tot_abs_Q>
0

> <r_epik_Metal_State_Penalty>
-0

> <b_epik_Metal_Only>
0

> <s_lp_Force_Field>
OPLS_2005

> <r_lp_Energy>
23.8871

> <b_lp_Chiralities_Consistent>
1

> <s_lp_Variant>
AV-unprocessed.smi:2441-4

> <Gold.Version>
5.8.1

> <Gold.Id.Protein>
6NUR|6NUR_protein|mol2

> <Gold.PLP.Fitness>
38.6429

> <Gold.PLP.PLP>
-37.1655

> <Gold.PLP.part.hbond>
-1.0000

> <Gold.PLP.part.metal>
0.0000

> <Gold.PLP.part.buried>
-0.2829

> <Gold.PLP.part.nonpolar>
-35.3633

> <Gold.PLP.part.repulsive>
0.1844

> <Gold.PLP.ligand.clash>
0.0000

> <Gold.PLP.ligand.torsion>
0.7514

> <Gold.PLP.Chemscore.Hbond>
0.9920

> <Gold.PLP.Chemscore.CHOScore>
0.0000

> <Gold.PLP.Chemscore.Metal>
0.0000

> <Gold.Chemscore.Hbonds>
donor molecule, donor type, donor heavy atom, donor atom, acceptor molecule, acceptor atom, score
      P1  H  7997  8009       L1    19  0.70

> <Gold.PLP.Chemscore.Internal.Correction>
0.0041

> <Gold.Rescore>
     Score         DG    S(hbond)    S(metal)    S(lipo)     H(rot)  DE(clash)    DE(int)     intcor
     16.26     -17.10       0.95        0.00      94.16       1.00       0.09       0.75       ----

> <Gold.Chemscore.Fitness>
16.2582

> <Gold.Chemscore.DG>
-17.1013

> <Gold.Chemscore.ZeroCoef>
-5.4800

> <Gold.Chemscore.Hbond>
0.9474

> <Gold.Chemscore.Metal>
0.0000

> <Gold.Chemscore.Lipo>
94.1630

> <Gold.Chemscore.Internal_Hbond>
0.0000

> <Gold.Chemscore.DEClash>
0.0907

> <Gold.Chemscore.DEInternal>
0.7524

> <Gold.Chemscore.Rot>
1.0000

> <Gold.Chemscore.Internal.Correction>
   9.000000E+99

> <Gold.Chemscore.Hbonds>
donor molecule, donor type, donor heavy atom, donor atom, acceptor molecule, acceptor atom, score
      P1  H  7997  8009       L1    19  0.61

> <Gold.Chemscore.Hbond.Weighted>
-3.1643

> <Gold.Chemscore.Metal.Weighted>
-0.0000

> <Gold.Chemscore.Lipo.Weighted>
-11.0171

> <Gold.Chemscore.Internal_Hbond.Weighted>
0.0000

> <Gold.Chemscore.DEClash.Weighted>
0.0907

> <Gold.Chemscore.DEInternal.Weighted>
0.7524

> <Gold.Chemscore.Rot.Weighted>
2.5600

> <Gold.Chemscore.Internal.Correction.Weighted>
   9.000000E+99

> <Gold.Protein.RotatedTorsions>
[ 6907 6896 6895 6894 ] final   70.62 input  -60.11 | X-H torsion
[ 7974 7965 7964 7962 ] final   11.74 input  175.53 | X-H torsion
[ 8008 7997 7996 7995 ] final  152.31 input   59.86 | X-H torsion
[ 10167 10162 10161 10158 ] final  114.87 input  -65.29 | X-H torsion
[ 10718 10713 10712 10709 ] final  -51.37 input   66.30 | X-H torsion
[ 10763 10752 10751 10750 ] final  -79.69 input  -60.55 | X-H torsion
[ 11005 11000 10999 10996 ] final  -37.59 input  -57.11 | X-H torsion

> <Gold.Protein.ActiveResidues>
 VAL166  LYS551  ARG553  GLY616  TRP617  ASP618  TYR619  PRO620  LYS621  CYS622 
 ASP623  PHE694  ASN695  SER759  ASP760  ASP761  ALA762  ILE779  LEU786  VAL792 
 PHE793  MET794  SER795  GLU796  ALA797  LYS798  CYS799  TRP800  GLU811  SER814 

> <Gold.Protein.RotatedAtoms>
  152.4761  134.4841  159.9674 H   0  0  0  0  0  0  0  0  0  0  0  0  # atno 6907 bound_to 6896
  151.4857  133.3530  159.2853 H   0  0  0  0  0  0  0  0  0  0  0  0  # atno 6908 bound_to 6896
  150.8800  134.8216  159.7279 H   0  0  0  0  0  0  0  0  0  0  0  0  # atno 6909 bound_to 6896
  146.2365  139.9440  142.8479 H   0  0  0  0  0  0  0  0  0  0  0  0  # atno 7974 bound_to 7965
  156.2635  140.2024  156.6314 H   0  0  0  0  0  0  0  0  0  0  0  0  # atno 8008 bound_to 7997
  154.6680  140.0553  157.0159 H   0  0  0  0  0  0  0  0  0  0  0  0  # atno 8009 bound_to 7997
  155.1178  140.3222  155.4508 H   0  0  0  0  0  0  0  0  0  0  0  0  # atno 8010 bound_to 7997
  139.6357  144.7119  151.2339 H   0  0  0  0  0  0  0  0  0  0  0  0  # atno 10167 bound_to 10162
  156.1716  130.4149  149.9639 H   0  0  0  0  0  0  0  0  0  0  0  0  # atno 10718 bound_to 10713
  154.5418  135.5687  153.6846 H   0  0  0  0  0  0  0  0  0  0  0  0  # atno 10763 bound_to 10752
  152.9965  135.6229  154.2491 H   0  0  0  0  0  0  0  0  0  0  0  0  # atno 10764 bound_to 10752
  154.2423  135.2862  155.2829 H   0  0  0  0  0  0  0  0  0  0  0  0  # atno 10765 bound_to 10752
  140.9964  133.6978  156.1942 H   0  0  0  0  0  0  0  0  0  0  0  0  # atno 11005 bound_to 11000
  145.1925  140.9818  143.4202 LP  0  0  0  0  0  0  0  0  0  0  0  0  # atno 17320 bound_to 7965
  144.9844  139.3751  143.6246 LP  0  0  0  0  0  0  0  0  0  0  0  0  # atno 17321 bound_to 7965
  140.7464  143.6400  150.8344 LP  0  0  0  0  0  0  0  0  0  0  0  0  # atno 17342 bound_to 10162
  140.0031  143.5723  152.2868 LP  0  0  0  0  0  0  0  0  0  0  0  0  # atno 17343 bound_to 10162
  156.7437  130.9089  151.3633 LP  0  0  0  0  0  0  0  0  0  0  0  0  # atno 17370 bound_to 10713
  157.6807  130.9137  150.0259 LP  0  0  0  0  0  0  0  0  0  0  0  0  # atno 17371 bound_to 10713
  140.6959  134.4616  157.5587 LP  0  0  0  0  0  0  0  0  0  0  0  0  # atno 17394 bound_to 11000
  139.9017  134.8542  156.1870 LP  0  0  0  0  0  0  0  0  0  0  0  0  # atno 17395 bound_to 11000

$$$$
