AV-unprocessed.smi:2078|AV-procd|sdf|8465|dock3
  -GOLD-   2272011163D 1   1.00000     0.00000
 Structure written by MMmdl.
 42 43  0  0  0  0  0  0  0  0  2 V2000
  151.7102  140.4355  158.3701 C   0  0  0  0  0  0  0  0  0  0  0  0
  151.3845  140.1463  156.9450 C   0  0  0  0  0  0  0  0  0  0  0  0
  150.2062  140.0572  156.2583 C   0  0  0  0  0  0  0  0  0  0  0  0
  150.6294  139.7596  154.9356 C   0  0  0  0  0  0  0  0  0  0  0  0
  149.6877  139.5932  153.8880 N   0  0  0  0  0  0  0  0  0  0  0  0
  148.3955  139.2419  154.0016 C   0  0  0  0  0  0  0  0  0  0  0  0
  147.8038  139.0437  155.0633 O   0  0  0  0  0  0  0  0  0  0  0  0
  147.8096  139.1247  152.8011 N   0  0  0  0  0  0  0  0  0  0  0  0
  146.4142  138.7541  152.5949 C   0  0  0  0  0  0  0  0  0  0  0  0
  146.2556  137.7716  151.4176 C   0  0  0  0  0  0  0  0  0  0  0  0
  146.0787  136.3703  151.8734 N   0  3  1  0  0  0  0  0  0  0  0  0
  145.3425  136.2853  153.1610 C   0  0  0  0  0  0  0  0  0  0  0  0
  145.3091  134.8411  153.6859 C   0  0  0  0  0  0  0  0  0  0  0  0
  144.7099  133.8873  152.6423 C   0  0  0  0  0  0  0  0  0  0  0  0
  145.4277  134.0188  151.2862 C   0  0  2  0  0  0  0  0  0  0  0  0
  146.8245  133.3731  151.2835 C   0  0  0  0  0  0  0  0  0  0  0  0
  145.4670  135.4939  150.8371 C   0  0  0  0  0  0  0  0  0  0  0  0
  151.9461  139.6720  154.8257 N   0  0  0  0  0  0  0  0  0  0  0  0
  152.4368  139.9189  156.1131 O   0  0  0  0  0  0  0  0  0  0  0  0
  150.8032  140.5970  158.9528 H   0  0  0  0  0  0  0  0  0  0  0  0
  152.3273  141.3305  158.4506 H   0  0  0  0  0  0  0  0  0  0  0  0
  152.2570  139.6056  158.8180 H   0  0  0  0  0  0  0  0  0  0  0  0
  149.2057  140.1877  156.6428 H   0  0  0  0  0  0  0  0  0  0  0  0
  150.0420  139.7370  152.9538 H   0  0  0  0  0  0  0  0  0  0  0  0
  148.3633  139.3099  151.9770 H   0  0  0  0  0  0  0  0  0  0  0  0
  146.0180  138.3395  153.5222 H   0  0  0  0  0  0  0  0  0  0  0  0
  145.8472  139.6640  152.3966 H   0  0  0  0  0  0  0  0  0  0  0  0
  145.3818  138.0791  150.8413 H   0  0  0  0  0  0  0  0  0  0  0  0
  147.1055  137.8255  150.7355 H   0  0  0  0  0  0  0  0  0  0  0  0
  145.8220  136.9220  153.9056 H   0  0  0  0  0  0  0  0  0  0  0  0
  144.3275  136.6629  153.0270 H   0  0  0  0  0  0  0  0  0  0  0  0
  146.3181  134.5215  153.9476 H   0  0  0  0  0  0  0  0  0  0  0  0
  144.7261  134.7952  154.6062 H   0  0  0  0  0  0  0  0  0  0  0  0
  144.7510  132.8578  153.0000 H   0  0  0  0  0  0  0  0  0  0  0  0
  143.6527  134.1225  152.5119 H   0  0  0  0  0  0  0  0  0  0  0  0
  144.8360  133.4700  150.5522 H   0  0  0  0  0  0  0  0  0  0  0  0
  147.5042  133.8683  151.9769 H   0  0  0  0  0  0  0  0  0  0  0  0
  147.2747  133.4217  150.2915 H   0  0  0  0  0  0  0  0  0  0  0  0
  146.7703  132.3213  151.5659 H   0  0  0  0  0  0  0  0  0  0  0  0
  144.4534  135.8421  150.6317 H   0  0  0  0  0  0  0  0  0  0  0  0
  146.0119  135.5689  149.8967 H   0  0  0  0  0  0  0  0  0  0  0  0
  147.0046  136.0103  152.0557 H   0  0  0  0  0  0  0  0  0  0  0  0
  1  2  1  0  0  0  0
  1 20  1  0  0  0  0
  1 21  1  0  0  0  0
  1 22  1  0  0  0  0
  2 19  1  0  0  0  0
  2  3  2  0  0  0  0
  3  4  1  0  0  0  0
  3 23  1  0  0  0  0
  4  5  1  0  0  0  0
  4 18  2  0  0  0  0
  5  6  1  0  0  0  0
  5 24  1  0  0  0  0
  6  7  2  0  0  0  0
  6  8  1  0  0  0  0
  8  9  1  0  0  0  0
  8 25  1  0  0  0  0
  9 10  1  0  0  0  0
  9 26  1  0  0  0  0
  9 27  1  0  0  0  0
 10 11  1  0  0  0  0
 10 28  1  0  0  0  0
 10 29  1  0  0  0  0
 11 17  1  0  0  0  0
 11 12  1  0  0  0  0
 11 42  1  0  0  0  0
 12 13  1  0  0  0  0
 12 30  1  0  0  0  0
 12 31  1  0  0  0  0
 13 14  1  0  0  0  0
 13 32  1  0  0  0  0
 13 33  1  0  0  0  0
 14 15  1  0  0  0  0
 14 34  1  0  0  0  0
 14 35  1  0  0  0  0
 15 16  1  0  0  0  0
 15 17  1  0  0  0  0
 15 36  1  0  0  0  0
 16 37  1  0  0  0  0
 16 38  1  0  0  0  0
 16 39  1  0  0  0  0
 17 40  1  0  0  0  0
 17 41  1  0  0  0  0
 18 19  1  0  0  0  0
M  CHG  1  11   1
M  END
> <s_m_source_file>
AV-unprocessed.smi

> <i_m_source_file_index>
2078

> <i_lp_mmshare_version>
43012

> <i_f3d_flags>
0

> <s_epik_input>
W0NIM11jMVtjSF1jKG5vMSlbTkhdQyg9TylbTkhdW0NIMl1bQ0gyXU4yW0NIMl1bQ0gyXVtDSDJdW0NAQEhdKFtDSDNdKVtDSDJdMg==

> <s_epik_cmdline>
J2VwaWtfcHl0aG9uJywgJy1waCcsICc3LjAnLCAnLXRuJywgJzgnLCAnLW1hJywgJzIwMCcsICctbWV0YWxfYmluZGluZycsICctaW1hZScsICc8aW5maWxlLm1hZT4nLCAnLW9tYWUnLCAnPG91dGZpbGUubWFlPic=

> <r_epik_Ionization_Penalty>
0.00216453

> <r_epik_Ionization_Penalty_Charging>
0.00212879

> <r_epik_Ionization_Penalty_Neutral>
3.57418e-05

> <r_epik_State_Penalty>
0.00146033

> <r_epik_Charging_Adjusted_Penalty>
0.00358912

> <i_epik_Tot_Q>
1

> <i_epik_Tot_abs_Q>
1

> <r_epik_Metal_State_Penalty>
0.0215827

> <b_epik_Metal_Only>
0

> <s_lp_Force_Field>
OPLS_2005

> <r_lp_Energy>
15.3695

> <b_lp_Chiralities_Consistent>
1

> <s_lp_Variant>
AV-unprocessed.smi:2078-3

> <Gold.Version>
5.8.1

> <Gold.Id.Protein>
6NUR|6NUR_protein|mol2

> <Gold.PLP.Fitness>
43.6648

> <Gold.PLP.PLP>
-29.9035

> <Gold.PLP.part.hbond>
-5.3701

> <Gold.PLP.part.metal>
0.0000

> <Gold.PLP.part.buried>
-2.1835

> <Gold.PLP.part.nonpolar>
-22.9428

> <Gold.PLP.part.repulsive>
0.3358

> <Gold.PLP.ligand.clash>
0.0000

> <Gold.PLP.ligand.torsion>
0.7966

> <Gold.PLP.Chemscore.Hbond>
5.1128

> <Gold.PLP.Chemscore.CHOScore>
0.0000

> <Gold.PLP.Chemscore.Metal>
0.0000

> <Gold.Chemscore.Hbonds>
donor molecule, donor type, donor heavy atom, donor atom, acceptor molecule, acceptor atom, score
      L1  H     5    24       P1  7957  0.94
      L1  H     8    25       P1  7957  1.00
      L1  H    11    42       P1  7948  1.92
      P1  H  7989  7998       L1    18  0.09
      P1  H  7997  8010       L1    19  1.00

> <Gold.PLP.Chemscore.Internal.Correction>
0.0162

> <Gold.Rescore>
     Score         DG    S(hbond)    S(metal)    S(lipo)     H(rot)  DE(clash)    DE(int)     intcor
     18.84     -21.32       3.92        0.00      57.86       1.57       0.51       1.98       ----

> <Gold.Chemscore.Fitness>
18.8375

> <Gold.Chemscore.DG>
-21.3240

> <Gold.Chemscore.ZeroCoef>
-5.4800

> <Gold.Chemscore.Hbond>
3.9202

> <Gold.Chemscore.Metal>
0.0000

> <Gold.Chemscore.Lipo>
57.8561

> <Gold.Chemscore.Internal_Hbond>
0.0000

> <Gold.Chemscore.DEClash>
0.5114

> <Gold.Chemscore.DEInternal>
1.9751

> <Gold.Chemscore.Rot>
1.5697

> <Gold.Chemscore.Internal.Correction>
   9.000000E+99

> <Gold.Chemscore.Hbonds>
donor molecule, donor type, donor heavy atom, donor atom, acceptor molecule, acceptor atom, score
      L1  H     5    24       P1  7957  0.91
      L1  H     8    25       P1  7957  0.98
      L1  H    11    42       P1  7948  0.91
      P1  H  7997  8010       L1    19  0.96

> <Gold.Chemscore.Hbond.Weighted>
-13.0933

> <Gold.Chemscore.Metal.Weighted>
-0.0000

> <Gold.Chemscore.Lipo.Weighted>
-6.7692

> <Gold.Chemscore.Internal_Hbond.Weighted>
0.0000

> <Gold.Chemscore.DEClash.Weighted>
0.5114

> <Gold.Chemscore.DEInternal.Weighted>
1.9751

> <Gold.Chemscore.Rot.Weighted>
4.0185

> <Gold.Chemscore.Internal.Correction.Weighted>
   9.000000E+99

> <Gold.Protein.RotatedTorsions>
[ 6907 6896 6895 6894 ] final  167.45 input  -60.11 | X-H torsion
[ 7974 7965 7964 7962 ] final  167.68 input  175.53 | X-H torsion
[ 8008 7997 7996 7995 ] final   75.95 input   59.86 | X-H torsion
[ 10167 10162 10161 10158 ] final   69.22 input  -65.29 | X-H torsion
[ 10718 10713 10712 10709 ] final  145.89 input   66.30 | X-H torsion
[ 10763 10752 10751 10750 ] final -110.73 input  -60.55 | X-H torsion
[ 11005 11000 10999 10996 ] final   82.17 input  -57.11 | X-H torsion

> <Gold.Protein.ActiveResidues>
 VAL166  LYS551  ARG553  GLY616  TRP617  ASP618  TYR619  PRO620  LYS621  CYS622 
 ASP623  PHE694  ASN695  SER759  ASP760  ASP761  ALA762  ILE779  LEU786  VAL792 
 PHE793  MET794  SER795  GLU796  ALA797  LYS798  CYS799  TRP800  GLU811  SER814 

> <Gold.Protein.RotatedAtoms>
  151.8631  133.3461  159.3709 H   0  0  0  0  0  0  0  0  0  0  0  0  # atno 6907 bound_to 6896
  150.7173  134.5187  159.5652 H   0  0  0  0  0  0  0  0  0  0  0  0  # atno 6908 bound_to 6896
  152.2704  134.7939  160.0466 H   0  0  0  0  0  0  0  0  0  0  0  0  # atno 6909 bound_to 6896
  144.7416  139.8796  143.6395 H   0  0  0  0  0  0  0  0  0  0  0  0  # atno 7974 bound_to 7965
  155.8202  140.3470  155.5510 H   0  0  0  0  0  0  0  0  0  0  0  0  # atno 8008 bound_to 7997
  155.8349  140.0933  157.1790 H   0  0  0  0  0  0  0  0  0  0  0  0  # atno 8009 bound_to 7997
  154.4004  140.1405  156.3646 H   0  0  0  0  0  0  0  0  0  0  0  0  # atno 8010 bound_to 7997
  140.0702  144.5159  150.7233 H   0  0  0  0  0  0  0  0  0  0  0  0  # atno 10167 bound_to 10162
  157.3399  131.0934  151.1091 H   0  0  0  0  0  0  0  0  0  0  0  0  # atno 10718 bound_to 10713
  154.8264  135.4553  154.0931 H   0  0  0  0  0  0  0  0  0  0  0  0  # atno 10763 bound_to 10752
  153.2242  135.6897  153.7971 H   0  0  0  0  0  0  0  0  0  0  0  0  # atno 10764 bound_to 10752
  153.7377  135.3317  155.3275 H   0  0  0  0  0  0  0  0  0  0  0  0  # atno 10765 bound_to 10752
  139.9073  134.8051  156.2139 H   0  0  0  0  0  0  0  0  0  0  0  0  # atno 11005 bound_to 11000
  146.1221  139.4241  143.0222 LP  0  0  0  0  0  0  0  0  0  0  0  0  # atno 17320 bound_to 7965
  145.7289  141.0049  143.1362 LP  0  0  0  0  0  0  0  0  0  0  0  0  # atno 17321 bound_to 7965
  140.7129  143.2520  151.4524 LP  0  0  0  0  0  0  0  0  0  0  0  0  # atno 17342 bound_to 10162
  139.5841  144.1644  152.2006 LP  0  0  0  0  0  0  0  0  0  0  0  0  # atno 17343 bound_to 10162
  157.2307  130.6524  149.5849 LP  0  0  0  0  0  0  0  0  0  0  0  0  # atno 17370 bound_to 10713
  155.9706  130.4599  150.6055 LP  0  0  0  0  0  0  0  0  0  0  0  0  # atno 17371 bound_to 10713
  141.0448  133.6919  156.1664 LP  0  0  0  0  0  0  0  0  0  0  0  0  # atno 17394 bound_to 11000
  140.6900  134.4676  157.5588 LP  0  0  0  0  0  0  0  0  0  0  0  0  # atno 17395 bound_to 11000

$$$$
