AV-unprocessed.smi:2345|AV-procd|sdf|9363|dock2
  -GOLD-   2272012583D 1   1.00000     0.00000
 Structure written by MMmdl.
 37 38  0  0  0  0  0  0  0  0  1 V2000
  146.8312  145.6421  160.8804 C   0  0  0  0  0  0  0  0  0  0  0  0
  148.2262  145.0212  160.9904 C   0  0  0  0  0  0  0  0  0  0  0  0
  148.6085  143.9919  159.5468 S   0  0  0  0  0  0  0  0  0  0  0  0
  150.4312  144.0355  159.5759 C   0  0  2  0  0  0  0  0  0  0  0  0
  151.0157  145.4246  159.3213 C   0  0  0  0  0  0  0  0  0  0  0  0
  152.4804  145.1461  158.9897 C   0  0  0  0  0  0  0  0  0  0  0  0
  152.4888  143.7957  158.2611 C   0  0  0  0  0  0  0  0  0  0  0  0
  151.1230  143.1286  158.5363 C   0  0  2  0  0  0  0  0  0  0  0  0
  150.3427  143.0125  157.3039 N   0  0  0  0  0  0  0  0  0  0  0  0
  149.9624  141.8603  156.7353 C   0  0  0  0  0  0  0  0  0  0  0  0
  150.2643  140.7506  157.1745 O   0  0  0  0  0  0  0  0  0  0  0  0
  149.2389  142.0793  155.6253 N   0  0  0  0  0  0  0  0  0  0  0  0
  148.6920  141.1008  154.7562 C   0  0  0  0  0  0  0  0  0  0  0  0
  149.4085  139.9007  154.5699 C   0  0  0  0  0  0  0  0  0  0  0  0
  148.8863  138.9303  153.6918 C   0  0  0  0  0  0  0  0  0  0  0  0
  147.7372  139.0943  153.0028 N   0  0  0  0  0  0  0  0  0  0  0  0
  147.0668  140.2554  153.1634 C   0  0  0  0  0  0  0  0  0  0  0  0
  147.5003  141.2921  154.0145 C   0  0  0  0  0  0  0  0  0  0  0  0
  146.7944  142.4465  154.0808 F   0  0  0  0  0  0  0  0  0  0  0  0
  146.6108  146.2588  161.7519 H   0  0  0  0  0  0  0  0  0  0  0  0
  146.0623  144.8720  160.8139 H   0  0  0  0  0  0  0  0  0  0  0  0
  146.7512  146.2747  159.9959 H   0  0  0  0  0  0  0  0  0  0  0  0
  148.9755  145.8077  161.0788 H   0  0  0  0  0  0  0  0  0  0  0  0
  148.2917  144.4092  161.8902 H   0  0  0  0  0  0  0  0  0  0  0  0
  150.7505  143.7083  160.5667 H   0  0  0  0  0  0  0  0  0  0  0  0
  150.5233  145.8878  158.4651 H   0  0  0  0  0  0  0  0  0  0  0  0
  150.9070  146.0938  160.1749 H   0  0  0  0  0  0  0  0  0  0  0  0
  152.9297  145.9429  158.3963 H   0  0  0  0  0  0  0  0  0  0  0  0
  153.0521  145.0639  159.9150 H   0  0  0  0  0  0  0  0  0  0  0  0
  152.6544  143.9465  157.1933 H   0  0  0  0  0  0  0  0  0  0  0  0
  153.3086  143.1735  158.6212 H   0  0  0  0  0  0  0  0  0  0  0  0
  151.2589  142.1322  158.9611 H   0  0  0  0  0  0  0  0  0  0  0  0
  150.0505  143.8771  156.8722 H   0  0  0  0  0  0  0  0  0  0  0  0
  149.1719  143.0363  155.3120 H   0  0  0  0  0  0  0  0  0  0  0  0
  150.3347  139.7187  155.0955 H   0  0  0  0  0  0  0  0  0  0  0  0
  149.4082  137.9977  153.5366 H   0  0  0  0  0  0  0  0  0  0  0  0
  146.1618  140.3675  152.5849 H   0  0  0  0  0  0  0  0  0  0  0  0
  1  2  1  0  0  0  0
  1 20  1  0  0  0  0
  1 21  1  0  0  0  0
  1 22  1  0  0  0  0
  2  3  1  0  0  0  0
  2 23  1  0  0  0  0
  2 24  1  0  0  0  0
  3  4  1  0  0  0  0
  4  8  1  0  0  0  0
  4  5  1  0  0  0  0
  4 25  1  0  0  0  0
  5  6  1  0  0  0  0
  5 26  1  0  0  0  0
  5 27  1  0  0  0  0
  6  7  1  0  0  0  0
  6 28  1  0  0  0  0
  6 29  1  0  0  0  0
  7  8  1  0  0  0  0
  7 30  1  0  0  0  0
  7 31  1  0  0  0  0
  8  9  1  0  0  0  0
  8 32  1  0  0  0  0
  9 10  1  0  0  0  0
  9 33  1  0  0  0  0
 10 11  2  0  0  0  0
 10 12  1  0  0  0  0
 12 13  1  0  0  0  0
 12 34  1  0  0  0  0
 13 18  1  0  0  0  0
 13 14  2  0  0  0  0
 14 15  1  0  0  0  0
 14 35  1  0  0  0  0
 15 16  2  0  0  0  0
 15 36  1  0  0  0  0
 16 17  1  0  0  0  0
 17 18  2  0  0  0  0
 17 37  1  0  0  0  0
 18 19  1  0  0  0  0
M  END
> <s_m_source_file>
AV-unprocessed.smi

> <i_m_source_file_index>
2345

> <i_lp_mmshare_version>
43012

> <i_f3d_flags>
0

> <s_epik_input>
W0NIM11bQ0gyXVNbQ0BASF0xW0NIMl1bQ0gyXVtDSDJdW0NASF0xW05IXUMoPU8pW05IXWMyW2NIXVtjSF1uW2NIXWMyRg==

> <s_epik_cmdline>
J2VwaWtfcHl0aG9uJywgJy1waCcsICc3LjAnLCAnLXRuJywgJzgnLCAnLW1hJywgJzIwMCcsICctbWV0YWxfYmluZGluZycsICctaW1hZScsICc8aW5maWxlLm1hZT4nLCAnLW9tYWUnLCAnPG91dGZpbGUubWFlPic=

> <r_epik_Ionization_Penalty>
0.00333745

> <r_epik_Ionization_Penalty_Charging>
0

> <r_epik_Ionization_Penalty_Neutral>
0.00333745

> <r_epik_State_Penalty>
0.00233401

> <r_epik_Charging_Adjusted_Penalty>
0.00233401

> <i_epik_Tot_Q>
0

> <i_epik_Tot_abs_Q>
0

> <r_epik_Metal_State_Penalty>
-0

> <b_epik_Metal_Only>
0

> <s_lp_Force_Field>
OPLS_2005

> <r_lp_Energy>
24.389

> <b_lp_Chiralities_Consistent>
1

> <s_lp_Variant>
AV-unprocessed.smi:2345-3

> <Gold.Version>
5.8.1

> <Gold.Id.Protein>
6NUR|6NUR_protein|mol2

> <Gold.PLP.Fitness>
50.8195

> <Gold.PLP.PLP>
-39.5101

> <Gold.PLP.part.hbond>
-2.0000

> <Gold.PLP.part.metal>
0.0000

> <Gold.PLP.part.buried>
-4.8747

> <Gold.PLP.part.nonpolar>
-34.7046

> <Gold.PLP.part.repulsive>
1.4005

> <Gold.PLP.ligand.clash>
0.0000

> <Gold.PLP.ligand.torsion>
0.3805

> <Gold.PLP.Chemscore.Hbond>
1.9680

> <Gold.PLP.Chemscore.CHOScore>
1.9991

> <Gold.PLP.Chemscore.Metal>
0.0000

> <Gold.Chemscore.Hbonds>
donor molecule, donor type, donor heavy atom, donor atom, acceptor molecule, acceptor atom, score
      L1  H     9    33       P1  8028  0.96
      L1  H    12    34       P1  8028  1.00
      L1  C    15    36       P1  7948  0.98
      L1  C    17    37       P1 10175  1.00

> <Gold.PLP.Chemscore.Internal.Correction>
0.1692

> <Gold.Rescore>
     Score         DG    S(hbond)    S(metal)    S(lipo)     H(rot)  DE(clash)    DE(int)     intcor
     18.24     -20.18       1.91        0.00     100.68       1.35       0.15       1.78       ----

> <Gold.Chemscore.Fitness>
18.2412

> <Gold.Chemscore.DG>
-20.1807

> <Gold.Chemscore.ZeroCoef>
-5.4800

> <Gold.Chemscore.Hbond>
1.9073

> <Gold.Chemscore.Metal>
0.0000

> <Gold.Chemscore.Lipo>
100.6839

> <Gold.Chemscore.Internal_Hbond>
0.0000

> <Gold.Chemscore.DEClash>
0.1548

> <Gold.Chemscore.DEInternal>
1.7847

> <Gold.Chemscore.Rot>
1.3475

> <Gold.Chemscore.Internal.Correction>
   9.000000E+99

> <Gold.Chemscore.Hbonds>
donor molecule, donor type, donor heavy atom, donor atom, acceptor molecule, acceptor atom, score
      L1  H     9    33       P1  8028  0.91
      L1  H    12    34       P1  8028  0.95

> <Gold.Chemscore.Hbond.Weighted>
-6.3703

> <Gold.Chemscore.Metal.Weighted>
-0.0000

> <Gold.Chemscore.Lipo.Weighted>
-11.7800

> <Gold.Chemscore.Internal_Hbond.Weighted>
0.0000

> <Gold.Chemscore.DEClash.Weighted>
0.1548

> <Gold.Chemscore.DEInternal.Weighted>
1.7847

> <Gold.Chemscore.Rot.Weighted>
3.4496

> <Gold.Chemscore.Internal.Correction.Weighted>
   9.000000E+99

> <Gold.Protein.RotatedTorsions>
[ 6907 6896 6895 6894 ] final   19.26 input  -60.11 | X-H torsion
[ 7974 7965 7964 7962 ] final  -22.42 input  175.53 | X-H torsion
[ 8008 7997 7996 7995 ] final -155.92 input   59.86 | X-H torsion
[ 10167 10162 10161 10158 ] final  -12.81 input  -65.29 | X-H torsion
[ 10718 10713 10712 10709 ] final -134.87 input   66.30 | X-H torsion
[ 10763 10752 10751 10750 ] final -175.27 input  -60.55 | X-H torsion
[ 11005 11000 10999 10996 ] final  -96.40 input  -57.11 | X-H torsion

> <Gold.Protein.ActiveResidues>
 VAL166  LYS551  ARG553  GLY616  TRP617  ASP618  TYR619  PRO620  LYS621  CYS622 
 ASP623  PHE694  ASN695  SER759  ASP760  ASP761  ALA762  ILE779  LEU786  VAL792 
 PHE793  MET794  SER795  GLU796  ALA797  LYS798  CYS799  TRP800  GLU811  SER814 

> <Gold.Protein.RotatedAtoms>
  151.8781  135.0464  160.0485 H   0  0  0  0  0  0  0  0  0  0  0  0  # atno 6907 bound_to 6896
  152.2535  133.5230  159.5347 H   0  0  0  0  0  0  0  0  0  0  0  0  # atno 6908 bound_to 6896
  150.7091  134.0844  159.3952 H   0  0  0  0  0  0  0  0  0  0  0  0  # atno 6909 bound_to 6896
  146.1677  140.4476  142.8545 H   0  0  0  0  0  0  0  0  0  0  0  0  # atno 7974 bound_to 7965
  155.7092  140.0776  157.2378 H   0  0  0  0  0  0  0  0  0  0  0  0  # atno 8008 bound_to 7997
  154.4061  140.1633  156.2331 H   0  0  0  0  0  0  0  0  0  0  0  0  # atno 8009 bound_to 7997
  155.9298  140.3392  155.6242 H   0  0  0  0  0  0  0  0  0  0  0  0  # atno 8010 bound_to 7997
  140.7169  143.5492  150.9320 H   0  0  0  0  0  0  0  0  0  0  0  0  # atno 10167 bound_to 10162
  156.2601  130.7204  151.1135 H   0  0  0  0  0  0  0  0  0  0  0  0  # atno 10718 bound_to 10713
  154.5864  135.2841  155.0681 H   0  0  0  0  0  0  0  0  0  0  0  0  # atno 10763 bound_to 10752
  154.1998  135.6426  153.5087 H   0  0  0  0  0  0  0  0  0  0  0  0  # atno 10764 bound_to 10752
  153.0106  135.5466  154.6534 H   0  0  0  0  0  0  0  0  0  0  0  0  # atno 10765 bound_to 10752
  141.1412  133.8095  157.0565 H   0  0  0  0  0  0  0  0  0  0  0  0  # atno 11005 bound_to 11000
  144.8116  140.6396  143.6411 LP  0  0  0  0  0  0  0  0  0  0  0  0  # atno 17320 bound_to 7965
  145.4424  139.1534  143.3963 LP  0  0  0  0  0  0  0  0  0  0  0  0  # atno 17321 bound_to 7965
  139.9216  143.6599  152.3095 LP  0  0  0  0  0  0  0  0  0  0  0  0  # atno 17342 bound_to 10162
  139.7018  144.7634  151.1261 LP  0  0  0  0  0  0  0  0  0  0  0  0  # atno 17343 bound_to 10162
  157.7247  131.0658  150.5983 LP  0  0  0  0  0  0  0  0  0  0  0  0  # atno 17370 bound_to 10713
  156.6070  130.4370  149.5874 LP  0  0  0  0  0  0  0  0  0  0  0  0  # atno 17371 bound_to 10713
  140.0598  134.9761  157.1285 LP  0  0  0  0  0  0  0  0  0  0  0  0  # atno 17394 bound_to 11000
  140.3865  134.2231  155.7168 LP  0  0  0  0  0  0  0  0  0  0  0  0  # atno 17395 bound_to 11000

$$$$
