AV-unprocessed.smi:2814|AV-procd|sdf|10840|dock8
  -GOLD-   2272015283D 1   1.00000     0.00000
 Structure written by MMmdl.
 38 39  0  0  0  0  0  0  0  0  2 V2000
  146.3025  143.1081  154.0543 C   0  0  0  0  0  0  0  0  0  0  0  0
  147.2157  141.9008  154.0907 C   0  0  0  0  0  0  0  0  0  0  0  0
  146.8170  140.6391  153.5990 C   0  0  0  0  0  0  0  0  0  0  0  0
  147.7233  139.5500  153.6603 C   0  0  0  0  0  0  0  0  0  0  0  0
  147.4128  138.2385  153.2098 N   0  0  0  0  0  0  0  0  0  0  0  0
  146.2189  137.6216  153.1996 C   0  0  0  0  0  0  0  0  0  0  0  0
  145.1575  138.1251  153.5671 O   0  0  0  0  0  0  0  0  0  0  0  0
  146.3228  136.3748  152.7185 N   0  0  0  0  0  0  0  0  0  0  0  0
  145.2245  135.4223  152.5666 C   0  0  0  0  0  0  0  0  0  0  0  0
  145.2676  134.6828  151.2102 C   0  0  0  0  0  0  0  0  0  0  0  0
  145.3479  135.6533  150.1810 O   0  0  0  0  0  0  0  0  0  0  0  0
  146.4071  133.6662  151.0473 C   0  0  0  0  0  0  0  0  0  0  0  0
  145.9465  132.6943  149.9537 C   0  0  0  0  0  0  0  0  0  0  0  0
  144.4159  132.8079  149.8887 C   0  0  0  0  0  0  0  0  0  0  0  0
  144.0127  133.8383  150.9517 C   0  0  0  0  0  0  0  0  0  0  0  0
  148.9935  139.7597  154.2408 C   0  0  0  0  0  0  0  0  0  0  0  0
  149.3375  141.0417  154.7146 C   0  0  0  0  0  0  0  0  0  0  0  0
  148.4490  142.0539  154.6211 N   0  3  0  0  0  0  0  0  0  0  0  0
  145.3400  142.8600  153.6058 H   0  0  0  0  0  0  0  0  0  0  0  0
  146.7543  143.9090  153.4684 H   0  0  0  0  0  0  0  0  0  0  0  0
  146.1218  143.4788  155.0637 H   0  0  0  0  0  0  0  0  0  0  0  0
  145.8222  140.5238  153.1962 H   0  0  0  0  0  0  0  0  0  0  0  0
  148.1774  137.7294  152.7909 H   0  0  0  0  0  0  0  0  0  0  0  0
  147.2371  136.0464  152.4439 H   0  0  0  0  0  0  0  0  0  0  0  0
  145.2430  134.7016  153.3859 H   0  0  0  0  0  0  0  0  0  0  0  0
  144.2827  135.9625  152.6699 H   0  0  0  0  0  0  0  0  0  0  0  0
  145.8535  135.2918  149.4690 H   0  0  0  0  0  0  0  0  0  0  0  0
  147.3668  134.1310  150.8177 H   0  0  0  0  0  0  0  0  0  0  0  0
  146.5314  133.1094  151.9769 H   0  0  0  0  0  0  0  0  0  0  0  0
  146.3784  132.9779  148.9933 H   0  0  0  0  0  0  0  0  0  0  0  0
  146.2707  131.6754  150.1672 H   0  0  0  0  0  0  0  0  0  0  0  0
  144.1140  133.1520  148.8985 H   0  0  0  0  0  0  0  0  0  0  0  0
  143.9282  131.8478  150.0611 H   0  0  0  0  0  0  0  0  0  0  0  0
  143.7347  133.3074  151.8635 H   0  0  0  0  0  0  0  0  0  0  0  0
  143.1486  134.4338  150.6531 H   0  0  0  0  0  0  0  0  0  0  0  0
  149.7038  138.9491  154.3177 H   0  0  0  0  0  0  0  0  0  0  0  0
  150.2892  141.2853  155.1637 H   0  0  0  0  0  0  0  0  0  0  0  0
  148.7186  142.9736  154.9713 H   0  0  0  0  0  0  0  0  0  0  0  0
  1  2  1  0  0  0  0
  1 19  1  0  0  0  0
  1 20  1  0  0  0  0
  1 21  1  0  0  0  0
  2 18  1  0  0  0  0
  2  3  2  0  0  0  0
  3  4  1  0  0  0  0
  3 22  1  0  0  0  0
  4  5  1  0  0  0  0
  4 16  2  0  0  0  0
  5  6  1  0  0  0  0
  5 23  1  0  0  0  0
  6  7  2  0  0  0  0
  6  8  1  0  0  0  0
  8  9  1  0  0  0  0
  8 24  1  0  0  0  0
  9 10  1  0  0  0  0
  9 25  1  0  0  0  0
  9 26  1  0  0  0  0
 10 15  1  0  0  0  0
 10 11  1  0  0  0  0
 10 12  1  0  0  0  0
 11 27  1  0  0  0  0
 12 13  1  0  0  0  0
 12 28  1  0  0  0  0
 12 29  1  0  0  0  0
 13 14  1  0  0  0  0
 13 30  1  0  0  0  0
 13 31  1  0  0  0  0
 14 15  1  0  0  0  0
 14 32  1  0  0  0  0
 14 33  1  0  0  0  0
 15 34  1  0  0  0  0
 15 35  1  0  0  0  0
 16 17  1  0  0  0  0
 16 36  1  0  0  0  0
 17 18  2  0  0  0  0
 17 37  1  0  0  0  0
 18 38  1  0  0  0  0
M  CHG  1  18   1
M  END
> <s_m_source_file>
AV-unprocessed.smi

> <i_m_source_file_index>
2814

> <i_lp_mmshare_version>
43012

> <i_f3d_flags>
0

> <s_epik_input>
W0NIM11jMVtjSF1jKFtjSF1bY0hdbjEpW05IXUMoPU8pW05IXVtDSDJdQzIoW09IXSlbQ0gyXVtDSDJdW0NIMl1bQ0gyXTI=

> <s_epik_cmdline>
J2VwaWtfcHl0aG9uJywgJy1waCcsICc3LjAnLCAnLXRuJywgJzgnLCAnLW1hJywgJzIwMCcsICctbWV0YWxfYmluZGluZycsICctaW1hZScsICc8aW5maWxlLm1hZT4nLCAnLW9tYWUnLCAnPG91dGZpbGUubWFlPic=

> <r_epik_Ionization_Penalty>
0.41638

> <r_epik_Ionization_Penalty_Charging>
0.416357

> <r_epik_Ionization_Penalty_Neutral>
2.25049e-05

> <r_epik_State_Penalty>
0.41674

> <r_epik_Charging_Adjusted_Penalty>
0.833097

> <i_epik_Tot_Q>
1

> <i_epik_Tot_abs_Q>
1

> <r_epik_Metal_State_Penalty>
0.654825

> <b_epik_Metal_Only>
0

> <s_lp_Force_Field>
OPLS_2005

> <r_lp_Energy>
34.0796

> <b_lp_Chiralities_Consistent>
1

> <s_lp_Variant>
AV-unprocessed.smi:2814-2

> <Gold.Version>
5.8.1

> <Gold.Id.Protein>
6NUR|6NUR_protein|mol2

> <Gold.PLP.Fitness>
49.6320

> <Gold.PLP.PLP>
-35.3686

> <Gold.PLP.part.hbond>
-4.0000

> <Gold.PLP.part.metal>
0.0000

> <Gold.PLP.part.buried>
-4.9760

> <Gold.PLP.part.nonpolar>
-27.9236

> <Gold.PLP.part.repulsive>
0.6753

> <Gold.PLP.ligand.clash>
0.0000

> <Gold.PLP.ligand.torsion>
0.3704

> <Gold.PLP.Chemscore.Hbond>
5.0000

> <Gold.PLP.Chemscore.CHOScore>
0.0000

> <Gold.PLP.Chemscore.Metal>
0.0000

> <Gold.Chemscore.Hbonds>
donor molecule, donor type, donor heavy atom, donor atom, acceptor molecule, acceptor atom, score
      L1  H     5    23       P1  7948  1.00
      L1  H     8    24       P1  7948  1.00
      L1  H    11    27       P1  7921  1.00
      L1  H    18    38       P1  8028  2.00

> <Gold.PLP.Chemscore.Internal.Correction>
0.0042

> <Gold.Rescore>
     Score         DG    S(hbond)    S(metal)    S(lipo)     H(rot)  DE(clash)    DE(int)     intcor
     22.56     -24.01       3.95        0.00      83.53       1.74       0.21       1.24       ----

> <Gold.Chemscore.Fitness>
22.5620

> <Gold.Chemscore.DG>
-24.0083

> <Gold.Chemscore.ZeroCoef>
-5.4800

> <Gold.Chemscore.Hbond>
3.9537

> <Gold.Chemscore.Metal>
0.0000

> <Gold.Chemscore.Lipo>
83.5263

> <Gold.Chemscore.Internal_Hbond>
0.0000

> <Gold.Chemscore.DEClash>
0.2088

> <Gold.Chemscore.DEInternal>
1.2375

> <Gold.Chemscore.Rot>
1.7382

> <Gold.Chemscore.Internal.Correction>
   9.000000E+99

> <Gold.Chemscore.Hbonds>
donor molecule, donor type, donor heavy atom, donor atom, acceptor molecule, acceptor atom, score
      L1  H     5    23       P1  7948  0.98
      L1  H     8    24       P1  7948  0.99
      L1  H    11    27       P1  7921  0.94
      L1  H    18    38       P1  8028  1.00

> <Gold.Chemscore.Hbond.Weighted>
-13.2055

> <Gold.Chemscore.Metal.Weighted>
-0.0000

> <Gold.Chemscore.Lipo.Weighted>
-9.7726

> <Gold.Chemscore.Internal_Hbond.Weighted>
0.0000

> <Gold.Chemscore.DEClash.Weighted>
0.2088

> <Gold.Chemscore.DEInternal.Weighted>
1.2375

> <Gold.Chemscore.Rot.Weighted>
4.4497

> <Gold.Chemscore.Internal.Correction.Weighted>
   9.000000E+99

> <Gold.Protein.RotatedTorsions>
[ 6907 6896 6895 6894 ] final   48.00 input  -60.11 | X-H torsion
[ 7974 7965 7964 7962 ] final  159.48 input  175.53 | X-H torsion
[ 8008 7997 7996 7995 ] final  166.46 input   59.86 | X-H torsion
[ 10167 10162 10161 10158 ] final  133.16 input  -65.29 | X-H torsion
[ 10718 10713 10712 10709 ] final   41.28 input   66.30 | X-H torsion
[ 10763 10752 10751 10750 ] final -141.20 input  -60.55 | X-H torsion
[ 11005 11000 10999 10996 ] final  -44.83 input  -57.11 | X-H torsion

> <Gold.Protein.ActiveResidues>
 VAL166  LYS551  ARG553  GLY616  TRP617  ASP618  TYR619  PRO620  LYS621  CYS622 
 ASP623  PHE694  ASN695  SER759  ASP760  ASP761  ALA762  ILE779  LEU786  VAL792 
 PHE793  MET794  SER795  GLU796  ALA797  LYS798  CYS799  TRP800  GLU811  SER814 

> <Gold.Protein.RotatedAtoms>
  152.2745  134.7896  160.0407 H   0  0  0  0  0  0  0  0  0  0  0  0  # atno 6907 bound_to 6896
  151.8497  133.3432  159.3677 H   0  0  0  0  0  0  0  0  0  0  0  0  # atno 6908 bound_to 6896
  150.7165  134.5239  159.5711 H   0  0  0  0  0  0  0  0  0  0  0  0  # atno 6909 bound_to 6896
  144.7788  139.7623  143.6268 H   0  0  0  0  0  0  0  0  0  0  0  0  # atno 7974 bound_to 7965
  156.1716  140.1643  156.8437 H   0  0  0  0  0  0  0  0  0  0  0  0  # atno 8008 bound_to 7997
  154.5263  140.0767  156.8298 H   0  0  0  0  0  0  0  0  0  0  0  0  # atno 8009 bound_to 7997
  155.3500  140.3389  155.4241 H   0  0  0  0  0  0  0  0  0  0  0  0  # atno 8010 bound_to 7997
  139.5308  144.6628  151.4956 H   0  0  0  0  0  0  0  0  0  0  0  0  # atno 10167 bound_to 10162
  157.3917  130.7810  149.7275 H   0  0  0  0  0  0  0  0  0  0  0  0  # atno 10718 bound_to 10713
  154.8553  135.3531  154.5830 H   0  0  0  0  0  0  0  0  0  0  0  0  # atno 10763 bound_to 10752
  153.6440  135.6997  153.5236 H   0  0  0  0  0  0  0  0  0  0  0  0  # atno 10764 bound_to 10752
  153.2947  135.4224  155.1158 H   0  0  0  0  0  0  0  0  0  0  0  0  # atno 10765 bound_to 10752
  141.0476  133.6755  156.2927 H   0  0  0  0  0  0  0  0  0  0  0  0  # atno 11005 bound_to 11000
  146.1984  139.5264  142.9759 LP  0  0  0  0  0  0  0  0  0  0  0  0  # atno 17320 bound_to 7965
  145.6109  141.0340  143.1967 LP  0  0  0  0  0  0  0  0  0  0  0  0  # atno 17321 bound_to 7965
  140.6485  143.8744  150.6762 LP  0  0  0  0  0  0  0  0  0  0  0  0  # atno 17342 bound_to 10162
  140.2102  143.3890  152.1724 LP  0  0  0  0  0  0  0  0  0  0  0  0  # atno 17343 bound_to 10162
  155.9800  130.4034  150.3554 LP  0  0  0  0  0  0  0  0  0  0  0  0  # atno 17370 bound_to 10713
  157.1671  131.0359  151.2813 LP  0  0  0  0  0  0  0  0  0  0  0  0  # atno 17371 bound_to 10713
  140.6117  134.5452  157.5534 LP  0  0  0  0  0  0  0  0  0  0  0  0  # atno 17394 bound_to 11000
  139.9324  134.7938  156.0894 LP  0  0  0  0  0  0  0  0  0  0  0  0  # atno 17395 bound_to 11000

$$$$
