AV-unprocessed.smi:2845|AV-procd|sdf|10949|dock1
  -GOLD-   2272015403D 1   1.00000     0.00000
 Structure written by MMmdl.
 43 45  0  0  0  0  0  0  0  0  2 V2000
  152.1159  144.9064  160.3691 C   0  0  0  0  0  0  0  0  0  0  0  0
  151.9243  143.6422  159.5487 C   0  0  0  0  0  0  0  0  0  0  0  0
  151.2138  143.7299  158.3303 C   0  0  0  0  0  0  0  0  0  0  0  0
  151.0534  142.5561  157.6035 C   0  0  0  0  0  0  0  0  0  0  0  0
  150.4103  142.3145  156.3877 N   0  3  0  0  0  0  0  0  0  0  0  0
  150.5158  140.9939  156.0723 C   0  0  0  0  0  0  0  0  0  0  0  0
  151.2185  140.3885  157.0677 N   0  0  0  0  0  0  0  0  0  0  0  0
  151.6128  138.9799  157.2154 C   0  0  0  0  0  0  0  0  0  0  0  0
  150.9120  138.2789  158.3954 C   0  0  2  0  0  0  0  0  0  0  0  0
  151.7407  137.2536  158.9106 O   0  0  0  0  0  0  0  0  0  0  0  0
  149.5490  137.6907  157.9824 C   0  0  0  0  0  0  0  0  0  0  0  0
  148.9590  136.8672  159.0225 N   0  0  0  0  0  0  0  0  0  0  0  0
  148.5466  135.5964  158.9935 C   0  0  0  0  0  0  0  0  0  0  0  0
  148.0408  135.1670  160.1424 N   0  0  0  0  0  0  0  0  0  0  0  0
  148.1905  136.3056  160.8791 C   0  0  0  0  0  0  0  0  0  0  0  0
  147.6554  136.3889  162.6168 S   0  0  2  0  0  0  0  0  0  0  0  0
  146.3378  135.0931  162.4608 C   0  0  0  0  0  0  0  0  0  0  0  0
  146.9432  137.7339  162.7743 O   0  0  0  0  0  0  0  0  0  0  0  0
  148.7322  137.3555  160.2649 N   0  0  0  0  0  0  0  0  0  0  0  0
  151.5737  141.3247  158.0466 C   0  0  0  0  0  0  0  0  0  0  0  0
  152.2758  141.2212  159.2455 C   0  0  0  0  0  0  0  0  0  0  0  0
  152.4472  142.4031  160.0010 C   0  0  0  0  0  0  0  0  0  0  0  0
  153.2048  142.3186  161.3152 C   0  0  0  0  0  0  0  0  0  0  0  0
  151.6769  145.7735  159.8748 H   0  0  0  0  0  0  0  0  0  0  0  0
  153.1765  145.1101  160.5175 H   0  0  0  0  0  0  0  0  0  0  0  0
  151.6422  144.8039  161.3458 H   0  0  0  0  0  0  0  0  0  0  0  0
  150.8112  144.6694  157.9805 H   0  0  0  0  0  0  0  0  0  0  0  0
  150.1152  140.5142  155.1910 H   0  0  0  0  0  0  0  0  0  0  0  0
  151.3554  138.4775  156.2822 H   0  0  0  0  0  0  0  0  0  0  0  0
  152.6977  138.9175  157.3041 H   0  0  0  0  0  0  0  0  0  0  0  0
  150.7549  139.0058  159.1934 H   0  0  0  0  0  0  0  0  0  0  0  0
  152.6003  137.6140  159.0692 H   0  0  0  0  0  0  0  0  0  0  0  0
  148.8489  138.4948  157.7528 H   0  0  0  0  0  0  0  0  0  0  0  0
  149.6476  137.0948  157.0734 H   0  0  0  0  0  0  0  0  0  0  0  0
  148.6141  134.9747  158.1127 H   0  0  0  0  0  0  0  0  0  0  0  0
  146.6191  134.3365  161.7281 H   0  0  0  0  0  0  0  0  0  0  0  0
  145.3979  135.5473  162.1477 H   0  0  0  0  0  0  0  0  0  0  0  0
  146.1822  134.6009  163.4205 H   0  0  0  0  0  0  0  0  0  0  0  0
  152.6686  140.2775  159.5938 H   0  0  0  0  0  0  0  0  0  0  0  0
  153.5216  141.2971  161.5287 H   0  0  0  0  0  0  0  0  0  0  0  0
  152.5765  142.6511  162.1417 H   0  0  0  0  0  0  0  0  0  0  0  0
  154.0969  142.9444  161.2835 H   0  0  0  0  0  0  0  0  0  0  0  0
  149.9331  142.9983  155.8143 H   0  0  0  0  0  0  0  0  0  0  0  0
  1  2  1  0  0  0  0
  1 24  1  0  0  0  0
  1 25  1  0  0  0  0
  1 26  1  0  0  0  0
  2 22  1  0  0  0  0
  2  3  2  0  0  0  0
  3  4  1  0  0  0  0
  3 27  1  0  0  0  0
  4 20  2  0  0  0  0
  4  5  1  0  0  0  0
  5  6  2  0  0  0  0
  5 43  1  0  0  0  0
  6  7  1  0  0  0  0
  6 28  1  0  0  0  0
  7  8  1  0  0  0  0
  7 20  1  0  0  0  0
  8  9  1  0  0  0  0
  8 29  1  0  0  0  0
  8 30  1  0  0  0  0
  9 10  1  0  0  0  0
  9 11  1  0  0  0  0
  9 31  1  0  0  0  0
 10 32  1  0  0  0  0
 11 12  1  0  0  0  0
 11 33  1  0  0  0  0
 11 34  1  0  0  0  0
 12 19  1  0  0  0  0
 12 13  1  0  0  0  0
 13 14  2  0  0  0  0
 13 35  1  0  0  0  0
 14 15  1  0  0  0  0
 15 16  1  0  0  0  0
 15 19  2  0  0  0  0
 16 17  1  0  0  0  0
 16 18  2  0  0  0  0
 17 36  1  0  0  0  0
 17 37  1  0  0  0  0
 17 38  1  0  0  0  0
 20 21  1  0  0  0  0
 21 22  2  0  0  0  0
 21 39  1  0  0  0  0
 22 23  1  0  0  0  0
 23 40  1  0  0  0  0
 23 41  1  0  0  0  0
 23 42  1  0  0  0  0
M  CHG  1   5   1
M  END
> <s_m_source_file>
AV-unprocessed.smi

> <i_m_source_file_index>
2845

> <i_lp_mmshare_version>
43012

> <i_f3d_flags>
0

> <s_epik_input>
W0NIM11jKFtjSF0xKWMoW0NIM10pW2NIXWMoYzEyKW4oW2NIXW4yKVtDSDJdW0NASF0oW09IXSlbQ0gyXW4zW2NIXW5jKG4zKVtTQF0oPU8pW0NIM10=

> <s_epik_cmdline>
J2VwaWtfcHl0aG9uJywgJy1waCcsICc3LjAnLCAnLXRuJywgJzgnLCAnLW1hJywgJzIwMCcsICctbWV0YWxfYmluZGluZycsICctaW1hZScsICc8aW5maWxlLm1hZT4nLCAnLW9tYWUnLCAnPG91dGZpbGUubWFlPic=

> <r_lp_tautomer_probability>
1

> <r_epik_Ionization_Penalty>
1.12076

> <r_epik_Ionization_Penalty_Charging>
1.12075

> <r_epik_Ionization_Penalty_Neutral>
1.54566e-06

> <r_epik_State_Penalty>
1.17957

> <r_epik_Charging_Adjusted_Penalty>
2.30033

> <i_epik_Tot_Q>
1

> <i_epik_Tot_abs_Q>
1

> <r_epik_Metal_State_Penalty>
1.26402

> <b_epik_Metal_Only>
0

> <s_lp_Force_Field>
OPLS_2005

> <r_lp_Energy>
14.9183

> <b_lp_Chiralities_Consistent>
1

> <s_lp_Variant>
AV-unprocessed.smi:2845-7

> <Gold.Version>
5.8.1

> <Gold.Id.Protein>
6NUR|6NUR_protein|mol2

> <Gold.PLP.Fitness>
58.2854

> <Gold.PLP.PLP>
-51.2619

> <Gold.PLP.part.hbond>
-5.1750

> <Gold.PLP.part.metal>
0.0000

> <Gold.PLP.part.buried>
-6.2943

> <Gold.PLP.part.nonpolar>
-39.8298

> <Gold.PLP.part.repulsive>
0.0844

> <Gold.PLP.ligand.clash>
0.0000

> <Gold.PLP.ligand.torsion>
0.9557

> <Gold.PLP.Chemscore.Hbond>
2.5663

> <Gold.PLP.Chemscore.CHOScore>
0.0000

> <Gold.PLP.Chemscore.Metal>
0.0000

> <Gold.Chemscore.Hbonds>
donor molecule, donor type, donor heavy atom, donor atom, acceptor molecule, acceptor atom, score
      L1  H     5    43       P1  8028  1.98
      P1  H  6896  6908       L1    10  0.09
      P1  H  6931  6943       L1    19  0.34
      P1  H  6934  6947       L1    18  0.19

> <Gold.PLP.Chemscore.Internal.Correction>
1.2360

> <Gold.Rescore>
     Score         DG    S(hbond)    S(metal)    S(lipo)     H(rot)  DE(clash)    DE(int)     intcor
     15.62     -16.76       1.91        0.00     102.54       2.77       0.04       1.09       ----

> <Gold.Chemscore.Fitness>
15.6249

> <Gold.Chemscore.DG>
-16.7631

> <Gold.Chemscore.ZeroCoef>
-5.4800

> <Gold.Chemscore.Hbond>
1.9077

> <Gold.Chemscore.Metal>
0.0000

> <Gold.Chemscore.Lipo>
102.5425

> <Gold.Chemscore.Internal_Hbond>
0.0000

> <Gold.Chemscore.DEClash>
0.0440

> <Gold.Chemscore.DEInternal>
1.0942

> <Gold.Chemscore.Rot>
2.7681

> <Gold.Chemscore.Internal.Correction>
   9.000000E+99

> <Gold.Chemscore.Hbonds>
donor molecule, donor type, donor heavy atom, donor atom, acceptor molecule, acceptor atom, score
      L1  H     5    43       P1  8028  0.89
      P1  H  6896  6908       L1    10  0.05
      P1  H  6931  6943       L1    19  0.03
      P1  H  6934  6947       L1    18  0.16

> <Gold.Chemscore.Hbond.Weighted>
-6.3719

> <Gold.Chemscore.Metal.Weighted>
-0.0000

> <Gold.Chemscore.Lipo.Weighted>
-11.9975

> <Gold.Chemscore.Internal_Hbond.Weighted>
0.0000

> <Gold.Chemscore.DEClash.Weighted>
0.0440

> <Gold.Chemscore.DEInternal.Weighted>
1.0942

> <Gold.Chemscore.Rot.Weighted>
7.0863

> <Gold.Chemscore.Internal.Correction.Weighted>
   9.000000E+99

> <Gold.Protein.RotatedTorsions>
[ 6907 6896 6895 6894 ] final -105.48 input  -60.11 | X-H torsion
[ 7974 7965 7964 7962 ] final  -90.38 input  175.53 | X-H torsion
[ 8008 7997 7996 7995 ] final  -76.52 input   59.86 | X-H torsion
[ 10167 10162 10161 10158 ] final  114.43 input  -65.29 | X-H torsion
[ 10718 10713 10712 10709 ] final  -38.23 input   66.30 | X-H torsion
[ 10763 10752 10751 10750 ] final -168.39 input  -60.55 | X-H torsion
[ 11005 11000 10999 10996 ] final -162.20 input  -57.11 | X-H torsion

> <Gold.Protein.ActiveResidues>
 VAL166  LYS551  ARG553  GLY616  TRP617  ASP618  TYR619  PRO620  LYS621  CYS622 
 ASP623  PHE694  ASN695  SER759  ASP760  ASP761  ALA762  ILE779  LEU786  VAL792 
 PHE793  MET794  SER795  GLU796  ALA797  LYS798  CYS799  TRP800  GLU811  SER814 

> <Gold.Protein.RotatedAtoms>
  150.7339  134.0120  159.3672 H   0  0  0  0  0  0  0  0  0  0  0  0  # atno 6907 bound_to 6896
  151.8080  135.0687  160.0418 H   0  0  0  0  0  0  0  0  0  0  0  0  # atno 6908 bound_to 6896
  152.3093  133.5699  159.5706 H   0  0  0  0  0  0  0  0  0  0  0  0  # atno 6909 bound_to 6896
  145.4273  140.9554  143.2148 H   0  0  0  0  0  0  0  0  0  0  0  0  # atno 7974 bound_to 7965
  154.5513  140.0726  156.8672 H   0  0  0  0  0  0  0  0  0  0  0  0  # atno 8008 bound_to 7997
  155.2988  140.3383  155.4230 H   0  0  0  0  0  0  0  0  0  0  0  0  # atno 8009 bound_to 7997
  156.1963  140.1705  156.7977 H   0  0  0  0  0  0  0  0  0  0  0  0  # atno 8010 bound_to 7997
  139.6389  144.7122  151.2278 H   0  0  0  0  0  0  0  0  0  0  0  0  # atno 10167 bound_to 10162
  156.3061  130.4246  149.8095 H   0  0  0  0  0  0  0  0  0  0  0  0  # atno 10718 bound_to 10713
  154.6633  135.2928  154.9838 H   0  0  0  0  0  0  0  0  0  0  0  0  # atno 10763 bound_to 10752
  154.0890  135.6593  153.4853 H   0  0  0  0  0  0  0  0  0  0  0  0  # atno 10764 bound_to 10752
  153.0443  135.5215  154.7594 H   0  0  0  0  0  0  0  0  0  0  0  0  # atno 10765 bound_to 10752
  140.6119  134.4840  157.5216 H   0  0  0  0  0  0  0  0  0  0  0  0  # atno 11005 bound_to 11000
  144.8206  139.5799  143.6988 LP  0  0  0  0  0  0  0  0  0  0  0  0  # atno 17320 bound_to 7965
  146.2625  139.6444  142.9352 LP  0  0  0  0  0  0  0  0  0  0  0  0  # atno 17321 bound_to 7965
  140.7480  143.6347  150.8390 LP  0  0  0  0  0  0  0  0  0  0  0  0  # atno 17342 bound_to 10162
  139.9982  143.5773  152.2885 LP  0  0  0  0  0  0  0  0  0  0  0  0  # atno 17343 bound_to 10162
  156.5455  130.8319  151.3283 LP  0  0  0  0  0  0  0  0  0  0  0  0  # atno 17370 bound_to 10713
  157.7380  130.9805  150.2226 LP  0  0  0  0  0  0  0  0  0  0  0  0  # atno 17371 bound_to 10713
  139.9189  134.8190  156.1276 LP  0  0  0  0  0  0  0  0  0  0  0  0  # atno 17394 bound_to 11000
  141.0802  133.6757  156.2320 LP  0  0  0  0  0  0  0  0  0  0  0  0  # atno 17395 bound_to 11000

$$$$
