AV-unprocessed.smi:2675|AV-procd|sdf|10363|dock1
  -GOLD-   2272014393D 1   1.00000     0.00000
 Structure written by MMmdl.
 36 37  0  0  0  0  0  0  0  0  1 V2000
  152.6970  143.6275  162.2881 C   0  0  0  0  0  0  0  0  0  0  0  0
  152.5213  143.2265  160.8554 C   0  0  0  0  0  0  0  0  0  0  0  0
  153.0442  142.0226  160.3892 N   0  0  0  0  0  0  0  0  0  0  0  0
  152.7043  142.0031  159.1089 C   0  0  0  0  0  0  0  0  0  0  0  0
  152.0130  143.0759  158.6999 N   0  0  0  0  0  0  0  0  0  0  0  0
  151.5220  143.3242  157.3547 C   0  0  0  0  0  0  0  0  0  0  0  0
  150.8635  142.0734  156.7724 C   0  0  0  0  0  0  0  0  0  0  0  0
  151.4068  140.9782  156.9071 O   0  0  0  0  0  0  0  0  0  0  0  0
  149.6969  142.2619  156.1311 N   0  0  0  0  0  0  0  0  0  0  0  0
  148.8214  141.2590  155.5111 C   0  0  2  0  0  0  0  0  0  0  0  0
  147.6658  142.0459  154.8703 C   0  0  0  0  0  0  0  0  0  0  0  0
  148.2388  140.3472  156.5153 C   0  0  0  0  0  0  0  0  0  0  0  0
  147.7794  139.6341  157.3029 N   0  0  0  0  0  0  0  0  0  0  0  0
  149.4785  140.3967  154.4307 C   0  0  0  0  0  0  0  0  0  0  0  0
  149.0964  138.9618  154.1400 C   0  0  0  0  0  0  0  0  0  0  0  0
  150.4391  139.2764  154.7613 C   0  0  0  0  0  0  0  0  0  0  0  0
  151.8833  143.8886  159.8256 C   0  0  0  0  0  0  0  0  0  0  0  0
  151.1705  145.2039  159.8050 C   0  0  0  0  0  0  0  0  0  0  0  0
  152.2375  144.5915  162.5030 H   0  0  0  0  0  0  0  0  0  0  0  0
  153.7535  143.7042  162.5457 H   0  0  0  0  0  0  0  0  0  0  0  0
  152.2463  142.8946  162.9576 H   0  0  0  0  0  0  0  0  0  0  0  0
  152.9687  141.1891  158.4499 H   0  0  0  0  0  0  0  0  0  0  0  0
  150.8059  144.1470  157.3831 H   0  0  0  0  0  0  0  0  0  0  0  0
  152.3484  143.6458  156.7200 H   0  0  0  0  0  0  0  0  0  0  0  0
  149.3610  143.2128  156.0843 H   0  0  0  0  0  0  0  0  0  0  0  0
  146.9371  141.3769  154.4106 H   0  0  0  0  0  0  0  0  0  0  0  0
  148.0262  142.7220  154.0937 H   0  0  0  0  0  0  0  0  0  0  0  0
  147.1345  142.6454  155.6110 H   0  0  0  0  0  0  0  0  0  0  0  0
  149.7353  140.9743  153.5442 H   0  0  0  0  0  0  0  0  0  0  0  0
  148.3639  138.4669  154.7711 H   0  0  0  0  0  0  0  0  0  0  0  0
  149.0879  138.6505  153.0976 H   0  0  0  0  0  0  0  0  0  0  0  0
  151.3208  139.1710  154.1325 H   0  0  0  0  0  0  0  0  0  0  0  0
  150.5801  139.0066  155.8057 H   0  0  0  0  0  0  0  0  0  0  0  0
  151.2170  145.7016  160.7727 H   0  0  0  0  0  0  0  0  0  0  0  0
  150.1188  145.0697  159.5523 H   0  0  0  0  0  0  0  0  0  0  0  0
  151.6128  145.8739  159.0677 H   0  0  0  0  0  0  0  0  0  0  0  0
  1  2  1  0  0  0  0
  1 19  1  0  0  0  0
  1 20  1  0  0  0  0
  1 21  1  0  0  0  0
  2 17  2  0  0  0  0
  2  3  1  0  0  0  0
  3  4  2  0  0  0  0
  4  5  1  0  0  0  0
  4 22  1  0  0  0  0
  5  6  1  0  0  0  0
  5 17  1  0  0  0  0
  6  7  1  0  0  0  0
  6 23  1  0  0  0  0
  6 24  1  0  0  0  0
  7  8  2  0  0  0  0
  7  9  1  0  0  0  0
  9 10  1  0  0  0  0
  9 25  1  0  0  0  0
 10 11  1  0  0  0  0
 10 12  1  0  0  0  0
 10 14  1  0  0  0  0
 11 26  1  0  0  0  0
 11 27  1  0  0  0  0
 11 28  1  0  0  0  0
 12 13  3  0  0  0  0
 14 16  1  0  0  0  0
 14 15  1  0  0  0  0
 14 29  1  0  0  0  0
 15 16  1  0  0  0  0
 15 30  1  0  0  0  0
 15 31  1  0  0  0  0
 16 32  1  0  0  0  0
 16 33  1  0  0  0  0
 17 18  1  0  0  0  0
 18 34  1  0  0  0  0
 18 35  1  0  0  0  0
 18 36  1  0  0  0  0
M  END
> <s_m_source_file>
AV-unprocessed.smi

> <i_m_source_file_index>
2675

> <i_lp_mmshare_version>
43012

> <i_f3d_flags>
0

> <s_epik_input>
W0NIM11jMW5bY0hdbihjMVtDSDNdKVtDSDJdQyg9TylbTkhdW0NAQF0oW0NIM10pKEMjTilbQ0hdMltDSDJdW0NIMl0y

> <s_epik_cmdline>
J2VwaWtfcHl0aG9uJywgJy1waCcsICc3LjAnLCAnLXRuJywgJzgnLCAnLW1hJywgJzIwMCcsICctbWV0YWxfYmluZGluZycsICctaW1hZScsICc8aW5maWxlLm1hZT4nLCAnLW9tYWUnLCAnPG91dGZpbGUubWFlPic=

> <r_lp_tautomer_probability>
1

> <r_epik_Ionization_Penalty>
0.876174

> <r_epik_Ionization_Penalty_Charging>
0.876172

> <r_epik_Ionization_Penalty_Neutral>
2.64295e-06

> <r_epik_State_Penalty>
0.913958

> <r_epik_Charging_Adjusted_Penalty>
1.79013

> <i_epik_Tot_Q>
0

> <i_epik_Tot_abs_Q>
0

> <r_epik_Metal_State_Penalty>
0.359336

> <b_epik_Metal_Only>
0

> <s_lp_Force_Field>
OPLS_2005

> <r_lp_Energy>
15.5339

> <b_lp_Chiralities_Consistent>
1

> <s_lp_Variant>
AV-unprocessed.smi:2675-4

> <Gold.Version>
5.8.1

> <Gold.Id.Protein>
6NUR|6NUR_protein|mol2

> <Gold.PLP.Fitness>
42.5004

> <Gold.PLP.PLP>
-40.4118

> <Gold.PLP.part.hbond>
-1.0000

> <Gold.PLP.part.metal>
0.0000

> <Gold.PLP.part.buried>
-3.4668

> <Gold.PLP.part.nonpolar>
-34.4484

> <Gold.PLP.part.repulsive>
0.1149

> <Gold.PLP.ligand.clash>
0.0000

> <Gold.PLP.ligand.torsion>
1.2076

> <Gold.PLP.Chemscore.Hbond>
1.0000

> <Gold.PLP.Chemscore.CHOScore>
0.0000

> <Gold.PLP.Chemscore.Metal>
0.0000

> <Gold.Chemscore.Hbonds>
donor molecule, donor type, donor heavy atom, donor atom, acceptor molecule, acceptor atom, score
      L1  H     9    25       P1  8028  1.00

> <Gold.PLP.Chemscore.Internal.Correction>
1.5038

> <Gold.Rescore>
     Score         DG    S(hbond)    S(metal)    S(lipo)     H(rot)  DE(clash)    DE(int)     intcor
     12.38     -14.83       1.00        0.00      89.54       1.74       0.10       2.36       ----

> <Gold.Chemscore.Fitness>
12.3779

> <Gold.Chemscore.DG>
-14.8350

> <Gold.Chemscore.ZeroCoef>
-5.4800

> <Gold.Chemscore.Hbond>
1.0000

> <Gold.Chemscore.Metal>
0.0000

> <Gold.Chemscore.Lipo>
89.5444

> <Gold.Chemscore.Internal_Hbond>
0.0000

> <Gold.Chemscore.DEClash>
0.0959

> <Gold.Chemscore.DEInternal>
2.3611

> <Gold.Chemscore.Rot>
1.7429

> <Gold.Chemscore.Internal.Correction>
   9.000000E+99

> <Gold.Chemscore.Hbonds>
donor molecule, donor type, donor heavy atom, donor atom, acceptor molecule, acceptor atom, score
      L1  H     9    25       P1  8028  1.00

> <Gold.Chemscore.Hbond.Weighted>
-3.3400

> <Gold.Chemscore.Metal.Weighted>
-0.0000

> <Gold.Chemscore.Lipo.Weighted>
-10.4767

> <Gold.Chemscore.Internal_Hbond.Weighted>
0.0000

> <Gold.Chemscore.DEClash.Weighted>
0.0959

> <Gold.Chemscore.DEInternal.Weighted>
2.3611

> <Gold.Chemscore.Rot.Weighted>
4.4617

> <Gold.Chemscore.Internal.Correction.Weighted>
   9.000000E+99

> <Gold.Protein.RotatedTorsions>
[ 6907 6896 6895 6894 ] final   78.07 input  -60.11 | X-H torsion
[ 7974 7965 7964 7962 ] final  149.13 input  175.53 | X-H torsion
[ 8008 7997 7996 7995 ] final  172.49 input   59.86 | X-H torsion
[ 10167 10162 10161 10158 ] final   17.31 input  -65.29 | X-H torsion
[ 10718 10713 10712 10709 ] final -136.23 input   66.30 | X-H torsion
[ 10763 10752 10751 10750 ] final   15.80 input  -60.55 | X-H torsion
[ 11005 11000 10999 10996 ] final   98.47 input  -57.11 | X-H torsion

> <Gold.Protein.ActiveResidues>
 VAL166  LYS551  ARG553  GLY616  TRP617  ASP618  TYR619  PRO620  LYS621  CYS622 
 ASP623  PHE694  ASN695  SER759  ASP760  ASP761  ALA762  ILE779  LEU786  VAL792 
 PHE793  MET794  SER795  GLU796  ALA797  LYS798  CYS799  TRP800  GLU811  SER814 

> <Gold.Protein.RotatedAtoms>
  152.5144  134.3720  159.9321 H   0  0  0  0  0  0  0  0  0  0  0  0  # atno 6907 bound_to 6896
  151.3675  133.3860  159.2704 H   0  0  0  0  0  0  0  0  0  0  0  0  # atno 6908 bound_to 6896
  150.9604  134.9012  159.7785 H   0  0  0  0  0  0  0  0  0  0  0  0  # atno 6909 bound_to 6896
  144.8461  139.6241  143.5994 H   0  0  0  0  0  0  0  0  0  0  0  0  # atno 7974 bound_to 7965
  156.1169  140.1484  156.9260 H   0  0  0  0  0  0  0  0  0  0  0  0  # atno 8008 bound_to 7997
  154.4807  140.0880  156.7413 H   0  0  0  0  0  0  0  0  0  0  0  0  # atno 8009 bound_to 7997
  155.4497  140.3434  155.4301 H   0  0  0  0  0  0  0  0  0  0  0  0  # atno 8010 bound_to 7997
  140.5735  143.9116  150.6731 H   0  0  0  0  0  0  0  0  0  0  0  0  # atno 10167 bound_to 10162
  156.2748  130.7286  151.1265 H   0  0  0  0  0  0  0  0  0  0  0  0  # atno 10718 bound_to 10713
  153.1490  135.6775  153.8910 H   0  0  0  0  0  0  0  0  0  0  0  0  # atno 10763 bound_to 10752
  153.8342  135.3113  155.3422 H   0  0  0  0  0  0  0  0  0  0  0  0  # atno 10764 bound_to 10752
  154.7848  135.4868  154.0007 H   0  0  0  0  0  0  0  0  0  0  0  0  # atno 10765 bound_to 10752
  139.8772  134.9050  156.4460 H   0  0  0  0  0  0  0  0  0  0  0  0  # atno 11005 bound_to 11000
  146.2745  139.6719  142.9272 LP  0  0  0  0  0  0  0  0  0  0  0  0  # atno 17320 bound_to 7965
  145.4593  141.0432  143.2760 LP  0  0  0  0  0  0  0  0  0  0  0  0  # atno 17321 bound_to 7965
  140.2597  143.3532  152.1333 LP  0  0  0  0  0  0  0  0  0  0  0  0  # atno 17342 bound_to 10162
  139.5130  144.6926  151.5719 LP  0  0  0  0  0  0  0  0  0  0  0  0  # atno 17343 bound_to 10162
  157.7296  131.0623  150.5768 LP  0  0  0  0  0  0  0  0  0  0  0  0  # atno 17370 bound_to 10713
  156.5868  130.4319  149.5954 LP  0  0  0  0  0  0  0  0  0  0  0  0  # atno 17371 bound_to 10713
  140.8965  133.7810  155.9631 LP  0  0  0  0  0  0  0  0  0  0  0  0  # atno 17394 bound_to 11000
  140.8697  134.2741  157.5196 LP  0  0  0  0  0  0  0  0  0  0  0  0  # atno 17395 bound_to 11000

$$$$
