AV-unprocessed.smi:1275|AV-procd|sdf|5342|dock4
  -GOLD-   22720 4473D 1   1.00000     0.00000
 Structure written by MMmdl.
 42 43  0  0  0  0  0  0  0  0  1 V2000
  145.6066  136.7864  152.0383 C   0  0  0  0  0  0  0  0  0  0  0  0
  146.1789  137.6938  152.9634 O   0  0  0  0  0  0  0  0  0  0  0  0
  146.5601  138.9179  152.3580 C   0  0  0  0  0  0  0  0  0  0  0  0
  147.2693  139.7924  153.3960 C   0  0  0  0  0  0  0  0  0  0  0  0
  148.4779  139.1499  153.7907 O   0  0  0  0  0  0  0  0  0  0  0  0
  149.2583  139.7502  154.7572 C   0  0  0  0  0  0  0  0  0  0  0  0
  150.3764  139.0492  155.2509 C   0  0  0  0  0  0  0  0  0  0  0  0
  151.1827  139.6567  156.2324 C   0  0  0  0  0  0  0  0  0  0  0  0
  150.8476  140.9549  156.6849 C   0  0  0  0  0  0  0  0  0  0  0  0
  151.5699  141.6647  157.6815 N   0  0  0  0  0  0  0  0  0  0  0  0
  152.7011  141.3045  158.3193 C   0  0  0  0  0  0  0  0  0  0  0  0
  153.2825  140.2386  158.1140 O   0  0  0  0  0  0  0  0  0  0  0  0
  153.1484  142.2184  159.2176 N   0  0  0  0  0  0  0  0  0  0  0  0
  153.9236  141.9530  160.4384 C   0  0  0  0  0  0  0  0  0  0  0  0
  153.0229  142.2434  161.6519 C   0  0  0  0  0  0  0  0  0  0  0  0
  152.5644  143.5924  161.5970 O   0  0  0  0  0  0  0  0  0  0  0  0
  151.8375  143.8981  160.4077 C   0  0  1  0  0  0  0  0  0  0  0  0
  151.3881  145.3614  160.4832 C   0  0  0  0  0  0  0  0  0  0  0  0
  152.7362  143.6249  159.1845 C   0  0  0  0  0  0  0  0  0  0  0  0
  149.6972  141.5627  156.1416 C   0  0  0  0  0  0  0  0  0  0  0  0
  148.9215  140.9873  155.1990 N   0  0  0  0  0  0  0  0  0  0  0  0
  145.3300  135.8661  152.5520 H   0  0  0  0  0  0  0  0  0  0  0  0
  146.3131  136.5317  151.2474 H   0  0  0  0  0  0  0  0  0  0  0  0
  144.7063  137.2017  151.5836 H   0  0  0  0  0  0  0  0  0  0  0  0
  147.2077  138.7453  151.4970 H   0  0  0  0  0  0  0  0  0  0  0  0
  145.6677  139.4327  151.9992 H   0  0  0  0  0  0  0  0  0  0  0  0
  147.5037  140.7591  152.9475 H   0  0  0  0  0  0  0  0  0  0  0  0
  146.6137  139.9684  154.2505 H   0  0  0  0  0  0  0  0  0  0  0  0
  150.6104  138.0605  154.8850 H   0  0  0  0  0  0  0  0  0  0  0  0
  152.0275  139.1127  156.6251 H   0  0  0  0  0  0  0  0  0  0  0  0
  151.2312  142.5945  157.8816 H   0  0  0  0  0  0  0  0  0  0  0  0
  154.3167  140.9393  160.5090 H   0  0  0  0  0  0  0  0  0  0  0  0
  154.7963  142.6073  160.4575 H   0  0  0  0  0  0  0  0  0  0  0  0
  152.1724  141.5605  161.6783 H   0  0  0  0  0  0  0  0  0  0  0  0
  153.5788  142.0982  162.5780 H   0  0  0  0  0  0  0  0  0  0  0  0
  150.9510  143.2631  160.3613 H   0  0  0  0  0  0  0  0  0  0  0  0
  150.8148  145.6418  159.5991 H   0  0  0  0  0  0  0  0  0  0  0  0
  152.2432  146.0338  160.5554 H   0  0  0  0  0  0  0  0  0  0  0  0
  150.7565  145.5305  161.3556 H   0  0  0  0  0  0  0  0  0  0  0  0
  153.6217  144.2619  159.2132 H   0  0  0  0  0  0  0  0  0  0  0  0
  152.2090  143.8892  158.2668 H   0  0  0  0  0  0  0  0  0  0  0  0
  149.3917  142.5464  156.4673 H   0  0  0  0  0  0  0  0  0  0  0  0
  1  2  1  0  0  0  0
  1 22  1  0  0  0  0
  1 23  1  0  0  0  0
  1 24  1  0  0  0  0
  2  3  1  0  0  0  0
  3  4  1  0  0  0  0
  3 25  1  0  0  0  0
  3 26  1  0  0  0  0
  4  5  1  0  0  0  0
  4 27  1  0  0  0  0
  4 28  1  0  0  0  0
  5  6  1  0  0  0  0
  6 21  1  0  0  0  0
  6  7  2  0  0  0  0
  7  8  1  0  0  0  0
  7 29  1  0  0  0  0
  8  9  2  0  0  0  0
  8 30  1  0  0  0  0
  9 10  1  0  0  0  0
  9 20  1  0  0  0  0
 10 11  1  0  0  0  0
 10 31  1  0  0  0  0
 11 12  2  0  0  0  0
 11 13  1  0  0  0  0
 13 19  1  0  0  0  0
 13 14  1  0  0  0  0
 14 15  1  0  0  0  0
 14 32  1  0  0  0  0
 14 33  1  0  0  0  0
 15 16  1  0  0  0  0
 15 34  1  0  0  0  0
 15 35  1  0  0  0  0
 16 17  1  0  0  0  0
 17 18  1  0  0  0  0
 17 19  1  0  0  0  0
 17 36  1  0  0  0  0
 18 37  1  0  0  0  0
 18 38  1  0  0  0  0
 18 39  1  0  0  0  0
 19 40  1  0  0  0  0
 19 41  1  0  0  0  0
 20 21  2  0  0  0  0
 20 42  1  0  0  0  0
M  END
> <s_m_source_file>
AV-unprocessed.smi

> <i_m_source_file_index>
1275

> <i_lp_mmshare_version>
43012

> <i_f3d_flags>
0

> <s_epik_input>
W0NIM11PW0NIMl1bQ0gyXU9jMVtjSF1bY0hdYyhbY0hdbjEpW05IXUMoPU8pTjJbQ0gyXVtDSDJdT1tDQEBIXShbQ0gzXSlbQ0gyXTI=

> <s_epik_cmdline>
J2VwaWtfcHl0aG9uJywgJy1waCcsICc3LjAnLCAnLXRuJywgJzgnLCAnLW1hJywgJzIwMCcsICctbWV0YWxfYmluZGluZycsICctaW1hZScsICc8aW5maWxlLm1hZT4nLCAnLW9tYWUnLCAnPG91dGZpbGUubWFlPic=

> <r_lp_tautomer_probability>
1

> <r_epik_Ionization_Penalty>
5.69099e-05

> <r_epik_Ionization_Penalty_Charging>
0

> <r_epik_Ionization_Penalty_Neutral>
5.69099e-05

> <r_epik_State_Penalty>
-0

> <r_epik_Charging_Adjusted_Penalty>
0

> <i_epik_Tot_Q>
0

> <i_epik_Tot_abs_Q>
0

> <r_epik_Metal_State_Penalty>
-0

> <b_epik_Metal_Only>
0

> <s_lp_Force_Field>
OPLS_2005

> <r_lp_Energy>
32.9839

> <b_lp_Chiralities_Consistent>
1

> <s_lp_Variant>
AV-unprocessed.smi:1275-1

> <Gold.Version>
5.8.1

> <Gold.Id.Protein>
6NUR|6NUR_protein|mol2

> <Gold.PLP.Fitness>
47.7097

> <Gold.PLP.PLP>
-42.8847

> <Gold.PLP.part.hbond>
-1.0000

> <Gold.PLP.part.metal>
0.0000

> <Gold.PLP.part.buried>
-3.4245

> <Gold.PLP.part.nonpolar>
-39.1329

> <Gold.PLP.part.repulsive>
1.8136

> <Gold.PLP.ligand.clash>
0.6656

> <Gold.PLP.ligand.torsion>
0.3147

> <Gold.PLP.Chemscore.Hbond>
1.0000

> <Gold.PLP.Chemscore.CHOScore>
1.0000

> <Gold.PLP.Chemscore.Metal>
0.0000

> <Gold.Chemscore.Hbonds>
donor molecule, donor type, donor heavy atom, donor atom, acceptor molecule, acceptor atom, score
      P1  H  7997  8010       L1    12  0.93
      L1  C    20    42       P1  8028  1.00

> <Gold.PLP.Chemscore.Internal.Correction>
0.1200

> <Gold.Rescore>
     Score         DG    S(hbond)    S(metal)    S(lipo)     H(rot)  DE(clash)    DE(int)     intcor
     14.33     -16.10       0.85        0.00     101.83       1.62       0.08       1.70       ----

> <Gold.Chemscore.Fitness>
14.3263

> <Gold.Chemscore.DG>
-16.1029

> <Gold.Chemscore.ZeroCoef>
-5.4800

> <Gold.Chemscore.Hbond>
0.8535

> <Gold.Chemscore.Metal>
0.0000

> <Gold.Chemscore.Lipo>
101.8269

> <Gold.Chemscore.Internal_Hbond>
0.0000

> <Gold.Chemscore.DEClash>
0.0786

> <Gold.Chemscore.DEInternal>
1.6981

> <Gold.Chemscore.Rot>
1.6178

> <Gold.Chemscore.Internal.Correction>
   9.000000E+99

> <Gold.Chemscore.Hbonds>
donor molecule, donor type, donor heavy atom, donor atom, acceptor molecule, acceptor atom, score
      P1  H  7997  8010       L1    12  0.89

> <Gold.Chemscore.Hbond.Weighted>
-2.8508

> <Gold.Chemscore.Metal.Weighted>
-0.0000

> <Gold.Chemscore.Lipo.Weighted>
-11.9137

> <Gold.Chemscore.Internal_Hbond.Weighted>
0.0000

> <Gold.Chemscore.DEClash.Weighted>
0.0786

> <Gold.Chemscore.DEInternal.Weighted>
1.6981

> <Gold.Chemscore.Rot.Weighted>
4.1416

> <Gold.Chemscore.Internal.Correction.Weighted>
   9.000000E+99

> <Gold.Protein.RotatedTorsions>
[ 6907 6896 6895 6894 ] final -158.96 input  -60.11 | X-H torsion
[ 7974 7965 7964 7962 ] final   12.09 input  175.53 | X-H torsion
[ 8008 7997 7996 7995 ] final   38.48 input   59.86 | X-H torsion
[ 10167 10162 10161 10158 ] final -143.09 input  -65.29 | X-H torsion
[ 10718 10713 10712 10709 ] final  -55.00 input   66.30 | X-H torsion
[ 10763 10752 10751 10750 ] final -164.93 input  -60.55 | X-H torsion
[ 11005 11000 10999 10996 ] final    3.98 input  -57.11 | X-H torsion

> <Gold.Protein.ActiveResidues>
 VAL166  LYS551  ARG553  GLY616  TRP617  ASP618  TYR619  PRO620  LYS621  CYS622 
 ASP623  PHE694  ASN695  SER759  ASP760  ASP761  ALA762  ILE779  LEU786  VAL792 
 PHE793  MET794  SER795  GLU796  ALA797  LYS798  CYS799  TRP800  GLU811  SER814 

> <Gold.Protein.RotatedAtoms>
  151.3262  133.4019  159.2658 H   0  0  0  0  0  0  0  0  0  0  0  0  # atno 6907 bound_to 6896
  150.9993  134.9310  159.7955 H   0  0  0  0  0  0  0  0  0  0  0  0  # atno 6908 bound_to 6896
  152.5270  134.3227  159.9206 H   0  0  0  0  0  0  0  0  0  0  0  0  # atno 6909 bound_to 6896
  146.2358  139.9388  142.8486 H   0  0  0  0  0  0  0  0  0  0  0  0  # atno 7974 bound_to 7965
  155.2209  140.3331  155.4316 H   0  0  0  0  0  0  0  0  0  0  0  0  # atno 8008 bound_to 7997
  156.2333  140.1861  156.7232 H   0  0  0  0  0  0  0  0  0  0  0  0  # atno 8009 bound_to 7997
  154.6016  140.0622  156.9361 H   0  0  0  0  0  0  0  0  0  0  0  0  # atno 8010 bound_to 7997
  139.8027  143.7811  152.2659 H   0  0  0  0  0  0  0  0  0  0  0  0  # atno 10167 bound_to 10162
  156.1404  130.4155  150.0113 H   0  0  0  0  0  0  0  0  0  0  0  0  # atno 10718 bound_to 10713
  154.6981  135.2983  154.9381 H   0  0  0  0  0  0  0  0  0  0  0  0  # atno 10763 bound_to 10752
  154.0322  135.6668  153.4786 H   0  0  0  0  0  0  0  0  0  0  0  0  # atno 10764 bound_to 10752
  153.0661  135.5087  154.8110 H   0  0  0  0  0  0  0  0  0  0  0  0  # atno 10765 bound_to 10752
  140.5871  133.9959  155.8072 H   0  0  0  0  0  0  0  0  0  0  0  0  # atno 11005 bound_to 11000
  145.1973  140.9838  143.4176 LP  0  0  0  0  0  0  0  0  0  0  0  0  # atno 17320 bound_to 7965
  144.9804  139.3789  143.6264 LP  0  0  0  0  0  0  0  0  0  0  0  0  # atno 17321 bound_to 7965
  139.7936  144.7401  150.9920 LP  0  0  0  0  0  0  0  0  0  0  0  0  # atno 17342 bound_to 10162
  140.7820  143.4416  151.0543 LP  0  0  0  0  0  0  0  0  0  0  0  0  # atno 17343 bound_to 10162
  156.8000  130.9287  151.3646 LP  0  0  0  0  0  0  0  0  0  0  0  0  # atno 17370 bound_to 10713
  157.6570  130.8933  149.9750 LP  0  0  0  0  0  0  0  0  0  0  0  0  # atno 17371 bound_to 10713
  141.0959  133.9844  157.3161 LP  0  0  0  0  0  0  0  0  0  0  0  0  # atno 17394 bound_to 11000
  139.9291  135.0200  156.8337 LP  0  0  0  0  0  0  0  0  0  0  0  0  # atno 17395 bound_to 11000

$$$$
