AV-unprocessed.smi:912|AV-procd|sdf|4147|dock5
  -GOLD-   22720 2 53D 1   1.00000     0.00000
 Structure written by MMmdl.
 26 26  0  0  0  0  0  0  0  0  3 V2000
  146.7429  139.1122  152.0584 C   0  0  0  0  0  0  0  0  0  0  0  0
  148.0525  138.7192  152.6276 N   0  3  0  0  0  0  0  0  0  0  0  0
  148.2931  138.9873  154.0769 C   0  0  2  0  0  0  0  0  0  0  0  0
  147.1607  138.3729  154.9367 C   0  0  0  0  0  0  0  0  0  0  0  0
  148.3711  140.5332  154.2648 C   0  0  0  0  0  0  0  0  0  0  0  0
  149.1970  141.1436  153.3847 N   0  5  0  0  0  0  0  0  0  0  0  0
  147.7134  141.0809  155.1485 O   0  0  0  0  0  0  0  0  0  0  0  0
  149.6157  138.3127  154.5068 C   0  0  0  0  0  0  0  0  0  0  0  0
  149.6435  137.2320  155.4245 C   0  0  0  0  0  0  0  0  0  0  0  0
  150.8772  136.6373  155.7536 C   0  0  0  0  0  0  0  0  0  0  0  0
  152.0544  137.0303  155.2259 N   0  0  0  0  0  0  0  0  0  0  0  0
  152.0332  138.0409  154.3340 C   0  0  0  0  0  0  0  0  0  0  0  0
  150.8543  138.7035  153.9383 C   0  0  0  0  0  0  0  0  0  0  0  0
  146.7557  138.9497  150.9810 H   0  0  0  0  0  0  0  0  0  0  0  0
  146.5234  140.1658  152.2318 H   0  0  0  0  0  0  0  0  0  0  0  0
  145.9323  138.5116  152.4706 H   0  0  0  0  0  0  0  0  0  0  0  0
  148.1748  137.7297  152.4718 H   0  0  0  0  0  0  0  0  0  0  0  0
  147.3701  138.4840  156.0018 H   0  0  0  0  0  0  0  0  0  0  0  0
  147.0511  137.3059  154.7401 H   0  0  0  0  0  0  0  0  0  0  0  0
  146.1935  138.8422  154.7539 H   0  0  0  0  0  0  0  0  0  0  0  0
  149.3948  140.6886  152.4858 H   0  0  0  0  0  0  0  0  0  0  0  0
  148.7395  136.8506  155.8761 H   0  0  0  0  0  0  0  0  0  0  0  0
  150.9172  135.8169  156.4546 H   0  0  0  0  0  0  0  0  0  0  0  0
  152.9864  138.3281  153.9149 H   0  0  0  0  0  0  0  0  0  0  0  0
  150.9206  139.4922  153.2043 H   0  0  0  0  0  0  0  0  0  0  0  0
  148.7735  139.2147  152.1219 H   0  0  0  0  0  0  0  0  0  0  0  0
  1  2  1  0  0  0  0
  1 14  1  0  0  0  0
  1 15  1  0  0  0  0
  1 16  1  0  0  0  0
  2  3  1  0  0  0  0
  2 17  1  0  0  0  0
  2 26  1  0  0  0  0
  3  4  1  0  0  0  0
  3  5  1  0  0  0  0
  3  8  1  0  0  0  0
  4 18  1  0  0  0  0
  4 19  1  0  0  0  0
  4 20  1  0  0  0  0
  5  6  1  0  0  0  0
  5  7  2  0  0  0  0
  6 21  1  0  0  0  0
  8 13  1  0  0  0  0
  8  9  2  0  0  0  0
  9 10  1  0  0  0  0
  9 22  1  0  0  0  0
 10 11  2  0  0  0  0
 10 23  1  0  0  0  0
 11 12  1  0  0  0  0
 12 13  2  0  0  0  0
 12 24  1  0  0  0  0
 13 25  1  0  0  0  0
M  CHG  1   2   1
M  CHG  1   6  -1
M  END
> <s_m_source_file>
AV-unprocessed.smi

> <i_m_source_file_index>
912

> <i_lp_mmshare_version>
43012

> <i_f3d_flags>
0

> <s_epik_input>
W0NIM11bTkhdW0NAQF0oW0NIM10pKEMoPU8pW05IMl0pYzFbY0hdW2NIXW5bY0hdW2NIXTE=

> <s_epik_cmdline>
J2VwaWtfcHl0aG9uJywgJy1waCcsICc3LjAnLCAnLXRuJywgJzgnLCAnLW1hJywgJzIwMCcsICctbWV0YWxfYmluZGluZycsICctaW1hZScsICc8aW5maWxlLm1hZT4nLCAnLW9tYWUnLCAnPG91dGZpbGUubWFlPic=

> <r_epik_Ionization_Penalty>
6.88213

> <r_epik_Ionization_Penalty_Charging>
6.88153

> <r_epik_Ionization_Penalty_Neutral>
0.000601258

> <r_epik_State_Penalty>
7.02604

> <r_epik_Charging_Adjusted_Penalty>
13.9076

> <i_epik_Tot_Q>
0

> <i_epik_Tot_abs_Q>
2

> <r_epik_Metal_State_Penalty>
3.10652

> <b_epik_Metal_Only>
1

> <s_lp_Force_Field>
OPLS_2005

> <r_lp_Energy>
7.66147

> <b_lp_Chiralities_Consistent>
1

> <s_lp_Variant>
AV-unprocessed.smi:912-8

> <Gold.Version>
5.8.1

> <Gold.Id.Protein>
6NUR|6NUR_protein|mol2

> <Gold.PLP.Fitness>
38.5078

> <Gold.PLP.PLP>
-24.3949

> <Gold.PLP.part.hbond>
-5.9429

> <Gold.PLP.part.metal>
0.0000

> <Gold.PLP.part.buried>
-4.0222

> <Gold.PLP.part.nonpolar>
-15.0499

> <Gold.PLP.part.repulsive>
0.2091

> <Gold.PLP.ligand.clash>
0.0000

> <Gold.PLP.ligand.torsion>
0.4246

> <Gold.PLP.Chemscore.Hbond>
4.9760

> <Gold.PLP.Chemscore.CHOScore>
0.0000

> <Gold.PLP.Chemscore.Metal>
0.0000

> <Gold.Chemscore.Hbonds>
donor molecule, donor type, donor heavy atom, donor atom, acceptor molecule, acceptor atom, score
      L1  H     2    17       P1  7948  2.00
      L1  H     2    26       P1  7957  0.93
      L1  H     6    21       P1  7957  0.88
      P1  H 10752 10765       L1    11  0.96

> <Gold.PLP.Chemscore.Internal.Correction>
0.0341

> <Gold.Rescore>
     Score         DG    S(hbond)    S(metal)    S(lipo)     H(rot)  DE(clash)    DE(int)     intcor
     17.39     -18.89       3.74        0.00      47.36       1.80       0.06       1.44       ----

> <Gold.Chemscore.Fitness>
17.3857

> <Gold.Chemscore.DG>
-18.8868

> <Gold.Chemscore.ZeroCoef>
-5.4800

> <Gold.Chemscore.Hbond>
3.7375

> <Gold.Chemscore.Metal>
0.0000

> <Gold.Chemscore.Lipo>
47.3584

> <Gold.Chemscore.Internal_Hbond>
0.0000

> <Gold.Chemscore.DEClash>
0.0600

> <Gold.Chemscore.DEInternal>
1.4411

> <Gold.Chemscore.Rot>
1.8037

> <Gold.Chemscore.Internal.Correction>
   9.000000E+99

> <Gold.Chemscore.Hbonds>
donor molecule, donor type, donor heavy atom, donor atom, acceptor molecule, acceptor atom, score
      L1  H     2    17       P1  7948  0.99
      L1  H     2    26       P1  7957  0.88
      L1  H     6    21       P1  7957  0.86
      P1  H 10752 10765       L1    11  0.61

> <Gold.Chemscore.Hbond.Weighted>
-12.4833

> <Gold.Chemscore.Metal.Weighted>
-0.0000

> <Gold.Chemscore.Lipo.Weighted>
-5.5409

> <Gold.Chemscore.Internal_Hbond.Weighted>
0.0000

> <Gold.Chemscore.DEClash.Weighted>
0.0600

> <Gold.Chemscore.DEInternal.Weighted>
1.4411

> <Gold.Chemscore.Rot.Weighted>
4.6174

> <Gold.Chemscore.Internal.Correction.Weighted>
   9.000000E+99

> <Gold.Protein.RotatedTorsions>
[ 6907 6896 6895 6894 ] final    0.62 input  -60.11 | X-H torsion
[ 7974 7965 7964 7962 ] final  104.30 input  175.53 | X-H torsion
[ 8008 7997 7996 7995 ] final  -56.96 input   59.86 | X-H torsion
[ 10167 10162 10161 10158 ] final  117.27 input  -65.29 | X-H torsion
[ 10718 10713 10712 10709 ] final   31.40 input   66.30 | X-H torsion
[ 10763 10752 10751 10750 ] final -173.76 input  -60.55 | X-H torsion
[ 11005 11000 10999 10996 ] final -174.92 input  -57.11 | X-H torsion

> <Gold.Protein.ActiveResidues>
 VAL166  LYS551  ARG553  GLY616  TRP617  ASP618  TYR619  PRO620  LYS621  CYS622 
 ASP623  PHE694  ASN695  SER759  ASP760  ASP761  ALA762  ILE779  LEU786  VAL792 
 PHE793  MET794  SER795  GLU796  ALA797  LYS798  CYS799  TRP800  GLU811  SER814 

> <Gold.Protein.RotatedAtoms>
  151.5794  135.1059  160.0013 H   0  0  0  0  0  0  0  0  0  0  0  0  # atno 6907 bound_to 6896
  152.4361  133.7360  159.6624 H   0  0  0  0  0  0  0  0  0  0  0  0  # atno 6908 bound_to 6896
  150.8259  133.8102  159.3142 H   0  0  0  0  0  0  0  0  0  0  0  0  # atno 6909 bound_to 6896
  145.3346  139.2478  143.3642 H   0  0  0  0  0  0  0  0  0  0  0  0  # atno 7974 bound_to 7965
  154.4250  140.1117  156.5722 H   0  0  0  0  0  0  0  0  0  0  0  0  # atno 8008 bound_to 7997
  155.6200  140.3495  155.4630 H   0  0  0  0  0  0  0  0  0  0  0  0  # atno 8009 bound_to 7997
  156.0031  140.1203  157.0517 H   0  0  0  0  0  0  0  0  0  0  0  0  # atno 8010 bound_to 7997
  139.6190  144.7097  151.2676 H   0  0  0  0  0  0  0  0  0  0  0  0  # atno 10167 bound_to 10162
  157.2720  130.7213  149.6509 H   0  0  0  0  0  0  0  0  0  0  0  0  # atno 10718 bound_to 10713
  154.6041  135.2857  155.0503 H   0  0  0  0  0  0  0  0  0  0  0  0  # atno 10763 bound_to 10752
  154.1757  135.6465  153.5025 H   0  0  0  0  0  0  0  0  0  0  0  0  # atno 10764 bound_to 10752
  153.0168  135.5411  154.6771 H   0  0  0  0  0  0  0  0  0  0  0  0  # atno 10765 bound_to 10752
  140.4691  134.6182  157.4875 H   0  0  0  0  0  0  0  0  0  0  0  0  # atno 11005 bound_to 11000
  146.3032  140.3931  142.8696 LP  0  0  0  0  0  0  0  0  0  0  0  0  # atno 17320 bound_to 7965
  144.8837  140.7434  143.5970 LP  0  0  0  0  0  0  0  0  0  0  0  0  # atno 17321 bound_to 7965
  140.7370  143.6692  150.8097 LP  0  0  0  0  0  0  0  0  0  0  0  0  # atno 17342 bound_to 10162
  140.0299  143.5454  152.2764 LP  0  0  0  0  0  0  0  0  0  0  0  0  # atno 17343 bound_to 10162
  155.9663  130.4364  150.5134 LP  0  0  0  0  0  0  0  0  0  0  0  0  # atno 17370 bound_to 10713
  157.3061  131.0654  151.2034 LP  0  0  0  0  0  0  0  0  0  0  0  0  # atno 17371 bound_to 10713
  139.9896  134.7006  155.9712 LP  0  0  0  0  0  0  0  0  0  0  0  0  # atno 17394 bound_to 11000
  141.1585  133.6540  156.4241 LP  0  0  0  0  0  0  0  0  0  0  0  0  # atno 17395 bound_to 11000

$$$$
