AV-unprocessed.smi:513|AV-procd|sdf|2772|dock6
  -GOLD-   2262023243D 1   1.00000     0.00000
 Structure written by MMmdl.
 43 45  0  0  0  0  0  0  0  0  2 V2000
  149.3450  141.5570  156.4133 C   0  0  0  0  0  0  0  0  0  0  0  0
  150.6657  141.0984  156.6419 O   0  0  0  0  0  0  0  0  0  0  0  0
  151.0175  141.1207  158.0141 C   0  0  0  0  0  0  0  0  0  0  0  0
  152.5340  141.3106  158.1308 C   0  0  0  0  0  0  0  0  0  0  0  0
  152.9642  141.3296  159.5264 N   0  0  0  0  0  0  0  0  0  0  0  0
  152.8139  142.3203  160.4489 C   0  0  0  0  0  0  0  0  0  0  0  0
  152.1630  143.5212  160.1584 N   0  0  0  0  0  0  0  0  0  0  0  0
  152.4082  144.2986  158.9460 C   0  0  0  0  0  0  0  0  0  0  0  0
  151.0892  144.6782  158.2470 C   0  0  0  0  0  0  0  0  0  0  0  0
  150.1961  145.4051  159.1734 N   0  3  0  0  0  0  0  0  0  0  0  0
  149.9919  144.6869  160.4486 C   0  0  0  0  0  0  0  0  0  0  0  0
  151.3474  144.3144  161.0770 C   0  0  0  0  0  0  0  0  0  0  0  0
  153.3888  142.0733  161.6287 N   0  0  0  0  0  0  0  0  0  0  0  0
  153.9323  140.8098  161.4561 C   0  0  0  0  0  0  0  0  0  0  0  0
  153.7034  140.3531  160.1984 C   0  0  0  0  0  0  0  0  0  0  0  0
  154.2206  139.0603  159.7268 C   0  0  0  0  0  0  0  0  0  0  0  0
  154.0488  138.6344  158.5870 O   0  0  0  0  0  0  0  0  0  0  0  0
  154.9203  138.3893  160.6738 N   0  0  0  0  0  0  0  0  0  0  0  0
  155.1808  138.7893  161.9556 C   0  0  0  0  0  0  0  0  0  0  0  0
  155.8477  138.0707  162.6998 O   0  0  0  0  0  0  0  0  0  0  0  0
  154.6797  140.0008  162.3587 N   0  0  0  0  0  0  0  0  0  0  0  0
  154.9287  140.4878  163.7169 C   0  0  0  0  0  0  0  0  0  0  0  0
  155.2999  137.4948  160.3999 H   0  0  0  0  0  0  0  0  0  0  0  0
  149.1291  141.5325  155.3452 H   0  0  0  0  0  0  0  0  0  0  0  0
  149.2179  142.5837  156.7590 H   0  0  0  0  0  0  0  0  0  0  0  0
  148.6147  140.9242  156.9192 H   0  0  0  0  0  0  0  0  0  0  0  0
  150.4960  141.9314  158.5256 H   0  0  0  0  0  0  0  0  0  0  0  0
  150.7180  140.1839  158.4868 H   0  0  0  0  0  0  0  0  0  0  0  0
  153.0500  140.5220  157.5925 H   0  0  0  0  0  0  0  0  0  0  0  0
  152.8433  142.2286  157.6353 H   0  0  0  0  0  0  0  0  0  0  0  0
  152.9755  145.1947  159.2017 H   0  0  0  0  0  0  0  0  0  0  0  0
  153.0303  143.7227  158.2598 H   0  0  0  0  0  0  0  0  0  0  0  0
  151.2840  145.2996  157.3729 H   0  0  0  0  0  0  0  0  0  0  0  0
  150.5798  143.7802  157.8946 H   0  0  0  0  0  0  0  0  0  0  0  0
  150.6201  146.2982  159.3804 H   0  0  0  0  0  0  0  0  0  0  0  0
  149.4156  145.3158  161.1271 H   0  0  0  0  0  0  0  0  0  0  0  0
  149.3990  143.7909  160.2606 H   0  0  0  0  0  0  0  0  0  0  0  0
  151.2102  143.7899  162.0218 H   0  0  0  0  0  0  0  0  0  0  0  0
  151.8959  145.2236  161.3283 H   0  0  0  0  0  0  0  0  0  0  0  0
  154.7705  139.7015  164.4569 H   0  0  0  0  0  0  0  0  0  0  0  0
  154.2691  141.3127  163.9867 H   0  0  0  0  0  0  0  0  0  0  0  0
  155.9573  140.8393  163.8069 H   0  0  0  0  0  0  0  0  0  0  0  0
  149.3035  145.5618  158.7275 H   0  0  0  0  0  0  0  0  0  0  0  0
  1  2  1  0  0  0  0
  1 24  1  0  0  0  0
  1 25  1  0  0  0  0
  1 26  1  0  0  0  0
  2  3  1  0  0  0  0
  3  4  1  0  0  0  0
  3 27  1  0  0  0  0
  3 28  1  0  0  0  0
  4  5  1  0  0  0  0
  4 29  1  0  0  0  0
  4 30  1  0  0  0  0
  5 15  1  0  0  0  0
  5  6  1  0  0  0  0
  6  7  1  0  0  0  0
  6 13  2  0  0  0  0
  7 12  1  0  0  0  0
  7  8  1  0  0  0  0
  8  9  1  0  0  0  0
  8 31  1  0  0  0  0
  8 32  1  0  0  0  0
  9 10  1  0  0  0  0
  9 33  1  0  0  0  0
  9 34  1  0  0  0  0
 10 11  1  0  0  0  0
 10 35  1  0  0  0  0
 10 43  1  0  0  0  0
 11 12  1  0  0  0  0
 11 36  1  0  0  0  0
 11 37  1  0  0  0  0
 12 38  1  0  0  0  0
 12 39  1  0  0  0  0
 13 14  1  0  0  0  0
 14 21  1  0  0  0  0
 14 15  2  0  0  0  0
 15 16  1  0  0  0  0
 16 17  2  0  0  0  0
 16 18  1  0  0  0  0
 18 23  1  0  0  0  0
 18 19  1  0  0  0  0
 19 20  2  0  0  0  0
 19 21  1  0  0  0  0
 21 22  1  0  0  0  0
 22 40  1  0  0  0  0
 22 41  1  0  0  0  0
 22 42  1  0  0  0  0
M  CHG  1  10   1
M  END
> <s_m_source_file>
AV-unprocessed.smi

> <i_m_source_file_index>
513

> <i_lp_mmshare_version>
43012

> <i_f3d_flags>
0

> <s_epik_input>
W0NIM11uMWMoPU8pW25IXWMoPU8pYyhjMTIpbihbQ0gyXVtDSDJdT1tDSDNdKWMobjIpTjNbQ0gyXVtDSDJdW05IXVtDSDJdW0NIMl0z

> <s_epik_cmdline>
J2VwaWtfcHl0aG9uJywgJy1waCcsICc3LjAnLCAnLXRuJywgJzgnLCAnLW1hJywgJzIwMCcsICctbWV0YWxfYmluZGluZycsICctaW1hZScsICc8aW5maWxlLm1hZT4nLCAnLW9tYWUnLCAnPG91dGZpbGUubWFlPic=

> <r_epik_Ionization_Penalty>
0.00860422

> <r_epik_Ionization_Penalty_Charging>
0.00860232

> <r_epik_Ionization_Penalty_Neutral>
1.90009e-06

> <r_epik_State_Penalty>
0.00646614

> <r_epik_Charging_Adjusted_Penalty>
0.0150685

> <i_epik_Tot_Q>
1

> <i_epik_Tot_abs_Q>
1

> <r_epik_Metal_State_Penalty>
0.0348233

> <b_epik_Metal_Only>
0

> <s_lp_Force_Field>
OPLS_2005

> <r_lp_Energy>
48.3968

> <b_lp_Chiralities_Consistent>
1

> <s_lp_Variant>
AV-unprocessed.smi:513-1

> <Gold.Version>
5.8.1

> <Gold.Id.Protein>
6NUR|6NUR_protein|mol2

> <Gold.PLP.Fitness>
47.0741

> <Gold.PLP.PLP>
-39.5245

> <Gold.PLP.part.hbond>
-2.0000

> <Gold.PLP.part.metal>
0.0000

> <Gold.PLP.part.buried>
-2.6475

> <Gold.PLP.part.nonpolar>
-34.3195

> <Gold.PLP.part.repulsive>
0.3335

> <Gold.PLP.ligand.clash>
0.0000

> <Gold.PLP.ligand.torsion>
0.9656

> <Gold.PLP.Chemscore.Hbond>
2.9913

> <Gold.PLP.Chemscore.CHOScore>
0.0000

> <Gold.PLP.Chemscore.Metal>
0.0000

> <Gold.Chemscore.Hbonds>
donor molecule, donor type, donor heavy atom, donor atom, acceptor molecule, acceptor atom, score
      L1  H    10    43       P1  8029  1.92
      P1  H  7997  8010       L1    17  0.73

> <Gold.PLP.Chemscore.Internal.Correction>
0.5070

> <Gold.Rescore>
     Score         DG    S(hbond)    S(metal)    S(lipo)     H(rot)  DE(clash)    DE(int)     intcor
     13.97     -15.89       1.54        0.00      79.26       1.57       0.19       1.74       ----

> <Gold.Chemscore.Fitness>
13.9655

> <Gold.Chemscore.DG>
-15.8929

> <Gold.Chemscore.ZeroCoef>
-5.4800

> <Gold.Chemscore.Hbond>
1.5439

> <Gold.Chemscore.Metal>
0.0000

> <Gold.Chemscore.Lipo>
79.2618

> <Gold.Chemscore.Internal_Hbond>
0.0000

> <Gold.Chemscore.DEClash>
0.1904

> <Gold.Chemscore.DEInternal>
1.7369

> <Gold.Chemscore.Rot>
1.5693

> <Gold.Chemscore.Internal.Correction>
   9.000000E+99

> <Gold.Chemscore.Hbonds>
donor molecule, donor type, donor heavy atom, donor atom, acceptor molecule, acceptor atom, score
      L1  H    10    43       P1  8029  0.89
      P1  H  7997  8010       L1    17  0.63

> <Gold.Chemscore.Hbond.Weighted>
-5.1568

> <Gold.Chemscore.Metal.Weighted>
-0.0000

> <Gold.Chemscore.Lipo.Weighted>
-9.2736

> <Gold.Chemscore.Internal_Hbond.Weighted>
0.0000

> <Gold.Chemscore.DEClash.Weighted>
0.1904

> <Gold.Chemscore.DEInternal.Weighted>
1.7369

> <Gold.Chemscore.Rot.Weighted>
4.0175

> <Gold.Chemscore.Internal.Correction.Weighted>
   9.000000E+99

> <Gold.Protein.RotatedTorsions>
[ 6907 6896 6895 6894 ] final -169.32 input  -60.11 | X-H torsion
[ 7974 7965 7964 7962 ] final   80.58 input  175.53 | X-H torsion
[ 8008 7997 7996 7995 ] final   32.68 input   59.86 | X-H torsion
[ 10167 10162 10161 10158 ] final   24.93 input  -65.29 | X-H torsion
[ 10718 10713 10712 10709 ] final   23.68 input   66.30 | X-H torsion
[ 10763 10752 10751 10750 ] final -161.31 input  -60.55 | X-H torsion
[ 11005 11000 10999 10996 ] final   80.93 input  -57.11 | X-H torsion

> <Gold.Protein.ActiveResidues>
 VAL166  LYS551  ARG553  GLY616  TRP617  ASP618  TYR619  PRO620  LYS621  CYS622 
 ASP623  PHE694  ASN695  SER759  ASP760  ASP761  ALA762  ILE779  LEU786  VAL792 
 PHE793  MET794  SER795  GLU796  ALA797  LYS798  CYS799  TRP800  GLU811  SER814 

> <Gold.Protein.RotatedAtoms>
  151.4898  133.3527  159.2851 H   0  0  0  0  0  0  0  0  0  0  0  0  # atno 6907 bound_to 6896
  150.8842  134.8240  159.7258 H   0  0  0  0  0  0  0  0  0  0  0  0  # atno 6908 bound_to 6896
  152.4782  134.4799  159.9714 H   0  0  0  0  0  0  0  0  0  0  0  0  # atno 6909 bound_to 6896
  145.6494  139.2444  143.1985 H   0  0  0  0  0  0  0  0  0  0  0  0  # atno 7974 bound_to 7965
  155.1263  140.3253  155.4485 H   0  0  0  0  0  0  0  0  0  0  0  0  # atno 8008 bound_to 7997
  156.2648  140.2018  156.6332 H   0  0  0  0  0  0  0  0  0  0  0  0  # atno 8009 bound_to 7997
  154.6646  140.0543  157.0086 H   0  0  0  0  0  0  0  0  0  0  0  0  # atno 8010 bound_to 7997
  140.5148  144.0101  150.6389 H   0  0  0  0  0  0  0  0  0  0  0  0  # atno 10167 bound_to 10162
  157.1695  130.6753  149.6072 H   0  0  0  0  0  0  0  0  0  0  0  0  # atno 10718 bound_to 10713
  154.7315  135.3047  154.8884 H   0  0  0  0  0  0  0  0  0  0  0  0  # atno 10763 bound_to 10752
  153.9725  135.6740  153.4751 H   0  0  0  0  0  0  0  0  0  0  0  0  # atno 10764 bound_to 10752
  153.0922  135.4953  154.8633 H   0  0  0  0  0  0  0  0  0  0  0  0  # atno 10765 bound_to 10752
  139.9116  134.7958  156.1975 H   0  0  0  0  0  0  0  0  0  0  0  0  # atno 11005 bound_to 11000
  146.1216  140.7301  142.9455 LP  0  0  0  0  0  0  0  0  0  0  0  0  # atno 17320 bound_to 7965
  144.7128  140.4102  143.7067 LP  0  0  0  0  0  0  0  0  0  0  0  0  # atno 17321 bound_to 7965
  140.3433  143.3006  152.0564 LP  0  0  0  0  0  0  0  0  0  0  0  0  # atno 17342 bound_to 10162
  139.4906  144.6426  151.6844 LP  0  0  0  0  0  0  0  0  0  0  0  0  # atno 17343 bound_to 10162
  155.9741  130.4684  150.6358 LP  0  0  0  0  0  0  0  0  0  0  0  0  # atno 17370 bound_to 10713
  157.4057  131.0816  151.1268 LP  0  0  0  0  0  0  0  0  0  0  0  0  # atno 17371 bound_to 10713
  141.0546  133.6872  156.1835 LP  0  0  0  0  0  0  0  0  0  0  0  0  # atno 17394 bound_to 11000
  140.6757  134.4820  157.5588 LP  0  0  0  0  0  0  0  0  0  0  0  0  # atno 17395 bound_to 11000

$$$$
