AV-unprocessed.smi:2120|AV-procd|sdf|8638|dock1
  -GOLD-   2272011383D 1   1.00000     0.00000
 Structure written by MMmdl.
 45 48  0  0  0  0  0  0  0  0  1 V2000
  151.6175  141.2995  157.5071 O   0  0  0  0  0  0  0  0  0  0  0  0
  150.7676  142.0274  156.9919 C   0  0  0  0  0  0  0  0  0  0  0  0
  150.8627  143.3675  157.0210 N   0  0  0  0  0  0  0  0  0  0  0  0
  151.9420  144.1205  157.6489 C   0  0  0  0  0  0  0  0  0  0  0  0
  151.6394  144.4268  159.1254 C   0  0  0  0  0  0  0  0  0  0  0  0
  152.3898  143.5055  160.0670 C   0  0  0  0  0  0  0  0  0  0  0  0
  152.2712  143.6531  161.4645 C   0  0  0  0  0  0  0  0  0  0  0  0
  152.9876  142.7774  162.3026 C   0  0  0  0  0  0  0  0  0  0  0  0
  153.7925  141.7866  161.7056 C   0  0  0  0  0  0  0  0  0  0  0  0
  153.9130  141.6353  160.3689 N   0  0  0  0  0  0  0  0  0  0  0  0
  153.2239  142.4803  159.5721 C   0  0  0  0  0  0  0  0  0  0  0  0
  149.5493  141.3934  156.2796 C   0  0  0  0  0  0  0  0  0  0  0  0
  149.6093  139.8501  156.4442 C   0  0  0  0  0  0  0  0  0  0  0  0
  148.3761  139.1916  155.7886 C   0  0  1  0  0  0  0  0  0  0  0  0
  147.0913  139.7130  156.4656 C   0  0  0  0  0  0  0  0  0  0  0  0
  147.0092  141.2437  156.2885 C   0  0  2  0  0  0  0  0  0  0  0  0
  146.9725  141.5903  154.7859 C   0  0  0  0  0  0  0  0  0  0  0  0
  148.2562  141.0637  154.1116 C   0  0  2  0  0  0  0  0  0  0  0  0
  148.3433  139.5329  154.2840 C   0  0  0  0  0  0  0  0  0  0  0  0
  149.4909  141.7266  154.7586 C   0  0  0  0  0  0  0  0  0  0  0  0
  148.2406  141.9056  156.9435 C   0  0  0  0  0  0  0  0  0  0  0  0
  150.1297  143.9029  156.5788 H   0  0  0  0  0  0  0  0  0  0  0  0
  152.8547  143.5291  157.5730 H   0  0  0  0  0  0  0  0  0  0  0  0
  152.1214  145.0419  157.0922 H   0  0  0  0  0  0  0  0  0  0  0  0
  151.9115  145.4556  159.3648 H   0  0  0  0  0  0  0  0  0  0  0  0
  150.5679  144.3409  159.3119 H   0  0  0  0  0  0  0  0  0  0  0  0
  151.6447  144.4251  161.8870 H   0  0  0  0  0  0  0  0  0  0  0  0
  152.9220  142.8624  163.3773 H   0  0  0  0  0  0  0  0  0  0  0  0
  154.3548  141.0980  162.3187 H   0  0  0  0  0  0  0  0  0  0  0  0
  153.3434  142.3324  158.5088 H   0  0  0  0  0  0  0  0  0  0  0  0
  150.5207  139.4557  155.9920 H   0  0  0  0  0  0  0  0  0  0  0  0
  149.6501  139.5750  157.4996 H   0  0  0  0  0  0  0  0  0  0  0  0
  148.4356  138.1099  155.9122 H   0  0  0  0  0  0  0  0  0  0  0  0
  146.2131  139.2341  156.0304 H   0  0  0  0  0  0  0  0  0  0  0  0
  147.0904  139.4544  157.5251 H   0  0  0  0  0  0  0  0  0  0  0  0
  146.1026  141.6146  156.7673 H   0  0  0  0  0  0  0  0  0  0  0  0
  146.0915  141.1492  154.3178 H   0  0  0  0  0  0  0  0  0  0  0  0
  146.8877  142.6690  154.6487 H   0  0  0  0  0  0  0  0  0  0  0  0
  148.2307  141.3067  153.0488 H   0  0  0  0  0  0  0  0  0  0  0  0
  149.2348  139.1464  153.7885 H   0  0  0  0  0  0  0  0  0  0  0  0
  147.4902  139.0499  153.8056 H   0  0  0  0  0  0  0  0  0  0  0  0
  149.4464  142.8059  154.6034 H   0  0  0  0  0  0  0  0  0  0  0  0
  150.3915  141.3766  154.2509 H   0  0  0  0  0  0  0  0  0  0  0  0
  148.2372  141.6909  158.0135 H   0  0  0  0  0  0  0  0  0  0  0  0
  148.1688  142.9905  156.8513 H   0  0  0  0  0  0  0  0  0  0  0  0
  1  2  2  0  0  0  0
  2  3  1  0  0  0  0
  2 12  1  0  0  0  0
  3  4  1  0  0  0  0
  3 22  1  0  0  0  0
  4  5  1  0  0  0  0
  4 23  1  0  0  0  0
  4 24  1  0  0  0  0
  5  6  1  0  0  0  0
  5 25  1  0  0  0  0
  5 26  1  0  0  0  0
  6 11  1  0  0  0  0
  6  7  2  0  0  0  0
  7  8  1  0  0  0  0
  7 27  1  0  0  0  0
  8  9  2  0  0  0  0
  8 28  1  0  0  0  0
  9 10  1  0  0  0  0
  9 29  1  0  0  0  0
 10 11  2  0  0  0  0
 11 30  1  0  0  0  0
 12 20  1  0  0  0  0
 12 21  1  0  0  0  0
 12 13  1  0  0  0  0
 13 14  1  0  0  0  0
 13 31  1  0  0  0  0
 13 32  1  0  0  0  0
 14 19  1  0  0  0  0
 14 15  1  0  0  0  0
 14 33  1  0  0  0  0
 15 16  1  0  0  0  0
 15 34  1  0  0  0  0
 15 35  1  0  0  0  0
 16 17  1  0  0  0  0
 16 21  1  0  0  0  0
 16 36  1  0  0  0  0
 17 18  1  0  0  0  0
 17 37  1  0  0  0  0
 17 38  1  0  0  0  0
 18 19  1  0  0  0  0
 18 20  1  0  0  0  0
 18 39  1  0  0  0  0
 19 40  1  0  0  0  0
 19 41  1  0  0  0  0
 20 42  1  0  0  0  0
 20 43  1  0  0  0  0
 21 44  1  0  0  0  0
 21 45  1  0  0  0  0
M  END
> <s_m_source_file>
AV-unprocessed.smi

> <i_m_source_file_index>
2120

> <i_lp_mmshare_version>
43012

> <i_f3d_flags>
0

> <s_epik_input>
W0NIMl0xW0NASF0oW0NIMl0yKVtDSDJdW0NASF0oW0NIMl0zKVtDSDJdW0NAQEhdMVtDSDJdQzIzQyg9TylbTkhdW0NIMl1bQ0gyXWM0W2NIXVtjSF1bY0hdbltjSF00

> <s_epik_cmdline>
J2VwaWtfcHl0aG9uJywgJy1waCcsICc3LjAnLCAnLXRuJywgJzgnLCAnLW1hJywgJzIwMCcsICctbWV0YWxfYmluZGluZycsICctaW1hZScsICc8aW5maWxlLm1hZT4nLCAnLW9tYWUnLCAnPG91dGZpbGUubWFlPic=

> <r_epik_Ionization_Penalty>
0.0137322

> <r_epik_Ionization_Penalty_Charging>
0

> <r_epik_Ionization_Penalty_Neutral>
0.0137322

> <r_epik_State_Penalty>
0.0107033

> <r_epik_Charging_Adjusted_Penalty>
0.0107033

> <i_epik_Tot_Q>
0

> <i_epik_Tot_abs_Q>
0

> <r_epik_Metal_State_Penalty>
0.0104605

> <b_epik_Metal_Only>
0

> <s_lp_Force_Field>
OPLS_2005

> <r_lp_Energy>
34.8386

> <b_lp_Chiralities_Consistent>
1

> <s_lp_Variant>
AV-unprocessed.smi:2120-1

> <Gold.Version>
5.8.1

> <Gold.Id.Protein>
6NUR|6NUR_protein|mol2

> <Gold.PLP.Fitness>
48.8298

> <Gold.PLP.PLP>
-46.8309

> <Gold.PLP.part.hbond>
-1.0000

> <Gold.PLP.part.metal>
0.0000

> <Gold.PLP.part.buried>
-4.5387

> <Gold.PLP.part.nonpolar>
-40.3289

> <Gold.PLP.part.repulsive>
0.0236

> <Gold.PLP.ligand.clash>
0.0000

> <Gold.PLP.ligand.torsion>
0.5107

> <Gold.PLP.Chemscore.Hbond>
1.0000

> <Gold.PLP.Chemscore.CHOScore>
0.0000

> <Gold.PLP.Chemscore.Metal>
0.0000

> <Gold.Chemscore.Hbonds>
donor molecule, donor type, donor heavy atom, donor atom, acceptor molecule, acceptor atom, score
      L1  H     3    22       P1  8028  1.00

> <Gold.PLP.Chemscore.Internal.Correction>
0.0203

> <Gold.Rescore>
     Score         DG    S(hbond)    S(metal)    S(lipo)     H(rot)  DE(clash)    DE(int)     intcor
     20.07     -20.64       1.00        0.00     130.11       1.32       0.07       0.51       ----

> <Gold.Chemscore.Fitness>
20.0704

> <Gold.Chemscore.DG>
-20.6423

> <Gold.Chemscore.ZeroCoef>
-5.4800

> <Gold.Chemscore.Hbond>
0.9975

> <Gold.Chemscore.Metal>
0.0000

> <Gold.Chemscore.Lipo>
130.1068

> <Gold.Chemscore.Internal_Hbond>
0.0000

> <Gold.Chemscore.DEClash>
0.0660

> <Gold.Chemscore.DEInternal>
0.5060

> <Gold.Chemscore.Rot>
1.3250

> <Gold.Chemscore.Internal.Correction>
   9.000000E+99

> <Gold.Chemscore.Hbonds>
donor molecule, donor type, donor heavy atom, donor atom, acceptor molecule, acceptor atom, score
      L1  H     3    22       P1  8028  1.00

> <Gold.Chemscore.Hbond.Weighted>
-3.3318

> <Gold.Chemscore.Metal.Weighted>
-0.0000

> <Gold.Chemscore.Lipo.Weighted>
-15.2225

> <Gold.Chemscore.Internal_Hbond.Weighted>
0.0000

> <Gold.Chemscore.DEClash.Weighted>
0.0660

> <Gold.Chemscore.DEInternal.Weighted>
0.5060

> <Gold.Chemscore.Rot.Weighted>
3.3920

> <Gold.Chemscore.Internal.Correction.Weighted>
   9.000000E+99

> <Gold.Protein.RotatedTorsions>
[ 6907 6896 6895 6894 ] final -127.81 input  -60.11 | X-H torsion
[ 7974 7965 7964 7962 ] final   35.48 input  175.53 | X-H torsion
[ 8008 7997 7996 7995 ] final  173.00 input   59.86 | X-H torsion
[ 10167 10162 10161 10158 ] final    9.30 input  -65.29 | X-H torsion
[ 10718 10713 10712 10709 ] final  -13.09 input   66.30 | X-H torsion
[ 10763 10752 10751 10750 ] final   58.50 input  -60.55 | X-H torsion
[ 11005 11000 10999 10996 ] final  -90.65 input  -57.11 | X-H torsion

> <Gold.Protein.ActiveResidues>
 VAL166  LYS551  ARG553  GLY616  TRP617  ASP618  TYR619  PRO620  LYS621  CYS622 
 ASP623  PHE694  ASN695  SER759  ASP760  ASP761  ALA762  ILE779  LEU786  VAL792 
 PHE793  MET794  SER795  GLU796  ALA797  LYS798  CYS799  TRP800  GLU811  SER814 

> <Gold.Protein.RotatedAtoms>
  150.9112  133.6995  159.2854 H   0  0  0  0  0  0  0  0  0  0  0  0  # atno 6907 bound_to 6896
  151.4481  135.1026  159.9699 H   0  0  0  0  0  0  0  0  0  0  0  0  # atno 6908 bound_to 6896
  152.4931  133.8504  159.7254 H   0  0  0  0  0  0  0  0  0  0  0  0  # atno 6909 bound_to 6896
  146.1280  139.6137  142.9246 H   0  0  0  0  0  0  0  0  0  0  0  0  # atno 7974 bound_to 7965
  156.1119  140.1471  156.9327 H   0  0  0  0  0  0  0  0  0  0  0  0  # atno 8008 bound_to 7997
  154.4773  140.0890  156.7335 H   0  0  0  0  0  0  0  0  0  0  0  0  # atno 8009 bound_to 7997
  155.4581  140.3437  155.4311 H   0  0  0  0  0  0  0  0  0  0  0  0  # atno 8010 bound_to 7997
  140.6263  143.8093  150.7238 H   0  0  0  0  0  0  0  0  0  0  0  0  # atno 10167 bound_to 10162
  156.6352  130.4912  149.6114 H   0  0  0  0  0  0  0  0  0  0  0  0  # atno 10718 bound_to 10713
  152.9872  135.5604  154.5562 H   0  0  0  0  0  0  0  0  0  0  0  0  # atno 10763 bound_to 10752
  154.4989  135.2796  155.1438 H   0  0  0  0  0  0  0  0  0  0  0  0  # atno 10764 bound_to 10752
  154.2877  135.6332  153.5425 H   0  0  0  0  0  0  0  0  0  0  0  0  # atno 10765 bound_to 10752
  141.1561  133.7705  156.9767 H   0  0  0  0  0  0  0  0  0  0  0  0  # atno 11005 bound_to 11000
  145.5324  141.0426  143.2376 LP  0  0  0  0  0  0  0  0  0  0  0  0  # atno 17320 bound_to 7965
  144.7661  139.6842  143.7214 LP  0  0  0  0  0  0  0  0  0  0  0  0  # atno 17321 bound_to 7965
  140.1694  143.4207  152.2011 LP  0  0  0  0  0  0  0  0  0  0  0  0  # atno 17342 bound_to 10162
  139.5483  144.7317  151.4514 LP  0  0  0  0  0  0  0  0  0  0  0  0  # atno 17343 bound_to 10162
  156.2203  130.6733  151.1361 LP  0  0  0  0  0  0  0  0  0  0  0  0  # atno 17370 bound_to 10713
  157.7188  131.0694  150.6221 LP  0  0  0  0  0  0  0  0  0  0  0  0  # atno 17371 bound_to 10713
  140.1093  134.9487  157.2041 LP  0  0  0  0  0  0  0  0  0  0  0  0  # atno 17394 bound_to 11000
  140.3215  134.2911  155.7245 LP  0  0  0  0  0  0  0  0  0  0  0  0  # atno 17395 bound_to 11000

$$$$
