AV-unprocessed.smi:3141|AV-procd|sdf|11969|dock3
  -GOLD-   2272017363D 1   1.00000     0.00000
 Structure written by MMmdl.
 35 37  0  0  0  0  0  0  0  0  1 V2000
  150.1472  143.9248  160.7861 O   0  0  0  0  0  0  0  0  0  0  0  0
  149.5401  144.4185  159.8356 C   0  0  0  0  0  0  0  0  0  0  0  0
  148.3546  145.0340  159.9341 N   0  0  0  0  0  0  0  0  0  0  0  0
  147.6153  145.2174  161.1407 C   0  0  0  0  0  0  0  0  0  0  0  0
  147.0766  143.9806  161.8265 C   0  0  0  0  0  0  0  0  0  0  0  0
  146.1340  144.9084  161.1113 C   0  0  0  0  0  0  0  0  0  0  0  0
  149.9868  144.4077  158.5724 N   0  0  0  0  0  0  0  0  0  0  0  0
  151.2596  143.8396  158.1370 C   0  0  1  0  0  0  0  0  0  0  0  0
  152.4392  144.3817  158.9710 C   0  0  0  0  0  0  0  0  0  0  0  0
  153.0013  143.1909  159.7524 C   0  0  0  0  0  0  0  0  0  0  0  0
  152.6569  141.9751  158.8974 C   0  0  0  0  0  0  0  0  0  0  0  0
  151.2686  142.3099  158.3408 C   0  0  2  0  0  0  0  0  0  0  0  0
  150.9230  141.5682  157.1381 N   0  0  0  0  0  0  0  0  0  0  0  0
  149.7580  141.6962  156.3923 C   0  0  0  0  0  0  0  0  0  0  0  0
  149.8652  140.8203  155.3362 C   0  0  0  0  0  0  0  0  0  0  0  0
  151.0842  140.1510  155.4048 N   0  0  0  0  0  0  0  0  0  0  0  0
  151.6568  140.6485  156.4932 C   0  0  0  0  0  0  0  0  0  0  0  0
  147.9419  145.4036  159.0905 H   0  0  0  0  0  0  0  0  0  0  0  0
  147.9205  146.0323  161.7957 H   0  0  0  0  0  0  0  0  0  0  0  0
  147.2753  143.0145  161.3662 H   0  0  0  0  0  0  0  0  0  0  0  0
  147.0533  143.9811  162.9143 H   0  0  0  0  0  0  0  0  0  0  0  0
  145.4807  145.5286  161.7214 H   0  0  0  0  0  0  0  0  0  0  0  0
  145.7043  144.5629  160.1729 H   0  0  0  0  0  0  0  0  0  0  0  0
  149.4134  144.8367  157.8611 H   0  0  0  0  0  0  0  0  0  0  0  0
  151.4327  144.0834  157.0867 H   0  0  0  0  0  0  0  0  0  0  0  0
  153.2057  144.7673  158.2975 H   0  0  0  0  0  0  0  0  0  0  0  0
  152.1595  145.2010  159.6350 H   0  0  0  0  0  0  0  0  0  0  0  0
  154.0710  143.2815  159.9426 H   0  0  0  0  0  0  0  0  0  0  0  0
  152.4971  143.1142  160.7168 H   0  0  0  0  0  0  0  0  0  0  0  0
  153.3898  141.8809  158.0954 H   0  0  0  0  0  0  0  0  0  0  0  0
  152.6664  141.0460  159.4679 H   0  0  0  0  0  0  0  0  0  0  0  0
  150.5440  142.0471  159.1145 H   0  0  0  0  0  0  0  0  0  0  0  0
  148.9699  142.3820  156.6662 H   0  0  0  0  0  0  0  0  0  0  0  0
  149.1663  140.6253  154.5361 H   0  0  0  0  0  0  0  0  0  0  0  0
  152.6363  140.3378  156.8267 H   0  0  0  0  0  0  0  0  0  0  0  0
  1  2  2  0  0  0  0
  2  3  1  0  0  0  0
  2  7  1  0  0  0  0
  3  4  1  0  0  0  0
  3 18  1  0  0  0  0
  4  6  1  0  0  0  0
  4  5  1  0  0  0  0
  4 19  1  0  0  0  0
  5  6  1  0  0  0  0
  5 20  1  0  0  0  0
  5 21  1  0  0  0  0
  6 22  1  0  0  0  0
  6 23  1  0  0  0  0
  7  8  1  0  0  0  0
  7 24  1  0  0  0  0
  8 12  1  0  0  0  0
  8  9  1  0  0  0  0
  8 25  1  0  0  0  0
  9 10  1  0  0  0  0
  9 26  1  0  0  0  0
  9 27  1  0  0  0  0
 10 11  1  0  0  0  0
 10 28  1  0  0  0  0
 10 29  1  0  0  0  0
 11 12  1  0  0  0  0
 11 30  1  0  0  0  0
 11 31  1  0  0  0  0
 12 13  1  0  0  0  0
 12 32  1  0  0  0  0
 13 17  1  0  0  0  0
 13 14  1  0  0  0  0
 14 15  2  0  0  0  0
 14 33  1  0  0  0  0
 15 16  1  0  0  0  0
 15 34  1  0  0  0  0
 16 17  2  0  0  0  0
 17 35  1  0  0  0  0
M  END
> <s_m_source_file>
AV-unprocessed.smi

> <i_m_source_file_index>
3141

> <i_lp_mmshare_version>
43012

> <i_f3d_flags>
0

> <s_epik_input>
W0NIMl0xW0NIMl1bQ0hdMVtOSF1DKD1PKVtOSF1bQ0BASF0yW0NIMl1bQ0gyXVtDSDJdW0NASF0ybjNbY0hdW2NIXW5bY0hdMw==

> <s_epik_cmdline>
J2VwaWtfcHl0aG9uJywgJy1waCcsICc3LjAnLCAnLXRuJywgJzgnLCAnLW1hJywgJzIwMCcsICctbWV0YWxfYmluZGluZycsICctaW1hZScsICc8aW5maWxlLm1hZT4nLCAnLW9tYWUnLCAnPG91dGZpbGUubWFlPic=

> <r_lp_tautomer_probability>
1

> <r_epik_Ionization_Penalty>
0.728419

> <r_epik_Ionization_Penalty_Charging>
0.728357

> <r_epik_Ionization_Penalty_Neutral>
6.27871e-05

> <r_epik_State_Penalty>
0.753408

> <r_epik_Charging_Adjusted_Penalty>
1.48176

> <i_epik_Tot_Q>
0

> <i_epik_Tot_abs_Q>
0

> <r_epik_Metal_State_Penalty>
0.332413

> <b_epik_Metal_Only>
0

> <s_lp_Force_Field>
OPLS_2005

> <r_lp_Energy>
34.7591

> <b_lp_Chiralities_Consistent>
1

> <s_lp_Variant>
AV-unprocessed.smi:3141-8

> <Gold.Version>
5.8.1

> <Gold.Id.Protein>
6NUR|6NUR_protein|mol2

> <Gold.PLP.Fitness>
49.2928

> <Gold.PLP.PLP>
-40.1308

> <Gold.PLP.part.hbond>
-4.7730

> <Gold.PLP.part.metal>
0.0000

> <Gold.PLP.part.buried>
-5.1871

> <Gold.PLP.part.nonpolar>
-32.5721

> <Gold.PLP.part.repulsive>
0.5297

> <Gold.PLP.ligand.clash>
0.0000

> <Gold.PLP.ligand.torsion>
0.1590

> <Gold.PLP.Chemscore.Hbond>
2.2760

> <Gold.PLP.Chemscore.CHOScore>
0.8698

> <Gold.PLP.Chemscore.Metal>
0.0000

> <Gold.Chemscore.Hbonds>
donor molecule, donor type, donor heavy atom, donor atom, acceptor molecule, acceptor atom, score
      L1  H     3    18       P1  8029  1.00
      L1  H     7    24       P1  8029  0.60
      P1  H  6933  6944       L1     1  0.02
      P1  H  7989  7998       L1    16  0.45
      L1  C    14    33       P1  8028  0.79

> <Gold.PLP.Chemscore.Internal.Correction>
0.0429

> <Gold.Rescore>
     Score         DG    S(hbond)    S(metal)    S(lipo)     H(rot)  DE(clash)    DE(int)     intcor
     14.10     -15.61       1.17        0.00      87.70       1.57       0.09       1.42       ----

> <Gold.Chemscore.Fitness>
14.1049

> <Gold.Chemscore.DG>
-15.6122

> <Gold.Chemscore.ZeroCoef>
-5.4800

> <Gold.Chemscore.Hbond>
1.1654

> <Gold.Chemscore.Metal>
0.0000

> <Gold.Chemscore.Lipo>
87.6952

> <Gold.Chemscore.Internal_Hbond>
0.0000

> <Gold.Chemscore.DEClash>
0.0854

> <Gold.Chemscore.DEInternal>
1.4219

> <Gold.Chemscore.Rot>
1.5705

> <Gold.Chemscore.Internal.Correction>
   9.000000E+99

> <Gold.Chemscore.Hbonds>
donor molecule, donor type, donor heavy atom, donor atom, acceptor molecule, acceptor atom, score
      L1  H     3    18       P1  8029  0.99
      L1  H     7    24       P1  8029  0.04
      P1  H  6933  6944       L1     1  0.01
      P1  H  7989  7998       L1    16  0.02

> <Gold.Chemscore.Hbond.Weighted>
-3.8925

> <Gold.Chemscore.Metal.Weighted>
-0.0000

> <Gold.Chemscore.Lipo.Weighted>
-10.2603

> <Gold.Chemscore.Internal_Hbond.Weighted>
0.0000

> <Gold.Chemscore.DEClash.Weighted>
0.0854

> <Gold.Chemscore.DEInternal.Weighted>
1.4219

> <Gold.Chemscore.Rot.Weighted>
4.0206

> <Gold.Chemscore.Internal.Correction.Weighted>
   9.000000E+99

> <Gold.Protein.RotatedTorsions>
[ 6907 6896 6895 6894 ] final -133.95 input  -60.11 | X-H torsion
[ 7974 7965 7964 7962 ] final -178.80 input  175.53 | X-H torsion
[ 8008 7997 7996 7995 ] final  102.31 input   59.86 | X-H torsion
[ 10167 10162 10161 10158 ] final  -48.50 input  -65.29 | X-H torsion
[ 10718 10713 10712 10709 ] final  137.84 input   66.30 | X-H torsion
[ 10763 10752 10751 10750 ] final -160.12 input  -60.55 | X-H torsion
[ 11005 11000 10999 10996 ] final  -12.28 input  -57.11 | X-H torsion

> <Gold.Protein.ActiveResidues>
 VAL166  LYS551  ARG553  GLY616  TRP617  ASP618  TYR619  PRO620  LYS621  CYS622 
 ASP623  PHE694  ASN695  SER759  ASP760  ASP761  ALA762  ILE779  LEU786  VAL792 
 PHE793  MET794  SER795  GLU796  ALA797  LYS798  CYS799  TRP800  GLU811  SER814 

> <Gold.Protein.RotatedAtoms>
  150.9800  133.6255  159.2723 H   0  0  0  0  0  0  0  0  0  0  0  0  # atno 6907 bound_to 6896
  151.3513  135.0884  159.9413 H   0  0  0  0  0  0  0  0  0  0  0  0  # atno 6908 bound_to 6896
  152.5212  133.9392  159.7672 H   0  0  0  0  0  0  0  0  0  0  0  0  # atno 6909 bound_to 6896
  144.7133  140.0813  143.6425 H   0  0  0  0  0  0  0  0  0  0  0  0  # atno 7974 bound_to 7965
  156.1380  140.3183  155.8452 H   0  0  0  0  0  0  0  0  0  0  0  0  # atno 8008 bound_to 7997
  155.4207  140.0512  157.3043 H   0  0  0  0  0  0  0  0  0  0  0  0  # atno 8009 bound_to 7997
  154.4953  140.2108  155.9473 H   0  0  0  0  0  0  0  0  0  0  0  0  # atno 8010 bound_to 7997
  140.6728  143.2737  151.4080 H   0  0  0  0  0  0  0  0  0  0  0  0  # atno 10167 bound_to 10162
  157.4317  131.1049  151.0242 H   0  0  0  0  0  0  0  0  0  0  0  0  # atno 10718 bound_to 10713
  154.7418  135.3070  154.8715 H   0  0  0  0  0  0  0  0  0  0  0  0  # atno 10763 bound_to 10752
  153.9528  135.6762  153.4748 H   0  0  0  0  0  0  0  0  0  0  0  0  # atno 10764 bound_to 10752
  153.1016  135.4909  154.8802 H   0  0  0  0  0  0  0  0  0  0  0  0  # atno 10765 bound_to 10752
  140.7641  133.8491  155.9150 H   0  0  0  0  0  0  0  0  0  0  0  0  # atno 11005 bound_to 11000
  145.9699  139.2862  143.1105 LP  0  0  0  0  0  0  0  0  0  0  0  0  # atno 17320 bound_to 7965
  145.9128  140.9169  143.0445 LP  0  0  0  0  0  0  0  0  0  0  0  0  # atno 17321 bound_to 7965
  139.6004  144.1307  152.2192 LP  0  0  0  0  0  0  0  0  0  0  0  0  # atno 17342 bound_to 10162
  140.0689  144.5795  150.7206 LP  0  0  0  0  0  0  0  0  0  0  0  0  # atno 17343 bound_to 10162
  157.1136  130.6032  149.5488 LP  0  0  0  0  0  0  0  0  0  0  0  0  # atno 17370 bound_to 10713
  155.9916  130.4971  150.7304 LP  0  0  0  0  0  0  0  0  0  0  0  0  # atno 17371 bound_to 10713
  140.9636  134.1624  157.4634 LP  0  0  0  0  0  0  0  0  0  0  0  0  # atno 17394 bound_to 11000
  139.8766  134.9953  156.5739 LP  0  0  0  0  0  0  0  0  0  0  0  0  # atno 17395 bound_to 11000

$$$$
