AV-unprocessed.smi:1376|AV-procd|sdf|5592|dock10
  -GOLD-   22720 5193D 1   1.00000     0.00000
 Structure written by MMmdl.
 42 43  0  0  0  0  0  0  0  0  1 V2000
  151.7564  139.4079  159.3759 O   0  0  0  0  0  0  0  0  0  0  0  0
  152.6494  139.9486  158.7218 C   0  0  0  0  0  0  0  0  0  0  0  0
  153.7521  140.7631  159.4136 C   0  0  0  0  0  0  0  0  0  0  0  0
  153.2308  141.7964  160.3237 N   0  0  0  0  0  0  0  0  0  0  0  0
  152.3575  142.7544  159.7713 C   0  0  0  0  0  0  0  0  0  0  0  0
  151.8298  143.7433  160.5098 C   0  0  0  0  0  0  0  0  0  0  0  0
  152.1779  143.8105  161.9092 C   0  0  0  0  0  0  0  0  0  0  0  0
  153.0160  142.9018  162.4467 C   0  0  0  0  0  0  0  0  0  0  0  0
  153.5985  141.8216  161.6420 C   0  0  0  0  0  0  0  0  0  0  0  0
  154.3697  140.9910  162.1234 O   0  0  0  0  0  0  0  0  0  0  0  0
  152.7398  139.8551  157.3865 N   0  0  0  0  0  0  0  0  0  0  0  0
  151.8104  139.1261  156.5286 C   0  0  2  0  0  0  0  0  0  0  0  0
  152.2810  139.1667  155.0610 C   0  0  0  0  0  0  0  0  0  0  0  0
  151.2772  138.4648  154.1334 C   0  0  0  0  0  0  0  0  0  0  0  0
  149.8694  139.0614  154.2834 C   0  0  0  0  0  0  0  0  0  0  0  0
  149.3896  139.0080  155.7438 C   0  0  2  0  0  0  0  0  0  0  0  0
  148.1136  139.6330  155.7927 O   0  0  0  0  0  0  0  0  0  0  0  0
  148.1173  141.0160  155.4644 C   0  0  0  0  0  0  0  0  0  0  0  0
  146.8830  141.3376  154.6132 C   0  0  0  0  0  0  0  0  0  0  0  0
  145.7858  140.9647  155.2711 F   0  0  0  0  0  0  0  0  0  0  0  0
  146.8149  142.6472  154.3754 F   0  0  0  0  0  0  0  0  0  0  0  0
  146.9350  140.6748  153.4581 F   0  0  0  0  0  0  0  0  0  0  0  0
  150.3973  139.7227  156.6687 C   0  0  0  0  0  0  0  0  0  0  0  0
  154.3968  140.0700  159.9557 H   0  0  0  0  0  0  0  0  0  0  0  0
  154.3949  141.2165  158.6566 H   0  0  0  0  0  0  0  0  0  0  0  0
  152.1547  142.6382  158.7165 H   0  0  0  0  0  0  0  0  0  0  0  0
  151.1666  144.4721  160.0674 H   0  0  0  0  0  0  0  0  0  0  0  0
  151.7659  144.5941  162.5277 H   0  0  0  0  0  0  0  0  0  0  0  0
  153.2662  142.9686  163.4955 H   0  0  0  0  0  0  0  0  0  0  0  0
  153.5089  140.3238  156.9300 H   0  0  0  0  0  0  0  0  0  0  0  0
  151.7671  138.0853  156.8554 H   0  0  0  0  0  0  0  0  0  0  0  0
  152.4063  140.2021  154.7412 H   0  0  0  0  0  0  0  0  0  0  0  0
  153.2590  138.6934  154.9646 H   0  0  0  0  0  0  0  0  0  0  0  0
  151.6076  138.5478  153.0980 H   0  0  0  0  0  0  0  0  0  0  0  0
  151.2492  137.3992  154.3647 H   0  0  0  0  0  0  0  0  0  0  0  0
  149.8733  140.0951  153.9349 H   0  0  0  0  0  0  0  0  0  0  0  0
  149.1705  138.5226  153.6426 H   0  0  0  0  0  0  0  0  0  0  0  0
  149.3002  137.9597  156.0352 H   0  0  0  0  0  0  0  0  0  0  0  0
  148.1021  141.6181  156.3743 H   0  0  0  0  0  0  0  0  0  0  0  0
  149.0201  141.2797  154.9134 H   0  0  0  0  0  0  0  0  0  0  0  0
  150.0795  139.6481  157.7084 H   0  0  0  0  0  0  0  0  0  0  0  0
  150.4190  140.7865  156.4270 H   0  0  0  0  0  0  0  0  0  0  0  0
  1  2  2  0  0  0  0
  2  3  1  0  0  0  0
  2 11  1  0  0  0  0
  3  4  1  0  0  0  0
  3 24  1  0  0  0  0
  3 25  1  0  0  0  0
  4  9  1  0  0  0  0
  4  5  1  0  0  0  0
  5  6  2  0  0  0  0
  5 26  1  0  0  0  0
  6  7  1  0  0  0  0
  6 27  1  0  0  0  0
  7  8  2  0  0  0  0
  7 28  1  0  0  0  0
  8  9  1  0  0  0  0
  8 29  1  0  0  0  0
  9 10  2  0  0  0  0
 11 12  1  0  0  0  0
 11 30  1  0  0  0  0
 12 23  1  0  0  0  0
 12 13  1  0  0  0  0
 12 31  1  0  0  0  0
 13 14  1  0  0  0  0
 13 32  1  0  0  0  0
 13 33  1  0  0  0  0
 14 15  1  0  0  0  0
 14 34  1  0  0  0  0
 14 35  1  0  0  0  0
 15 16  1  0  0  0  0
 15 36  1  0  0  0  0
 15 37  1  0  0  0  0
 16 17  1  0  0  0  0
 16 23  1  0  0  0  0
 16 38  1  0  0  0  0
 17 18  1  0  0  0  0
 18 19  1  0  0  0  0
 18 39  1  0  0  0  0
 18 40  1  0  0  0  0
 19 20  1  0  0  0  0
 19 21  1  0  0  0  0
 19 22  1  0  0  0  0
 23 41  1  0  0  0  0
 23 42  1  0  0  0  0
M  END
> <s_m_source_file>
AV-unprocessed.smi

> <i_m_source_file_index>
1376

> <i_lp_mmshare_version>
43012

> <i_f3d_flags>
0

> <s_epik_input>
Tz1jMVtjSF1bY0hdW2NIXVtjSF1uMVtDSDJdQyg9TylbTkhdW0NAQEhdMltDSDJdW0NIMl1bQ0gyXVtDQEhdKFtDSDJdMilPW0NIMl1DKEYpKEYpRg==

> <s_epik_cmdline>
J2VwaWtfcHl0aG9uJywgJy1waCcsICc3LjAnLCAnLXRuJywgJzgnLCAnLW1hJywgJzIwMCcsICctbWV0YWxfYmluZGluZycsICctaW1hZScsICc8aW5maWxlLm1hZT4nLCAnLW9tYWUnLCAnPG91dGZpbGUubWFlPic=

> <r_lp_tautomer_probability>
1

> <r_epik_Ionization_Penalty>
4.08567e-07

> <r_epik_Ionization_Penalty_Charging>
3.90028e-07

> <r_epik_Ionization_Penalty_Neutral>
1.85393e-08

> <r_epik_State_Penalty>
-0

> <r_epik_Charging_Adjusted_Penalty>
3.90028e-07

> <i_epik_Tot_Q>
0

> <i_epik_Tot_abs_Q>
0

> <r_epik_Metal_State_Penalty>
-0

> <b_epik_Metal_Only>
0

> <s_lp_Force_Field>
OPLS_2005

> <r_lp_Energy>
18.479

> <b_lp_Chiralities_Consistent>
1

> <s_lp_Variant>
AV-unprocessed.smi:1376-3

> <Gold.Version>
5.8.1

> <Gold.Id.Protein>
6NUR|6NUR_protein|mol2

> <Gold.PLP.Fitness>
47.2750

> <Gold.PLP.PLP>
-47.9868

> <Gold.PLP.part.hbond>
-0.5795

> <Gold.PLP.part.metal>
0.0000

> <Gold.PLP.part.buried>
-6.4171

> <Gold.PLP.part.nonpolar>
-42.5930

> <Gold.PLP.part.repulsive>
1.9583

> <Gold.PLP.ligand.clash>
0.0000

> <Gold.PLP.ligand.torsion>
0.3797

> <Gold.PLP.Chemscore.Hbond>
0.0000

> <Gold.PLP.Chemscore.CHOScore>
0.0000

> <Gold.PLP.Chemscore.Metal>
0.0000

> <Gold.PLP.Chemscore.Internal.Correction>
0.0476

> <Gold.Rescore>
     Score         DG    S(hbond)    S(metal)    S(lipo)     H(rot)  DE(clash)    DE(int)     intcor
     10.00     -12.31       0.00        0.00     106.09       2.18       1.86       0.45       ----

> <Gold.Chemscore.Fitness>
10.0003

> <Gold.Chemscore.DG>
-12.3121

> <Gold.Chemscore.ZeroCoef>
-5.4800

> <Gold.Chemscore.Hbond>
0.0000

> <Gold.Chemscore.Metal>
0.0000

> <Gold.Chemscore.Lipo>
106.0876

> <Gold.Chemscore.Internal_Hbond>
0.0000

> <Gold.Chemscore.DEClash>
1.8585

> <Gold.Chemscore.DEInternal>
0.4533

> <Gold.Chemscore.Rot>
2.1797

> <Gold.Chemscore.Internal.Correction>
   9.000000E+99

> <Gold.Chemscore.Hbond.Weighted>
-0.0000

> <Gold.Chemscore.Metal.Weighted>
-0.0000

> <Gold.Chemscore.Lipo.Weighted>
-12.4122

> <Gold.Chemscore.Internal_Hbond.Weighted>
0.0000

> <Gold.Chemscore.DEClash.Weighted>
1.8585

> <Gold.Chemscore.DEInternal.Weighted>
0.4533

> <Gold.Chemscore.Rot.Weighted>
5.5802

> <Gold.Chemscore.Internal.Correction.Weighted>
   9.000000E+99

> <Gold.Protein.RotatedTorsions>
[ 6907 6896 6895 6894 ] final  -37.02 input  -60.11 | X-H torsion
[ 7974 7965 7964 7962 ] final  -53.39 input  175.53 | X-H torsion
[ 8008 7997 7996 7995 ] final  -22.10 input   59.86 | X-H torsion
[ 10167 10162 10161 10158 ] final  -90.77 input  -65.29 | X-H torsion
[ 10718 10713 10712 10709 ] final  -64.69 input   66.30 | X-H torsion
[ 10763 10752 10751 10750 ] final -130.75 input  -60.55 | X-H torsion
[ 11005 11000 10999 10996 ] final -163.28 input  -57.11 | X-H torsion

> <Gold.Protein.ActiveResidues>
 VAL166  LYS551  ARG553  GLY616  TRP617  ASP618  TYR619  PRO620  LYS621  CYS622 
 ASP623  PHE694  ASN695  SER759  ASP760  ASP761  ALA762  ILE779  LEU786  VAL792 
 PHE793  MET794  SER795  GLU796  ALA797  LYS798  CYS799  TRP800  GLU811  SER814 

> <Gold.Protein.RotatedAtoms>
  151.0199  134.9461  159.8053 H   0  0  0  0  0  0  0  0  0  0  0  0  # atno 6907 bound_to 6896
  152.5322  134.2917  159.9056 H   0  0  0  0  0  0  0  0  0  0  0  0  # atno 6908 bound_to 6896
  151.2925  133.4117  159.2668 H   0  0  0  0  0  0  0  0  0  0  0  0  # atno 6909 bound_to 6896
  145.8973  140.8022  142.9761 H   0  0  0  0  0  0  0  0  0  0  0  0  # atno 7974 bound_to 7965
  154.4664  140.2017  156.0107 H   0  0  0  0  0  0  0  0  0  0  0  0  # atno 8008 bound_to 7997
  156.0935  140.3254  155.7817 H   0  0  0  0  0  0  0  0  0  0  0  0  # atno 8009 bound_to 7997
  155.4917  140.0546  157.2943 H   0  0  0  0  0  0  0  0  0  0  0  0  # atno 8010 bound_to 7997
  140.3516  143.2888  151.9719 H   0  0  0  0  0  0  0  0  0  0  0  0  # atno 10167 bound_to 10162
  156.0714  130.4237  150.1456 H   0  0  0  0  0  0  0  0  0  0  0  0  # atno 10718 bound_to 10713
  154.8754  135.3852  154.4134 H   0  0  0  0  0  0  0  0  0  0  0  0  # atno 10763 bound_to 10752
  153.4846  135.7030  153.5924 H   0  0  0  0  0  0  0  0  0  0  0  0  # atno 10764 bound_to 10752
  153.4324  135.3875  155.2146 H   0  0  0  0  0  0  0  0  0  0  0  0  # atno 10765 bound_to 10752
  140.5999  134.4958  157.5204 H   0  0  0  0  0  0  0  0  0  0  0  0  # atno 11005 bound_to 11000
  144.6733  140.1622  143.7421 LP  0  0  0  0  0  0  0  0  0  0  0  0  # atno 17320 bound_to 7965
  145.8834  139.2336  143.1592 LP  0  0  0  0  0  0  0  0  0  0  0  0  # atno 17321 bound_to 7965
  139.4825  144.6071  151.7501 LP  0  0  0  0  0  0  0  0  0  0  0  0  # atno 17342 bound_to 10162
  140.5214  144.0874  150.6024 LP  0  0  0  0  0  0  0  0  0  0  0  0  # atno 17343 bound_to 10162
  156.9506  130.9773  151.3499 LP  0  0  0  0  0  0  0  0  0  0  0  0  # atno 17370 bound_to 10713
  157.5787  130.8361  149.8491 LP  0  0  0  0  0  0  0  0  0  0  0  0  # atno 17371 bound_to 10713
  139.9237  134.8098  156.1133 LP  0  0  0  0  0  0  0  0  0  0  0  0  # atno 17394 bound_to 11000
  141.0879  133.6726  156.2476 LP  0  0  0  0  0  0  0  0  0  0  0  0  # atno 17395 bound_to 11000

$$$$
