AV-unprocessed.smi:136|AV-procd|sdf|1173|dock5
  -GOLD-   2262018323D 1   1.00000     0.00000
 Structure written by MMmdl.
 54 58  0  0  0  0  0  0  0  0  1 V2000
  148.2289  134.6103  156.9494 O   0  0  0  0  0  0  0  0  0  0  0  0
  149.4155  134.9107  157.0939 C   0  0  0  0  0  0  0  0  0  0  0  0
  150.5050  134.1239  156.3349 C   0  0  0  0  0  0  0  0  0  0  0  0
  149.9603  133.1612  155.3525 N   0  0  0  0  0  0  0  0  0  0  0  0
  150.3133  131.7942  155.4712 C   0  0  0  0  0  0  0  0  0  0  0  0
  151.0493  131.4004  156.3772 O   0  0  0  0  0  0  0  0  0  0  0  0
  149.7577  130.9101  154.4532 C   0  0  0  0  0  0  0  0  0  0  0  0
  150.0387  129.5964  154.4885 F   0  0  0  0  0  0  0  0  0  0  0  0
  148.9657  131.3894  153.4723 C   0  0  0  0  0  0  0  0  0  0  0  0
  148.6301  132.7277  153.3673 N   0  0  0  0  0  0  0  0  0  0  0  0
  147.7548  133.2530  152.2486 C   0  0  2  0  0  0  0  0  0  0  0  0
  146.4730  133.8925  152.8162 C   0  0  0  0  0  0  0  0  0  0  0  0
  145.3764  133.2004  152.0312 C   0  0  0  0  0  0  0  0  0  0  0  0
  146.0087  131.8502  151.7300 C   0  0  0  0  0  0  0  0  0  0  0  0
  147.3523  132.1972  151.4227 O   0  0  0  0  0  0  0  0  0  0  0  0
  149.1372  133.6488  154.3097 C   0  0  0  0  0  0  0  0  0  0  0  0
  148.8703  134.8494  154.2197 O   0  0  0  0  0  0  0  0  0  0  0  0
  149.8023  135.9237  157.9010 N   0  0  0  0  0  0  0  0  0  0  0  0
  151.0809  136.3735  157.9648 N   0  0  0  0  0  0  0  0  0  0  0  0
  151.1311  137.4383  158.6764 C   0  0  0  0  0  0  0  0  0  0  0  0
  152.3677  138.2021  158.9557 C   0  0  0  0  0  0  0  0  0  0  0  0
  152.2765  139.4693  159.5757 C   0  0  0  0  0  0  0  0  0  0  0  0
  153.4527  140.1979  159.8399 C   0  0  0  0  0  0  0  0  0  0  0  0
  154.7095  139.6656  159.4885 C   0  0  0  0  0  0  0  0  0  0  0  0
  156.1464  140.5636  159.8133 Cl  0  0  0  0  0  0  0  0  0  0  0  0
  154.7948  138.4011  158.8723 C   0  0  0  0  0  0  0  0  0  0  0  0
  153.6256  137.6629  158.6031 C   0  0  0  0  0  0  0  0  0  0  0  0
  149.8083  137.8618  159.2203 C   0  0  0  0  0  0  0  0  0  0  0  0
  148.8903  136.7532  158.6993 C   0  0  2  0  0  0  0  0  0  0  0  0
  148.1949  136.0081  159.8032 C   0  0  0  0  0  0  0  0  0  0  0  0
  147.4770  134.8437  159.8687 C   0  0  0  0  0  0  0  0  0  0  0  0
  147.0904  134.6825  161.2274 C   0  0  0  0  0  0  0  0  0  0  0  0
  147.6055  135.7569  161.8940 C   0  0  0  0  0  0  0  0  0  0  0  0
  148.2836  136.5721  161.0413 O   0  0  0  0  0  0  0  0  0  0  0  0
  151.1776  134.8352  155.8532 H   0  0  0  0  0  0  0  0  0  0  0  0
  151.1371  133.6087  157.0601 H   0  0  0  0  0  0  0  0  0  0  0  0
  148.5923  130.6813  152.7486 H   0  0  0  0  0  0  0  0  0  0  0  0
  148.3840  133.9394  151.6790 H   0  0  0  0  0  0  0  0  0  0  0  0
  146.3770  133.6689  153.8800 H   0  0  0  0  0  0  0  0  0  0  0  0
  146.4818  134.9743  152.6805 H   0  0  0  0  0  0  0  0  0  0  0  0
  144.4402  133.1205  152.5844 H   0  0  0  0  0  0  0  0  0  0  0  0
  145.1824  133.7377  151.1021 H   0  0  0  0  0  0  0  0  0  0  0  0
  145.9769  131.2022  152.6068 H   0  0  0  0  0  0  0  0  0  0  0  0
  145.5278  131.3326  150.8999 H   0  0  0  0  0  0  0  0  0  0  0  0
  151.3227  139.8950  159.8522 H   0  0  0  0  0  0  0  0  0  0  0  0
  153.3892  141.1673  160.3124 H   0  0  0  0  0  0  0  0  0  0  0  0
  155.7593  137.9952  158.6045 H   0  0  0  0  0  0  0  0  0  0  0  0
  153.7188  136.6963  158.1311 H   0  0  0  0  0  0  0  0  0  0  0  0
  149.8279  137.9049  160.3104 H   0  0  0  0  0  0  0  0  0  0  0  0
  149.5159  138.8393  158.8352 H   0  0  0  0  0  0  0  0  0  0  0  0
  148.1432  137.1877  158.0326 H   0  0  0  0  0  0  0  0  0  0  0  0
  147.2553  134.1888  159.0390 H   0  0  0  0  0  0  0  0  0  0  0  0
  146.5105  133.8819  161.6618 H   0  0  0  0  0  0  0  0  0  0  0  0
  147.5856  136.0806  162.9241 H   0  0  0  0  0  0  0  0  0  0  0  0
  1  2  2  0  0  0  0
  2  3  1  0  0  0  0
  2 18  1  0  0  0  0
  3  4  1  0  0  0  0
  3 35  1  0  0  0  0
  3 36  1  0  0  0  0
  4 16  1  0  0  0  0
  4  5  1  0  0  0  0
  5  6  2  0  0  0  0
  5  7  1  0  0  0  0
  7  8  1  0  0  0  0
  7  9  2  0  0  0  0
  9 10  1  0  0  0  0
  9 37  1  0  0  0  0
 10 11  1  0  0  0  0
 10 16  1  0  0  0  0
 11 15  1  0  0  0  0
 11 12  1  0  0  0  0
 11 38  1  0  0  0  0
 12 13  1  0  0  0  0
 12 39  1  0  0  0  0
 12 40  1  0  0  0  0
 13 14  1  0  0  0  0
 13 41  1  0  0  0  0
 13 42  1  0  0  0  0
 14 15  1  0  0  0  0
 14 43  1  0  0  0  0
 14 44  1  0  0  0  0
 16 17  2  0  0  0  0
 18 29  1  0  0  0  0
 18 19  1  0  0  0  0
 19 20  2  0  0  0  0
 20 21  1  0  0  0  0
 20 28  1  0  0  0  0
 21 27  1  0  0  0  0
 21 22  2  0  0  0  0
 22 23  1  0  0  0  0
 22 45  1  0  0  0  0
 23 24  2  0  0  0  0
 23 46  1  0  0  0  0
 24 25  1  0  0  0  0
 24 26  1  0  0  0  0
 26 27  2  0  0  0  0
 26 47  1  0  0  0  0
 27 48  1  0  0  0  0
 28 29  1  0  0  0  0
 28 49  1  0  0  0  0
 28 50  1  0  0  0  0
 29 30  1  0  0  0  0
 29 51  1  0  0  0  0
 30 34  1  0  0  0  0
 30 31  2  0  0  0  0
 31 32  1  0  0  0  0
 31 52  1  0  0  0  0
 32 33  2  0  0  0  0
 32 53  1  0  0  0  0
 33 34  1  0  0  0  0
 33 54  1  0  0  0  0
M  END
> <s_m_source_file>
AV-unprocessed.smi

> <i_m_source_file_index>
136

> <i_lp_mmshare_version>
43012

> <i_f3d_flags>
0

> <s_epik_input>
bzFbY0hdW2NIXVtjSF1jMVtDQEBIXTJbQ0gyXUMoYzNbY0hdW2NIXWMoQ2wpW2NIXVtjSF0zKT1OTjJDKD1PKVtDSDJdbjRjKD1PKWMoRilbY0hdbihjND1PKVtDQEBIXTVbQ0gyXVtDSDJdW0NIMl1PNQ==

> <s_epik_cmdline>
J2VwaWtfcHl0aG9uJywgJy1waCcsICc3LjAnLCAnLXRuJywgJzgnLCAnLW1hJywgJzIwMCcsICctbWV0YWxfYmluZGluZycsICctaW1hZScsICc8aW5maWxlLm1hZT4nLCAnLW9tYWUnLCAnPG91dGZpbGUubWFlPic=

> <r_lp_tautomer_probability>
1

> <r_epik_Ionization_Penalty>
2.55467e-08

> <r_epik_Ionization_Penalty_Charging>
4.85705e-09

> <r_epik_Ionization_Penalty_Neutral>
2.06897e-08

> <r_epik_State_Penalty>
-0

> <r_epik_Charging_Adjusted_Penalty>
4.85705e-09

> <i_epik_Tot_Q>
0

> <i_epik_Tot_abs_Q>
0

> <r_epik_Metal_State_Penalty>
-0

> <b_epik_Metal_Only>
0

> <s_epik_Chemistry_Notes>
This compound has an imine and may undergo hydrolysis. This compound contains an acetal/aminal-like group ( X-CH(R)-Y where X, Y are N, S, or O) that may be acid/base labile, releasing an aldehyde.

> <s_lp_Force_Field>
OPLS_2005

> <r_lp_Energy>
40.0267

> <b_lp_Chiralities_Consistent>
1

> <s_lp_Variant>
AV-unprocessed.smi:136-3

> <Gold.Version>
5.8.1

> <Gold.Id.Protein>
6NUR|6NUR_protein|mol2

> <Gold.PLP.Fitness>
48.6965

> <Gold.PLP.PLP>
-43.5780

> <Gold.PLP.part.hbond>
-2.0000

> <Gold.PLP.part.metal>
0.0000

> <Gold.PLP.part.buried>
-3.3677

> <Gold.PLP.part.nonpolar>
-43.3798

> <Gold.PLP.part.repulsive>
6.6145

> <Gold.PLP.ligand.clash>
0.0000

> <Gold.PLP.ligand.torsion>
0.3203

> <Gold.PLP.Chemscore.Hbond>
1.0088

> <Gold.PLP.Chemscore.CHOScore>
0.8808

> <Gold.PLP.Chemscore.Metal>
0.0000

> <Gold.Chemscore.Hbonds>
donor molecule, donor type, donor heavy atom, donor atom, acceptor molecule, acceptor atom, score
      P1  H  6896  6907       L1    19  0.01
      P1  H  6931  6943       L1    34  1.00
      L1  C     9    37       P1 10747  0.88

> <Gold.PLP.Chemscore.Internal.Correction>
0.0907

> <Gold.Rescore>
     Score         DG    S(hbond)    S(metal)    S(lipo)     H(rot)  DE(clash)    DE(int)     intcor
      9.49     -16.25       0.98        0.00     103.54       1.81       0.84       5.92       ----

> <Gold.Chemscore.Fitness>
9.4917

> <Gold.Chemscore.DG>
-16.2491

> <Gold.Chemscore.ZeroCoef>
-5.4800

> <Gold.Chemscore.Hbond>
0.9810

> <Gold.Chemscore.Metal>
0.0000

> <Gold.Chemscore.Lipo>
103.5448

> <Gold.Chemscore.Internal_Hbond>
0.0000

> <Gold.Chemscore.DEClash>
0.8413

> <Gold.Chemscore.DEInternal>
5.9161

> <Gold.Chemscore.Rot>
1.8056

> <Gold.Chemscore.Internal.Correction>
   9.000000E+99

> <Gold.Chemscore.Hbonds>
donor molecule, donor type, donor heavy atom, donor atom, acceptor molecule, acceptor atom, score
      P1  H  6931  6943       L1    34  0.84

> <Gold.Chemscore.Hbond.Weighted>
-3.2767

> <Gold.Chemscore.Metal.Weighted>
-0.0000

> <Gold.Chemscore.Lipo.Weighted>
-12.1147

> <Gold.Chemscore.Internal_Hbond.Weighted>
0.0000

> <Gold.Chemscore.DEClash.Weighted>
0.8413

> <Gold.Chemscore.DEInternal.Weighted>
5.9161

> <Gold.Chemscore.Rot.Weighted>
4.6223

> <Gold.Chemscore.Internal.Correction.Weighted>
   9.000000E+99

> <Gold.Protein.RotatedTorsions>
[ 6907 6896 6895 6894 ] final  -31.53 input  -60.11 | X-H torsion
[ 7974 7965 7964 7962 ] final -114.48 input  175.53 | X-H torsion
[ 8008 7997 7996 7995 ] final -148.89 input   59.86 | X-H torsion
[ 10167 10162 10161 10158 ] final  107.74 input  -65.29 | X-H torsion
[ 10718 10713 10712 10709 ] final  150.57 input   66.30 | X-H torsion
[ 10763 10752 10751 10750 ] final -103.83 input  -60.55 | X-H torsion
[ 11005 11000 10999 10996 ] final   61.24 input  -57.11 | X-H torsion

> <Gold.Protein.ActiveResidues>
 VAL166  LYS551  ARG553  GLY616  TRP617  ASP618  TYR619  PRO620  LYS621  CYS622 
 ASP623  PHE694  ASN695  SER759  ASP760  ASP761  ALA762  ILE779  LEU786  VAL792 
 PHE793  MET794  SER795  GLU796  ALA797  LYS798  CYS799  TRP800  GLU811  SER814 

> <Gold.Protein.RotatedAtoms>
  151.0909  134.9915  159.8401 H   0  0  0  0  0  0  0  0  0  0  0  0  # atno 6907 bound_to 6896
  152.5429  134.2067  159.8743 H   0  0  0  0  0  0  0  0  0  0  0  0  # atno 6908 bound_to 6896
  151.2103  133.4516  159.2631 H   0  0  0  0  0  0  0  0  0  0  0  0  # atno 6909 bound_to 6896
  145.1196  140.8661  143.3821 H   0  0  0  0  0  0  0  0  0  0  0  0  # atno 7974 bound_to 7965
  155.5989  140.0660  157.2738 H   0  0  0  0  0  0  0  0  0  0  0  0  # atno 8008 bound_to 7997
  154.4284  140.1822  156.1199 H   0  0  0  0  0  0  0  0  0  0  0  0  # atno 8009 bound_to 7997
  156.0175  140.3320  155.7007 H   0  0  0  0  0  0  0  0  0  0  0  0  # atno 8010 bound_to 7997
  139.6903  144.7108  151.1360 H   0  0  0  0  0  0  0  0  0  0  0  0  # atno 10167 bound_to 10162
  157.2817  131.0836  151.1527 H   0  0  0  0  0  0  0  0  0  0  0  0  # atno 10718 bound_to 10713
  154.7835  135.4809  153.9895 H   0  0  0  0  0  0  0  0  0  0  0  0  # atno 10763 bound_to 10752
  153.1527  135.6794  153.8866 H   0  0  0  0  0  0  0  0  0  0  0  0  # atno 10764 bound_to 10752
  153.8505  135.3168  155.3410 H   0  0  0  0  0  0  0  0  0  0  0  0  # atno 10765 bound_to 10752
  140.0175  134.6203  155.9688 H   0  0  0  0  0  0  0  0  0  0  0  0  # atno 11005 bound_to 11000
  145.0755  139.2999  143.5810 LP  0  0  0  0  0  0  0  0  0  0  0  0  # atno 17320 bound_to 7965
  146.3522  140.0244  142.8656 LP  0  0  0  0  0  0  0  0  0  0  0  0  # atno 17321 bound_to 7965
  140.7680  143.5569  150.9142 LP  0  0  0  0  0  0  0  0  0  0  0  0  # atno 17342 bound_to 10162
  139.9246  143.6565  152.3089 LP  0  0  0  0  0  0  0  0  0  0  0  0  # atno 17343 bound_to 10162
  157.2958  130.6818  149.6138 LP  0  0  0  0  0  0  0  0  0  0  0  0  # atno 17370 bound_to 10713
  155.9664  130.4407  150.5310 LP  0  0  0  0  0  0  0  0  0  0  0  0  # atno 17371 bound_to 10713
  141.1752  133.6540  156.4802 LP  0  0  0  0  0  0  0  0  0  0  0  0  # atno 17394 bound_to 11000
  140.4446  134.6985  157.5009 LP  0  0  0  0  0  0  0  0  0  0  0  0  # atno 17395 bound_to 11000

$$$$
