AV-unprocessed.smi:3266|AV-procd|sdf|12502|dock3
  -GOLD-   2272018403D 1   1.00000     0.00000
 Structure written by MMmdl.
 39 40  0  0  0  0  0  0  0  0  2 V2000
  150.0125  137.5367  159.7065 O   0  0  0  0  0  0  0  0  0  0  0  0
  149.1924  137.8993  158.8622 C   0  0  0  0  0  0  0  0  0  0  0  0
  147.9080  137.0990  158.6277 C   0  0  0  0  0  0  0  0  0  0  0  0
  147.7505  135.9157  159.6005 C   0  0  0  0  0  0  0  0  0  0  0  0
  147.7068  136.3594  161.0701 C   0  0  2  0  0  0  0  0  0  0  0  0
  147.2162  135.2729  162.0271 C   0  0  0  0  0  0  0  0  0  0  0  0
  146.6546  136.0956  163.1633 C   0  0  0  0  0  0  0  0  0  0  0  0
  146.0077  137.2535  162.4108 C   0  0  0  0  0  0  0  0  0  0  0  0
  146.7998  137.4470  161.2419 O   0  0  0  0  0  0  0  0  0  0  0  0
  149.3602  138.9918  158.1011 N   0  0  0  0  0  0  0  0  0  0  0  0
  150.5135  139.8819  158.1628 C   0  0  0  0  0  0  0  0  0  0  0  0
  150.2008  141.2603  157.5559 C   0  0  0  0  0  0  0  0  0  0  0  0
  150.9912  142.3720  158.2179 C   0  0  0  0  0  0  0  0  0  0  0  0
  151.7960  142.1496  159.3565 C   0  0  0  0  0  0  0  0  0  0  0  0
  152.5025  143.2318  159.9217 C   0  0  0  0  0  0  0  0  0  0  0  0
  152.3895  144.5109  159.3382 C   0  0  0  0  0  0  0  0  0  0  0  0
  151.5704  144.6764  158.2027 C   0  0  0  0  0  0  0  0  0  0  0  0
  150.9090  143.6153  157.6906 N   0  3  0  0  0  0  0  0  0  0  0  0
  147.0468  137.7632  158.7188 H   0  0  0  0  0  0  0  0  0  0  0  0
  147.9162  136.7374  157.5989 H   0  0  0  0  0  0  0  0  0  0  0  0
  146.8423  135.3573  159.3685 H   0  0  0  0  0  0  0  0  0  0  0  0
  148.5826  135.2233  159.4636 H   0  0  0  0  0  0  0  0  0  0  0  0
  148.6938  136.6950  161.3922 H   0  0  0  0  0  0  0  0  0  0  0  0
  146.4209  134.6833  161.5688 H   0  0  0  0  0  0  0  0  0  0  0  0
  148.0083  134.5927  162.3413 H   0  0  0  0  0  0  0  0  0  0  0  0
  145.9507  135.5445  163.7874 H   0  0  0  0  0  0  0  0  0  0  0  0
  147.4634  136.4621  163.7970 H   0  0  0  0  0  0  0  0  0  0  0  0
  144.9959  136.9877  162.1019 H   0  0  0  0  0  0  0  0  0  0  0  0
  145.9511  138.1617  163.0111 H   0  0  0  0  0  0  0  0  0  0  0  0
  148.6417  139.2170  157.4278 H   0  0  0  0  0  0  0  0  0  0  0  0
  150.8457  139.9832  159.1975 H   0  0  0  0  0  0  0  0  0  0  0  0
  151.3338  139.4138  157.6178 H   0  0  0  0  0  0  0  0  0  0  0  0
  150.4163  141.2543  156.4865 H   0  0  0  0  0  0  0  0  0  0  0  0
  149.1383  141.4877  157.6534 H   0  0  0  0  0  0  0  0  0  0  0  0
  151.8723  141.1640  159.7924 H   0  0  0  0  0  0  0  0  0  0  0  0
  153.1240  143.0822  160.7927 H   0  0  0  0  0  0  0  0  0  0  0  0
  152.9228  145.3525  159.7556 H   0  0  0  0  0  0  0  0  0  0  0  0
  151.4252  145.6175  157.6926 H   0  0  0  0  0  0  0  0  0  0  0  0
  150.3207  143.7576  156.8689 H   0  0  0  0  0  0  0  0  0  0  0  0
  1  2  2  0  0  0  0
  2  3  1  0  0  0  0
  2 10  1  0  0  0  0
  3  4  1  0  0  0  0
  3 19  1  0  0  0  0
  3 20  1  0  0  0  0
  4  5  1  0  0  0  0
  4 21  1  0  0  0  0
  4 22  1  0  0  0  0
  5  9  1  0  0  0  0
  5  6  1  0  0  0  0
  5 23  1  0  0  0  0
  6  7  1  0  0  0  0
  6 24  1  0  0  0  0
  6 25  1  0  0  0  0
  7  8  1  0  0  0  0
  7 26  1  0  0  0  0
  7 27  1  0  0  0  0
  8  9  1  0  0  0  0
  8 28  1  0  0  0  0
  8 29  1  0  0  0  0
 10 11  1  0  0  0  0
 10 30  1  0  0  0  0
 11 12  1  0  0  0  0
 11 31  1  0  0  0  0
 11 32  1  0  0  0  0
 12 13  1  0  0  0  0
 12 33  1  0  0  0  0
 12 34  1  0  0  0  0
 13 18  1  0  0  0  0
 13 14  2  0  0  0  0
 14 15  1  0  0  0  0
 14 35  1  0  0  0  0
 15 16  2  0  0  0  0
 15 36  1  0  0  0  0
 16 17  1  0  0  0  0
 16 37  1  0  0  0  0
 17 18  2  0  0  0  0
 17 38  1  0  0  0  0
 18 39  1  0  0  0  0
M  CHG  1  18   1
M  END
> <s_m_source_file>
AV-unprocessed.smi

> <i_m_source_file_index>
3266

> <i_lp_mmshare_version>
43012

> <i_f3d_flags>
0

> <s_epik_input>
TzFbQ0gyXVtDSDJdW0NIMl1bQ0BIXTFbQ0gyXVtDSDJdQyg9TylbTkhdW0NIMl1bQ0gyXWMyW2NIXVtjSF1bY0hdW2NIXW4y

> <s_epik_cmdline>
J2VwaWtfcHl0aG9uJywgJy1waCcsICc3LjAnLCAnLXRuJywgJzgnLCAnLW1hJywgJzIwMCcsICctbWV0YWxfYmluZGluZycsICctaW1hZScsICc8aW5maWxlLm1hZT4nLCAnLW9tYWUnLCAnPG91dGZpbGUubWFlPic=

> <r_epik_Ionization_Penalty>
1.8495

> <r_epik_Ionization_Penalty_Charging>
1.8495

> <r_epik_Ionization_Penalty_Neutral>
1.53068e-08

> <r_epik_State_Penalty>
1.96688

> <r_epik_Charging_Adjusted_Penalty>
3.81638

> <i_epik_Tot_Q>
1

> <i_epik_Tot_abs_Q>
1

> <r_epik_Metal_State_Penalty>
1.99263

> <b_epik_Metal_Only>
0

> <s_lp_Force_Field>
OPLS_2005

> <r_lp_Energy>
20.4442

> <b_lp_Chiralities_Consistent>
1

> <s_lp_Variant>
AV-unprocessed.smi:3266-3

> <Gold.Version>
5.8.1

> <Gold.Id.Protein>
6NUR|6NUR_protein|mol2

> <Gold.PLP.Fitness>
48.5298

> <Gold.PLP.PLP>
-40.3974

> <Gold.PLP.part.hbond>
-4.0000

> <Gold.PLP.part.metal>
0.0000

> <Gold.PLP.part.buried>
-5.7490

> <Gold.PLP.part.nonpolar>
-31.2764

> <Gold.PLP.part.repulsive>
0.1396

> <Gold.PLP.ligand.clash>
0.0000

> <Gold.PLP.ligand.torsion>
0.4792

> <Gold.PLP.Chemscore.Hbond>
3.0000

> <Gold.PLP.Chemscore.CHOScore>
0.0000

> <Gold.PLP.Chemscore.Metal>
0.0000

> <Gold.Chemscore.Hbonds>
donor molecule, donor type, donor heavy atom, donor atom, acceptor molecule, acceptor atom, score
      L1  H    18    39       P1  8028  1.69
      P1  H  6934  6947       L1     9  1.00

> <Gold.PLP.Chemscore.Internal.Correction>
0.0909

> <Gold.Rescore>
     Score         DG    S(hbond)    S(metal)    S(lipo)     H(rot)  DE(clash)    DE(int)     intcor
     18.22     -19.80       1.91        0.00     108.09       1.84       0.03       1.54       ----

> <Gold.Chemscore.Fitness>
18.2249

> <Gold.Chemscore.DG>
-19.7979

> <Gold.Chemscore.ZeroCoef>
-5.4800

> <Gold.Chemscore.Hbond>
1.9092

> <Gold.Chemscore.Metal>
0.0000

> <Gold.Chemscore.Lipo>
108.0924

> <Gold.Chemscore.Internal_Hbond>
0.0000

> <Gold.Chemscore.DEClash>
0.0310

> <Gold.Chemscore.DEInternal>
1.5420

> <Gold.Chemscore.Rot>
1.8382

> <Gold.Chemscore.Internal.Correction>
   9.000000E+99

> <Gold.Chemscore.Hbonds>
donor molecule, donor type, donor heavy atom, donor atom, acceptor molecule, acceptor atom, score
      L1  H    18    39       P1  8028  0.81
      P1  H  6934  6947       L1     9  0.87

> <Gold.Chemscore.Hbond.Weighted>
-6.3768

> <Gold.Chemscore.Metal.Weighted>
-0.0000

> <Gold.Chemscore.Lipo.Weighted>
-12.6468

> <Gold.Chemscore.Internal_Hbond.Weighted>
0.0000

> <Gold.Chemscore.DEClash.Weighted>
0.0310

> <Gold.Chemscore.DEInternal.Weighted>
1.5420

> <Gold.Chemscore.Rot.Weighted>
4.7058

> <Gold.Chemscore.Internal.Correction.Weighted>
   9.000000E+99

> <Gold.Protein.RotatedTorsions>
[ 6907 6896 6895 6894 ] final  -52.24 input  -60.11 | X-H torsion
[ 7974 7965 7964 7962 ] final  129.82 input  175.53 | X-H torsion
[ 8008 7997 7996 7995 ] final  141.27 input   59.86 | X-H torsion
[ 10167 10162 10161 10158 ] final  132.05 input  -65.29 | X-H torsion
[ 10718 10713 10712 10709 ] final   84.75 input   66.30 | X-H torsion
[ 10763 10752 10751 10750 ] final   57.31 input  -60.55 | X-H torsion
[ 11005 11000 10999 10996 ] final  -97.64 input  -57.11 | X-H torsion

> <Gold.Protein.ActiveResidues>
 VAL166  LYS551  ARG553  GLY616  TRP617  ASP618  TYR619  PRO620  LYS621  CYS622 
 ASP623  PHE694  ASN695  SER759  ASP760  ASP761  ALA762  ILE779  LEU786  VAL792 
 PHE793  MET794  SER795  GLU796  ALA797  LYS798  CYS799  TRP800  GLU811  SER814 

> <Gold.Protein.RotatedAtoms>
  150.8537  134.7869  159.7028 H   0  0  0  0  0  0  0  0  0  0  0  0  # atno 6907 bound_to 6896
  152.4594  134.5214  159.9793 H   0  0  0  0  0  0  0  0  0  0  0  0  # atno 6908 bound_to 6896
  151.5331  133.3407  159.2957 H   0  0  0  0  0  0  0  0  0  0  0  0  # atno 6909 bound_to 6896
  145.0245  139.4101  143.5180 H   0  0  0  0  0  0  0  0  0  0  0  0  # atno 7974 bound_to 7965
  156.2968  140.2319  156.4537 H   0  0  0  0  0  0  0  0  0  0  0  0  # atno 8008 bound_to 7997
  154.8079  140.0444  157.1342 H   0  0  0  0  0  0  0  0  0  0  0  0  # atno 8009 bound_to 7997
  154.9457  140.3035  155.5102 H   0  0  0  0  0  0  0  0  0  0  0  0  # atno 8010 bound_to 7997
  139.5356  144.6679  151.4796 H   0  0  0  0  0  0  0  0  0  0  0  0  # atno 10167 bound_to 10162
  157.6903  131.0146  150.2719 H   0  0  0  0  0  0  0  0  0  0  0  0  # atno 10718 bound_to 10713
  152.9847  135.5646  154.5370 H   0  0  0  0  0  0  0  0  0  0  0  0  # atno 10763 bound_to 10752
  154.4832  135.2789  155.1557 H   0  0  0  0  0  0  0  0  0  0  0  0  # atno 10764 bound_to 10752
  154.3057  135.6298  153.5497 H   0  0  0  0  0  0  0  0  0  0  0  0  # atno 10765 bound_to 10752
  141.1372  133.8186  157.0734 H   0  0  0  0  0  0  0  0  0  0  0  0  # atno 11005 bound_to 11000
  146.3490  139.9761  142.8701 LP  0  0  0  0  0  0  0  0  0  0  0  0  # atno 17320 bound_to 7965
  145.1851  140.9785  143.4243 LP  0  0  0  0  0  0  0  0  0  0  0  0  # atno 17321 bound_to 7965
  140.6561  143.8596  150.6837 LP  0  0  0  0  0  0  0  0  0  0  0  0  # atno 17342 bound_to 10162
  140.1976  143.3985  152.1816 LP  0  0  0  0  0  0  0  0  0  0  0  0  # atno 17343 bound_to 10162
  156.3280  130.3796  149.7516 LP  0  0  0  0  0  0  0  0  0  0  0  0  # atno 17370 bound_to 10713
  156.5065  130.8152  151.3152 LP  0  0  0  0  0  0  0  0  0  0  0  0  # atno 17371 bound_to 10713
  140.0497  134.9812  157.1114 LP  0  0  0  0  0  0  0  0  0  0  0  0  # atno 17394 bound_to 11000
  140.4009  134.2084  155.7163 LP  0  0  0  0  0  0  0  0  0  0  0  0  # atno 17395 bound_to 11000

$$$$
