AV-unprocessed.smi:2135|AV-procd|sdf|8698|dock3
  -GOLD-   2272011453D 1   1.00000     0.00000
 Structure written by MMmdl.
 42 43  0  0  0  0  0  0  0  0  1 V2000
  148.6304  136.3676  159.2446 C   0  0  0  0  0  0  0  0  0  0  0  0
  150.0801  137.2851  158.5836 S   0  0  0  0  0  0  0  0  0  0  0  0
  149.8798  138.7192  158.8424 O   0  0  0  0  0  0  0  0  0  0  0  0
  151.2964  136.6172  159.0716 O   0  0  0  0  0  0  0  0  0  0  0  0
  150.0008  137.0257  156.8652 N   0  0  0  0  0  0  0  0  0  0  0  0
  148.7328  137.2090  156.1351 C   0  0  0  0  0  0  0  0  0  0  0  0
  148.7976  138.4217  155.1935 C   0  0  0  0  0  0  0  0  0  0  0  0
  150.0226  138.3524  154.2636 C   0  0  0  0  0  0  0  0  0  0  0  0
  151.3392  138.1760  155.0546 C   0  0  1  0  0  0  0  0  0  0  0  0
  151.8196  139.4643  155.7503 C   0  0  0  0  0  0  0  0  0  0  0  0
  152.9586  139.5617  156.2080 O   0  0  0  0  0  0  0  0  0  0  0  0
  150.9103  140.4457  155.8597 N   0  0  0  0  0  0  0  0  0  0  0  0
  151.1404  141.7375  156.4948 C   0  0  0  0  0  0  0  0  0  0  0  0
  151.5799  141.5767  157.9590 C   0  0  0  0  0  0  0  0  0  0  0  0
  151.6852  142.9100  158.6722 C   0  0  0  0  0  0  0  0  0  0  0  0
  152.1011  142.9806  160.0177 C   0  0  0  0  0  0  0  0  0  0  0  0
  152.1784  144.2422  160.6381 C   0  0  0  0  0  0  0  0  0  0  0  0
  151.8349  145.3825  159.8845 C   0  0  0  0  0  0  0  0  0  0  0  0
  151.4351  145.3270  158.5958 N   0  0  0  0  0  0  0  0  0  0  0  0
  151.3637  144.1131  158.0082 C   0  0  0  0  0  0  0  0  0  0  0  0
  151.2128  136.9709  156.0203 C   0  0  0  0  0  0  0  0  0  0  0  0
  148.6956  136.3332  160.3317 H   0  0  0  0  0  0  0  0  0  0  0  0
  148.6239  135.3512  158.8527 H   0  0  0  0  0  0  0  0  0  0  0  0
  147.7112  136.8788  158.9680 H   0  0  0  0  0  0  0  0  0  0  0  0
  148.5325  136.3049  155.5592 H   0  0  0  0  0  0  0  0  0  0  0  0
  147.9051  137.3215  156.8352 H   0  0  0  0  0  0  0  0  0  0  0  0
  147.8874  138.4660  154.5950 H   0  0  0  0  0  0  0  0  0  0  0  0
  148.8093  139.3388  155.7808 H   0  0  0  0  0  0  0  0  0  0  0  0
  149.9031  137.5105  153.5805 H   0  0  0  0  0  0  0  0  0  0  0  0
  150.0654  139.2423  153.6341 H   0  0  0  0  0  0  0  0  0  0  0  0
  152.1176  137.9352  154.3291 H   0  0  0  0  0  0  0  0  0  0  0  0
  149.9920  140.2871  155.4703 H   0  0  0  0  0  0  0  0  0  0  0  0
  151.8820  142.3063  155.9310 H   0  0  0  0  0  0  0  0  0  0  0  0
  150.2109  142.3055  156.4457 H   0  0  0  0  0  0  0  0  0  0  0  0
  150.8726  140.9421  158.4946 H   0  0  0  0  0  0  0  0  0  0  0  0
  152.5462  141.0731  158.0122 H   0  0  0  0  0  0  0  0  0  0  0  0
  152.3552  142.0854  160.5664 H   0  0  0  0  0  0  0  0  0  0  0  0
  152.4929  144.3341  161.6671 H   0  0  0  0  0  0  0  0  0  0  0  0
  151.8827  146.3657  160.3289 H   0  0  0  0  0  0  0  0  0  0  0  0
  151.0378  144.1019  156.9783 H   0  0  0  0  0  0  0  0  0  0  0  0
  152.1011  136.8784  156.6446 H   0  0  0  0  0  0  0  0  0  0  0  0
  151.1723  136.0511  155.4358 H   0  0  0  0  0  0  0  0  0  0  0  0
  1  2  1  0  0  0  0
  1 22  1  0  0  0  0
  1 23  1  0  0  0  0
  1 24  1  0  0  0  0
  2  3  2  0  0  0  0
  2  4  2  0  0  0  0
  2  5  1  0  0  0  0
  5 21  1  0  0  0  0
  5  6  1  0  0  0  0
  6  7  1  0  0  0  0
  6 25  1  0  0  0  0
  6 26  1  0  0  0  0
  7  8  1  0  0  0  0
  7 27  1  0  0  0  0
  7 28  1  0  0  0  0
  8  9  1  0  0  0  0
  8 29  1  0  0  0  0
  8 30  1  0  0  0  0
  9 10  1  0  0  0  0
  9 21  1  0  0  0  0
  9 31  1  0  0  0  0
 10 11  2  0  0  0  0
 10 12  1  0  0  0  0
 12 13  1  0  0  0  0
 12 32  1  0  0  0  0
 13 14  1  0  0  0  0
 13 33  1  0  0  0  0
 13 34  1  0  0  0  0
 14 15  1  0  0  0  0
 14 35  1  0  0  0  0
 14 36  1  0  0  0  0
 15 20  1  0  0  0  0
 15 16  2  0  0  0  0
 16 17  1  0  0  0  0
 16 37  1  0  0  0  0
 17 18  2  0  0  0  0
 17 38  1  0  0  0  0
 18 19  1  0  0  0  0
 18 39  1  0  0  0  0
 19 20  2  0  0  0  0
 20 40  1  0  0  0  0
 21 41  1  0  0  0  0
 21 42  1  0  0  0  0
M  END
> <s_m_source_file>
AV-unprocessed.smi

> <i_m_source_file_index>
2135

> <i_lp_mmshare_version>
43012

> <i_f3d_flags>
0

> <s_epik_input>
W0NIM11TKD1PKSg9TylOMVtDSDJdW0NIMl1bQ0gyXVtDQEhdKFtDSDJdMSlDKD1PKVtOSF1bQ0gyXVtDSDJdYzJbY0hdW2NIXVtjSF1uW2NIXTI=

> <s_epik_cmdline>
J2VwaWtfcHl0aG9uJywgJy1waCcsICc3LjAnLCAnLXRuJywgJzgnLCAnLW1hJywgJzIwMCcsICctbWV0YWxfYmluZGluZycsICctaW1hZScsICc8aW5maWxlLm1hZT4nLCAnLW9tYWUnLCAnPG91dGZpbGUubWFlPic=

> <r_epik_Ionization_Penalty>
0.0134582

> <r_epik_Ionization_Penalty_Charging>
0

> <r_epik_Ionization_Penalty_Neutral>
0.0134582

> <r_epik_State_Penalty>
0.010475

> <r_epik_Charging_Adjusted_Penalty>
0.010475

> <i_epik_Tot_Q>
0

> <i_epik_Tot_abs_Q>
0

> <r_epik_Metal_State_Penalty>
0.0102416

> <b_epik_Metal_Only>
0

> <s_lp_Force_Field>
OPLS_2005

> <r_lp_Energy>
-1.27584

> <b_lp_Chiralities_Consistent>
1

> <s_lp_Variant>
AV-unprocessed.smi:2135-1

> <Gold.Version>
5.8.1

> <Gold.Id.Protein>
6NUR|6NUR_protein|mol2

> <Gold.PLP.Fitness>
46.8257

> <Gold.PLP.PLP>
-38.5939

> <Gold.PLP.part.hbond>
-2.8993

> <Gold.PLP.part.metal>
0.0000

> <Gold.PLP.part.buried>
-5.5949

> <Gold.PLP.part.nonpolar>
-30.8871

> <Gold.PLP.part.repulsive>
0.2451

> <Gold.PLP.ligand.clash>
0.0000

> <Gold.PLP.ligand.torsion>
1.4183

> <Gold.PLP.Chemscore.Hbond>
1.9920

> <Gold.PLP.Chemscore.CHOScore>
1.0000

> <Gold.PLP.Chemscore.Metal>
0.0000

> <Gold.Chemscore.Hbonds>
donor molecule, donor type, donor heavy atom, donor atom, acceptor molecule, acceptor atom, score
      P1  H  6896  6908       L1     4  1.00
      P1  H  7997  8008       L1    11  1.00
      L1  C    20    40       P1  8028  0.90

> <Gold.PLP.Chemscore.Internal.Correction>
2.0924

> <Gold.Rescore>
     Score         DG    S(hbond)    S(metal)    S(lipo)     H(rot)  DE(clash)    DE(int)     intcor
     16.48     -18.94       1.85        0.00      96.50       1.56       0.04       2.43       ----

> <Gold.Chemscore.Fitness>
16.4775

> <Gold.Chemscore.DG>
-18.9425

> <Gold.Chemscore.ZeroCoef>
-5.4800

> <Gold.Chemscore.Hbond>
1.8491

> <Gold.Chemscore.Metal>
0.0000

> <Gold.Chemscore.Lipo>
96.5043

> <Gold.Chemscore.Internal_Hbond>
0.0000

> <Gold.Chemscore.DEClash>
0.0354

> <Gold.Chemscore.DEInternal>
2.4297

> <Gold.Chemscore.Rot>
1.5643

> <Gold.Chemscore.Internal.Correction>
   9.000000E+99

> <Gold.Chemscore.Hbonds>
donor molecule, donor type, donor heavy atom, donor atom, acceptor molecule, acceptor atom, score
      P1  H  6896  6908       L1     4  0.94
      P1  H  7997  8008       L1    11  0.92

> <Gold.Chemscore.Hbond.Weighted>
-6.1761

> <Gold.Chemscore.Metal.Weighted>
-0.0000

> <Gold.Chemscore.Lipo.Weighted>
-11.2910

> <Gold.Chemscore.Internal_Hbond.Weighted>
0.0000

> <Gold.Chemscore.DEClash.Weighted>
0.0354

> <Gold.Chemscore.DEInternal.Weighted>
2.4297

> <Gold.Chemscore.Rot.Weighted>
4.0046

> <Gold.Chemscore.Internal.Correction.Weighted>
   9.000000E+99

> <Gold.Protein.RotatedTorsions>
[ 6907 6896 6895 6894 ] final -130.80 input  -60.11 | X-H torsion
[ 7974 7965 7964 7962 ] final -143.67 input  175.53 | X-H torsion
[ 8008 7997 7996 7995 ] final  -23.30 input   59.86 | X-H torsion
[ 10167 10162 10161 10158 ] final   90.06 input  -65.29 | X-H torsion
[ 10718 10713 10712 10709 ] final   -4.47 input   66.30 | X-H torsion
[ 10763 10752 10751 10750 ] final -137.69 input  -60.55 | X-H torsion
[ 11005 11000 10999 10996 ] final  139.45 input  -57.11 | X-H torsion

> <Gold.Protein.ActiveResidues>
 VAL166  LYS551  ARG553  GLY616  TRP617  ASP618  TYR619  PRO620  LYS621  CYS622 
 ASP623  PHE694  ASN695  SER759  ASP760  ASP761  ALA762  ILE779  LEU786  VAL792 
 PHE793  MET794  SER795  GLU796  ALA797  LYS798  CYS799  TRP800  GLU811  SER814 

> <Gold.Protein.RotatedAtoms>
  150.9438  133.6626  159.2785 H   0  0  0  0  0  0  0  0  0  0  0  0  # atno 6907 bound_to 6896
  151.4006  135.0969  159.9564 H   0  0  0  0  0  0  0  0  0  0  0  0  # atno 6908 bound_to 6896
  152.5081  133.8933  159.7459 H   0  0  0  0  0  0  0  0  0  0  0  0  # atno 6909 bound_to 6896
  144.8352  140.5805  143.5488 H   0  0  0  0  0  0  0  0  0  0  0  0  # atno 7974 bound_to 7965
  154.4593  140.1984  156.0289 H   0  0  0  0  0  0  0  0  0  0  0  0  # atno 8008 bound_to 7997
  156.0809  140.3271  155.7665 H   0  0  0  0  0  0  0  0  0  0  0  0  # atno 8009 bound_to 7997
  155.5112  140.0562  157.2914 H   0  0  0  0  0  0  0  0  0  0  0  0  # atno 8010 bound_to 7997
  139.8511  144.6593  150.9168 H   0  0  0  0  0  0  0  0  0  0  0  0  # atno 10167 bound_to 10162
  156.7608  130.5269  149.5785 H   0  0  0  0  0  0  0  0  0  0  0  0  # atno 10718 bound_to 10713
  154.8656  135.3634  154.5263 H   0  0  0  0  0  0  0  0  0  0  0  0  # atno 10763 bound_to 10752
  153.5891  135.7016  153.5435 H   0  0  0  0  0  0  0  0  0  0  0  0  # atno 10764 bound_to 10752
  153.3389  135.4103  155.1518 H   0  0  0  0  0  0  0  0  0  0  0  0  # atno 10765 bound_to 10752
  140.0256  134.9376  157.0561 H   0  0  0  0  0  0  0  0  0  0  0  0  # atno 11005 bound_to 11000
  145.4810  139.1495  143.3762 LP  0  0  0  0  0  0  0  0  0  0  0  0  # atno 17320 bound_to 7965
  146.2652  140.4946  142.8837 LP  0  0  0  0  0  0  0  0  0  0  0  0  # atno 17321 bound_to 7965
  140.7787  143.3826  151.1449 LP  0  0  0  0  0  0  0  0  0  0  0  0  # atno 17342 bound_to 10162
  139.7464  143.8845  152.3065 LP  0  0  0  0  0  0  0  0  0  0  0  0  # atno 17343 bound_to 10162
  156.1340  130.6198  151.0374 LP  0  0  0  0  0  0  0  0  0  0  0  0  # atno 17370 bound_to 10713
  157.6735  131.0856  150.7552 LP  0  0  0  0  0  0  0  0  0  0  0  0  # atno 17371 bound_to 10713
  140.4312  134.1778  155.7168 LP  0  0  0  0  0  0  0  0  0  0  0  0  # atno 17394 bound_to 11000
  141.1800  133.8433  157.1289 LP  0  0  0  0  0  0  0  0  0  0  0  0  # atno 17395 bound_to 11000

$$$$
