AV-unprocessed.smi:977|AV-procd|sdf|4305|dock10
  -GOLD-   22720 2213D 1   1.00000     0.00000
 Structure written by MMmdl.
 37 38  0  0  0  0  0  0  0  0  1 V2000
  152.1795  137.5095  159.4345 C   0  0  0  0  0  0  0  0  0  0  0  0
  152.0297  137.3316  157.9490 C   0  0  0  0  0  0  0  0  0  0  0  0
  152.1261  136.1154  157.4319 N   0  0  0  0  0  0  0  0  0  0  0  0
  151.8769  136.2416  156.0563 O   0  0  0  0  0  0  0  0  0  0  0  0
  151.6339  137.5476  155.7711 C   0  0  0  0  0  0  0  0  0  0  0  0
  151.3276  137.8865  154.3514 C   0  0  0  0  0  0  0  0  0  0  0  0
  151.7473  138.2753  156.9184 C   0  0  0  0  0  0  0  0  0  0  0  0
  151.5364  139.6734  157.0147 N   0  0  0  0  0  0  0  0  0  0  0  0
  152.2148  140.5315  157.7911 C   0  0  0  0  0  0  0  0  0  0  0  0
  153.1778  140.2286  158.4956 O   0  0  0  0  0  0  0  0  0  0  0  0
  151.7262  141.7761  157.6897 N   0  0  0  0  0  0  0  0  0  0  0  0
  152.2309  142.9453  158.4070 C   0  0  1  0  0  0  0  0  0  0  0  0
  151.6309  144.2064  157.7658 C   0  0  0  0  0  0  0  0  0  0  0  0
  151.8955  142.8358  159.9109 C   0  0  2  0  0  0  0  0  0  0  0  0
  152.1430  144.1204  160.7086 C   0  0  0  0  0  0  0  0  0  0  0  0
  152.4501  143.5875  162.0887 C   0  0  0  0  0  0  0  0  0  0  0  0
  153.2674  142.3476  161.7522 C   0  0  0  0  0  0  0  0  0  0  0  0
  152.7071  141.8451  160.5445 O   0  0  0  0  0  0  0  0  0  0  0  0
  151.5458  138.3172  159.8012 H   0  0  0  0  0  0  0  0  0  0  0  0
  153.2106  137.7444  159.6991 H   0  0  0  0  0  0  0  0  0  0  0  0
  151.8972  136.6057  159.9754 H   0  0  0  0  0  0  0  0  0  0  0  0
  150.9857  138.9174  154.2585 H   0  0  0  0  0  0  0  0  0  0  0  0
  150.5463  137.2358  153.9582 H   0  0  0  0  0  0  0  0  0  0  0  0
  152.2136  137.7670  153.7281 H   0  0  0  0  0  0  0  0  0  0  0  0
  150.8567  140.0668  156.3806 H   0  0  0  0  0  0  0  0  0  0  0  0
  150.9351  141.9261  157.0810 H   0  0  0  0  0  0  0  0  0  0  0  0
  153.3150  142.9994  158.2914 H   0  0  0  0  0  0  0  0  0  0  0  0
  152.0246  145.1130  158.2255 H   0  0  0  0  0  0  0  0  0  0  0  0
  150.5452  144.2260  157.8680 H   0  0  0  0  0  0  0  0  0  0  0  0
  151.8661  144.2550  156.7021 H   0  0  0  0  0  0  0  0  0  0  0  0
  150.8556  142.5320  160.0420 H   0  0  0  0  0  0  0  0  0  0  0  0
  153.0115  144.6549  160.3205 H   0  0  0  0  0  0  0  0  0  0  0  0
  151.2908  144.8004  160.6946 H   0  0  0  0  0  0  0  0  0  0  0  0
  152.9905  144.2979  162.7150 H   0  0  0  0  0  0  0  0  0  0  0  0
  151.5278  143.3072  162.5995 H   0  0  0  0  0  0  0  0  0  0  0  0
  154.3075  142.6171  161.5656 H   0  0  0  0  0  0  0  0  0  0  0  0
  153.2462  141.6004  162.5454 H   0  0  0  0  0  0  0  0  0  0  0  0
  1  2  1  0  0  0  0
  1 19  1  0  0  0  0
  1 20  1  0  0  0  0
  1 21  1  0  0  0  0
  2  7  1  0  0  0  0
  2  3  2  0  0  0  0
  3  4  1  0  0  0  0
  4  5  1  0  0  0  0
  5  6  1  0  0  0  0
  5  7  2  0  0  0  0
  6 22  1  0  0  0  0
  6 23  1  0  0  0  0
  6 24  1  0  0  0  0
  7  8  1  0  0  0  0
  8  9  1  0  0  0  0
  8 25  1  0  0  0  0
  9 10  2  0  0  0  0
  9 11  1  0  0  0  0
 11 12  1  0  0  0  0
 11 26  1  0  0  0  0
 12 13  1  0  0  0  0
 12 14  1  0  0  0  0
 12 27  1  0  0  0  0
 13 28  1  0  0  0  0
 13 29  1  0  0  0  0
 13 30  1  0  0  0  0
 14 18  1  0  0  0  0
 14 15  1  0  0  0  0
 14 31  1  0  0  0  0
 15 16  1  0  0  0  0
 15 32  1  0  0  0  0
 15 33  1  0  0  0  0
 16 17  1  0  0  0  0
 16 34  1  0  0  0  0
 16 35  1  0  0  0  0
 17 18  1  0  0  0  0
 17 36  1  0  0  0  0
 17 37  1  0  0  0  0
M  END
> <s_m_source_file>
AV-unprocessed.smi

> <i_m_source_file_index>
977

> <i_lp_mmshare_version>
43012

> <i_f3d_flags>
0

> <s_epik_input>
W0NIM11jMW5vYyhbQ0gzXSljMVtOSF1DKD1PKVtOSF1bQ0BIXShbQ0gzXSlbQ0BASF0yW0NIMl1bQ0gyXVtDSDJdTzI=

> <s_epik_cmdline>
J2VwaWtfcHl0aG9uJywgJy1waCcsICc3LjAnLCAnLXRuJywgJzgnLCAnLW1hJywgJzIwMCcsICctbWV0YWxfYmluZGluZycsICctaW1hZScsICc8aW5maWxlLm1hZT4nLCAnLW9tYWUnLCAnPG91dGZpbGUubWFlPic=

> <r_lp_tautomer_probability>
1

> <r_epik_Ionization_Penalty>
3.41601e-05

> <r_epik_Ionization_Penalty_Charging>
0

> <r_epik_Ionization_Penalty_Neutral>
3.41601e-05

> <r_epik_State_Penalty>
-0

> <r_epik_Charging_Adjusted_Penalty>
0

> <i_epik_Tot_Q>
0

> <i_epik_Tot_abs_Q>
0

> <r_epik_Metal_State_Penalty>
-0

> <b_epik_Metal_Only>
0

> <s_lp_Force_Field>
OPLS_2005

> <r_lp_Energy>
19.7508

> <b_lp_Chiralities_Consistent>
1

> <s_lp_Variant>
AV-unprocessed.smi:977-2

> <Gold.Version>
5.8.1

> <Gold.Id.Protein>
6NUR|6NUR_protein|mol2

> <Gold.PLP.Fitness>
39.3262

> <Gold.PLP.PLP>
-34.3209

> <Gold.PLP.part.hbond>
-2.2811

> <Gold.PLP.part.metal>
0.0000

> <Gold.PLP.part.buried>
-4.7091

> <Gold.PLP.part.nonpolar>
-27.2269

> <Gold.PLP.part.repulsive>
0.1620

> <Gold.PLP.ligand.clash>
0.0000

> <Gold.PLP.ligand.torsion>
0.5655

> <Gold.PLP.Chemscore.Hbond>
1.9600

> <Gold.PLP.Chemscore.CHOScore>
0.0000

> <Gold.PLP.Chemscore.Metal>
0.0000

> <Gold.Chemscore.Hbonds>
donor molecule, donor type, donor heavy atom, donor atom, acceptor molecule, acceptor atom, score
      P1  H  7997  8010       L1    10  0.87
      P1  H 10752 10763       L1     4  1.00

> <Gold.PLP.Chemscore.Internal.Correction>
0.2562

> <Gold.Rescore>
     Score         DG    S(hbond)    S(metal)    S(lipo)     H(rot)  DE(clash)    DE(int)     intcor
     16.23     -18.72       1.56        0.00      95.25       1.22       0.25       2.24       ----

> <Gold.Chemscore.Fitness>
16.2342

> <Gold.Chemscore.DG>
-18.7243

> <Gold.Chemscore.ZeroCoef>
-5.4800

> <Gold.Chemscore.Hbond>
1.5639

> <Gold.Chemscore.Metal>
0.0000

> <Gold.Chemscore.Lipo>
95.2481

> <Gold.Chemscore.Internal_Hbond>
0.0000

> <Gold.Chemscore.DEClash>
0.2455

> <Gold.Chemscore.DEInternal>
2.2446

> <Gold.Chemscore.Rot>
1.2200

> <Gold.Chemscore.Internal.Correction>
   9.000000E+99

> <Gold.Chemscore.Hbonds>
donor molecule, donor type, donor heavy atom, donor atom, acceptor molecule, acceptor atom, score
      P1  H  7997  8010       L1    10  0.18
      P1  H 10752 10763       L1     4  0.69

> <Gold.Chemscore.Hbond.Weighted>
-5.2234

> <Gold.Chemscore.Metal.Weighted>
-0.0000

> <Gold.Chemscore.Lipo.Weighted>
-11.1440

> <Gold.Chemscore.Internal_Hbond.Weighted>
0.0000

> <Gold.Chemscore.DEClash.Weighted>
0.2455

> <Gold.Chemscore.DEInternal.Weighted>
2.2446

> <Gold.Chemscore.Rot.Weighted>
3.1232

> <Gold.Chemscore.Internal.Correction.Weighted>
   9.000000E+99

> <Gold.Protein.RotatedTorsions>
[ 6907 6896 6895 6894 ] final  -79.68 input  -60.11 | X-H torsion
[ 7974 7965 7964 7962 ] final  168.95 input  175.53 | X-H torsion
[ 8008 7997 7996 7995 ] final   33.12 input   59.86 | X-H torsion
[ 10167 10162 10161 10158 ] final    8.86 input  -65.29 | X-H torsion
[ 10718 10713 10712 10709 ] final   59.53 input   66.30 | X-H torsion
[ 10763 10752 10751 10750 ] final   95.06 input  -60.55 | X-H torsion
[ 11005 11000 10999 10996 ] final  173.52 input  -57.11 | X-H torsion

> <Gold.Protein.ActiveResidues>
 VAL166  LYS551  ARG553  GLY616  TRP617  ASP618  TYR619  PRO620  LYS621  CYS622 
 ASP623  PHE694  ASN695  SER759  ASP760  ASP761  ALA762  ILE779  LEU786  VAL792 
 PHE793  MET794  SER795  GLU796  ALA797  LYS798  CYS799  TRP800  GLU811  SER814 

> <Gold.Protein.RotatedAtoms>
  150.6945  134.4085  159.5150 H   0  0  0  0  0  0  0  0  0  0  0  0  # atno 6907 bound_to 6896
  152.1847  134.8721  160.0532 H   0  0  0  0  0  0  0  0  0  0  0  0  # atno 6908 bound_to 6896
  151.9698  133.3687  159.4104 H   0  0  0  0  0  0  0  0  0  0  0  0  # atno 6909 bound_to 6896
  144.7371  139.8982  143.6407 H   0  0  0  0  0  0  0  0  0  0  0  0  # atno 7974 bound_to 7965
  155.1335  140.3259  155.4468 H   0  0  0  0  0  0  0  0  0  0  0  0  # atno 8008 bound_to 7997
  156.2627  140.2006  156.6402 H   0  0  0  0  0  0  0  0  0  0  0  0  # atno 8009 bound_to 7997
  154.6595  140.0549  157.0033 H   0  0  0  0  0  0  0  0  0  0  0  0  # atno 8010 bound_to 7997
  140.6289  143.8038  150.7269 H   0  0  0  0  0  0  0  0  0  0  0  0  # atno 10167 bound_to 10162
  157.5683  130.8888  149.9224 H   0  0  0  0  0  0  0  0  0  0  0  0  # atno 10718 bound_to 10713
  153.2488  135.4267  155.0776 H   0  0  0  0  0  0  0  0  0  0  0  0  # atno 10763 bound_to 10752
  154.8373  135.3421  154.6542 H   0  0  0  0  0  0  0  0  0  0  0  0  # atno 10764 bound_to 10752
  153.6964  135.7031  153.5132 H   0  0  0  0  0  0  0  0  0  0  0  0  # atno 10765 bound_to 10752
  140.3414  134.7273  157.4205 H   0  0  0  0  0  0  0  0  0  0  0  0  # atno 11005 bound_to 11000
  146.1091  139.4094  143.0299 LP  0  0  0  0  0  0  0  0  0  0  0  0  # atno 17320 bound_to 7965
  145.7468  140.9987  143.1271 LP  0  0  0  0  0  0  0  0  0  0  0  0  # atno 17321 bound_to 7965
  140.1645  143.4247  152.2044 LP  0  0  0  0  0  0  0  0  0  0  0  0  # atno 17342 bound_to 10162
  139.5506  144.7334  151.4448 LP  0  0  0  0  0  0  0  0  0  0  0  0  # atno 17343 bound_to 10162
  156.0730  130.3682  150.0737 LP  0  0  0  0  0  0  0  0  0  0  0  0  # atno 17370 bound_to 10713
  156.8893  130.9583  151.3590 LP  0  0  0  0  0  0  0  0  0  0  0  0  # atno 17371 bound_to 10713
  140.0778  134.5773  155.8572 LP  0  0  0  0  0  0  0  0  0  0  0  0  # atno 17394 bound_to 11000
  141.2037  133.6634  156.6080 LP  0  0  0  0  0  0  0  0  0  0  0  0  # atno 17395 bound_to 11000

$$$$
