AV-unprocessed.smi:2750|AV-procd|sdf|10594|dock8
  -GOLD-   2272015 43D 1   1.00000     0.00000
 Structure written by MMmdl.
 24 25  0  0  0  0  0  0  0  0  3 V2000
  146.5076  137.2483  160.8346 O   0  0  0  0  0  0  0  0  0  0  0  0
  147.4530  136.5596  161.2781 C   0  0  0  0  0  0  0  0  0  0  0  0
  148.1112  136.8099  162.3119 O   0  5  0  0  0  0  0  0  0  0  0  0
  147.8171  135.2856  160.5127 C   0  0  0  0  0  0  0  0  0  0  0  0
  148.5222  135.5539  159.2714 N   0  0  0  0  0  0  0  0  0  0  0  0
  148.7364  136.7674  158.6500 C   0  0  0  0  0  0  0  0  0  0  0  0
  149.4688  136.4350  157.5460 C   0  0  0  0  0  0  0  0  0  0  0  0
  150.0315  137.3224  156.4749 C   0  0  0  0  0  0  0  0  0  0  0  0
  149.7269  136.8194  155.0470 C   0  0  1  0  0  0  0  0  0  0  0  0
  148.3029  136.8535  154.7560 N   0  5  0  0  0  0  0  0  0  0  0  0
  148.1034  137.6454  153.6764 C   0  0  0  0  0  0  0  0  0  0  0  0
  147.0378  137.9113  153.1248 O   0  0  0  0  0  0  0  0  0  0  0  0
  149.2617  138.1503  153.2396 N   0  0  0  0  0  0  0  0  0  0  0  0
  150.2860  137.7429  153.9820 C   0  0  0  0  0  0  0  0  0  0  0  0
  151.4715  138.0438  153.8484 O   0  0  0  0  0  0  0  0  0  0  0  0
  149.6604  135.0533  157.5360 N   0  0  0  0  0  0  0  0  0  0  0  0
  149.0859  134.5359  158.5766 N   0  0  0  0  0  0  0  0  0  0  0  0
  148.4427  134.6426  161.1335 H   0  0  0  0  0  0  0  0  0  0  0  0
  146.9069  134.7252  160.2943 H   0  0  0  0  0  0  0  0  0  0  0  0
  148.3702  137.7102  159.0279 H   0  0  0  0  0  0  0  0  0  0  0  0
  149.6579  138.3399  156.6011 H   0  0  0  0  0  0  0  0  0  0  0  0
  151.1116  137.3935  156.6106 H   0  0  0  0  0  0  0  0  0  0  0  0
  150.1626  135.8304  154.8983 H   0  0  0  0  0  0  0  0  0  0  0  0
  149.3454  138.7727  152.4501 H   0  0  0  0  0  0  0  0  0  0  0  0
  1  2  2  0  0  0  0
  2  3  1  0  0  0  0
  2  4  1  0  0  0  0
  4  5  1  0  0  0  0
  4 18  1  0  0  0  0
  4 19  1  0  0  0  0
  5 17  1  0  0  0  0
  5  6  1  0  0  0  0
  6  7  2  0  0  0  0
  6 20  1  0  0  0  0
  7  8  1  0  0  0  0
  7 16  1  0  0  0  0
  8  9  1  0  0  0  0
  8 21  1  0  0  0  0
  8 22  1  0  0  0  0
  9 14  1  0  0  0  0
  9 10  1  0  0  0  0
  9 23  1  0  0  0  0
 10 11  1  0  0  0  0
 11 12  2  0  0  0  0
 11 13  1  0  0  0  0
 13 14  1  0  0  0  0
 13 24  1  0  0  0  0
 14 15  2  0  0  0  0
 16 17  2  0  0  0  0
M  CHG  1   3  -1
M  CHG  1  10  -1
M  END
> <s_m_source_file>
AV-unprocessed.smi

> <i_m_source_file_index>
2750

> <i_lp_mmshare_version>
43012

> <i_f3d_flags>
0

> <s_epik_input>
Tz1DKFtPSF0pW0NIMl1uMVtjSF1jKG5uMSlbQ0gyXVtDQEBIXTJbTkhdQyg9TylbTkhdQzI9Tw==

> <s_epik_cmdline>
J2VwaWtfcHl0aG9uJywgJy1waCcsICc3LjAnLCAnLXRuJywgJzgnLCAnLW1hJywgJzIwMCcsICctbWV0YWxfYmluZGluZycsICctaW1hZScsICc8aW5maWxlLm1hZT4nLCAnLW9tYWUnLCAnPG91dGZpbGUubWFlPic=

> <r_lp_tautomer_probability>
1

> <r_epik_Ionization_Penalty>
5.10791

> <r_epik_Ionization_Penalty_Charging>
5.10788

> <r_epik_Ionization_Penalty_Neutral>
2.55687e-05

> <r_epik_State_Penalty>
5.12334

> <r_epik_Charging_Adjusted_Penalty>
10.2312

> <i_epik_Tot_Q>
-2

> <i_epik_Tot_abs_Q>
2

> <r_epik_Metal_State_Penalty>
1.50935

> <b_epik_Metal_Only>
1

> <s_lp_Force_Field>
OPLS_2005

> <r_lp_Energy>
16.7857

> <b_lp_Chiralities_Consistent>
1

> <s_lp_Variant>
AV-unprocessed.smi:2750-6

> <Gold.Version>
5.8.1

> <Gold.Id.Protein>
6NUR|6NUR_protein|mol2

> <Gold.PLP.Fitness>
39.8449

> <Gold.PLP.PLP>
-21.9252

> <Gold.PLP.part.hbond>
-5.7574

> <Gold.PLP.part.metal>
0.0000

> <Gold.PLP.part.buried>
-5.1293

> <Gold.PLP.part.nonpolar>
-12.4384

> <Gold.PLP.part.repulsive>
0.5208

> <Gold.PLP.ligand.clash>
0.0000

> <Gold.PLP.ligand.torsion>
0.3700

> <Gold.PLP.Chemscore.Hbond>
6.2160

> <Gold.PLP.Chemscore.CHOScore>
0.0000

> <Gold.PLP.Chemscore.Metal>
0.0000

> <Gold.Chemscore.Hbonds>
donor molecule, donor type, donor heavy atom, donor atom, acceptor molecule, acceptor atom, score
      L1  H    13    24       P1  7957  1.00
      P1  H  6896  6908       L1    17  0.62
      P1  H  6931  6943       L1     3  2.00
      P1  H  6934  6947       L1     1  2.00

> <Gold.PLP.Chemscore.Internal.Correction>
0.0118

> <Gold.Rescore>
     Score         DG    S(hbond)    S(metal)    S(lipo)     H(rot)  DE(clash)    DE(int)     intcor
     10.00     -10.70       3.07        0.00      18.10       2.80       0.29       0.41       ----

> <Gold.Chemscore.Fitness>
9.9979

> <Gold.Chemscore.DG>
-10.6992

> <Gold.Chemscore.ZeroCoef>
-5.4800

> <Gold.Chemscore.Hbond>
3.0728

> <Gold.Chemscore.Metal>
0.0000

> <Gold.Chemscore.Lipo>
18.0968

> <Gold.Chemscore.Internal_Hbond>
0.0000

> <Gold.Chemscore.DEClash>
0.2901

> <Gold.Chemscore.DEInternal>
0.4111

> <Gold.Chemscore.Rot>
2.7973

> <Gold.Chemscore.Internal.Correction>
   9.000000E+99

> <Gold.Chemscore.Hbonds>
donor molecule, donor type, donor heavy atom, donor atom, acceptor molecule, acceptor atom, score
      L1  H    13    24       P1  7957  0.82
      P1  H  6896  6908       L1    17  0.01
      P1  H  6931  6943       L1     3  0.55
      P1  H  6934  6947       L1     1  0.45

> <Gold.Chemscore.Hbond.Weighted>
-10.2630

> <Gold.Chemscore.Metal.Weighted>
-0.0000

> <Gold.Chemscore.Lipo.Weighted>
-2.1173

> <Gold.Chemscore.Internal_Hbond.Weighted>
0.0000

> <Gold.Chemscore.DEClash.Weighted>
0.2901

> <Gold.Chemscore.DEInternal.Weighted>
0.4111

> <Gold.Chemscore.Rot.Weighted>
7.1611

> <Gold.Chemscore.Internal.Correction.Weighted>
   9.000000E+99

> <Gold.Protein.RotatedTorsions>
[ 6907 6896 6895 6894 ] final  158.72 input  -60.11 | X-H torsion
[ 7974 7965 7964 7962 ] final   -9.41 input  175.53 | X-H torsion
[ 8008 7997 7996 7995 ] final  -86.26 input   59.86 | X-H torsion
[ 10167 10162 10161 10158 ] final -124.24 input  -65.29 | X-H torsion
[ 10718 10713 10712 10709 ] final    9.90 input   66.30 | X-H torsion
[ 10763 10752 10751 10750 ] final  -13.40 input  -60.55 | X-H torsion
[ 11005 11000 10999 10996 ] final -162.84 input  -57.11 | X-H torsion

> <Gold.Protein.ActiveResidues>
 VAL166  LYS551  ARG553  GLY616  TRP617  ASP618  TYR619  PRO620  LYS621  CYS622 
 ASP623  PHE694  ASN695  SER759  ASP760  ASP761  ALA762  ILE779  LEU786  VAL792 
 PHE793  MET794  SER795  GLU796  ALA797  LYS798  CYS799  TRP800  GLU811  SER814 

> <Gold.Protein.RotatedAtoms>
  151.9963  133.3809  159.4163 H   0  0  0  0  0  0  0  0  0  0  0  0  # atno 6907 bound_to 6896
  150.6915  134.3883  159.5074 H   0  0  0  0  0  0  0  0  0  0  0  0  # atno 6908 bound_to 6896
  152.1623  134.8901  160.0591 H   0  0  0  0  0  0  0  0  0  0  0  0  # atno 6909 bound_to 6896
  146.2252  140.2613  142.8352 H   0  0  0  0  0  0  0  0  0  0  0  0  # atno 7974 bound_to 7965
  154.6498  140.0581  156.9943 H   0  0  0  0  0  0  0  0  0  0  0  0  # atno 8008 bound_to 7997
  155.1388  140.3263  155.4438 H   0  0  0  0  0  0  0  0  0  0  0  0  # atno 8009 bound_to 7997
  156.2571  140.1968  156.6505 H   0  0  0  0  0  0  0  0  0  0  0  0  # atno 8010 bound_to 7997
  139.9949  143.5601  152.2327 H   0  0  0  0  0  0  0  0  0  0  0  0  # atno 10167 bound_to 10162
  156.9730  130.5976  149.5670 H   0  0  0  0  0  0  0  0  0  0  0  0  # atno 10718 bound_to 10713
  153.5128  135.7016  153.5772 H   0  0  0  0  0  0  0  0  0  0  0  0  # atno 10763 bound_to 10752
  153.3855  135.3909  155.1886 H   0  0  0  0  0  0  0  0  0  0  0  0  # atno 10764 bound_to 10752
  154.8702  135.3845  154.4610 H   0  0  0  0  0  0  0  0  0  0  0  0  # atno 10765 bound_to 10752
  140.6047  134.4910  157.5209 H   0  0  0  0  0  0  0  0  0  0  0  0  # atno 11005 bound_to 11000
  144.9338  140.8004  143.5673 LP  0  0  0  0  0  0  0  0  0  0  0  0  # atno 17320 bound_to 7965
  145.2558  139.2012  143.4918 LP  0  0  0  0  0  0  0  0  0  0  0  0  # atno 17321 bound_to 7965
  139.6313  144.7644  151.2530 LP  0  0  0  0  0  0  0  0  0  0  0  0  # atno 17342 bound_to 10162
  140.7441  143.6475  150.8279 LP  0  0  0  0  0  0  0  0  0  0  0  0  # atno 17343 bound_to 10162
  156.0275  130.5368  150.8445 LP  0  0  0  0  0  0  0  0  0  0  0  0  # atno 17370 bound_to 10713
  157.5579  131.0945  150.9602 LP  0  0  0  0  0  0  0  0  0  0  0  0  # atno 17371 bound_to 10713
  139.9217  134.8135  156.1191 LP  0  0  0  0  0  0  0  0  0  0  0  0  # atno 17394 bound_to 11000
  141.0848  133.6739  156.2413 LP  0  0  0  0  0  0  0  0  0  0  0  0  # atno 17395 bound_to 11000

$$$$
