AV-unprocessed.smi:276|AV-procd|sdf|2082|dock6
  -GOLD-   2262021353D 1   1.00000     0.00000
 Structure written by MMmdl.
 57 61  0  0  0  0  0  0  0  0  1 V2000
  142.2139  136.1647  153.2273 C   0  0  0  0  0  0  0  0  0  0  0  0
  143.4265  136.1214  153.9585 O   0  0  0  0  0  0  0  0  0  0  0  0
  144.3145  137.1678  153.5996 C   0  0  2  0  0  0  0  0  0  0  0  0
  145.4593  136.7412  152.6725 C   0  0  0  0  0  0  0  0  0  0  0  0
  146.4058  137.6296  153.5042 C   0  0  1  0  0  0  0  0  0  0  0  0
  146.5177  138.9780  152.9306 N   0  0  0  0  0  0  0  0  0  0  0  0
  146.8318  139.0532  151.5063 C   0  0  0  0  0  0  0  0  0  0  0  0
  147.2498  139.8775  153.6258 C   0  0  0  0  0  0  0  0  0  0  0  0
  146.6641  141.0728  153.8859 N   0  0  0  0  0  0  0  0  0  0  0  0
  147.3256  142.0061  154.5757 C   0  0  0  0  0  0  0  0  0  0  0  0
  148.5600  141.9530  155.0798 N   0  0  0  0  0  0  0  0  0  0  0  0
  149.1598  140.7600  154.8028 C   0  0  0  0  0  0  0  0  0  0  0  0
  148.5829  139.6736  154.0861 C   0  0  0  0  0  0  0  0  0  0  0  0
  149.4926  138.6259  154.0066 N   0  0  0  0  0  0  0  0  0  0  0  0
  150.5402  139.0617  154.6502 C   0  0  0  0  0  0  0  0  0  0  0  0
  150.4359  140.3434  155.1413 N   0  0  0  0  0  0  0  0  0  0  0  0
  151.4468  141.0686  155.8922 C   0  0  0  0  0  0  0  0  0  0  0  0
  151.7852  140.4488  157.2691 C   0  0  1  0  0  0  0  0  0  0  0  0
  152.6556  139.3698  156.9933 O   0  0  0  0  0  0  0  0  0  0  0  0
  152.5154  141.3794  158.2655 C   0  0  1  0  0  0  0  0  0  0  0  0
  151.6761  142.4996  158.8864 C   0  0  0  0  0  0  0  0  0  0  0  0
  152.3720  142.7936  160.2046 C   0  0  0  0  0  0  0  0  0  0  0  0
  153.2461  141.5620  160.4399 C   0  0  0  0  0  0  0  0  0  0  0  0
  152.8602  140.6416  159.4296 O   0  0  0  0  0  0  0  0  0  0  0  0
  145.3837  137.4753  154.6635 C   0  0  0  0  0  0  0  0  0  0  0  0
  145.6655  136.4593  155.7854 C   0  0  0  0  0  0  0  0  0  0  0  0
  144.8243  137.3349  156.7179 C   0  0  0  0  0  0  0  0  0  0  0  0
  145.1179  138.5062  155.7776 C   0  0  0  0  0  0  0  0  0  0  0  0
  141.5697  135.3422  153.5378 H   0  0  0  0  0  0  0  0  0  0  0  0
  142.3921  136.0668  152.1557 H   0  0  0  0  0  0  0  0  0  0  0  0
  141.6793  137.0979  153.4094 H   0  0  0  0  0  0  0  0  0  0  0  0
  143.8082  138.0746  153.2614 H   0  0  0  0  0  0  0  0  0  0  0  0
  145.6995  135.6806  152.7649 H   0  0  0  0  0  0  0  0  0  0  0  0
  145.3192  137.0206  151.6283 H   0  0  0  0  0  0  0  0  0  0  0  0
  147.3629  137.1435  153.6928 H   0  0  0  0  0  0  0  0  0  0  0  0
  147.3995  139.9478  151.2434 H   0  0  0  0  0  0  0  0  0  0  0  0
  145.9099  139.0701  150.9252 H   0  0  0  0  0  0  0  0  0  0  0  0
  147.4139  138.1858  151.1936 H   0  0  0  0  0  0  0  0  0  0  0  0
  146.7890  142.9272  154.7487 H   0  0  0  0  0  0  0  0  0  0  0  0
  151.4292  138.4602  154.7719 H   0  0  0  0  0  0  0  0  0  0  0  0
  152.3426  141.0999  155.2701 H   0  0  0  0  0  0  0  0  0  0  0  0
  151.1201  142.1023  156.0141 H   0  0  0  0  0  0  0  0  0  0  0  0
  150.8844  140.0443  157.7304 H   0  0  0  0  0  0  0  0  0  0  0  0
  152.2416  138.5691  157.2763 H   0  0  0  0  0  0  0  0  0  0  0  0
  153.4174  141.8009  157.8169 H   0  0  0  0  0  0  0  0  0  0  0  0
  151.6120  143.3827  158.2516 H   0  0  0  0  0  0  0  0  0  0  0  0
  150.6633  142.1467  159.0852 H   0  0  0  0  0  0  0  0  0  0  0  0
  152.9870  143.6916  160.1383 H   0  0  0  0  0  0  0  0  0  0  0  0
  151.6476  142.9395  161.0064 H   0  0  0  0  0  0  0  0  0  0  0  0
  154.3012  141.8101  160.3186 H   0  0  0  0  0  0  0  0  0  0  0  0
  153.1075  141.1329  161.4323 H   0  0  0  0  0  0  0  0  0  0  0  0
  145.2749  135.4547  155.6220 H   0  0  0  0  0  0  0  0  0  0  0  0
  146.7182  136.4347  156.0724 H   0  0  0  0  0  0  0  0  0  0  0  0
  143.7702  137.0525  156.7268 H   0  0  0  0  0  0  0  0  0  0  0  0
  145.2245  137.4453  157.7261 H   0  0  0  0  0  0  0  0  0  0  0  0
  146.0011  139.0559  156.1008 H   0  0  0  0  0  0  0  0  0  0  0  0
  144.2730  139.1712  155.5976 H   0  0  0  0  0  0  0  0  0  0  0  0
  1  2  1  0  0  0  0
  1 29  1  0  0  0  0
  1 30  1  0  0  0  0
  1 31  1  0  0  0  0
  2  3  1  0  0  0  0
  3 25  1  0  0  0  0
  3  4  1  0  0  0  0
  3 32  1  0  0  0  0
  4  5  1  0  0  0  0
  4 33  1  0  0  0  0
  4 34  1  0  0  0  0
  5  6  1  0  0  0  0
  5 25  1  0  0  0  0
  5 35  1  0  0  0  0
  6  7  1  0  0  0  0
  6  8  1  0  0  0  0
  7 36  1  0  0  0  0
  7 37  1  0  0  0  0
  7 38  1  0  0  0  0
  8 13  1  0  0  0  0
  8  9  2  0  0  0  0
  9 10  1  0  0  0  0
 10 11  2  0  0  0  0
 10 39  1  0  0  0  0
 11 12  1  0  0  0  0
 12 16  1  0  0  0  0
 12 13  2  0  0  0  0
 13 14  1  0  0  0  0
 14 15  2  0  0  0  0
 15 16  1  0  0  0  0
 15 40  1  0  0  0  0
 16 17  1  0  0  0  0
 17 18  1  0  0  0  0
 17 41  1  0  0  0  0
 17 42  1  0  0  0  0
 18 19  1  0  0  0  0
 18 20  1  0  0  0  0
 18 43  1  0  0  0  0
 19 44  1  0  0  0  0
 20 24  1  0  0  0  0
 20 21  1  0  0  0  0
 20 45  1  0  0  0  0
 21 22  1  0  0  0  0
 21 46  1  0  0  0  0
 21 47  1  0  0  0  0
 22 23  1  0  0  0  0
 22 48  1  0  0  0  0
 22 49  1  0  0  0  0
 23 24  1  0  0  0  0
 23 50  1  0  0  0  0
 23 51  1  0  0  0  0
 25 28  1  0  0  0  0
 25 26  1  0  0  0  0
 26 27  1  0  0  0  0
 26 52  1  0  0  0  0
 26 53  1  0  0  0  0
 27 28  1  0  0  0  0
 27 54  1  0  0  0  0
 27 55  1  0  0  0  0
 28 56  1  0  0  0  0
 28 57  1  0  0  0  0
M  END
> <s_m_source_file>
AV-unprocessed.smi

> <i_m_source_file_index>
276

> <i_lp_mmshare_version>
43012

> <i_f3d_flags>
0

> <s_epik_input>
W0NIMl0xW0NIMl1bQ0gyXUMxMltDQEhdKE9bQ0gzXSlbQ0gyXVtDQEhdMk4oW0NIM10pYyhuW2NIXW4zKWMoYzM0KW5bY0hdbjRbQ0gyXVtDQEhdKFtPSF0pW0NAQEhdNVtDSDJdW0NIMl1bQ0gyXU81

> <s_epik_cmdline>
J2VwaWtfcHl0aG9uJywgJy1waCcsICc3LjAnLCAnLXRuJywgJzgnLCAnLW1hJywgJzIwMCcsICctbWV0YWxfYmluZGluZycsICctaW1hZScsICc8aW5maWxlLm1hZT4nLCAnLW9tYWUnLCAnPG91dGZpbGUubWFlPic=

> <r_lp_tautomer_probability>
1

> <r_epik_Ionization_Penalty>
0.00204117

> <r_epik_Ionization_Penalty_Charging>
0

> <r_epik_Ionization_Penalty_Neutral>
0.00204117

> <r_epik_State_Penalty>
0.00127401

> <r_epik_Charging_Adjusted_Penalty>
0.00127401

> <i_epik_Tot_Q>
0

> <i_epik_Tot_abs_Q>
0

> <r_epik_Metal_State_Penalty>
-0

> <b_epik_Metal_Only>
0

> <s_lp_Force_Field>
OPLS_2005

> <r_lp_Energy>
59.2093

> <b_lp_Chiralities_Consistent>
1

> <s_lp_Variant>
AV-unprocessed.smi:276-13

> <Gold.Version>
5.8.1

> <Gold.Id.Protein>
6NUR|6NUR_protein|mol2

> <Gold.PLP.Fitness>
39.3046

> <Gold.PLP.PLP>
-37.8855

> <Gold.PLP.part.hbond>
-1.0000

> <Gold.PLP.part.metal>
0.0000

> <Gold.PLP.part.buried>
-3.3536

> <Gold.PLP.part.nonpolar>
-34.2268

> <Gold.PLP.part.repulsive>
2.4935

> <Gold.PLP.ligand.clash>
0.0000

> <Gold.PLP.ligand.torsion>
1.3855

> <Gold.PLP.Chemscore.Hbond>
1.0000

> <Gold.PLP.Chemscore.CHOScore>
0.0791

> <Gold.PLP.Chemscore.Metal>
0.0000

> <Gold.Chemscore.Hbonds>
donor molecule, donor type, donor heavy atom, donor atom, acceptor molecule, acceptor atom, score
      P1  H  7997  8009       L1    19  1.00
      L1  C    10    39       P1  8028  0.07

> <Gold.PLP.Chemscore.Internal.Correction>
0.9530

> <Gold.Rescore>
     Score         DG    S(hbond)    S(metal)    S(lipo)     H(rot)  DE(clash)    DE(int)     intcor
      9.42     -11.42       1.00        0.00      81.84       2.72       0.63       1.37       ----

> <Gold.Chemscore.Fitness>
9.4229

> <Gold.Chemscore.DG>
-11.4242

> <Gold.Chemscore.ZeroCoef>
-5.4800

> <Gold.Chemscore.Hbond>
0.9954

> <Gold.Chemscore.Metal>
0.0000

> <Gold.Chemscore.Lipo>
81.8431

> <Gold.Chemscore.Internal_Hbond>
0.0000

> <Gold.Chemscore.DEClash>
0.6300

> <Gold.Chemscore.DEInternal>
1.3713

> <Gold.Chemscore.Rot>
2.7172

> <Gold.Chemscore.Internal.Correction>
   9.000000E+99

> <Gold.Chemscore.Hbonds>
donor molecule, donor type, donor heavy atom, donor atom, acceptor molecule, acceptor atom, score
      P1  H  7997  8009       L1    19  0.65

> <Gold.Chemscore.Hbond.Weighted>
-3.3245

> <Gold.Chemscore.Metal.Weighted>
-0.0000

> <Gold.Chemscore.Lipo.Weighted>
-9.5756

> <Gold.Chemscore.Internal_Hbond.Weighted>
0.0000

> <Gold.Chemscore.DEClash.Weighted>
0.6300

> <Gold.Chemscore.DEInternal.Weighted>
1.3713

> <Gold.Chemscore.Rot.Weighted>
6.9560

> <Gold.Chemscore.Internal.Correction.Weighted>
   9.000000E+99

> <Gold.Protein.RotatedTorsions>
[ 6907 6896 6895 6894 ] final  -78.64 input  -60.11 | X-H torsion
[ 7974 7965 7964 7962 ] final -129.42 input  175.53 | X-H torsion
[ 8008 7997 7996 7995 ] final  178.92 input   59.86 | X-H torsion
[ 10167 10162 10161 10158 ] final -179.96 input  -65.29 | X-H torsion
[ 10718 10713 10712 10709 ] final  125.57 input   66.30 | X-H torsion
[ 10763 10752 10751 10750 ] final   22.75 input  -60.55 | X-H torsion
[ 11005 11000 10999 10996 ] final  176.12 input  -57.11 | X-H torsion

> <Gold.Protein.ActiveResidues>
 VAL166  LYS551  ARG553  GLY616  TRP617  ASP618  TYR619  PRO620  LYS621  CYS622 
 ASP623  PHE694  ASN695  SER759  ASP760  ASP761  ALA762  ILE779  LEU786  VAL792 
 PHE793  MET794  SER795  GLU796  ALA797  LYS798  CYS799  TRP800  GLU811  SER814 

> <Gold.Protein.RotatedAtoms>
  150.6968  134.4241  159.5218 H   0  0  0  0  0  0  0  0  0  0  0  0  # atno 6907 bound_to 6896
  152.1979  134.8611  160.0520 H   0  0  0  0  0  0  0  0  0  0  0  0  # atno 6908 bound_to 6896
  151.9542  133.3640  159.4048 H   0  0  0  0  0  0  0  0  0  0  0  0  # atno 6909 bound_to 6896
  144.9574  140.7410  143.4750 H   0  0  0  0  0  0  0  0  0  0  0  0  # atno 7974 bound_to 7965
  156.0492  140.1321  157.0069 H   0  0  0  0  0  0  0  0  0  0  0  0  # atno 8008 bound_to 7997
  154.4427  140.1014  156.6422 H   0  0  0  0  0  0  0  0  0  0  0  0  # atno 8009 bound_to 7997
  155.5549  140.3463  155.4479 H   0  0  0  0  0  0  0  0  0  0  0  0  # atno 8010 bound_to 7997
  139.5363  144.2489  152.0800 H   0  0  0  0  0  0  0  0  0  0  0  0  # atno 10167 bound_to 10162
  157.5492  131.1094  150.8731 H   0  0  0  0  0  0  0  0  0  0  0  0  # atno 10718 bound_to 10713
  153.0891  135.6641  153.9889 H   0  0  0  0  0  0  0  0  0  0  0  0  # atno 10763 bound_to 10752
  153.9491  135.2986  155.3441 H   0  0  0  0  0  0  0  0  0  0  0  0  # atno 10764 bound_to 10752
  154.7303  135.5126  153.9026 H   0  0  0  0  0  0  0  0  0  0  0  0  # atno 10765 bound_to 10752
  140.3696  134.7041  157.4384 H   0  0  0  0  0  0  0  0  0  0  0  0  # atno 11005 bound_to 11000
  145.2752  139.1939  143.4820 LP  0  0  0  0  0  0  0  0  0  0  0  0  # atno 17320 bound_to 7965
  146.3342  140.2704  142.8605 LP  0  0  0  0  0  0  0  0  0  0  0  0  # atno 17321 bound_to 7965
  140.1960  144.4705  150.6455 LP  0  0  0  0  0  0  0  0  0  0  0  0  # atno 17342 bound_to 10162
  140.6571  143.2241  151.5944 LP  0  0  0  0  0  0  0  0  0  0  0  0  # atno 17343 bound_to 10162
  156.9261  130.5332  149.5279 LP  0  0  0  0  0  0  0  0  0  0  0  0  # atno 17370 bound_to 10713
  156.0562  130.5623  150.9096 LP  0  0  0  0  0  0  0  0  0  0  0  0  # atno 17371 bound_to 10713
  140.0562  134.6060  155.8803 LP  0  0  0  0  0  0  0  0  0  0  0  0  # atno 17394 bound_to 11000
  141.1958  133.6589  156.5663 LP  0  0  0  0  0  0  0  0  0  0  0  0  # atno 17395 bound_to 11000

$$$$
