AV-unprocessed.smi:2760|AV-procd|sdf|10629|dock2
  -GOLD-   2272015 73D 1   1.00000     0.00000
 Structure written by MMmdl.
 32 33  0  0  0  0  0  0  0  0  1 V2000
  152.6771  139.3120  156.0307 O   0  0  0  0  0  0  0  0  0  0  0  0
  151.8610  140.2217  156.1620 C   0  0  0  0  0  0  0  0  0  0  0  0
  151.9372  141.1459  157.3003 C   0  0  0  0  0  0  0  0  0  0  0  0
  151.0308  142.1365  157.4199 C   0  0  0  0  0  0  0  0  0  0  0  0
  151.0284  143.1224  158.5405 C   0  0  0  0  0  0  0  0  0  0  0  0
  151.0060  144.6166  158.3004 C   0  0  0  0  0  0  0  0  0  0  0  0
  152.2408  143.9639  158.8759 C   0  0  0  0  0  0  0  0  0  0  0  0
  150.0318  142.2800  156.4720 N   0  0  0  0  0  0  0  0  0  0  0  0
  149.9756  141.3930  155.4020 C   0  0  0  0  0  0  0  0  0  0  0  0
  148.5865  141.7495  154.2689 S   0  0  0  0  0  0  0  0  0  0  0  0
  147.6853  140.1728  154.1547 C   0  0  0  0  0  0  0  0  0  0  0  0
  146.5641  140.0956  155.1943 C   0  0  0  0  0  0  0  0  0  0  0  0
  145.6177  141.1142  154.9195 O   0  0  0  0  0  0  0  0  0  0  0  0
  145.7458  142.2313  155.7849 C   0  0  0  0  0  0  0  0  0  0  0  0
  144.7131  143.2985  155.4017 C   0  0  0  0  0  0  0  0  0  0  0  0
  143.4989  142.7502  155.3883 F   0  0  0  0  0  0  0  0  0  0  0  0
  144.7243  144.2914  156.2906 F   0  0  0  0  0  0  0  0  0  0  0  0
  144.9785  143.7804  154.1878 F   0  0  0  0  0  0  0  0  0  0  0  0
  150.8237  140.4194  155.2357 N   0  0  0  0  0  0  0  0  0  0  0  0
  149.3719  143.0339  156.5952 H   0  0  0  0  0  0  0  0  0  0  0  0
  152.7196  141.0272  158.0359 H   0  0  0  0  0  0  0  0  0  0  0  0
  150.4450  142.7714  159.3900 H   0  0  0  0  0  0  0  0  0  0  0  0
  151.0617  144.9770  157.2749 H   0  0  0  0  0  0  0  0  0  0  0  0
  150.4002  145.2221  158.9713 H   0  0  0  0  0  0  0  0  0  0  0  0
  152.4544  144.1349  159.9290 H   0  0  0  0  0  0  0  0  0  0  0  0
  153.1152  143.8928  158.2321 H   0  0  0  0  0  0  0  0  0  0  0  0
  148.3820  139.3475  154.3067 H   0  0  0  0  0  0  0  0  0  0  0  0
  147.2631  140.0697  153.1545 H   0  0  0  0  0  0  0  0  0  0  0  0
  146.0833  139.1168  155.1551 H   0  0  0  0  0  0  0  0  0  0  0  0
  146.9732  140.2249  156.1975 H   0  0  0  0  0  0  0  0  0  0  0  0
  145.5921  141.9215  156.8199 H   0  0  0  0  0  0  0  0  0  0  0  0
  146.7526  142.6460  155.7134 H   0  0  0  0  0  0  0  0  0  0  0  0
  1  2  2  0  0  0  0
  2 19  1  0  0  0  0
  2  3  1  0  0  0  0
  3 21  1  0  0  0  0
  3  4  2  0  0  0  0
  4  5  1  0  0  0  0
  4  8  1  0  0  0  0
  5  7  1  0  0  0  0
  5  6  1  0  0  0  0
  5 22  1  0  0  0  0
  6  7  1  0  0  0  0
  6 23  1  0  0  0  0
  6 24  1  0  0  0  0
  7 25  1  0  0  0  0
  7 26  1  0  0  0  0
  8  9  1  0  0  0  0
  8 20  1  0  0  0  0
  9 10  1  0  0  0  0
  9 19  2  0  0  0  0
 10 11  1  0  0  0  0
 11 12  1  0  0  0  0
 11 27  1  0  0  0  0
 11 28  1  0  0  0  0
 12 13  1  0  0  0  0
 12 29  1  0  0  0  0
 12 30  1  0  0  0  0
 13 14  1  0  0  0  0
 14 15  1  0  0  0  0
 14 31  1  0  0  0  0
 14 32  1  0  0  0  0
 15 16  1  0  0  0  0
 15 17  1  0  0  0  0
 15 18  1  0  0  0  0
M  END
> <s_m_source_file>
AV-unprocessed.smi

> <i_m_source_file_index>
2760

> <i_lp_mmshare_version>
43012

> <i_f3d_flags>
0

> <s_epik_input>
W09IXWMxW2NIXWMoW0NIXTJbQ0gyXVtDSDJdMiluYyhuMSlTW0NIMl1bQ0gyXU9bQ0gyXUMoRikoRilG

> <s_epik_cmdline>
J2VwaWtfcHl0aG9uJywgJy1waCcsICc3LjAnLCAnLXRuJywgJzgnLCAnLW1hJywgJzIwMCcsICctbWV0YWxfYmluZGluZycsICctaW1hZScsICc8aW5maWxlLm1hZT4nLCAnLW9tYWUnLCAnPG91dGZpbGUubWFlPic=

> <r_lp_tautomer_probability>
0.273662

> <r_epik_Ionization_Penalty>
0.0792867

> <r_epik_Ionization_Penalty_Charging>
0.0792819

> <r_epik_Ionization_Penalty_Neutral>
4.79647e-06

> <r_epik_State_Penalty>
1.03359

> <r_epik_Charging_Adjusted_Penalty>
1.11287

> <i_epik_Tot_Q>
0

> <i_epik_Tot_abs_Q>
0

> <r_epik_Metal_State_Penalty>
1.68441

> <b_epik_Metal_Only>
0

> <s_lp_Force_Field>
OPLS_2005

> <r_lp_Energy>
16.1148

> <b_lp_Chiralities_Consistent>
1

> <s_lp_Variant>
AV-unprocessed.smi:2760-2

> <Gold.Version>
5.8.1

> <Gold.Id.Protein>
6NUR|6NUR_protein|mol2

> <Gold.PLP.Fitness>
41.8644

> <Gold.PLP.PLP>
-34.5178

> <Gold.PLP.part.hbond>
-3.0000

> <Gold.PLP.part.metal>
0.0000

> <Gold.PLP.part.buried>
-5.1397

> <Gold.PLP.part.nonpolar>
-27.3493

> <Gold.PLP.part.repulsive>
0.2503

> <Gold.PLP.ligand.clash>
0.0000

> <Gold.PLP.ligand.torsion>
0.6527

> <Gold.PLP.Chemscore.Hbond>
2.8000

> <Gold.PLP.Chemscore.CHOScore>
0.0000

> <Gold.PLP.Chemscore.Metal>
0.0000

> <Gold.Chemscore.Hbonds>
donor molecule, donor type, donor heavy atom, donor atom, acceptor molecule, acceptor atom, score
      L1  H     8    20       P1  8028  0.75
      P1  H  7989  7998       L1    19  1.00
      P1  H  7997  8008       L1     1  1.00

> <Gold.PLP.Chemscore.Internal.Correction>
0.2520

> <Gold.Rescore>
     Score         DG    S(hbond)    S(metal)    S(lipo)     H(rot)  DE(clash)    DE(int)     intcor
     12.66     -13.40       1.91        0.00      69.39       2.57       0.18       0.57       ----

> <Gold.Chemscore.Fitness>
12.6614

> <Gold.Chemscore.DG>
-13.4045

> <Gold.Chemscore.ZeroCoef>
-5.4800

> <Gold.Chemscore.Hbond>
1.9103

> <Gold.Chemscore.Metal>
0.0000

> <Gold.Chemscore.Lipo>
69.3855

> <Gold.Chemscore.Internal_Hbond>
0.0000

> <Gold.Chemscore.DEClash>
0.1775

> <Gold.Chemscore.DEInternal>
0.5656

> <Gold.Chemscore.Rot>
2.5680

> <Gold.Chemscore.Internal.Correction>
   9.000000E+99

> <Gold.Chemscore.Hbonds>
donor molecule, donor type, donor heavy atom, donor atom, acceptor molecule, acceptor atom, score
      L1  H     8    20       P1  8028  0.74
      P1  H  7989  7998       L1    19  0.21
      P1  H  7997  8008       L1     1  0.50

> <Gold.Chemscore.Hbond.Weighted>
-6.3805

> <Gold.Chemscore.Metal.Weighted>
-0.0000

> <Gold.Chemscore.Lipo.Weighted>
-8.1181

> <Gold.Chemscore.Internal_Hbond.Weighted>
0.0000

> <Gold.Chemscore.DEClash.Weighted>
0.1775

> <Gold.Chemscore.DEInternal.Weighted>
0.5656

> <Gold.Chemscore.Rot.Weighted>
6.5741

> <Gold.Chemscore.Internal.Correction.Weighted>
   9.000000E+99

> <Gold.Protein.RotatedTorsions>
[ 6907 6896 6895 6894 ] final  105.55 input  -60.11 | X-H torsion
[ 7974 7965 7964 7962 ] final -174.09 input  175.53 | X-H torsion
[ 8008 7997 7996 7995 ] final  -34.81 input   59.86 | X-H torsion
[ 10167 10162 10161 10158 ] final -159.14 input  -65.29 | X-H torsion
[ 10718 10713 10712 10709 ] final -157.71 input   66.30 | X-H torsion
[ 10763 10752 10751 10750 ] final   -1.69 input  -60.55 | X-H torsion
[ 11005 11000 10999 10996 ] final   19.56 input  -57.11 | X-H torsion

> <Gold.Protein.ActiveResidues>
 VAL166  LYS551  ARG553  GLY616  TRP617  ASP618  TYR619  PRO620  LYS621  CYS622 
 ASP623  PHE694  ASN695  SER759  ASP760  ASP761  ALA762  ILE779  LEU786  VAL792 
 PHE793  MET794  SER795  GLU796  ALA797  LYS798  CYS799  TRP800  GLU811  SER814 

> <Gold.Protein.RotatedAtoms>
  152.5226  133.9512  159.7672 H   0  0  0  0  0  0  0  0  0  0  0  0  # atno 6907 bound_to 6896
  150.9821  133.6226  159.2728 H   0  0  0  0  0  0  0  0  0  0  0  0  # atno 6908 bound_to 6896
  151.3400  135.0867  159.9421 H   0  0  0  0  0  0  0  0  0  0  0  0  # atno 6909 bound_to 6896
  144.7134  140.1523  143.6383 H   0  0  0  0  0  0  0  0  0  0  0  0  # atno 7974 bound_to 7965
  154.4111  140.1674  156.2110 H   0  0  0  0  0  0  0  0  0  0  0  0  # atno 8008 bound_to 7997
  155.9444  140.3405  155.6331 H   0  0  0  0  0  0  0  0  0  0  0  0  # atno 8009 bound_to 7997
  155.6949  140.0738  157.2424 H   0  0  0  0  0  0  0  0  0  0  0  0  # atno 8010 bound_to 7997
  139.6638  143.9866  152.2242 H   0  0  0  0  0  0  0  0  0  0  0  0  # atno 10167 bound_to 10162
  156.5441  130.8576  151.2758 H   0  0  0  0  0  0  0  0  0  0  0  0  # atno 10718 bound_to 10713
  153.3482  135.6984  153.6811 H   0  0  0  0  0  0  0  0  0  0  0  0  # atno 10763 bound_to 10752
  153.5548  135.3546  155.2775 H   0  0  0  0  0  0  0  0  0  0  0  0  # atno 10764 bound_to 10752
  154.8648  135.4235  154.2711 H   0  0  0  0  0  0  0  0  0  0  0  0  # atno 10765 bound_to 10752
  140.4123  134.1605  155.7668 H   0  0  0  0  0  0  0  0  0  0  0  0  # atno 11005 bound_to 11000
  145.9105  139.2484  143.1440 LP  0  0  0  0  0  0  0  0  0  0  0  0  # atno 17320 bound_to 7965
  145.9721  140.8752  143.0157 LP  0  0  0  0  0  0  0  0  0  0  0  0  # atno 17321 bound_to 7965
  139.9612  144.6556  150.8077 LP  0  0  0  0  0  0  0  0  0  0  0  0  # atno 17342 bound_to 10162
  140.7591  143.3121  151.2820 LP  0  0  0  0  0  0  0  0  0  0  0  0  # atno 17343 bound_to 10162
  157.7400  130.9842  150.2349 LP  0  0  0  0  0  0  0  0  0  0  0  0  # atno 17370 bound_to 10713
  156.2945  130.3750  149.7810 LP  0  0  0  0  0  0  0  0  0  0  0  0  # atno 17371 bound_to 10713
  141.1816  133.8401  157.1237 LP  0  0  0  0  0  0  0  0  0  0  0  0  # atno 17394 bound_to 11000
  140.0259  134.9924  157.0684 LP  0  0  0  0  0  0  0  0  0  0  0  0  # atno 17395 bound_to 11000

$$$$
