AV-unprocessed.smi:2424|AV-procd|sdf|9565|dock3
  -GOLD-   2272013193D 1   1.00000     0.00000
 Structure written by MMmdl.
 50 51  0  0  0  0  0  0  0  0  1 V2000
  150.6829  140.3146  151.9353 C   0  0  0  0  0  0  0  0  0  0  0  0
  149.3776  139.5115  151.8065 C   0  0  0  0  0  0  0  0  0  0  0  0
  148.1539  140.3154  151.2917 C   0  0  0  0  0  0  0  0  0  0  0  0
  148.4448  140.8066  149.8550 C   0  0  0  0  0  0  0  0  0  0  0  0
  149.4418  141.9719  149.7499 C   0  0  0  0  0  0  0  0  0  0  0  0
  146.7595  139.6585  151.4771 C   0  0  1  0  0  0  0  0  0  0  0  0
  146.7868  138.2022  151.5877 N   0  0  0  0  0  0  0  0  0  0  0  0
  145.7302  137.3949  151.4262 C   0  0  0  0  0  0  0  0  0  0  0  0
  144.5983  137.8063  151.1756 O   0  0  0  0  0  0  0  0  0  0  0  0
  146.0894  136.1069  151.5738 N   0  0  0  0  0  0  0  0  0  0  0  0
  145.3045  134.9490  151.4786 C   0  0  0  0  0  0  0  0  0  0  0  0
  144.2291  134.9890  150.6732 C   0  0  0  0  0  0  0  0  0  0  0  0
  143.3895  133.8841  150.5146 N   0  0  0  0  0  0  0  0  0  0  0  0
  143.5684  132.6978  151.1385 C   0  0  0  0  0  0  0  0  0  0  0  0
  142.7849  131.7694  150.9481 O   0  0  0  0  0  0  0  0  0  0  0  0
  144.7371  132.6220  152.0302 C   0  0  0  0  0  0  0  0  0  0  0  0
  144.9906  131.3168  152.7636 C   0  0  0  0  0  0  0  0  0  0  0  0
  145.5498  133.6938  152.1823 C   0  0  0  0  0  0  0  0  0  0  0  0
  146.6303  140.3439  152.8401 C   0  0  2  0  0  0  0  0  0  0  0  0
  145.2613  140.7847  153.3432 C   0  0  0  0  0  0  0  0  0  0  0  0
  147.6262  141.3815  152.2980 C   0  0  2  0  0  0  0  0  0  0  0  0
  146.9352  142.4675  151.6910 O   0  0  0  0  0  0  0  0  0  0  0  0
  146.5162  143.4470  152.6263 C   0  0  0  0  0  0  0  0  0  0  0  0
  142.6026  133.9911  149.8909 H   0  0  0  0  0  0  0  0  0  0  0  0
  151.4523  139.7145  152.4208 H   0  0  0  0  0  0  0  0  0  0  0  0
  150.5459  141.2157  152.5327 H   0  0  0  0  0  0  0  0  0  0  0  0
  151.0763  140.6102  150.9632 H   0  0  0  0  0  0  0  0  0  0  0  0
  149.5604  138.6372  151.1829 H   0  0  0  0  0  0  0  0  0  0  0  0
  149.1616  139.0992  152.7922 H   0  0  0  0  0  0  0  0  0  0  0  0
  148.8609  139.9877  149.2678 H   0  0  0  0  0  0  0  0  0  0  0  0
  147.5244  141.0750  149.3384 H   0  0  0  0  0  0  0  0  0  0  0  0
  149.6579  142.1943  148.7051 H   0  0  0  0  0  0  0  0  0  0  0  0
  150.3881  141.7324  150.2330 H   0  0  0  0  0  0  0  0  0  0  0  0
  149.0535  142.8863  150.1967 H   0  0  0  0  0  0  0  0  0  0  0  0
  146.0227  140.0475  150.7701 H   0  0  0  0  0  0  0  0  0  0  0  0
  147.6804  137.7804  151.7935 H   0  0  0  0  0  0  0  0  0  0  0  0
  147.0628  135.9392  151.7820 H   0  0  0  0  0  0  0  0  0  0  0  0
  143.9315  135.8523  150.0957 H   0  0  0  0  0  0  0  0  0  0  0  0
  145.8830  131.3754  153.3875 H   0  0  0  0  0  0  0  0  0  0  0  0
  145.1295  130.5010  152.0535 H   0  0  0  0  0  0  0  0  0  0  0  0
  144.1456  131.0717  153.4077 H   0  0  0  0  0  0  0  0  0  0  0  0
  146.3892  133.5867  152.8492 H   0  0  0  0  0  0  0  0  0  0  0  0
  147.1322  139.7513  153.6073 H   0  0  0  0  0  0  0  0  0  0  0  0
  144.6974  141.3072  152.5701 H   0  0  0  0  0  0  0  0  0  0  0  0
  145.3528  141.4564  154.1967 H   0  0  0  0  0  0  0  0  0  0  0  0
  144.6656  139.9279  153.6587 H   0  0  0  0  0  0  0  0  0  0  0  0
  148.3392  141.6960  153.0621 H   0  0  0  0  0  0  0  0  0  0  0  0
  146.0373  144.2733  152.1011 H   0  0  0  0  0  0  0  0  0  0  0  0
  147.3564  143.8492  153.1923 H   0  0  0  0  0  0  0  0  0  0  0  0
  145.7922  143.0311  153.3278 H   0  0  0  0  0  0  0  0  0  0  0  0
  1  2  1  0  0  0  0
  1 25  1  0  0  0  0
  1 26  1  0  0  0  0
  1 27  1  0  0  0  0
  2  3  1  0  0  0  0
  2 28  1  0  0  0  0
  2 29  1  0  0  0  0
  3 21  1  0  0  0  0
  3  4  1  0  0  0  0
  3  6  1  0  0  0  0
  4  5  1  0  0  0  0
  4 30  1  0  0  0  0
  4 31  1  0  0  0  0
  5 32  1  0  0  0  0
  5 33  1  0  0  0  0
  5 34  1  0  0  0  0
  6  7  1  0  0  0  0
  6 19  1  0  0  0  0
  6 35  1  0  0  0  0
  7  8  1  0  0  0  0
  7 36  1  0  0  0  0
  8  9  2  0  0  0  0
  8 10  1  0  0  0  0
 10 11  1  0  0  0  0
 10 37  1  0  0  0  0
 11 18  1  0  0  0  0
 11 12  2  0  0  0  0
 12 13  1  0  0  0  0
 12 38  1  0  0  0  0
 13 24  1  0  0  0  0
 13 14  1  0  0  0  0
 14 15  2  0  0  0  0
 14 16  1  0  0  0  0
 16 17  1  0  0  0  0
 16 18  2  0  0  0  0
 17 39  1  0  0  0  0
 17 40  1  0  0  0  0
 17 41  1  0  0  0  0
 18 42  1  0  0  0  0
 19 20  1  0  0  0  0
 19 21  1  0  0  0  0
 19 43  1  0  0  0  0
 20 44  1  0  0  0  0
 20 45  1  0  0  0  0
 20 46  1  0  0  0  0
 21 22  1  0  0  0  0
 21 47  1  0  0  0  0
 22 23  1  0  0  0  0
 23 48  1  0  0  0  0
 23 49  1  0  0  0  0
 23 50  1  0  0  0  0
M  END
> <s_m_source_file>
AV-unprocessed.smi

> <i_m_source_file_index>
2424

> <i_lp_mmshare_version>
43012

> <i_f3d_flags>
0

> <s_epik_input>
W0NIM11PW0NAQEhdMVtDQEhdKFtDSDNdKVtDQEBIXShDMShbQ0gyXVtDSDNdKVtDSDJdW0NIM10pW05IXUMoPU8pW05IXWMyW2NIXVtuSF1jKD1PKWMoW0NIM10pW2NIXTI=

> <s_epik_cmdline>
J2VwaWtfcHl0aG9uJywgJy1waCcsICc3LjAnLCAnLXRuJywgJzgnLCAnLW1hJywgJzIwMCcsICctbWV0YWxfYmluZGluZycsICctaW1hZScsICc8aW5maWxlLm1hZT4nLCAnLW9tYWUnLCAnPG91dGZpbGUubWFlPic=

> <r_lp_tautomer_probability>
1

> <r_epik_Ionization_Penalty>
4.7326e-05

> <r_epik_Ionization_Penalty_Charging>
2.70169e-05

> <r_epik_Ionization_Penalty_Neutral>
2.0309e-05

> <r_epik_State_Penalty>
-0

> <r_epik_Charging_Adjusted_Penalty>
2.70169e-05

> <i_epik_Tot_Q>
0

> <i_epik_Tot_abs_Q>
0

> <r_epik_Metal_State_Penalty>
0.0198736

> <b_epik_Metal_Only>
0

> <s_lp_Force_Field>
OPLS_2005

> <r_lp_Energy>
37.615

> <b_lp_Chiralities_Consistent>
1

> <s_lp_Variant>
AV-unprocessed.smi:2424-7

> <Gold.Version>
5.8.1

> <Gold.Id.Protein>
6NUR|6NUR_protein|mol2

> <Gold.PLP.Fitness>
43.9112

> <Gold.PLP.PLP>
-32.5660

> <Gold.PLP.part.hbond>
-4.3327

> <Gold.PLP.part.metal>
0.0000

> <Gold.PLP.part.buried>
-2.4057

> <Gold.PLP.part.nonpolar>
-27.1817

> <Gold.PLP.part.repulsive>
0.6213

> <Gold.PLP.ligand.clash>
0.0000

> <Gold.PLP.ligand.torsion>
0.8621

> <Gold.PLP.Chemscore.Hbond>
3.6976

> <Gold.PLP.Chemscore.CHOScore>
0.4054

> <Gold.PLP.Chemscore.Metal>
0.0000

> <Gold.Chemscore.Hbonds>
donor molecule, donor type, donor heavy atom, donor atom, acceptor molecule, acceptor atom, score
      L1  H     7    36       P1  7948  1.00
      L1  H    10    37       P1  7948  1.00
      L1  H    13    24       P1 10186  1.00
      L1  C    12    38       P1 10171  0.52

> <Gold.PLP.Chemscore.Internal.Correction>
0.7604

> <Gold.Rescore>
     Score         DG    S(hbond)    S(metal)    S(lipo)     H(rot)  DE(clash)    DE(int)     intcor
     20.69     -23.62       3.83        0.00      79.64       1.55       0.62       2.31       ----

> <Gold.Chemscore.Fitness>
20.6918

> <Gold.Chemscore.DG>
-23.6167

> <Gold.Chemscore.ZeroCoef>
-5.4800

> <Gold.Chemscore.Hbond>
3.8285

> <Gold.Chemscore.Metal>
0.0000

> <Gold.Chemscore.Lipo>
79.6404

> <Gold.Chemscore.Internal_Hbond>
0.0000

> <Gold.Chemscore.DEClash>
0.6169

> <Gold.Chemscore.DEInternal>
2.3080

> <Gold.Chemscore.Rot>
1.5502

> <Gold.Chemscore.Internal.Correction>
   9.000000E+99

> <Gold.Chemscore.Hbonds>
donor molecule, donor type, donor heavy atom, donor atom, acceptor molecule, acceptor atom, score
      L1  H     7    36       P1  7948  0.95
      L1  H    10    37       P1  7948  0.99
      L1  H    13    24       P1 10186  0.97

> <Gold.Chemscore.Hbond.Weighted>
-12.7873

> <Gold.Chemscore.Metal.Weighted>
-0.0000

> <Gold.Chemscore.Lipo.Weighted>
-9.3179

> <Gold.Chemscore.Internal_Hbond.Weighted>
0.0000

> <Gold.Chemscore.DEClash.Weighted>
0.6169

> <Gold.Chemscore.DEInternal.Weighted>
2.3080

> <Gold.Chemscore.Rot.Weighted>
3.9685

> <Gold.Chemscore.Internal.Correction.Weighted>
   9.000000E+99

> <Gold.Protein.RotatedTorsions>
[ 6907 6896 6895 6894 ] final  121.40 input  -60.11 | X-H torsion
[ 7974 7965 7964 7962 ] final  -18.48 input  175.53 | X-H torsion
[ 8008 7997 7996 7995 ] final  152.86 input   59.86 | X-H torsion
[ 10167 10162 10161 10158 ] final  -27.13 input  -65.29 | X-H torsion
[ 10718 10713 10712 10709 ] final -171.39 input   66.30 | X-H torsion
[ 10763 10752 10751 10750 ] final   34.07 input  -60.55 | X-H torsion
[ 11005 11000 10999 10996 ] final   59.10 input  -57.11 | X-H torsion

> <Gold.Protein.ActiveResidues>
 VAL166  LYS551  ARG553  GLY616  TRP617  ASP618  TYR619  PRO620  LYS621  CYS622 
 ASP623  PHE694  ASN695  SER759  ASP760  ASP761  ALA762  ILE779  LEU786  VAL792 
 PHE793  MET794  SER795  GLU796  ALA797  LYS798  CYS799  TRP800  GLU811  SER814 

> <Gold.Protein.RotatedAtoms>
  152.4324  133.7301  159.6582 H   0  0  0  0  0  0  0  0  0  0  0  0  # atno 6907 bound_to 6896
  150.8205  133.8251  159.3147 H   0  0  0  0  0  0  0  0  0  0  0  0  # atno 6908 bound_to 6896
  151.5935  135.1054  160.0096 H   0  0  0  0  0  0  0  0  0  0  0  0  # atno 6909 bound_to 6896
  146.1890  140.3926  142.8465 H   0  0  0  0  0  0  0  0  0  0  0  0  # atno 7974 bound_to 7965
  156.2609  140.2009  156.6399 H   0  0  0  0  0  0  0  0  0  0  0  0  # atno 8008 bound_to 7997
  154.6617  140.0560  157.0094 H   0  0  0  0  0  0  0  0  0  0  0  0  # atno 8009 bound_to 7997
  155.1266  140.3230  155.4487 H   0  0  0  0  0  0  0  0  0  0  0  0  # atno 8010 bound_to 7997
  140.7279  143.4119  151.1091 H   0  0  0  0  0  0  0  0  0  0  0  0  # atno 10167 bound_to 10162
  156.7402  130.9339  151.3109 H   0  0  0  0  0  0  0  0  0  0  0  0  # atno 10718 bound_to 10713
  153.0182  135.6370  154.1610 H   0  0  0  0  0  0  0  0  0  0  0  0  # atno 10763 bound_to 10752
  154.1347  135.2838  155.3178 H   0  0  0  0  0  0  0  0  0  0  0  0  # atno 10764 bound_to 10752
  154.6168  135.5538  153.7594 H   0  0  0  0  0  0  0  0  0  0  0  0  # atno 10765 bound_to 10752
  140.0329  134.5986  155.9483 H   0  0  0  0  0  0  0  0  0  0  0  0  # atno 11005 bound_to 11000
  144.8451  140.6916  143.6204 LP  0  0  0  0  0  0  0  0  0  0  0  0  # atno 17320 bound_to 7965
  145.3850  139.1628  143.4260 LP  0  0  0  0  0  0  0  0  0  0  0  0  # atno 17321 bound_to 7965
  139.7754  143.8433  152.3128 LP  0  0  0  0  0  0  0  0  0  0  0  0  # atno 17342 bound_to 10162
  139.8366  144.7229  150.9383 LP  0  0  0  0  0  0  0  0  0  0  0  0  # atno 17343 bound_to 10162
  157.6822  130.9151  150.0295 LP  0  0  0  0  0  0  0  0  0  0  0  0  # atno 17370 bound_to 10713
  156.1470  130.3642  149.9495 LP  0  0  0  0  0  0  0  0  0  0  0  0  # atno 17371 bound_to 10713
  141.1841  133.6552  156.5143 LP  0  0  0  0  0  0  0  0  0  0  0  0  # atno 17394 bound_to 11000
  140.4196  134.7199  157.4882 LP  0  0  0  0  0  0  0  0  0  0  0  0  # atno 17395 bound_to 11000

$$$$
