AV-unprocessed.smi:2232|AV-procd|sdf|9039|dock3
  -GOLD-   2272012243D 1   1.00000     0.00000
 Structure written by MMmdl.
 43 44  0  0  0  0  0  0  0  0  2 V2000
  153.8777  140.8489  160.6390 C   0  0  0  0  0  0  0  0  0  0  0  0
  153.0529  141.7276  159.7222 C   0  0  0  0  0  0  0  0  0  0  0  0
  152.9711  143.1169  159.9351 C   0  0  0  0  0  0  0  0  0  0  0  0
  152.1856  143.8801  159.0491 C   0  0  0  0  0  0  0  0  0  0  0  0
  152.0550  145.3792  159.2166 C   0  0  0  0  0  0  0  0  0  0  0  0
  151.5101  143.3406  158.0121 N   0  0  0  0  0  0  0  0  0  0  0  0
  151.5802  142.0033  157.7984 C   0  0  0  0  0  0  0  0  0  0  0  0
  150.9039  141.3390  156.7409 N   0  0  0  0  0  0  0  0  0  0  0  0
  151.3058  140.2582  156.0492 C   0  0  0  0  0  0  0  0  0  0  0  0
  152.3485  139.6326  156.2441 O   0  0  0  0  0  0  0  0  0  0  0  0
  150.4217  139.9312  155.0952 N   0  0  0  0  0  0  0  0  0  0  0  0
  150.5733  138.8108  154.1739 C   0  0  0  0  0  0  0  0  0  0  0  0
  150.6909  137.4715  154.9274 C   0  0  0  0  0  0  0  0  0  0  0  0
  149.5518  136.5616  154.6504 N   0  3  0  0  0  0  0  0  0  0  0  0
  149.8872  135.1425  154.9186 C   0  0  0  0  0  0  0  0  0  0  0  0
  148.6962  134.2316  154.5768 C   0  0  0  0  0  0  0  0  0  0  0  0
  147.5559  134.6384  155.3223 O   0  0  0  0  0  0  0  0  0  0  0  0
  147.1656  135.9699  155.0114 C   0  0  0  0  0  0  0  0  0  0  0  0
  148.3058  136.9406  155.3630 C   0  0  0  0  0  0  0  0  0  0  0  0
  152.3472  141.1658  158.6391 C   0  0  0  0  0  0  0  0  0  0  0  0
  154.5488  141.4448  161.2583 H   0  0  0  0  0  0  0  0  0  0  0  0
  154.4821  140.1522  160.0572 H   0  0  0  0  0  0  0  0  0  0  0  0
  153.2250  140.2735  161.2960 H   0  0  0  0  0  0  0  0  0  0  0  0
  153.4958  143.5851  160.7552 H   0  0  0  0  0  0  0  0  0  0  0  0
  152.6001  145.7287  160.0938 H   0  0  0  0  0  0  0  0  0  0  0  0
  151.0075  145.6586  159.3333 H   0  0  0  0  0  0  0  0  0  0  0  0
  152.4526  145.8936  158.3412 H   0  0  0  0  0  0  0  0  0  0  0  0
  150.0185  141.7425  156.4728 H   0  0  0  0  0  0  0  0  0  0  0  0
  149.5876  140.4930  155.0024 H   0  0  0  0  0  0  0  0  0  0  0  0
  149.7330  138.8075  153.4791 H   0  0  0  0  0  0  0  0  0  0  0  0
  151.4693  138.9810  153.5764 H   0  0  0  0  0  0  0  0  0  0  0  0
  151.6178  136.9885  154.6143 H   0  0  0  0  0  0  0  0  0  0  0  0
  150.7755  137.6289  156.0038 H   0  0  0  0  0  0  0  0  0  0  0  0
  150.7545  134.8473  154.3268 H   0  0  0  0  0  0  0  0  0  0  0  0
  150.1590  135.0228  155.9687 H   0  0  0  0  0  0  0  0  0  0  0  0
  148.4775  134.2591  153.5082 H   0  0  0  0  0  0  0  0  0  0  0  0
  148.9309  133.1969  154.8272 H   0  0  0  0  0  0  0  0  0  0  0  0
  146.8990  136.0472  153.9561 H   0  0  0  0  0  0  0  0  0  0  0  0
  146.2717  136.2181  155.5841 H   0  0  0  0  0  0  0  0  0  0  0  0
  148.4820  136.9301  156.4399 H   0  0  0  0  0  0  0  0  0  0  0  0
  148.0061  137.9540  155.0995 H   0  0  0  0  0  0  0  0  0  0  0  0
  152.3946  140.1015  158.4586 H   0  0  0  0  0  0  0  0  0  0  0  0
  149.3610  136.6261  153.6607 H   0  0  0  0  0  0  0  0  0  0  0  0
  1  2  1  0  0  0  0
  1 21  1  0  0  0  0
  1 22  1  0  0  0  0
  1 23  1  0  0  0  0
  2 20  1  0  0  0  0
  2  3  2  0  0  0  0
  3  4  1  0  0  0  0
  3 24  1  0  0  0  0
  4  5  1  0  0  0  0
  4  6  2  0  0  0  0
  5 25  1  0  0  0  0
  5 26  1  0  0  0  0
  5 27  1  0  0  0  0
  6  7  1  0  0  0  0
  7  8  1  0  0  0  0
  7 20  2  0  0  0  0
  8  9  1  0  0  0  0
  8 28  1  0  0  0  0
  9 10  2  0  0  0  0
  9 11  1  0  0  0  0
 11 12  1  0  0  0  0
 11 29  1  0  0  0  0
 12 13  1  0  0  0  0
 12 30  1  0  0  0  0
 12 31  1  0  0  0  0
 13 14  1  0  0  0  0
 13 32  1  0  0  0  0
 13 33  1  0  0  0  0
 14 19  1  0  0  0  0
 14 15  1  0  0  0  0
 14 43  1  0  0  0  0
 15 16  1  0  0  0  0
 15 34  1  0  0  0  0
 15 35  1  0  0  0  0
 16 17  1  0  0  0  0
 16 36  1  0  0  0  0
 16 37  1  0  0  0  0
 17 18  1  0  0  0  0
 18 19  1  0  0  0  0
 18 38  1  0  0  0  0
 18 39  1  0  0  0  0
 19 40  1  0  0  0  0
 19 41  1  0  0  0  0
 20 42  1  0  0  0  0
M  CHG  1  14   1
M  END
> <s_m_source_file>
AV-unprocessed.smi

> <i_m_source_file_index>
2232

> <i_lp_mmshare_version>
43012

> <i_f3d_flags>
0

> <s_epik_input>
W0NIM11jMVtjSF1jKFtDSDNdKW5jKFtjSF0xKVtOSF1DKD1PKVtOSF1bQ0gyXVtDSDJdTjJbQ0gyXVtDSDJdT1tDSDJdW0NIMl0y

> <s_epik_cmdline>
J2VwaWtfcHl0aG9uJywgJy1waCcsICc3LjAnLCAnLXRuJywgJzgnLCAnLW1hJywgJzIwMCcsICctbWV0YWxfYmluZGluZycsICctaW1hZScsICc8aW5maWxlLm1hZT4nLCAnLW9tYWUnLCAnPG91dGZpbGUubWFlPic=

> <r_epik_Ionization_Penalty>
0.602717

> <r_epik_Ionization_Penalty_Charging>
0.602531

> <r_epik_Ionization_Penalty_Neutral>
0.000186219

> <r_epik_State_Penalty>
0.617039

> <r_epik_Charging_Adjusted_Penalty>
1.21957

> <i_epik_Tot_Q>
1

> <i_epik_Tot_abs_Q>
1

> <r_epik_Metal_State_Penalty>
0.617067

> <b_epik_Metal_Only>
0

> <s_lp_Force_Field>
OPLS_2005

> <r_lp_Energy>
15.6528

> <b_lp_Chiralities_Consistent>
1

> <s_lp_Variant>
AV-unprocessed.smi:2232-2

> <Gold.Version>
5.8.1

> <Gold.Id.Protein>
6NUR|6NUR_protein|mol2

> <Gold.PLP.Fitness>
48.3334

> <Gold.PLP.PLP>
-40.8543

> <Gold.PLP.part.hbond>
-2.0000

> <Gold.PLP.part.metal>
0.0000

> <Gold.PLP.part.buried>
-7.1076

> <Gold.PLP.part.nonpolar>
-32.4424

> <Gold.PLP.part.repulsive>
0.3896

> <Gold.PLP.ligand.clash>
0.0000

> <Gold.PLP.ligand.torsion>
0.7727

> <Gold.PLP.Chemscore.Hbond>
3.0000

> <Gold.PLP.Chemscore.CHOScore>
0.0000

> <Gold.PLP.Chemscore.Metal>
0.0000

> <Gold.Chemscore.Hbonds>
donor molecule, donor type, donor heavy atom, donor atom, acceptor molecule, acceptor atom, score
      L1  H    14    43       P1  7948  2.00
      P1  H  7997  8008       L1    10  0.94

> <Gold.PLP.Chemscore.Internal.Correction>
0.0244

> <Gold.Rescore>
     Score         DG    S(hbond)    S(metal)    S(lipo)     H(rot)  DE(clash)    DE(int)     intcor
     17.31     -19.50       1.94        0.00      97.14       1.49       0.05       2.14       ----

> <Gold.Chemscore.Fitness>
17.3062

> <Gold.Chemscore.DG>
-19.4977

> <Gold.Chemscore.ZeroCoef>
-5.4800

> <Gold.Chemscore.Hbond>
1.9383

> <Gold.Chemscore.Metal>
0.0000

> <Gold.Chemscore.Lipo>
97.1435

> <Gold.Chemscore.Internal_Hbond>
0.0000

> <Gold.Chemscore.DEClash>
0.0500

> <Gold.Chemscore.DEInternal>
2.1415

> <Gold.Chemscore.Rot>
1.4930

> <Gold.Chemscore.Internal.Correction>
   9.000000E+99

> <Gold.Chemscore.Hbonds>
donor molecule, donor type, donor heavy atom, donor atom, acceptor molecule, acceptor atom, score
      L1  H    14    43       P1  7948  0.91
      P1  H  7997  8008       L1    10  0.90

> <Gold.Chemscore.Hbond.Weighted>
-6.4739

> <Gold.Chemscore.Metal.Weighted>
-0.0000

> <Gold.Chemscore.Lipo.Weighted>
-11.3658

> <Gold.Chemscore.Internal_Hbond.Weighted>
0.0000

> <Gold.Chemscore.DEClash.Weighted>
0.0500

> <Gold.Chemscore.DEInternal.Weighted>
2.1415

> <Gold.Chemscore.Rot.Weighted>
3.8220

> <Gold.Chemscore.Internal.Correction.Weighted>
   9.000000E+99

> <Gold.Protein.RotatedTorsions>
[ 6907 6896 6895 6894 ] final   30.10 input  -60.11 | X-H torsion
[ 7974 7965 7964 7962 ] final   73.71 input  175.53 | X-H torsion
[ 8008 7997 7996 7995 ] final  -36.85 input   59.86 | X-H torsion
[ 10167 10162 10161 10158 ] final   65.37 input  -65.29 | X-H torsion
[ 10718 10713 10712 10709 ] final    5.48 input   66.30 | X-H torsion
[ 10763 10752 10751 10750 ] final  106.58 input  -60.55 | X-H torsion
[ 11005 11000 10999 10996 ] final  -41.32 input  -57.11 | X-H torsion

> <Gold.Protein.ActiveResidues>
 VAL166  LYS551  ARG553  GLY616  TRP617  ASP618  TYR619  PRO620  LYS621  CYS622 
 ASP623  PHE694  ASN695  SER759  ASP760  ASP761  ALA762  ILE779  LEU786  VAL792 
 PHE793  MET794  SER795  GLU796  ALA797  LYS798  CYS799  TRP800  GLU811  SER814 

> <Gold.Protein.RotatedAtoms>
  152.0412  134.9710  160.0573 H   0  0  0  0  0  0  0  0  0  0  0  0  # atno 6907 bound_to 6896
  152.1148  133.4316  159.4656 H   0  0  0  0  0  0  0  0  0  0  0  0  # atno 6908 bound_to 6896
  150.6845  134.2524  159.4559 H   0  0  0  0  0  0  0  0  0  0  0  0  # atno 6909 bound_to 6896
  145.7375  139.2708  143.1505 H   0  0  0  0  0  0  0  0  0  0  0  0  # atno 7974 bound_to 7965
  154.4065  140.1620  156.2441 H   0  0  0  0  0  0  0  0  0  0  0  0  # atno 8008 bound_to 7997
  155.9175  140.3423  155.6124 H   0  0  0  0  0  0  0  0  0  0  0  0  # atno 8009 bound_to 7997
  155.7261  140.0774  157.2300 H   0  0  0  0  0  0  0  0  0  0  0  0  # atno 8010 bound_to 7997
  140.1120  144.4810  150.6972 H   0  0  0  0  0  0  0  0  0  0  0  0  # atno 10167 bound_to 10162
  156.9081  130.5746  149.5647 H   0  0  0  0  0  0  0  0  0  0  0  0  # atno 10718 bound_to 10713
  153.3950  135.3872  155.1949 H   0  0  0  0  0  0  0  0  0  0  0  0  # atno 10763 bound_to 10752
  154.8723  135.3757  154.4690 H   0  0  0  0  0  0  0  0  0  0  0  0  # atno 10764 bound_to 10752
  153.5181  135.7087  153.5807 H   0  0  0  0  0  0  0  0  0  0  0  0  # atno 10765 bound_to 10752
  141.0238  133.6851  156.2441 H   0  0  0  0  0  0  0  0  0  0  0  0  # atno 11005 bound_to 11000
  146.0479  140.8099  142.9796 LP  0  0  0  0  0  0  0  0  0  0  0  0  # atno 17320 bound_to 7965
  144.6878  140.3009  143.7263 LP  0  0  0  0  0  0  0  0  0  0  0  0  # atno 17321 bound_to 7965
  140.6920  143.2382  151.5104 LP  0  0  0  0  0  0  0  0  0  0  0  0  # atno 17342 bound_to 10162
  139.5614  144.2147  152.1697 LP  0  0  0  0  0  0  0  0  0  0  0  0  # atno 17343 bound_to 10162
  156.0549  130.5612  150.9070 LP  0  0  0  0  0  0  0  0  0  0  0  0  # atno 17370 bound_to 10713
  157.5985  131.0942  150.9001 LP  0  0  0  0  0  0  0  0  0  0  0  0  # atno 17371 bound_to 10713
  140.6528  134.5050  157.5578 LP  0  0  0  0  0  0  0  0  0  0  0  0  # atno 17394 bound_to 11000
  139.9162  134.8241  156.1357 LP  0  0  0  0  0  0  0  0  0  0  0  0  # atno 17395 bound_to 11000

$$$$
