AV-unprocessed.smi:2055|AV-procd|sdf|8335|dock10
  -GOLD-   2272011 03D 1   1.00000     0.00000
 Structure written by MMmdl.
 43 44  0  0  0  0  0  0  0  0  1 V2000
  145.2571  136.7608  152.3351 C   0  0  0  0  0  0  0  0  0  0  0  0
  146.0367  136.9311  153.6480 C   0  0  1  0  0  0  0  0  0  0  0  0
  146.5524  135.5877  154.2019 C   0  0  0  0  0  0  0  0  0  0  0  0
  147.4102  134.9641  153.2701 O   0  0  0  0  0  0  0  0  0  0  0  0
  147.1531  137.8453  153.4243 N   0  0  0  0  0  0  0  0  0  0  0  0
  147.4499  138.9070  154.1868 C   0  0  0  0  0  0  0  0  0  0  0  0
  146.7932  139.2610  155.1659 O   0  0  0  0  0  0  0  0  0  0  0  0
  148.5659  139.5207  153.7698 N   0  0  0  0  0  0  0  0  0  0  0  0
  149.1868  140.6637  154.4332 C   0  0  0  0  0  0  0  0  0  0  0  0
  150.4154  140.3377  155.2762 C   0  0  0  0  0  0  0  0  0  0  0  0
  151.2504  139.2713  154.8913 C   0  0  0  0  0  0  0  0  0  0  0  0
  152.3770  138.9801  155.6815 C   0  0  0  0  0  0  0  0  0  0  0  0
  152.7009  139.6738  156.7921 N   0  0  0  0  0  0  0  0  0  0  0  0
  151.9095  140.7029  157.1785 C   0  0  0  0  0  0  0  0  0  0  0  0
  152.3111  141.4080  158.3348 N   0  0  0  0  0  0  0  0  0  0  0  0
  151.6484  142.6687  158.6574 C   0  0  0  0  0  0  0  0  0  0  0  0
  152.4521  143.4428  159.7156 C   0  0  0  0  0  0  0  0  0  0  0  0
  152.6653  142.6176  160.8557 O   0  0  0  0  0  0  0  0  0  0  0  0
  153.4255  141.4581  160.5323 C   0  0  0  0  0  0  0  0  0  0  0  0
  152.6648  140.6042  159.5034 C   0  0  0  0  0  0  0  0  0  0  0  0
  150.7484  141.0586  156.4464 C   0  0  0  0  0  0  0  0  0  0  0  0
  144.3883  136.1165  152.4721 H   0  0  0  0  0  0  0  0  0  0  0  0
  145.8799  136.3177  151.5574 H   0  0  0  0  0  0  0  0  0  0  0  0
  144.8956  137.7209  151.9660 H   0  0  0  0  0  0  0  0  0  0  0  0
  145.3663  137.3825  154.3822 H   0  0  0  0  0  0  0  0  0  0  0  0
  147.0776  135.7275  155.1473 H   0  0  0  0  0  0  0  0  0  0  0  0
  145.7238  134.9050  154.3937 H   0  0  0  0  0  0  0  0  0  0  0  0
  147.7777  135.6291  152.7080 H   0  0  0  0  0  0  0  0  0  0  0  0
  147.7569  137.6390  152.6422 H   0  0  0  0  0  0  0  0  0  0  0  0
  149.0372  139.1552  152.9555 H   0  0  0  0  0  0  0  0  0  0  0  0
  149.4817  141.3786  153.6650 H   0  0  0  0  0  0  0  0  0  0  0  0
  148.4466  141.1693  155.0560 H   0  0  0  0  0  0  0  0  0  0  0  0
  151.0349  138.6875  154.0084 H   0  0  0  0  0  0  0  0  0  0  0  0
  153.0373  138.1686  155.4141 H   0  0  0  0  0  0  0  0  0  0  0  0
  151.5531  143.2867  157.7638 H   0  0  0  0  0  0  0  0  0  0  0  0
  150.6430  142.4630  159.0268 H   0  0  0  0  0  0  0  0  0  0  0  0
  153.4089  143.7759  159.3102 H   0  0  0  0  0  0  0  0  0  0  0  0
  151.9079  144.3368  160.0197 H   0  0  0  0  0  0  0  0  0  0  0  0
  154.4049  141.7478  160.1479 H   0  0  0  0  0  0  0  0  0  0  0  0
  153.5989  140.8825  161.4416 H   0  0  0  0  0  0  0  0  0  0  0  0
  151.7497  140.2111  159.9477 H   0  0  0  0  0  0  0  0  0  0  0  0
  153.2808  139.7469  159.2323 H   0  0  0  0  0  0  0  0  0  0  0  0
  150.1146  141.8683  156.7721 H   0  0  0  0  0  0  0  0  0  0  0  0
  1  2  1  0  0  0  0
  1 22  1  0  0  0  0
  1 23  1  0  0  0  0
  1 24  1  0  0  0  0
  2  3  1  0  0  0  0
  2  5  1  0  0  0  0
  2 25  1  0  0  0  0
  3  4  1  0  0  0  0
  3 26  1  0  0  0  0
  3 27  1  0  0  0  0
  4 28  1  0  0  0  0
  5  6  1  0  0  0  0
  5 29  1  0  0  0  0
  6  7  2  0  0  0  0
  6  8  1  0  0  0  0
  8  9  1  0  0  0  0
  8 30  1  0  0  0  0
  9 10  1  0  0  0  0
  9 31  1  0  0  0  0
  9 32  1  0  0  0  0
 10 21  1  0  0  0  0
 10 11  2  0  0  0  0
 11 12  1  0  0  0  0
 11 33  1  0  0  0  0
 12 13  2  0  0  0  0
 12 34  1  0  0  0  0
 13 14  1  0  0  0  0
 14 15  1  0  0  0  0
 14 21  2  0  0  0  0
 15 20  1  0  0  0  0
 15 16  1  0  0  0  0
 16 17  1  0  0  0  0
 16 35  1  0  0  0  0
 16 36  1  0  0  0  0
 17 18  1  0  0  0  0
 17 37  1  0  0  0  0
 17 38  1  0  0  0  0
 18 19  1  0  0  0  0
 19 20  1  0  0  0  0
 19 39  1  0  0  0  0
 19 40  1  0  0  0  0
 20 41  1  0  0  0  0
 20 42  1  0  0  0  0
 21 43  1  0  0  0  0
M  END
> <s_m_source_file>
AV-unprocessed.smi

> <i_m_source_file_index>
2055

> <i_lp_mmshare_version>
43012

> <i_f3d_flags>
0

> <s_epik_input>
W09IXVtDSDJdW0NAQEhdKFtDSDNdKVtOSF1DKD1PKVtOSF1bQ0gyXWMxW2NIXVtjSF1uYyhbY0hdMSlOMltDSDJdW0NIMl1PW0NIMl1bQ0gyXTI=

> <s_epik_cmdline>
J2VwaWtfcHl0aG9uJywgJy1waCcsICc3LjAnLCAnLXRuJywgJzgnLCAnLW1hJywgJzIwMCcsICctbWV0YWxfYmluZGluZycsICctaW1hZScsICc8aW5maWxlLm1hZT4nLCAnLW9tYWUnLCAnPG91dGZpbGUubWFlPic=

> <r_lp_tautomer_probability>
1

> <r_epik_Ionization_Penalty>
0.0122173

> <r_epik_Ionization_Penalty_Charging>
0

> <r_epik_Ionization_Penalty_Neutral>
0.0122173

> <r_epik_State_Penalty>
0.00940497

> <r_epik_Charging_Adjusted_Penalty>
0.00940497

> <i_epik_Tot_Q>
0

> <i_epik_Tot_abs_Q>
0

> <r_epik_Metal_State_Penalty>
0.00921475

> <b_epik_Metal_Only>
0

> <s_lp_Force_Field>
OPLS_2005

> <r_lp_Energy>
11.6971

> <b_lp_Chiralities_Consistent>
1

> <s_lp_Variant>
AV-unprocessed.smi:2055-2

> <Gold.Version>
5.8.1

> <Gold.Id.Protein>
6NUR|6NUR_protein|mol2

> <Gold.PLP.Fitness>
45.8472

> <Gold.PLP.PLP>
-36.5169

> <Gold.PLP.part.hbond>
-3.5682

> <Gold.PLP.part.metal>
0.0000

> <Gold.PLP.part.buried>
-3.9358

> <Gold.PLP.part.nonpolar>
-28.9049

> <Gold.PLP.part.repulsive>
0.1700

> <Gold.PLP.ligand.clash>
0.0000

> <Gold.PLP.ligand.torsion>
0.8639

> <Gold.PLP.Chemscore.Hbond>
3.5200

> <Gold.PLP.Chemscore.CHOScore>
0.0000

> <Gold.PLP.Chemscore.Metal>
0.0000

> <Gold.Chemscore.Hbonds>
donor molecule, donor type, donor heavy atom, donor atom, acceptor molecule, acceptor atom, score
      L1  H     4    28       P1  7948  1.00
      L1  H     5    29       P1  7948  0.90
      L1  H     8    30       P1  7957  0.59
      P1  H  7997  8010       L1    13  1.00

> <Gold.PLP.Chemscore.Internal.Correction>
0.4981

> <Gold.Rescore>
     Score         DG    S(hbond)    S(metal)    S(lipo)     H(rot)  DE(clash)    DE(int)     intcor
     17.51     -18.87       3.05        0.00      86.48       2.70       0.41       0.95       ----

> <Gold.Chemscore.Fitness>
17.5084

> <Gold.Chemscore.DG>
-18.8671

> <Gold.Chemscore.ZeroCoef>
-5.4800

> <Gold.Chemscore.Hbond>
3.0506

> <Gold.Chemscore.Metal>
0.0000

> <Gold.Chemscore.Lipo>
86.4796

> <Gold.Chemscore.Internal_Hbond>
0.0000

> <Gold.Chemscore.DEClash>
0.4080

> <Gold.Chemscore.DEInternal>
0.9507

> <Gold.Chemscore.Rot>
2.7031

> <Gold.Chemscore.Internal.Correction>
   9.000000E+99

> <Gold.Chemscore.Hbonds>
donor molecule, donor type, donor heavy atom, donor atom, acceptor molecule, acceptor atom, score
      L1  H     4    28       P1  7948  0.91
      L1  H     5    29       P1  7948  0.84
      L1  H     8    30       P1  7957  0.56
      P1  H  7997  8010       L1    13  0.23

> <Gold.Chemscore.Hbond.Weighted>
-10.1889

> <Gold.Chemscore.Metal.Weighted>
-0.0000

> <Gold.Chemscore.Lipo.Weighted>
-10.1181

> <Gold.Chemscore.Internal_Hbond.Weighted>
0.0000

> <Gold.Chemscore.DEClash.Weighted>
0.4080

> <Gold.Chemscore.DEInternal.Weighted>
0.9507

> <Gold.Chemscore.Rot.Weighted>
6.9199

> <Gold.Chemscore.Internal.Correction.Weighted>
   9.000000E+99

> <Gold.Protein.RotatedTorsions>
[ 6907 6896 6895 6894 ] final   58.42 input  -60.11 | X-H torsion
[ 7974 7965 7964 7962 ] final  -87.54 input  175.53 | X-H torsion
[ 8008 7997 7996 7995 ] final   73.86 input   59.86 | X-H torsion
[ 10167 10162 10161 10158 ] final -151.69 input  -65.29 | X-H torsion
[ 10718 10713 10712 10709 ] final -130.59 input   66.30 | X-H torsion
[ 10763 10752 10751 10750 ] final  125.06 input  -60.55 | X-H torsion
[ 11005 11000 10999 10996 ] final  143.84 input  -57.11 | X-H torsion

> <Gold.Protein.ActiveResidues>
 VAL166  LYS551  ARG553  GLY616  TRP617  ASP618  TYR619  PRO620  LYS621  CYS622 
 ASP623  PHE694  ASN695  SER759  ASP760  ASP761  ALA762  ILE779  LEU786  VAL792 
 PHE793  MET794  SER795  GLU796  ALA797  LYS798  CYS799  TRP800  GLU811  SER814 

> <Gold.Protein.RotatedAtoms>
  152.3823  134.6571  160.0138 H   0  0  0  0  0  0  0  0  0  0  0  0  # atno 6907 bound_to 6896
  151.6831  133.3306  159.3232 H   0  0  0  0  0  0  0  0  0  0  0  0  # atno 6908 bound_to 6896
  150.7757  134.6700  159.6431 H   0  0  0  0  0  0  0  0  0  0  0  0  # atno 6909 bound_to 6896
  145.4652  140.9560  143.1948 H   0  0  0  0  0  0  0  0  0  0  0  0  # atno 7974 bound_to 7965
  155.7898  140.3479  155.5343 H   0  0  0  0  0  0  0  0  0  0  0  0  # atno 8008 bound_to 7997
  155.8645  140.0976  157.1612 H   0  0  0  0  0  0  0  0  0  0  0  0  # atno 8009 bound_to 7997
  154.4014  140.1352  156.3989 H   0  0  0  0  0  0  0  0  0  0  0  0  # atno 8010 bound_to 7997
  139.7246  143.8904  152.2515 H   0  0  0  0  0  0  0  0  0  0  0  0  # atno 10167 bound_to 10162
  156.2159  130.6948  151.0702 H   0  0  0  0  0  0  0  0  0  0  0  0  # atno 10718 bound_to 10713
  153.6713  135.3330  155.3154 H   0  0  0  0  0  0  0  0  0  0  0  0  # atno 10763 bound_to 10752
  154.8490  135.4387  154.1702 H   0  0  0  0  0  0  0  0  0  0  0  0  # atno 10764 bound_to 10752
  153.2694  135.6999  153.7572 H   0  0  0  0  0  0  0  0  0  0  0  0  # atno 10765 bound_to 10752
  140.0586  134.9217  157.1143 H   0  0  0  0  0  0  0  0  0  0  0  0  # atno 11005 bound_to 11000
  144.7979  139.6199  143.7085 LP  0  0  0  0  0  0  0  0  0  0  0  0  # atno 17320 bound_to 7965
  146.2428  139.6037  142.9479 LP  0  0  0  0  0  0  0  0  0  0  0  0  # atno 17321 bound_to 7965
  139.8809  144.7018  150.8878 LP  0  0  0  0  0  0  0  0  0  0  0  0  # atno 17342 bound_to 10162
  140.7760  143.3662  151.1735 LP  0  0  0  0  0  0  0  0  0  0  0  0  # atno 17343 bound_to 10162
  157.7063  131.0755  150.6655 LP  0  0  0  0  0  0  0  0  0  0  0  0  # atno 17370 bound_to 10713
  156.6717  130.4541  149.5655 LP  0  0  0  0  0  0  0  0  0  0  0  0  # atno 17371 bound_to 10713
  140.3806  134.2291  155.7171 LP  0  0  0  0  0  0  0  0  0  0  0  0  # atno 17394 bound_to 11000
  141.1963  133.8086  157.0678 LP  0  0  0  0  0  0  0  0  0  0  0  0  # atno 17395 bound_to 11000

$$$$
