AV-unprocessed.smi:342|AV-procd|sdf|2387|dock3
  -GOLD-   2262022313D 1   1.00000     0.00000
 Structure written by MMmdl.
 42 44  0  0  0  0  0  0  0  0  2 V2000
  152.7564  139.5080  155.5936 O   0  0  0  0  0  0  0  0  0  0  0  0
  151.4606  140.0709  155.6585 C   0  0  1  0  0  0  0  0  0  0  0  0
  150.5573  139.3363  154.6484 C   0  0  0  0  0  0  0  0  0  0  0  0
  149.1770  139.8836  154.6119 N   0  3  0  0  0  0  0  0  0  0  0  0
  149.1475  141.3292  154.2845 C   0  0  0  0  0  0  0  0  0  0  0  0
  147.7045  141.8599  154.3213 C   0  0  0  0  0  0  0  0  0  0  0  0
  146.8994  141.1116  153.4190 O   0  0  0  0  0  0  0  0  0  0  0  0
  146.8463  139.7344  153.7700 C   0  0  0  0  0  0  0  0  0  0  0  0
  148.2606  139.1321  153.7181 C   0  0  0  0  0  0  0  0  0  0  0  0
  150.9129  139.9557  157.0966 C   0  0  0  0  0  0  0  0  0  0  0  0
  151.6994  140.7052  158.0687 N   0  0  0  0  0  0  0  0  0  0  0  0
  152.4970  140.2240  159.0588 C   0  0  0  0  0  0  0  0  0  0  0  0
  152.7092  138.7510  159.2801 C   0  0  0  0  0  0  0  0  0  0  0  0
  153.3078  138.1920  158.2273 F   0  0  0  0  0  0  0  0  0  0  0  0
  153.4793  138.5315  160.3452 F   0  0  0  0  0  0  0  0  0  0  0  0
  151.5417  138.1343  159.4623 F   0  0  0  0  0  0  0  0  0  0  0  0
  153.1089  141.1479  159.8032 N   0  0  0  0  0  0  0  0  0  0  0  0
  152.6759  142.3330  159.2437 C   0  0  0  0  0  0  0  0  0  0  0  0
  152.9724  143.6719  159.5851 C   0  0  0  0  0  0  0  0  0  0  0  0
  152.4065  144.7369  158.8542 C   0  0  0  0  0  0  0  0  0  0  0  0
  151.5389  144.4787  157.7734 C   0  0  0  0  0  0  0  0  0  0  0  0
  151.2304  143.1517  157.4173 C   0  0  0  0  0  0  0  0  0  0  0  0
  151.7959  142.0917  158.1518 C   0  0  0  0  0  0  0  0  0  0  0  0
  152.6761  138.5656  155.6049 H   0  0  0  0  0  0  0  0  0  0  0  0
  151.5422  141.1239  155.3960 H   0  0  0  0  0  0  0  0  0  0  0  0
  151.0103  139.4160  153.6586 H   0  0  0  0  0  0  0  0  0  0  0  0
  150.5134  138.2702  154.8764 H   0  0  0  0  0  0  0  0  0  0  0  0
  149.7584  141.8842  154.9976 H   0  0  0  0  0  0  0  0  0  0  0  0
  149.5805  141.4901  153.2957 H   0  0  0  0  0  0  0  0  0  0  0  0
  147.2928  141.8021  155.3304 H   0  0  0  0  0  0  0  0  0  0  0  0
  147.6823  142.9097  154.0283 H   0  0  0  0  0  0  0  0  0  0  0  0
  146.4076  139.6154  154.7622 H   0  0  0  0  0  0  0  0  0  0  0  0
  146.1921  139.2164  153.0683 H   0  0  0  0  0  0  0  0  0  0  0  0
  148.6389  139.1632  152.6950 H   0  0  0  0  0  0  0  0  0  0  0  0
  148.2144  138.0832  154.0089 H   0  0  0  0  0  0  0  0  0  0  0  0
  149.8809  140.3032  157.1339 H   0  0  0  0  0  0  0  0  0  0  0  0
  150.8851  138.9106  157.4078 H   0  0  0  0  0  0  0  0  0  0  0  0
  153.6382  143.8803  160.4096 H   0  0  0  0  0  0  0  0  0  0  0  0
  152.6408  145.7565  159.1230 H   0  0  0  0  0  0  0  0  0  0  0  0
  151.1107  145.3001  157.2175 H   0  0  0  0  0  0  0  0  0  0  0  0
  150.5664  142.9529  156.5894 H   0  0  0  0  0  0  0  0  0  0  0  0
  148.8141  139.7996  155.5513 H   0  0  0  0  0  0  0  0  0  0  0  0
  1  2  1  0  0  0  0
  1 24  1  0  0  0  0
  2  3  1  0  0  0  0
  2 10  1  0  0  0  0
  2 25  1  0  0  0  0
  3  4  1  0  0  0  0
  3 26  1  0  0  0  0
  3 27  1  0  0  0  0
  4  9  1  0  0  0  0
  4  5  1  0  0  0  0
  4 42  1  0  0  0  0
  5  6  1  0  0  0  0
  5 28  1  0  0  0  0
  5 29  1  0  0  0  0
  6  7  1  0  0  0  0
  6 30  1  0  0  0  0
  6 31  1  0  0  0  0
  7  8  1  0  0  0  0
  8  9  1  0  0  0  0
  8 32  1  0  0  0  0
  8 33  1  0  0  0  0
  9 34  1  0  0  0  0
  9 35  1  0  0  0  0
 10 11  1  0  0  0  0
 10 36  1  0  0  0  0
 10 37  1  0  0  0  0
 11 23  1  0  0  0  0
 11 12  1  0  0  0  0
 12 13  1  0  0  0  0
 12 17  2  0  0  0  0
 13 14  1  0  0  0  0
 13 15  1  0  0  0  0
 13 16  1  0  0  0  0
 17 18  1  0  0  0  0
 18 23  2  0  0  0  0
 18 19  1  0  0  0  0
 19 20  2  0  0  0  0
 19 38  1  0  0  0  0
 20 21  1  0  0  0  0
 20 39  1  0  0  0  0
 21 22  2  0  0  0  0
 21 40  1  0  0  0  0
 22 23  1  0  0  0  0
 22 41  1  0  0  0  0
M  CHG  1   4   1
M  END
> <s_m_source_file>
AV-unprocessed.smi

> <i_m_source_file_index>
342

> <i_lp_mmshare_version>
43012

> <i_f3d_flags>
0

> <s_epik_input>
W2NIXTFbY0hdW2NIXVtjSF1jKGMxMiluKGMobjIpQyhGKShGKUYpW0NIMl1bQ0BIXShbT0hdKVtDSDJdTjNbQ0gyXVtDSDJdT1tDSDJdW0NIMl0z

> <s_epik_cmdline>
J2VwaWtfcHl0aG9uJywgJy1waCcsICc3LjAnLCAnLXRuJywgJzgnLCAnLW1hJywgJzIwMCcsICctbWV0YWxfYmluZGluZycsICctaW1hZScsICc8aW5maWxlLm1hZT4nLCAnLW9tYWUnLCAnPG91dGZpbGUubWFlPic=

> <r_epik_Ionization_Penalty>
0.608409

> <r_epik_Ionization_Penalty_Charging>
0.608065

> <r_epik_Ionization_Penalty_Neutral>
0.000344684

> <r_epik_State_Penalty>
0.623026

> <r_epik_Charging_Adjusted_Penalty>
1.23109

> <i_epik_Tot_Q>
1

> <i_epik_Tot_abs_Q>
1

> <r_epik_Metal_State_Penalty>
0.623013

> <b_epik_Metal_Only>
0

> <s_lp_Force_Field>
OPLS_2005

> <r_lp_Energy>
25.6933

> <b_lp_Chiralities_Consistent>
1

> <s_lp_Variant>
AV-unprocessed.smi:342-4

> <Gold.Version>
5.8.1

> <Gold.Id.Protein>
6NUR|6NUR_protein|mol2

> <Gold.PLP.Fitness>
52.0165

> <Gold.PLP.PLP>
-49.2281

> <Gold.PLP.part.hbond>
-1.0000

> <Gold.PLP.part.metal>
0.0000

> <Gold.PLP.part.buried>
-4.6974

> <Gold.PLP.part.nonpolar>
-43.1050

> <Gold.PLP.part.repulsive>
0.2745

> <Gold.PLP.ligand.clash>
0.0000

> <Gold.PLP.ligand.torsion>
0.1383

> <Gold.PLP.Chemscore.Hbond>
1.0000

> <Gold.PLP.Chemscore.CHOScore>
0.0000

> <Gold.PLP.Chemscore.Metal>
0.0000

> <Gold.Chemscore.Hbonds>
donor molecule, donor type, donor heavy atom, donor atom, acceptor molecule, acceptor atom, score
      P1  H  7997  8008       L1     1  1.00

> <Gold.PLP.Chemscore.Internal.Correction>
0.0650

> <Gold.Rescore>
     Score         DG    S(hbond)    S(metal)    S(lipo)     H(rot)  DE(clash)    DE(int)     intcor
     17.01     -17.41       0.97        0.00     124.97       2.32       0.35       0.04       ----

> <Gold.Chemscore.Fitness>
17.0133

> <Gold.Chemscore.DG>
-17.4077

> <Gold.Chemscore.ZeroCoef>
-5.4800

> <Gold.Chemscore.Hbond>
0.9721

> <Gold.Chemscore.Metal>
0.0000

> <Gold.Chemscore.Lipo>
124.9710

> <Gold.Chemscore.Internal_Hbond>
0.0000

> <Gold.Chemscore.DEClash>
0.3525

> <Gold.Chemscore.DEInternal>
0.0420

> <Gold.Chemscore.Rot>
2.3206

> <Gold.Chemscore.Internal.Correction>
   9.000000E+99

> <Gold.Chemscore.Hbonds>
donor molecule, donor type, donor heavy atom, donor atom, acceptor molecule, acceptor atom, score
      P1  H  7997  8008       L1     1  0.91

> <Gold.Chemscore.Hbond.Weighted>
-3.2468

> <Gold.Chemscore.Metal.Weighted>
-0.0000

> <Gold.Chemscore.Lipo.Weighted>
-14.6216

> <Gold.Chemscore.Internal_Hbond.Weighted>
0.0000

> <Gold.Chemscore.DEClash.Weighted>
0.3525

> <Gold.Chemscore.DEInternal.Weighted>
0.0420

> <Gold.Chemscore.Rot.Weighted>
5.9407

> <Gold.Chemscore.Internal.Correction.Weighted>
   9.000000E+99

> <Gold.Protein.RotatedTorsions>
[ 6907 6896 6895 6894 ] final  -17.91 input  -60.11 | X-H torsion
[ 7974 7965 7964 7962 ] final -137.72 input  175.53 | X-H torsion
[ 8008 7997 7996 7995 ] final  -29.40 input   59.86 | X-H torsion
[ 10167 10162 10161 10158 ] final   18.14 input  -65.29 | X-H torsion
[ 10718 10713 10712 10709 ] final  -14.68 input   66.30 | X-H torsion
[ 10763 10752 10751 10750 ] final  116.71 input  -60.55 | X-H torsion
[ 11005 11000 10999 10996 ] final -108.85 input  -57.11 | X-H torsion

> <Gold.Protein.ActiveResidues>
 VAL166  LYS551  ARG553  GLY616  TRP617  ASP618  TYR619  PRO620  LYS621  CYS622 
 ASP623  PHE694  ASN695  SER759  ASP760  ASP761  ALA762  ILE779  LEU786  VAL792 
 PHE793  MET794  SER795  GLU796  ALA797  LYS798  CYS799  TRP800  GLU811  SER814 

> <Gold.Protein.RotatedAtoms>
  151.2861  135.0728  159.9186 H   0  0  0  0  0  0  0  0  0  0  0  0  # atno 6907 bound_to 6896
  152.5325  133.9980  159.7892 H   0  0  0  0  0  0  0  0  0  0  0  0  # atno 6908 bound_to 6896
  151.0242  133.5798  159.2698 H   0  0  0  0  0  0  0  0  0  0  0  0  # atno 6909 bound_to 6896
  144.8818  140.6519  143.5201 H   0  0  0  0  0  0  0  0  0  0  0  0  # atno 7974 bound_to 7965
  154.4291  140.1819  156.1242 H   0  0  0  0  0  0  0  0  0  0  0  0  # atno 8008 bound_to 7997
  156.0119  140.3350  155.6924 H   0  0  0  0  0  0  0  0  0  0  0  0  # atno 8009 bound_to 7997
  155.6099  140.0649  157.2700 H   0  0  0  0  0  0  0  0  0  0  0  0  # atno 8010 bound_to 7997
  140.5675  143.9224  150.6687 H   0  0  0  0  0  0  0  0  0  0  0  0  # atno 10167 bound_to 10162
  156.6125  130.4853  149.6196 H   0  0  0  0  0  0  0  0  0  0  0  0  # atno 10718 bound_to 10713
  153.5413  135.3558  155.2719 H   0  0  0  0  0  0  0  0  0  0  0  0  # atno 10763 bound_to 10752
  154.8717  135.4092  154.3041 H   0  0  0  0  0  0  0  0  0  0  0  0  # atno 10764 bound_to 10752
  153.3748  135.7066  153.6678 H   0  0  0  0  0  0  0  0  0  0  0  0  # atno 10765 bound_to 10752
  141.0879  133.9106  157.2143 H   0  0  0  0  0  0  0  0  0  0  0  0  # atno 11005 bound_to 11000
  145.3940  139.1611  143.4214 LP  0  0  0  0  0  0  0  0  0  0  0  0  # atno 17320 bound_to 7965
  146.2999  140.4031  142.8708 LP  0  0  0  0  0  0  0  0  0  0  0  0  # atno 17321 bound_to 7965
  140.2690  143.3469  152.1255 LP  0  0  0  0  0  0  0  0  0  0  0  0  # atno 17342 bound_to 10162
  139.5100  144.6877  151.5843 LP  0  0  0  0  0  0  0  0  0  0  0  0  # atno 17343 bound_to 10162
  156.2378  130.6833  151.1526 LP  0  0  0  0  0  0  0  0  0  0  0  0  # atno 17370 bound_to 10713
  157.7250  131.0656  150.5971 LP  0  0  0  0  0  0  0  0  0  0  0  0  # atno 17371 bound_to 10713
  139.9700  135.0131  156.9487 LP  0  0  0  0  0  0  0  0  0  0  0  0  # atno 17394 bound_to 11000
  140.5320  134.0804  155.7318 LP  0  0  0  0  0  0  0  0  0  0  0  0  # atno 17395 bound_to 11000

$$$$
