AV-unprocessed.smi:2973|AV-procd|sdf|11340|dock5
  -GOLD-   2272016253D 1   1.00000     0.00000
 Structure written by MMmdl.
 49 51  0  0  0  0  0  0  0  0  1 V2000
  148.1536  137.7249  156.4423 C   0  0  0  0  0  0  0  0  0  0  0  0
  147.8870  138.7773  155.3453 C   0  0  1  0  0  0  0  0  0  0  0  0
  146.9995  139.9183  155.8878 C   0  0  0  0  0  0  0  0  0  0  0  0
  146.6384  140.9283  154.7874 C   0  0  0  0  0  0  0  0  0  0  0  0
  147.8945  141.5032  154.1180 C   0  0  0  0  0  0  0  0  0  0  0  0
  148.7965  140.3825  153.5702 C   0  0  0  0  0  0  0  0  0  0  0  0
  149.1687  139.3232  154.6385 C   0  0  2  0  0  0  0  0  0  0  0  0
  149.9224  138.2481  154.0168 N   0  0  0  0  0  0  0  0  0  0  0  0
  151.1708  138.1364  154.4870 C   0  0  0  0  0  0  0  0  0  0  0  0
  151.9990  137.3093  154.1095 O   0  0  0  0  0  0  0  0  0  0  0  0
  151.3512  139.0748  155.4326 N   0  0  0  0  0  0  0  0  0  0  0  0
  152.6062  139.2722  156.1700 C   0  0  0  0  0  0  0  0  0  0  0  0
  152.5136  138.8904  157.6543 C   0  0  0  0  0  0  0  0  0  0  0  0
  152.1056  137.7814  158.0029 O   0  0  0  0  0  0  0  0  0  0  0  0
  152.9102  139.8325  158.5226 N   0  0  0  0  0  0  0  0  0  0  0  0
  152.9096  139.6901  159.9739 C   0  0  0  0  0  0  0  0  0  0  0  0
  153.6905  140.8258  160.6563 C   0  0  0  0  0  0  0  0  0  0  0  0
  153.1409  142.1945  160.3013 C   0  0  0  0  0  0  0  0  0  0  0  0
  152.7935  143.1165  161.3122 C   0  0  0  0  0  0  0  0  0  0  0  0
  152.2917  144.3753  160.9284 C   0  0  0  0  0  0  0  0  0  0  0  0
  152.1589  144.6631  159.5563 C   0  0  0  0  0  0  0  0  0  0  0  0
  152.5355  143.6749  158.6249 C   0  0  0  0  0  0  0  0  0  0  0  0
  153.0168  142.4647  158.9822 N   0  0  0  0  0  0  0  0  0  0  0  0
  150.2532  139.8261  155.5943 C   0  0  0  0  0  0  0  0  0  0  0  0
  150.1152  140.7668  156.3765 O   0  0  0  0  0  0  0  0  0  0  0  0
  148.7018  138.1472  157.2850 H   0  0  0  0  0  0  0  0  0  0  0  0
  148.7265  136.8799  156.0601 H   0  0  0  0  0  0  0  0  0  0  0  0
  147.2166  137.3264  156.8322 H   0  0  0  0  0  0  0  0  0  0  0  0
  147.3024  138.2670  154.5782 H   0  0  0  0  0  0  0  0  0  0  0  0
  146.0816  139.5046  156.3067 H   0  0  0  0  0  0  0  0  0  0  0  0
  147.4993  140.4323  156.7090 H   0  0  0  0  0  0  0  0  0  0  0  0
  146.0155  140.4412  154.0361 H   0  0  0  0  0  0  0  0  0  0  0  0
  146.0390  141.7364  155.2075 H   0  0  0  0  0  0  0  0  0  0  0  0
  147.6057  142.1719  153.3068 H   0  0  0  0  0  0  0  0  0  0  0  0
  148.4442  142.1159  154.8324 H   0  0  0  0  0  0  0  0  0  0  0  0
  148.2832  139.8918  152.7419 H   0  0  0  0  0  0  0  0  0  0  0  0
  149.6973  140.8243  153.1408 H   0  0  0  0  0  0  0  0  0  0  0  0
  149.5347  137.6579  153.2952 H   0  0  0  0  0  0  0  0  0  0  0  0
  153.4073  138.6899  155.7118 H   0  0  0  0  0  0  0  0  0  0  0  0
  152.9177  140.3153  156.0919 H   0  0  0  0  0  0  0  0  0  0  0  0
  153.2314  140.7149  158.1512 H   0  0  0  0  0  0  0  0  0  0  0  0
  151.8732  139.6992  160.3122 H   0  0  0  0  0  0  0  0  0  0  0  0
  153.3190  138.7180  160.2544 H   0  0  0  0  0  0  0  0  0  0  0  0
  153.6624  140.7076  161.7406 H   0  0  0  0  0  0  0  0  0  0  0  0
  154.7423  140.7774  160.3713 H   0  0  0  0  0  0  0  0  0  0  0  0
  152.9084  142.8676  162.3571 H   0  0  0  0  0  0  0  0  0  0  0  0
  152.0140  145.1068  161.6729 H   0  0  0  0  0  0  0  0  0  0  0  0
  151.7775  145.6176  159.2253 H   0  0  0  0  0  0  0  0  0  0  0  0
  152.4485  143.8615  157.5647 H   0  0  0  0  0  0  0  0  0  0  0  0
  1  2  1  0  0  0  0
  1 26  1  0  0  0  0
  1 27  1  0  0  0  0
  1 28  1  0  0  0  0
  2  7  1  0  0  0  0
  2  3  1  0  0  0  0
  2 29  1  0  0  0  0
  3  4  1  0  0  0  0
  3 30  1  0  0  0  0
  3 31  1  0  0  0  0
  4  5  1  0  0  0  0
  4 32  1  0  0  0  0
  4 33  1  0  0  0  0
  5  6  1  0  0  0  0
  5 34  1  0  0  0  0
  5 35  1  0  0  0  0
  6  7  1  0  0  0  0
  6 36  1  0  0  0  0
  6 37  1  0  0  0  0
  7 24  1  0  0  0  0
  7  8  1  0  0  0  0
  8  9  1  0  0  0  0
  8 38  1  0  0  0  0
  9 10  2  0  0  0  0
  9 11  1  0  0  0  0
 11 12  1  0  0  0  0
 11 24  1  0  0  0  0
 12 13  1  0  0  0  0
 12 39  1  0  0  0  0
 12 40  1  0  0  0  0
 13 14  2  0  0  0  0
 13 15  1  0  0  0  0
 15 16  1  0  0  0  0
 15 41  1  0  0  0  0
 16 17  1  0  0  0  0
 16 42  1  0  0  0  0
 16 43  1  0  0  0  0
 17 18  1  0  0  0  0
 17 44  1  0  0  0  0
 17 45  1  0  0  0  0
 18 23  1  0  0  0  0
 18 19  2  0  0  0  0
 19 20  1  0  0  0  0
 19 46  1  0  0  0  0
 20 21  2  0  0  0  0
 20 47  1  0  0  0  0
 21 22  1  0  0  0  0
 21 48  1  0  0  0  0
 22 23  2  0  0  0  0
 22 49  1  0  0  0  0
 24 25  2  0  0  0  0
M  END
> <s_m_source_file>
AV-unprocessed.smi

> <i_m_source_file_index>
2973

> <i_lp_mmshare_version>
43012

> <i_f3d_flags>
0

> <s_epik_input>
W0NIMl0xW0NIMl1bQ0gyXVtDSDJdW0NAQEhdKFtDSDNdKVtDQF0xMltOSF1DKD1PKU4oQzI9TylbQ0gyXUMoPU8pW05IXVtDSDJdW0NIMl1jM1tjSF1bY0hdW2NIXVtjSF1uMw==

> <s_epik_cmdline>
J2VwaWtfcHl0aG9uJywgJy1waCcsICc3LjAnLCAnLXRuJywgJzgnLCAnLW1hJywgJzIwMCcsICctbWV0YWxfYmluZGluZycsICctaW1hZScsICc8aW5maWxlLm1hZT4nLCAnLW9tYWUnLCAnPG91dGZpbGUubWFlPic=

> <r_lp_tautomer_probability>
1

> <r_epik_Ionization_Penalty>
0.0245152

> <r_epik_Ionization_Penalty_Charging>
0

> <r_epik_Ionization_Penalty_Neutral>
0.0245152

> <r_epik_State_Penalty>
0.0198648

> <r_epik_Charging_Adjusted_Penalty>
0.0198648

> <i_epik_Tot_Q>
0

> <i_epik_Tot_abs_Q>
0

> <r_epik_Metal_State_Penalty>
0.0400162

> <b_epik_Metal_Only>
0

> <s_lp_Force_Field>
OPLS_2005

> <r_lp_Energy>
16.769

> <b_lp_Chiralities_Consistent>
1

> <s_lp_Variant>
AV-unprocessed.smi:2973-4

> <Gold.Version>
5.8.1

> <Gold.Id.Protein>
6NUR|6NUR_protein|mol2

> <Gold.PLP.Fitness>
52.6598

> <Gold.PLP.PLP>
-47.5137

> <Gold.PLP.part.hbond>
-2.4343

> <Gold.PLP.part.metal>
0.0000

> <Gold.PLP.part.buried>
-1.0154

> <Gold.PLP.part.nonpolar>
-45.3238

> <Gold.PLP.part.repulsive>
0.6627

> <Gold.PLP.ligand.clash>
0.0000

> <Gold.PLP.ligand.torsion>
0.2497

> <Gold.PLP.Chemscore.Hbond>
1.8705

> <Gold.PLP.Chemscore.CHOScore>
0.0000

> <Gold.PLP.Chemscore.Metal>
0.0000

> <Gold.Chemscore.Hbonds>
donor molecule, donor type, donor heavy atom, donor atom, acceptor molecule, acceptor atom, score
      L1  H     8    38       P1  7948  0.89
      P1  H 10752 10765       L1    10  0.99

> <Gold.PLP.Chemscore.Internal.Correction>
0.0342

> <Gold.Rescore>
     Score         DG    S(hbond)    S(metal)    S(lipo)     H(rot)  DE(clash)    DE(int)     intcor
     16.80     -20.61       1.89        0.00     115.87       1.86       1.96       1.85       ----

> <Gold.Chemscore.Fitness>
16.7989

> <Gold.Chemscore.DG>
-20.6080

> <Gold.Chemscore.ZeroCoef>
-5.4800

> <Gold.Chemscore.Hbond>
1.8923

> <Gold.Chemscore.Metal>
0.0000

> <Gold.Chemscore.Lipo>
115.8742

> <Gold.Chemscore.Internal_Hbond>
0.0000

> <Gold.Chemscore.DEClash>
1.9565

> <Gold.Chemscore.DEInternal>
1.8525

> <Gold.Chemscore.Rot>
1.8553

> <Gold.Chemscore.Internal.Correction>
   9.000000E+99

> <Gold.Chemscore.Hbonds>
donor molecule, donor type, donor heavy atom, donor atom, acceptor molecule, acceptor atom, score
      L1  H     8    38       P1  7948  0.77
      P1  H 10752 10765       L1    10  0.93

> <Gold.Chemscore.Hbond.Weighted>
-6.3204

> <Gold.Chemscore.Metal.Weighted>
-0.0000

> <Gold.Chemscore.Lipo.Weighted>
-13.5573

> <Gold.Chemscore.Internal_Hbond.Weighted>
0.0000

> <Gold.Chemscore.DEClash.Weighted>
1.9565

> <Gold.Chemscore.DEInternal.Weighted>
1.8525

> <Gold.Chemscore.Rot.Weighted>
4.7497

> <Gold.Chemscore.Internal.Correction.Weighted>
   9.000000E+99

> <Gold.Protein.RotatedTorsions>
[ 6907 6896 6895 6894 ] final  -44.68 input  -60.11 | X-H torsion
[ 7974 7965 7964 7962 ] final -149.83 input  175.53 | X-H torsion
[ 8008 7997 7996 7995 ] final   19.89 input   59.86 | X-H torsion
[ 10167 10162 10161 10158 ] final  -41.14 input  -65.29 | X-H torsion
[ 10718 10713 10712 10709 ] final  120.74 input   66.30 | X-H torsion
[ 10763 10752 10751 10750 ] final  152.17 input  -60.55 | X-H torsion
[ 11005 11000 10999 10996 ] final  118.39 input  -57.11 | X-H torsion

> <Gold.Protein.ActiveResidues>
 VAL166  LYS551  ARG553  GLY616  TRP617  ASP618  TYR619  PRO620  LYS621  CYS622 
 ASP623  PHE694  ASN695  SER759  ASP760  ASP761  ALA762  ILE779  LEU786  VAL792 
 PHE793  MET794  SER795  GLU796  ALA797  LYS798  CYS799  TRP800  GLU811  SER814 

> <Gold.Protein.RotatedAtoms>
  150.9301  134.8716  159.7545 H   0  0  0  0  0  0  0  0  0  0  0  0  # atno 6907 bound_to 6896
  152.5034  134.4091  159.9452 H   0  0  0  0  0  0  0  0  0  0  0  0  # atno 6908 bound_to 6896
  151.4119  133.3685  159.2780 H   0  0  0  0  0  0  0  0  0  0  0  0  # atno 6909 bound_to 6896
  144.7944  140.5012  143.5750 H   0  0  0  0  0  0  0  0  0  0  0  0  # atno 7974 bound_to 7965
  154.9274  140.3035  155.5185 H   0  0  0  0  0  0  0  0  0  0  0  0  # atno 8008 bound_to 7997
  156.3006  140.2360  156.4267 H   0  0  0  0  0  0  0  0  0  0  0  0  # atno 8009 bound_to 7997
  154.8270  140.0420  157.1439 H   0  0  0  0  0  0  0  0  0  0  0  0  # atno 8010 bound_to 7997
  140.7012  143.3112  151.3024 H   0  0  0  0  0  0  0  0  0  0  0  0  # atno 10167 bound_to 10162
  157.5869  131.1069  150.8077 H   0  0  0  0  0  0  0  0  0  0  0  0  # atno 10718 bound_to 10713
  154.1156  135.2836  155.3220 H   0  0  0  0  0  0  0  0  0  0  0  0  # atno 10763 bound_to 10752
  154.6459  135.5386  153.7847 H   0  0  0  0  0  0  0  0  0  0  0  0  # atno 10764 bound_to 10752
  153.0330  135.6498  154.1313 H   0  0  0  0  0  0  0  0  0  0  0  0  # atno 10765 bound_to 10752
  139.9108  134.9620  156.7495 H   0  0  0  0  0  0  0  0  0  0  0  0  # atno 11005 bound_to 11000
  145.5712  139.1483  143.3287 LP  0  0  0  0  0  0  0  0  0  0  0  0  # atno 17320 bound_to 7965
  146.2207  140.5845  142.9018 LP  0  0  0  0  0  0  0  0  0  0  0  0  # atno 17321 bound_to 7965
  139.6535  144.0319  152.2643 LP  0  0  0  0  0  0  0  0  0  0  0  0  # atno 17342 bound_to 10162
  139.9863  144.6393  150.7855 LP  0  0  0  0  0  0  0  0  0  0  0  0  # atno 17343 bound_to 10162
  156.8509  130.5080  149.5312 LP  0  0  0  0  0  0  0  0  0  0  0  0  # atno 17370 bound_to 10713
  156.0919  130.5902  150.9747 LP  0  0  0  0  0  0  0  0  0  0  0  0  # atno 17371 bound_to 10713
  140.6785  133.9496  155.7896 LP  0  0  0  0  0  0  0  0  0  0  0  0  # atno 17394 bound_to 11000
  141.0527  134.0461  157.3762 LP  0  0  0  0  0  0  0  0  0  0  0  0  # atno 17395 bound_to 11000

$$$$
