AV-unprocessed.smi:2934|AV-procd|sdf|11255|dock5
  -GOLD-   2272016143D 1   1.00000     0.00000
 Structure written by MMmdl.
 44 45  0  0  0  0  0  0  0  0  2 V2000
  152.0719  138.1192  153.9740 C   0  0  0  0  0  0  0  0  0  0  0  0
  150.8992  138.1166  154.8535 N   0  0  0  0  0  0  0  0  0  0  0  0
  150.8961  137.2769  155.9230 C   0  0  0  0  0  0  0  0  0  0  0  0
  151.6770  136.3297  156.0300 O   0  0  0  0  0  0  0  0  0  0  0  0
  149.9580  137.5407  156.8536 N   0  0  0  0  0  0  0  0  0  0  0  0
  149.7696  136.8180  158.1102 C   0  0  0  0  0  0  0  0  0  0  0  0
  148.2831  136.5588  158.4297 C   0  0  0  0  0  0  0  0  0  0  0  0
  148.0157  136.2384  159.9043 C   0  0  0  0  0  0  0  0  0  0  0  0
  148.0768  137.1300  160.7513 O   0  0  0  0  0  0  0  0  0  0  0  0
  147.7053  134.9661  160.1943 N   0  0  0  0  0  0  0  0  0  0  0  0
  147.4239  134.4548  161.5331 C   0  0  0  0  0  0  0  0  0  0  0  0
  146.7240  133.0843  161.4600 C   0  0  0  0  0  0  0  0  0  0  0  0
  145.5352  133.1656  162.4188 C   0  0  0  0  0  0  0  0  0  0  0  0
  145.1351  134.6371  162.3956 C   0  0  0  0  0  0  0  0  0  0  0  0
  146.4657  135.3850  162.3042 C   0  0  0  0  0  0  0  0  0  0  0  0
  149.8213  138.9888  154.5108 C   0  0  0  0  0  0  0  0  0  0  0  0
  149.7636  140.3252  154.9764 C   0  0  0  0  0  0  0  0  0  0  0  0
  148.6824  141.1484  154.6006 C   0  0  0  0  0  0  0  0  0  0  0  0
  147.6769  140.6266  153.7624 C   0  0  0  0  0  0  0  0  0  0  0  0
  147.7814  139.2939  153.3177 C   0  0  0  0  0  0  0  0  0  0  0  0
  148.8341  138.5377  153.6998 N   0  3  0  0  0  0  0  0  0  0  0  0
  151.9921  138.8703  153.1870 H   0  0  0  0  0  0  0  0  0  0  0  0
  152.1946  137.1474  153.4939 H   0  0  0  0  0  0  0  0  0  0  0  0
  152.9806  138.3421  154.5352 H   0  0  0  0  0  0  0  0  0  0  0  0
  149.3398  138.3218  156.6890 H   0  0  0  0  0  0  0  0  0  0  0  0
  150.2859  135.8623  158.0182 H   0  0  0  0  0  0  0  0  0  0  0  0
  150.2459  137.3327  158.9466 H   0  0  0  0  0  0  0  0  0  0  0  0
  147.6895  137.4316  158.1544 H   0  0  0  0  0  0  0  0  0  0  0  0
  147.9178  135.7392  157.8095 H   0  0  0  0  0  0  0  0  0  0  0  0
  147.6689  134.3005  159.4358 H   0  0  0  0  0  0  0  0  0  0  0  0
  148.3568  134.3525  162.0911 H   0  0  0  0  0  0  0  0  0  0  0  0
  146.3514  132.8953  160.4517 H   0  0  0  0  0  0  0  0  0  0  0  0
  147.3968  132.2640  161.7125 H   0  0  0  0  0  0  0  0  0  0  0  0
  144.7183  132.5023  162.1335 H   0  0  0  0  0  0  0  0  0  0  0  0
  145.8540  132.8888  163.4246 H   0  0  0  0  0  0  0  0  0  0  0  0
  144.5363  134.8409  161.5069 H   0  0  0  0  0  0  0  0  0  0  0  0
  144.5484  134.9273  163.2677 H   0  0  0  0  0  0  0  0  0  0  0  0
  146.8559  135.5468  163.3098 H   0  0  0  0  0  0  0  0  0  0  0  0
  146.3493  136.3682  161.8460 H   0  0  0  0  0  0  0  0  0  0  0  0
  150.5426  140.7217  155.6113 H   0  0  0  0  0  0  0  0  0  0  0  0
  148.6272  142.1689  154.9497 H   0  0  0  0  0  0  0  0  0  0  0  0
  146.8401  141.2403  153.4623 H   0  0  0  0  0  0  0  0  0  0  0  0
  147.0608  138.8135  152.6718 H   0  0  0  0  0  0  0  0  0  0  0  0
  148.8845  137.5762  153.3618 H   0  0  0  0  0  0  0  0  0  0  0  0
  1  2  1  0  0  0  0
  1 22  1  0  0  0  0
  1 23  1  0  0  0  0
  1 24  1  0  0  0  0
  2  3  1  0  0  0  0
  2 16  1  0  0  0  0
  3  4  2  0  0  0  0
  3  5  1  0  0  0  0
  5  6  1  0  0  0  0
  5 25  1  0  0  0  0
  6  7  1  0  0  0  0
  6 26  1  0  0  0  0
  6 27  1  0  0  0  0
  7  8  1  0  0  0  0
  7 28  1  0  0  0  0
  7 29  1  0  0  0  0
  8  9  2  0  0  0  0
  8 10  1  0  0  0  0
 10 11  1  0  0  0  0
 10 30  1  0  0  0  0
 11 15  1  0  0  0  0
 11 12  1  0  0  0  0
 11 31  1  0  0  0  0
 12 13  1  0  0  0  0
 12 32  1  0  0  0  0
 12 33  1  0  0  0  0
 13 14  1  0  0  0  0
 13 34  1  0  0  0  0
 13 35  1  0  0  0  0
 14 15  1  0  0  0  0
 14 36  1  0  0  0  0
 14 37  1  0  0  0  0
 15 38  1  0  0  0  0
 15 39  1  0  0  0  0
 16 21  1  0  0  0  0
 16 17  2  0  0  0  0
 17 18  1  0  0  0  0
 17 40  1  0  0  0  0
 18 19  2  0  0  0  0
 18 41  1  0  0  0  0
 19 20  1  0  0  0  0
 19 42  1  0  0  0  0
 20 21  2  0  0  0  0
 20 43  1  0  0  0  0
 21 44  1  0  0  0  0
M  CHG  1  21   1
M  END
> <s_m_source_file>
AV-unprocessed.smi

> <i_m_source_file_index>
2934

> <i_lp_mmshare_version>
43012

> <i_f3d_flags>
0

> <s_epik_input>
bjFbY0hdW2NIXVtjSF1bY0hdYzFOKFtDSDNdKUMoPU8pW05IXVtDSDJdW0NIMl1DKD1PKVtOSF1bQ0hdMltDSDJdW0NIMl1bQ0gyXVtDSDJdMg==

> <s_epik_cmdline>
J2VwaWtfcHl0aG9uJywgJy1waCcsICc3LjAnLCAnLXRuJywgJzgnLCAnLW1hJywgJzIwMCcsICctbWV0YWxfYmluZGluZycsICctaW1hZScsICc8aW5maWxlLm1hZT4nLCAnLW9tYWUnLCAnPG91dGZpbGUubWFlPic=

> <r_epik_Ionization_Penalty>
0.416827

> <r_epik_Ionization_Penalty_Charging>
0.416808

> <r_epik_Ionization_Penalty_Neutral>
1.8964e-05

> <r_epik_State_Penalty>
0.417222

> <r_epik_Charging_Adjusted_Penalty>
0.83403

> <i_epik_Tot_Q>
1

> <i_epik_Tot_abs_Q>
1

> <r_epik_Metal_State_Penalty>
0.655167

> <b_epik_Metal_Only>
0

> <s_lp_Force_Field>
OPLS_2005

> <r_lp_Energy>
36.0061

> <b_lp_Chiralities_Consistent>
1

> <s_lp_Variant>
AV-unprocessed.smi:2934-2

> <Gold.Version>
5.8.1

> <Gold.Id.Protein>
6NUR|6NUR_protein|mol2

> <Gold.PLP.Fitness>
49.4900

> <Gold.PLP.PLP>
-38.0723

> <Gold.PLP.part.hbond>
-4.9430

> <Gold.PLP.part.metal>
0.0000

> <Gold.PLP.part.buried>
-3.5340

> <Gold.PLP.part.nonpolar>
-30.0521

> <Gold.PLP.part.repulsive>
0.1318

> <Gold.PLP.ligand.clash>
0.0000

> <Gold.PLP.ligand.torsion>
2.1591

> <Gold.PLP.Chemscore.Hbond>
4.5618

> <Gold.PLP.Chemscore.CHOScore>
0.0000

> <Gold.PLP.Chemscore.Metal>
0.0000

> <Gold.Chemscore.Hbonds>
donor molecule, donor type, donor heavy atom, donor atom, acceptor molecule, acceptor atom, score
      L1  H    21    44       P1  7948  2.00
      P1  H  6931  6943       L1     9  0.88
      P1  H  6934  6947       L1     9  0.62
      P1  H 10752 10765       L1     4  1.00

> <Gold.PLP.Chemscore.Internal.Correction>
2.0504

> <Gold.Rescore>
     Score         DG    S(hbond)    S(metal)    S(lipo)     H(rot)  DE(clash)    DE(int)     intcor
     18.86     -21.74       3.39        0.00      80.88       1.76       0.35       2.52       ----

> <Gold.Chemscore.Fitness>
18.8619

> <Gold.Chemscore.DG>
-21.7366

> <Gold.Chemscore.ZeroCoef>
-5.4800

> <Gold.Chemscore.Hbond>
3.3852

> <Gold.Chemscore.Metal>
0.0000

> <Gold.Chemscore.Lipo>
80.8840

> <Gold.Chemscore.Internal_Hbond>
0.0000

> <Gold.Chemscore.DEClash>
0.3516

> <Gold.Chemscore.DEInternal>
2.5231

> <Gold.Chemscore.Rot>
1.7631

> <Gold.Chemscore.Internal.Correction>
   9.000000E+99

> <Gold.Chemscore.Hbonds>
donor molecule, donor type, donor heavy atom, donor atom, acceptor molecule, acceptor atom, score
      L1  H    21    44       P1  7948  0.92
      P1  H  6931  6943       L1     9  0.86
      P1  H  6934  6947       L1     9  0.61
      P1  H 10752 10765       L1     4  0.99

> <Gold.Chemscore.Hbond.Weighted>
-11.3067

> <Gold.Chemscore.Metal.Weighted>
-0.0000

> <Gold.Chemscore.Lipo.Weighted>
-9.4634

> <Gold.Chemscore.Internal_Hbond.Weighted>
0.0000

> <Gold.Chemscore.DEClash.Weighted>
0.3516

> <Gold.Chemscore.DEInternal.Weighted>
2.5231

> <Gold.Chemscore.Rot.Weighted>
4.5135

> <Gold.Chemscore.Internal.Correction.Weighted>
   9.000000E+99

> <Gold.Protein.RotatedTorsions>
[ 6907 6896 6895 6894 ] final -119.77 input  -60.11 | X-H torsion
[ 7974 7965 7964 7962 ] final   55.47 input  175.53 | X-H torsion
[ 8008 7997 7996 7995 ] final   35.28 input   59.86 | X-H torsion
[ 10167 10162 10161 10158 ] final  112.77 input  -65.29 | X-H torsion
[ 10718 10713 10712 10709 ] final  -57.19 input   66.30 | X-H torsion
[ 10763 10752 10751 10750 ] final -155.56 input  -60.55 | X-H torsion
[ 11005 11000 10999 10996 ] final   42.82 input  -57.11 | X-H torsion

> <Gold.Protein.ActiveResidues>
 VAL166  LYS551  ARG553  GLY616  TRP617  ASP618  TYR619  PRO620  LYS621  CYS622 
 ASP623  PHE694  ASN695  SER759  ASP760  ASP761  ALA762  ILE779  LEU786  VAL792 
 PHE793  MET794  SER795  GLU796  ALA797  LYS798  CYS799  TRP800  GLU811  SER814 

> <Gold.Protein.RotatedAtoms>
  150.8334  133.8053  159.3089 H   0  0  0  0  0  0  0  0  0  0  0  0  # atno 6907 bound_to 6896
  151.5776  135.1058  160.0019 H   0  0  0  0  0  0  0  0  0  0  0  0  # atno 6908 bound_to 6896
  152.4410  133.7407  159.6695 H   0  0  0  0  0  0  0  0  0  0  0  0  # atno 6909 bound_to 6896
  145.9500  139.3964  143.0311 H   0  0  0  0  0  0  0  0  0  0  0  0  # atno 7974 bound_to 7965
  155.1686  140.3289  155.4397 H   0  0  0  0  0  0  0  0  0  0  0  0  # atno 8008 bound_to 7997
  156.2518  140.1947  156.6740 H   0  0  0  0  0  0  0  0  0  0  0  0  # atno 8009 bound_to 7997
  154.6354  140.0577  156.9768 H   0  0  0  0  0  0  0  0  0  0  0  0  # atno 8010 bound_to 7997
  139.6511  144.7128  151.2047 H   0  0  0  0  0  0  0  0  0  0  0  0  # atno 10167 bound_to 10162
  156.1230  130.4165  150.0407 H   0  0  0  0  0  0  0  0  0  0  0  0  # atno 10718 bound_to 10713
  154.7778  135.3165  154.8055 H   0  0  0  0  0  0  0  0  0  0  0  0  # atno 10763 bound_to 10752
  153.8774  135.6838  153.4774 H   0  0  0  0  0  0  0  0  0  0  0  0  # atno 10764 bound_to 10752
  153.1406  135.4741  154.9426 H   0  0  0  0  0  0  0  0  0  0  0  0  # atno 10765 bound_to 10752
  140.1703  134.4231  155.8261 H   0  0  0  0  0  0  0  0  0  0  0  0  # atno 11005 bound_to 11000
  145.8184  140.9691  143.0912 LP  0  0  0  0  0  0  0  0  0  0  0  0  # atno 17320 bound_to 7965
  144.6794  140.0009  143.7484 LP  0  0  0  0  0  0  0  0  0  0  0  0  # atno 17321 bound_to 7965
  140.7538  143.6149  150.8569 LP  0  0  0  0  0  0  0  0  0  0  0  0  # atno 17342 bound_to 10162
  139.9797  143.5964  152.2947 LP  0  0  0  0  0  0  0  0  0  0  0  0  # atno 17343 bound_to 10162
  156.8341  130.9402  151.3635 LP  0  0  0  0  0  0  0  0  0  0  0  0  # atno 17370 bound_to 10713
  157.6412  130.8807  149.9452 LP  0  0  0  0  0  0  0  0  0  0  0  0  # atno 17371 bound_to 10713
  141.2217  133.6953  156.7751 LP  0  0  0  0  0  0  0  0  0  0  0  0  # atno 17394 bound_to 11000
  140.2385  134.8631  157.3550 LP  0  0  0  0  0  0  0  0  0  0  0  0  # atno 17395 bound_to 11000

$$$$
