AV-unprocessed.smi:24|AV-procd|sdf|176|dock1
  -GOLD-   2262015433D 1   1.00000     0.00000
 Structure written by MMmdl.
 61 65  0  0  0  0  0  0  0  0  1 V2000
  153.0088  138.6083  155.0017 C   0  0  0  0  0  0  0  0  0  0  0  0
  151.7134  139.0401  154.6119 O   0  0  0  0  0  0  0  0  0  0  0  0
  150.6512  138.1923  154.8413 C   0  0  0  0  0  0  0  0  0  0  0  0
  149.3748  138.6416  154.4463 C   0  0  0  0  0  0  0  0  0  0  0  0
  148.2343  137.8397  154.6422 C   0  0  0  0  0  0  0  0  0  0  0  0
  148.3516  136.5708  155.2443 C   0  0  0  0  0  0  0  0  0  0  0  0
  147.1048  135.7097  155.4397 C   0  0  1  0  0  0  0  0  0  0  0  0
  146.5442  135.2016  154.1085 C   0  0  0  0  0  0  0  0  0  0  0  0
  146.5894  133.7236  154.3071 C   0  0  0  0  0  0  0  0  0  0  0  0
  146.1639  132.7835  153.2464 C   0  0  0  0  0  0  0  0  0  0  0  0
  145.8012  133.2870  151.9763 C   0  0  0  0  0  0  0  0  0  0  0  0
  145.3955  132.3927  150.9662 C   0  0  0  0  0  0  0  0  0  0  0  0
  145.3529  131.0079  151.2225 C   0  0  0  0  0  0  0  0  0  0  0  0
  145.7162  130.5107  152.4900 C   0  0  0  0  0  0  0  0  0  0  0  0
  146.1236  131.3951  153.5081 C   0  0  0  0  0  0  0  0  0  0  0  0
  147.0261  133.3690  155.4588 N   0  0  0  0  0  0  0  0  0  0  0  0
  147.3284  134.4689  156.1934 N   0  0  0  0  0  0  0  0  0  0  0  0
  147.6929  134.4152  157.4937 C   0  0  0  0  0  0  0  0  0  0  0  0
  147.8794  133.3435  158.0733 O   0  0  0  0  0  0  0  0  0  0  0  0
  147.8814  135.7449  158.2547 C   0  0  0  0  0  0  0  0  0  0  0  0
  147.2215  135.7650  159.5786 N   0  0  0  0  0  0  0  0  0  0  0  0
  147.9579  136.2262  160.6978 C   0  0  0  0  0  0  0  0  0  0  0  0
  149.1276  136.5963  160.5844 O   0  0  0  0  0  0  0  0  0  0  0  0
  147.2366  136.2355  161.9655 C   0  0  0  0  0  0  0  0  0  0  0  0
  147.8615  136.6425  163.0834 F   0  0  0  0  0  0  0  0  0  0  0  0
  145.9486  135.8407  162.0359 C   0  0  0  0  0  0  0  0  0  0  0  0
  145.2354  135.4113  160.9304 N   0  0  0  0  0  0  0  0  0  0  0  0
  143.7872  134.9775  161.0236 C   0  0  2  0  0  0  0  0  0  0  0  0
  142.8976  136.1490  161.4833 C   0  0  0  0  0  0  0  0  0  0  0  0
  142.1321  135.5525  162.6477 C   0  0  0  0  0  0  0  0  0  0  0  0
  143.1153  134.5178  163.1734 C   0  0  0  0  0  0  0  0  0  0  0  0
  143.6536  133.9643  161.9799 O   0  0  0  0  0  0  0  0  0  0  0  0
  145.8690  135.3590  159.6699 C   0  0  0  0  0  0  0  0  0  0  0  0
  145.2515  134.9765  158.6733 O   0  0  0  0  0  0  0  0  0  0  0  0
  149.6275  136.1112  155.6376 C   0  0  0  0  0  0  0  0  0  0  0  0
  150.7679  136.9134  155.4410 C   0  0  0  0  0  0  0  0  0  0  0  0
  153.7361  139.3807  154.7519 H   0  0  0  0  0  0  0  0  0  0  0  0
  153.3003  137.6986  154.4750 H   0  0  0  0  0  0  0  0  0  0  0  0
  153.0659  138.4373  156.0777 H   0  0  0  0  0  0  0  0  0  0  0  0
  149.2687  139.6131  153.9862 H   0  0  0  0  0  0  0  0  0  0  0  0
  147.2672  138.2047  154.3291 H   0  0  0  0  0  0  0  0  0  0  0  0
  146.3417  136.2943  155.9574 H   0  0  0  0  0  0  0  0  0  0  0  0
  145.5235  135.5491  153.9454 H   0  0  0  0  0  0  0  0  0  0  0  0
  147.1573  135.5013  153.2573 H   0  0  0  0  0  0  0  0  0  0  0  0
  145.8266  134.3455  151.7608 H   0  0  0  0  0  0  0  0  0  0  0  0
  145.1163  132.7696  149.9935 H   0  0  0  0  0  0  0  0  0  0  0  0
  145.0409  130.3257  150.4455 H   0  0  0  0  0  0  0  0  0  0  0  0
  145.6823  129.4482  152.6816 H   0  0  0  0  0  0  0  0  0  0  0  0
  146.3975  130.9888  154.4704 H   0  0  0  0  0  0  0  0  0  0  0  0
  148.9495  135.9457  158.3524 H   0  0  0  0  0  0  0  0  0  0  0  0
  147.5132  136.5607  157.6305 H   0  0  0  0  0  0  0  0  0  0  0  0
  145.4746  135.8692  163.0050 H   0  0  0  0  0  0  0  0  0  0  0  0
  143.5342  134.5831  160.0378 H   0  0  0  0  0  0  0  0  0  0  0  0
  143.5145  136.9835  161.8209 H   0  0  0  0  0  0  0  0  0  0  0  0
  142.2516  136.4906  160.6743 H   0  0  0  0  0  0  0  0  0  0  0  0
  141.8477  136.2917  163.3968 H   0  0  0  0  0  0  0  0  0  0  0  0
  141.2271  135.0602  162.2892 H   0  0  0  0  0  0  0  0  0  0  0  0
  143.9038  134.9933  163.7584 H   0  0  0  0  0  0  0  0  0  0  0  0
  142.6384  133.7563  163.7906 H   0  0  0  0  0  0  0  0  0  0  0  0
  149.7403  135.1374  156.0912 H   0  0  0  0  0  0  0  0  0  0  0  0
  151.7225  136.5227  155.7587 H   0  0  0  0  0  0  0  0  0  0  0  0
  1  2  1  0  0  0  0
  1 37  1  0  0  0  0
  1 38  1  0  0  0  0
  1 39  1  0  0  0  0
  2  3  1  0  0  0  0
  3 36  1  0  0  0  0
  3  4  2  0  0  0  0
  4  5  1  0  0  0  0
  4 40  1  0  0  0  0
  5  6  2  0  0  0  0
  5 41  1  0  0  0  0
  6  7  1  0  0  0  0
  6 35  1  0  0  0  0
  7 17  1  0  0  0  0
  7  8  1  0  0  0  0
  7 42  1  0  0  0  0
  8  9  1  0  0  0  0
  8 43  1  0  0  0  0
  8 44  1  0  0  0  0
  9 10  1  0  0  0  0
  9 16  2  0  0  0  0
 10 15  1  0  0  0  0
 10 11  2  0  0  0  0
 11 12  1  0  0  0  0
 11 45  1  0  0  0  0
 12 13  2  0  0  0  0
 12 46  1  0  0  0  0
 13 14  1  0  0  0  0
 13 47  1  0  0  0  0
 14 15  2  0  0  0  0
 14 48  1  0  0  0  0
 15 49  1  0  0  0  0
 16 17  1  0  0  0  0
 17 18  1  0  0  0  0
 18 19  2  0  0  0  0
 18 20  1  0  0  0  0
 20 21  1  0  0  0  0
 20 50  1  0  0  0  0
 20 51  1  0  0  0  0
 21 33  1  0  0  0  0
 21 22  1  0  0  0  0
 22 23  2  0  0  0  0
 22 24  1  0  0  0  0
 24 25  1  0  0  0  0
 24 26  2  0  0  0  0
 26 27  1  0  0  0  0
 26 52  1  0  0  0  0
 27 28  1  0  0  0  0
 27 33  1  0  0  0  0
 28 32  1  0  0  0  0
 28 29  1  0  0  0  0
 28 53  1  0  0  0  0
 29 30  1  0  0  0  0
 29 54  1  0  0  0  0
 29 55  1  0  0  0  0
 30 31  1  0  0  0  0
 30 56  1  0  0  0  0
 30 57  1  0  0  0  0
 31 32  1  0  0  0  0
 31 58  1  0  0  0  0
 31 59  1  0  0  0  0
 33 34  2  0  0  0  0
 35 36  2  0  0  0  0
 35 60  1  0  0  0  0
 36 61  1  0  0  0  0
M  END
> <s_m_source_file>
AV-unprocessed.smi

> <i_m_source_file_index>
24

> <i_lp_mmshare_version>
43012

> <i_f3d_flags>
0

> <s_epik_input>
W0NIM11PYzFbY0hdW2NIXWMoW2NIXVtjSF0xKVtDQEBIXTJbQ0gyXUMoYzNbY0hdW2NIXVtjSF1bY0hdW2NIXTMpPU5OMkMoPU8pW0NIMl1uNGMoPU8pYyhGKVtjSF1uKGM0PU8pW0NAQEhdNVtDSDJdW0NIMl1bQ0gyXU81

> <s_epik_cmdline>
J2VwaWtfcHl0aG9uJywgJy1waCcsICc3LjAnLCAnLXRuJywgJzgnLCAnLW1hJywgJzIwMCcsICctbWV0YWxfYmluZGluZycsICctaW1hZScsICc8aW5maWxlLm1hZT4nLCAnLW9tYWUnLCAnPG91dGZpbGUubWFlPic=

> <r_lp_tautomer_probability>
1

> <r_epik_Ionization_Penalty>
1.46326e-08

> <r_epik_Ionization_Penalty_Charging>
4.53232e-09

> <r_epik_Ionization_Penalty_Neutral>
1.01002e-08

> <r_epik_State_Penalty>
-0

> <r_epik_Charging_Adjusted_Penalty>
4.53232e-09

> <i_epik_Tot_Q>
0

> <i_epik_Tot_abs_Q>
0

> <r_epik_Metal_State_Penalty>
-0

> <b_epik_Metal_Only>
0

> <s_epik_Chemistry_Notes>
This compound has an imine and may undergo hydrolysis. This compound contains an acetal/aminal-like group ( X-CH(R)-Y where X, Y are N, S, or O) that may be acid/base labile, releasing an aldehyde.

> <s_lp_Force_Field>
OPLS_2005

> <r_lp_Energy>
50.3667

> <b_lp_Chiralities_Consistent>
1

> <s_lp_Variant>
AV-unprocessed.smi:24-2

> <Gold.Version>
5.8.1

> <Gold.Id.Protein>
6NUR|6NUR_protein|mol2

> <Gold.PLP.Fitness>
49.3673

> <Gold.PLP.PLP>
-44.7834

> <Gold.PLP.part.hbond>
-2.0000

> <Gold.PLP.part.metal>
0.0000

> <Gold.PLP.part.buried>
-6.7351

> <Gold.PLP.part.nonpolar>
-37.2638

> <Gold.PLP.part.repulsive>
0.1806

> <Gold.PLP.ligand.clash>
0.0000

> <Gold.PLP.ligand.torsion>
0.4335

> <Gold.PLP.Chemscore.Hbond>
1.7680

> <Gold.PLP.Chemscore.CHOScore>
0.0000

> <Gold.PLP.Chemscore.Metal>
0.0000

> <Gold.Chemscore.Hbonds>
donor molecule, donor type, donor heavy atom, donor atom, acceptor molecule, acceptor atom, score
      P1  H  6931  6943       L1    23  0.64
      P1  H  7989  7998       L1     2  0.75

> <Gold.PLP.Chemscore.Internal.Correction>
0.1469

> <Gold.Rescore>
     Score         DG    S(hbond)    S(metal)    S(lipo)     H(rot)  DE(clash)    DE(int)     intcor
     16.01     -18.08       1.36        0.00     111.94       1.98       0.12       1.95       ----

> <Gold.Chemscore.Fitness>
16.0090

> <Gold.Chemscore.DG>
-18.0765

> <Gold.Chemscore.ZeroCoef>
-5.4800

> <Gold.Chemscore.Hbond>
1.3639

> <Gold.Chemscore.Metal>
0.0000

> <Gold.Chemscore.Lipo>
111.9409

> <Gold.Chemscore.Internal_Hbond>
0.0000

> <Gold.Chemscore.DEClash>
0.1213

> <Gold.Chemscore.DEInternal>
1.9461

> <Gold.Chemscore.Rot>
1.9750

> <Gold.Chemscore.Internal.Correction>
   9.000000E+99

> <Gold.Chemscore.Hbonds>
donor molecule, donor type, donor heavy atom, donor atom, acceptor molecule, acceptor atom, score
      P1  H  6931  6943       L1    23  0.14
      P1  H  7989  7998       L1     2  0.65

> <Gold.Chemscore.Hbond.Weighted>
-4.5555

> <Gold.Chemscore.Metal.Weighted>
-0.0000

> <Gold.Chemscore.Lipo.Weighted>
-13.0971

> <Gold.Chemscore.Internal_Hbond.Weighted>
0.0000

> <Gold.Chemscore.DEClash.Weighted>
0.1213

> <Gold.Chemscore.DEInternal.Weighted>
1.9461

> <Gold.Chemscore.Rot.Weighted>
5.0561

> <Gold.Chemscore.Internal.Correction.Weighted>
   9.000000E+99

> <Gold.Protein.RotatedTorsions>
[ 6907 6896 6895 6894 ] final  -14.24 input  -60.11 | X-H torsion
[ 7974 7965 7964 7962 ] final -146.74 input  175.53 | X-H torsion
[ 8008 7997 7996 7995 ] final   98.62 input   59.86 | X-H torsion
[ 10167 10162 10161 10158 ] final -131.63 input  -65.29 | X-H torsion
[ 10718 10713 10712 10709 ] final -142.78 input   66.30 | X-H torsion
[ 10763 10752 10751 10750 ] final   72.32 input  -60.55 | X-H torsion
[ 11005 11000 10999 10996 ] final   71.54 input  -57.11 | X-H torsion

> <Gold.Protein.ActiveResidues>
 VAL166  LYS551  ARG553  GLY616  TRP617  ASP618  TYR619  PRO620  LYS621  CYS622 
 ASP623  PHE694  ASN695  SER759  ASP760  ASP761  ALA762  ILE779  LEU786  VAL792 
 PHE793  MET794  SER795  GLU796  ALA797  LYS798  CYS799  TRP800  GLU811  SER814 

> <Gold.Protein.RotatedAtoms>
  151.3425  135.0867  159.9375 H   0  0  0  0  0  0  0  0  0  0  0  0  # atno 6907 bound_to 6896
  152.5208  133.9433  159.7647 H   0  0  0  0  0  0  0  0  0  0  0  0  # atno 6908 bound_to 6896
  150.9792  133.6209  159.2755 H   0  0  0  0  0  0  0  0  0  0  0  0  # atno 6909 bound_to 6896
  144.8139  140.5417  143.5623 H   0  0  0  0  0  0  0  0  0  0  0  0  # atno 7974 bound_to 7965
  156.1023  140.3241  155.7958 H   0  0  0  0  0  0  0  0  0  0  0  0  # atno 8008 bound_to 7997
  155.4816  140.0554  157.2983 H   0  0  0  0  0  0  0  0  0  0  0  0  # atno 8009 bound_to 7997
  154.4705  140.2009  156.0023 H   0  0  0  0  0  0  0  0  0  0  0  0  # atno 8010 bound_to 7997
  139.9169  143.6428  152.2563 H   0  0  0  0  0  0  0  0  0  0  0  0  # atno 10167 bound_to 10162
  156.3500  130.7683  151.1834 H   0  0  0  0  0  0  0  0  0  0  0  0  # atno 10718 bound_to 10713
  153.0451  135.5104  154.7725 H   0  0  0  0  0  0  0  0  0  0  0  0  # atno 10763 bound_to 10752
  154.6632  135.2941  154.9842 H   0  0  0  0  0  0  0  0  0  0  0  0  # atno 10764 bound_to 10752
  154.0686  135.6681  153.4874 H   0  0  0  0  0  0  0  0  0  0  0  0  # atno 10765 bound_to 10752
  139.9538  134.7180  156.0800 H   0  0  0  0  0  0  0  0  0  0  0  0  # atno 11005 bound_to 11000
  145.5259  139.1476  143.3527 LP  0  0  0  0  0  0  0  0  0  0  0  0  # atno 17320 bound_to 7965
  146.2441  140.5399  142.8921 LP  0  0  0  0  0  0  0  0  0  0  0  0  # atno 17321 bound_to 7965
  139.6895  144.7648  151.1465 LP  0  0  0  0  0  0  0  0  0  0  0  0  # atno 17342 bound_to 10162
  140.7672  143.5610  150.9099 LP  0  0  0  0  0  0  0  0  0  0  0  0  # atno 17343 bound_to 10162
  157.7460  131.0430  150.4723 LP  0  0  0  0  0  0  0  0  0  0  0  0  # atno 17370 bound_to 10713
  156.4916  130.4096  149.6403 LP  0  0  0  0  0  0  0  0  0  0  0  0  # atno 17371 bound_to 10713
  141.1206  133.6614  156.3205 LP  0  0  0  0  0  0  0  0  0  0  0  0  # atno 17394 bound_to 11000
  140.5657  134.5890  157.5445 LP  0  0  0  0  0  0  0  0  0  0  0  0  # atno 17395 bound_to 11000

$$$$
