AV-unprocessed.smi:3038|AV-procd|sdf|11589|dock3
  -GOLD-   2272016563D 1   1.00000     0.00000
 Structure written by MMmdl.
 37 39  0  0  0  0  0  0  0  0  2 V2000
  145.9316  136.6831  155.4376 O   0  0  0  0  0  0  0  0  0  0  0  0
  146.8903  136.5890  154.6719 C   0  0  0  0  0  0  0  0  0  0  0  0
  148.3145  136.7471  155.2079 C   0  0  0  0  0  0  0  0  0  0  0  0
  148.8628  138.0495  154.8761 N   0  0  0  0  0  0  0  0  0  0  0  0
  149.8417  138.4031  154.0406 C   0  0  0  0  0  0  0  0  0  0  0  0
  150.0408  139.7124  154.0484 N   0  0  0  0  0  0  0  0  0  0  0  0
  149.1031  140.1685  154.9596 N   0  0  0  0  0  0  0  0  0  0  0  0
  148.4010  139.1865  155.4541 N   0  0  0  0  0  0  0  0  0  0  0  0
  146.7648  136.3399  153.3583 N   0  0  0  0  0  0  0  0  0  0  0  0
  145.5015  136.1690  152.6489 C   0  0  2  0  0  0  0  0  0  0  0  0
  144.6878  135.0117  153.2568 C   0  0  0  0  0  0  0  0  0  0  0  0
  143.4047  134.7461  152.4473 C   0  0  0  0  0  0  0  0  0  0  0  0
  143.6894  134.5015  151.0098 N   0  3  2  0  0  0  0  0  0  0  0  0
  144.2696  133.1637  150.7452 C   0  0  0  0  0  0  0  0  0  0  0  0
  144.1342  132.7186  149.3075 C   0  0  0  0  0  0  0  0  0  0  0  0
  143.2433  132.1192  150.3724 C   0  0  0  0  0  0  0  0  0  0  0  0
  144.4656  135.6105  150.3976 C   0  0  0  0  0  0  0  0  0  0  0  0
  145.7736  135.8934  151.1608 C   0  0  0  0  0  0  0  0  0  0  0  0
  148.3229  136.6312  156.2926 H   0  0  0  0  0  0  0  0  0  0  0  0
  148.9539  135.9659  154.7940 H   0  0  0  0  0  0  0  0  0  0  0  0
  150.4072  137.7078  153.4379 H   0  0  0  0  0  0  0  0  0  0  0  0
  147.6101  136.2779  152.8085 H   0  0  0  0  0  0  0  0  0  0  0  0
  144.9191  137.0898  152.7222 H   0  0  0  0  0  0  0  0  0  0  0  0
  145.2959  134.1067  153.2935 H   0  0  0  0  0  0  0  0  0  0  0  0
  144.4237  135.2420  154.2896 H   0  0  0  0  0  0  0  0  0  0  0  0
  142.8574  133.9018  152.8682 H   0  0  0  0  0  0  0  0  0  0  0  0
  142.7422  135.6091  152.5244 H   0  0  0  0  0  0  0  0  0  0  0  0
  145.1475  132.8851  151.3246 H   0  0  0  0  0  0  0  0  0  0  0  0
  143.6741  133.4019  148.5958 H   0  0  0  0  0  0  0  0  0  0  0  0
  144.9203  132.0849  148.9018 H   0  0  0  0  0  0  0  0  0  0  0  0
  143.4431  131.0911  150.6676 H   0  0  0  0  0  0  0  0  0  0  0  0
  142.1928  132.4053  150.3664 H   0  0  0  0  0  0  0  0  0  0  0  0
  144.6764  135.3849  149.3517 H   0  0  0  0  0  0  0  0  0  0  0  0
  143.8437  136.5067  150.3982 H   0  0  0  0  0  0  0  0  0  0  0  0
  146.2809  136.7482  150.7115 H   0  0  0  0  0  0  0  0  0  0  0  0
  146.4539  135.0470  151.0553 H   0  0  0  0  0  0  0  0  0  0  0  0
  142.7928  134.4975  150.5445 H   0  0  0  0  0  0  0  0  0  0  0  0
  1  2  2  0  0  0  0
  2  3  1  0  0  0  0
  2  9  1  0  0  0  0
  3  4  1  0  0  0  0
  3 19  1  0  0  0  0
  3 20  1  0  0  0  0
  4  8  1  0  0  0  0
  4  5  1  0  0  0  0
  5  6  2  0  0  0  0
  5 21  1  0  0  0  0
  6  7  1  0  0  0  0
  7  8  2  0  0  0  0
  9 10  1  0  0  0  0
  9 22  1  0  0  0  0
 10 18  1  0  0  0  0
 10 11  1  0  0  0  0
 10 23  1  0  0  0  0
 11 12  1  0  0  0  0
 11 24  1  0  0  0  0
 11 25  1  0  0  0  0
 12 13  1  0  0  0  0
 12 26  1  0  0  0  0
 12 27  1  0  0  0  0
 13 14  1  0  0  0  0
 13 17  1  0  0  0  0
 13 37  1  0  0  0  0
 14 16  1  0  0  0  0
 14 15  1  0  0  0  0
 14 28  1  0  0  0  0
 15 16  1  0  0  0  0
 15 29  1  0  0  0  0
 15 30  1  0  0  0  0
 16 31  1  0  0  0  0
 16 32  1  0  0  0  0
 17 18  1  0  0  0  0
 17 33  1  0  0  0  0
 17 34  1  0  0  0  0
 18 35  1  0  0  0  0
 18 36  1  0  0  0  0
M  CHG  1  13   1
M  END
> <s_m_source_file>
AV-unprocessed.smi

> <i_m_source_file_index>
3038

> <i_lp_mmshare_version>
43012

> <i_f3d_flags>
0

> <s_epik_input>
bjFubltjSF1uMVtDSDJdQyg9TylbTkhdW0NIXTJbQ0gyXVtDSDJdTihbQ0gyXVtDSDJdMilbQ0hdM1tDSDJdW0NIMl0z

> <s_epik_cmdline>
J2VwaWtfcHl0aG9uJywgJy1waCcsICc3LjAnLCAnLXRuJywgJzgnLCAnLW1hJywgJzIwMCcsICctbWV0YWxfYmluZGluZycsICctaW1hZScsICc8aW5maWxlLm1hZT4nLCAnLW9tYWUnLCAnPG91dGZpbGUubWFlPic=

> <r_lp_tautomer_probability>
1

> <r_epik_Ionization_Penalty>
0.284275

> <r_epik_Ionization_Penalty_Charging>
0.284273

> <r_epik_Ionization_Penalty_Neutral>
2.31262e-06

> <r_epik_State_Penalty>
0.277002

> <r_epik_Charging_Adjusted_Penalty>
0.561274

> <i_epik_Tot_Q>
1

> <i_epik_Tot_abs_Q>
1

> <r_epik_Metal_State_Penalty>
0.277002

> <b_epik_Metal_Only>
0

> <s_lp_Force_Field>
OPLS_2005

> <r_lp_Energy>
29.3434

> <b_lp_Chiralities_Consistent>
1

> <s_lp_Variant>
AV-unprocessed.smi:3038-2

> <Gold.Version>
5.8.1

> <Gold.Id.Protein>
6NUR|6NUR_protein|mol2

> <Gold.PLP.Fitness>
36.9539

> <Gold.PLP.PLP>
-23.1734

> <Gold.PLP.part.hbond>
-2.9517

> <Gold.PLP.part.metal>
0.0000

> <Gold.PLP.part.buried>
-1.5414

> <Gold.PLP.part.nonpolar>
-21.0110

> <Gold.PLP.part.repulsive>
1.4634

> <Gold.PLP.ligand.clash>
0.0000

> <Gold.PLP.ligand.torsion>
0.9631

> <Gold.PLP.Chemscore.Hbond>
3.9738

> <Gold.PLP.Chemscore.CHOScore>
0.8368

> <Gold.PLP.Chemscore.Metal>
0.0000

> <Gold.Chemscore.Hbonds>
donor molecule, donor type, donor heavy atom, donor atom, acceptor molecule, acceptor atom, score
      L1  H     9    22       P1  7948  1.00
      L1  H    13    37       P1 10186  1.98
      P1  H  7989  7998       L1     6  0.99
      L1  C     5    21       P1  7948  0.55
      L1  C     5    21       P1  7949  0.27

> <Gold.PLP.Chemscore.Internal.Correction>
1.2750

> <Gold.Rescore>
     Score         DG    S(hbond)    S(metal)    S(lipo)     H(rot)  DE(clash)    DE(int)     intcor
     13.41     -14.84       2.54        0.00      56.75       2.25       0.41       1.03       ----

> <Gold.Chemscore.Fitness>
13.4070

> <Gold.Chemscore.DG>
-14.8440

> <Gold.Chemscore.ZeroCoef>
-5.4800

> <Gold.Chemscore.Hbond>
2.5423

> <Gold.Chemscore.Metal>
0.0000

> <Gold.Chemscore.Lipo>
56.7507

> <Gold.Chemscore.Internal_Hbond>
0.0000

> <Gold.Chemscore.DEClash>
0.4118

> <Gold.Chemscore.DEInternal>
1.0252

> <Gold.Chemscore.Rot>
2.2528

> <Gold.Chemscore.Internal.Correction>
   9.000000E+99

> <Gold.Chemscore.Hbonds>
donor molecule, donor type, donor heavy atom, donor atom, acceptor molecule, acceptor atom, score
      L1  H     9    22       P1  7948  1.00
      L1  H    13    37       P1 10186  0.41
      P1  H  7989  7998       L1     6  0.86

> <Gold.Chemscore.Hbond.Weighted>
-8.4914

> <Gold.Chemscore.Metal.Weighted>
-0.0000

> <Gold.Chemscore.Lipo.Weighted>
-6.6398

> <Gold.Chemscore.Internal_Hbond.Weighted>
0.0000

> <Gold.Chemscore.DEClash.Weighted>
0.4118

> <Gold.Chemscore.DEInternal.Weighted>
1.0252

> <Gold.Chemscore.Rot.Weighted>
5.7672

> <Gold.Chemscore.Internal.Correction.Weighted>
   9.000000E+99

> <Gold.Protein.RotatedTorsions>
[ 6907 6896 6895 6894 ] final -109.19 input  -60.11 | X-H torsion
[ 7974 7965 7964 7962 ] final -170.02 input  175.53 | X-H torsion
[ 8008 7997 7996 7995 ] final  131.70 input   59.86 | X-H torsion
[ 10167 10162 10161 10158 ] final  -75.18 input  -65.29 | X-H torsion
[ 10718 10713 10712 10709 ] final  -66.87 input   66.30 | X-H torsion
[ 10763 10752 10751 10750 ] final  -55.43 input  -60.55 | X-H torsion
[ 11005 11000 10999 10996 ] final -141.50 input  -57.11 | X-H torsion

> <Gold.Protein.ActiveResidues>
 VAL166  LYS551  ARG553  GLY616  TRP617  ASP618  TYR619  PRO620  LYS621  CYS622 
 ASP623  PHE694  ASN695  SER759  ASP760  ASP761  ALA762  ILE779  LEU786  VAL792 
 PHE793  MET794  SER795  GLU796  ALA797  LYS798  CYS799  TRP800  GLU811  SER814 

> <Gold.Protein.RotatedAtoms>
  150.7547  133.9566  159.3502 H   0  0  0  0  0  0  0  0  0  0  0  0  # atno 6907 bound_to 6896
  151.7488  135.0835  160.0337 H   0  0  0  0  0  0  0  0  0  0  0  0  # atno 6908 bound_to 6896
  152.3480  133.6108  159.5960 H   0  0  0  0  0  0  0  0  0  0  0  0  # atno 6909 bound_to 6896
  144.7176  140.2135  143.6324 H   0  0  0  0  0  0  0  0  0  0  0  0  # atno 7974 bound_to 7965
  156.2973  140.2565  156.2968 H   0  0  0  0  0  0  0  0  0  0  0  0  # atno 8008 bound_to 7997
  154.9456  140.0395  157.2137 H   0  0  0  0  0  0  0  0  0  0  0  0  # atno 8009 bound_to 7997
  154.8085  140.2840  155.5875 H   0  0  0  0  0  0  0  0  0  0  0  0  # atno 8010 bound_to 7997
  140.4965  143.2369  151.7823 H   0  0  0  0  0  0  0  0  0  0  0  0  # atno 10167 bound_to 10162
  156.0588  130.4269  150.1772 H   0  0  0  0  0  0  0  0  0  0  0  0  # atno 10718 bound_to 10713
  154.1906  135.6428  153.5059 H   0  0  0  0  0  0  0  0  0  0  0  0  # atno 10763 bound_to 10752
  153.0036  135.5428  154.6419 H   0  0  0  0  0  0  0  0  0  0  0  0  # atno 10764 bound_to 10752
  154.5806  135.2925  155.0709 H   0  0  0  0  0  0  0  0  0  0  0  0  # atno 10765 bound_to 10752
  140.8318  134.2507  157.4853 H   0  0  0  0  0  0  0  0  0  0  0  0  # atno 11005 bound_to 11000
  145.8568  139.2203  143.1740 LP  0  0  0  0  0  0  0  0  0  0  0  0  # atno 17320 bound_to 7965
  146.0210  140.8348  142.9923 LP  0  0  0  0  0  0  0  0  0  0  0  0  # atno 17321 bound_to 7965
  139.4862  144.4580  151.9575 LP  0  0  0  0  0  0  0  0  0  0  0  0  # atno 17342 bound_to 10162
  140.3668  144.2905  150.5925 LP  0  0  0  0  0  0  0  0  0  0  0  0  # atno 17343 bound_to 10162
  156.9843  130.9874  151.3430 LP  0  0  0  0  0  0  0  0  0  0  0  0  # atno 17370 bound_to 10713
  157.5581  130.8227  149.8230 LP  0  0  0  0  0  0  0  0  0  0  0  0  # atno 17371 bound_to 10713
  139.8705  134.9590  156.4318 LP  0  0  0  0  0  0  0  0  0  0  0  0  # atno 17394 bound_to 11000
  140.8990  133.7793  155.9658 LP  0  0  0  0  0  0  0  0  0  0  0  0  # atno 17395 bound_to 11000

$$$$
