AV-unprocessed.smi:674|AV-procd|sdf|3301|dock7
  -GOLD-   22720 0263D 1   1.00000     0.00000
 Structure written by MMmdl.
 47 48  0  0  0  0  0  0  0  0  1 V2000
  149.8848  141.7953  157.6374 C   0  0  0  0  0  0  0  0  0  0  0  0
  150.5655  141.9176  156.2692 C   0  0  0  0  0  0  0  0  0  0  0  0
  150.7801  140.5764  155.6266 C   0  0  0  0  0  0  0  0  0  0  0  0
  149.8003  139.5911  155.3106 C   0  0  0  0  0  0  0  0  0  0  0  0
  150.5486  138.5847  154.7636 C   0  0  0  0  0  0  0  0  0  0  0  0
  150.1368  137.3775  154.2927 N   0  0  0  0  0  0  0  0  0  0  0  0
  150.5180  136.1485  154.6826 C   0  0  0  0  0  0  0  0  0  0  0  0
  151.3067  135.8995  155.5948 O   0  0  0  0  0  0  0  0  0  0  0  0
  149.9188  135.2012  153.9490 N   0  0  0  0  0  0  0  0  0  0  0  0
  150.1235  133.7682  154.1307 C   0  0  2  0  0  0  0  0  0  0  0  0
  149.2290  132.9247  153.2254 C   0  0  0  0  0  0  0  0  0  0  0  0
  149.1277  131.9342  154.4000 C   0  0  2  0  0  0  0  0  0  0  0  0
  150.1098  130.7524  154.4312 C   0  0  0  0  0  0  0  0  0  0  0  0
  147.7928  131.4645  154.5943 O   0  0  0  0  0  0  0  0  0  0  0  0
  147.2710  130.6136  153.5814 C   0  0  0  0  0  0  0  0  0  0  0  0
  149.3818  133.1542  155.3449 C   0  0  0  0  0  0  0  0  0  0  0  0
  150.2376  132.8996  156.5899 C   0  0  0  0  0  0  0  0  0  0  0  0
  148.1283  133.9019  155.8427 C   0  0  0  0  0  0  0  0  0  0  0  0
  151.8738  138.9652  154.7648 N   0  0  0  0  0  0  0  0  0  0  0  0
  153.0528  138.2583  154.3027 C   0  0  0  0  0  0  0  0  0  0  0  0
  152.0105  140.1979  155.2979 N   0  0  0  0  0  0  0  0  0  0  0  0
  149.7366  142.7772  158.0870 H   0  0  0  0  0  0  0  0  0  0  0  0
  150.4870  141.2019  158.3262 H   0  0  0  0  0  0  0  0  0  0  0  0
  148.9083  141.3177  157.5495 H   0  0  0  0  0  0  0  0  0  0  0  0
  149.9569  142.5465  155.6189 H   0  0  0  0  0  0  0  0  0  0  0  0
  151.5190  142.4349  156.3828 H   0  0  0  0  0  0  0  0  0  0  0  0
  148.7341  139.6339  155.4739 H   0  0  0  0  0  0  0  0  0  0  0  0
  149.4575  137.4161  153.5473 H   0  0  0  0  0  0  0  0  0  0  0  0
  149.2790  135.4856  153.2218 H   0  0  0  0  0  0  0  0  0  0  0  0
  151.1692  133.4581  154.0665 H   0  0  0  0  0  0  0  0  0  0  0  0
  148.2816  133.4048  152.9725 H   0  0  0  0  0  0  0  0  0  0  0  0
  149.7266  132.5325  152.3382 H   0  0  0  0  0  0  0  0  0  0  0  0
  151.1474  131.0858  154.4269 H   0  0  0  0  0  0  0  0  0  0  0  0
  149.9944  130.1043  153.5629 H   0  0  0  0  0  0  0  0  0  0  0  0
  149.9672  130.1415  155.3227 H   0  0  0  0  0  0  0  0  0  0  0  0
  146.2222  130.4082  153.7945 H   0  0  0  0  0  0  0  0  0  0  0  0
  147.7876  129.6547  153.5488 H   0  0  0  0  0  0  0  0  0  0  0  0
  147.3219  131.0737  152.5944 H   0  0  0  0  0  0  0  0  0  0  0  0
  149.7479  132.2070  157.2750 H   0  0  0  0  0  0  0  0  0  0  0  0
  150.4328  133.8225  157.1371 H   0  0  0  0  0  0  0  0  0  0  0  0
  151.2097  132.4762  156.3386 H   0  0  0  0  0  0  0  0  0  0  0  0
  147.5711  133.3066  156.5668 H   0  0  0  0  0  0  0  0  0  0  0  0
  147.4399  134.1429  155.0326 H   0  0  0  0  0  0  0  0  0  0  0  0
  148.3874  134.8422  156.3305 H   0  0  0  0  0  0  0  0  0  0  0  0
  152.7771  137.3206  153.8203 H   0  0  0  0  0  0  0  0  0  0  0  0
  153.7048  138.0418  155.1494 H   0  0  0  0  0  0  0  0  0  0  0  0
  153.5938  138.8756  153.5852 H   0  0  0  0  0  0  0  0  0  0  0  0
  1  2  1  0  0  0  0
  1 22  1  0  0  0  0
  1 23  1  0  0  0  0
  1 24  1  0  0  0  0
  2  3  1  0  0  0  0
  2 25  1  0  0  0  0
  2 26  1  0  0  0  0
  3 21  2  0  0  0  0
  3  4  1  0  0  0  0
  4  5  2  0  0  0  0
  4 27  1  0  0  0  0
  5  6  1  0  0  0  0
  5 19  1  0  0  0  0
  6  7  1  0  0  0  0
  6 28  1  0  0  0  0
  7  8  2  0  0  0  0
  7  9  1  0  0  0  0
  9 10  1  0  0  0  0
  9 29  1  0  0  0  0
 10 16  1  0  0  0  0
 10 11  1  0  0  0  0
 10 30  1  0  0  0  0
 11 12  1  0  0  0  0
 11 31  1  0  0  0  0
 11 32  1  0  0  0  0
 12 13  1  0  0  0  0
 12 14  1  0  0  0  0
 12 16  1  0  0  0  0
 13 33  1  0  0  0  0
 13 34  1  0  0  0  0
 13 35  1  0  0  0  0
 14 15  1  0  0  0  0
 15 36  1  0  0  0  0
 15 37  1  0  0  0  0
 15 38  1  0  0  0  0
 16 17  1  0  0  0  0
 16 18  1  0  0  0  0
 17 39  1  0  0  0  0
 17 40  1  0  0  0  0
 17 41  1  0  0  0  0
 18 42  1  0  0  0  0
 18 43  1  0  0  0  0
 18 44  1  0  0  0  0
 19 20  1  0  0  0  0
 19 21  1  0  0  0  0
 20 45  1  0  0  0  0
 20 46  1  0  0  0  0
 20 47  1  0  0  0  0
M  END
> <s_m_source_file>
AV-unprocessed.smi

> <i_m_source_file_index>
674

> <i_lp_mmshare_version>
43012

> <i_f3d_flags>
0

> <s_epik_input>
W0NIM11bQ0gyXWMxW2NIXWMobihuMSlbQ0gzXSlbTkhdQyg9TylbTkhdW0NAQEhdKEMyKFtDSDNdKVtDSDNdKVtDSDJdW0NAQF0yKFtDSDNdKU9bQ0gzXQ==

> <s_epik_cmdline>
J2VwaWtfcHl0aG9uJywgJy1waCcsICc3LjAnLCAnLXRuJywgJzgnLCAnLW1hJywgJzIwMCcsICctbWV0YWxfYmluZGluZycsICctaW1hZScsICc8aW5maWxlLm1hZT4nLCAnLW9tYWUnLCAnPG91dGZpbGUubWFlPic=

> <r_lp_tautomer_probability>
1

> <r_epik_Ionization_Penalty>
0.000101626

> <r_epik_Ionization_Penalty_Charging>
0

> <r_epik_Ionization_Penalty_Neutral>
0.000101626

> <r_epik_State_Penalty>
-0

> <r_epik_Charging_Adjusted_Penalty>
0

> <i_epik_Tot_Q>
0

> <i_epik_Tot_abs_Q>
0

> <r_epik_Metal_State_Penalty>
-0

> <b_epik_Metal_Only>
0

> <s_lp_Force_Field>
OPLS_2005

> <r_lp_Energy>
22.7641

> <b_lp_Chiralities_Consistent>
1

> <s_lp_Variant>
AV-unprocessed.smi:674-3

> <Gold.Version>
5.8.1

> <Gold.Id.Protein>
6NUR|6NUR_protein|mol2

> <Gold.PLP.Fitness>
40.8692

> <Gold.PLP.PLP>
-33.8471

> <Gold.PLP.part.hbond>
-5.0000

> <Gold.PLP.part.metal>
0.0000

> <Gold.PLP.part.buried>
-0.1313

> <Gold.PLP.part.nonpolar>
-28.3882

> <Gold.PLP.part.repulsive>
0.1901

> <Gold.PLP.ligand.clash>
0.0000

> <Gold.PLP.ligand.torsion>
0.7535

> <Gold.PLP.Chemscore.Hbond>
2.7190

> <Gold.PLP.Chemscore.CHOScore>
0.0000

> <Gold.PLP.Chemscore.Metal>
0.0000

> <Gold.Chemscore.Hbonds>
donor molecule, donor type, donor heavy atom, donor atom, acceptor molecule, acceptor atom, score
      L1  H     6    28       P1  7948  0.61
      L1  H     9    29       P1  7948  0.95
      P1  H  7989  7998       L1    21  0.11
      P1  H 10752 10763       L1     8  1.00

> <Gold.PLP.Chemscore.Internal.Correction>
0.3721

> <Gold.Rescore>
     Score         DG    S(hbond)    S(metal)    S(lipo)     H(rot)  DE(clash)    DE(int)     intcor
     14.49     -16.22       1.73        0.00      72.39       1.37       0.88       0.85       ----

> <Gold.Chemscore.Fitness>
14.4911

> <Gold.Chemscore.DG>
-16.2223

> <Gold.Chemscore.ZeroCoef>
-5.4800

> <Gold.Chemscore.Hbond>
1.7274

> <Gold.Chemscore.Metal>
0.0000

> <Gold.Chemscore.Lipo>
72.3864

> <Gold.Chemscore.Internal_Hbond>
0.0000

> <Gold.Chemscore.DEClash>
0.8790

> <Gold.Chemscore.DEInternal>
0.8521

> <Gold.Chemscore.Rot>
1.3658

> <Gold.Chemscore.Internal.Correction>
   9.000000E+99

> <Gold.Chemscore.Hbonds>
donor molecule, donor type, donor heavy atom, donor atom, acceptor molecule, acceptor atom, score
      L1  H     6    28       P1  7948  0.56
      L1  H     9    29       P1  7948  0.19
      P1  H 10752 10763       L1     8  0.70

> <Gold.Chemscore.Hbond.Weighted>
-5.7694

> <Gold.Chemscore.Metal.Weighted>
-0.0000

> <Gold.Chemscore.Lipo.Weighted>
-8.4692

> <Gold.Chemscore.Internal_Hbond.Weighted>
0.0000

> <Gold.Chemscore.DEClash.Weighted>
0.8790

> <Gold.Chemscore.DEInternal.Weighted>
0.8521

> <Gold.Chemscore.Rot.Weighted>
3.4963

> <Gold.Chemscore.Internal.Correction.Weighted>
   9.000000E+99

> <Gold.Protein.RotatedTorsions>
[ 6907 6896 6895 6894 ] final -155.37 input  -60.11 | X-H torsion
[ 7974 7965 7964 7962 ] final  115.76 input  175.53 | X-H torsion
[ 8008 7997 7996 7995 ] final  133.83 input   59.86 | X-H torsion
[ 10167 10162 10161 10158 ] final  115.63 input  -65.29 | X-H torsion
[ 10718 10713 10712 10709 ] final   10.98 input   66.30 | X-H torsion
[ 10763 10752 10751 10750 ] final   76.27 input  -60.55 | X-H torsion
[ 11005 11000 10999 10996 ] final   83.34 input  -57.11 | X-H torsion

> <Gold.Protein.ActiveResidues>
 VAL166  LYS551  ARG553  GLY616  TRP617  ASP618  TYR619  PRO620  LYS621  CYS622 
 ASP623  PHE694  ASN695  SER759  ASP760  ASP761  ALA762  ILE779  LEU786  VAL792 
 PHE793  MET794  SER795  GLU796  ALA797  LYS798  CYS799  TRP800  GLU811  SER814 

> <Gold.Protein.RotatedAtoms>
  151.2714  133.4253  159.2621 H   0  0  0  0  0  0  0  0  0  0  0  0  # atno 6907 bound_to 6896
  151.0441  134.9628  159.8187 H   0  0  0  0  0  0  0  0  0  0  0  0  # atno 6908 bound_to 6896
  152.5371  134.2671  159.9010 H   0  0  0  0  0  0  0  0  0  0  0  0  # atno 6909 bound_to 6896
  145.1880  139.3015  143.4383 H   0  0  0  0  0  0  0  0  0  0  0  0  # atno 7974 bound_to 7965
  156.2995  140.2511  156.3317 H   0  0  0  0  0  0  0  0  0  0  0  0  # atno 8008 bound_to 7997
  154.9139  140.0402  157.1980 H   0  0  0  0  0  0  0  0  0  0  0  0  # atno 8009 bound_to 7997
  154.8378  140.2886  155.5683 H   0  0  0  0  0  0  0  0  0  0  0  0  # atno 8010 bound_to 7997
  139.6304  144.7114  151.2445 H   0  0  0  0  0  0  0  0  0  0  0  0  # atno 10167 bound_to 10162
  156.9888  130.6034  149.5684 H   0  0  0  0  0  0  0  0  0  0  0  0  # atno 10718 bound_to 10713
  153.0713  135.4958  154.8311 H   0  0  0  0  0  0  0  0  0  0  0  0  # atno 10763 bound_to 10752
  154.7026  135.3004  154.9320 H   0  0  0  0  0  0  0  0  0  0  0  0  # atno 10764 bound_to 10752
  154.0039  135.6763  153.4814 H   0  0  0  0  0  0  0  0  0  0  0  0  # atno 10765 bound_to 10752
  139.9034  134.8137  156.2296 H   0  0  0  0  0  0  0  0  0  0  0  0  # atno 11005 bound_to 11000
  146.3441  140.2082  142.8590 LP  0  0  0  0  0  0  0  0  0  0  0  0  # atno 17320 bound_to 7965
  145.0070  140.8681  143.5247 LP  0  0  0  0  0  0  0  0  0  0  0  0  # atno 17321 bound_to 7965
  140.7435  143.6491  150.8265 LP  0  0  0  0  0  0  0  0  0  0  0  0  # atno 17342 bound_to 10162
  140.0115  143.5637  152.2837 LP  0  0  0  0  0  0  0  0  0  0  0  0  # atno 17343 bound_to 10162
  156.0215  130.5310  150.8289 LP  0  0  0  0  0  0  0  0  0  0  0  0  # atno 17370 bound_to 10713
  157.5473  131.0943  150.9744 LP  0  0  0  0  0  0  0  0  0  0  0  0  # atno 17371 bound_to 10713
  141.0354  133.6966  156.1503 LP  0  0  0  0  0  0  0  0  0  0  0  0  # atno 17394 bound_to 11000
  140.7035  134.4538  157.5585 LP  0  0  0  0  0  0  0  0  0  0  0  0  # atno 17395 bound_to 11000

$$$$
