AV-unprocessed.smi:1744|AV-procd|sdf|7026|dock3
  -GOLD-   22720 8243D 1   1.00000     0.00000
 Structure written by MMmdl.
 44 45  0  0  0  0  0  0  0  0  2 V2000
  153.2900  142.0511  161.2764 C   0  0  0  0  0  0  0  0  0  0  0  0
  153.9855  141.5520  160.0038 C   0  0  0  0  0  0  0  0  0  0  0  0
  153.0374  141.2971  158.9366 N   0  0  0  0  0  0  0  0  0  0  0  0
  151.9935  142.0953  158.5128 C   0  0  0  0  0  0  0  0  0  0  0  0
  151.4028  141.4215  157.4866 C   0  0  0  0  0  0  0  0  0  0  0  0
  150.2793  141.8829  156.7564 N   0  0  0  0  0  0  0  0  0  0  0  0
  149.8041  141.3910  155.6010 C   0  0  0  0  0  0  0  0  0  0  0  0
  150.2913  140.4476  154.9787 O   0  0  0  0  0  0  0  0  0  0  0  0
  148.7186  142.0653  155.1945 N   0  0  0  0  0  0  0  0  0  0  0  0
  147.9525  141.7818  153.9812 C   0  0  2  0  0  0  0  0  0  0  0  0
  146.7253  142.7055  153.8481 C   0  0  0  0  0  0  0  0  0  0  0  0
  145.6398  142.3741  154.8870 C   0  0  0  0  0  0  0  0  0  0  0  0
  145.2320  140.9463  154.7989 N   0  3  2  0  0  0  0  0  0  0  0  0
  144.0901  140.6105  155.6885 C   0  0  0  0  0  0  0  0  0  0  0  0
  143.6780  139.1369  155.6062 C   0  0  0  0  0  0  0  0  0  0  0  0
  143.2659  138.6928  154.4167 N   0  0  0  0  0  0  0  0  0  0  0  0
  143.7140  138.4128  156.5994 O   0  0  0  0  0  0  0  0  0  0  0  0
  146.3882  140.0347  154.9933 C   0  0  0  0  0  0  0  0  0  0  0  0
  147.4986  140.3119  153.9627 C   0  0  0  0  0  0  0  0  0  0  0  0
  152.1400  140.2122  157.3404 C   0  0  0  0  0  0  0  0  0  0  0  0
  153.1261  140.1478  158.2225 N   0  0  0  0  0  0  0  0  0  0  0  0
  154.0153  142.2254  162.0711 H   0  0  0  0  0  0  0  0  0  0  0  0
  152.5650  141.3224  161.6406 H   0  0  0  0  0  0  0  0  0  0  0  0
  152.7627  142.9889  161.0973 H   0  0  0  0  0  0  0  0  0  0  0  0
  154.7159  142.2843  159.6568 H   0  0  0  0  0  0  0  0  0  0  0  0
  154.5332  140.6318  160.2114 H   0  0  0  0  0  0  0  0  0  0  0  0
  151.7705  143.0496  158.9671 H   0  0  0  0  0  0  0  0  0  0  0  0
  149.7879  142.6690  157.1556 H   0  0  0  0  0  0  0  0  0  0  0  0
  148.3888  142.8214  155.7763 H   0  0  0  0  0  0  0  0  0  0  0  0
  148.6092  141.9430  153.1242 H   0  0  0  0  0  0  0  0  0  0  0  0
  147.0191  143.7522  153.9344 H   0  0  0  0  0  0  0  0  0  0  0  0
  146.3032  142.5952  152.8482 H   0  0  0  0  0  0  0  0  0  0  0  0
  146.0018  142.5911  155.8932 H   0  0  0  0  0  0  0  0  0  0  0  0
  144.7788  143.0216  154.7190 H   0  0  0  0  0  0  0  0  0  0  0  0
  144.3661  140.7976  156.7271 H   0  0  0  0  0  0  0  0  0  0  0  0
  143.2401  141.2590  155.4690 H   0  0  0  0  0  0  0  0  0  0  0  0
  142.9874  137.7289  154.3019 H   0  0  0  0  0  0  0  0  0  0  0  0
  143.2389  139.3242  153.6283 H   0  0  0  0  0  0  0  0  0  0  0  0
  146.7733  140.1442  156.0083 H   0  0  0  0  0  0  0  0  0  0  0  0
  146.0609  138.9993  154.8907 H   0  0  0  0  0  0  0  0  0  0  0  0
  147.1268  140.0664  152.9670 H   0  0  0  0  0  0  0  0  0  0  0  0
  148.3482  139.6508  154.1385 H   0  0  0  0  0  0  0  0  0  0  0  0
  152.0047  139.3947  156.6479 H   0  0  0  0  0  0  0  0  0  0  0  0
  144.9042  140.7917  153.8557 H   0  0  0  0  0  0  0  0  0  0  0  0
  1  2  1  0  0  0  0
  1 22  1  0  0  0  0
  1 23  1  0  0  0  0
  1 24  1  0  0  0  0
  2  3  1  0  0  0  0
  2 25  1  0  0  0  0
  2 26  1  0  0  0  0
  3 21  1  0  0  0  0
  3  4  1  0  0  0  0
  4  5  2  0  0  0  0
  4 27  1  0  0  0  0
  5  6  1  0  0  0  0
  5 20  1  0  0  0  0
  6  7  1  0  0  0  0
  6 28  1  0  0  0  0
  7  8  2  0  0  0  0
  7  9  1  0  0  0  0
  9 10  1  0  0  0  0
  9 29  1  0  0  0  0
 10 19  1  0  0  0  0
 10 11  1  0  0  0  0
 10 30  1  0  0  0  0
 11 12  1  0  0  0  0
 11 31  1  0  0  0  0
 11 32  1  0  0  0  0
 12 13  1  0  0  0  0
 12 33  1  0  0  0  0
 12 34  1  0  0  0  0
 13 14  1  0  0  0  0
 13 18  1  0  0  0  0
 13 44  1  0  0  0  0
 14 15  1  0  0  0  0
 14 35  1  0  0  0  0
 14 36  1  0  0  0  0
 15 16  1  0  0  0  0
 15 17  2  0  0  0  0
 16 37  1  0  0  0  0
 16 38  1  0  0  0  0
 18 19  1  0  0  0  0
 18 39  1  0  0  0  0
 18 40  1  0  0  0  0
 19 41  1  0  0  0  0
 19 42  1  0  0  0  0
 20 21  2  0  0  0  0
 20 43  1  0  0  0  0
M  CHG  1  13   1
M  END
> <s_m_source_file>
AV-unprocessed.smi

> <i_m_source_file_index>
1744

> <i_lp_mmshare_version>
43012

> <i_f3d_flags>
0

> <s_epik_input>
W0NIM11bQ0gyXW4xW2NIXWMoW2NIXW4xKVtOSF1DKD1PKVtOSF1bQ0hdMltDSDJdW0NIMl1OKFtDSDJdW0NIMl0yKVtDSDJdQyg9TylbTkgyXQ==

> <s_epik_cmdline>
J2VwaWtfcHl0aG9uJywgJy1waCcsICc3LjAnLCAnLXRuJywgJzgnLCAnLW1hJywgJzIwMCcsICctbWV0YWxfYmluZGluZycsICctaW1hZScsICc8aW5maWxlLm1hZT4nLCAnLW9tYWUnLCAnPG91dGZpbGUubWFlPic=

> <r_lp_tautomer_probability>
1

> <r_epik_Ionization_Penalty>
0.839033

> <r_epik_Ionization_Penalty_Charging>
0.838844

> <r_epik_Ionization_Penalty_Neutral>
0.000189439

> <r_epik_State_Penalty>
0.8734

> <r_epik_Charging_Adjusted_Penalty>
1.71224

> <i_epik_Tot_Q>
1

> <i_epik_Tot_abs_Q>
1

> <r_epik_Metal_State_Penalty>
0.89072

> <b_epik_Metal_Only>
0

> <s_lp_Force_Field>
OPLS_2005

> <r_lp_Energy>
17.546

> <b_lp_Chiralities_Consistent>
1

> <s_lp_Variant>
AV-unprocessed.smi:1744-3

> <Gold.Version>
5.8.1

> <Gold.Id.Protein>
6NUR|6NUR_protein|mol2

> <Gold.PLP.Fitness>
51.1481

> <Gold.PLP.PLP>
-34.9870

> <Gold.PLP.part.hbond>
-5.0000

> <Gold.PLP.part.metal>
0.0000

> <Gold.PLP.part.buried>
-4.0011

> <Gold.PLP.part.nonpolar>
-24.4943

> <Gold.PLP.part.repulsive>
0.3018

> <Gold.PLP.ligand.clash>
0.0000

> <Gold.PLP.ligand.torsion>
0.2354

> <Gold.PLP.Chemscore.Hbond>
5.5273

> <Gold.PLP.Chemscore.CHOScore>
0.0000

> <Gold.PLP.Chemscore.Metal>
0.0000

> <Gold.Chemscore.Hbonds>
donor molecule, donor type, donor heavy atom, donor atom, acceptor molecule, acceptor atom, score
      L1  H     9    29       P1  8028  0.56
      L1  H    13    44       P1 10175  2.00
      L1  H    16    38       P1 10175  1.00
      P1  H  7989  7998       L1     8  0.98
      P1  H  7997  8008       L1    21  0.99

> <Gold.PLP.Chemscore.Internal.Correction>
0.0502

> <Gold.Rescore>
     Score         DG    S(hbond)    S(metal)    S(lipo)     H(rot)  DE(clash)    DE(int)     intcor
     18.10     -20.90       3.81        0.00      71.70       2.22       0.47       2.33       ----

> <Gold.Chemscore.Fitness>
18.1013

> <Gold.Chemscore.DG>
-20.9041

> <Gold.Chemscore.ZeroCoef>
-5.4800

> <Gold.Chemscore.Hbond>
3.8089

> <Gold.Chemscore.Metal>
0.0000

> <Gold.Chemscore.Lipo>
71.6954

> <Gold.Chemscore.Internal_Hbond>
0.0000

> <Gold.Chemscore.DEClash>
0.4693

> <Gold.Chemscore.DEInternal>
2.3335

> <Gold.Chemscore.Rot>
2.2211

> <Gold.Chemscore.Internal.Correction>
   9.000000E+99

> <Gold.Chemscore.Hbonds>
donor molecule, donor type, donor heavy atom, donor atom, acceptor molecule, acceptor atom, score
      L1  H     9    29       P1  8028  0.55
      L1  H    13    44       P1 10175  0.95
      L1  H    16    38       P1 10175  1.00
      P1  H  7989  7998       L1     8  0.82
      P1  H  7997  8008       L1    21  0.22

> <Gold.Chemscore.Hbond.Weighted>
-12.7217

> <Gold.Chemscore.Metal.Weighted>
-0.0000

> <Gold.Chemscore.Lipo.Weighted>
-8.3884

> <Gold.Chemscore.Internal_Hbond.Weighted>
0.0000

> <Gold.Chemscore.DEClash.Weighted>
0.4693

> <Gold.Chemscore.DEInternal.Weighted>
2.3335

> <Gold.Chemscore.Rot.Weighted>
5.6860

> <Gold.Chemscore.Internal.Correction.Weighted>
   9.000000E+99

> <Gold.Protein.RotatedTorsions>
[ 6907 6896 6895 6894 ] final -104.94 input  -60.11 | X-H torsion
[ 7974 7965 7964 7962 ] final   98.84 input  175.53 | X-H torsion
[ 8008 7997 7996 7995 ] final  -86.48 input   59.86 | X-H torsion
[ 10167 10162 10161 10158 ] final  -22.12 input  -65.29 | X-H torsion
[ 10718 10713 10712 10709 ] final   69.63 input   66.30 | X-H torsion
[ 10763 10752 10751 10750 ] final  105.70 input  -60.55 | X-H torsion
[ 11005 11000 10999 10996 ] final   41.70 input  -57.11 | X-H torsion

> <Gold.Protein.ActiveResidues>
 VAL166  LYS551  ARG553  GLY616  TRP617  ASP618  TYR619  PRO620  LYS621  CYS622 
 ASP623  PHE694  ASN695  SER759  ASP760  ASP761  ALA762  ILE779  LEU786  VAL792 
 PHE793  MET794  SER795  GLU796  ALA797  LYS798  CYS799  TRP800  GLU811  SER814 

> <Gold.Protein.RotatedAtoms>
  150.7312  134.0201  159.3698 H   0  0  0  0  0  0  0  0  0  0  0  0  # atno 6907 bound_to 6896
  151.8165  135.0662  160.0429 H   0  0  0  0  0  0  0  0  0  0  0  0  # atno 6908 bound_to 6896
  152.3034  133.5642  159.5670 H   0  0  0  0  0  0  0  0  0  0  0  0  # atno 6909 bound_to 6896
  145.4069  139.2339  143.3270 H   0  0  0  0  0  0  0  0  0  0  0  0  # atno 7974 bound_to 7965
  154.6524  140.0578  156.9970 H   0  0  0  0  0  0  0  0  0  0  0  0  # atno 8008 bound_to 7997
  155.1352  140.3260  155.4446 H   0  0  0  0  0  0  0  0  0  0  0  0  # atno 8009 bound_to 7997
  156.2582  140.1974  156.6469 H   0  0  0  0  0  0  0  0  0  0  0  0  # atno 8010 bound_to 7997
  140.7285  143.4564  151.0442 H   0  0  0  0  0  0  0  0  0  0  0  0  # atno 10167 bound_to 10162
  157.6356  130.9435  150.0540 H   0  0  0  0  0  0  0  0  0  0  0  0  # atno 10718 bound_to 10713
  153.3829  135.3901  155.1870 H   0  0  0  0  0  0  0  0  0  0  0  0  # atno 10763 bound_to 10752
  154.8710  135.3730  154.4834 H   0  0  0  0  0  0  0  0  0  0  0  0  # atno 10764 bound_to 10752
  153.5313  135.7086  153.5743 H   0  0  0  0  0  0  0  0  0  0  0  0  # atno 10765 bound_to 10752
  140.1809  134.4105  155.8201 H   0  0  0  0  0  0  0  0  0  0  0  0  # atno 11005 bound_to 11000
  146.2724  140.4774  142.8809 LP  0  0  0  0  0  0  0  0  0  0  0  0  # atno 17320 bound_to 7965
  144.8336  140.6746  143.6275 LP  0  0  0  0  0  0  0  0  0  0  0  0  # atno 17321 bound_to 7965
  139.8245  143.7775  152.3178 LP  0  0  0  0  0  0  0  0  0  0  0  0  # atno 17342 bound_to 10162
  139.7869  144.7424  151.0009 LP  0  0  0  0  0  0  0  0  0  0  0  0  # atno 17343 bound_to 10162
  156.1593  130.3643  149.9323 LP  0  0  0  0  0  0  0  0  0  0  0  0  # atno 17370 bound_to 10713
  156.7325  130.9048  151.3626 LP  0  0  0  0  0  0  0  0  0  0  0  0  # atno 17371 bound_to 10713
  141.2223  133.7000  156.7928 LP  0  0  0  0  0  0  0  0  0  0  0  0  # atno 17394 bound_to 11000
  140.2269  134.8715  157.3436 LP  0  0  0  0  0  0  0  0  0  0  0  0  # atno 17395 bound_to 11000

$$$$
