AV-unprocessed.smi:2276|AV-procd|sdf|9176|dock8
  -GOLD-   2272012393D 1   1.00000     0.00000
 Structure written by MMmdl.
 52 53  0  0  0  0  0  0  0  0  1 V2000
  151.9957  145.9336  160.2221 C   0  0  0  0  0  0  0  0  0  0  0  0
  152.0357  144.5617  159.5825 C   0  0  0  0  0  0  0  0  0  0  0  0
  152.8278  143.5326  160.1271 C   0  0  0  0  0  0  0  0  0  0  0  0
  152.8224  142.2790  159.4846 C   0  0  0  0  0  0  0  0  0  0  0  0
  153.6414  141.1243  160.0217 C   0  0  0  0  0  0  0  0  0  0  0  0
  152.0951  142.0227  158.3766 N   0  0  0  0  0  0  0  0  0  0  0  0
  151.3282  143.0057  157.8434 C   0  0  0  0  0  0  0  0  0  0  0  0
  150.5180  142.8329  156.6900 N   0  0  0  0  0  0  0  0  0  0  0  0
  150.2933  141.7034  155.9959 C   0  0  0  0  0  0  0  0  0  0  0  0
  150.8316  140.6165  156.2094 O   0  0  0  0  0  0  0  0  0  0  0  0
  149.3959  141.9044  155.0199 N   0  0  0  0  0  0  0  0  0  0  0  0
  148.9078  140.8803  154.1001 C   0  0  0  0  0  0  0  0  0  0  0  0
  147.3655  140.8196  154.0259 C   0  0  2  0  0  0  0  0  0  0  0  0
  146.9284  139.7303  153.0333 C   0  0  0  0  0  0  0  0  0  0  0  0
  146.7500  142.1910  153.6563 C   0  0  0  0  0  0  0  0  0  0  0  0
  145.6664  142.6559  154.5235 N   0  0  0  0  0  0  0  0  0  0  0  0
  145.1428  143.9412  154.0573 C   0  0  0  0  0  0  0  0  0  0  0  0
  143.9878  144.4419  154.9444 C   0  0  0  0  0  0  0  0  0  0  0  0
  144.4137  144.5948  156.3334 N   0  0  0  0  0  0  0  0  0  0  0  0
  143.3298  145.0747  157.1766 C   0  0  0  0  0  0  0  0  0  0  0  0
  144.9388  143.3171  156.8094 C   0  0  0  0  0  0  0  0  0  0  0  0
  146.0903  142.8131  155.9193 C   0  0  0  0  0  0  0  0  0  0  0  0
  151.2764  144.2919  158.4260 C   0  0  0  0  0  0  0  0  0  0  0  0
  152.5426  145.9472  161.1651 H   0  0  0  0  0  0  0  0  0  0  0  0
  150.9655  146.2297  160.4220 H   0  0  0  0  0  0  0  0  0  0  0  0
  152.4430  146.6719  159.5563 H   0  0  0  0  0  0  0  0  0  0  0  0
  153.4218  143.6983  161.0141 H   0  0  0  0  0  0  0  0  0  0  0  0
  154.3751  141.4672  160.7516 H   0  0  0  0  0  0  0  0  0  0  0  0
  154.1755  140.6233  159.2135 H   0  0  0  0  0  0  0  0  0  0  0  0
  152.9908  140.3960  160.5061 H   0  0  0  0  0  0  0  0  0  0  0  0
  150.0319  143.6588  156.3741 H   0  0  0  0  0  0  0  0  0  0  0  0
  149.0101  142.8309  154.9122 H   0  0  0  0  0  0  0  0  0  0  0  0
  149.3191  141.0931  153.1129 H   0  0  0  0  0  0  0  0  0  0  0  0
  149.3121  139.9113  154.3978 H   0  0  0  0  0  0  0  0  0  0  0  0
  147.0120  140.5187  155.0109 H   0  0  0  0  0  0  0  0  0  0  0  0
  147.2586  139.9613  152.0200 H   0  0  0  0  0  0  0  0  0  0  0  0
  145.8436  139.6230  153.0138 H   0  0  0  0  0  0  0  0  0  0  0  0
  147.3450  138.7605  153.3066 H   0  0  0  0  0  0  0  0  0  0  0  0
  147.5285  142.9544  153.6355 H   0  0  0  0  0  0  0  0  0  0  0  0
  146.3815  142.1224  152.6318 H   0  0  0  0  0  0  0  0  0  0  0  0
  145.9404  144.6860  154.0404 H   0  0  0  0  0  0  0  0  0  0  0  0
  144.7870  143.8435  153.0313 H   0  0  0  0  0  0  0  0  0  0  0  0
  143.6274  145.3977  154.5624 H   0  0  0  0  0  0  0  0  0  0  0  0
  143.1502  143.7452  154.8832 H   0  0  0  0  0  0  0  0  0  0  0  0
  143.6696  145.2057  158.2044 H   0  0  0  0  0  0  0  0  0  0  0  0
  142.4939  144.3741  157.1818 H   0  0  0  0  0  0  0  0  0  0  0  0
  142.9640  146.0389  156.8226 H   0  0  0  0  0  0  0  0  0  0  0  0
  145.2959  143.4249  157.8340 H   0  0  0  0  0  0  0  0  0  0  0  0
  144.1429  142.5711  156.8335 H   0  0  0  0  0  0  0  0  0  0  0  0
  146.4390  141.8630  156.3210 H   0  0  0  0  0  0  0  0  0  0  0  0
  146.9317  143.5053  155.9805 H   0  0  0  0  0  0  0  0  0  0  0  0
  150.6595  145.0663  157.9931 H   0  0  0  0  0  0  0  0  0  0  0  0
  1  2  1  0  0  0  0
  1 24  1  0  0  0  0
  1 25  1  0  0  0  0
  1 26  1  0  0  0  0
  2 23  1  0  0  0  0
  2  3  2  0  0  0  0
  3  4  1  0  0  0  0
  3 27  1  0  0  0  0
  4  5  1  0  0  0  0
  4  6  2  0  0  0  0
  5 28  1  0  0  0  0
  5 29  1  0  0  0  0
  5 30  1  0  0  0  0
  6  7  1  0  0  0  0
  7  8  1  0  0  0  0
  7 23  2  0  0  0  0
  8  9  1  0  0  0  0
  8 31  1  0  0  0  0
  9 10  2  0  0  0  0
  9 11  1  0  0  0  0
 11 12  1  0  0  0  0
 11 32  1  0  0  0  0
 12 13  1  0  0  0  0
 12 33  1  0  0  0  0
 12 34  1  0  0  0  0
 13 14  1  0  0  0  0
 13 15  1  0  0  0  0
 13 35  1  0  0  0  0
 14 36  1  0  0  0  0
 14 37  1  0  0  0  0
 14 38  1  0  0  0  0
 15 16  1  0  0  0  0
 15 39  1  0  0  0  0
 15 40  1  0  0  0  0
 16 22  1  0  0  0  0
 16 17  1  0  0  0  0
 17 18  1  0  0  0  0
 17 41  1  0  0  0  0
 17 42  1  0  0  0  0
 18 19  1  0  0  0  0
 18 43  1  0  0  0  0
 18 44  1  0  0  0  0
 19 20  1  0  0  0  0
 19 21  1  0  0  0  0
 20 45  1  0  0  0  0
 20 46  1  0  0  0  0
 20 47  1  0  0  0  0
 21 22  1  0  0  0  0
 21 48  1  0  0  0  0
 21 49  1  0  0  0  0
 22 50  1  0  0  0  0
 22 51  1  0  0  0  0
 23 52  1  0  0  0  0
M  END
> <s_m_source_file>
AV-unprocessed.smi

> <i_m_source_file_index>
2276

> <i_lp_mmshare_version>
43012

> <i_f3d_flags>
0

> <s_epik_input>
W0NIM11jMVtjSF1jKFtDSDNdKW5jKFtjSF0xKVtOSF1DKD1PKVtOSF1bQ0gyXVtDQEhdKFtDSDNdKVtDSDJdTjJbQ0gyXVtDSDJdTihbQ0gzXSlbQ0gyXVtDSDJdMg==

> <s_epik_cmdline>
J2VwaWtfcHl0aG9uJywgJy1waCcsICc3LjAnLCAnLXRuJywgJzgnLCAnLW1hJywgJzIwMCcsICctbWV0YWxfYmluZGluZycsICctaW1hZScsICc8aW5maWxlLm1hZT4nLCAnLW9tYWUnLCAnPG91dGZpbGUubWFlPic=

> <r_epik_Ionization_Penalty>
3.46991

> <r_epik_Ionization_Penalty_Charging>
0

> <r_epik_Ionization_Penalty_Neutral>
3.46991

> <r_epik_State_Penalty>
2.28006

> <r_epik_Charging_Adjusted_Penalty>
2.28006

> <i_epik_Tot_Q>
0

> <i_epik_Tot_abs_Q>
0

> <r_epik_Metal_State_Penalty>
2.28005

> <b_epik_Metal_Only>
0

> <s_lp_Force_Field>
OPLS_2005

> <r_lp_Energy>
36.9952

> <b_lp_Chiralities_Consistent>
1

> <s_lp_Variant>
AV-unprocessed.smi:2276-5

> <Gold.Version>
5.8.1

> <Gold.Id.Protein>
6NUR|6NUR_protein|mol2

> <Gold.PLP.Fitness>
53.7938

> <Gold.PLP.PLP>
-49.3382

> <Gold.PLP.part.hbond>
-2.0000

> <Gold.PLP.part.metal>
0.0000

> <Gold.PLP.part.buried>
-7.8858

> <Gold.PLP.part.nonpolar>
-41.5007

> <Gold.PLP.part.repulsive>
0.5696

> <Gold.PLP.ligand.clash>
0.0000

> <Gold.PLP.ligand.torsion>
0.7301

> <Gold.PLP.Chemscore.Hbond>
1.9600

> <Gold.PLP.Chemscore.CHOScore>
0.0000

> <Gold.PLP.Chemscore.Metal>
0.0000

> <Gold.Chemscore.Hbonds>
donor molecule, donor type, donor heavy atom, donor atom, acceptor molecule, acceptor atom, score
      L1  H     8    31       P1  8028  1.00
      L1  H    11    32       P1  8028  0.96

> <Gold.PLP.Chemscore.Internal.Correction>
0.0358

> <Gold.Rescore>
     Score         DG    S(hbond)    S(metal)    S(lipo)     H(rot)  DE(clash)    DE(int)     intcor
     19.87     -21.93       1.93        0.00     119.96       1.57       0.07       2.00       ----

> <Gold.Chemscore.Fitness>
19.8694

> <Gold.Chemscore.DG>
-21.9350

> <Gold.Chemscore.ZeroCoef>
-5.4800

> <Gold.Chemscore.Hbond>
1.9290

> <Gold.Chemscore.Metal>
0.0000

> <Gold.Chemscore.Lipo>
119.9603

> <Gold.Chemscore.Internal_Hbond>
0.0000

> <Gold.Chemscore.DEClash>
0.0691

> <Gold.Chemscore.DEInternal>
1.9965

> <Gold.Chemscore.Rot>
1.5715

> <Gold.Chemscore.Internal.Correction>
   9.000000E+99

> <Gold.Chemscore.Hbonds>
donor molecule, donor type, donor heavy atom, donor atom, acceptor molecule, acceptor atom, score
      L1  H     8    31       P1  8028  1.00
      L1  H    11    32       P1  8028  0.87

> <Gold.Chemscore.Hbond.Weighted>
-6.4428

> <Gold.Chemscore.Metal.Weighted>
-0.0000

> <Gold.Chemscore.Lipo.Weighted>
-14.0354

> <Gold.Chemscore.Internal_Hbond.Weighted>
0.0000

> <Gold.Chemscore.DEClash.Weighted>
0.0691

> <Gold.Chemscore.DEInternal.Weighted>
1.9965

> <Gold.Chemscore.Rot.Weighted>
4.0231

> <Gold.Chemscore.Internal.Correction.Weighted>
   9.000000E+99

> <Gold.Protein.RotatedTorsions>
[ 6907 6896 6895 6894 ] final -148.41 input  -60.11 | X-H torsion
[ 7974 7965 7964 7962 ] final  166.38 input  175.53 | X-H torsion
[ 8008 7997 7996 7995 ] final -169.70 input   59.86 | X-H torsion
[ 10167 10162 10161 10158 ] final  -53.94 input  -65.29 | X-H torsion
[ 10718 10713 10712 10709 ] final  137.15 input   66.30 | X-H torsion
[ 10763 10752 10751 10750 ] final  121.16 input  -60.55 | X-H torsion
[ 11005 11000 10999 10996 ] final  123.14 input  -57.11 | X-H torsion

> <Gold.Protein.ActiveResidues>
 VAL166  LYS551  ARG553  GLY616  TRP617  ASP618  TYR619  PRO620  LYS621  CYS622 
 ASP623  PHE694  ASN695  SER759  ASP760  ASP761  ALA762  ILE779  LEU786  VAL792 
 PHE793  MET794  SER795  GLU796  ALA797  LYS798  CYS799  TRP800  GLU811  SER814 

> <Gold.Protein.RotatedAtoms>
  151.1695  133.4793  159.2593 H   0  0  0  0  0  0  0  0  0  0  0  0  # atno 6907 bound_to 6896
  151.1371  135.0160  159.8619 H   0  0  0  0  0  0  0  0  0  0  0  0  # atno 6908 bound_to 6896
  152.5461  134.1592  159.8604 H   0  0  0  0  0  0  0  0  0  0  0  0  # atno 6909 bound_to 6896
  144.7465  139.8607  143.6380 H   0  0  0  0  0  0  0  0  0  0  0  0  # atno 7974 bound_to 7965
  155.9085  140.1053  157.1297 H   0  0  0  0  0  0  0  0  0  0  0  0  # atno 8008 bound_to 7997
  154.4036  140.1279  156.4591 H   0  0  0  0  0  0  0  0  0  0  0  0  # atno 8009 bound_to 7997
  155.7339  140.3468  155.5074 H   0  0  0  0  0  0  0  0  0  0  0  0  # atno 8010 bound_to 7997
  140.6458  143.2534  151.4864 H   0  0  0  0  0  0  0  0  0  0  0  0  # atno 10167 bound_to 10162
  157.4392  131.1056  151.0163 H   0  0  0  0  0  0  0  0  0  0  0  0  # atno 10718 bound_to 10713
  153.6097  135.3433  155.2974 H   0  0  0  0  0  0  0  0  0  0  0  0  # atno 10763 bound_to 10752
  154.8621  135.4247  154.2323 H   0  0  0  0  0  0  0  0  0  0  0  0  # atno 10764 bound_to 10752
  153.3171  135.7035  153.7136 H   0  0  0  0  0  0  0  0  0  0  0  0  # atno 10765 bound_to 10752
  139.9299  134.9641  156.8214 H   0  0  0  0  0  0  0  0  0  0  0  0  # atno 11005 bound_to 11000
  146.1350  139.4394  143.0144 LP  0  0  0  0  0  0  0  0  0  0  0  0  # atno 17320 bound_to 7965
  145.7105  141.0107  143.1456 LP  0  0  0  0  0  0  0  0  0  0  0  0  # atno 17321 bound_to 7965
  139.5668  144.2023  152.1777 LP  0  0  0  0  0  0  0  0  0  0  0  0  # atno 17342 bound_to 10162
  140.1307  144.5291  150.6804 LP  0  0  0  0  0  0  0  0  0  0  0  0  # atno 17343 bound_to 10162
  157.1032  130.5990  149.5465 LP  0  0  0  0  0  0  0  0  0  0  0  0  # atno 17370 bound_to 10713
  155.9942  130.5005  150.7410 LP  0  0  0  0  0  0  0  0  0  0  0  0  # atno 17371 bound_to 10713
  140.6231  133.9975  155.7627 LP  0  0  0  0  0  0  0  0  0  0  0  0  # atno 17394 bound_to 11000
  141.0881  133.9959  157.3281 LP  0  0  0  0  0  0  0  0  0  0  0  0  # atno 17395 bound_to 11000

$$$$
