AV-unprocessed.smi:1051|AV-procd|sdf|4615|dock6
  -GOLD-   22720 3113D 1   1.00000     0.00000
 Structure written by MMmdl.
 45 47  0  0  0  0  0  0  0  0  1 V2000
  143.9986  143.8191  158.2160 C   0  0  0  0  0  0  0  0  0  0  0  0
  144.0500  144.3063  156.7685 C   0  0  0  0  0  0  0  0  0  0  0  0
  143.3053  145.2258  156.4297 O   0  0  0  0  0  0  0  0  0  0  0  0
  145.0060  143.6377  155.8396 C   0  0  0  0  0  0  0  0  0  0  0  0
  144.9303  143.9134  154.4559 C   0  0  0  0  0  0  0  0  0  0  0  0
  145.8201  143.2989  153.5566 C   0  0  0  0  0  0  0  0  0  0  0  0
  146.7928  142.4014  154.0314 C   0  0  0  0  0  0  0  0  0  0  0  0
  146.8884  142.1064  155.4053 C   0  0  0  0  0  0  0  0  0  0  0  0
  147.8690  141.2142  155.7818 O   0  0  0  0  0  0  0  0  0  0  0  0
  149.0271  141.0943  154.9658 C   0  0  0  0  0  0  0  0  0  0  0  0
  150.2487  140.8862  155.8730 C   0  0  1  0  0  0  0  0  0  0  0  0
  151.1710  140.0884  155.1583 O   0  0  0  0  0  0  0  0  0  0  0  0
  150.9323  142.2180  156.2448 C   0  0  0  0  0  0  0  0  0  0  0  0
  151.5934  142.1394  157.5455 N   0  0  0  0  0  0  0  0  0  0  0  0
  152.3197  141.0979  158.0174 C   0  0  0  0  0  0  0  0  0  0  0  0
  152.5388  140.0433  157.4214 O   0  0  0  0  0  0  0  0  0  0  0  0
  152.7644  141.4237  159.2537 N   0  0  0  0  0  0  0  0  0  0  0  0
  153.5771  140.6000  160.1406 C   0  0  0  0  0  0  0  0  0  0  0  0
  152.3169  142.7106  159.5789 C   0  0  0  0  0  0  0  0  0  0  0  0
  152.5143  143.4923  160.7298 C   0  0  0  0  0  0  0  0  0  0  0  0
  151.9225  144.7774  160.7466 C   0  0  0  0  0  0  0  0  0  0  0  0
  151.1650  145.2436  159.6406 C   0  0  0  0  0  0  0  0  0  0  0  0
  150.9827  144.4351  158.4942 C   0  0  0  0  0  0  0  0  0  0  0  0
  151.5801  143.1625  158.5041 C   0  0  0  0  0  0  0  0  0  0  0  0
  145.9894  142.7320  156.3063 C   0  0  0  0  0  0  0  0  0  0  0  0
  143.7226  142.7652  158.2556 H   0  0  0  0  0  0  0  0  0  0  0  0
  143.2595  144.3858  158.7827 H   0  0  0  0  0  0  0  0  0  0  0  0
  144.9684  143.9475  158.6971 H   0  0  0  0  0  0  0  0  0  0  0  0
  144.1906  144.5992  154.0692 H   0  0  0  0  0  0  0  0  0  0  0  0
  145.7558  143.5164  152.5007 H   0  0  0  0  0  0  0  0  0  0  0  0
  147.4716  141.9325  153.3340 H   0  0  0  0  0  0  0  0  0  0  0  0
  148.9113  140.2362  154.3013 H   0  0  0  0  0  0  0  0  0  0  0  0
  149.1641  141.9856  154.3506 H   0  0  0  0  0  0  0  0  0  0  0  0
  149.9356  140.3434  156.7660 H   0  0  0  0  0  0  0  0  0  0  0  0
  151.1702  139.2206  155.5328 H   0  0  0  0  0  0  0  0  0  0  0  0
  151.6277  142.5379  155.4678 H   0  0  0  0  0  0  0  0  0  0  0  0
  150.1855  143.0112  156.3056 H   0  0  0  0  0  0  0  0  0  0  0  0
  153.0176  140.3583  161.0447 H   0  0  0  0  0  0  0  0  0  0  0  0
  154.4817  141.1351  160.4310 H   0  0  0  0  0  0  0  0  0  0  0  0
  153.8776  139.6632  159.6696 H   0  0  0  0  0  0  0  0  0  0  0  0
  153.0937  143.1310  161.5665 H   0  0  0  0  0  0  0  0  0  0  0  0
  152.0497  145.4120  161.6113 H   0  0  0  0  0  0  0  0  0  0  0  0
  150.7224  146.2282  159.6739 H   0  0  0  0  0  0  0  0  0  0  0  0
  150.4093  144.7863  157.6492 H   0  0  0  0  0  0  0  0  0  0  0  0
  146.0539  142.5186  157.3613 H   0  0  0  0  0  0  0  0  0  0  0  0
  1  2  1  0  0  0  0
  1 26  1  0  0  0  0
  1 27  1  0  0  0  0
  1 28  1  0  0  0  0
  2  3  2  0  0  0  0
  2  4  1  0  0  0  0
  4 25  1  0  0  0  0
  4  5  2  0  0  0  0
  5  6  1  0  0  0  0
  5 29  1  0  0  0  0
  6  7  2  0  0  0  0
  6 30  1  0  0  0  0
  7  8  1  0  0  0  0
  7 31  1  0  0  0  0
  8  9  1  0  0  0  0
  8 25  2  0  0  0  0
  9 10  1  0  0  0  0
 10 11  1  0  0  0  0
 10 32  1  0  0  0  0
 10 33  1  0  0  0  0
 11 12  1  0  0  0  0
 11 13  1  0  0  0  0
 11 34  1  0  0  0  0
 12 35  1  0  0  0  0
 13 14  1  0  0  0  0
 13 36  1  0  0  0  0
 13 37  1  0  0  0  0
 14 24  1  0  0  0  0
 14 15  1  0  0  0  0
 15 16  2  0  0  0  0
 15 17  1  0  0  0  0
 17 18  1  0  0  0  0
 17 19  1  0  0  0  0
 18 38  1  0  0  0  0
 18 39  1  0  0  0  0
 18 40  1  0  0  0  0
 19 24  2  0  0  0  0
 19 20  1  0  0  0  0
 20 21  2  0  0  0  0
 20 41  1  0  0  0  0
 21 22  1  0  0  0  0
 21 42  1  0  0  0  0
 22 23  2  0  0  0  0
 22 43  1  0  0  0  0
 23 24  1  0  0  0  0
 23 44  1  0  0  0  0
 25 45  1  0  0  0  0
M  END
> <s_m_source_file>
AV-unprocessed.smi

> <i_m_source_file_index>
1051

> <i_lp_mmshare_version>
43012

> <i_f3d_flags>
0

> <s_epik_input>
W0NIM11DKD1PKWMxW2NIXVtjSF1bY0hdYyhbY0hdMSlPW0NIMl1bQ0BIXShbT0hdKVtDSDJdbihjKD1PKW4yW0NIM10pYyhjMjMpW2NIXVtjSF1bY0hdW2NIXTM=

> <s_epik_cmdline>
J2VwaWtfcHl0aG9uJywgJy1waCcsICc3LjAnLCAnLXRuJywgJzgnLCAnLW1hJywgJzIwMCcsICctbWV0YWxfYmluZGluZycsICctaW1hZScsICc8aW5maWxlLm1hZT4nLCAnLW9tYWUnLCAnPG91dGZpbGUubWFlPic=

> <r_lp_tautomer_probability>
1

> <r_epik_Ionization_Penalty>
2.40143e-06

> <r_epik_Ionization_Penalty_Charging>
2.1343e-09

> <r_epik_Ionization_Penalty_Neutral>
2.3993e-06

> <r_epik_State_Penalty>
-0

> <r_epik_Charging_Adjusted_Penalty>
2.1343e-09

> <i_epik_Tot_Q>
0

> <i_epik_Tot_abs_Q>
0

> <r_epik_Metal_State_Penalty>
-0

> <b_epik_Metal_Only>
0

> <s_lp_Force_Field>
OPLS_2005

> <r_lp_Energy>
51.4738

> <b_lp_Chiralities_Consistent>
1

> <s_lp_Variant>
AV-unprocessed.smi:1051-2

> <Gold.Version>
5.8.1

> <Gold.Id.Protein>
6NUR|6NUR_protein|mol2

> <Gold.PLP.Fitness>
56.5111

> <Gold.PLP.PLP>
-53.7591

> <Gold.PLP.part.hbond>
-2.0000

> <Gold.PLP.part.metal>
0.0000

> <Gold.PLP.part.buried>
-9.0021

> <Gold.PLP.part.nonpolar>
-41.8335

> <Gold.PLP.part.repulsive>
0.0973

> <Gold.PLP.ligand.clash>
0.0000

> <Gold.PLP.ligand.torsion>
1.7016

> <Gold.PLP.Chemscore.Hbond>
2.0000

> <Gold.PLP.Chemscore.CHOScore>
0.0000

> <Gold.PLP.Chemscore.Metal>
0.0000

> <Gold.Chemscore.Hbonds>
donor molecule, donor type, donor heavy atom, donor atom, acceptor molecule, acceptor atom, score
      P1  H  7989  7998       L1    12  1.00
      P1  H  7997  8008       L1    16  1.00

> <Gold.PLP.Chemscore.Internal.Correction>
0.1551

> <Gold.Rescore>
     Score         DG    S(hbond)    S(metal)    S(lipo)     H(rot)  DE(clash)    DE(int)     intcor
     16.57     -20.70       1.81        0.00     128.61       2.30       0.04       4.09       ----

> <Gold.Chemscore.Fitness>
16.5670

> <Gold.Chemscore.DG>
-20.7016

> <Gold.Chemscore.ZeroCoef>
-5.4800

> <Gold.Chemscore.Hbond>
1.8137

> <Gold.Chemscore.Metal>
0.0000

> <Gold.Chemscore.Lipo>
128.6122

> <Gold.Chemscore.Internal_Hbond>
0.0000

> <Gold.Chemscore.DEClash>
0.0417

> <Gold.Chemscore.DEInternal>
4.0929

> <Gold.Chemscore.Rot>
2.2984

> <Gold.Chemscore.Internal.Correction>
   9.000000E+99

> <Gold.Chemscore.Hbonds>
donor molecule, donor type, donor heavy atom, donor atom, acceptor molecule, acceptor atom, score
      P1  H  7989  7998       L1    12  0.81
      P1  H  7997  8008       L1    16  0.67

> <Gold.Chemscore.Hbond.Weighted>
-6.0579

> <Gold.Chemscore.Metal.Weighted>
-0.0000

> <Gold.Chemscore.Lipo.Weighted>
-15.0476

> <Gold.Chemscore.Internal_Hbond.Weighted>
0.0000

> <Gold.Chemscore.DEClash.Weighted>
0.0417

> <Gold.Chemscore.DEInternal.Weighted>
4.0929

> <Gold.Chemscore.Rot.Weighted>
5.8839

> <Gold.Chemscore.Internal.Correction.Weighted>
   9.000000E+99

> <Gold.Protein.RotatedTorsions>
[ 6907 6896 6895 6894 ] final  -88.46 input  -60.11 | X-H torsion
[ 7974 7965 7964 7962 ] final   91.06 input  175.53 | X-H torsion
[ 8008 7997 7996 7995 ] final  -62.55 input   59.86 | X-H torsion
[ 10167 10162 10161 10158 ] final  102.63 input  -65.29 | X-H torsion
[ 10718 10713 10712 10709 ] final  151.76 input   66.30 | X-H torsion
[ 10763 10752 10751 10750 ] final   60.58 input  -60.55 | X-H torsion
[ 11005 11000 10999 10996 ] final  -40.58 input  -57.11 | X-H torsion

> <Gold.Protein.ActiveResidues>
 VAL166  LYS551  ARG553  GLY616  TRP617  ASP618  TYR619  PRO620  LYS621  CYS622 
 ASP623  PHE694  ASN695  SER759  ASP760  ASP761  ALA762  ILE779  LEU786  VAL792 
 PHE793  MET794  SER795  GLU796  ALA797  LYS798  CYS799  TRP800  GLU811  SER814 

> <Gold.Protein.RotatedAtoms>
  150.6869  134.2738  159.4598 H   0  0  0  0  0  0  0  0  0  0  0  0  # atno 6907 bound_to 6896
  152.0658  134.9563  160.0584 H   0  0  0  0  0  0  0  0  0  0  0  0  # atno 6908 bound_to 6896
  152.0972  133.4196  159.4607 H   0  0  0  0  0  0  0  0  0  0  0  0  # atno 6909 bound_to 6896
  145.5107  139.2277  143.2726 H   0  0  0  0  0  0  0  0  0  0  0  0  # atno 7974 bound_to 7965
  154.4506  140.0994  156.6604 H   0  0  0  0  0  0  0  0  0  0  0  0  # atno 8008 bound_to 7997
  155.5299  140.3481  155.4405 H   0  0  0  0  0  0  0  0  0  0  0  0  # atno 8009 bound_to 7997
  156.0672  140.1340  156.9861 H   0  0  0  0  0  0  0  0  0  0  0  0  # atno 8010 bound_to 7997
  139.7333  144.7030  151.0688 H   0  0  0  0  0  0  0  0  0  0  0  0  # atno 10167 bound_to 10162
  157.2665  131.0808  151.1629 H   0  0  0  0  0  0  0  0  0  0  0  0  # atno 10718 bound_to 10713
  152.9925  135.5531  154.5897 H   0  0  0  0  0  0  0  0  0  0  0  0  # atno 10763 bound_to 10752
  154.5261  135.2810  155.1223 H   0  0  0  0  0  0  0  0  0  0  0  0  # atno 10764 bound_to 10752
  154.2557  135.6390  153.5309 H   0  0  0  0  0  0  0  0  0  0  0  0  # atno 10765 bound_to 10752
  141.0185  133.6874  156.2341 H   0  0  0  0  0  0  0  0  0  0  0  0  # atno 11005 bound_to 11000
  146.2168  140.5914  142.9035 LP  0  0  0  0  0  0  0  0  0  0  0  0  # atno 17320 bound_to 7965
  144.7729  140.5676  143.6658 LP  0  0  0  0  0  0  0  0  0  0  0  0  # atno 17321 bound_to 7965
  140.7775  143.5015  150.9765 LP  0  0  0  0  0  0  0  0  0  0  0  0  # atno 17342 bound_to 10162
  139.8704  143.7200  152.3167 LP  0  0  0  0  0  0  0  0  0  0  0  0  # atno 17343 bound_to 10162
  157.3118  130.6894  149.6220 LP  0  0  0  0  0  0  0  0  0  0  0  0  # atno 17370 bound_to 10713
  155.9663  130.4361  150.5120 LP  0  0  0  0  0  0  0  0  0  0  0  0  # atno 17371 bound_to 10713
  140.6614  134.4964  157.5583 LP  0  0  0  0  0  0  0  0  0  0  0  0  # atno 17394 bound_to 11000
  139.9131  134.8302  156.1458 LP  0  0  0  0  0  0  0  0  0  0  0  0  # atno 17395 bound_to 11000

$$$$
