AV-unprocessed.smi:1475|AV-procd|sdf|5976|dock10
  -GOLD-   22720 6 63D 1   1.00000     0.00000
 Structure written by MMmdl.
 50 51  0  0  0  0  0  0  0  0  2 V2000
  147.5927  141.0884  153.8421 C   0  0  0  0  0  0  0  0  0  0  0  0
  148.8732  140.5926  154.4460 C   0  0  0  0  0  0  0  0  0  0  0  0
  149.6380  141.1797  155.4922 C   0  0  0  0  0  0  0  0  0  0  0  0
  150.6977  140.3324  155.6525 C   0  0  0  0  0  0  0  0  0  0  0  0
  151.8509  140.4036  156.5986 C   0  0  0  0  0  0  0  0  0  0  0  0
  150.5363  139.3097  154.7344 N   0  0  0  0  0  0  0  0  0  0  0  0
  151.3769  138.1468  154.4982 C   0  0  0  0  0  0  0  0  0  0  0  0
  150.6857  136.8665  154.9689 C   0  0  0  0  0  0  0  0  0  0  0  0
  151.3158  136.0243  155.6082 O   0  0  0  0  0  0  0  0  0  0  0  0
  149.3882  136.7337  154.6514 N   0  0  0  0  0  0  0  0  0  0  0  0
  148.5397  135.6149  155.0438 C   0  0  0  0  0  0  0  0  0  0  0  0
  147.0972  135.7795  154.5242 C   0  0  0  0  0  0  0  0  0  0  0  0
  146.8451  135.0137  153.2769 N   0  3  1  0  0  0  0  0  0  0  0  0
  146.6966  133.5585  153.5397 C   0  0  0  0  0  0  0  0  0  0  0  0
  146.5794  132.7560  152.2293 C   0  0  1  0  0  0  0  0  0  0  0  0
  146.4339  131.2521  152.5025 C   0  0  0  0  0  0  0  0  0  0  0  0
  145.4111  133.2876  151.3827 C   0  0  0  0  0  0  0  0  0  0  0  0
  145.5605  134.7985  151.1405 C   0  0  1  0  0  0  0  0  0  0  0  0
  144.3917  135.3521  150.3133 C   0  0  0  0  0  0  0  0  0  0  0  0
  145.7032  135.5417  152.4828 C   0  0  0  0  0  0  0  0  0  0  0  0
  149.4157  139.4726  153.9968 N   0  0  0  0  0  0  0  0  0  0  0  0
  147.2906  142.0373  154.2856 H   0  0  0  0  0  0  0  0  0  0  0  0
  146.7826  140.3761  153.9997 H   0  0  0  0  0  0  0  0  0  0  0  0
  147.6987  141.2437  152.7681 H   0  0  0  0  0  0  0  0  0  0  0  0
  149.4386  142.0872  156.0429 H   0  0  0  0  0  0  0  0  0  0  0  0
  151.7645  141.2722  157.2515 H   0  0  0  0  0  0  0  0  0  0  0  0
  152.7934  140.4842  156.0571 H   0  0  0  0  0  0  0  0  0  0  0  0
  151.8944  139.5152  157.2286 H   0  0  0  0  0  0  0  0  0  0  0  0
  151.6142  138.0811  153.4350 H   0  0  0  0  0  0  0  0  0  0  0  0
  152.3234  138.2740  155.0245 H   0  0  0  0  0  0  0  0  0  0  0  0
  148.9514  137.4810  154.1302 H   0  0  0  0  0  0  0  0  0  0  0  0
  148.9949  134.6918  154.6844 H   0  0  0  0  0  0  0  0  0  0  0  0
  148.5382  135.5579  156.1327 H   0  0  0  0  0  0  0  0  0  0  0  0
  146.4190  135.4295  155.3039 H   0  0  0  0  0  0  0  0  0  0  0  0
  146.8551  136.8298  154.3562 H   0  0  0  0  0  0  0  0  0  0  0  0
  147.5614  133.2009  154.1004 H   0  0  0  0  0  0  0  0  0  0  0  0
  145.8206  133.3907  154.1686 H   0  0  0  0  0  0  0  0  0  0  0  0
  147.5009  132.8986  151.6625 H   0  0  0  0  0  0  0  0  0  0  0  0
  145.5238  131.0362  153.0630 H   0  0  0  0  0  0  0  0  0  0  0  0
  147.2779  130.8736  153.0798 H   0  0  0  0  0  0  0  0  0  0  0  0
  146.3928  130.6861  151.5714 H   0  0  0  0  0  0  0  0  0  0  0  0
  145.3726  132.7599  150.4288 H   0  0  0  0  0  0  0  0  0  0  0  0
  144.4654  133.0855  151.8881 H   0  0  0  0  0  0  0  0  0  0  0  0
  146.4739  134.9611  150.5663 H   0  0  0  0  0  0  0  0  0  0  0  0
  143.4407  135.2201  150.8304 H   0  0  0  0  0  0  0  0  0  0  0  0
  144.3190  134.8469  149.3498 H   0  0  0  0  0  0  0  0  0  0  0  0
  144.5186  136.4171  150.1168 H   0  0  0  0  0  0  0  0  0  0  0  0
  144.7843  135.4533  153.0648 H   0  0  0  0  0  0  0  0  0  0  0  0
  145.8443  136.6023  152.2795 H   0  0  0  0  0  0  0  0  0  0  0  0
  147.6729  135.1138  152.7070 H   0  0  0  0  0  0  0  0  0  0  0  0
  1  2  1  0  0  0  0
  1 22  1  0  0  0  0
  1 23  1  0  0  0  0
  1 24  1  0  0  0  0
  2 21  2  0  0  0  0
  2  3  1  0  0  0  0
  3  4  2  0  0  0  0
  3 25  1  0  0  0  0
  4  5  1  0  0  0  0
  4  6  1  0  0  0  0
  5 26  1  0  0  0  0
  5 27  1  0  0  0  0
  5 28  1  0  0  0  0
  6  7  1  0  0  0  0
  6 21  1  0  0  0  0
  7  8  1  0  0  0  0
  7 29  1  0  0  0  0
  7 30  1  0  0  0  0
  8  9  2  0  0  0  0
  8 10  1  0  0  0  0
 10 11  1  0  0  0  0
 10 31  1  0  0  0  0
 11 12  1  0  0  0  0
 11 32  1  0  0  0  0
 11 33  1  0  0  0  0
 12 13  1  0  0  0  0
 12 34  1  0  0  0  0
 12 35  1  0  0  0  0
 13 20  1  0  0  0  0
 13 14  1  0  0  0  0
 13 50  1  0  0  0  0
 14 15  1  0  0  0  0
 14 36  1  0  0  0  0
 14 37  1  0  0  0  0
 15 16  1  0  0  0  0
 15 17  1  0  0  0  0
 15 38  1  0  0  0  0
 16 39  1  0  0  0  0
 16 40  1  0  0  0  0
 16 41  1  0  0  0  0
 17 18  1  0  0  0  0
 17 42  1  0  0  0  0
 17 43  1  0  0  0  0
 18 19  1  0  0  0  0
 18 20  1  0  0  0  0
 18 44  1  0  0  0  0
 19 45  1  0  0  0  0
 19 46  1  0  0  0  0
 19 47  1  0  0  0  0
 20 48  1  0  0  0  0
 20 49  1  0  0  0  0
M  CHG  1  13   1
M  END
> <s_m_source_file>
AV-unprocessed.smi

> <i_m_source_file_index>
1475

> <i_lp_mmshare_version>
43012

> <i_f3d_flags>
0

> <s_epik_input>
W0NIM11jMVtjSF1jKFtDSDNdKW4objEpW0NIMl1DKD1PKVtOSF1bQ0gyXVtDSDJdTjJbQ0gyXVtDQEBIXShbQ0gzXSlbQ0gyXVtDQEBIXShbQ0gzXSlbQ0gyXTI=

> <s_epik_cmdline>
J2VwaWtfcHl0aG9uJywgJy1waCcsICc3LjAnLCAnLXRuJywgJzgnLCAnLW1hJywgJzIwMCcsICctbWV0YWxfYmluZGluZycsICctaW1hZScsICc8aW5maWxlLm1hZT4nLCAnLW9tYWUnLCAnPG91dGZpbGUubWFlPic=

> <r_lp_tautomer_probability>
1

> <r_epik_Ionization_Penalty>
0.00206431

> <r_epik_Ionization_Penalty_Charging>
0.00187095

> <r_epik_Ionization_Penalty_Neutral>
0.000193364

> <r_epik_State_Penalty>
-0

> <r_epik_Charging_Adjusted_Penalty>
0.00187095

> <i_epik_Tot_Q>
1

> <i_epik_Tot_abs_Q>
1

> <r_epik_Metal_State_Penalty>
-0

> <b_epik_Metal_Only>
0

> <s_lp_Force_Field>
OPLS_2005

> <r_lp_Energy>
13.7816

> <b_lp_Chiralities_Consistent>
1

> <s_lp_Variant>
AV-unprocessed.smi:1475-1

> <Gold.Version>
5.8.1

> <Gold.Id.Protein>
6NUR|6NUR_protein|mol2

> <Gold.PLP.Fitness>
45.6965

> <Gold.PLP.PLP>
-38.1390

> <Gold.PLP.part.hbond>
-3.0000

> <Gold.PLP.part.metal>
0.0000

> <Gold.PLP.part.buried>
-3.5589

> <Gold.PLP.part.nonpolar>
-32.3204

> <Gold.PLP.part.repulsive>
1.9794

> <Gold.PLP.ligand.clash>
0.0000

> <Gold.PLP.ligand.torsion>
0.7407

> <Gold.PLP.Chemscore.Hbond>
3.0000

> <Gold.PLP.Chemscore.CHOScore>
0.0000

> <Gold.PLP.Chemscore.Metal>
0.0000

> <Gold.Chemscore.Hbonds>
donor molecule, donor type, donor heavy atom, donor atom, acceptor molecule, acceptor atom, score
      L1  H    13    50       P1  7948  2.00
      P1  H 10752 10763       L1     9  1.00

> <Gold.PLP.Chemscore.Internal.Correction>
0.0388

> <Gold.Rescore>
     Score         DG    S(hbond)    S(metal)    S(lipo)     H(rot)  DE(clash)    DE(int)     intcor
     15.05     -17.43       1.95        0.00      82.46       1.64       0.29       2.10       ----

> <Gold.Chemscore.Fitness>
15.0454

> <Gold.Chemscore.DG>
-17.4330

> <Gold.Chemscore.ZeroCoef>
-5.4800

> <Gold.Chemscore.Hbond>
1.9472

> <Gold.Chemscore.Metal>
0.0000

> <Gold.Chemscore.Lipo>
82.4560

> <Gold.Chemscore.Internal_Hbond>
0.0000

> <Gold.Chemscore.DEClash>
0.2859

> <Gold.Chemscore.DEInternal>
2.1017

> <Gold.Chemscore.Rot>
1.6399

> <Gold.Chemscore.Internal.Correction>
   9.000000E+99

> <Gold.Chemscore.Hbonds>
donor molecule, donor type, donor heavy atom, donor atom, acceptor molecule, acceptor atom, score
      L1  H    13    50       P1  7948  0.95
      P1  H 10752 10763       L1     9  0.59

> <Gold.Chemscore.Hbond.Weighted>
-6.5038

> <Gold.Chemscore.Metal.Weighted>
-0.0000

> <Gold.Chemscore.Lipo.Weighted>
-9.6474

> <Gold.Chemscore.Internal_Hbond.Weighted>
0.0000

> <Gold.Chemscore.DEClash.Weighted>
0.2859

> <Gold.Chemscore.DEInternal.Weighted>
2.1017

> <Gold.Chemscore.Rot.Weighted>
4.1982

> <Gold.Chemscore.Internal.Correction.Weighted>
   9.000000E+99

> <Gold.Protein.RotatedTorsions>
[ 6907 6896 6895 6894 ] final -142.37 input  -60.11 | X-H torsion
[ 7974 7965 7964 7962 ] final   46.43 input  175.53 | X-H torsion
[ 8008 7997 7996 7995 ] final -130.33 input   59.86 | X-H torsion
[ 10167 10162 10161 10158 ] final  144.28 input  -65.29 | X-H torsion
[ 10718 10713 10712 10709 ] final   -0.33 input   66.30 | X-H torsion
[ 10763 10752 10751 10750 ] final   56.96 input  -60.55 | X-H torsion
[ 11005 11000 10999 10996 ] final -109.27 input  -57.11 | X-H torsion

> <Gold.Protein.ActiveResidues>
 VAL166  LYS551  ARG553  GLY616  TRP617  ASP618  TYR619  PRO620  LYS621  CYS622 
 ASP623  PHE694  ASN695  SER759  ASP760  ASP761  ALA762  ILE779  LEU786  VAL792 
 PHE793  MET794  SER795  GLU796  ALA797  LYS798  CYS799  TRP800  GLU811  SER814 

> <Gold.Protein.RotatedAtoms>
  151.0862  133.5351  159.2617 H   0  0  0  0  0  0  0  0  0  0  0  0  # atno 6907 bound_to 6896
  151.2236  135.0527  159.8969 H   0  0  0  0  0  0  0  0  0  0  0  0  # atno 6908 bound_to 6896
  152.5429  134.0661  159.8227 H   0  0  0  0  0  0  0  0  0  0  0  0  # atno 6909 bound_to 6896
  146.0390  139.4856  142.9790 H   0  0  0  0  0  0  0  0  0  0  0  0  # atno 7974 bound_to 7965
  155.2940  140.0449  157.3025 H   0  0  0  0  0  0  0  0  0  0  0  0  # atno 8008 bound_to 7997
  154.5524  140.2321  155.8430 H   0  0  0  0  0  0  0  0  0  0  0  0  # atno 8009 bound_to 7997
  156.1979  140.3033  155.9471 H   0  0  0  0  0  0  0  0  0  0  0  0  # atno 8010 bound_to 7997
  139.4950  144.5983  151.6536 H   0  0  0  0  0  0  0  0  0  0  0  0  # atno 10167 bound_to 10162
  156.8220  130.5459  149.5696 H   0  0  0  0  0  0  0  0  0  0  0  0  # atno 10718 bound_to 10713
  152.9841  135.5658  154.5313 H   0  0  0  0  0  0  0  0  0  0  0  0  # atno 10763 bound_to 10752
  154.4784  135.2787  155.1591 H   0  0  0  0  0  0  0  0  0  0  0  0  # atno 10764 bound_to 10752
  154.3110  135.6288  153.5519 H   0  0  0  0  0  0  0  0  0  0  0  0  # atno 10765 bound_to 10752
  141.0856  133.9144  157.2192 H   0  0  0  0  0  0  0  0  0  0  0  0  # atno 11005 bound_to 11000
  145.6916  141.0162  143.1552 LP  0  0  0  0  0  0  0  0  0  0  0  0  # atno 17320 bound_to 7965
  144.7065  139.8539  143.7428 LP  0  0  0  0  0  0  0  0  0  0  0  0  # atno 17321 bound_to 7965
  140.5626  144.0243  150.6177 LP  0  0  0  0  0  0  0  0  0  0  0  0  # atno 17342 bound_to 10162
  140.3334  143.3064  152.0664 LP  0  0  0  0  0  0  0  0  0  0  0  0  # atno 17343 bound_to 10162
  156.0983  130.5949  150.9851 LP  0  0  0  0  0  0  0  0  0  0  0  0  # atno 17370 bound_to 10713
  157.6452  131.0905  150.8169 LP  0  0  0  0  0  0  0  0  0  0  0  0  # atno 17371 bound_to 10713
  139.9674  135.0138  156.9424 LP  0  0  0  0  0  0  0  0  0  0  0  0  # atno 17394 bound_to 11000
  140.5369  134.0758  155.7331 LP  0  0  0  0  0  0  0  0  0  0  0  0  # atno 17395 bound_to 11000

$$$$
