AV-unprocessed.smi:1464|AV-procd|sdf|5935|dock3
  -GOLD-   22720 6 13D 1   1.00000     0.00000
 Structure written by MMmdl.
 40 41  0  0  0  0  0  0  0  0  2 V2000
  151.5319  145.7130  160.7119 C   0  0  0  0  0  0  0  0  0  0  0  0
  151.7417  144.2157  160.4237 C   0  0  2  0  0  0  0  0  0  0  0  0
  152.4243  143.5425  161.6323 C   0  0  0  0  0  0  0  0  0  0  0  0
  152.6495  142.0405  161.4111 C   0  0  0  0  0  0  0  0  0  0  0  0
  153.4494  141.7849  160.1246 C   0  0  0  0  0  0  0  0  0  0  0  0
  152.7844  142.4339  158.8968 C   0  0  1  0  0  0  0  0  0  0  0  0
  151.5390  141.7293  158.5861 N   0  0  0  0  0  0  0  0  0  0  0  0
  150.8684  141.7699  157.4243 C   0  0  0  0  0  0  0  0  0  0  0  0
  151.2515  142.4025  156.4396 O   0  0  0  0  0  0  0  0  0  0  0  0
  149.5674  140.9582  157.3704 C   0  0  0  0  0  0  0  0  0  0  0  0
  148.7659  141.2477  156.1733 N   0  0  0  0  0  0  0  0  0  0  0  0
  147.4288  141.7577  156.4629 N   0  5  0  0  0  0  0  0  0  0  0  0
  146.5899  142.0400  155.4309 C   0  0  0  0  0  0  0  0  0  0  0  0
  145.4437  142.4505  155.5968 O   0  0  0  0  0  0  0  0  0  0  0  0
  147.0822  141.8487  154.0766 C   0  0  0  0  0  0  0  0  0  0  0  0
  148.3308  141.4014  153.8385 C   0  0  0  0  0  0  0  0  0  0  0  0
  149.2605  141.0775  154.9134 C   0  0  0  0  0  0  0  0  0  0  0  0
  150.4067  140.6794  154.7024 O   0  0  0  0  0  0  0  0  0  0  0  0
  152.5541  143.9538  159.1246 C   0  0  1  0  0  0  0  0  0  0  0  0
  151.9477  144.6382  157.8829 C   0  0  0  0  0  0  0  0  0  0  0  0
  152.4826  146.2443  160.7637 H   0  0  0  0  0  0  0  0  0  0  0  0
  151.0178  145.8605  161.6620 H   0  0  0  0  0  0  0  0  0  0  0  0
  150.9201  146.1896  159.9464 H   0  0  0  0  0  0  0  0  0  0  0  0
  150.7535  143.7686  160.3061 H   0  0  0  0  0  0  0  0  0  0  0  0
  153.3833  144.0250  161.8263 H   0  0  0  0  0  0  0  0  0  0  0  0
  151.8215  143.6875  162.5294 H   0  0  0  0  0  0  0  0  0  0  0  0
  153.1783  141.6162  162.2650 H   0  0  0  0  0  0  0  0  0  0  0  0
  151.6882  141.5280  161.3609 H   0  0  0  0  0  0  0  0  0  0  0  0
  154.4555  142.1891  160.2428 H   0  0  0  0  0  0  0  0  0  0  0  0
  153.5708  140.7123  159.9668 H   0  0  0  0  0  0  0  0  0  0  0  0
  153.4753  142.3142  158.0603 H   0  0  0  0  0  0  0  0  0  0  0  0
  151.1389  141.1787  159.3317 H   0  0  0  0  0  0  0  0  0  0  0  0
  149.8305  139.8998  157.4123 H   0  0  0  0  0  0  0  0  0  0  0  0
  148.9673  141.1467  158.2628 H   0  0  0  0  0  0  0  0  0  0  0  0
  146.4334  142.0734  153.2428 H   0  0  0  0  0  0  0  0  0  0  0  0
  148.6557  141.2760  152.8162 H   0  0  0  0  0  0  0  0  0  0  0  0
  153.5404  144.3988  159.2661 H   0  0  0  0  0  0  0  0  0  0  0  0
  150.9022  144.3646  157.7415 H   0  0  0  0  0  0  0  0  0  0  0  0
  152.4898  144.3587  156.9792 H   0  0  0  0  0  0  0  0  0  0  0  0
  151.9988  145.7240  157.9573 H   0  0  0  0  0  0  0  0  0  0  0  0
  1  2  1  0  0  0  0
  1 21  1  0  0  0  0
  1 22  1  0  0  0  0
  1 23  1  0  0  0  0
  2 19  1  0  0  0  0
  2  3  1  0  0  0  0
  2 24  1  0  0  0  0
  3  4  1  0  0  0  0
  3 25  1  0  0  0  0
  3 26  1  0  0  0  0
  4  5  1  0  0  0  0
  4 27  1  0  0  0  0
  4 28  1  0  0  0  0
  5  6  1  0  0  0  0
  5 29  1  0  0  0  0
  5 30  1  0  0  0  0
  6  7  1  0  0  0  0
  6 19  1  0  0  0  0
  6 31  1  0  0  0  0
  7  8  1  0  0  0  0
  7 32  1  0  0  0  0
  8  9  2  0  0  0  0
  8 10  1  0  0  0  0
 10 33  1  0  0  0  0
 10 34  1  0  0  0  0
 10 11  1  0  0  0  0
 11 12  1  0  0  0  0
 11 17  1  0  0  0  0
 12 13  1  0  0  0  0
 13 14  2  0  0  0  0
 13 15  1  0  0  0  0
 15 35  1  0  0  0  0
 15 16  2  0  0  0  0
 16 36  1  0  0  0  0
 16 17  1  0  0  0  0
 17 18  2  0  0  0  0
 19 20  1  0  0  0  0
 19 37  1  0  0  0  0
 20 38  1  0  0  0  0
 20 39  1  0  0  0  0
 20 40  1  0  0  0  0
M  CHG  1  12  -1
M  END
> <s_m_source_file>
AV-unprocessed.smi

> <i_m_source_file_index>
1464

> <i_lp_mmshare_version>
43012

> <i_f3d_flags>
0

> <s_epik_input>
W0NIM11bQ0BASF0xW0NIMl1bQ0gyXVtDSDJdW0NASF0oW0NASF0xW0NIM10pW05IXUMoPU8pW0NIMl1uMltuSF1jKD1PKVtjSF1bY0hdYzI9Tw==

> <s_epik_cmdline>
J2VwaWtfcHl0aG9uJywgJy1waCcsICc3LjAnLCAnLXRuJywgJzgnLCAnLW1hJywgJzIwMCcsICctbWV0YWxfYmluZGluZycsICctaW1hZScsICc8aW5maWxlLm1hZT4nLCAnLW9tYWUnLCAnPG91dGZpbGUubWFlPic=

> <r_lp_tautomer_probability>
1

> <r_epik_Ionization_Penalty>
0.101366

> <r_epik_Ionization_Penalty_Charging>
0.101366

> <r_epik_Ionization_Penalty_Neutral>
1.90469e-08

> <r_epik_State_Penalty>
0.035861

> <r_epik_Charging_Adjusted_Penalty>
0.137227

> <i_epik_Tot_Q>
-1

> <i_epik_Tot_abs_Q>
1

> <r_epik_Metal_State_Penalty>
0.035861

> <b_epik_Metal_Only>
0

> <s_lp_Force_Field>
OPLS_2005

> <r_lp_Energy>
26.1624

> <b_lp_Chiralities_Consistent>
1

> <s_lp_Variant>
AV-unprocessed.smi:1464-1

> <Gold.Version>
5.8.1

> <Gold.Id.Protein>
6NUR|6NUR_protein|mol2

> <Gold.PLP.Fitness>
47.8689

> <Gold.PLP.PLP>
-45.6360

> <Gold.PLP.part.hbond>
-1.0000

> <Gold.PLP.part.metal>
0.0000

> <Gold.PLP.part.buried>
-4.4348

> <Gold.PLP.part.nonpolar>
-41.0088

> <Gold.PLP.part.repulsive>
0.5819

> <Gold.PLP.ligand.clash>
0.0000

> <Gold.PLP.ligand.torsion>
0.3282

> <Gold.PLP.Chemscore.Hbond>
0.9600

> <Gold.PLP.Chemscore.CHOScore>
0.0000

> <Gold.PLP.Chemscore.Metal>
0.0000

> <Gold.Chemscore.Hbonds>
donor molecule, donor type, donor heavy atom, donor atom, acceptor molecule, acceptor atom, score
      P1  H  7989  7998       L1    18  0.88

> <Gold.PLP.Chemscore.Internal.Correction>
0.0093

> <Gold.Rescore>
     Score         DG    S(hbond)    S(metal)    S(lipo)     H(rot)  DE(clash)    DE(int)     intcor
     12.25     -17.68       0.87        0.00     115.49       1.64       0.51       4.93       ----

> <Gold.Chemscore.Fitness>
12.2451

> <Gold.Chemscore.DG>
-17.6817

> <Gold.Chemscore.ZeroCoef>
-5.4800

> <Gold.Chemscore.Hbond>
0.8676

> <Gold.Chemscore.Metal>
0.0000

> <Gold.Chemscore.Lipo>
115.4870

> <Gold.Chemscore.Internal_Hbond>
0.0000

> <Gold.Chemscore.DEClash>
0.5086

> <Gold.Chemscore.DEInternal>
4.9280

> <Gold.Chemscore.Rot>
1.6438

> <Gold.Chemscore.Internal.Correction>
   9.000000E+99

> <Gold.Chemscore.Hbonds>
donor molecule, donor type, donor heavy atom, donor atom, acceptor molecule, acceptor atom, score
      P1  H  7989  7998       L1    18  0.87

> <Gold.Chemscore.Hbond.Weighted>
-2.8977

> <Gold.Chemscore.Metal.Weighted>
-0.0000

> <Gold.Chemscore.Lipo.Weighted>
-13.5120

> <Gold.Chemscore.Internal_Hbond.Weighted>
0.0000

> <Gold.Chemscore.DEClash.Weighted>
0.5086

> <Gold.Chemscore.DEInternal.Weighted>
4.9280

> <Gold.Chemscore.Rot.Weighted>
4.2080

> <Gold.Chemscore.Internal.Correction.Weighted>
   9.000000E+99

> <Gold.Protein.RotatedTorsions>
[ 6907 6896 6895 6894 ] final  -53.44 input  -60.11 | X-H torsion
[ 7974 7965 7964 7962 ] final  137.25 input  175.53 | X-H torsion
[ 8008 7997 7996 7995 ] final  177.68 input   59.86 | X-H torsion
[ 10167 10162 10161 10158 ] final  134.94 input  -65.29 | X-H torsion
[ 10718 10713 10712 10709 ] final  156.74 input   66.30 | X-H torsion
[ 10763 10752 10751 10750 ] final  -62.16 input  -60.55 | X-H torsion
[ 11005 11000 10999 10996 ] final  -96.20 input  -57.11 | X-H torsion

> <Gold.Protein.ActiveResidues>
 VAL166  LYS551  ARG553  GLY616  TRP617  ASP618  TYR619  PRO620  LYS621  CYS622 
 ASP623  PHE694  ASN695  SER759  ASP760  ASP761  ALA762  ILE779  LEU786  VAL792 
 PHE793  MET794  SER795  GLU796  ALA797  LYS798  CYS799  TRP800  GLU811  SER814 

> <Gold.Protein.RotatedAtoms>
  150.8426  134.7724  159.6944 H   0  0  0  0  0  0  0  0  0  0  0  0  # atno 6907 bound_to 6896
  152.4510  134.5389  159.9843 H   0  0  0  0  0  0  0  0  0  0  0  0  # atno 6908 bound_to 6896
  151.5526  133.3377  159.2991 H   0  0  0  0  0  0  0  0  0  0  0  0  # atno 6909 bound_to 6896
  144.9485  139.4846  143.5537 H   0  0  0  0  0  0  0  0  0  0  0  0  # atno 7974 bound_to 7965
  156.0630  140.1352  156.9918 H   0  0  0  0  0  0  0  0  0  0  0  0  # atno 8008 bound_to 7997
  154.4492  140.0987  156.6617 H   0  0  0  0  0  0  0  0  0  0  0  0  # atno 8009 bound_to 7997
  155.5347  140.3459  155.4436 H   0  0  0  0  0  0  0  0  0  0  0  0  # atno 8010 bound_to 7997
  139.5236  144.6542  151.5212 H   0  0  0  0  0  0  0  0  0  0  0  0  # atno 10167 bound_to 10162
  157.2008  131.0676  151.2026 H   0  0  0  0  0  0  0  0  0  0  0  0  # atno 10718 bound_to 10713
  154.2956  135.6245  153.5403 H   0  0  0  0  0  0  0  0  0  0  0  0  # atno 10763 bound_to 10752
  152.9847  135.5666  154.5341 H   0  0  0  0  0  0  0  0  0  0  0  0  # atno 10764 bound_to 10752
  154.4961  135.2869  155.1434 H   0  0  0  0  0  0  0  0  0  0  0  0  # atno 10765 bound_to 10752
  141.1419  133.8080  157.0539 H   0  0  0  0  0  0  0  0  0  0  0  0  # atno 11005 bound_to 11000
  146.3312  139.8555  142.8865 LP  0  0  0  0  0  0  0  0  0  0  0  0  # atno 17320 bound_to 7965
  145.2880  141.0158  143.3679 LP  0  0  0  0  0  0  0  0  0  0  0  0  # atno 17321 bound_to 7965
  140.6360  143.8983  150.6648 LP  0  0  0  0  0  0  0  0  0  0  0  0  # atno 17342 bound_to 10162
  140.2302  143.3741  152.1572 LP  0  0  0  0  0  0  0  0  0  0  0  0  # atno 17343 bound_to 10162
  157.3768  130.7210  149.6603 LP  0  0  0  0  0  0  0  0  0  0  0  0  # atno 17370 bound_to 10713
  155.9700  130.4183  150.4322 LP  0  0  0  0  0  0  0  0  0  0  0  0  # atno 17371 bound_to 10713
  140.0614  134.9752  157.1312 LP  0  0  0  0  0  0  0  0  0  0  0  0  # atno 17394 bound_to 11000
  140.3842  134.2254  155.7169 LP  0  0  0  0  0  0  0  0  0  0  0  0  # atno 17395 bound_to 11000

$$$$
