AV-unprocessed.smi:3331|AV-procd|sdf|12820|dock2
  -GOLD-   2272019193D 1   1.00000     0.00000
 Structure written by MMmdl.
 47 48  0  0  0  0  0  0  0  0  2 V2000
  150.2897  140.1453  156.8676 C   0  0  0  0  0  0  0  0  0  0  0  0
  150.4823  140.5240  155.3883 C   0  0  2  0  0  0  0  0  0  0  0  0
  149.4629  141.5863  154.9192 C   0  0  0  0  0  0  0  0  0  0  0  0
  148.0576  140.9989  154.6582 C   0  0  1  0  0  0  0  0  0  0  0  0
  147.1107  142.0518  154.0654 C   0  0  0  0  0  0  0  0  0  0  0  0
  148.1584  139.7532  153.7537 C   0  0  0  0  0  0  0  0  0  0  0  0
  149.0648  138.7772  154.3749 N   0  0  0  0  0  0  0  0  0  0  0  0
  148.6286  137.5908  154.8714 C   0  0  0  0  0  0  0  0  0  0  0  0
  149.3872  136.8086  155.4461 O   0  0  0  0  0  0  0  0  0  0  0  0
  147.1410  137.2056  154.7411 C   0  0  1  0  0  0  0  0  0  0  0  0
  146.2191  138.2008  155.4767 C   0  0  0  0  0  0  0  0  0  0  0  0
  146.7782  137.1115  153.3093 N   0  3  0  0  0  0  0  0  0  0  0  0
  145.9063  135.9738  152.9540 C   0  0  0  0  0  0  0  0  0  0  0  0
  145.5977  135.9699  151.4503 C   0  0  0  0  0  0  0  0  0  0  0  0
  145.5177  134.6220  150.9222 N   0  0  0  0  0  0  0  0  0  0  0  0
  144.4683  134.0195  150.2604 C   0  0  0  0  0  0  0  0  0  0  0  0
  144.8589  132.7473  149.9551 C   0  0  0  0  0  0  0  0  0  0  0  0
  146.1812  132.6648  150.4745 C   0  0  0  0  0  0  0  0  0  0  0  0
  146.5733  133.7896  151.0513 N   0  0  0  0  0  0  0  0  0  0  0  0
  150.4379  139.2997  154.4480 C   0  0  0  0  0  0  0  0  0  0  0  0
  149.3155  139.6927  157.0513 H   0  0  0  0  0  0  0  0  0  0  0  0
  150.3701  141.0235  157.5087 H   0  0  0  0  0  0  0  0  0  0  0  0
  151.0512  139.4353  157.1911 H   0  0  0  0  0  0  0  0  0  0  0  0
  151.4759  140.9667  155.3083 H   0  0  0  0  0  0  0  0  0  0  0  0
  149.4052  142.4015  155.6414 H   0  0  0  0  0  0  0  0  0  0  0  0
  149.8321  142.0316  153.9943 H   0  0  0  0  0  0  0  0  0  0  0  0
  147.6354  140.6862  155.6143 H   0  0  0  0  0  0  0  0  0  0  0  0
  147.4725  142.4138  153.1024 H   0  0  0  0  0  0  0  0  0  0  0  0
  147.0146  142.9109  154.7298 H   0  0  0  0  0  0  0  0  0  0  0  0
  146.1123  141.6410  153.9126 H   0  0  0  0  0  0  0  0  0  0  0  0
  147.1621  139.3482  153.5721 H   0  0  0  0  0  0  0  0  0  0  0  0
  148.5443  140.0293  152.7711 H   0  0  0  0  0  0  0  0  0  0  0  0
  146.9993  136.2362  155.2181 H   0  0  0  0  0  0  0  0  0  0  0  0
  146.5229  138.3249  156.5172 H   0  0  0  0  0  0  0  0  0  0  0  0
  145.1861  137.8542  155.4904 H   0  0  0  0  0  0  0  0  0  0  0  0
  146.2301  139.1852  155.0069 H   0  0  0  0  0  0  0  0  0  0  0  0
  146.3382  137.9760  153.0273 H   0  0  0  0  0  0  0  0  0  0  0  0
  146.4017  135.0434  153.2356 H   0  0  0  0  0  0  0  0  0  0  0  0
  144.9758  136.0293  153.5194 H   0  0  0  0  0  0  0  0  0  0  0  0
  144.6507  136.4753  151.2556 H   0  0  0  0  0  0  0  0  0  0  0  0
  146.3666  136.5127  150.8982 H   0  0  0  0  0  0  0  0  0  0  0  0
  143.5414  134.5386  150.0646 H   0  0  0  0  0  0  0  0  0  0  0  0
  144.2879  131.9907  149.4374 H   0  0  0  0  0  0  0  0  0  0  0  0
  146.8630  131.8274  150.4496 H   0  0  0  0  0  0  0  0  0  0  0  0
  150.7460  139.6021  153.4458 H   0  0  0  0  0  0  0  0  0  0  0  0
  151.1802  138.5650  154.7530 H   0  0  0  0  0  0  0  0  0  0  0  0
  147.6360  137.0057  152.7867 H   0  0  0  0  0  0  0  0  0  0  0  0
  1  2  1  0  0  0  0
  1 21  1  0  0  0  0
  1 22  1  0  0  0  0
  1 23  1  0  0  0  0
  2 20  1  0  0  0  0
  2  3  1  0  0  0  0
  2 24  1  0  0  0  0
  3  4  1  0  0  0  0
  3 25  1  0  0  0  0
  3 26  1  0  0  0  0
  4  5  1  0  0  0  0
  4  6  1  0  0  0  0
  4 27  1  0  0  0  0
  5 28  1  0  0  0  0
  5 29  1  0  0  0  0
  5 30  1  0  0  0  0
  6  7  1  0  0  0  0
  6 31  1  0  0  0  0
  6 32  1  0  0  0  0
  7  8  1  0  0  0  0
  7 20  1  0  0  0  0
  8  9  2  0  0  0  0
  8 10  1  0  0  0  0
 10 11  1  0  0  0  0
 10 12  1  0  0  0  0
 10 33  1  0  0  0  0
 11 34  1  0  0  0  0
 11 35  1  0  0  0  0
 11 36  1  0  0  0  0
 12 13  1  0  0  0  0
 12 37  1  0  0  0  0
 12 47  1  0  0  0  0
 13 14  1  0  0  0  0
 13 38  1  0  0  0  0
 13 39  1  0  0  0  0
 14 15  1  0  0  0  0
 14 40  1  0  0  0  0
 14 41  1  0  0  0  0
 15 19  1  0  0  0  0
 15 16  1  0  0  0  0
 16 17  2  0  0  0  0
 16 42  1  0  0  0  0
 17 18  1  0  0  0  0
 17 43  1  0  0  0  0
 18 19  2  0  0  0  0
 18 44  1  0  0  0  0
 20 45  1  0  0  0  0
 20 46  1  0  0  0  0
M  CHG  1  12   1
M  END
> <s_m_source_file>
AV-unprocessed.smi

> <i_m_source_file_index>
3331

> <i_lp_mmshare_version>
43012

> <i_f3d_flags>
0

> <s_epik_input>
W0NIM11bQ0BASF0xW0NIMl1bQ0BASF0oW0NIM10pW0NIMl1OKFtDSDJdMSlDKD1PKVtDQEhdKFtDSDNdKVtOSF1bQ0gyXVtDSDJdbjJbY0hdW2NIXVtjSF1uMg==

> <s_epik_cmdline>
J2VwaWtfcHl0aG9uJywgJy1waCcsICc3LjAnLCAnLXRuJywgJzgnLCAnLW1hJywgJzIwMCcsICctbWV0YWxfYmluZGluZycsICctaW1hZScsICc8aW5maWxlLm1hZT4nLCAnLW9tYWUnLCAnPG91dGZpbGUubWFlPic=

> <r_lp_tautomer_probability>
1

> <r_epik_Ionization_Penalty>
0.189706

> <r_epik_Ionization_Penalty_Charging>
0.189703

> <r_epik_Ionization_Penalty_Neutral>
2.45875e-06

> <r_epik_State_Penalty>
0.179341

> <r_epik_Charging_Adjusted_Penalty>
0.369044

> <i_epik_Tot_Q>
1

> <i_epik_Tot_abs_Q>
1

> <r_epik_Metal_State_Penalty>
0.179578

> <b_epik_Metal_Only>
0

> <s_lp_Force_Field>
OPLS_2005

> <r_lp_Energy>
29.8241

> <b_lp_Chiralities_Consistent>
1

> <s_lp_Variant>
AV-unprocessed.smi:3331-4

> <Gold.Version>
5.8.1

> <Gold.Id.Protein>
6NUR|6NUR_protein|mol2

> <Gold.PLP.Fitness>
44.9033

> <Gold.PLP.PLP>
-34.4449

> <Gold.PLP.part.hbond>
-1.0000

> <Gold.PLP.part.metal>
0.0000

> <Gold.PLP.part.buried>
-0.4637

> <Gold.PLP.part.nonpolar>
-32.1559

> <Gold.PLP.part.repulsive>
0.3297

> <Gold.PLP.ligand.clash>
0.0000

> <Gold.PLP.ligand.torsion>
0.8095

> <Gold.PLP.Chemscore.Hbond>
2.0000

> <Gold.PLP.Chemscore.CHOScore>
2.0000

> <Gold.PLP.Chemscore.Metal>
0.0000

> <Gold.Chemscore.Hbonds>
donor molecule, donor type, donor heavy atom, donor atom, acceptor molecule, acceptor atom, score
      L1  H    12    47       P1  7948  2.00
      L1  C    16    42       P1 10186  0.87
      L1  C    18    44       P1 10747  1.00

> <Gold.PLP.Chemscore.Internal.Correction>
0.0774

> <Gold.Rescore>
     Score         DG    S(hbond)    S(metal)    S(lipo)     H(rot)  DE(clash)    DE(int)     intcor
     11.64     -13.81       1.00        0.00      80.44       1.73       0.11       2.06       ----

> <Gold.Chemscore.Fitness>
11.6441

> <Gold.Chemscore.DG>
-13.8142

> <Gold.Chemscore.ZeroCoef>
-5.4800

> <Gold.Chemscore.Hbond>
0.9999

> <Gold.Chemscore.Metal>
0.0000

> <Gold.Chemscore.Lipo>
80.4400

> <Gold.Chemscore.Internal_Hbond>
0.0000

> <Gold.Chemscore.DEClash>
0.1103

> <Gold.Chemscore.DEInternal>
2.0598

> <Gold.Chemscore.Rot>
1.7254

> <Gold.Chemscore.Internal.Correction>
   9.000000E+99

> <Gold.Chemscore.Hbonds>
donor molecule, donor type, donor heavy atom, donor atom, acceptor molecule, acceptor atom, score
      L1  H    12    47       P1  7948  1.00

> <Gold.Chemscore.Hbond.Weighted>
-3.3398

> <Gold.Chemscore.Metal.Weighted>
-0.0000

> <Gold.Chemscore.Lipo.Weighted>
-9.4115

> <Gold.Chemscore.Internal_Hbond.Weighted>
0.0000

> <Gold.Chemscore.DEClash.Weighted>
0.1103

> <Gold.Chemscore.DEInternal.Weighted>
2.0598

> <Gold.Chemscore.Rot.Weighted>
4.4170

> <Gold.Chemscore.Internal.Correction.Weighted>
   9.000000E+99

> <Gold.Protein.RotatedTorsions>
[ 6907 6896 6895 6894 ] final   96.94 input  -60.11 | X-H torsion
[ 7974 7965 7964 7962 ] final -158.10 input  175.53 | X-H torsion
[ 8008 7997 7996 7995 ] final   15.25 input   59.86 | X-H torsion
[ 10167 10162 10161 10158 ] final  -83.85 input  -65.29 | X-H torsion
[ 10718 10713 10712 10709 ] final  100.40 input   66.30 | X-H torsion
[ 10763 10752 10751 10750 ] final   65.09 input  -60.55 | X-H torsion
[ 11005 11000 10999 10996 ] final  -78.12 input  -57.11 | X-H torsion

> <Gold.Protein.ActiveResidues>
 VAL166  LYS551  ARG553  GLY616  TRP617  ASP618  TYR619  PRO620  LYS621  CYS622 
 ASP623  PHE694  ASN695  SER759  ASP760  ASP761  ALA762  ILE779  LEU786  VAL792 
 PHE793  MET794  SER795  GLU796  ALA797  LYS798  CYS799  TRP800  GLU811  SER814 

> <Gold.Protein.RotatedAtoms>
  152.5429  134.0809  159.8234 H   0  0  0  0  0  0  0  0  0  0  0  0  # atno 6907 bound_to 6896
  151.0911  133.5308  159.2622 H   0  0  0  0  0  0  0  0  0  0  0  0  # atno 6908 bound_to 6896
  151.2099  135.0485  159.8961 H   0  0  0  0  0  0  0  0  0  0  0  0  # atno 6909 bound_to 6896
  144.7520  140.3875  143.6041 H   0  0  0  0  0  0  0  0  0  0  0  0  # atno 7974 bound_to 7965
  154.8600  140.2943  155.5545 H   0  0  0  0  0  0  0  0  0  0  0  0  # atno 8008 bound_to 7997
  156.3019  140.2480  156.3506 H   0  0  0  0  0  0  0  0  0  0  0  0  # atno 8009 bound_to 7997
  154.8928  140.0394  157.1837 H   0  0  0  0  0  0  0  0  0  0  0  0  # atno 8010 bound_to 7997
  140.4188  143.2593  151.8918 H   0  0  0  0  0  0  0  0  0  0  0  0  # atno 10167 bound_to 10162
  157.6855  131.0697  150.5094 H   0  0  0  0  0  0  0  0  0  0  0  0  # atno 10718 bound_to 10713
  153.0082  135.5369  154.6612 H   0  0  0  0  0  0  0  0  0  0  0  0  # atno 10763 bound_to 10752
  154.5820  135.2851  155.0725 H   0  0  0  0  0  0  0  0  0  0  0  0  # atno 10764 bound_to 10752
  154.1850  135.6510  153.5097 H   0  0  0  0  0  0  0  0  0  0  0  0  # atno 10765 bound_to 10752
  141.1663  133.7050  156.7924 H   0  0  0  0  0  0  0  0  0  0  0  0  # atno 11005 bound_to 11000
  145.6912  139.1639  143.2646 LP  0  0  0  0  0  0  0  0  0  0  0  0  # atno 17320 bound_to 7965
  146.1482  140.6963  142.9335 LP  0  0  0  0  0  0  0  0  0  0  0  0  # atno 17321 bound_to 7965
  139.4782  144.5459  151.8458 LP  0  0  0  0  0  0  0  0  0  0  0  0  # atno 17342 bound_to 10162
  140.4557  144.1793  150.5901 LP  0  0  0  0  0  0  0  0  0  0  0  0  # atno 17343 bound_to 10162
  156.5412  130.4208  149.6153 LP  0  0  0  0  0  0  0  0  0  0  0  0  # atno 17370 bound_to 10713
  156.2984  130.7163  151.2029 LP  0  0  0  0  0  0  0  0  0  0  0  0  # atno 17371 bound_to 10713
  140.2316  134.8681  157.3482 LP  0  0  0  0  0  0  0  0  0  0  0  0  # atno 17394 bound_to 11000
  140.1885  134.4401  155.7729 LP  0  0  0  0  0  0  0  0  0  0  0  0  # atno 17395 bound_to 11000

$$$$
