AV-unprocessed.smi:1210|AV-procd|sdf|5077|dock6
  -GOLD-   22720 4123D 1   1.00000     0.00000
 Structure written by MMmdl.
 44 45  0  0  0  0  0  0  0  0  1 V2000
  146.0007  143.7592  154.0329 C   0  0  0  0  0  0  0  0  0  0  0  0
  146.1378  142.7284  155.1167 C   0  0  0  0  0  0  0  0  0  0  0  0
  145.2610  142.7056  156.1064 N   0  0  0  0  0  0  0  0  0  0  0  0
  145.6448  141.6463  156.9343 O   0  0  0  0  0  0  0  0  0  0  0  0
  146.7496  141.0643  156.4024 C   0  0  0  0  0  0  0  0  0  0  0  0
  147.3173  139.9000  157.1414 C   0  0  0  0  0  0  0  0  0  0  0  0
  147.1168  141.7011  155.2490 C   0  0  0  0  0  0  0  0  0  0  0  0
  148.2740  141.3899  154.3347 C   0  0  0  0  0  0  0  0  0  0  0  0
  149.5703  141.3453  155.1438 C   0  0  0  0  0  0  0  0  0  0  0  0
  150.3084  140.3628  155.0715 O   0  0  0  0  0  0  0  0  0  0  0  0
  149.8429  142.4227  155.8954 N   0  0  0  0  0  0  0  0  0  0  0  0
  151.0491  142.6062  156.6914 C   0  0  0  0  0  0  0  0  0  0  0  0
  151.0044  141.7595  157.9771 C   0  0  0  0  0  0  0  0  0  0  0  0
  151.9692  142.2473  158.9732 N   0  0  0  0  0  0  0  0  0  0  0  0
  153.2123  141.4694  159.0903 C   0  0  0  0  0  0  0  0  0  0  0  0
  153.3699  140.8039  160.4714 C   0  0  0  0  0  0  0  0  0  0  0  0
  153.9115  141.7426  161.5601 C   0  0  0  0  0  0  0  0  0  0  0  0
  152.9924  142.9275  161.8896 C   0  0  0  0  0  0  0  0  0  0  0  0
  152.7635  143.8676  160.6949 C   0  0  0  0  0  0  0  0  0  0  0  0
  151.6985  143.3417  159.7243 C   0  0  0  0  0  0  0  0  0  0  0  0
  150.6307  143.9509  159.6485 O   0  0  0  0  0  0  0  0  0  0  0  0
  145.4501  143.3569  153.1824 H   0  0  0  0  0  0  0  0  0  0  0  0
  146.9769  144.0831  153.6722 H   0  0  0  0  0  0  0  0  0  0  0  0
  145.4697  144.6446  154.3846 H   0  0  0  0  0  0  0  0  0  0  0  0
  147.4147  139.0369  156.4829 H   0  0  0  0  0  0  0  0  0  0  0  0
  146.6798  139.6157  157.9786 H   0  0  0  0  0  0  0  0  0  0  0  0
  148.3053  140.1383  157.5352 H   0  0  0  0  0  0  0  0  0  0  0  0
  148.1253  140.4413  153.8175 H   0  0  0  0  0  0  0  0  0  0  0  0
  148.3797  142.1443  153.5543 H   0  0  0  0  0  0  0  0  0  0  0  0
  149.1774  143.1822  155.8950 H   0  0  0  0  0  0  0  0  0  0  0  0
  151.9000  142.3151  156.0749 H   0  0  0  0  0  0  0  0  0  0  0  0
  151.1869  143.6619  156.9315 H   0  0  0  0  0  0  0  0  0  0  0  0
  149.9937  141.7531  158.3870 H   0  0  0  0  0  0  0  0  0  0  0  0
  151.2097  140.7142  157.7385 H   0  0  0  0  0  0  0  0  0  0  0  0
  153.2321  140.6778  158.3409 H   0  0  0  0  0  0  0  0  0  0  0  0
  154.0730  142.0988  158.8611 H   0  0  0  0  0  0  0  0  0  0  0  0
  152.4248  140.3598  160.7872 H   0  0  0  0  0  0  0  0  0  0  0  0
  154.0688  139.9727  160.3723 H   0  0  0  0  0  0  0  0  0  0  0  0
  154.0760  141.1650  162.4701 H   0  0  0  0  0  0  0  0  0  0  0  0
  154.8925  142.1154  161.2631 H   0  0  0  0  0  0  0  0  0  0  0  0
  152.0389  142.5638  162.2759 H   0  0  0  0  0  0  0  0  0  0  0  0
  153.4428  143.4984  162.7024 H   0  0  0  0  0  0  0  0  0  0  0  0
  152.4241  144.8336  161.0715 H   0  0  0  0  0  0  0  0  0  0  0  0
  153.6956  144.0684  160.1656 H   0  0  0  0  0  0  0  0  0  0  0  0
  1  2  1  0  0  0  0
  1 22  1  0  0  0  0
  1 23  1  0  0  0  0
  1 24  1  0  0  0  0
  2  7  1  0  0  0  0
  2  3  2  0  0  0  0
  3  4  1  0  0  0  0
  4  5  1  0  0  0  0
  5  6  1  0  0  0  0
  5  7  2  0  0  0  0
  6 25  1  0  0  0  0
  6 26  1  0  0  0  0
  6 27  1  0  0  0  0
  7  8  1  0  0  0  0
  8  9  1  0  0  0  0
  8 28  1  0  0  0  0
  8 29  1  0  0  0  0
  9 10  2  0  0  0  0
  9 11  1  0  0  0  0
 11 12  1  0  0  0  0
 11 30  1  0  0  0  0
 12 13  1  0  0  0  0
 12 31  1  0  0  0  0
 12 32  1  0  0  0  0
 13 14  1  0  0  0  0
 13 33  1  0  0  0  0
 13 34  1  0  0  0  0
 14 20  1  0  0  0  0
 14 15  1  0  0  0  0
 15 16  1  0  0  0  0
 15 35  1  0  0  0  0
 15 36  1  0  0  0  0
 16 17  1  0  0  0  0
 16 37  1  0  0  0  0
 16 38  1  0  0  0  0
 17 18  1  0  0  0  0
 17 39  1  0  0  0  0
 17 40  1  0  0  0  0
 18 19  1  0  0  0  0
 18 41  1  0  0  0  0
 18 42  1  0  0  0  0
 19 20  1  0  0  0  0
 19 43  1  0  0  0  0
 19 44  1  0  0  0  0
 20 21  2  0  0  0  0
M  END
> <s_m_source_file>
AV-unprocessed.smi

> <i_m_source_file_index>
1210

> <i_lp_mmshare_version>
43012

> <i_f3d_flags>
0

> <s_epik_input>
W0NIM11jMW5vYyhbQ0gzXSljMVtDSDJdQyg9TylbTkhdW0NIMl1bQ0gyXU4yW0NIMl1bQ0gyXVtDSDJdW0NIMl1bQ0gyXUMyPU8=

> <s_epik_cmdline>
J2VwaWtfcHl0aG9uJywgJy1waCcsICc3LjAnLCAnLXRuJywgJzgnLCAnLW1hJywgJzIwMCcsICctbWV0YWxfYmluZGluZycsICctaW1hZScsICc8aW5maWxlLm1hZT4nLCAnLW9tYWUnLCAnPG91dGZpbGUubWFlPic=

> <r_lp_tautomer_probability>
1

> <r_epik_Ionization_Penalty>
5.48219e-08

> <r_epik_Ionization_Penalty_Charging>
0

> <r_epik_Ionization_Penalty_Neutral>
5.48219e-08

> <r_epik_State_Penalty>
-0

> <r_epik_Charging_Adjusted_Penalty>
0

> <i_epik_Tot_Q>
0

> <i_epik_Tot_abs_Q>
0

> <r_epik_Metal_State_Penalty>
-0

> <b_epik_Metal_Only>
0

> <s_lp_Force_Field>
OPLS_2005

> <r_lp_Energy>
11.1007

> <b_lp_Chiralities_Consistent>
1

> <s_lp_Variant>
AV-unprocessed.smi:1210-1

> <Gold.Version>
5.8.1

> <Gold.Id.Protein>
6NUR|6NUR_protein|mol2

> <Gold.PLP.Fitness>
48.1444

> <Gold.PLP.PLP>
-43.7530

> <Gold.PLP.part.hbond>
-2.1929

> <Gold.PLP.part.metal>
0.0000

> <Gold.PLP.part.buried>
-5.6179

> <Gold.PLP.part.nonpolar>
-35.8257

> <Gold.PLP.part.repulsive>
0.4531

> <Gold.PLP.ligand.clash>
0.0000

> <Gold.PLP.ligand.torsion>
0.5177

> <Gold.PLP.Chemscore.Hbond>
1.8000

> <Gold.PLP.Chemscore.CHOScore>
0.0000

> <Gold.PLP.Chemscore.Metal>
0.0000

> <Gold.Chemscore.Hbonds>
donor molecule, donor type, donor heavy atom, donor atom, acceptor molecule, acceptor atom, score
      L1  H    11    30       P1  8028  0.98
      P1  H  7989  7998       L1    10  0.80

> <Gold.PLP.Chemscore.Internal.Correction>
0.0267

> <Gold.Rescore>
     Score         DG    S(hbond)    S(metal)    S(lipo)     H(rot)  DE(clash)    DE(int)     intcor
     16.24     -16.77       1.49        0.00      93.29       1.79       0.09       0.43       ----

> <Gold.Chemscore.Fitness>
16.2395

> <Gold.Chemscore.DG>
-16.7671

> <Gold.Chemscore.ZeroCoef>
-5.4800

> <Gold.Chemscore.Hbond>
1.4851

> <Gold.Chemscore.Metal>
0.0000

> <Gold.Chemscore.Lipo>
93.2939

> <Gold.Chemscore.Internal_Hbond>
0.0000

> <Gold.Chemscore.DEClash>
0.0941

> <Gold.Chemscore.DEInternal>
0.4335

> <Gold.Chemscore.Rot>
1.7923

> <Gold.Chemscore.Internal.Correction>
   9.000000E+99

> <Gold.Chemscore.Hbonds>
donor molecule, donor type, donor heavy atom, donor atom, acceptor molecule, acceptor atom, score
      L1  H    11    30       P1  8028  0.91
      P1  H  7989  7998       L1    10  0.30

> <Gold.Chemscore.Hbond.Weighted>
-4.9601

> <Gold.Chemscore.Metal.Weighted>
-0.0000

> <Gold.Chemscore.Lipo.Weighted>
-10.9154

> <Gold.Chemscore.Internal_Hbond.Weighted>
0.0000

> <Gold.Chemscore.DEClash.Weighted>
0.0941

> <Gold.Chemscore.DEInternal.Weighted>
0.4335

> <Gold.Chemscore.Rot.Weighted>
4.5884

> <Gold.Chemscore.Internal.Correction.Weighted>
   9.000000E+99

> <Gold.Protein.RotatedTorsions>
[ 6907 6896 6895 6894 ] final -131.72 input  -60.11 | X-H torsion
[ 7974 7965 7964 7962 ] final -114.15 input  175.53 | X-H torsion
[ 8008 7997 7996 7995 ] final   42.56 input   59.86 | X-H torsion
[ 10167 10162 10161 10158 ] final -102.17 input  -65.29 | X-H torsion
[ 10718 10713 10712 10709 ] final   89.53 input   66.30 | X-H torsion
[ 10763 10752 10751 10750 ] final  140.52 input  -60.55 | X-H torsion
[ 11005 11000 10999 10996 ] final -156.12 input  -57.11 | X-H torsion

> <Gold.Protein.ActiveResidues>
 VAL166  LYS551  ARG553  GLY616  TRP617  ASP618  TYR619  PRO620  LYS621  CYS622 
 ASP623  PHE694  ASN695  SER759  ASP760  ASP761  ALA762  ILE779  LEU786  VAL792 
 PHE793  MET794  SER795  GLU796  ALA797  LYS798  CYS799  TRP800  GLU811  SER814 

> <Gold.Protein.RotatedAtoms>
  150.9541  133.6516  159.2766 H   0  0  0  0  0  0  0  0  0  0  0  0  # atno 6907 bound_to 6896
  151.3862  135.0947  159.9521 H   0  0  0  0  0  0  0  0  0  0  0  0  # atno 6908 bound_to 6896
  152.5122  133.9065  159.7522 H   0  0  0  0  0  0  0  0  0  0  0  0  # atno 6909 bound_to 6896
  145.1236  140.8683  143.3799 H   0  0  0  0  0  0  0  0  0  0  0  0  # atno 7974 bound_to 7965
  155.2883  140.3377  155.4254 H   0  0  0  0  0  0  0  0  0  0  0  0  # atno 8008 bound_to 7997
  156.2058  140.1750  156.7843 H   0  0  0  0  0  0  0  0  0  0  0  0  # atno 8009 bound_to 7997
  154.5619  140.0686  156.8816 H   0  0  0  0  0  0  0  0  0  0  0  0  # atno 8010 bound_to 7997
  140.2335  143.3590  152.0866 H   0  0  0  0  0  0  0  0  0  0  0  0  # atno 10167 bound_to 10162
  157.6955  131.0337  150.3440 H   0  0  0  0  0  0  0  0  0  0  0  0  # atno 10718 bound_to 10713
  153.9241  135.2997  155.3447 H   0  0  0  0  0  0  0  0  0  0  0  0  # atno 10763 bound_to 10752
  154.7561  135.4957  153.9380 H   0  0  0  0  0  0  0  0  0  0  0  0  # atno 10764 bound_to 10752
  153.1126  135.6763  153.9577 H   0  0  0  0  0  0  0  0  0  0  0  0  # atno 10765 bound_to 10752
  140.6791  134.4164  157.5227 H   0  0  0  0  0  0  0  0  0  0  0  0  # atno 11005 bound_to 11000
  145.0713  139.3029  143.5830 LP  0  0  0  0  0  0  0  0  0  0  0  0  # atno 17320 bound_to 7965
  146.3519  140.0188  142.8660 LP  0  0  0  0  0  0  0  0  0  0  0  0  # atno 17321 bound_to 7965
  139.5102  144.6880  151.5837 LP  0  0  0  0  0  0  0  0  0  0  0  0  # atno 17342 bound_to 10162
  140.6167  143.9334  150.6494 LP  0  0  0  0  0  0  0  0  0  0  0  0  # atno 17343 bound_to 10162
  156.3897  130.3895  149.7039 LP  0  0  0  0  0  0  0  0  0  0  0  0  # atno 17370 bound_to 10713
  156.4393  130.7853  151.2874 LP  0  0  0  0  0  0  0  0  0  0  0  0  # atno 17371 bound_to 10713
  139.8957  134.8676  156.2118 LP  0  0  0  0  0  0  0  0  0  0  0  0  # atno 17394 bound_to 11000
  141.0332  133.6977  156.1466 LP  0  0  0  0  0  0  0  0  0  0  0  0  # atno 17395 bound_to 11000

$$$$
