AV-unprocessed.smi:287|AV-procd|sdf|2192|dock8
  -GOLD-   2262021593D 1   1.00000     0.00000
 Structure written by MMmdl.
 55 58  0  0  0  0  0  0  0  0  1 V2000
  154.1174  141.2477  161.1310 C   0  0  0  0  0  0  0  0  0  0  0  0
  153.1307  141.8019  160.1615 C   0  0  0  0  0  0  0  0  0  0  0  0
  152.5125  141.3014  159.0530 C   0  0  0  0  0  0  0  0  0  0  0  0
  151.6541  142.3223  158.5457 C   0  0  0  0  0  0  0  0  0  0  0  0
  150.7610  142.2126  157.3172 C   0  0  2  0  0  0  0  0  0  0  0  0
  151.1807  140.9957  156.4764 C   0  0  0  0  0  0  0  0  0  0  0  0
  150.8774  143.3256  156.4521 O   0  0  0  0  0  0  0  0  0  0  0  0
  149.2624  142.1157  157.6841 C   0  0  0  0  0  0  0  0  0  0  0  0
  148.3920  142.1161  156.5127 N   0  0  0  0  0  0  0  0  0  0  0  0
  147.5037  141.1182  156.3265 C   0  0  0  0  0  0  0  0  0  0  0  0
  146.4897  140.9104  157.2063 N   0  0  0  0  0  0  0  0  0  0  0  0
  145.6192  139.9185  156.9967 C   0  0  0  0  0  0  0  0  0  0  0  0
  145.5823  139.0394  155.9935 N   0  0  0  0  0  0  0  0  0  0  0  0
  146.6007  139.2435  155.1077 C   0  0  0  0  0  0  0  0  0  0  0  0
  147.5956  140.2554  155.2044 C   0  0  0  0  0  0  0  0  0  0  0  0
  148.4664  140.1655  154.1263 N   0  0  0  0  0  0  0  0  0  0  0  0
  148.0072  139.1583  153.4331 C   0  0  0  0  0  0  0  0  0  0  0  0
  146.8852  138.5486  153.9485 N   0  0  0  0  0  0  0  0  0  0  0  0
  146.1358  137.3879  153.3737 C   0  0  1  0  0  0  0  0  0  0  0  0
  144.8470  137.3664  153.8930 O   0  0  0  0  0  0  0  0  0  0  0  0
  143.9771  136.7321  152.9617 C   0  0  1  0  0  0  0  0  0  0  0  0
  142.6248  137.4684  152.9475 C   0  0  0  0  0  0  0  0  0  0  0  0
  142.5728  138.5009  153.9104 O   0  0  0  0  0  0  0  0  0  0  0  0
  144.7208  136.6596  151.6103 C   0  0  2  0  0  0  0  0  0  0  0  0
  145.0352  135.3105  151.3198 O   0  0  0  0  0  0  0  0  0  0  0  0
  146.0030  137.4499  151.8456 C   0  0  1  0  0  0  0  0  0  0  0  0
  145.8893  138.7679  151.3412 O   0  0  0  0  0  0  0  0  0  0  0  0
  151.8366  143.3872  159.3953 C   0  0  0  0  0  0  0  0  0  0  0  0
  151.2795  144.7711  159.4586 C   0  0  0  0  0  0  0  0  0  0  0  0
  152.7259  143.0781  160.3798 O   0  0  0  0  0  0  0  0  0  0  0  0
  146.6753  136.5020  153.7120 H   0  0  0  0  0  0  0  0  0  0  0  0
  143.8021  135.7256  153.3457 H   0  0  0  0  0  0  0  0  0  0  0  0
  144.1375  137.0536  150.7769 H   0  0  0  0  0  0  0  0  0  0  0  0
  146.8786  136.9903  151.3846 H   0  0  0  0  0  0  0  0  0  0  0  0
  154.3105  140.1938  160.9301 H   0  0  0  0  0  0  0  0  0  0  0  0
  153.7467  141.3341  162.1524 H   0  0  0  0  0  0  0  0  0  0  0  0
  155.0645  141.7834  161.0669 H   0  0  0  0  0  0  0  0  0  0  0  0
  152.6540  140.3086  158.6522 H   0  0  0  0  0  0  0  0  0  0  0  0
  151.0900  140.0709  157.0472 H   0  0  0  0  0  0  0  0  0  0  0  0
  152.2183  141.0788  156.1500 H   0  0  0  0  0  0  0  0  0  0  0  0
  150.5611  140.8919  155.5849 H   0  0  0  0  0  0  0  0  0  0  0  0
  150.0129  143.5672  156.1567 H   0  0  0  0  0  0  0  0  0  0  0  0
  149.0666  141.2387  158.3031 H   0  0  0  0  0  0  0  0  0  0  0  0
  148.9955  142.9869  158.2844 H   0  0  0  0  0  0  0  0  0  0  0  0
  148.4574  142.9254  155.9116 H   0  0  0  0  0  0  0  0  0  0  0  0
  144.8401  139.8146  157.7374 H   0  0  0  0  0  0  0  0  0  0  0  0
  148.4762  138.8326  152.5160 H   0  0  0  0  0  0  0  0  0  0  0  0
  142.4628  137.9187  151.9679 H   0  0  0  0  0  0  0  0  0  0  0  0
  141.8051  136.7699  153.1173 H   0  0  0  0  0  0  0  0  0  0  0  0
  142.9612  139.2787  153.5401 H   0  0  0  0  0  0  0  0  0  0  0  0
  144.4234  134.9911  150.6746 H   0  0  0  0  0  0  0  0  0  0  0  0
  145.0489  139.1153  151.5983 H   0  0  0  0  0  0  0  0  0  0  0  0
  151.4100  145.2841  158.5056 H   0  0  0  0  0  0  0  0  0  0  0  0
  151.7771  145.3626  160.2275 H   0  0  0  0  0  0  0  0  0  0  0  0
  150.2144  144.7482  159.6892 H   0  0  0  0  0  0  0  0  0  0  0  0
  1  2  1  0  0  0  0
  1 35  1  0  0  0  0
  1 36  1  0  0  0  0
  1 37  1  0  0  0  0
  2 30  1  0  0  0  0
  2  3  2  0  0  0  0
  3  4  1  0  0  0  0
  3 38  1  0  0  0  0
  4  5  1  0  0  0  0
  4 28  2  0  0  0  0
  5  6  1  0  0  0  0
  5  7  1  0  0  0  0
  5  8  1  0  0  0  0
  6 39  1  0  0  0  0
  6 40  1  0  0  0  0
  6 41  1  0  0  0  0
  7 42  1  0  0  0  0
  8  9  1  0  0  0  0
  8 43  1  0  0  0  0
  8 44  1  0  0  0  0
  9 10  1  0  0  0  0
  9 45  1  0  0  0  0
 10 15  1  0  0  0  0
 10 11  2  0  0  0  0
 11 12  1  0  0  0  0
 12 13  2  0  0  0  0
 12 46  1  0  0  0  0
 13 14  1  0  0  0  0
 14 18  1  0  0  0  0
 14 15  2  0  0  0  0
 15 16  1  0  0  0  0
 16 17  2  0  0  0  0
 17 18  1  0  0  0  0
 17 47  1  0  0  0  0
 18 19  1  0  0  0  0
 19 31  1  0  0  0  0
 19 26  1  0  0  0  0
 19 20  1  0  0  0  0
 20 21  1  0  0  0  0
 21 32  1  0  0  0  0
 21 22  1  0  0  0  0
 21 24  1  0  0  0  0
 22 23  1  0  0  0  0
 22 48  1  0  0  0  0
 22 49  1  0  0  0  0
 23 50  1  0  0  0  0
 24 33  1  0  0  0  0
 24 25  1  0  0  0  0
 24 26  1  0  0  0  0
 25 51  1  0  0  0  0
 26 34  1  0  0  0  0
 26 27  1  0  0  0  0
 27 52  1  0  0  0  0
 28 29  1  0  0  0  0
 28 30  1  0  0  0  0
 29 53  1  0  0  0  0
 29 54  1  0  0  0  0
 29 55  1  0  0  0  0
M  END
> <s_m_source_file>
AV-unprocessed.smi

> <i_m_source_file_index>
287

> <i_lp_mmshare_version>
43012

> <i_f3d_flags>
0

> <s_epik_input>
W0NIM11jMVtjSF1jKGMobzEpW0NIM10pW0NAQF0oW0NIM10pKFtPSF0pW0NIMl1bTkhdYyhuW2NIXW4yKWMoYzIzKW5bY0hdbjNbQ0BASF00T1tDQEhdKFtDSDJdW09IXSlbQ0BASF0oW09IXSlbQ0BIXTRbT0hd

> <s_epik_cmdline>
J2VwaWtfcHl0aG9uJywgJy1waCcsICc3LjAnLCAnLXRuJywgJzgnLCAnLW1hJywgJzIwMCcsICctbWV0YWxfYmluZGluZycsICctaW1hZScsICc8aW5maWxlLm1hZT4nLCAnLW9tYWUnLCAnPG91dGZpbGUubWFlPic=

> <r_lp_tautomer_probability>
1

> <r_epik_Ionization_Penalty>
0.000992612

> <r_epik_Ionization_Penalty_Charging>
0

> <r_epik_Ionization_Penalty_Neutral>
0.000992612

> <r_epik_State_Penalty>
-0

> <r_epik_Charging_Adjusted_Penalty>
0

> <i_epik_Tot_Q>
0

> <i_epik_Tot_abs_Q>
0

> <r_epik_Metal_State_Penalty>
-0

> <b_epik_Metal_Only>
0

> <s_epik_Chemistry_Notes>
This compound contains an acetal/aminal-like group ( X-CH(R)-Y where X, Y are N, S, or O) that may be acid/base labile, releasing an aldehyde.

> <s_lp_Force_Field>
OPLS_2005

> <r_lp_Energy>
44.6889

> <b_lp_Chiralities_Consistent>
1

> <s_lp_Variant>
AV-unprocessed.smi:287-16

> <Gold.Version>
5.8.1

> <Gold.Id.Protein>
6NUR|6NUR_protein|mol2

> <Gold.PLP.Fitness>
55.1873

> <Gold.PLP.PLP>
-43.2142

> <Gold.PLP.part.hbond>
-5.0000

> <Gold.PLP.part.metal>
0.0000

> <Gold.PLP.part.buried>
-6.5741

> <Gold.PLP.part.nonpolar>
-32.6050

> <Gold.PLP.part.repulsive>
0.2681

> <Gold.PLP.ligand.clash>
0.0000

> <Gold.PLP.ligand.torsion>
2.4171

> <Gold.PLP.Chemscore.Hbond>
3.9920

> <Gold.PLP.Chemscore.CHOScore>
1.5752

> <Gold.PLP.Chemscore.Metal>
0.0000

> <Gold.Chemscore.Hbonds>
donor molecule, donor type, donor heavy atom, donor atom, acceptor molecule, acceptor atom, score
      L1  H     7    42       P1  8028  1.00
      L1  H     9    45       P1  8028  1.00
      L1  H    23    50       P1 10175  1.00
      L1  H    27    52       P1 10175  0.86
      L1  C    17    47       P1  7948  0.55
      L1  C    17    47       P1  7957  0.96

> <Gold.PLP.Chemscore.Internal.Correction>
0.1057

> <Gold.Rescore>
     Score         DG    S(hbond)    S(metal)    S(lipo)     H(rot)  DE(clash)    DE(int)     intcor
     12.03     -16.81       3.90        0.00     100.86       5.27       0.03       4.76       ----

> <Gold.Chemscore.Fitness>
12.0305

> <Gold.Chemscore.DG>
-16.8136

> <Gold.Chemscore.ZeroCoef>
-5.4800

> <Gold.Chemscore.Hbond>
3.8974

> <Gold.Chemscore.Metal>
0.0000

> <Gold.Chemscore.Lipo>
100.8566

> <Gold.Chemscore.Internal_Hbond>
0.0000

> <Gold.Chemscore.DEClash>
0.0275

> <Gold.Chemscore.DEInternal>
4.7555

> <Gold.Chemscore.Rot>
5.2672

> <Gold.Chemscore.Internal.Correction>
   9.000000E+99

> <Gold.Chemscore.Hbonds>
donor molecule, donor type, donor heavy atom, donor atom, acceptor molecule, acceptor atom, score
      L1  H     7    42       P1  8028  0.94
      L1  H     9    45       P1  8028  0.93
      L1  H    23    50       P1 10175  1.00
      L1  H    27    52       P1 10175  0.77

> <Gold.Chemscore.Hbond.Weighted>
-13.0173

> <Gold.Chemscore.Metal.Weighted>
-0.0000

> <Gold.Chemscore.Lipo.Weighted>
-11.8002

> <Gold.Chemscore.Internal_Hbond.Weighted>
0.0000

> <Gold.Chemscore.DEClash.Weighted>
0.0275

> <Gold.Chemscore.DEInternal.Weighted>
4.7555

> <Gold.Chemscore.Rot.Weighted>
13.4839

> <Gold.Chemscore.Internal.Correction.Weighted>
   9.000000E+99

> <Gold.Protein.RotatedTorsions>
[ 6907 6896 6895 6894 ] final   54.22 input  -60.11 | X-H torsion
[ 7974 7965 7964 7962 ] final -135.19 input  175.53 | X-H torsion
[ 8008 7997 7996 7995 ] final   31.33 input   59.86 | X-H torsion
[ 10167 10162 10161 10158 ] final -173.23 input  -65.29 | X-H torsion
[ 10718 10713 10712 10709 ] final   24.31 input   66.30 | X-H torsion
[ 10763 10752 10751 10750 ] final  -31.05 input  -60.55 | X-H torsion
[ 11005 11000 10999 10996 ] final -139.91 input  -57.11 | X-H torsion

> <Gold.Protein.ActiveResidues>
 VAL166  LYS551  ARG553  GLY616  TRP617  ASP618  TYR619  PRO620  LYS621  CYS622 
 ASP623  PHE694  ASN695  SER759  ASP760  ASP761  ALA762  ILE779  LEU786  VAL792 
 PHE793  MET794  SER795  GLU796  ALA797  LYS798  CYS799  TRP800  GLU811  SER814 

> <Gold.Protein.RotatedAtoms>
  152.3417  134.7125  160.0261 H   0  0  0  0  0  0  0  0  0  0  0  0  # atno 6907 bound_to 6896
  151.7508  133.3322  159.3399 H   0  0  0  0  0  0  0  0  0  0  0  0  # atno 6908 bound_to 6896
  150.7484  134.6126  159.6139 H   0  0  0  0  0  0  0  0  0  0  0  0  # atno 6909 bound_to 6896
  144.9036  140.6803  143.5069 H   0  0  0  0  0  0  0  0  0  0  0  0  # atno 7974 bound_to 7965
  155.1047  140.3233  155.4537 H   0  0  0  0  0  0  0  0  0  0  0  0  # atno 8008 bound_to 7997
  156.2707  140.2055  156.6119 H   0  0  0  0  0  0  0  0  0  0  0  0  # atno 8009 bound_to 7997
  154.6802  140.0527  157.0245 H   0  0  0  0  0  0  0  0  0  0  0  0  # atno 8010 bound_to 7997
  139.5700  144.1665  152.1369 H   0  0  0  0  0  0  0  0  0  0  0  0  # atno 10167 bound_to 10162
  157.1781  130.6790  149.6103 H   0  0  0  0  0  0  0  0  0  0  0  0  # atno 10718 bound_to 10713
  153.7909  135.6898  153.4871 H   0  0  0  0  0  0  0  0  0  0  0  0  # atno 10763 bound_to 10752
  153.1750  135.4528  154.9951 H   0  0  0  0  0  0  0  0  0  0  0  0  # atno 10764 bound_to 10752
  154.8045  135.3351  154.7405 H   0  0  0  0  0  0  0  0  0  0  0  0  # atno 10765 bound_to 10752
  140.8474  134.2328  157.4778 H   0  0  0  0  0  0  0  0  0  0  0  0  # atno 11005 bound_to 11000
  145.3574  139.1690  143.4402 LP  0  0  0  0  0  0  0  0  0  0  0  0  # atno 17320 bound_to 7965
  146.3121  140.3633  142.8667 LP  0  0  0  0  0  0  0  0  0  0  0  0  # atno 17321 bound_to 7965
  140.1196  144.5385  150.6871 LP  0  0  0  0  0  0  0  0  0  0  0  0  # atno 17342 bound_to 10162
  140.6984  143.2418  151.4935 LP  0  0  0  0  0  0  0  0  0  0  0  0  # atno 17343 bound_to 10162
  155.9728  130.4656  150.6259 LP  0  0  0  0  0  0  0  0  0  0  0  0  # atno 17370 bound_to 10713
  157.3979  131.0805  151.1335 LP  0  0  0  0  0  0  0  0  0  0  0  0  # atno 17371 bound_to 10713
  139.8703  134.9666  156.4568 LP  0  0  0  0  0  0  0  0  0  0  0  0  # atno 17394 bound_to 11000
  140.8828  133.7905  155.9485 LP  0  0  0  0  0  0  0  0  0  0  0  0  # atno 17395 bound_to 11000

$$$$
