AV-unprocessed.smi:1521|AV-procd|sdf|6131|dock7
  -GOLD-   22720 6273D 1   1.00000     0.00000
 Structure written by MMmdl.
 36 37  0  0  0  0  0  0  0  0  1 V2000
  150.4559  131.6619  151.4104 O   0  0  0  0  0  0  0  0  0  0  0  0
  150.0881  132.8307  151.5246 C   0  0  0  0  0  0  0  0  0  0  0  0
  150.9365  133.8667  151.5865 N   0  0  0  0  0  0  0  0  0  0  0  0
  152.3901  133.7712  151.4979 C   0  0  0  0  0  0  0  0  0  0  0  0
  153.0706  135.0602  151.9896 C   0  0  1  0  0  0  0  0  0  0  0  0
  154.6082  134.9560  151.9383 C   0  0  0  0  0  0  0  0  0  0  0  0
  155.1767  136.1840  152.3749 O   0  0  0  0  0  0  0  0  0  0  0  0
  154.7698  137.2649  151.5469 C   0  0  0  0  0  0  0  0  0  0  0  0
  153.2369  137.3748  151.5832 C   0  0  0  0  0  0  0  0  0  0  0  0
  152.6765  136.1423  151.1520 O   0  0  0  0  0  0  0  0  0  0  0  0
  148.8117  133.2536  151.5810 N   0  0  0  0  0  0  0  0  0  0  0  0
  147.6231  132.5045  151.5533 C   0  0  0  0  0  0  0  0  0  0  0  0
  147.4066  131.4166  150.7683 C   0  0  0  0  0  0  0  0  0  0  0  0
  146.1541  130.6802  150.7981 C   0  0  0  0  0  0  0  0  0  0  0  0
  145.8977  129.5132  149.8575 C   0  0  0  0  0  0  0  0  0  0  0  0
  146.8403  128.5858  150.0192 F   0  0  0  0  0  0  0  0  0  0  0  0
  144.7132  128.9479  150.0947 F   0  0  0  0  0  0  0  0  0  0  0  0
  145.9236  129.9123  148.5860 F   0  0  0  0  0  0  0  0  0  0  0  0
  145.2094  131.1367  151.6410 C   0  0  0  0  0  0  0  0  0  0  0  0
  145.4312  132.2412  152.4663 N   0  0  0  0  0  0  0  0  0  0  0  0
  146.5767  132.9589  152.4841 C   0  0  0  0  0  0  0  0  0  0  0  0
  146.6946  133.9211  153.2422 O   0  0  0  0  0  0  0  0  0  0  0  0
  144.6780  132.5130  153.0817 H   0  0  0  0  0  0  0  0  0  0  0  0
  150.5477  134.7939  151.6769 H   0  0  0  0  0  0  0  0  0  0  0  0
  152.7001  132.9332  152.1224 H   0  0  0  0  0  0  0  0  0  0  0  0
  152.7072  133.5302  150.4817 H   0  0  0  0  0  0  0  0  0  0  0  0
  152.7556  135.2597  153.0158 H   0  0  0  0  0  0  0  0  0  0  0  0
  154.9575  134.1563  152.5917 H   0  0  0  0  0  0  0  0  0  0  0  0
  154.9528  134.7200  150.9300 H   0  0  0  0  0  0  0  0  0  0  0  0
  155.2250  138.1858  151.9117 H   0  0  0  0  0  0  0  0  0  0  0  0
  155.1244  137.1124  150.5262 H   0  0  0  0  0  0  0  0  0  0  0  0
  152.8863  137.6182  152.5874 H   0  0  0  0  0  0  0  0  0  0  0  0
  152.8974  138.1718  150.9215 H   0  0  0  0  0  0  0  0  0  0  0  0
  148.6741  134.2535  151.6068 H   0  0  0  0  0  0  0  0  0  0  0  0
  148.1718  131.0468  150.1057 H   0  0  0  0  0  0  0  0  0  0  0  0
  144.2253  130.7039  151.7449 H   0  0  0  0  0  0  0  0  0  0  0  0
  1  2  2  0  0  0  0
  2  3  1  0  0  0  0
  2 11  1  0  0  0  0
  3  4  1  0  0  0  0
  3 24  1  0  0  0  0
  4  5  1  0  0  0  0
  4 25  1  0  0  0  0
  4 26  1  0  0  0  0
  5 10  1  0  0  0  0
  5  6  1  0  0  0  0
  5 27  1  0  0  0  0
  6  7  1  0  0  0  0
  6 28  1  0  0  0  0
  6 29  1  0  0  0  0
  7  8  1  0  0  0  0
  8  9  1  0  0  0  0
  8 30  1  0  0  0  0
  8 31  1  0  0  0  0
  9 10  1  0  0  0  0
  9 32  1  0  0  0  0
  9 33  1  0  0  0  0
 11 12  1  0  0  0  0
 11 34  1  0  0  0  0
 12 21  1  0  0  0  0
 12 13  2  0  0  0  0
 13 14  1  0  0  0  0
 13 35  1  0  0  0  0
 14 15  1  0  0  0  0
 14 19  2  0  0  0  0
 15 16  1  0  0  0  0
 15 17  1  0  0  0  0
 15 18  1  0  0  0  0
 19 20  1  0  0  0  0
 19 36  1  0  0  0  0
 20 23  1  0  0  0  0
 20 21  1  0  0  0  0
 21 22  2  0  0  0  0
M  END
> <s_m_source_file>
AV-unprocessed.smi

> <i_m_source_file_index>
1521

> <i_lp_mmshare_version>
43012

> <i_f3d_flags>
0

> <s_epik_input>
Tz1jMVtuSF1bY0hdYyhDKEYpKEYpRilbY0hdYzFbTkhdQyg9TylbTkhdW0NIMl1bQ0BASF0yW0NIMl1PW0NIMl1bQ0gyXU8y

> <s_epik_cmdline>
J2VwaWtfcHl0aG9uJywgJy1waCcsICc3LjAnLCAnLXRuJywgJzgnLCAnLW1hJywgJzIwMCcsICctbWV0YWxfYmluZGluZycsICctaW1hZScsICc8aW5maWxlLm1hZT4nLCAnLW9tYWUnLCAnPG91dGZpbGUubWFlPic=

> <r_lp_tautomer_probability>
1

> <r_epik_Ionization_Penalty>
0.00396636

> <r_epik_Ionization_Penalty_Charging>
0.00394789

> <r_epik_Ionization_Penalty_Neutral>
1.84676e-05

> <r_epik_State_Penalty>
-0

> <r_epik_Charging_Adjusted_Penalty>
0.00394789

> <i_epik_Tot_Q>
0

> <i_epik_Tot_abs_Q>
0

> <r_epik_Metal_State_Penalty>
0.372669

> <b_epik_Metal_Only>
0

> <s_lp_Force_Field>
OPLS_2005

> <r_lp_Energy>
19.2224

> <b_lp_Chiralities_Consistent>
1

> <s_lp_Variant>
AV-unprocessed.smi:1521-2

> <Gold.Version>
5.8.1

> <Gold.Id.Protein>
6NUR|6NUR_protein|mol2

> <Gold.PLP.Fitness>
42.0295

> <Gold.PLP.PLP>
-34.8756

> <Gold.PLP.part.hbond>
-3.0000

> <Gold.PLP.part.metal>
0.0000

> <Gold.PLP.part.buried>
-4.7830

> <Gold.PLP.part.nonpolar>
-27.3064

> <Gold.PLP.part.repulsive>
0.5879

> <Gold.PLP.ligand.clash>
0.8895

> <Gold.PLP.ligand.torsion>
0.4936

> <Gold.PLP.Chemscore.Hbond>
3.0000

> <Gold.PLP.Chemscore.CHOScore>
0.0000

> <Gold.PLP.Chemscore.Metal>
0.0000

> <Gold.PLP.Chemscore.Internal.Correction>
0.0305

> <Gold.Rescore>
     Score         DG    S(hbond)    S(metal)    S(lipo)     H(rot)  DE(clash)    DE(int)     intcor
     14.95     -15.51       1.86        0.00      62.62       1.37       0.14       0.42       ----

> <Gold.Chemscore.Fitness>
14.9528

> <Gold.Chemscore.DG>
-15.5097

> <Gold.Chemscore.ZeroCoef>
-5.4800

> <Gold.Chemscore.Hbond>
1.8622

> <Gold.Chemscore.Metal>
0.0000

> <Gold.Chemscore.Lipo>
62.6179

> <Gold.Chemscore.Internal_Hbond>
0.0000

> <Gold.Chemscore.DEClash>
0.1389

> <Gold.Chemscore.DEInternal>
0.4180

> <Gold.Chemscore.Rot>
1.3735

> <Gold.Chemscore.Internal.Correction>
   9.000000E+99

> <Gold.Chemscore.Hbond.Weighted>
-6.2196

> <Gold.Chemscore.Metal.Weighted>
-0.0000

> <Gold.Chemscore.Lipo.Weighted>
-7.3263

> <Gold.Chemscore.Internal_Hbond.Weighted>
0.0000

> <Gold.Chemscore.DEClash.Weighted>
0.1389

> <Gold.Chemscore.DEInternal.Weighted>
0.4180

> <Gold.Chemscore.Rot.Weighted>
3.5162

> <Gold.Chemscore.Internal.Correction.Weighted>
   9.000000E+99

> <Gold.Protein.RotatedTorsions>
[ 6907 6896 6895 6894 ] final -102.42 input  -60.11 | X-H torsion
[ 7974 7965 7964 7962 ] final  125.47 input  175.53 | X-H torsion
[ 8008 7997 7996 7995 ] final    9.57 input   59.86 | X-H torsion
[ 10167 10162 10161 10158 ] final   82.56 input  -65.29 | X-H torsion
[ 10718 10713 10712 10709 ] final   -5.19 input   66.30 | X-H torsion
[ 10763 10752 10751 10750 ] final  157.02 input  -60.55 | X-H torsion
[ 11005 11000 10999 10996 ] final  -67.72 input  -57.11 | X-H torsion

> <Gold.Protein.ActiveResidues>
 VAL166  LYS551  ARG553  GLY616  TRP617  ASP618  TYR619  PRO620  LYS621  CYS622 
 ASP623  PHE694  ASN695  SER759  ASP760  ASP761  ALA762  ILE779  LEU786  VAL792 
 PHE793  MET794  SER795  GLU796  ALA797  LYS798  CYS799  TRP800  GLU811  SER814 

> <Gold.Protein.RotatedAtoms>
  150.7195  134.0584  159.3822 H   0  0  0  0  0  0  0  0  0  0  0  0  # atno 6907 bound_to 6896
  151.8563  135.0537  160.0474 H   0  0  0  0  0  0  0  0  0  0  0  0  # atno 6908 bound_to 6896
  152.2751  133.5382  159.5500 H   0  0  0  0  0  0  0  0  0  0  0  0  # atno 6909 bound_to 6896
  145.0726  139.3718  143.4950 H   0  0  0  0  0  0  0  0  0  0  0  0  # atno 7974 bound_to 7965
  154.7817  140.2820  155.6058 H   0  0  0  0  0  0  0  0  0  0  0  0  # atno 8008 bound_to 7997
  156.2951  140.2622  156.2572 H   0  0  0  0  0  0  0  0  0  0  0  0  # atno 8009 bound_to 7997
  154.9776  140.0375  157.2252 H   0  0  0  0  0  0  0  0  0  0  0  0  # atno 8010 bound_to 7997
  139.9275  144.6173  150.8378 H   0  0  0  0  0  0  0  0  0  0  0  0  # atno 10167 bound_to 10162
  156.7502  130.5237  149.5805 H   0  0  0  0  0  0  0  0  0  0  0  0  # atno 10718 bound_to 10713
  154.1936  135.2793  155.3014 H   0  0  0  0  0  0  0  0  0  0  0  0  # atno 10763 bound_to 10752
  154.5910  135.5560  153.7281 H   0  0  0  0  0  0  0  0  0  0  0  0  # atno 10764 bound_to 10752
  153.0106  135.6368  154.2074 H   0  0  0  0  0  0  0  0  0  0  0  0  # atno 10765 bound_to 10752
  141.1515  133.6725  156.6336 H   0  0  0  0  0  0  0  0  0  0  0  0  # atno 11005 bound_to 11000
  146.3529  140.0478  142.8638 LP  0  0  0  0  0  0  0  0  0  0  0  0  # atno 17320 bound_to 7965
  145.1274  140.9498  143.4564 LP  0  0  0  0  0  0  0  0  0  0  0  0  # atno 17321 bound_to 7965
  140.7646  143.3253  151.2529 LP  0  0  0  0  0  0  0  0  0  0  0  0  # atno 17342 bound_to 10162
  139.6810  143.9855  152.2808 LP  0  0  0  0  0  0  0  0  0  0  0  0  # atno 17343 bound_to 10162
  156.1406  130.6242  151.0462 LP  0  0  0  0  0  0  0  0  0  0  0  0  # atno 17370 bound_to 10713
  157.6780  131.0845  150.7444 LP  0  0  0  0  0  0  0  0  0  0  0  0  # atno 17371 bound_to 10713
  140.3448  134.7818  157.4424 LP  0  0  0  0  0  0  0  0  0  0  0  0  # atno 17394 bound_to 11000
  140.0908  134.5603  155.8446 LP  0  0  0  0  0  0  0  0  0  0  0  0  # atno 17395 bound_to 11000

$$$$
