AV-unprocessed.smi:1768|AV-procd|sdf|7150|dock6
  -GOLD-   22720 8393D 1   1.00000     0.00000
 Structure written by MMmdl.
 32 33  0  0  0  0  0  0  0  0  2 V2000
  143.7725  143.9559  161.0898 C   0  0  0  0  0  0  0  0  0  0  0  0
  145.1642  143.9844  160.5578 C   0  0  0  0  0  0  0  0  0  0  0  0
  145.8043  142.8848  160.1528 N   0  0  0  0  0  0  0  0  0  0  0  0
  147.0850  143.1632  159.6976 N   0  0  0  0  0  0  0  0  0  0  0  0
  147.3981  144.4646  159.7717 C   0  0  0  0  0  0  0  0  0  0  0  0
  148.5905  144.9419  159.3783 N   0  5  0  0  0  0  0  0  0  0  0  0
  149.5536  144.0908  158.9570 C   0  0  0  0  0  0  0  0  0  0  0  0
  149.4906  142.8594  158.9615 O   0  0  0  0  0  0  0  0  0  0  0  0
  150.6586  144.7078  158.5123 N   0  0  0  0  0  0  0  0  0  0  0  0
  151.8732  144.0719  158.0026 C   0  0  1  0  0  0  0  0  0  0  0  0
  152.7926  145.1579  157.4248 C   0  0  0  0  0  0  0  0  0  0  0  0
  152.5708  143.2686  159.1198 C   0  0  1  0  0  0  0  0  0  0  0  0
  152.2034  143.6806  160.5457 C   0  0  0  0  0  0  0  0  0  0  0  0
  152.5357  142.4434  161.3613 C   0  0  0  0  0  0  0  0  0  0  0  0
  152.5480  141.3123  160.3286 C   0  0  0  0  0  0  0  0  0  0  0  0
  152.1587  141.9103  159.0985 O   0  0  0  0  0  0  0  0  0  0  0  0
  146.0922  145.4667  160.4048 S   0  0  0  0  0  0  0  0  0  0  0  0
  143.6662  143.1565  161.8235 H   0  0  0  0  0  0  0  0  0  0  0  0
  143.0667  143.7842  160.2770 H   0  0  0  0  0  0  0  0  0  0  0  0
  143.5305  144.9040  161.5701 H   0  0  0  0  0  0  0  0  0  0  0  0
  150.6546  145.7169  158.5316 H   0  0  0  0  0  0  0  0  0  0  0  0
  151.6223  143.3900  157.1884 H   0  0  0  0  0  0  0  0  0  0  0  0
  153.6975  144.7234  156.9998 H   0  0  0  0  0  0  0  0  0  0  0  0
  153.0949  145.8723  158.1914 H   0  0  0  0  0  0  0  0  0  0  0  0
  152.2922  145.7129  156.6306 H   0  0  0  0  0  0  0  0  0  0  0  0
  153.6547  143.3085  158.9941 H   0  0  0  0  0  0  0  0  0  0  0  0
  152.7385  144.5688  160.8832 H   0  0  0  0  0  0  0  0  0  0  0  0
  151.1340  143.8857  160.6131 H   0  0  0  0  0  0  0  0  0  0  0  0
  153.5158  142.5376  161.8302 H   0  0  0  0  0  0  0  0  0  0  0  0
  151.8005  142.2756  162.1488 H   0  0  0  0  0  0  0  0  0  0  0  0
  153.5512  140.8962  160.2274 H   0  0  0  0  0  0  0  0  0  0  0  0
  151.8689  140.5012  160.5921 H   0  0  0  0  0  0  0  0  0  0  0  0
  1  2  1  0  0  0  0
  1 18  1  0  0  0  0
  1 19  1  0  0  0  0
  1 20  1  0  0  0  0
  2 17  1  0  0  0  0
  2  3  2  0  0  0  0
  3  4  1  0  0  0  0
  4  5  2  0  0  0  0
  5  6  1  0  0  0  0
  5 17  1  0  0  0  0
  6  7  1  0  0  0  0
  7  8  2  0  0  0  0
  7  9  1  0  0  0  0
  9 10  1  0  0  0  0
  9 21  1  0  0  0  0
 10 11  1  0  0  0  0
 10 12  1  0  0  0  0
 10 22  1  0  0  0  0
 11 23  1  0  0  0  0
 11 24  1  0  0  0  0
 11 25  1  0  0  0  0
 12 16  1  0  0  0  0
 12 13  1  0  0  0  0
 12 26  1  0  0  0  0
 13 14  1  0  0  0  0
 13 27  1  0  0  0  0
 13 28  1  0  0  0  0
 14 15  1  0  0  0  0
 14 29  1  0  0  0  0
 14 30  1  0  0  0  0
 15 16  1  0  0  0  0
 15 31  1  0  0  0  0
 15 32  1  0  0  0  0
M  CHG  1   6  -1
M  END
> <s_m_source_file>
AV-unprocessed.smi

> <i_m_source_file_index>
1768

> <i_lp_mmshare_version>
43012

> <i_f3d_flags>
0

> <s_epik_input>
W0NIM11jMW5uYyhzMSlbTkhdQyg9TylbTkhdW0NASF0oW0NIM10pW0NAQEhdMltDSDJdW0NIMl1bQ0gyXU8y

> <s_epik_cmdline>
J2VwaWtfcHl0aG9uJywgJy1waCcsICc3LjAnLCAnLXRuJywgJzgnLCAnLW1hJywgJzIwMCcsICctbWV0YWxfYmluZGluZycsICctaW1hZScsICc8aW5maWxlLm1hZT4nLCAnLW9tYWUnLCAnPG91dGZpbGUubWFlPic=

> <r_lp_tautomer_probability>
1

> <r_epik_Ionization_Penalty>
4.3376

> <r_epik_Ionization_Penalty_Charging>
4.19392

> <r_epik_Ionization_Penalty_Neutral>
0.143681

> <r_epik_State_Penalty>
4.19342

> <r_epik_Charging_Adjusted_Penalty>
8.38735

> <i_epik_Tot_Q>
-1

> <i_epik_Tot_abs_Q>
1

> <r_epik_Metal_State_Penalty>
0.686065

> <b_epik_Metal_Only>
1

> <s_lp_Force_Field>
OPLS_2005

> <r_lp_Energy>
15.6479

> <b_lp_Chiralities_Consistent>
1

> <s_lp_Variant>
AV-unprocessed.smi:1768-8

> <Gold.Version>
5.8.1

> <Gold.Id.Protein>
6NUR|6NUR_protein|mol2

> <Gold.PLP.Fitness>
39.6901

> <Gold.PLP.PLP>
-38.3477

> <Gold.PLP.part.hbond>
-4.1888

> <Gold.PLP.part.metal>
0.0000

> <Gold.PLP.part.buried>
-6.4545

> <Gold.PLP.part.nonpolar>
-29.9162

> <Gold.PLP.part.repulsive>
1.1524

> <Gold.PLP.ligand.clash>
0.0000

> <Gold.PLP.ligand.torsion>
1.0566

> <Gold.PLP.Chemscore.Hbond>
1.1385

> <Gold.PLP.Chemscore.CHOScore>
0.0000

> <Gold.PLP.Chemscore.Metal>
0.0000

> <Gold.Chemscore.Hbonds>
donor molecule, donor type, donor heavy atom, donor atom, acceptor molecule, acceptor atom, score
      P1  H  6933  6944       L1     4  0.11

> <Gold.PLP.Chemscore.Internal.Correction>
0.0401

> <Gold.Rescore>
     Score         DG    S(hbond)    S(metal)    S(lipo)     H(rot)  DE(clash)    DE(int)     intcor
      9.91     -13.49       0.12        0.00      93.09       1.28       1.08       2.51       ----

> <Gold.Chemscore.Fitness>
9.9051

> <Gold.Chemscore.DG>
-13.4933

> <Gold.Chemscore.ZeroCoef>
-5.4800

> <Gold.Chemscore.Hbond>
0.1174

> <Gold.Chemscore.Metal>
0.0000

> <Gold.Chemscore.Lipo>
93.0917

> <Gold.Chemscore.Internal_Hbond>
0.0000

> <Gold.Chemscore.DEClash>
1.0781

> <Gold.Chemscore.DEInternal>
2.5101

> <Gold.Chemscore.Rot>
1.2776

> <Gold.Chemscore.Internal.Correction>
   9.000000E+99

> <Gold.Chemscore.Hbonds>
donor molecule, donor type, donor heavy atom, donor atom, acceptor molecule, acceptor atom, score
      P1  H  6933  6944       L1     4  0.01

> <Gold.Chemscore.Hbond.Weighted>
-0.3922

> <Gold.Chemscore.Metal.Weighted>
-0.0000

> <Gold.Chemscore.Lipo.Weighted>
-10.8917

> <Gold.Chemscore.Internal_Hbond.Weighted>
0.0000

> <Gold.Chemscore.DEClash.Weighted>
1.0781

> <Gold.Chemscore.DEInternal.Weighted>
2.5101

> <Gold.Chemscore.Rot.Weighted>
3.2706

> <Gold.Chemscore.Internal.Correction.Weighted>
   9.000000E+99

> <Gold.Protein.RotatedTorsions>
[ 6907 6896 6895 6894 ] final   64.69 input  -60.11 | X-H torsion
[ 7974 7965 7964 7962 ] final  161.34 input  175.53 | X-H torsion
[ 8008 7997 7996 7995 ] final -102.57 input   59.86 | X-H torsion
[ 10167 10162 10161 10158 ] final  -38.56 input  -65.29 | X-H torsion
[ 10718 10713 10712 10709 ] final  -93.64 input   66.30 | X-H torsion
[ 10763 10752 10751 10750 ] final  -85.63 input  -60.55 | X-H torsion
[ 11005 11000 10999 10996 ] final  127.78 input  -57.11 | X-H torsion

> <Gold.Protein.ActiveResidues>
 VAL166  LYS551  ARG553  GLY616  TRP617  ASP618  TYR619  PRO620  LYS621  CYS622 
 ASP623  PHE694  ASN695  SER759  ASP760  ASP761  ALA762  ILE779  LEU786  VAL792 
 PHE793  MET794  SER795  GLU796  ALA797  LYS798  CYS799  TRP800  GLU811  SER814 

> <Gold.Protein.RotatedAtoms>
  152.4351  134.5703  159.9918 H   0  0  0  0  0  0  0  0  0  0  0  0  # atno 6907 bound_to 6896
  151.5815  133.3371  159.3017 H   0  0  0  0  0  0  0  0  0  0  0  0  # atno 6908 bound_to 6896
  150.8248  134.7509  159.6868 H   0  0  0  0  0  0  0  0  0  0  0  0  # atno 6909 bound_to 6896
  144.7691  139.7884  143.6304 H   0  0  0  0  0  0  0  0  0  0  0  0  # atno 7974 bound_to 7965
  154.8585  140.0427  157.1650 H   0  0  0  0  0  0  0  0  0  0  0  0  # atno 8008 bound_to 7997
  154.8866  140.2980  155.5374 H   0  0  0  0  0  0  0  0  0  0  0  0  # atno 8009 bound_to 7997
  156.2998  140.2401  156.3875 H   0  0  0  0  0  0  0  0  0  0  0  0  # atno 8010 bound_to 7997
  140.7089  143.3269  151.2658 H   0  0  0  0  0  0  0  0  0  0  0  0  # atno 10167 bound_to 10162
  156.0016  130.5035  150.5807 H   0  0  0  0  0  0  0  0  0  0  0  0  # atno 10718 bound_to 10713
  154.6132  135.5478  153.7496 H   0  0  0  0  0  0  0  0  0  0  0  0  # atno 10763 bound_to 10752
  153.0204  135.6395  154.1547 H   0  0  0  0  0  0  0  0  0  0  0  0  # atno 10764 bound_to 10752
  154.1484  135.2904  155.3122 H   0  0  0  0  0  0  0  0  0  0  0  0  # atno 10765 bound_to 10752
  139.9525  134.9619  156.8904 H   0  0  0  0  0  0  0  0  0  0  0  0  # atno 11005 bound_to 11000
  146.1823  139.5021  142.9859 LP  0  0  0  0  0  0  0  0  0  0  0  0  # atno 17320 bound_to 7965
  145.6379  141.0290  143.1827 LP  0  0  0  0  0  0  0  0  0  0  0  0  # atno 17321 bound_to 7965
  139.6740  143.9969  152.2770 LP  0  0  0  0  0  0  0  0  0  0  0  0  # atno 17342 bound_to 10162
  139.9577  144.6578  150.8109 LP  0  0  0  0  0  0  0  0  0  0  0  0  # atno 17343 bound_to 10162
  157.3688  131.0762  151.1575 LP  0  0  0  0  0  0  0  0  0  0  0  0  # atno 17370 bound_to 10713
  157.2336  130.6536  149.5860 LP  0  0  0  0  0  0  0  0  0  0  0  0  # atno 17371 bound_to 10713
  140.5685  134.0466  155.7422 LP  0  0  0  0  0  0  0  0  0  0  0  0  # atno 17394 bound_to 11000
  141.1191  133.9491  157.2765 LP  0  0  0  0  0  0  0  0  0  0  0  0  # atno 17395 bound_to 11000

$$$$
