AV-unprocessed.smi:1231|AV-procd|sdf|5164|dock5
  -GOLD-   22720 4233D 1   1.00000     0.00000
 Structure written by MMmdl.
 43 44  0  0  0  0  0  0  0  0  2 V2000
  149.0681  141.7521  154.3271 C   0  0  0  0  0  0  0  0  0  0  0  0
  149.4840  140.3443  154.7677 C   0  0  1  0  0  0  0  0  0  0  0  0
  148.9067  139.2535  153.8421 C   0  0  0  0  0  0  0  0  0  0  0  0
  149.3884  137.9056  154.2311 N   0  3  2  0  0  0  0  0  0  0  0  0
  148.6972  137.3503  155.4247 C   0  0  0  0  0  0  0  0  0  0  0  0
  147.2925  136.8100  155.0935 C   0  0  0  0  0  0  0  0  0  0  0  0
  147.3027  136.0077  153.8756 N   0  0  0  0  0  0  0  0  0  0  0  0
  146.2810  135.2473  153.4551 C   0  0  0  0  0  0  0  0  0  0  0  0
  145.2135  135.1575  154.0625 O   0  0  0  0  0  0  0  0  0  0  0  0
  146.5805  134.6154  152.3065 N   0  0  0  0  0  0  0  0  0  0  0  0
  145.7577  133.7419  151.5465 C   0  0  0  0  0  0  0  0  0  0  0  0
  146.4501  132.7424  150.8262 C   0  0  0  0  0  0  0  0  0  0  0  0
  145.7240  131.8258  150.0410 C   0  0  0  0  0  0  0  0  0  0  0  0
  144.3226  131.9332  149.9958 C   0  0  0  0  0  0  0  0  0  0  0  0
  143.7117  132.9583  150.7410 C   0  0  0  0  0  0  0  0  0  0  0  0
  144.4055  133.8380  151.4940 N   0  0  0  0  0  0  0  0  0  0  0  0
  150.8720  137.8909  154.3078 C   0  0  0  0  0  0  0  0  0  0  0  0
  151.4091  139.0275  155.2043 C   0  0  1  0  0  0  0  0  0  0  0  0
  152.9397  139.0970  155.1852 C   0  0  0  0  0  0  0  0  0  0  0  0
  150.9053  140.2729  154.7332 O   0  0  0  0  0  0  0  0  0  0  0  0
  147.9835  141.8635  154.3401 H   0  0  0  0  0  0  0  0  0  0  0  0
  149.4150  141.9689  153.3163 H   0  0  0  0  0  0  0  0  0  0  0  0
  149.4869  142.5083  154.9918 H   0  0  0  0  0  0  0  0  0  0  0  0
  149.1400  140.1898  155.7917 H   0  0  0  0  0  0  0  0  0  0  0  0
  147.8164  139.2831  153.8364 H   0  0  0  0  0  0  0  0  0  0  0  0
  149.2216  139.4443  152.8151 H   0  0  0  0  0  0  0  0  0  0  0  0
  149.3105  136.5810  155.8934 H   0  0  0  0  0  0  0  0  0  0  0  0
  148.5829  138.1397  156.1687 H   0  0  0  0  0  0  0  0  0  0  0  0
  146.9325  136.1839  155.9102 H   0  0  0  0  0  0  0  0  0  0  0  0
  146.5672  137.6159  154.9790 H   0  0  0  0  0  0  0  0  0  0  0  0
  148.1457  136.0273  153.3200 H   0  0  0  0  0  0  0  0  0  0  0  0
  147.5033  134.7768  151.9310 H   0  0  0  0  0  0  0  0  0  0  0  0
  147.5274  132.6733  150.8726 H   0  0  0  0  0  0  0  0  0  0  0  0
  146.2345  131.0545  149.4833 H   0  0  0  0  0  0  0  0  0  0  0  0
  143.7314  131.2487  149.4057 H   0  0  0  0  0  0  0  0  0  0  0  0
  142.6381  133.0765  150.7325 H   0  0  0  0  0  0  0  0  0  0  0  0
  151.2400  136.9249  154.6511 H   0  0  0  0  0  0  0  0  0  0  0  0
  151.2593  138.0177  153.2959 H   0  0  0  0  0  0  0  0  0  0  0  0
  151.0906  138.8796  156.2371 H   0  0  0  0  0  0  0  0  0  0  0  0
  153.3795  138.1669  155.5464 H   0  0  0  0  0  0  0  0  0  0  0  0
  153.3002  139.9043  155.8232 H   0  0  0  0  0  0  0  0  0  0  0  0
  153.3154  139.2760  154.1773 H   0  0  0  0  0  0  0  0  0  0  0  0
  149.1326  137.2921  153.4705 H   0  0  0  0  0  0  0  0  0  0  0  0
  1  2  1  0  0  0  0
  1 21  1  0  0  0  0
  1 22  1  0  0  0  0
  1 23  1  0  0  0  0
  2 20  1  0  0  0  0
  2  3  1  0  0  0  0
  2 24  1  0  0  0  0
  3  4  1  0  0  0  0
  3 25  1  0  0  0  0
  3 26  1  0  0  0  0
  4  5  1  0  0  0  0
  4 17  1  0  0  0  0
  4 43  1  0  0  0  0
  5  6  1  0  0  0  0
  5 27  1  0  0  0  0
  5 28  1  0  0  0  0
  6  7  1  0  0  0  0
  6 29  1  0  0  0  0
  6 30  1  0  0  0  0
  7  8  1  0  0  0  0
  7 31  1  0  0  0  0
  8  9  2  0  0  0  0
  8 10  1  0  0  0  0
 10 11  1  0  0  0  0
 10 32  1  0  0  0  0
 11 16  1  0  0  0  0
 11 12  2  0  0  0  0
 12 13  1  0  0  0  0
 12 33  1  0  0  0  0
 13 14  2  0  0  0  0
 13 34  1  0  0  0  0
 14 15  1  0  0  0  0
 14 35  1  0  0  0  0
 15 16  2  0  0  0  0
 15 36  1  0  0  0  0
 17 18  1  0  0  0  0
 17 37  1  0  0  0  0
 17 38  1  0  0  0  0
 18 19  1  0  0  0  0
 18 20  1  0  0  0  0
 18 39  1  0  0  0  0
 19 40  1  0  0  0  0
 19 41  1  0  0  0  0
 19 42  1  0  0  0  0
M  CHG  1   4   1
M  END
> <s_m_source_file>
AV-unprocessed.smi

> <i_m_source_file_index>
1231

> <i_lp_mmshare_version>
43012

> <i_f3d_flags>
0

> <s_epik_input>
W0NIM11bQ0BASF0xW0NIMl1OKFtDSDJdW0NASF0oTzEpW0NIM10pW0NIMl1bQ0gyXVtOSF1DKD1PKVtOSF1jMltjSF1bY0hdW2NIXVtjSF1uMg==

> <s_epik_cmdline>
J2VwaWtfcHl0aG9uJywgJy1waCcsICc3LjAnLCAnLXRuJywgJzgnLCAnLW1hJywgJzIwMCcsICctbWV0YWxfYmluZGluZycsICctaW1hZScsICc8aW5maWxlLm1hZT4nLCAnLW9tYWUnLCAnPG91dGZpbGUubWFlPic=

> <r_epik_Ionization_Penalty>
0.602565

> <r_epik_Ionization_Penalty_Charging>
0.602531

> <r_epik_Ionization_Penalty_Neutral>
3.43186e-05

> <r_epik_State_Penalty>
0.617039

> <r_epik_Charging_Adjusted_Penalty>
1.21957

> <i_epik_Tot_Q>
1

> <i_epik_Tot_abs_Q>
1

> <r_epik_Metal_State_Penalty>
0.617041

> <b_epik_Metal_Only>
0

> <s_lp_Force_Field>
OPLS_2005

> <r_lp_Energy>
17.2402

> <b_lp_Chiralities_Consistent>
1

> <s_lp_Variant>
AV-unprocessed.smi:1231-5

> <Gold.Version>
5.8.1

> <Gold.Id.Protein>
6NUR|6NUR_protein|mol2

> <Gold.PLP.Fitness>
53.1713

> <Gold.PLP.PLP>
-36.8378

> <Gold.PLP.part.hbond>
-3.8526

> <Gold.PLP.part.metal>
0.0000

> <Gold.PLP.part.buried>
-0.7214

> <Gold.PLP.part.nonpolar>
-32.6478

> <Gold.PLP.part.repulsive>
0.2885

> <Gold.PLP.ligand.clash>
0.0000

> <Gold.PLP.ligand.torsion>
0.5162

> <Gold.PLP.Chemscore.Hbond>
4.8320

> <Gold.PLP.Chemscore.CHOScore>
0.9468

> <Gold.PLP.Chemscore.Metal>
0.0000

> <Gold.Chemscore.Hbonds>
donor molecule, donor type, donor heavy atom, donor atom, acceptor molecule, acceptor atom, score
      L1  H     4    43       P1  7948  2.00
      L1  H     7    31       P1  7948  1.00
      L1  H    10    32       P1  7948  0.85
      P1  H  7989  7998       L1    20  1.00
      L1  C    15    36       P1 10186  1.00

> <Gold.PLP.Chemscore.Internal.Correction>
0.0296

> <Gold.Rescore>
     Score         DG    S(hbond)    S(metal)    S(lipo)     H(rot)  DE(clash)    DE(int)     intcor
     21.71     -23.31       3.53        0.00      85.81       1.55       0.15       1.46       ----

> <Gold.Chemscore.Fitness>
21.7061

> <Gold.Chemscore.DG>
-23.3148

> <Gold.Chemscore.ZeroCoef>
-5.4800

> <Gold.Chemscore.Hbond>
3.5252

> <Gold.Chemscore.Metal>
0.0000

> <Gold.Chemscore.Lipo>
85.8133

> <Gold.Chemscore.Internal_Hbond>
0.0000

> <Gold.Chemscore.DEClash>
0.1505

> <Gold.Chemscore.DEInternal>
1.4582

> <Gold.Chemscore.Rot>
1.5546

> <Gold.Chemscore.Internal.Correction>
   9.000000E+99

> <Gold.Chemscore.Hbonds>
donor molecule, donor type, donor heavy atom, donor atom, acceptor molecule, acceptor atom, score
      L1  H     4    43       P1  7948  0.99
      L1  H     7    31       P1  7948  0.96
      L1  H    10    32       P1  7948  0.59
      P1  H  7989  7998       L1    20  0.84

> <Gold.Chemscore.Hbond.Weighted>
-11.7743

> <Gold.Chemscore.Metal.Weighted>
-0.0000

> <Gold.Chemscore.Lipo.Weighted>
-10.0402

> <Gold.Chemscore.Internal_Hbond.Weighted>
0.0000

> <Gold.Chemscore.DEClash.Weighted>
0.1505

> <Gold.Chemscore.DEInternal.Weighted>
1.4582

> <Gold.Chemscore.Rot.Weighted>
3.9797

> <Gold.Chemscore.Internal.Correction.Weighted>
   9.000000E+99

> <Gold.Protein.RotatedTorsions>
[ 6907 6896 6895 6894 ] final  115.78 input  -60.11 | X-H torsion
[ 7974 7965 7964 7962 ] final  -83.44 input  175.53 | X-H torsion
[ 8008 7997 7996 7995 ] final  144.01 input   59.86 | X-H torsion
[ 10167 10162 10161 10158 ] final -140.08 input  -65.29 | X-H torsion
[ 10718 10713 10712 10709 ] final  115.19 input   66.30 | X-H torsion
[ 10763 10752 10751 10750 ] final  -36.40 input  -60.55 | X-H torsion
[ 11005 11000 10999 10996 ] final  -32.91 input  -57.11 | X-H torsion

> <Gold.Protein.ActiveResidues>
 VAL166  LYS551  ARG553  GLY616  TRP617  ASP618  TYR619  PRO620  LYS621  CYS622 
 ASP623  PHE694  ASN695  SER759  ASP760  ASP761  ALA762  ILE779  LEU786  VAL792 
 PHE793  MET794  SER795  GLU796  ALA797  LYS798  CYS799  TRP800  GLU811  SER814 

> <Gold.Protein.RotatedAtoms>
  152.4720  133.8051  159.6973 H   0  0  0  0  0  0  0  0  0  0  0  0  # atno 6907 bound_to 6896
  150.8714  133.7490  159.2966 H   0  0  0  0  0  0  0  0  0  0  0  0  # atno 6908 bound_to 6896
  151.5024  135.1065  159.9884 H   0  0  0  0  0  0  0  0  0  0  0  0  # atno 6909 bound_to 6896
  145.5199  140.9532  143.1661 H   0  0  0  0  0  0  0  0  0  0  0  0  # atno 7974 bound_to 7965
  156.2918  140.2247  156.4983 H   0  0  0  0  0  0  0  0  0  0  0  0  # atno 8008 bound_to 7997
  154.7711  140.0466  157.1073 H   0  0  0  0  0  0  0  0  0  0  0  0  # atno 8009 bound_to 7997
  154.9873  140.3086  155.4924 H   0  0  0  0  0  0  0  0  0  0  0  0  # atno 8010 bound_to 7997
  139.8317  143.7438  152.2666 H   0  0  0  0  0  0  0  0  0  0  0  0  # atno 10167 bound_to 10162
  157.6237  131.1009  150.7294 H   0  0  0  0  0  0  0  0  0  0  0  0  # atno 10718 bound_to 10713
  153.8792  135.6823  153.4768 H   0  0  0  0  0  0  0  0  0  0  0  0  # atno 10763 bound_to 10752
  153.1243  135.4726  154.9245 H   0  0  0  0  0  0  0  0  0  0  0  0  # atno 10764 bound_to 10752
  154.7677  135.3229  154.8204 H   0  0  0  0  0  0  0  0  0  0  0  0  # atno 10765 bound_to 10752
  140.9592  133.7175  156.1341 H   0  0  0  0  0  0  0  0  0  0  0  0  # atno 11005 bound_to 11000
  144.7682  139.6797  143.7206 LP  0  0  0  0  0  0  0  0  0  0  0  0  # atno 17320 bound_to 7965
  146.2113  139.5471  142.9679 LP  0  0  0  0  0  0  0  0  0  0  0  0  # atno 17321 bound_to 7965
  139.7648  144.7495  151.0311 LP  0  0  0  0  0  0  0  0  0  0  0  0  # atno 17342 bound_to 10162
  140.7806  143.4710  151.0146 LP  0  0  0  0  0  0  0  0  0  0  0  0  # atno 17343 bound_to 10162
  156.7647  130.4809  149.5430 LP  0  0  0  0  0  0  0  0  0  0  0  0  # atno 17370 bound_to 10713
  156.1396  130.6235  151.0448 LP  0  0  0  0  0  0  0  0  0  0  0  0  # atno 17371 bound_to 10713
  140.7492  134.4063  157.5544 LP  0  0  0  0  0  0  0  0  0  0  0  0  # atno 17394 bound_to 11000
  139.8872  134.8889  156.2541 LP  0  0  0  0  0  0  0  0  0  0  0  0  # atno 17395 bound_to 11000

$$$$
