AV-unprocessed.smi:36|AV-procd|sdf|286|dock4
  -GOLD-   2262016 63D 1   1.00000     0.00000
 Structure written by MMmdl.
 64 67  0  0  0  0  0  0  0  0  1 V2000
  146.4628  132.8640  150.0744 C   0  0  0  0  0  0  0  0  0  0  0  0
  145.9720  132.2932  151.4155 C   0  0  0  0  0  0  0  0  0  0  0  0
  144.4817  132.6201  151.6094 C   0  0  0  0  0  0  0  0  0  0  0  0
  146.1744  130.7691  151.4409 C   0  0  0  0  0  0  0  0  0  0  0  0
  146.9707  133.0776  152.8428 Si  0  0  0  0  0  0  0  0  0  0  0  0
  146.4142  132.3998  154.5280 C   0  0  0  0  0  0  0  0  0  0  0  0
  148.8344  132.7844  152.6160 C   0  0  0  0  0  0  0  0  0  0  0  0
  146.6844  134.7446  152.8207 O   0  0  0  0  0  0  0  0  0  0  0  0
  145.8952  135.4114  153.7833 C   0  0  0  0  0  0  0  0  0  0  0  0
  146.2154  136.9108  153.7562 C   0  0  1  0  0  0  0  0  0  0  0  0
  147.6126  137.1053  153.9593 O   0  0  0  0  0  0  0  0  0  0  0  0
  148.0624  138.1977  153.2135 C   0  0  2  0  0  0  0  0  0  0  0  0
  148.6541  139.1916  154.1555 N   0  0  0  0  0  0  0  0  0  0  0  0
  148.0116  140.1485  154.9109 C   0  0  0  0  0  0  0  0  0  0  0  0
  148.7900  140.8812  155.6620 N   0  0  0  0  0  0  0  0  0  0  0  0
  150.0650  140.3945  155.4010 C   0  0  0  0  0  0  0  0  0  0  0  0
  151.3614  140.7277  155.8731 C   0  0  0  0  0  0  0  0  0  0  0  0
  151.5192  141.7134  156.7876 N   0  0  0  0  0  0  0  0  0  0  0  0
  152.0084  141.6032  158.1505 C   0  0  0  0  0  0  0  0  0  0  0  0
  152.4491  140.5471  158.6052 O   0  0  0  0  0  0  0  0  0  0  0  0
  152.0278  142.8745  158.9483 C   0  0  0  0  0  0  0  0  0  0  0  0
  152.2645  142.8318  160.3409 C   0  0  0  0  0  0  0  0  0  0  0  0
  152.2614  144.0173  161.1013 C   0  0  0  0  0  0  0  0  0  0  0  0
  152.0137  145.2547  160.4774 C   0  0  0  0  0  0  0  0  0  0  0  0
  151.7673  145.3055  159.0924 C   0  0  0  0  0  0  0  0  0  0  0  0
  151.7703  144.1207  158.3308 C   0  0  0  0  0  0  0  0  0  0  0  0
  152.4089  140.0163  155.3786 N   0  0  0  0  0  0  0  0  0  0  0  0
  152.2011  139.0462  154.4830 C   0  0  0  0  0  0  0  0  0  0  0  0
  151.0470  138.6278  153.9587 N   0  0  0  0  0  0  0  0  0  0  0  0
  149.9912  139.3368  154.4527 C   0  0  0  0  0  0  0  0  0  0  0  0
  146.8494  138.7964  152.5013 C   0  0  0  0  0  0  0  0  0  0  0  0
  145.9360  137.5931  152.4146 C   0  0  2  0  0  0  0  0  0  0  0  0
  144.5869  137.9914  152.2818 O   0  0  0  0  0  0  0  0  0  0  0  0
  145.9115  132.4361  149.2365 H   0  0  0  0  0  0  0  0  0  0  0  0
  147.5199  132.6507  149.9149 H   0  0  0  0  0  0  0  0  0  0  0  0
  146.3353  133.9460  150.0323 H   0  0  0  0  0  0  0  0  0  0  0  0
  144.3040  133.6956  151.5884 H   0  0  0  0  0  0  0  0  0  0  0  0
  144.1153  132.2444  152.5652 H   0  0  0  0  0  0  0  0  0  0  0  0
  143.8721  132.1725  150.8237 H   0  0  0  0  0  0  0  0  0  0  0  0
  145.6043  130.2804  150.6500 H   0  0  0  0  0  0  0  0  0  0  0  0
  145.8519  130.3423  152.3912 H   0  0  0  0  0  0  0  0  0  0  0  0
  147.2227  130.5045  151.3005 H   0  0  0  0  0  0  0  0  0  0  0  0
  146.5476  131.3200  154.5897 H   0  0  0  0  0  0  0  0  0  0  0  0
  145.3615  132.6094  154.7163 H   0  0  0  0  0  0  0  0  0  0  0  0
  146.9835  132.8430  155.3446 H   0  0  0  0  0  0  0  0  0  0  0  0
  149.0728  131.7212  152.5936 H   0  0  0  0  0  0  0  0  0  0  0  0
  149.4103  133.2267  153.4286 H   0  0  0  0  0  0  0  0  0  0  0  0
  149.1990  133.2195  151.6861 H   0  0  0  0  0  0  0  0  0  0  0  0
  144.8408  135.2486  153.5578 H   0  0  0  0  0  0  0  0  0  0  0  0
  146.0857  134.9943  154.7726 H   0  0  0  0  0  0  0  0  0  0  0  0
  145.6884  137.4282  154.5603 H   0  0  0  0  0  0  0  0  0  0  0  0
  148.8664  137.8939  152.5424 H   0  0  0  0  0  0  0  0  0  0  0  0
  146.9400  140.2845  154.8887 H   0  0  0  0  0  0  0  0  0  0  0  0
  151.2328  142.6360  156.4950 H   0  0  0  0  0  0  0  0  0  0  0  0
  152.4530  141.8894  160.8353 H   0  0  0  0  0  0  0  0  0  0  0  0
  152.4467  143.9768  162.1646 H   0  0  0  0  0  0  0  0  0  0  0  0
  152.0091  146.1633  161.0612 H   0  0  0  0  0  0  0  0  0  0  0  0
  151.5716  146.2541  158.6138 H   0  0  0  0  0  0  0  0  0  0  0  0
  151.5675  144.1814  157.2713 H   0  0  0  0  0  0  0  0  0  0  0  0
  153.0861  138.5318  154.1383 H   0  0  0  0  0  0  0  0  0  0  0  0
  146.4041  139.5788  153.1194 H   0  0  0  0  0  0  0  0  0  0  0  0
  147.1244  139.2173  151.5340 H   0  0  0  0  0  0  0  0  0  0  0  0
  146.2287  136.9526  151.5813 H   0  0  0  0  0  0  0  0  0  0  0  0
  144.4213  138.1858  151.3715 H   0  0  0  0  0  0  0  0  0  0  0  0
  1  2  1  0  0  0  0
  1 34  1  0  0  0  0
  1 35  1  0  0  0  0
  1 36  1  0  0  0  0
  2  3  1  0  0  0  0
  2  4  1  0  0  0  0
  2  5  1  0  0  0  0
  3 37  1  0  0  0  0
  3 38  1  0  0  0  0
  3 39  1  0  0  0  0
  4 40  1  0  0  0  0
  4 41  1  0  0  0  0
  4 42  1  0  0  0  0
  5  6  1  0  0  0  0
  5  7  1  0  0  0  0
  5  8  1  0  0  0  0
  6 43  1  0  0  0  0
  6 44  1  0  0  0  0
  6 45  1  0  0  0  0
  7 46  1  0  0  0  0
  7 47  1  0  0  0  0
  7 48  1  0  0  0  0
  8  9  1  0  0  0  0
  9 10  1  0  0  0  0
  9 49  1  0  0  0  0
  9 50  1  0  0  0  0
 10 32  1  0  0  0  0
 10 11  1  0  0  0  0
 10 51  1  0  0  0  0
 11 12  1  0  0  0  0
 12 13  1  0  0  0  0
 12 31  1  0  0  0  0
 12 52  1  0  0  0  0
 13 30  1  0  0  0  0
 13 14  1  0  0  0  0
 14 15  2  0  0  0  0
 14 53  1  0  0  0  0
 15 16  1  0  0  0  0
 16 30  2  0  0  0  0
 16 17  1  0  0  0  0
 17 18  1  0  0  0  0
 17 27  2  0  0  0  0
 18 19  1  0  0  0  0
 18 54  1  0  0  0  0
 19 20  2  0  0  0  0
 19 21  1  0  0  0  0
 21 26  1  0  0  0  0
 21 22  2  0  0  0  0
 22 23  1  0  0  0  0
 22 55  1  0  0  0  0
 23 24  2  0  0  0  0
 23 56  1  0  0  0  0
 24 25  1  0  0  0  0
 24 57  1  0  0  0  0
 25 26  2  0  0  0  0
 25 58  1  0  0  0  0
 26 59  1  0  0  0  0
 27 28  1  0  0  0  0
 28 29  2  0  0  0  0
 28 60  1  0  0  0  0
 29 30  1  0  0  0  0
 31 32  1  0  0  0  0
 31 61  1  0  0  0  0
 31 62  1  0  0  0  0
 32 33  1  0  0  0  0
 32 63  1  0  0  0  0
 33 64  1  0  0  0  0
M  END
> <s_m_source_file>
AV-unprocessed.smi

> <i_m_source_file_index>
36

> <i_lp_mmshare_version>
43012

> <i_f3d_flags>
0

> <s_epik_input>
W0NIM11DKFtDSDNdKShbQ0gzXSlbU2ldKFtDSDNdKShbQ0gzXSlPW0NIMl1bQ0BASF0xT1tDQEhdKFtDSDJdW0NASF0xW09IXSluKFtjSF1uMiljKGMyMyluW2NIXW5jM1tOSF1DKD1PKWM0W2NIXVtjSF1bY0hdW2NIXVtjSF00

> <s_epik_cmdline>
J2VwaWtfcHl0aG9uJywgJy1waCcsICc3LjAnLCAnLXRuJywgJzgnLCAnLW1hJywgJzIwMCcsICctbWV0YWxfYmluZGluZycsICctaW1hZScsICc8aW5maWxlLm1hZT4nLCAnLW9tYWUnLCAnPG91dGZpbGUubWFlPic=

> <r_lp_tautomer_probability>
1

> <r_epik_Ionization_Penalty>
0.00150433

> <r_epik_Ionization_Penalty_Charging>
0

> <r_epik_Ionization_Penalty_Neutral>
0.00150433

> <r_epik_State_Penalty>
0.00724046

> <r_epik_Charging_Adjusted_Penalty>
0.00724046

> <i_epik_Tot_Q>
0

> <i_epik_Tot_abs_Q>
0

> <r_epik_Metal_State_Penalty>
0.323355

> <b_epik_Metal_Only>
0

> <s_epik_Chemistry_Notes>
This compound contains an acetal/aminal-like group ( X-CH(R)-Y where X, Y are N, S, or O) that may be acid/base labile, releasing an aldehyde.

> <s_lp_Force_Field>
OPLS_2005

> <r_lp_Energy>
35.7954

> <b_lp_Chiralities_Consistent>
1

> <s_lp_Variant>
AV-unprocessed.smi:36-8

> <Gold.Version>
5.8.1

> <Gold.Id.Protein>
6NUR|6NUR_protein|mol2

> <Gold.PLP.Fitness>
58.6165

> <Gold.PLP.PLP>
-57.7081

> <Gold.PLP.part.hbond>
-2.9263

> <Gold.PLP.part.metal>
0.0000

> <Gold.PLP.part.buried>
-1.7473

> <Gold.PLP.part.nonpolar>
-55.7943

> <Gold.PLP.part.repulsive>
3.3139

> <Gold.PLP.ligand.clash>
0.0000

> <Gold.PLP.ligand.torsion>
2.4656

> <Gold.PLP.Chemscore.Hbond>
1.8125

> <Gold.PLP.Chemscore.CHOScore>
0.0000

> <Gold.PLP.Chemscore.Metal>
0.0000

> <Gold.Chemscore.Hbonds>
donor molecule, donor type, donor heavy atom, donor atom, acceptor molecule, acceptor atom, score
      L1  H    33    64       P1 10171  1.00
      P1  H  7997  8010       L1    27  0.83

> <Gold.PLP.Chemscore.Internal.Correction>
0.4020

> <Gold.Rescore>
     Score         DG    S(hbond)    S(metal)    S(lipo)     H(rot)  DE(clash)    DE(int)     intcor
     14.26     -19.54       1.65        0.00     132.08       2.70       2.67       2.60       ----

> <Gold.Chemscore.Fitness>
14.2636

> <Gold.Chemscore.DG>
-19.5353

> <Gold.Chemscore.ZeroCoef>
-5.4800

> <Gold.Chemscore.Hbond>
1.6539

> <Gold.Chemscore.Metal>
0.0000

> <Gold.Chemscore.Lipo>
132.0844

> <Gold.Chemscore.Internal_Hbond>
0.0000

> <Gold.Chemscore.DEClash>
2.6724

> <Gold.Chemscore.DEInternal>
2.5992

> <Gold.Chemscore.Rot>
2.7041

> <Gold.Chemscore.Internal.Correction>
   9.000000E+99

> <Gold.Chemscore.Hbonds>
donor molecule, donor type, donor heavy atom, donor atom, acceptor molecule, acceptor atom, score
      L1  H    33    64       P1 10171  1.00
      P1  H  7997  8010       L1    27  0.75

> <Gold.Chemscore.Hbond.Weighted>
-5.5239

> <Gold.Chemscore.Metal.Weighted>
-0.0000

> <Gold.Chemscore.Lipo.Weighted>
-15.4539

> <Gold.Chemscore.Internal_Hbond.Weighted>
0.0000

> <Gold.Chemscore.DEClash.Weighted>
2.6724

> <Gold.Chemscore.DEInternal.Weighted>
2.5992

> <Gold.Chemscore.Rot.Weighted>
6.9225

> <Gold.Chemscore.Internal.Correction.Weighted>
   9.000000E+99

> <Gold.Protein.RotatedTorsions>
[ 6907 6896 6895 6894 ] final -175.50 input  -60.11 | X-H torsion
[ 7974 7965 7964 7962 ] final   76.16 input  175.53 | X-H torsion
[ 8008 7997 7996 7995 ] final   86.07 input   59.86 | X-H torsion
[ 10167 10162 10161 10158 ] final  -38.21 input  -65.29 | X-H torsion
[ 10718 10713 10712 10709 ] final    9.74 input   66.30 | X-H torsion
[ 10763 10752 10751 10750 ] final -146.77 input  -60.55 | X-H torsion
[ 11005 11000 10999 10996 ] final -169.20 input  -57.11 | X-H torsion

> <Gold.Protein.ActiveResidues>
 VAL166  LYS551  ARG553  GLY616  TRP617  ASP618  TYR619  PRO620  LYS621  CYS622 
 ASP623  PHE694  ASN695  SER759  ASP760  ASP761  ALA762  ILE779  LEU786  VAL792 
 PHE793  MET794  SER795  GLU796  ALA797  LYS798  CYS799  TRP800  GLU811  SER814 

> <Gold.Protein.RotatedAtoms>
  151.5895  133.3368  159.3024 H   0  0  0  0  0  0  0  0  0  0  0  0  # atno 6907 bound_to 6896
  150.8268  134.7506  159.6831 H   0  0  0  0  0  0  0  0  0  0  0  0  # atno 6908 bound_to 6896
  152.4356  134.5698  159.9969 H   0  0  0  0  0  0  0  0  0  0  0  0  # atno 6909 bound_to 6896
  145.7063  139.2599  143.1676 H   0  0  0  0  0  0  0  0  0  0  0  0  # atno 7974 bound_to 7965
  155.9581  140.3395  155.6466 H   0  0  0  0  0  0  0  0  0  0  0  0  # atno 8008 bound_to 7997
  155.6834  140.0740  157.2494 H   0  0  0  0  0  0  0  0  0  0  0  0  # atno 8009 bound_to 7997
  154.4137  140.1670  156.1995 H   0  0  0  0  0  0  0  0  0  0  0  0  # atno 8010 bound_to 7997
  140.7098  143.3292  151.2608 H   0  0  0  0  0  0  0  0  0  0  0  0  # atno 10167 bound_to 10162
  156.9708  130.5968  149.5668 H   0  0  0  0  0  0  0  0  0  0  0  0  # atno 10718 bound_to 10713
  154.8320  135.3378  154.6713 H   0  0  0  0  0  0  0  0  0  0  0  0  # atno 10763 bound_to 10752
  153.7332  135.6950  153.4989 H   0  0  0  0  0  0  0  0  0  0  0  0  # atno 10764 bound_to 10752
  153.2297  135.4420  155.0533 H   0  0  0  0  0  0  0  0  0  0  0  0  # atno 10765 bound_to 10752
  140.5334  134.5594  157.5081 H   0  0  0  0  0  0  0  0  0  0  0  0  # atno 11005 bound_to 11000
  146.0752  140.7825  142.9668 LP  0  0  0  0  0  0  0  0  0  0  0  0  # atno 17320 bound_to 7965
  144.6954  140.3404  143.7200 LP  0  0  0  0  0  0  0  0  0  0  0  0  # atno 17321 bound_to 7965
  139.6769  143.9922  152.2786 LP  0  0  0  0  0  0  0  0  0  0  0  0  # atno 17342 bound_to 10162
  139.9539  144.6602  150.8145 LP  0  0  0  0  0  0  0  0  0  0  0  0  # atno 17343 bound_to 10162
  156.0284  130.5376  150.8468 LP  0  0  0  0  0  0  0  0  0  0  0  0  # atno 17370 bound_to 10713
  157.5594  131.0945  150.9581 LP  0  0  0  0  0  0  0  0  0  0  0  0  # atno 17371 bound_to 10713
  139.9542  134.7564  156.0379 LP  0  0  0  0  0  0  0  0  0  0  0  0  # atno 17394 bound_to 11000
  141.1268  133.6597  156.3359 LP  0  0  0  0  0  0  0  0  0  0  0  0  # atno 17395 bound_to 11000

$$$$
