AV-unprocessed.smi:1381|AV-procd|sdf|5611|dock9
  -GOLD-   22720 5223D 1   1.00000     0.00000
 Structure written by MMmdl.
 41 42  0  0  0  0  0  0  0  0  2 V2000
  153.1832  137.5106  165.1822 C   0  0  0  0  0  0  0  0  0  0  0  0
  153.1290  137.5430  163.6935 C   0  0  0  0  0  0  0  0  0  0  0  0
  152.4409  136.8069  162.7712 C   0  0  0  0  0  0  0  0  0  0  0  0
  152.8498  137.3733  161.5330 C   0  0  0  0  0  0  0  0  0  0  0  0
  152.4467  136.9785  160.3152 N   0  5  0  0  0  0  0  0  0  0  0  0
  152.6896  137.7549  159.2338 C   0  0  0  0  0  0  0  0  0  0  0  0
  153.7947  138.1391  158.8433 O   0  0  0  0  0  0  0  0  0  0  0  0
  151.5832  138.1121  158.5655 N   0  0  0  0  0  0  0  0  0  0  0  0
  151.5396  138.9458  157.3693 C   0  0  0  0  0  0  0  0  0  0  0  0
  150.9731  140.3443  157.6796 C   0  0  0  0  0  0  0  0  0  0  0  0
  151.9294  141.2822  158.2664 N   0  0  0  0  0  0  0  0  0  0  0  0
  151.8917  141.2187  159.7234 C   0  0  0  0  0  0  0  0  0  0  0  0
  152.8832  142.1924  160.3908 C   0  0  1  0  0  0  0  0  0  0  0  0
  154.3499  141.7428  160.2772 C   0  0  0  0  0  0  0  0  0  0  0  0
  152.6922  143.5146  159.8846 O   0  0  0  0  0  0  0  0  0  0  0  0
  152.7191  143.6305  158.4630 C   0  0  2  0  0  0  0  0  0  0  0  0
  152.4215  145.0887  158.0987 C   0  0  0  0  0  0  0  0  0  0  0  0
  151.6956  142.6599  157.8458 C   0  0  0  0  0  0  0  0  0  0  0  0
  153.7247  138.3529  161.6896 N   0  0  0  0  0  0  0  0  0  0  0  0
  153.9036  138.4728  163.0730 O   0  0  0  0  0  0  0  0  0  0  0  0
  154.1499  137.1426  165.5253 H   0  0  0  0  0  0  0  0  0  0  0  0
  152.4091  136.8575  165.5853 H   0  0  0  0  0  0  0  0  0  0  0  0
  153.0326  138.5076  165.5963 H   0  0  0  0  0  0  0  0  0  0  0  0
  151.7509  135.9961  162.9513 H   0  0  0  0  0  0  0  0  0  0  0  0
  150.7001  137.7738  158.9185 H   0  0  0  0  0  0  0  0  0  0  0  0
  152.5361  139.0238  156.9313 H   0  0  0  0  0  0  0  0  0  0  0  0
  150.9174  138.4281  156.6406 H   0  0  0  0  0  0  0  0  0  0  0  0
  150.5436  140.7738  156.7733 H   0  0  0  0  0  0  0  0  0  0  0  0
  150.1407  140.2206  158.3735 H   0  0  0  0  0  0  0  0  0  0  0  0
  150.8837  141.4543  160.0682 H   0  0  0  0  0  0  0  0  0  0  0  0
  152.0995  140.2018  160.0589 H   0  0  0  0  0  0  0  0  0  0  0  0
  152.6461  142.2345  161.4543 H   0  0  0  0  0  0  0  0  0  0  0  0
  154.4986  140.7799  160.7663 H   0  0  0  0  0  0  0  0  0  0  0  0
  155.0154  142.4620  160.7546 H   0  0  0  0  0  0  0  0  0  0  0  0
  154.6655  141.6320  159.2399 H   0  0  0  0  0  0  0  0  0  0  0  0
  153.7172  143.3842  158.0996 H   0  0  0  0  0  0  0  0  0  0  0  0
  152.4424  145.2355  157.0185 H   0  0  0  0  0  0  0  0  0  0  0  0
  153.1607  145.7582  158.5392 H   0  0  0  0  0  0  0  0  0  0  0  0
  151.4387  145.3934  158.4599 H   0  0  0  0  0  0  0  0  0  0  0  0
  151.7563  142.7386  156.7610 H   0  0  0  0  0  0  0  0  0  0  0  0
  150.6860  142.9647  158.1257 H   0  0  0  0  0  0  0  0  0  0  0  0
  1  2  1  0  0  0  0
  1 21  1  0  0  0  0
  1 22  1  0  0  0  0
  1 23  1  0  0  0  0
  2 20  1  0  0  0  0
  2  3  2  0  0  0  0
  3  4  1  0  0  0  0
  3 24  1  0  0  0  0
  4  5  1  0  0  0  0
  4 19  2  0  0  0  0
  5  6  1  0  0  0  0
  6  7  2  0  0  0  0
  6  8  1  0  0  0  0
  8  9  1  0  0  0  0
  8 25  1  0  0  0  0
  9 10  1  0  0  0  0
  9 26  1  0  0  0  0
  9 27  1  0  0  0  0
 10 11  1  0  0  0  0
 10 28  1  0  0  0  0
 10 29  1  0  0  0  0
 11 18  1  0  0  0  0
 11 12  1  0  0  0  0
 12 13  1  0  0  0  0
 12 30  1  0  0  0  0
 12 31  1  0  0  0  0
 13 14  1  0  0  0  0
 13 15  1  0  0  0  0
 13 32  1  0  0  0  0
 14 33  1  0  0  0  0
 14 34  1  0  0  0  0
 14 35  1  0  0  0  0
 15 16  1  0  0  0  0
 16 17  1  0  0  0  0
 16 18  1  0  0  0  0
 16 36  1  0  0  0  0
 17 37  1  0  0  0  0
 17 38  1  0  0  0  0
 17 39  1  0  0  0  0
 18 40  1  0  0  0  0
 18 41  1  0  0  0  0
 19 20  1  0  0  0  0
M  CHG  1   5  -1
M  END
> <s_m_source_file>
AV-unprocessed.smi

> <i_m_source_file_index>
1381

> <i_lp_mmshare_version>
43012

> <i_f3d_flags>
0

> <s_epik_input>
W0NIM11jMVtjSF1jKG5vMSlbTkhdQyg9TylbTkhdW0NIMl1bQ0gyXU4yW0NIMl1bQ0BASF0oW0NIM10pT1tDQEBIXShbQ0gzXSlbQ0gyXTI=

> <s_epik_cmdline>
J2VwaWtfcHl0aG9uJywgJy1waCcsICc3LjAnLCAnLXRuJywgJzgnLCAnLW1hJywgJzIwMCcsICctbWV0YWxfYmluZGluZycsICctaW1hZScsICc8aW5maWxlLm1hZT4nLCAnLW9tYWUnLCAnPG91dGZpbGUubWFlPic=

> <r_epik_Ionization_Penalty>
6.88366

> <r_epik_Ionization_Penalty_Charging>
6.57198

> <r_epik_Ionization_Penalty_Neutral>
0.311678

> <r_epik_State_Penalty>
6.77619

> <r_epik_Charging_Adjusted_Penalty>
13.3482

> <i_epik_Tot_Q>
-1

> <i_epik_Tot_abs_Q>
1

> <r_epik_Metal_State_Penalty>
2.70524

> <b_epik_Metal_Only>
1

> <s_lp_Force_Field>
OPLS_2005

> <r_lp_Energy>
15.952

> <b_lp_Chiralities_Consistent>
1

> <s_lp_Variant>
AV-unprocessed.smi:1381-10

> <Gold.Version>
5.8.1

> <Gold.Id.Protein>
6NUR|6NUR_protein|mol2

> <Gold.PLP.Fitness>
39.6064

> <Gold.PLP.PLP>
-34.3243

> <Gold.PLP.part.hbond>
-1.9051

> <Gold.PLP.part.metal>
0.0000

> <Gold.PLP.part.buried>
-6.1328

> <Gold.PLP.part.nonpolar>
-26.8508

> <Gold.PLP.part.repulsive>
0.0726

> <Gold.PLP.ligand.clash>
0.0000

> <Gold.PLP.ligand.torsion>
1.1757

> <Gold.PLP.Chemscore.Hbond>
2.5350

> <Gold.PLP.Chemscore.CHOScore>
0.0000

> <Gold.PLP.Chemscore.Metal>
0.0000

> <Gold.Chemscore.Hbonds>
donor molecule, donor type, donor heavy atom, donor atom, acceptor molecule, acceptor atom, score
      P1  H  6896  6908       L1     5  2.00

> <Gold.PLP.Chemscore.Internal.Correction>
0.0286

> <Gold.Rescore>
     Score         DG    S(hbond)    S(metal)    S(lipo)     H(rot)  DE(clash)    DE(int)     intcor
     14.22     -16.93       1.32        0.00      93.92       1.54       0.09       2.62       ----

> <Gold.Chemscore.Fitness>
14.2235

> <Gold.Chemscore.DG>
-16.9259

> <Gold.Chemscore.ZeroCoef>
-5.4800

> <Gold.Chemscore.Hbond>
1.3181

> <Gold.Chemscore.Metal>
0.0000

> <Gold.Chemscore.Lipo>
93.9156

> <Gold.Chemscore.Internal_Hbond>
0.0000

> <Gold.Chemscore.DEClash>
0.0863

> <Gold.Chemscore.DEInternal>
2.6160

> <Gold.Chemscore.Rot>
1.5409

> <Gold.Chemscore.Internal.Correction>
   9.000000E+99

> <Gold.Chemscore.Hbonds>
donor molecule, donor type, donor heavy atom, donor atom, acceptor molecule, acceptor atom, score
      P1  H  6896  6908       L1     5  0.93

> <Gold.Chemscore.Hbond.Weighted>
-4.4024

> <Gold.Chemscore.Metal.Weighted>
-0.0000

> <Gold.Chemscore.Lipo.Weighted>
-10.9881

> <Gold.Chemscore.Internal_Hbond.Weighted>
0.0000

> <Gold.Chemscore.DEClash.Weighted>
0.0863

> <Gold.Chemscore.DEInternal.Weighted>
2.6160

> <Gold.Chemscore.Rot.Weighted>
3.9446

> <Gold.Chemscore.Internal.Correction.Weighted>
   9.000000E+99

> <Gold.Protein.RotatedTorsions>
[ 6907 6896 6895 6894 ] final -101.36 input  -60.11 | X-H torsion
[ 7974 7965 7964 7962 ] final  -63.01 input  175.53 | X-H torsion
[ 8008 7997 7996 7995 ] final  143.10 input   59.86 | X-H torsion
[ 10167 10162 10161 10158 ] final  132.25 input  -65.29 | X-H torsion
[ 10718 10713 10712 10709 ] final -135.74 input   66.30 | X-H torsion
[ 10763 10752 10751 10750 ] final -124.54 input  -60.55 | X-H torsion
[ 11005 11000 10999 10996 ] final   -4.81 input  -57.11 | X-H torsion

> <Gold.Protein.ActiveResidues>
 VAL166  LYS551  ARG553  GLY616  TRP617  ASP618  TYR619  PRO620  LYS621  CYS622 
 ASP623  PHE694  ASN695  SER759  ASP760  ASP761  ALA762  ILE779  LEU786  VAL792 
 PHE793  MET794  SER795  GLU796  ALA797  LYS798  CYS799  TRP800  GLU811  SER814 

> <Gold.Protein.RotatedAtoms>
  150.7152  134.0746  159.3876 H   0  0  0  0  0  0  0  0  0  0  0  0  # atno 6907 bound_to 6896
  151.8728  135.0480  160.0490 H   0  0  0  0  0  0  0  0  0  0  0  0  # atno 6908 bound_to 6896
  152.2629  133.5278  159.5429 H   0  0  0  0  0  0  0  0  0  0  0  0  # atno 6909 bound_to 6896
  145.7843  140.8745  143.0314 H   0  0  0  0  0  0  0  0  0  0  0  0  # atno 7974 bound_to 7965
  156.2937  140.2271  156.4836 H   0  0  0  0  0  0  0  0  0  0  0  0  # atno 8008 bound_to 7997
  154.7831  140.0459  157.1164 H   0  0  0  0  0  0  0  0  0  0  0  0  # atno 8009 bound_to 7997
  154.9734  140.3069  155.4981 H   0  0  0  0  0  0  0  0  0  0  0  0  # atno 8010 bound_to 7997
  139.5348  144.6670  151.4825 H   0  0  0  0  0  0  0  0  0  0  0  0  # atno 10167 bound_to 10162
  156.2695  130.7257  151.1219 H   0  0  0  0  0  0  0  0  0  0  0  0  # atno 10718 bound_to 10713
  154.8724  135.4060  154.3122 H   0  0  0  0  0  0  0  0  0  0  0  0  # atno 10763 bound_to 10752
  153.3964  135.7016  153.6463 H   0  0  0  0  0  0  0  0  0  0  0  0  # atno 10764 bound_to 10752
  153.5224  135.3684  155.2609 H   0  0  0  0  0  0  0  0  0  0  0  0  # atno 10765 bound_to 10752
  140.6843  133.9126  155.8576 H   0  0  0  0  0  0  0  0  0  0  0  0  # atno 11005 bound_to 11000
  144.6791  140.0033  143.7484 LP  0  0  0  0  0  0  0  0  0  0  0  0  # atno 17320 bound_to 7965
  146.0042  139.3116  143.0909 LP  0  0  0  0  0  0  0  0  0  0  0  0  # atno 17321 bound_to 7965
  140.6548  143.8622  150.6823 LP  0  0  0  0  0  0  0  0  0  0  0  0  # atno 17342 bound_to 10162
  140.1998  143.3968  152.1800 LP  0  0  0  0  0  0  0  0  0  0  0  0  # atno 17343 bound_to 10162
  157.7279  131.0636  150.5845 LP  0  0  0  0  0  0  0  0  0  0  0  0  # atno 17370 bound_to 10713
  156.5940  130.4337  149.5924 LP  0  0  0  0  0  0  0  0  0  0  0  0  # atno 17371 bound_to 10713
  141.0292  134.0780  157.4033 LP  0  0  0  0  0  0  0  0  0  0  0  0  # atno 17394 bound_to 11000
  139.8942  135.0134  156.6939 LP  0  0  0  0  0  0  0  0  0  0  0  0  # atno 17395 bound_to 11000

$$$$
