AV-unprocessed.smi:2442|AV-procd|sdf|9627|dock4
  -GOLD-   2272013263D 1   1.00000     0.00000
 Structure written by MMmdl.
 47 48  0  0  0  0  0  0  0  0  2 V2000
  145.4269  132.9562  151.7211 C   0  0  0  0  0  0  0  0  0  0  0  0
  146.1548  133.0207  152.9372 O   0  0  0  0  0  0  0  0  0  0  0  0
  147.3617  132.2663  152.9398 C   0  0  2  0  0  0  0  0  0  0  0  0
  147.0354  130.7598  153.0238 C   0  0  0  0  0  0  0  0  0  0  0  0
  148.3054  129.9101  153.1778 C   0  0  0  0  0  0  0  0  0  0  0  0
  149.1197  130.3548  154.4001 C   0  0  0  0  0  0  0  0  0  0  0  0
  149.4674  131.8480  154.3145 C   0  0  0  0  0  0  0  0  0  0  0  0
  148.2063  132.7195  154.1534 C   0  0  1  0  0  0  0  0  0  0  0  0
  148.6159  134.1123  153.9878 N   0  0  0  0  0  0  0  0  0  0  0  0
  149.2573  134.8499  154.9047 C   0  0  0  0  0  0  0  0  0  0  0  0
  149.6064  134.4354  156.0105 O   0  0  0  0  0  0  0  0  0  0  0  0
  149.4682  136.1017  154.4752 N   0  0  0  0  0  0  0  0  0  0  0  0
  150.1419  137.1399  155.2461 C   0  0  0  0  0  0  0  0  0  0  0  0
  150.4831  138.3630  154.3770 C   0  0  0  0  0  0  0  0  0  0  0  0
  149.9046  139.6495  154.9449 C   0  0  0  0  0  0  0  0  0  0  0  0
  148.6902  140.1487  154.4225 C   0  0  0  0  0  0  0  0  0  0  0  0
  148.1501  141.3426  154.9401 C   0  0  0  0  0  0  0  0  0  0  0  0
  148.7957  141.9981  155.9274 N   0  3  0  0  0  0  0  0  0  0  0  0
  149.9582  141.5606  156.4569 C   0  0  0  0  0  0  0  0  0  0  0  0
  150.5527  140.3709  155.9820 C   0  0  0  0  0  0  0  0  0  0  0  0
  151.8600  139.8976  156.5934 C   0  0  0  0  0  0  0  0  0  0  0  0
  144.5333  133.5748  151.8014 H   0  0  0  0  0  0  0  0  0  0  0  0
  145.1065  131.9405  151.4905 H   0  0  0  0  0  0  0  0  0  0  0  0
  146.0199  133.3345  150.8875 H   0  0  0  0  0  0  0  0  0  0  0  0
  147.9310  132.4643  152.0291 H   0  0  0  0  0  0  0  0  0  0  0  0
  146.3738  130.5776  153.8718 H   0  0  0  0  0  0  0  0  0  0  0  0
  146.4946  130.4337  152.1359 H   0  0  0  0  0  0  0  0  0  0  0  0
  148.0386  128.8572  153.2719 H   0  0  0  0  0  0  0  0  0  0  0  0
  148.9162  129.9964  152.2782 H   0  0  0  0  0  0  0  0  0  0  0  0
  148.5504  130.1622  155.3103 H   0  0  0  0  0  0  0  0  0  0  0  0
  150.0331  129.7641  154.4744 H   0  0  0  0  0  0  0  0  0  0  0  0
  150.0158  132.1472  155.2087 H   0  0  0  0  0  0  0  0  0  0  0  0
  150.1405  132.0110  153.4713 H   0  0  0  0  0  0  0  0  0  0  0  0
  147.6074  132.6085  155.0597 H   0  0  0  0  0  0  0  0  0  0  0  0
  148.3753  134.5513  153.1115 H   0  0  0  0  0  0  0  0  0  0  0  0
  149.1455  136.3512  153.5516 H   0  0  0  0  0  0  0  0  0  0  0  0
  149.5176  137.4282  156.0929 H   0  0  0  0  0  0  0  0  0  0  0  0
  151.0542  136.7156  155.6664 H   0  0  0  0  0  0  0  0  0  0  0  0
  151.5665  138.4659  154.3002 H   0  0  0  0  0  0  0  0  0  0  0  0
  150.1307  138.2225  153.3550 H   0  0  0  0  0  0  0  0  0  0  0  0
  148.1759  139.6230  153.6311 H   0  0  0  0  0  0  0  0  0  0  0  0
  147.2286  141.7893  154.5966 H   0  0  0  0  0  0  0  0  0  0  0  0
  150.3757  142.1748  157.2416 H   0  0  0  0  0  0  0  0  0  0  0  0
  152.2651  140.6412  157.2805 H   0  0  0  0  0  0  0  0  0  0  0  0
  152.6087  139.7161  155.8224 H   0  0  0  0  0  0  0  0  0  0  0  0
  151.7064  138.9736  157.1513 H   0  0  0  0  0  0  0  0  0  0  0  0
  148.3882  142.8609  156.2892 H   0  0  0  0  0  0  0  0  0  0  0  0
  1  2  1  0  0  0  0
  1 22  1  0  0  0  0
  1 23  1  0  0  0  0
  1 24  1  0  0  0  0
  2  3  1  0  0  0  0
  3  8  1  0  0  0  0
  3  4  1  0  0  0  0
  3 25  1  0  0  0  0
  4  5  1  0  0  0  0
  4 26  1  0  0  0  0
  4 27  1  0  0  0  0
  5  6  1  0  0  0  0
  5 28  1  0  0  0  0
  5 29  1  0  0  0  0
  6  7  1  0  0  0  0
  6 30  1  0  0  0  0
  6 31  1  0  0  0  0
  7  8  1  0  0  0  0
  7 32  1  0  0  0  0
  7 33  1  0  0  0  0
  8  9  1  0  0  0  0
  8 34  1  0  0  0  0
  9 10  1  0  0  0  0
  9 35  1  0  0  0  0
 10 11  2  0  0  0  0
 10 12  1  0  0  0  0
 12 13  1  0  0  0  0
 12 36  1  0  0  0  0
 13 14  1  0  0  0  0
 13 37  1  0  0  0  0
 13 38  1  0  0  0  0
 14 15  1  0  0  0  0
 14 39  1  0  0  0  0
 14 40  1  0  0  0  0
 15 20  1  0  0  0  0
 15 16  2  0  0  0  0
 16 17  1  0  0  0  0
 16 41  1  0  0  0  0
 17 18  2  0  0  0  0
 17 42  1  0  0  0  0
 18 19  1  0  0  0  0
 18 47  1  0  0  0  0
 19 20  2  0  0  0  0
 19 43  1  0  0  0  0
 20 21  1  0  0  0  0
 21 44  1  0  0  0  0
 21 45  1  0  0  0  0
 21 46  1  0  0  0  0
M  CHG  1  18   1
M  END
> <s_m_source_file>
AV-unprocessed.smi

> <i_m_source_file_index>
2442

> <i_lp_mmshare_version>
43012

> <i_f3d_flags>
0

> <s_epik_input>
W0NIM11PW0NAQEhdMVtDSDJdW0NIMl1bQ0gyXVtDSDJdW0NASF0xW05IXUMoPU8pW05IXVtDSDJdW0NIMl1jMltjSF1bY0hdbltjSF1jMltDSDNd

> <s_epik_cmdline>
J2VwaWtfcHl0aG9uJywgJy1waCcsICc3LjAnLCAnLXRuJywgJzgnLCAnLW1hJywgJzIwMCcsICctbWV0YWxfYmluZGluZycsICctaW1hZScsICc8aW5maWxlLm1hZT4nLCAnLW9tYWUnLCAnPG91dGZpbGUubWFlPic=

> <r_epik_Ionization_Penalty>
1.07145

> <r_epik_Ionization_Penalty_Charging>
1.0714

> <r_epik_Ionization_Penalty_Neutral>
4.9109e-05

> <r_epik_State_Penalty>
1.12601

> <r_epik_Charging_Adjusted_Penalty>
2.19741

> <i_epik_Tot_Q>
1

> <i_epik_Tot_abs_Q>
1

> <r_epik_Metal_State_Penalty>
1.2173

> <b_epik_Metal_Only>
0

> <s_lp_Force_Field>
OPLS_2005

> <r_lp_Energy>
14.7728

> <b_lp_Chiralities_Consistent>
1

> <s_lp_Variant>
AV-unprocessed.smi:2442-5

> <Gold.Version>
5.8.1

> <Gold.Id.Protein>
6NUR|6NUR_protein|mol2

> <Gold.PLP.Fitness>
47.9113

> <Gold.PLP.PLP>
-38.0994

> <Gold.PLP.part.hbond>
-3.3418

> <Gold.PLP.part.metal>
0.0000

> <Gold.PLP.part.buried>
0.0301

> <Gold.PLP.part.nonpolar>
-35.1174

> <Gold.PLP.part.repulsive>
0.3426

> <Gold.PLP.ligand.clash>
0.0000

> <Gold.PLP.ligand.torsion>
0.8671

> <Gold.PLP.Chemscore.Hbond>
3.8352

> <Gold.PLP.Chemscore.CHOScore>
0.0000

> <Gold.PLP.Chemscore.Metal>
0.0000

> <Gold.Chemscore.Hbonds>
donor molecule, donor type, donor heavy atom, donor atom, acceptor molecule, acceptor atom, score
      L1  H     9    35       P1  7948  0.61
      L1  H    12    36       P1  7948  1.00
      L1  H    18    47       P1  8028  1.02

> <Gold.PLP.Chemscore.Internal.Correction>
0.0406

> <Gold.Rescore>
     Score         DG    S(hbond)    S(metal)    S(lipo)     H(rot)  DE(clash)    DE(int)     intcor
     18.21     -19.45       2.37        0.00      89.57       1.72       0.28       0.95       ----

> <Gold.Chemscore.Fitness>
18.2133

> <Gold.Chemscore.DG>
-19.4460

> <Gold.Chemscore.ZeroCoef>
-5.4800

> <Gold.Chemscore.Hbond>
2.3656

> <Gold.Chemscore.Metal>
0.0000

> <Gold.Chemscore.Lipo>
89.5681

> <Gold.Chemscore.Internal_Hbond>
0.0000

> <Gold.Chemscore.DEClash>
0.2846

> <Gold.Chemscore.DEInternal>
0.9481

> <Gold.Chemscore.Rot>
1.7244

> <Gold.Chemscore.Internal.Correction>
   9.000000E+99

> <Gold.Chemscore.Hbonds>
donor molecule, donor type, donor heavy atom, donor atom, acceptor molecule, acceptor atom, score
      L1  H     9    35       P1  7948  0.27
      L1  H    12    36       P1  7948  0.95
      L1  H    18    47       P1  8028  0.42

> <Gold.Chemscore.Hbond.Weighted>
-7.9010

> <Gold.Chemscore.Metal.Weighted>
-0.0000

> <Gold.Chemscore.Lipo.Weighted>
-10.4795

> <Gold.Chemscore.Internal_Hbond.Weighted>
0.0000

> <Gold.Chemscore.DEClash.Weighted>
0.2846

> <Gold.Chemscore.DEInternal.Weighted>
0.9481

> <Gold.Chemscore.Rot.Weighted>
4.4145

> <Gold.Chemscore.Internal.Correction.Weighted>
   9.000000E+99

> <Gold.Protein.RotatedTorsions>
[ 6907 6896 6895 6894 ] final   92.52 input  -60.11 | X-H torsion
[ 7974 7965 7964 7962 ] final   21.95 input  175.53 | X-H torsion
[ 8008 7997 7996 7995 ] final   -6.74 input   59.86 | X-H torsion
[ 10167 10162 10161 10158 ] final   49.78 input  -65.29 | X-H torsion
[ 10718 10713 10712 10709 ] final   10.91 input   66.30 | X-H torsion
[ 10763 10752 10751 10750 ] final -143.99 input  -60.55 | X-H torsion
[ 11005 11000 10999 10996 ] final  -45.30 input  -57.11 | X-H torsion

> <Gold.Protein.ActiveResidues>
 VAL166  LYS551  ARG553  GLY616  TRP617  ASP618  TYR619  PRO620  LYS621  CYS622 
 ASP623  PHE694  ASN695  SER759  ASP760  ASP761  ALA762  ILE779  LEU786  VAL792 
 PHE793  MET794  SER795  GLU796  ALA797  LYS798  CYS799  TRP800  GLU811  SER814 

> <Gold.Protein.RotatedAtoms>
  152.5452  134.1490  159.8510 H   0  0  0  0  0  0  0  0  0  0  0  0  # atno 6907 bound_to 6896
  151.1518  133.4895  159.2602 H   0  0  0  0  0  0  0  0  0  0  0  0  # atno 6908 bound_to 6896
  151.1464  135.0216  159.8703 H   0  0  0  0  0  0  0  0  0  0  0  0  # atno 6909 bound_to 6896
  146.2050  139.7954  142.8733 H   0  0  0  0  0  0  0  0  0  0  0  0  # atno 7974 bound_to 7965
  154.5907  140.2425  155.7924 H   0  0  0  0  0  0  0  0  0  0  0  0  # atno 8008 bound_to 7997
  156.2245  140.2987  155.9987 H   0  0  0  0  0  0  0  0  0  0  0  0  # atno 8009 bound_to 7997
  155.2379  140.0406  157.2961 H   0  0  0  0  0  0  0  0  0  0  0  0  # atno 8010 bound_to 7997
  140.2793  144.3175  150.6268 H   0  0  0  0  0  0  0  0  0  0  0  0  # atno 10167 bound_to 10162
  156.9878  130.6031  149.5683 H   0  0  0  0  0  0  0  0  0  0  0  0  # atno 10718 bound_to 10713
  154.8447  135.3453  154.6274 H   0  0  0  0  0  0  0  0  0  0  0  0  # atno 10763 bound_to 10752
  153.6884  135.6976  153.5102 H   0  0  0  0  0  0  0  0  0  0  0  0  # atno 10764 bound_to 10752
  153.2614  135.4321  155.0853 H   0  0  0  0  0  0  0  0  0  0  0  0  # atno 10765 bound_to 10752
  141.0506  133.6744  156.2994 H   0  0  0  0  0  0  0  0  0  0  0  0  # atno 11005 bound_to 11000
  145.3353  141.0275  143.3423 LP  0  0  0  0  0  0  0  0  0  0  0  0  # atno 17320 bound_to 7965
  144.8770  139.4957  143.6741 LP  0  0  0  0  0  0  0  0  0  0  0  0  # atno 17321 bound_to 7965
  140.5825  143.2172  151.7402 LP  0  0  0  0  0  0  0  0  0  0  0  0  # atno 17342 bound_to 10162
  139.4967  144.4059  152.0132 LP  0  0  0  0  0  0  0  0  0  0  0  0  # atno 17343 bound_to 10162
  156.0219  130.5313  150.8299 LP  0  0  0  0  0  0  0  0  0  0  0  0  # atno 17370 bound_to 10713
  157.5480  131.0943  150.9735 LP  0  0  0  0  0  0  0  0  0  0  0  0  # atno 17371 bound_to 10713
  140.6062  134.5505  157.5526 LP  0  0  0  0  0  0  0  0  0  0  0  0  # atno 17394 bound_to 11000
  139.9348  134.7896  156.0833 LP  0  0  0  0  0  0  0  0  0  0  0  0  # atno 17395 bound_to 11000

$$$$
