AV-unprocessed.smi:2221|AV-procd|sdf|8984|dock9
  -GOLD-   2272012193D 1   1.00000     0.00000
 Structure written by MMmdl.
 53 54  0  0  0  0  0  0  0  0  2 V2000
  151.7809  145.6880  160.4420 C   0  0  0  0  0  0  0  0  0  0  0  0
  151.7771  144.3262  159.7801 C   0  0  0  0  0  0  0  0  0  0  0  0
  152.5800  143.2820  160.2770 C   0  0  0  0  0  0  0  0  0  0  0  0
  152.5312  142.0361  159.6217 C   0  0  0  0  0  0  0  0  0  0  0  0
  153.3689  140.8709  160.1044 C   0  0  0  0  0  0  0  0  0  0  0  0
  151.7483  141.7991  158.5473 N   0  0  0  0  0  0  0  0  0  0  0  0
  150.9709  142.7975  158.0599 C   0  0  0  0  0  0  0  0  0  0  0  0
  150.1145  142.6506  156.9365 N   0  0  0  0  0  0  0  0  0  0  0  0
  150.0168  141.6020  156.1007 C   0  0  0  0  0  0  0  0  0  0  0  0
  150.6898  140.5732  156.1635 O   0  0  0  0  0  0  0  0  0  0  0  0
  149.0649  141.8023  155.1776 N   0  0  0  0  0  0  0  0  0  0  0  0
  148.6906  140.8485  154.1353 C   0  0  0  0  0  0  0  0  0  0  0  0
  147.3686  141.2089  153.4209 C   0  0  0  0  0  0  0  0  0  0  0  0
  146.3815  140.0989  153.4186 N   0  3  2  0  0  0  0  0  0  0  0  0
  146.0155  139.6605  154.7884 C   0  0  0  0  0  0  0  0  0  0  0  0
  144.8941  138.6066  154.7533 C   0  0  0  0  0  0  0  0  0  0  0  0
  145.2792  137.3743  153.8987 C   0  0  2  0  0  0  0  0  0  0  0  0
  146.3158  136.5362  154.5342 N   0  0  0  0  0  0  0  0  0  0  0  0
  145.9427  136.1483  155.8932 C   0  0  0  0  0  0  0  0  0  0  0  0
  146.5537  135.2949  153.8009 C   0  0  0  0  0  0  0  0  0  0  0  0
  145.6778  137.8925  152.4950 C   0  0  0  0  0  0  0  0  0  0  0  0
  146.7881  138.9551  152.5632 C   0  0  0  0  0  0  0  0  0  0  0  0
  150.9630  144.0784  158.6564 C   0  0  0  0  0  0  0  0  0  0  0  0
  152.6855  145.8343  161.0329 H   0  0  0  0  0  0  0  0  0  0  0  0
  150.9192  145.7867  161.1026 H   0  0  0  0  0  0  0  0  0  0  0  0
  151.7339  146.4795  159.6934 H   0  0  0  0  0  0  0  0  0  0  0  0
  153.2159  143.4316  161.1375 H   0  0  0  0  0  0  0  0  0  0  0  0
  154.1724  141.2098  160.7591 H   0  0  0  0  0  0  0  0  0  0  0  0
  153.8191  140.3446  159.2619 H   0  0  0  0  0  0  0  0  0  0  0  0
  152.7492  140.1660  160.6590 H   0  0  0  0  0  0  0  0  0  0  0  0
  149.4941  143.4270  156.7610 H   0  0  0  0  0  0  0  0  0  0  0  0
  148.5674  142.6811  155.1908 H   0  0  0  0  0  0  0  0  0  0  0  0
  149.5056  140.8157  153.4125 H   0  0  0  0  0  0  0  0  0  0  0  0
  148.6262  139.8453  154.5595 H   0  0  0  0  0  0  0  0  0  0  0  0
  146.9273  142.1046  153.8602 H   0  0  0  0  0  0  0  0  0  0  0  0
  147.6053  141.4677  152.3881 H   0  0  0  0  0  0  0  0  0  0  0  0
  146.8959  139.2630  155.2958 H   0  0  0  0  0  0  0  0  0  0  0  0
  145.6763  140.5199  155.3680 H   0  0  0  0  0  0  0  0  0  0  0  0
  144.5894  138.3395  155.7634 H   0  0  0  0  0  0  0  0  0  0  0  0
  144.0076  139.0661  154.3136 H   0  0  0  0  0  0  0  0  0  0  0  0
  144.3911  136.7507  153.7832 H   0  0  0  0  0  0  0  0  0  0  0  0
  146.6755  135.4591  156.3148 H   0  0  0  0  0  0  0  0  0  0  0  0
  144.9688  135.6569  155.9127 H   0  0  0  0  0  0  0  0  0  0  0  0
  145.9138  137.0032  156.5664 H   0  0  0  0  0  0  0  0  0  0  0  0
  147.2448  134.6492  154.3445 H   0  0  0  0  0  0  0  0  0  0  0  0
  147.0170  135.4827  152.8337 H   0  0  0  0  0  0  0  0  0  0  0  0
  145.6268  134.7413  153.6441 H   0  0  0  0  0  0  0  0  0  0  0  0
  145.9543  137.0895  151.8138 H   0  0  0  0  0  0  0  0  0  0  0  0
  144.7994  138.3475  152.0353 H   0  0  0  0  0  0  0  0  0  0  0  0
  147.0031  139.3036  151.5533 H   0  0  0  0  0  0  0  0  0  0  0  0
  147.7099  138.5162  152.9485 H   0  0  0  0  0  0  0  0  0  0  0  0
  150.3379  144.8655  158.2597 H   0  0  0  0  0  0  0  0  0  0  0  0
  145.5369  140.4792  153.0160 H   0  0  0  0  0  0  0  0  0  0  0  0
  1  2  1  0  0  0  0
  1 24  1  0  0  0  0
  1 25  1  0  0  0  0
  1 26  1  0  0  0  0
  2 23  1  0  0  0  0
  2  3  2  0  0  0  0
  3  4  1  0  0  0  0
  3 27  1  0  0  0  0
  4  5  1  0  0  0  0
  4  6  2  0  0  0  0
  5 28  1  0  0  0  0
  5 29  1  0  0  0  0
  5 30  1  0  0  0  0
  6  7  1  0  0  0  0
  7  8  1  0  0  0  0
  7 23  2  0  0  0  0
  8  9  1  0  0  0  0
  8 31  1  0  0  0  0
  9 10  2  0  0  0  0
  9 11  1  0  0  0  0
 11 12  1  0  0  0  0
 11 32  1  0  0  0  0
 12 13  1  0  0  0  0
 12 33  1  0  0  0  0
 12 34  1  0  0  0  0
 13 14  1  0  0  0  0
 13 35  1  0  0  0  0
 13 36  1  0  0  0  0
 14 22  1  0  0  0  0
 14 15  1  0  0  0  0
 14 53  1  0  0  0  0
 15 16  1  0  0  0  0
 15 37  1  0  0  0  0
 15 38  1  0  0  0  0
 16 17  1  0  0  0  0
 16 39  1  0  0  0  0
 16 40  1  0  0  0  0
 17 18  1  0  0  0  0
 17 21  1  0  0  0  0
 17 41  1  0  0  0  0
 18 19  1  0  0  0  0
 18 20  1  0  0  0  0
 19 42  1  0  0  0  0
 19 43  1  0  0  0  0
 19 44  1  0  0  0  0
 20 45  1  0  0  0  0
 20 46  1  0  0  0  0
 20 47  1  0  0  0  0
 21 22  1  0  0  0  0
 21 48  1  0  0  0  0
 21 49  1  0  0  0  0
 22 50  1  0  0  0  0
 22 51  1  0  0  0  0
 23 52  1  0  0  0  0
M  CHG  1  14   1
M  END
> <s_m_source_file>
AV-unprocessed.smi

> <i_m_source_file_index>
2221

> <i_lp_mmshare_version>
43012

> <i_f3d_flags>
0

> <s_epik_input>
W0NIM11jMVtjSF1jKFtDSDNdKW5jKFtjSF0xKVtOSF1DKD1PKVtOSF1bQ0gyXVtDSDJdTjJbQ0gyXVtDSDJdW0NIXShOKFtDSDNdKVtDSDNdKVtDSDJdW0NIMl0y

> <s_epik_cmdline>
J2VwaWtfcHl0aG9uJywgJy1waCcsICc3LjAnLCAnLXRuJywgJzgnLCAnLW1hJywgJzIwMCcsICctbWV0YWxfYmluZGluZycsICctaW1hZScsICc8aW5maWxlLm1hZT4nLCAnLW9tYWUnLCAnPG91dGZpbGUubWFlPic=

> <r_epik_Ionization_Penalty>
1.32168

> <r_epik_Ionization_Penalty_Charging>
0.00219175

> <r_epik_Ionization_Penalty_Neutral>
1.31949

> <r_epik_State_Penalty>
1.51166

> <r_epik_Charging_Adjusted_Penalty>
1.51385

> <i_epik_Tot_Q>
1

> <i_epik_Tot_abs_Q>
1

> <r_epik_Metal_State_Penalty>
1.51167

> <b_epik_Metal_Only>
0

> <s_lp_Force_Field>
OPLS_2005

> <r_lp_Energy>
32.286

> <b_lp_Chiralities_Consistent>
1

> <s_lp_Variant>
AV-unprocessed.smi:2221-5

> <Gold.Version>
5.8.1

> <Gold.Id.Protein>
6NUR|6NUR_protein|mol2

> <Gold.PLP.Fitness>
53.7293

> <Gold.PLP.PLP>
-43.5594

> <Gold.PLP.part.hbond>
-3.0000

> <Gold.PLP.part.metal>
0.0000

> <Gold.PLP.part.buried>
-5.3474

> <Gold.PLP.part.nonpolar>
-35.9102

> <Gold.PLP.part.repulsive>
0.3127

> <Gold.PLP.ligand.clash>
0.0000

> <Gold.PLP.ligand.torsion>
0.5028

> <Gold.PLP.Chemscore.Hbond>
3.7150

> <Gold.PLP.Chemscore.CHOScore>
0.0000

> <Gold.PLP.Chemscore.Metal>
0.0000

> <Gold.Chemscore.Hbonds>
donor molecule, donor type, donor heavy atom, donor atom, acceptor molecule, acceptor atom, score
      L1  H     8    31       P1  8028  1.00
      L1  H    11    32       P1  8028  0.68
      L1  H    14    53       P1 10175  2.00

> <Gold.PLP.Chemscore.Internal.Correction>
0.0306

> <Gold.Rescore>
     Score         DG    S(hbond)    S(metal)    S(lipo)     H(rot)  DE(clash)    DE(int)     intcor
     20.79     -22.66       2.79        0.00     102.37       1.61       0.04       1.83       ----

> <Gold.Chemscore.Fitness>
20.7867

> <Gold.Chemscore.DG>
-22.6580

> <Gold.Chemscore.ZeroCoef>
-5.4800

> <Gold.Chemscore.Hbond>
2.7925

> <Gold.Chemscore.Metal>
0.0000

> <Gold.Chemscore.Lipo>
102.3716

> <Gold.Chemscore.Internal_Hbond>
0.0000

> <Gold.Chemscore.DEClash>
0.0431

> <Gold.Chemscore.DEInternal>
1.8282

> <Gold.Chemscore.Rot>
1.6119

> <Gold.Chemscore.Internal.Correction>
   9.000000E+99

> <Gold.Chemscore.Hbonds>
donor molecule, donor type, donor heavy atom, donor atom, acceptor molecule, acceptor atom, score
      L1  H     8    31       P1  8028  0.95
      L1  H    11    32       P1  8028  0.65
      L1  H    14    53       P1 10175  0.87

> <Gold.Chemscore.Hbond.Weighted>
-9.3269

> <Gold.Chemscore.Metal.Weighted>
-0.0000

> <Gold.Chemscore.Lipo.Weighted>
-11.9775

> <Gold.Chemscore.Internal_Hbond.Weighted>
0.0000

> <Gold.Chemscore.DEClash.Weighted>
0.0431

> <Gold.Chemscore.DEInternal.Weighted>
1.8282

> <Gold.Chemscore.Rot.Weighted>
4.1264

> <Gold.Chemscore.Internal.Correction.Weighted>
   9.000000E+99

> <Gold.Protein.RotatedTorsions>
[ 6907 6896 6895 6894 ] final  -99.28 input  -60.11 | X-H torsion
[ 7974 7965 7964 7962 ] final  151.56 input  175.53 | X-H torsion
[ 8008 7997 7996 7995 ] final  107.37 input   59.86 | X-H torsion
[ 10167 10162 10161 10158 ] final  158.19 input  -65.29 | X-H torsion
[ 10718 10713 10712 10709 ] final  -65.77 input   66.30 | X-H torsion
[ 10763 10752 10751 10750 ] final  -82.11 input  -60.55 | X-H torsion
[ 11005 11000 10999 10996 ] final -154.86 input  -57.11 | X-H torsion

> <Gold.Protein.ActiveResidues>
 VAL166  LYS551  ARG553  GLY616  TRP617  ASP618  TYR619  PRO620  LYS621  CYS622 
 ASP623  PHE694  ASN695  SER759  ASP760  ASP761  ALA762  ILE779  LEU786  VAL792 
 PHE793  MET794  SER795  GLU796  ALA797  LYS798  CYS799  TRP800  GLU811  SER814 

> <Gold.Protein.RotatedAtoms>
  150.7074  134.1065  159.3984 H   0  0  0  0  0  0  0  0  0  0  0  0  # atno 6907 bound_to 6896
  151.9051  135.0360  160.0519 H   0  0  0  0  0  0  0  0  0  0  0  0  # atno 6908 bound_to 6896
  152.2382  133.5078  159.5291 H   0  0  0  0  0  0  0  0  0  0  0  0  # atno 6909 bound_to 6896
  144.8284  139.6553  143.6070 H   0  0  0  0  0  0  0  0  0  0  0  0  # atno 7974 bound_to 7965
  156.1818  140.3096  155.9163 H   0  0  0  0  0  0  0  0  0  0  0  0  # atno 8008 bound_to 7997
  155.3367  140.0463  157.3061 H   0  0  0  0  0  0  0  0  0  0  0  0  # atno 8009 bound_to 7997
  154.5351  140.2243  155.8746 H   0  0  0  0  0  0  0  0  0  0  0  0  # atno 8010 bound_to 7997
  139.4826  144.4847  151.8394 H   0  0  0  0  0  0  0  0  0  0  0  0  # atno 10167 bound_to 10162
  156.0650  130.4252  150.1612 H   0  0  0  0  0  0  0  0  0  0  0  0  # atno 10718 bound_to 10713
  154.5718  135.5602  153.7102 H   0  0  0  0  0  0  0  0  0  0  0  0  # atno 10763 bound_to 10752
  153.0051  135.6299  154.2104 H   0  0  0  0  0  0  0  0  0  0  0  0  # atno 10764 bound_to 10752
  154.2043  135.2876  155.2960 H   0  0  0  0  0  0  0  0  0  0  0  0  # atno 10765 bound_to 10752
  140.6927  134.4023  157.5217 H   0  0  0  0  0  0  0  0  0  0  0  0  # atno 11005 bound_to 11000
  146.2588  139.6363  142.9376 LP  0  0  0  0  0  0  0  0  0  0  0  0  # atno 17320 bound_to 7965
  145.4950  141.0438  143.2572 LP  0  0  0  0  0  0  0  0  0  0  0  0  # atno 17321 bound_to 7965
  140.4326  144.2095  150.5888 LP  0  0  0  0  0  0  0  0  0  0  0  0  # atno 17342 bound_to 10162
  140.4764  143.2394  151.9017 LP  0  0  0  0  0  0  0  0  0  0  0  0  # atno 17343 bound_to 10162
  156.9673  130.9824  151.3466 LP  0  0  0  0  0  0  0  0  0  0  0  0  # atno 17370 bound_to 10713
  157.5686  130.8295  149.8361 LP  0  0  0  0  0  0  0  0  0  0  0  0  # atno 17371 bound_to 10713
  139.8919  134.8769  156.2298 LP  0  0  0  0  0  0  0  0  0  0  0  0  # atno 17394 bound_to 11000
  141.0228  133.7032  156.1297 LP  0  0  0  0  0  0  0  0  0  0  0  0  # atno 17395 bound_to 11000

$$$$
