AV-unprocessed.smi:236|AV-procd|sdf|1815|dock4
  -GOLD-   2262020403D 1   1.00000     0.00000
 Structure written by MMmdl.
 58 62  0  0  0  0  0  0  0  0  1 V2000
  145.1220  134.6354  152.4693 C   0  0  0  0  0  0  0  0  0  0  0  0
  145.7167  133.3382  151.8976 C   0  0  2  0  0  0  0  0  0  0  0  0
  144.7924  132.7035  151.0262 O   0  0  0  0  0  0  0  0  0  0  0  0
  145.2400  131.3718  150.8487 C   0  0  0  0  0  0  0  0  0  0  0  0
  145.6165  130.9503  152.2638 C   0  0  0  0  0  0  0  0  0  0  0  0
  146.1297  132.2401  152.9130 C   0  0  2  0  0  0  0  0  0  0  0  0
  145.4673  132.3999  154.1573 O   0  0  0  0  0  0  0  0  0  0  0  0
  147.6554  132.1931  153.1750 C   0  0  0  0  0  0  0  0  0  0  0  0
  148.1361  133.2785  154.0173 N   0  0  0  0  0  0  0  0  0  0  0  0
  147.8568  134.6191  153.8715 C   0  0  0  0  0  0  0  0  0  0  0  0
  148.4057  135.4029  154.7583 N   0  0  0  0  0  0  0  0  0  0  0  0
  149.1150  134.5377  155.5821 C   0  0  0  0  0  0  0  0  0  0  0  0
  149.9321  134.7070  156.7356 C   0  0  0  0  0  0  0  0  0  0  0  0
  150.2022  135.8914  157.3231 N   0  0  0  0  0  0  0  0  0  0  0  0
  149.0228  136.5398  157.8802 C   0  0  0  0  0  0  0  0  0  0  0  0
  149.4372  137.8021  158.6531 C   0  0  0  0  0  0  0  0  0  0  0  0
  150.1886  138.6565  157.7960 O   0  0  0  0  0  0  0  0  0  0  0  0
  151.3914  138.0438  157.3340 C   0  0  2  0  0  0  0  0  0  0  0  0
  152.1573  139.0678  156.4867 C   0  0  0  0  0  0  0  0  0  0  0  0
  152.7861  140.0008  157.3491 O   0  0  0  0  0  0  0  0  0  0  0  0
  151.8624  140.8577  158.0024 C   0  0  0  0  0  0  0  0  0  0  0  0
  152.5169  142.1629  158.4184 C   0  0  0  0  0  0  0  0  0  0  0  0
  153.4528  142.2242  159.6082 C   0  0  0  0  0  0  0  0  0  0  0  0
  152.0976  142.8732  159.6894 C   0  0  0  0  0  0  0  0  0  0  0  0
  151.0166  136.7923  156.5163 C   0  0  0  0  0  0  0  0  0  0  0  0
  150.4712  133.6003  157.3022 N   0  0  0  0  0  0  0  0  0  0  0  0
  150.2316  132.3960  156.7739 C   0  0  0  0  0  0  0  0  0  0  0  0
  149.4937  132.0836  155.7060 N   0  0  0  0  0  0  0  0  0  0  0  0
  148.9501  133.1967  155.1343 C   0  0  0  0  0  0  0  0  0  0  0  0
  145.8180  135.1191  153.1550 H   0  0  0  0  0  0  0  0  0  0  0  0
  144.1918  134.4487  153.0062 H   0  0  0  0  0  0  0  0  0  0  0  0
  144.9025  135.3424  151.6692 H   0  0  0  0  0  0  0  0  0  0  0  0
  146.5769  133.5973  151.2797 H   0  0  0  0  0  0  0  0  0  0  0  0
  144.4665  130.7399  150.4117 H   0  0  0  0  0  0  0  0  0  0  0  0
  146.1105  131.3592  150.1907 H   0  0  0  0  0  0  0  0  0  0  0  0
  144.7219  130.5839  152.7702 H   0  0  0  0  0  0  0  0  0  0  0  0
  146.3460  130.1398  152.2698 H   0  0  0  0  0  0  0  0  0  0  0  0
  144.5363  132.3261  154.0136 H   0  0  0  0  0  0  0  0  0  0  0  0
  147.9300  131.2495  153.6485 H   0  0  0  0  0  0  0  0  0  0  0  0
  148.1987  132.2268  152.2298 H   0  0  0  0  0  0  0  0  0  0  0  0
  147.2311  135.0012  153.0780 H   0  0  0  0  0  0  0  0  0  0  0  0
  148.3341  136.8074  157.0780 H   0  0  0  0  0  0  0  0  0  0  0  0
  148.4964  135.8509  158.5427 H   0  0  0  0  0  0  0  0  0  0  0  0
  148.5538  138.3361  159.0033 H   0  0  0  0  0  0  0  0  0  0  0  0
  150.0256  137.5439  159.5350 H   0  0  0  0  0  0  0  0  0  0  0  0
  152.0087  137.7509  158.1853 H   0  0  0  0  0  0  0  0  0  0  0  0
  152.9204  138.5615  155.8934 H   0  0  0  0  0  0  0  0  0  0  0  0
  151.4819  139.5715  155.7933 H   0  0  0  0  0  0  0  0  0  0  0  0
  151.0244  141.0812  157.3408 H   0  0  0  0  0  0  0  0  0  0  0  0
  151.4619  140.3702  158.8923 H   0  0  0  0  0  0  0  0  0  0  0  0
  152.7747  142.8064  157.5794 H   0  0  0  0  0  0  0  0  0  0  0  0
  153.6096  141.3150  160.1851 H   0  0  0  0  0  0  0  0  0  0  0  0
  154.3185  142.8788  159.5306 H   0  0  0  0  0  0  0  0  0  0  0  0
  152.0597  143.9603  159.6670 H   0  0  0  0  0  0  0  0  0  0  0  0
  151.3500  142.3962  160.3202 H   0  0  0  0  0  0  0  0  0  0  0  0
  151.9186  136.2748  156.1867 H   0  0  0  0  0  0  0  0  0  0  0  0
  150.4697  137.0902  155.6213 H   0  0  0  0  0  0  0  0  0  0  0  0
  150.6969  131.5630  157.2801 H   0  0  0  0  0  0  0  0  0  0  0  0
  1  2  1  0  0  0  0
  1 30  1  0  0  0  0
  1 31  1  0  0  0  0
  1 32  1  0  0  0  0
  2  6  1  0  0  0  0
  2  3  1  0  0  0  0
  2 33  1  0  0  0  0
  3  4  1  0  0  0  0
  4  5  1  0  0  0  0
  4 34  1  0  0  0  0
  4 35  1  0  0  0  0
  5  6  1  0  0  0  0
  5 36  1  0  0  0  0
  5 37  1  0  0  0  0
  6  7  1  0  0  0  0
  6  8  1  0  0  0  0
  7 38  1  0  0  0  0
  8  9  1  0  0  0  0
  8 39  1  0  0  0  0
  8 40  1  0  0  0  0
  9 29  1  0  0  0  0
  9 10  1  0  0  0  0
 10 11  2  0  0  0  0
 10 41  1  0  0  0  0
 11 12  1  0  0  0  0
 12 29  2  0  0  0  0
 12 13  1  0  0  0  0
 13 14  1  0  0  0  0
 13 26  2  0  0  0  0
 14 25  1  0  0  0  0
 14 15  1  0  0  0  0
 15 16  1  0  0  0  0
 15 42  1  0  0  0  0
 15 43  1  0  0  0  0
 16 17  1  0  0  0  0
 16 44  1  0  0  0  0
 16 45  1  0  0  0  0
 17 18  1  0  0  0  0
 18 19  1  0  0  0  0
 18 25  1  0  0  0  0
 18 46  1  0  0  0  0
 19 20  1  0  0  0  0
 19 47  1  0  0  0  0
 19 48  1  0  0  0  0
 20 21  1  0  0  0  0
 21 22  1  0  0  0  0
 21 49  1  0  0  0  0
 21 50  1  0  0  0  0
 22 24  1  0  0  0  0
 22 23  1  0  0  0  0
 22 51  1  0  0  0  0
 23 24  1  0  0  0  0
 23 52  1  0  0  0  0
 23 53  1  0  0  0  0
 24 54  1  0  0  0  0
 24 55  1  0  0  0  0
 25 56  1  0  0  0  0
 25 57  1  0  0  0  0
 26 27  1  0  0  0  0
 27 28  2  0  0  0  0
 27 58  1  0  0  0  0
 28 29  1  0  0  0  0
M  END
> <s_m_source_file>
AV-unprocessed.smi

> <i_m_source_file_index>
236

> <i_lp_mmshare_version>
43012

> <i_f3d_flags>
0

> <s_epik_input>
W0NIMl0xW0NIMl1PW0NAQEhdKFtDSDNdKVtDQEBdMShbT0hdKVtDSDJdbihbY0hdbjIpYyhjMjMpbltjSF1uYzNONFtDSDJdW0NIMl1PW0NASF0oW0NIMl00KVtDSDJdT1tDSDJdW0NIXTVbQ0gyXVtDSDJdNQ==

> <s_epik_cmdline>
J2VwaWtfcHl0aG9uJywgJy1waCcsICc3LjAnLCAnLXRuJywgJzgnLCAnLW1hJywgJzIwMCcsICctbWV0YWxfYmluZGluZycsICctaW1hZScsICc8aW5maWxlLm1hZT4nLCAnLW9tYWUnLCAnPG91dGZpbGUubWFlPic=

> <r_lp_tautomer_probability>
1

> <r_epik_Ionization_Penalty>
7.21838e-05

> <r_epik_Ionization_Penalty_Charging>
0

> <r_epik_Ionization_Penalty_Neutral>
7.21838e-05

> <r_epik_State_Penalty>
-0

> <r_epik_Charging_Adjusted_Penalty>
0

> <i_epik_Tot_Q>
0

> <i_epik_Tot_abs_Q>
0

> <r_epik_Metal_State_Penalty>
-0

> <b_epik_Metal_Only>
0

> <s_lp_Force_Field>
OPLS_2005

> <r_lp_Energy>
47.5689

> <b_lp_Chiralities_Consistent>
1

> <s_lp_Variant>
AV-unprocessed.smi:236-7

> <Gold.Version>
5.8.1

> <Gold.Id.Protein>
6NUR|6NUR_protein|mol2

> <Gold.PLP.Fitness>
48.0857

> <Gold.PLP.PLP>
-39.5089

> <Gold.PLP.part.hbond>
-4.0000

> <Gold.PLP.part.metal>
0.0000

> <Gold.PLP.part.buried>
-5.1088

> <Gold.PLP.part.nonpolar>
-32.3238

> <Gold.PLP.part.repulsive>
0.2385

> <Gold.PLP.ligand.clash>
0.0000

> <Gold.PLP.ligand.torsion>
0.8615

> <Gold.PLP.Chemscore.Hbond>
2.6915

> <Gold.PLP.Chemscore.CHOScore>
0.4211

> <Gold.PLP.Chemscore.Metal>
0.0000

> <Gold.Chemscore.Hbonds>
donor molecule, donor type, donor heavy atom, donor atom, acceptor molecule, acceptor atom, score
      L1  H     7    38       P1 10957  0.83
      P1  H  6896  6907       L1    26  0.80
      P1  H  7997  8010       L1    20  1.00
      L1  C    10    41       P1  7948  0.36

> <Gold.PLP.Chemscore.Internal.Correction>
0.9618

> <Gold.Rescore>
     Score         DG    S(hbond)    S(metal)    S(lipo)     H(rot)  DE(clash)    DE(int)     intcor
     11.62     -15.29       2.01        0.00      89.19       2.87       0.16       3.51       ----

> <Gold.Chemscore.Fitness>
11.6197

> <Gold.Chemscore.DG>
-15.2908

> <Gold.Chemscore.ZeroCoef>
-5.4800

> <Gold.Chemscore.Hbond>
2.0095

> <Gold.Chemscore.Metal>
0.0000

> <Gold.Chemscore.Lipo>
89.1867

> <Gold.Chemscore.Internal_Hbond>
0.0000

> <Gold.Chemscore.DEClash>
0.1568

> <Gold.Chemscore.DEInternal>
3.5143

> <Gold.Chemscore.Rot>
2.8655

> <Gold.Chemscore.Internal.Correction>
   9.000000E+99

> <Gold.Chemscore.Hbonds>
donor molecule, donor type, donor heavy atom, donor atom, acceptor molecule, acceptor atom, score
      L1  H     7    38       P1 10957  0.27
      P1  H  6896  6907       L1    26  0.65
      P1  H  7997  8010       L1    20  0.44

> <Gold.Chemscore.Hbond.Weighted>
-6.7117

> <Gold.Chemscore.Metal.Weighted>
-0.0000

> <Gold.Chemscore.Lipo.Weighted>
-10.4348

> <Gold.Chemscore.Internal_Hbond.Weighted>
0.0000

> <Gold.Chemscore.DEClash.Weighted>
0.1568

> <Gold.Chemscore.DEInternal.Weighted>
3.5143

> <Gold.Chemscore.Rot.Weighted>
7.3358

> <Gold.Chemscore.Internal.Correction.Weighted>
   9.000000E+99

> <Gold.Protein.RotatedTorsions>
[ 6907 6896 6895 6894 ] final -145.37 input  -60.11 | X-H torsion
[ 7974 7965 7964 7962 ] final  137.69 input  175.53 | X-H torsion
[ 8008 7997 7996 7995 ] final   51.46 input   59.86 | X-H torsion
[ 10167 10162 10161 10158 ] final   66.18 input  -65.29 | X-H torsion
[ 10718 10713 10712 10709 ] final -105.62 input   66.30 | X-H torsion
[ 10763 10752 10751 10750 ] final   16.25 input  -60.55 | X-H torsion
[ 11005 11000 10999 10996 ] final  -78.07 input  -57.11 | X-H torsion

> <Gold.Protein.ActiveResidues>
 VAL166  LYS551  ARG553  GLY616  TRP617  ASP618  TYR619  PRO620  LYS621  CYS622 
 ASP623  PHE694  ASN695  SER759  ASP760  ASP761  ALA762  ILE779  LEU786  VAL792 
 PHE793  MET794  SER795  GLU796  ALA797  LYS798  CYS799  TRP800  GLU811  SER814 

> <Gold.Protein.RotatedAtoms>
  151.1268  133.5064  159.2600 H   0  0  0  0  0  0  0  0  0  0  0  0  # atno 6907 bound_to 6896
  151.1800  135.0356  159.8798 H   0  0  0  0  0  0  0  0  0  0  0  0  # atno 6908 bound_to 6896
  152.5458  134.1122  159.8416 H   0  0  0  0  0  0  0  0  0  0  0  0  # atno 6909 bound_to 6896
  144.9444  139.4893  143.5556 H   0  0  0  0  0  0  0  0  0  0  0  0  # atno 7974 bound_to 7965
  155.4357  140.3452  155.4284 H   0  0  0  0  0  0  0  0  0  0  0  0  # atno 8008 bound_to 7997
  156.1309  140.1514  156.9097 H   0  0  0  0  0  0  0  0  0  0  0  0  # atno 8009 bound_to 7997
  154.4894  140.0845  156.7540 H   0  0  0  0  0  0  0  0  0  0  0  0  # atno 8010 bound_to 7997
  140.1032  144.4885  150.7024 H   0  0  0  0  0  0  0  0  0  0  0  0  # atno 10167 bound_to 10162
  156.0354  130.5573  150.7565 H   0  0  0  0  0  0  0  0  0  0  0  0  # atno 10718 bound_to 10713
  153.1449  135.6767  153.8971 H   0  0  0  0  0  0  0  0  0  0  0  0  # atno 10763 bound_to 10752
  153.8416  135.3104  155.3427 H   0  0  0  0  0  0  0  0  0  0  0  0  # atno 10764 bound_to 10752
  154.7817  135.4885  153.9943 H   0  0  0  0  0  0  0  0  0  0  0  0  # atno 10765 bound_to 10752
  141.1663  133.7048  156.7916 H   0  0  0  0  0  0  0  0  0  0  0  0  # atno 11005 bound_to 11000
  146.3298  139.8485  142.8877 LP  0  0  0  0  0  0  0  0  0  0  0  0  # atno 17320 bound_to 7965
  145.2941  141.0176  143.3646 LP  0  0  0  0  0  0  0  0  0  0  0  0  # atno 17321 bound_to 7965
  140.6966  143.2408  151.4983 LP  0  0  0  0  0  0  0  0  0  0  0  0  # atno 17342 bound_to 10162
  139.5660  144.2042  152.1765 LP  0  0  0  0  0  0  0  0  0  0  0  0  # atno 17343 bound_to 10162
  157.5096  131.0924  151.0215 LP  0  0  0  0  0  0  0  0  0  0  0  0  # atno 17370 bound_to 10713
  157.0574  130.5811  149.5380 LP  0  0  0  0  0  0  0  0  0  0  0  0  # atno 17371 bound_to 10713
  140.2321  134.8678  157.3487 LP  0  0  0  0  0  0  0  0  0  0  0  0  # atno 17394 bound_to 11000
  140.1881  134.4406  155.7732 LP  0  0  0  0  0  0  0  0  0  0  0  0  # atno 17395 bound_to 11000

$$$$
