AV-unprocessed.smi:2035|AV-procd|sdf|8270|dock1
  -GOLD-   2272010543D 1   1.00000     0.00000
 Structure written by MMmdl.
 34 35  0  0  0  0  0  0  0  0  1 V2000
  150.0164  140.4590  156.9828 O   0  0  0  0  0  0  0  0  0  0  0  0
  149.8745  141.6011  156.5475 C   0  0  0  0  0  0  0  0  0  0  0  0
  150.4239  142.7147  157.0642 N   0  0  0  0  0  0  0  0  0  0  0  0
  151.2749  142.8724  158.1942 C   0  0  0  0  0  0  0  0  0  0  0  0
  151.5516  144.1911  158.6119 C   0  0  0  0  0  0  0  0  0  0  0  0
  152.3890  144.3928  159.7271 C   0  0  0  0  0  0  0  0  0  0  0  0
  152.9480  143.3834  160.4260 N   0  0  0  0  0  0  0  0  0  0  0  0
  152.6846  142.1216  160.0263 C   0  0  0  0  0  0  0  0  0  0  0  0
  151.8614  141.8099  158.9253 C   0  0  0  0  0  0  0  0  0  0  0  0
  149.1295  141.8900  155.4703 N   0  0  0  0  0  0  0  0  0  0  0  0
  148.4086  140.9208  154.6427 C   0  0  1  0  0  0  0  0  0  0  0  0
  147.6925  141.6429  153.4792 C   0  0  0  0  0  0  0  0  0  0  0  0
  146.5062  140.8599  152.8935 C   0  0  0  0  0  0  0  0  0  0  0  0
  146.8737  139.5145  152.2500 C   0  0  0  0  0  0  0  0  0  0  0  0
  147.4202  138.4797  153.2485 C   0  0  0  0  0  0  0  0  0  0  0  0
  148.8203  138.7085  153.5829 N   0  0  0  0  0  0  0  0  0  0  0  0
  149.3434  139.7799  154.1984 C   0  0  0  0  0  0  0  0  0  0  0  0
  150.5556  139.8543  154.3992 O   0  0  0  0  0  0  0  0  0  0  0  0
  150.2002  143.5722  156.5808 H   0  0  0  0  0  0  0  0  0  0  0  0
  151.1313  145.0384  158.0897 H   0  0  0  0  0  0  0  0  0  0  0  0
  152.6156  145.3927  160.0662 H   0  0  0  0  0  0  0  0  0  0  0  0
  153.1449  141.3329  160.6030 H   0  0  0  0  0  0  0  0  0  0  0  0
  151.7062  140.7727  158.6766 H   0  0  0  0  0  0  0  0  0  0  0  0
  149.0703  142.8552  155.1790 H   0  0  0  0  0  0  0  0  0  0  0  0
  147.6516  140.4614  155.2813 H   0  0  0  0  0  0  0  0  0  0  0  0
  147.3052  142.6013  153.8280 H   0  0  0  0  0  0  0  0  0  0  0  0
  148.4072  141.8848  152.6912 H   0  0  0  0  0  0  0  0  0  0  0  0
  145.7580  140.6996  153.6708 H   0  0  0  0  0  0  0  0  0  0  0  0
  146.0212  141.4817  152.1404 H   0  0  0  0  0  0  0  0  0  0  0  0
  145.9720  139.1047  151.7935 H   0  0  0  0  0  0  0  0  0  0  0  0
  147.5802  139.6642  151.4323 H   0  0  0  0  0  0  0  0  0  0  0  0
  146.8125  138.4448  154.1537 H   0  0  0  0  0  0  0  0  0  0  0  0
  147.3592  137.4871  152.8016 H   0  0  0  0  0  0  0  0  0  0  0  0
  149.4649  137.9807  153.3098 H   0  0  0  0  0  0  0  0  0  0  0  0
  1  2  2  0  0  0  0
  2  3  1  0  0  0  0
  2 10  1  0  0  0  0
  3  4  1  0  0  0  0
  3 19  1  0  0  0  0
  4  9  1  0  0  0  0
  4  5  2  0  0  0  0
  5  6  1  0  0  0  0
  5 20  1  0  0  0  0
  6  7  2  0  0  0  0
  6 21  1  0  0  0  0
  7  8  1  0  0  0  0
  8  9  2  0  0  0  0
  8 22  1  0  0  0  0
  9 23  1  0  0  0  0
 10 11  1  0  0  0  0
 10 24  1  0  0  0  0
 11 17  1  0  0  0  0
 11 12  1  0  0  0  0
 11 25  1  0  0  0  0
 12 13  1  0  0  0  0
 12 26  1  0  0  0  0
 12 27  1  0  0  0  0
 13 14  1  0  0  0  0
 13 28  1  0  0  0  0
 13 29  1  0  0  0  0
 14 15  1  0  0  0  0
 14 30  1  0  0  0  0
 14 31  1  0  0  0  0
 15 16  1  0  0  0  0
 15 32  1  0  0  0  0
 15 33  1  0  0  0  0
 16 17  1  0  0  0  0
 16 34  1  0  0  0  0
 17 18  2  0  0  0  0
M  END
> <s_m_source_file>
AV-unprocessed.smi

> <i_m_source_file_index>
2035

> <i_lp_mmshare_version>
43012

> <i_f3d_flags>
0

> <s_epik_input>
W2NIXTFbY0hdbltjSF1bY0hdYzFbTkhdQyg9TylbTkhdW0NAQEhdMltDSDJdW0NIMl1bQ0gyXVtDSDJdW05IXUMyPU8=

> <s_epik_cmdline>
J2VwaWtfcHl0aG9uJywgJy1waCcsICc3LjAnLCAnLXRuJywgJzgnLCAnLW1hJywgJzIwMCcsICctbWV0YWxfYmluZGluZycsICctaW1hZScsICc8aW5maWxlLm1hZT4nLCAnLW9tYWUnLCAnPG91dGZpbGUubWFlPic=

> <r_epik_Ionization_Penalty>
0.100041

> <r_epik_Ionization_Penalty_Charging>
0

> <r_epik_Ionization_Penalty_Neutral>
0.100041

> <r_epik_State_Penalty>
0.0900442

> <r_epik_Charging_Adjusted_Penalty>
0.0900442

> <i_epik_Tot_Q>
0

> <i_epik_Tot_abs_Q>
0

> <r_epik_Metal_State_Penalty>
0.0769377

> <b_epik_Metal_Only>
0

> <s_lp_Force_Field>
OPLS_2005

> <r_lp_Energy>
15.5607

> <b_lp_Chiralities_Consistent>
1

> <s_lp_Variant>
AV-unprocessed.smi:2035-2

> <Gold.Version>
5.8.1

> <Gold.Id.Protein>
6NUR|6NUR_protein|mol2

> <Gold.PLP.Fitness>
42.3749

> <Gold.PLP.PLP>
-32.9114

> <Gold.PLP.part.hbond>
-5.0000

> <Gold.PLP.part.metal>
0.0000

> <Gold.PLP.part.buried>
1.1389

> <Gold.PLP.part.nonpolar>
-29.5702

> <Gold.PLP.part.repulsive>
0.3606

> <Gold.PLP.ligand.clash>
0.0000

> <Gold.PLP.ligand.torsion>
0.0522

> <Gold.PLP.Chemscore.Hbond>
3.1802

> <Gold.PLP.Chemscore.CHOScore>
0.0000

> <Gold.PLP.Chemscore.Metal>
0.0000

> <Gold.Chemscore.Hbonds>
donor molecule, donor type, donor heavy atom, donor atom, acceptor molecule, acceptor atom, score
      L1  H     3    19       P1  8028  1.00
      L1  H    10    24       P1  8028  0.99
      L1  H    16    34       P1  7948  0.17
      P1  H  7989  7998       L1    18  1.00

> <Gold.PLP.Chemscore.Internal.Correction>
0.0273

> <Gold.Rescore>
     Score         DG    S(hbond)    S(metal)    S(lipo)     H(rot)  DE(clash)    DE(int)     intcor
     17.14     -23.45       3.05        0.00      88.24       1.00       1.37       4.93       ----

> <Gold.Chemscore.Fitness>
17.1436

> <Gold.Chemscore.DG>
-23.4453

> <Gold.Chemscore.ZeroCoef>
-5.4800

> <Gold.Chemscore.Hbond>
3.0542

> <Gold.Chemscore.Metal>
0.0000

> <Gold.Chemscore.Lipo>
88.2417

> <Gold.Chemscore.Internal_Hbond>
0.0000

> <Gold.Chemscore.DEClash>
1.3720

> <Gold.Chemscore.DEInternal>
4.9297

> <Gold.Chemscore.Rot>
1.0000

> <Gold.Chemscore.Internal.Correction>
   9.000000E+99

> <Gold.Chemscore.Hbonds>
donor molecule, donor type, donor heavy atom, donor atom, acceptor molecule, acceptor atom, score
      L1  H     3    19       P1  8028  0.94
      L1  H    10    24       P1  8028  0.94
      L1  H    16    34       P1  7948  0.17
      P1  H  7989  7998       L1    18  1.00

> <Gold.Chemscore.Hbond.Weighted>
-10.2010

> <Gold.Chemscore.Metal.Weighted>
-0.0000

> <Gold.Chemscore.Lipo.Weighted>
-10.3243

> <Gold.Chemscore.Internal_Hbond.Weighted>
0.0000

> <Gold.Chemscore.DEClash.Weighted>
1.3720

> <Gold.Chemscore.DEInternal.Weighted>
4.9297

> <Gold.Chemscore.Rot.Weighted>
2.5600

> <Gold.Chemscore.Internal.Correction.Weighted>
   9.000000E+99

> <Gold.Protein.RotatedTorsions>
[ 6907 6896 6895 6894 ] final -166.22 input  -60.11 | X-H torsion
[ 7974 7965 7964 7962 ] final   26.21 input  175.53 | X-H torsion
[ 8008 7997 7996 7995 ] final   85.86 input   59.86 | X-H torsion
[ 10167 10162 10161 10158 ] final  156.06 input  -65.29 | X-H torsion
[ 10718 10713 10712 10709 ] final -157.96 input   66.30 | X-H torsion
[ 10763 10752 10751 10750 ] final   -0.33 input  -60.55 | X-H torsion
[ 11005 11000 10999 10996 ] final  -67.69 input  -57.11 | X-H torsion

> <Gold.Protein.ActiveResidues>
 VAL166  LYS551  ARG553  GLY616  TRP617  ASP618  TYR619  PRO620  LYS621  CYS622 
 ASP623  PHE694  ASN695  SER759  ASP760  ASP761  ALA762  ILE779  LEU786  VAL792 
 PHE793  MET794  SER795  GLU796  ALA797  LYS798  CYS799  TRP800  GLU811  SER814 

> <Gold.Protein.RotatedAtoms>
  151.4401  133.3645  159.2780 H   0  0  0  0  0  0  0  0  0  0  0  0  # atno 6907 bound_to 6896
  150.9163  134.8582  159.7470 H   0  0  0  0  0  0  0  0  0  0  0  0  # atno 6908 bound_to 6896
  152.4959  134.4335  159.9572 H   0  0  0  0  0  0  0  0  0  0  0  0  # atno 6909 bound_to 6896
  146.1849  139.7359  142.8874 H   0  0  0  0  0  0  0  0  0  0  0  0  # atno 7974 bound_to 7965
  155.9554  140.3397  155.6444 H   0  0  0  0  0  0  0  0  0  0  0  0  # atno 8008 bound_to 7997
  155.6866  140.0744  157.2482 H   0  0  0  0  0  0  0  0  0  0  0  0  # atno 8009 bound_to 7997
  154.4131  140.1665  156.2028 H   0  0  0  0  0  0  0  0  0  0  0  0  # atno 8010 bound_to 7997
  139.4821  144.5043  151.8121 H   0  0  0  0  0  0  0  0  0  0  0  0  # atno 10167 bound_to 10162
  156.5475  130.8591  151.2769 H   0  0  0  0  0  0  0  0  0  0  0  0  # atno 10718 bound_to 10713
  153.3305  135.6975  153.6952 H   0  0  0  0  0  0  0  0  0  0  0  0  # atno 10763 bound_to 10752
  153.5756  135.3508  155.2855 H   0  0  0  0  0  0  0  0  0  0  0  0  # atno 10764 bound_to 10752
  154.8617  135.4282  154.2493 H   0  0  0  0  0  0  0  0  0  0  0  0  # atno 10765 bound_to 10752
  141.1514  133.6724  156.6331 H   0  0  0  0  0  0  0  0  0  0  0  0  # atno 11005 bound_to 11000
  145.3968  141.0380  143.3093 LP  0  0  0  0  0  0  0  0  0  0  0  0  # atno 17320 bound_to 7965
  144.8380  139.5519  143.6913 LP  0  0  0  0  0  0  0  0  0  0  0  0  # atno 17321 bound_to 7965
  140.4539  144.1816  150.5900 LP  0  0  0  0  0  0  0  0  0  0  0  0  # atno 17342 bound_to 10162
  140.4556  143.2469  151.9290 LP  0  0  0  0  0  0  0  0  0  0  0  0  # atno 17343 bound_to 10162
  157.7394  130.9830  150.2310 LP  0  0  0  0  0  0  0  0  0  0  0  0  # atno 17370 bound_to 10713
  156.2915  130.3746  149.7837 LP  0  0  0  0  0  0  0  0  0  0  0  0  # atno 17371 bound_to 10713
  140.3451  134.7816  157.4426 LP  0  0  0  0  0  0  0  0  0  0  0  0  # atno 17394 bound_to 11000
  140.0906  134.5607  155.8448 LP  0  0  0  0  0  0  0  0  0  0  0  0  # atno 17395 bound_to 11000

$$$$
