AV-unprocessed.smi:265|AV-procd|sdf|2016|dock8
  -GOLD-   2262021213D 1   1.00000     0.00000
 Structure written by MMmdl.
 52 56  0  0  0  0  0  0  0  0  1 V2000
  147.5196  134.9470  156.7698 C   0  0  0  0  0  0  0  0  0  0  0  0
  148.0105  133.7845  155.8931 C   0  0  1  0  0  0  0  0  0  0  0  0
  146.9302  132.9350  155.5090 O   0  0  0  0  0  0  0  0  0  0  0  0
  147.0070  132.6293  154.1214 C   0  0  0  0  0  0  0  0  0  0  0  0
  148.4385  132.9642  153.7155 C   0  0  0  0  0  0  0  0  0  0  0  0
  148.7568  134.1659  154.5946 C   0  0  1  0  0  0  0  0  0  0  0  0
  148.1726  135.3192  154.0118 O   0  0  0  0  0  0  0  0  0  0  0  0
  150.2642  134.4888  154.7603 C   0  0  0  0  0  0  0  0  0  0  0  0
  150.5604  135.6276  155.6151 N   0  0  0  0  0  0  0  0  0  0  0  0
  151.1278  135.5940  156.8700 C   0  0  0  0  0  0  0  0  0  0  0  0
  151.2828  136.7560  157.4440 N   0  0  0  0  0  0  0  0  0  0  0  0
  150.7653  137.6562  156.5221 C   0  0  0  0  0  0  0  0  0  0  0  0
  150.6054  139.0657  156.5031 C   0  0  0  0  0  0  0  0  0  0  0  0
  151.0013  139.8425  157.5326 N   0  0  0  0  0  0  0  0  0  0  0  0
  152.2225  139.3650  158.1813 C   0  0  0  0  0  0  0  0  0  0  0  0
  152.5034  140.1485  159.4780 C   0  0  0  0  0  0  0  0  0  0  0  0
  152.5171  141.6562  159.1871 C   0  0  2  0  0  0  0  0  0  0  0  0
  152.6559  142.4250  160.3723 O   0  0  0  0  0  0  0  0  0  0  0  0
  152.8268  143.8255  160.1271 C   0  0  0  0  0  0  0  0  0  0  0  0
  151.8205  144.3825  159.0968 C   0  0  0  0  0  0  0  0  0  0  0  0
  151.6900  145.5971  158.9642 O   0  0  0  0  0  0  0  0  0  0  0  0
  151.1396  143.5081  158.3378 N   0  0  0  0  0  0  0  0  0  0  0  0
  151.1792  142.0681  158.5520 C   0  0  1  0  0  0  0  0  0  0  0  0
  150.9534  141.2776  157.2539 C   0  0  0  0  0  0  0  0  0  0  0  0
  150.0370  139.6303  155.4054 N   0  0  0  0  0  0  0  0  0  0  0  0
  149.6450  138.8570  154.3879 C   0  0  0  0  0  0  0  0  0  0  0  0
  149.7270  137.5294  154.2674 N   0  0  0  0  0  0  0  0  0  0  0  0
  150.3016  136.9650  155.3689 C   0  0  0  0  0  0  0  0  0  0  0  0
  153.3479  141.8757  158.5125 H   0  0  0  0  0  0  0  0  0  0  0  0
  150.3697  141.8330  159.2456 H   0  0  0  0  0  0  0  0  0  0  0  0
  148.3466  135.5961  157.0581 H   0  0  0  0  0  0  0  0  0  0  0  0
  147.0588  134.5724  157.6838 H   0  0  0  0  0  0  0  0  0  0  0  0
  146.7758  135.5555  156.2548 H   0  0  0  0  0  0  0  0  0  0  0  0
  148.6522  133.1508  156.5029 H   0  0  0  0  0  0  0  0  0  0  0  0
  146.7485  131.5884  153.9269 H   0  0  0  0  0  0  0  0  0  0  0  0
  146.2986  133.2602  153.5830 H   0  0  0  0  0  0  0  0  0  0  0  0
  149.0735  132.1155  153.9681 H   0  0  0  0  0  0  0  0  0  0  0  0
  148.5492  133.1587  152.6481 H   0  0  0  0  0  0  0  0  0  0  0  0
  148.5933  135.4816  153.1815 H   0  0  0  0  0  0  0  0  0  0  0  0
  150.7855  133.6220  155.1695 H   0  0  0  0  0  0  0  0  0  0  0  0
  150.7133  134.6761  153.7839 H   0  0  0  0  0  0  0  0  0  0  0  0
  151.4299  134.6731  157.3477 H   0  0  0  0  0  0  0  0  0  0  0  0
  152.1316  138.3011  158.4049 H   0  0  0  0  0  0  0  0  0  0  0  0
  153.0622  139.4752  157.4935 H   0  0  0  0  0  0  0  0  0  0  0  0
  151.7350  139.9208  160.2180 H   0  0  0  0  0  0  0  0  0  0  0  0
  153.4552  139.8363  159.9080 H   0  0  0  0  0  0  0  0  0  0  0  0
  152.7257  144.3644  161.0694 H   0  0  0  0  0  0  0  0  0  0  0  0
  153.8381  144.0049  159.7603 H   0  0  0  0  0  0  0  0  0  0  0  0
  150.5037  143.8628  157.6382 H   0  0  0  0  0  0  0  0  0  0  0  0
  151.7158  141.5367  156.5176 H   0  0  0  0  0  0  0  0  0  0  0  0
  149.9851  141.5351  156.8220 H   0  0  0  0  0  0  0  0  0  0  0  0
  149.2010  139.3757  153.5507 H   0  0  0  0  0  0  0  0  0  0  0  0
  1  2  1  0  0  0  0
  1 31  1  0  0  0  0
  1 32  1  0  0  0  0
  1 33  1  0  0  0  0
  2  6  1  0  0  0  0
  2  3  1  0  0  0  0
  2 34  1  0  0  0  0
  3  4  1  0  0  0  0
  4  5  1  0  0  0  0
  4 35  1  0  0  0  0
  4 36  1  0  0  0  0
  5  6  1  0  0  0  0
  5 37  1  0  0  0  0
  5 38  1  0  0  0  0
  6  7  1  0  0  0  0
  6  8  1  0  0  0  0
  7 39  1  0  0  0  0
  8  9  1  0  0  0  0
  8 40  1  0  0  0  0
  8 41  1  0  0  0  0
  9 28  1  0  0  0  0
  9 10  1  0  0  0  0
 10 11  2  0  0  0  0
 10 42  1  0  0  0  0
 11 12  1  0  0  0  0
 12 28  2  0  0  0  0
 12 13  1  0  0  0  0
 13 14  1  0  0  0  0
 13 25  2  0  0  0  0
 14 24  1  0  0  0  0
 14 15  1  0  0  0  0
 15 16  1  0  0  0  0
 15 43  1  0  0  0  0
 15 44  1  0  0  0  0
 16 17  1  0  0  0  0
 16 45  1  0  0  0  0
 16 46  1  0  0  0  0
 17 29  1  0  0  0  0
 17 23  1  0  0  0  0
 17 18  1  0  0  0  0
 18 19  1  0  0  0  0
 19 20  1  0  0  0  0
 19 47  1  0  0  0  0
 19 48  1  0  0  0  0
 20 21  2  0  0  0  0
 20 22  1  0  0  0  0
 22 23  1  0  0  0  0
 22 49  1  0  0  0  0
 23 30  1  0  0  0  0
 23 24  1  0  0  0  0
 24 50  1  0  0  0  0
 24 51  1  0  0  0  0
 25 26  1  0  0  0  0
 26 27  2  0  0  0  0
 26 52  1  0  0  0  0
 27 28  1  0  0  0  0
M  END
> <s_m_source_file>
AV-unprocessed.smi

> <i_m_source_file_index>
265

> <i_lp_mmshare_version>
43012

> <i_f3d_flags>
0

> <s_epik_input>
W0NIMl0xW0NIMl1PW0NAQEhdKFtDSDNdKVtDQEBdMShbT0hdKVtDSDJdbihbY0hdbjIpYyhjMjMpbltjSF1uYzNOKFtDSDJdW0NIMl00KVtDSDJdW0NAQEhdKFtDQEhdNDUpW05IXUMoPU8pW0NIMl1PNQ==

> <s_epik_cmdline>
J2VwaWtfcHl0aG9uJywgJy1waCcsICc3LjAnLCAnLXRuJywgJzgnLCAnLW1hJywgJzIwMCcsICctbWV0YWxfYmluZGluZycsICctaW1hZScsICc8aW5maWxlLm1hZT4nLCAnLW9tYWUnLCAnPG91dGZpbGUubWFlPic=

> <r_lp_tautomer_probability>
1

> <r_epik_Ionization_Penalty>
0.00221504

> <r_epik_Ionization_Penalty_Charging>
0

> <r_epik_Ionization_Penalty_Neutral>
0.00221504

> <r_epik_State_Penalty>
-0

> <r_epik_Charging_Adjusted_Penalty>
0

> <i_epik_Tot_Q>
0

> <i_epik_Tot_abs_Q>
0

> <r_epik_Metal_State_Penalty>
-0

> <b_epik_Metal_Only>
0

> <s_lp_Force_Field>
OPLS_2005

> <r_lp_Energy>
49.8504

> <b_lp_Chiralities_Consistent>
1

> <s_lp_Variant>
AV-unprocessed.smi:265-2

> <Gold.Version>
5.8.1

> <Gold.Id.Protein>
6NUR|6NUR_protein|mol2

> <Gold.PLP.Fitness>
38.4658

> <Gold.PLP.PLP>
-33.2573

> <Gold.PLP.part.hbond>
-1.7295

> <Gold.PLP.part.metal>
0.0000

> <Gold.PLP.part.buried>
-8.1585

> <Gold.PLP.part.nonpolar>
-26.5896

> <Gold.PLP.part.repulsive>
2.4338

> <Gold.PLP.ligand.clash>
0.0000

> <Gold.PLP.ligand.torsion>
0.5112

> <Gold.PLP.Chemscore.Hbond>
1.0000

> <Gold.PLP.Chemscore.CHOScore>
1.0000

> <Gold.PLP.Chemscore.Metal>
0.0000

> <Gold.Chemscore.Hbonds>
donor molecule, donor type, donor heavy atom, donor atom, acceptor molecule, acceptor atom, score
      L1  H     7    39       P1  7948  1.00
      L1  C    26    52       P1  7957  1.00

> <Gold.PLP.Chemscore.Internal.Correction>
0.2310

> <Gold.Rescore>
     Score         DG    S(hbond)    S(metal)    S(lipo)     H(rot)  DE(clash)    DE(int)     intcor
      6.82     -12.72       1.53        0.00      67.44       2.25       1.80       4.09       ----

> <Gold.Chemscore.Fitness>
6.8227

> <Gold.Chemscore.DG>
-12.7195

> <Gold.Chemscore.ZeroCoef>
-5.4800

> <Gold.Chemscore.Hbond>
1.5260

> <Gold.Chemscore.Metal>
0.0000

> <Gold.Chemscore.Lipo>
67.4422

> <Gold.Chemscore.Internal_Hbond>
0.0000

> <Gold.Chemscore.DEClash>
1.8027

> <Gold.Chemscore.DEInternal>
4.0941

> <Gold.Chemscore.Rot>
2.2453

> <Gold.Chemscore.Internal.Correction>
   9.000000E+99

> <Gold.Chemscore.Hbonds>
donor molecule, donor type, donor heavy atom, donor atom, acceptor molecule, acceptor atom, score
      L1  H     7    39       P1  7948  0.90

> <Gold.Chemscore.Hbond.Weighted>
-5.0967

> <Gold.Chemscore.Metal.Weighted>
-0.0000

> <Gold.Chemscore.Lipo.Weighted>
-7.8907

> <Gold.Chemscore.Internal_Hbond.Weighted>
0.0000

> <Gold.Chemscore.DEClash.Weighted>
1.8027

> <Gold.Chemscore.DEInternal.Weighted>
4.0941

> <Gold.Chemscore.Rot.Weighted>
5.7479

> <Gold.Chemscore.Internal.Correction.Weighted>
   9.000000E+99

> <Gold.Protein.RotatedTorsions>
[ 6907 6896 6895 6894 ] final   71.03 input  -60.11 | X-H torsion
[ 7974 7965 7964 7962 ] final  116.92 input  175.53 | X-H torsion
[ 8008 7997 7996 7995 ] final  -40.78 input   59.86 | X-H torsion
[ 10167 10162 10161 10158 ] final   -5.85 input  -65.29 | X-H torsion
[ 10718 10713 10712 10709 ] final  -89.73 input   66.30 | X-H torsion
[ 10763 10752 10751 10750 ] final   48.95 input  -60.55 | X-H torsion
[ 11005 11000 10999 10996 ] final  108.55 input  -57.11 | X-H torsion

> <Gold.Protein.ActiveResidues>
 VAL166  LYS551  ARG553  GLY616  TRP617  ASP618  TYR619  PRO620  LYS621  CYS622 
 ASP623  PHE694  ASN695  SER759  ASP760  ASP761  ALA762  ILE779  LEU786  VAL792 
 PHE793  MET794  SER795  GLU796  ALA797  LYS798  CYS799  TRP800  GLU811  SER814 

> <Gold.Protein.RotatedAtoms>
  152.4785  134.4781  159.9656 H   0  0  0  0  0  0  0  0  0  0  0  0  # atno 6907 bound_to 6896
  151.4792  133.3544  159.2843 H   0  0  0  0  0  0  0  0  0  0  0  0  # atno 6908 bound_to 6896
  150.8841  134.8262  159.7307 H   0  0  0  0  0  0  0  0  0  0  0  0  # atno 6909 bound_to 6896
  145.1737  139.3087  143.4454 H   0  0  0  0  0  0  0  0  0  0  0  0  # atno 7974 bound_to 7965
  154.4009  140.1516  156.3083 H   0  0  0  0  0  0  0  0  0  0  0  0  # atno 8008 bound_to 7997
  155.8639  140.3452  155.5753 H   0  0  0  0  0  0  0  0  0  0  0  0  # atno 8009 bound_to 7997
  155.7850  140.0848  157.2030 H   0  0  0  0  0  0  0  0  0  0  0  0  # atno 8010 bound_to 7997
  140.6977  143.6261  150.8567 H   0  0  0  0  0  0  0  0  0  0  0  0  # atno 10167 bound_to 10162
  155.9985  130.4883  150.5215 H   0  0  0  0  0  0  0  0  0  0  0  0  # atno 10718 bound_to 10713
  152.9789  135.5927  154.4009 H   0  0  0  0  0  0  0  0  0  0  0  0  # atno 10763 bound_to 10752
  154.3655  135.2767  155.2298 H   0  0  0  0  0  0  0  0  0  0  0  0  # atno 10764 bound_to 10752
  154.4276  135.6044  153.6103 H   0  0  0  0  0  0  0  0  0  0  0  0  # atno 10765 bound_to 10752
  139.8846  134.9433  156.5990 H   0  0  0  0  0  0  0  0  0  0  0  0  # atno 11005 bound_to 11000
  146.3464  140.1891  142.8589 LP  0  0  0  0  0  0  0  0  0  0  0  0  # atno 17320 bound_to 7965
  145.0207  140.8791  143.5168 LP  0  0  0  0  0  0  0  0  0  0  0  0  # atno 17321 bound_to 7965
  139.9980  143.5774  152.2886 LP  0  0  0  0  0  0  0  0  0  0  0  0  # atno 17342 bound_to 10162
  139.6454  144.7658  151.2255 LP  0  0  0  0  0  0  0  0  0  0  0  0  # atno 17343 bound_to 10162
  157.3176  131.0676  151.1955 LP  0  0  0  0  0  0  0  0  0  0  0  0  # atno 17370 bound_to 10713
  157.2880  130.6782  149.6099 LP  0  0  0  0  0  0  0  0  0  0  0  0  # atno 17371 bound_to 10713
  140.7898  133.8591  155.8637 LP  0  0  0  0  0  0  0  0  0  0  0  0  # atno 17394 bound_to 11000
  140.9687  134.1560  157.4594 LP  0  0  0  0  0  0  0  0  0  0  0  0  # atno 17395 bound_to 11000

$$$$
