AV-unprocessed.smi:1815|AV-procd|sdf|7360|dock3
  -GOLD-   22720 9 23D 1   1.00000     0.00000
 Structure written by MMmdl.
 39 40  0  0  0  0  0  0  0  0  3 V2000
  145.8817  131.6412  151.3505 C   0  0  0  0  0  0  0  0  0  0  0  0
  146.1610  133.1151  151.6651 C   0  0  2  0  0  0  0  0  0  0  0  0
  146.8561  133.2928  153.0266 C   0  0  0  0  0  0  0  0  0  0  0  0
  147.0338  134.7308  153.3326 N   0  3  2  0  0  0  0  0  0  0  0  0
  147.7987  134.9554  154.5839 C   0  0  0  0  0  0  0  0  0  0  0  0
  147.0756  134.3902  155.8158 C   0  0  0  0  0  0  0  0  0  0  0  0
  147.7015  134.8747  157.0376 N   0  0  0  0  0  0  0  0  0  0  0  0
  148.0742  134.1052  158.0683 C   0  0  0  0  0  0  0  0  0  0  0  0
  147.8996  132.8855  158.0178 O   0  0  0  0  0  0  0  0  0  0  0  0
  148.6247  134.7974  159.0906 N   0  5  0  0  0  0  0  0  0  0  0  0
  148.0460  134.7804  160.3024 C   0  0  0  0  0  0  0  0  0  0  0  0
  147.9518  135.8644  161.0809 N   0  0  0  0  0  0  0  0  0  0  0  0
  147.3202  135.6184  162.3012 C   0  0  0  0  0  0  0  0  0  0  0  0
  146.9325  134.3144  162.4593 C   0  0  0  0  0  0  0  0  0  0  0  0
  147.3496  133.3513  161.0709 S   0  0  0  0  0  0  0  0  0  0  0  0
  145.7242  135.4274  153.3041 C   0  0  0  0  0  0  0  0  0  0  0  0
  145.0040  135.2021  151.9602 C   0  0  1  0  0  0  0  0  0  0  0  0
  145.6155  135.9986  150.7936 C   0  0  0  0  0  0  0  0  0  0  0  0
  144.9144  133.8059  151.6749 O   0  0  0  0  0  0  0  0  0  0  0  0
  146.8065  131.0646  151.3168 H   0  0  0  0  0  0  0  0  0  0  0  0
  145.3899  131.5359  150.3832 H   0  0  0  0  0  0  0  0  0  0  0  0
  145.2339  131.1916  152.1035 H   0  0  0  0  0  0  0  0  0  0  0  0
  146.7967  133.5131  150.8740 H   0  0  0  0  0  0  0  0  0  0  0  0
  146.2710  132.8212  153.8182 H   0  0  0  0  0  0  0  0  0  0  0  0
  147.8275  132.7966  153.0066 H   0  0  0  0  0  0  0  0  0  0  0  0
  148.7992  134.5299  154.4901 H   0  0  0  0  0  0  0  0  0  0  0  0
  147.9319  136.0282  154.7329 H   0  0  0  0  0  0  0  0  0  0  0  0
  146.0260  134.6887  155.8032 H   0  0  0  0  0  0  0  0  0  0  0  0
  147.1039  133.3006  155.8226 H   0  0  0  0  0  0  0  0  0  0  0  0
  147.8626  135.8684  157.1157 H   0  0  0  0  0  0  0  0  0  0  0  0
  147.1911  136.4314  163.0000 H   0  0  0  0  0  0  0  0  0  0  0  0
  146.4313  133.8632  163.3021 H   0  0  0  0  0  0  0  0  0  0  0  0
  145.1035  135.0488  154.1176 H   0  0  0  0  0  0  0  0  0  0  0  0
  145.8472  136.4960  153.4764 H   0  0  0  0  0  0  0  0  0  0  0  0
  143.9774  135.5518  152.0734 H   0  0  0  0  0  0  0  0  0  0  0  0
  145.5560  137.0702  150.9860 H   0  0  0  0  0  0  0  0  0  0  0  0
  145.0795  135.8017  149.8650 H   0  0  0  0  0  0  0  0  0  0  0  0
  146.6659  135.7582  150.6316 H   0  0  0  0  0  0  0  0  0  0  0  0
  147.5926  135.1145  152.5835 H   0  0  0  0  0  0  0  0  0  0  0  0
  1  2  1  0  0  0  0
  1 20  1  0  0  0  0
  1 21  1  0  0  0  0
  1 22  1  0  0  0  0
  2 19  1  0  0  0  0
  2  3  1  0  0  0  0
  2 23  1  0  0  0  0
  3  4  1  0  0  0  0
  3 24  1  0  0  0  0
  3 25  1  0  0  0  0
  4  5  1  0  0  0  0
  4 16  1  0  0  0  0
  4 39  1  0  0  0  0
  5  6  1  0  0  0  0
  5 26  1  0  0  0  0
  5 27  1  0  0  0  0
  6  7  1  0  0  0  0
  6 28  1  0  0  0  0
  6 29  1  0  0  0  0
  7  8  1  0  0  0  0
  7 30  1  0  0  0  0
  8  9  2  0  0  0  0
  8 10  1  0  0  0  0
 10 11  1  0  0  0  0
 11 15  1  0  0  0  0
 11 12  2  0  0  0  0
 12 13  1  0  0  0  0
 13 14  2  0  0  0  0
 13 31  1  0  0  0  0
 14 15  1  0  0  0  0
 14 32  1  0  0  0  0
 16 17  1  0  0  0  0
 16 33  1  0  0  0  0
 16 34  1  0  0  0  0
 17 18  1  0  0  0  0
 17 19  1  0  0  0  0
 17 35  1  0  0  0  0
 18 36  1  0  0  0  0
 18 37  1  0  0  0  0
 18 38  1  0  0  0  0
M  CHG  1   4   1
M  CHG  1  10  -1
M  END
> <s_m_source_file>
AV-unprocessed.smi

> <i_m_source_file_index>
1815

> <i_lp_mmshare_version>
43012

> <i_f3d_flags>
0

> <s_epik_input>
W0NIM11bQ0BASF0xW0NIMl1OKFtDSDJdW0NASF0oTzEpW0NIM10pW0NIMl1bQ0gyXVtOSF1DKD1PKVtOSF1jMm5bY0hdW2NIXXMy

> <s_epik_cmdline>
J2VwaWtfcHl0aG9uJywgJy1waCcsICc3LjAnLCAnLXRuJywgJzgnLCAnLW1hJywgJzIwMCcsICctbWV0YWxfYmluZGluZycsICctaW1hZScsICc8aW5maWxlLm1hZT4nLCAnLW9tYWUnLCAnPG91dGZpbGUubWFlPic=

> <r_lp_tautomer_probability>
0.999

> <r_epik_Ionization_Penalty>
6.71699

> <r_epik_Ionization_Penalty_Charging>
5.88592

> <r_epik_Ionization_Penalty_Neutral>
0.831074

> <r_epik_State_Penalty>
6.08365

> <r_epik_Charging_Adjusted_Penalty>
11.9696

> <i_epik_Tot_Q>
0

> <i_epik_Tot_abs_Q>
2

> <r_epik_Metal_State_Penalty>
2.0947

> <b_epik_Metal_Only>
1

> <s_lp_Force_Field>
OPLS_2005

> <r_lp_Energy>
8.1919

> <b_lp_Chiralities_Consistent>
1

> <s_lp_Variant>
AV-unprocessed.smi:1815-11

> <Gold.Version>
5.8.1

> <Gold.Id.Protein>
6NUR|6NUR_protein|mol2

> <Gold.PLP.Fitness>
37.1540

> <Gold.PLP.PLP>
-27.1180

> <Gold.PLP.part.hbond>
-2.0000

> <Gold.PLP.part.metal>
0.0000

> <Gold.PLP.part.buried>
-3.8756

> <Gold.PLP.part.nonpolar>
-21.5652

> <Gold.PLP.part.repulsive>
0.1118

> <Gold.PLP.ligand.clash>
0.0000

> <Gold.PLP.ligand.torsion>
0.9900

> <Gold.PLP.Chemscore.Hbond>
4.0000

> <Gold.PLP.Chemscore.CHOScore>
0.0000

> <Gold.PLP.Chemscore.Metal>
0.0000

> <Gold.Chemscore.Hbonds>
donor molecule, donor type, donor heavy atom, donor atom, acceptor molecule, acceptor atom, score
      L1  H     4    39       P1  7948  2.00
      P1  H  6896  6909       L1    10  1.76

> <Gold.PLP.Chemscore.Internal.Correction>
0.0160

> <Gold.Rescore>
     Score         DG    S(hbond)    S(metal)    S(lipo)     H(rot)  DE(clash)    DE(int)     intcor
     13.43     -14.49       1.80        0.00      60.77       1.61       0.00       1.06       ----

> <Gold.Chemscore.Fitness>
13.4273

> <Gold.Chemscore.DG>
-14.4887

> <Gold.Chemscore.ZeroCoef>
-5.4800

> <Gold.Chemscore.Hbond>
1.7995

> <Gold.Chemscore.Metal>
0.0000

> <Gold.Chemscore.Lipo>
60.7661

> <Gold.Chemscore.Internal_Hbond>
0.0000

> <Gold.Chemscore.DEClash>
0.0015

> <Gold.Chemscore.DEInternal>
1.0599

> <Gold.Chemscore.Rot>
1.6060

> <Gold.Chemscore.Internal.Correction>
   9.000000E+99

> <Gold.Chemscore.Hbonds>
donor molecule, donor type, donor heavy atom, donor atom, acceptor molecule, acceptor atom, score
      L1  H     4    39       P1  7948  0.98
      P1  H  6896  6909       L1    10  0.34

> <Gold.Chemscore.Hbond.Weighted>
-6.0103

> <Gold.Chemscore.Metal.Weighted>
-0.0000

> <Gold.Chemscore.Lipo.Weighted>
-7.1096

> <Gold.Chemscore.Internal_Hbond.Weighted>
0.0000

> <Gold.Chemscore.DEClash.Weighted>
0.0015

> <Gold.Chemscore.DEInternal.Weighted>
1.0599

> <Gold.Chemscore.Rot.Weighted>
4.1112

> <Gold.Chemscore.Internal.Correction.Weighted>
   9.000000E+99

> <Gold.Protein.RotatedTorsions>
[ 6907 6896 6895 6894 ] final   34.42 input  -60.11 | X-H torsion
[ 7974 7965 7964 7962 ] final   36.74 input  175.53 | X-H torsion
[ 8008 7997 7996 7995 ] final  -98.39 input   59.86 | X-H torsion
[ 10167 10162 10161 10158 ] final  -44.53 input  -65.29 | X-H torsion
[ 10718 10713 10712 10709 ] final   -2.43 input   66.30 | X-H torsion
[ 10763 10752 10751 10750 ] final   48.70 input  -60.55 | X-H torsion
[ 11005 11000 10999 10996 ] final  -74.75 input  -57.11 | X-H torsion

> <Gold.Protein.ActiveResidues>
 VAL166  LYS551  ARG553  GLY616  TRP617  ASP618  TYR619  PRO620  LYS621  CYS622 
 ASP623  PHE694  ASN695  SER759  ASP760  ASP761  ALA762  ILE779  LEU786  VAL792 
 PHE793  MET794  SER795  GLU796  ALA797  LYS798  CYS799  TRP800  GLU811  SER814 

> <Gold.Protein.RotatedAtoms>
  152.1021  134.9334  160.0569 H   0  0  0  0  0  0  0  0  0  0  0  0  # atno 6907 bound_to 6896
  152.0545  133.4029  159.4399 H   0  0  0  0  0  0  0  0  0  0  0  0  # atno 6908 bound_to 6896
  150.6840  134.3191  159.4822 H   0  0  0  0  0  0  0  0  0  0  0  0  # atno 6909 bound_to 6896
  146.1189  139.5980  142.9303 H   0  0  0  0  0  0  0  0  0  0  0  0  # atno 7974 bound_to 7965
  154.8005  140.0455  157.1269 H   0  0  0  0  0  0  0  0  0  0  0  0  # atno 8008 bound_to 7997
  154.9484  140.3062  155.5067 H   0  0  0  0  0  0  0  0  0  0  0  0  # atno 8009 bound_to 7997
  156.2961  140.2292  156.4560 H   0  0  0  0  0  0  0  0  0  0  0  0  # atno 8010 bound_to 7997
  140.6893  143.2926  151.3508 H   0  0  0  0  0  0  0  0  0  0  0  0  # atno 10167 bound_to 10162
  156.7909  130.5361  149.5736 H   0  0  0  0  0  0  0  0  0  0  0  0  # atno 10718 bound_to 10713
  152.9790  135.5935  154.3969 H   0  0  0  0  0  0  0  0  0  0  0  0  # atno 10763 bound_to 10752
  154.3619  135.2767  155.2317 H   0  0  0  0  0  0  0  0  0  0  0  0  # atno 10764 bound_to 10752
  154.4311  135.6036  153.6124 H   0  0  0  0  0  0  0  0  0  0  0  0  # atno 10765 bound_to 10752
  141.1638  133.6922  156.7412 H   0  0  0  0  0  0  0  0  0  0  0  0  # atno 11005 bound_to 11000
  145.5508  141.0413  143.2279 LP  0  0  0  0  0  0  0  0  0  0  0  0  # atno 17320 bound_to 7965
  144.7578  139.7030  143.7246 LP  0  0  0  0  0  0  0  0  0  0  0  0  # atno 17321 bound_to 7965
  139.6281  144.0775  152.2452 LP  0  0  0  0  0  0  0  0  0  0  0  0  # atno 17342 bound_to 10162
  140.0241  144.6131  150.7542 LP  0  0  0  0  0  0  0  0  0  0  0  0  # atno 17343 bound_to 10162
  156.1160  130.6075  151.0121 LP  0  0  0  0  0  0  0  0  0  0  0  0  # atno 17370 bound_to 10713
  157.6601  131.0882  150.7858 LP  0  0  0  0  0  0  0  0  0  0  0  0  # atno 17371 bound_to 10713
  140.2673  134.8420  157.3814 LP  0  0  0  0  0  0  0  0  0  0  0  0  # atno 17394 bound_to 11000
  140.1555  134.4795  155.7931 LP  0  0  0  0  0  0  0  0  0  0  0  0  # atno 17395 bound_to 11000

$$$$
