AV-unprocessed.smi:1553|AV-procd|sdf|6239|dock2
  -GOLD-   22720 6423D 1   1.00000     0.00000
 Structure written by MMmdl.
 37 38  0  0  0  0  0  0  0  0  1 V2000
  153.0782  143.0733  161.7192 C   0  0  0  0  0  0  0  0  0  0  0  0
  152.5350  143.7424  160.5033 C   0  0  0  0  0  0  0  0  0  0  0  0
  152.3275  143.1127  159.3441 N   0  0  0  0  0  0  0  0  0  0  0  0
  151.8116  143.9576  158.3566 C   0  0  0  0  0  0  0  0  0  0  0  0
  151.5216  143.4188  156.9887 C   0  0  0  0  0  0  0  0  0  0  0  0
  150.6447  142.1567  157.0363 C   0  0  0  0  0  0  0  0  0  0  0  0
  151.3354  141.0017  156.4748 N   0  0  0  0  0  0  0  0  0  0  0  0
  151.3964  139.7842  157.0406 C   0  0  0  0  0  0  0  0  0  0  0  0
  150.8986  139.5450  158.1408 O   0  0  0  0  0  0  0  0  0  0  0  0
  152.1547  138.9030  156.3414 N   0  0  0  0  0  0  0  0  0  0  0  0
  152.2159  138.9477  154.8724 C   0  0  0  0  0  0  0  0  0  0  0  0
  151.1888  137.9438  154.3128 C   0  0  0  0  0  0  0  0  0  0  0  0
  151.4690  136.6364  154.8077 O   0  0  0  0  0  0  0  0  0  0  0  0
  151.4735  136.5587  156.2318 C   0  0  0  0  0  0  0  0  0  0  0  0
  152.5182  137.5446  156.7922 C   0  0  2  0  0  0  0  0  0  0  0  0
  152.7367  137.3792  158.3110 C   0  0  0  0  0  0  0  0  0  0  0  0
  151.6342  145.2485  158.7880 C   0  0  0  0  0  0  0  0  0  0  0  0
  152.1062  145.4478  160.4533 S   0  0  0  0  0  0  0  0  0  0  0  0
  153.0570  141.9892  161.6024 H   0  0  0  0  0  0  0  0  0  0  0  0
  152.4816  143.3415  162.5912 H   0  0  0  0  0  0  0  0  0  0  0  0
  154.1082  143.3874  161.8880 H   0  0  0  0  0  0  0  0  0  0  0  0
  151.0302  144.1862  156.3890 H   0  0  0  0  0  0  0  0  0  0  0  0
  152.4562  143.1921  156.4739 H   0  0  0  0  0  0  0  0  0  0  0  0
  150.3864  141.9245  158.0698 H   0  0  0  0  0  0  0  0  0  0  0  0
  149.7022  142.3226  156.5110 H   0  0  0  0  0  0  0  0  0  0  0  0
  151.8057  141.1361  155.5915 H   0  0  0  0  0  0  0  0  0  0  0  0
  152.0153  139.9372  154.4602 H   0  0  0  0  0  0  0  0  0  0  0  0
  153.2206  138.6874  154.5364 H   0  0  0  0  0  0  0  0  0  0  0  0
  150.1729  138.2335  154.5862 H   0  0  0  0  0  0  0  0  0  0  0  0
  151.2333  137.9255  153.2238 H   0  0  0  0  0  0  0  0  0  0  0  0
  150.4776  136.7724  156.6236 H   0  0  0  0  0  0  0  0  0  0  0  0
  151.7196  135.5369  156.5212 H   0  0  0  0  0  0  0  0  0  0  0  0
  153.4804  137.3045  156.3365 H   0  0  0  0  0  0  0  0  0  0  0  0
  153.2003  136.4159  158.5249 H   0  0  0  0  0  0  0  0  0  0  0  0
  151.8036  137.4076  158.8729 H   0  0  0  0  0  0  0  0  0  0  0  0
  153.3980  138.1520  158.7041 H   0  0  0  0  0  0  0  0  0  0  0  0
  151.2574  146.0920  158.2287 H   0  0  0  0  0  0  0  0  0  0  0  0
  1  2  1  0  0  0  0
  1 19  1  0  0  0  0
  1 20  1  0  0  0  0
  1 21  1  0  0  0  0
  2 18  1  0  0  0  0
  2  3  2  0  0  0  0
  3  4  1  0  0  0  0
  4  5  1  0  0  0  0
  4 17  2  0  0  0  0
  5  6  1  0  0  0  0
  5 22  1  0  0  0  0
  5 23  1  0  0  0  0
  6  7  1  0  0  0  0
  6 24  1  0  0  0  0
  6 25  1  0  0  0  0
  7  8  1  0  0  0  0
  7 26  1  0  0  0  0
  8  9  2  0  0  0  0
  8 10  1  0  0  0  0
 10 15  1  0  0  0  0
 10 11  1  0  0  0  0
 11 12  1  0  0  0  0
 11 27  1  0  0  0  0
 11 28  1  0  0  0  0
 12 13  1  0  0  0  0
 12 29  1  0  0  0  0
 12 30  1  0  0  0  0
 13 14  1  0  0  0  0
 14 15  1  0  0  0  0
 14 31  1  0  0  0  0
 14 32  1  0  0  0  0
 15 16  1  0  0  0  0
 15 33  1  0  0  0  0
 16 34  1  0  0  0  0
 16 35  1  0  0  0  0
 16 36  1  0  0  0  0
 17 18  1  0  0  0  0
 17 37  1  0  0  0  0
M  END
> <s_m_source_file>
AV-unprocessed.smi

> <i_m_source_file_index>
1553

> <i_lp_mmshare_version>
43012

> <i_f3d_flags>
0

> <s_epik_input>
W0NIM11jMW5jKFtjSF1zMSlbQ0gyXVtDSDJdW05IXUMoPU8pTjJbQ0gyXVtDSDJdT1tDSDJdW0NASF0yW0NIM10=

> <s_epik_cmdline>
J2VwaWtfcHl0aG9uJywgJy1waCcsICc3LjAnLCAnLXRuJywgJzgnLCAnLW1hJywgJzIwMCcsICctbWV0YWxfYmluZGluZycsICctaW1hZScsICc8aW5maWxlLm1hZT4nLCAnLW9tYWUnLCAnPG91dGZpbGUubWFlPic=

> <r_epik_Ionization_Penalty>
0.0020768

> <r_epik_Ionization_Penalty_Charging>
0

> <r_epik_Ionization_Penalty_Neutral>
0.0020768

> <r_epik_State_Penalty>
0.00139904

> <r_epik_Charging_Adjusted_Penalty>
0.00139904

> <i_epik_Tot_Q>
0

> <i_epik_Tot_abs_Q>
0

> <r_epik_Metal_State_Penalty>
-0

> <b_epik_Metal_Only>
0

> <s_lp_Force_Field>
OPLS_2005

> <r_lp_Energy>
26.8806

> <b_lp_Chiralities_Consistent>
1

> <s_lp_Variant>
AV-unprocessed.smi:1553-2

> <Gold.Version>
5.8.1

> <Gold.Id.Protein>
6NUR|6NUR_protein|mol2

> <Gold.PLP.Fitness>
40.0563

> <Gold.PLP.PLP>
-38.0799

> <Gold.PLP.part.hbond>
-1.0000

> <Gold.PLP.part.metal>
0.0000

> <Gold.PLP.part.buried>
-5.6477

> <Gold.PLP.part.nonpolar>
-32.2466

> <Gold.PLP.part.repulsive>
0.2671

> <Gold.PLP.ligand.clash>
0.0026

> <Gold.PLP.ligand.torsion>
0.7215

> <Gold.PLP.Chemscore.Hbond>
1.0000

> <Gold.PLP.Chemscore.CHOScore>
0.0000

> <Gold.PLP.Chemscore.Metal>
0.0000

> <Gold.Chemscore.Hbonds>
donor molecule, donor type, donor heavy atom, donor atom, acceptor molecule, acceptor atom, score
      P1  H 10752 10763       L1    13  1.00

> <Gold.PLP.Chemscore.Internal.Correction>
0.4221

> <Gold.Rescore>
     Score         DG    S(hbond)    S(metal)    S(lipo)     H(rot)  DE(clash)    DE(int)     intcor
     15.38     -17.57       0.79        0.00     109.92       1.33       0.07       2.12       ----

> <Gold.Chemscore.Fitness>
15.3767

> <Gold.Chemscore.DG>
-17.5657

> <Gold.Chemscore.ZeroCoef>
-5.4800

> <Gold.Chemscore.Hbond>
0.7894

> <Gold.Chemscore.Metal>
0.0000

> <Gold.Chemscore.Lipo>
109.9155

> <Gold.Chemscore.Internal_Hbond>
0.0000

> <Gold.Chemscore.DEClash>
0.0687

> <Gold.Chemscore.DEInternal>
2.1203

> <Gold.Chemscore.Rot>
1.3325

> <Gold.Chemscore.Internal.Correction>
   9.000000E+99

> <Gold.Chemscore.Hbonds>
donor molecule, donor type, donor heavy atom, donor atom, acceptor molecule, acceptor atom, score
      P1  H 10752 10763       L1    13  0.53

> <Gold.Chemscore.Hbond.Weighted>
-2.6367

> <Gold.Chemscore.Metal.Weighted>
-0.0000

> <Gold.Chemscore.Lipo.Weighted>
-12.8601

> <Gold.Chemscore.Internal_Hbond.Weighted>
0.0000

> <Gold.Chemscore.DEClash.Weighted>
0.0687

> <Gold.Chemscore.DEInternal.Weighted>
2.1203

> <Gold.Chemscore.Rot.Weighted>
3.4111

> <Gold.Chemscore.Internal.Correction.Weighted>
   9.000000E+99

> <Gold.Protein.RotatedTorsions>
[ 6907 6896 6895 6894 ] final   67.94 input  -60.11 | X-H torsion
[ 7974 7965 7964 7962 ] final   94.80 input  175.53 | X-H torsion
[ 8008 7997 7996 7995 ] final -174.22 input   59.86 | X-H torsion
[ 10167 10162 10161 10158 ] final  136.63 input  -65.29 | X-H torsion
[ 10718 10713 10712 10709 ] final  111.16 input   66.30 | X-H torsion
[ 10763 10752 10751 10750 ] final   36.38 input  -60.55 | X-H torsion
[ 11005 11000 10999 10996 ] final  166.95 input  -57.11 | X-H torsion

> <Gold.Protein.ActiveResidues>
 VAL166  LYS551  ARG553  GLY616  TRP617  ASP618  TYR619  PRO620  LYS621  CYS622 
 ASP623  PHE694  ASN695  SER759  ASP760  ASP761  ALA762  ILE779  LEU786  VAL792 
 PHE793  MET794  SER795  GLU796  ALA797  LYS798  CYS799  TRP800  GLU811  SER814 

> <Gold.Protein.RotatedAtoms>
  152.4586  134.5235  159.9789 H   0  0  0  0  0  0  0  0  0  0  0  0  # atno 6907 bound_to 6896
  151.5290  133.3447  159.2922 H   0  0  0  0  0  0  0  0  0  0  0  0  # atno 6908 bound_to 6896
  150.8540  134.7903  159.7093 H   0  0  0  0  0  0  0  0  0  0  0  0  # atno 6909 bound_to 6896
  145.4607  139.2287  143.2989 H   0  0  0  0  0  0  0  0  0  0  0  0  # atno 7974 bound_to 7965
  155.9673  140.1156  157.0843 H   0  0  0  0  0  0  0  0  0  0  0  0  # atno 8008 bound_to 7997
  154.4147  140.1170  156.5327 H   0  0  0  0  0  0  0  0  0  0  0  0  # atno 8009 bound_to 7997
  155.6642  140.3473  155.4796 H   0  0  0  0  0  0  0  0  0  0  0  0  # atno 8010 bound_to 7997
  139.5173  144.6454  151.5454 H   0  0  0  0  0  0  0  0  0  0  0  0  # atno 10167 bound_to 10162
  157.6458  131.0946  150.6708 H   0  0  0  0  0  0  0  0  0  0  0  0  # atno 10718 bound_to 10713
  153.0079  135.6307  154.1976 H   0  0  0  0  0  0  0  0  0  0  0  0  # atno 10763 bound_to 10752
  154.1719  135.2818  155.3080 H   0  0  0  0  0  0  0  0  0  0  0  0  # atno 10764 bound_to 10752
  154.5902  135.5620  153.7331 H   0  0  0  0  0  0  0  0  0  0  0  0  # atno 10765 bound_to 10752
  140.2718  134.7821  157.3682 H   0  0  0  0  0  0  0  0  0  0  0  0  # atno 11005 bound_to 11000
  146.2453  140.5376  142.8916 LP  0  0  0  0  0  0  0  0  0  0  0  0  # atno 17320 bound_to 7965
  144.8004  140.6203  143.6481 LP  0  0  0  0  0  0  0  0  0  0  0  0  # atno 17321 bound_to 7965
  140.6237  143.9210  150.6547 LP  0  0  0  0  0  0  0  0  0  0  0  0  # atno 17342 bound_to 10162
  140.2491  143.3606  152.1421 LP  0  0  0  0  0  0  0  0  0  0  0  0  # atno 17343 bound_to 10162
  156.7025  130.4627  149.5569 LP  0  0  0  0  0  0  0  0  0  0  0  0  # atno 17370 bound_to 10713
  156.1785  130.6484  151.0923 LP  0  0  0  0  0  0  0  0  0  0  0  0  # atno 17371 bound_to 10713
  140.1366  134.5026  155.8063 LP  0  0  0  0  0  0  0  0  0  0  0  0  # atno 17394 bound_to 11000
  141.2176  133.6809  156.7135 LP  0  0  0  0  0  0  0  0  0  0  0  0  # atno 17395 bound_to 11000

$$$$
