AV-unprocessed.smi:1032|AV-procd|sdf|4487|dock7
  -GOLD-   22720 2473D 1   1.00000     0.00000
 Structure written by MMmdl.
 47 48  0  0  0  0  0  0  0  0  3 V2000
  150.8211  144.0736  159.9787 C   0  0  0  0  0  0  0  0  0  0  0  0
  150.5499  143.0456  158.8716 C   0  0  2  0  0  0  0  0  0  0  0  0
  151.3412  143.3642  157.5922 C   0  0  0  0  0  0  0  0  0  0  0  0
  151.0396  142.3455  156.4800 C   0  0  0  0  0  0  0  0  0  0  0  0
  149.5846  142.2863  156.1863 N   0  3  1  0  0  0  0  0  0  0  0  0
  149.2770  141.4131  155.0240 C   0  0  0  0  0  0  0  0  0  0  0  0
  147.7607  141.2240  154.8139 C   0  0  1  0  0  0  0  0  0  0  0  0
  147.1545  142.4947  154.9517 O   0  0  0  0  0  0  0  0  0  0  0  0
  147.4458  140.6771  153.4071 C   0  0  0  0  0  0  0  0  0  0  0  0
  146.2178  139.8883  153.3968 N   0  0  0  0  0  0  0  0  0  0  0  0
  146.0820  138.6731  153.9464 C   0  0  0  0  0  0  0  0  0  0  0  0
  146.9842  138.1024  154.5584 O   0  0  0  0  0  0  0  0  0  0  0  0
  144.8451  138.1846  153.7501 N   0  0  0  0  0  0  0  0  0  0  0  0
  144.3162  136.9199  154.1290 C   0  0  0  0  0  0  0  0  0  0  0  0
  143.3142  136.3608  153.3049 C   0  0  0  0  0  0  0  0  0  0  0  0
  142.7699  135.1009  153.6271 C   0  0  0  0  0  0  0  0  0  0  0  0
  143.2135  134.4354  154.7148 N   0  3  0  0  0  0  0  0  0  0  0  0
  144.1773  134.9221  155.5254 C   0  0  0  0  0  0  0  0  0  0  0  0
  144.7603  136.1764  155.2526 C   0  0  0  0  0  0  0  0  0  0  0  0
  148.7973  141.9453  157.4011 C   0  0  0  0  0  0  0  0  0  0  0  0
  149.0531  142.9565  158.5308 C   0  0  0  0  0  0  0  0  0  0  0  0
  150.5164  145.0754  159.6743 H   0  0  0  0  0  0  0  0  0  0  0  0
  151.8816  144.1098  160.2294 H   0  0  0  0  0  0  0  0  0  0  0  0
  150.2768  143.8222  160.8895 H   0  0  0  0  0  0  0  0  0  0  0  0
  150.8741  142.0704  159.2384 H   0  0  0  0  0  0  0  0  0  0  0  0
  151.0928  144.3676  157.2430 H   0  0  0  0  0  0  0  0  0  0  0  0
  152.4108  143.3678  157.8055 H   0  0  0  0  0  0  0  0  0  0  0  0
  151.5861  142.6309  155.5802 H   0  0  0  0  0  0  0  0  0  0  0  0
  151.3954  141.3548  156.7677 H   0  0  0  0  0  0  0  0  0  0  0  0
  149.7026  141.8388  154.1135 H   0  0  0  0  0  0  0  0  0  0  0  0
  149.7705  140.4499  155.1639 H   0  0  0  0  0  0  0  0  0  0  0  0
  147.3528  140.5487  155.5660 H   0  0  0  0  0  0  0  0  0  0  0  0
  147.8011  143.1070  155.2700 H   0  0  0  0  0  0  0  0  0  0  0  0
  147.4222  141.4748  152.6622 H   0  0  0  0  0  0  0  0  0  0  0  0
  148.2417  140.0000  153.0954 H   0  0  0  0  0  0  0  0  0  0  0  0
  145.4223  140.2904  152.9226 H   0  0  0  0  0  0  0  0  0  0  0  0
  144.1903  138.8090  153.3024 H   0  0  0  0  0  0  0  0  0  0  0  0
  142.9597  136.8920  152.4334 H   0  0  0  0  0  0  0  0  0  0  0  0
  142.0005  134.6086  153.0504 H   0  0  0  0  0  0  0  0  0  0  0  0
  144.4565  134.2951  156.3595 H   0  0  0  0  0  0  0  0  0  0  0  0
  145.5430  136.5332  155.9041 H   0  0  0  0  0  0  0  0  0  0  0  0
  147.7322  141.9330  157.1742 H   0  0  0  0  0  0  0  0  0  0  0  0
  149.0581  140.9397  157.7348 H   0  0  0  0  0  0  0  0  0  0  0  0
  148.4854  142.6674  159.4159 H   0  0  0  0  0  0  0  0  0  0  0  0
  148.6805  143.9377  158.2324 H   0  0  0  0  0  0  0  0  0  0  0  0
  149.3168  143.2213  155.9121 H   0  0  0  0  0  0  0  0  0  0  0  0
  142.8070  133.5248  154.9311 H   0  0  0  0  0  0  0  0  0  0  0  0
  1  2  1  0  0  0  0
  1 22  1  0  0  0  0
  1 23  1  0  0  0  0
  1 24  1  0  0  0  0
  2 21  1  0  0  0  0
  2  3  1  0  0  0  0
  2 25  1  0  0  0  0
  3  4  1  0  0  0  0
  3 26  1  0  0  0  0
  3 27  1  0  0  0  0
  4  5  1  0  0  0  0
  4 28  1  0  0  0  0
  4 29  1  0  0  0  0
  5  6  1  0  0  0  0
  5 20  1  0  0  0  0
  5 46  1  0  0  0  0
  6  7  1  0  0  0  0
  6 30  1  0  0  0  0
  6 31  1  0  0  0  0
  7  8  1  0  0  0  0
  7  9  1  0  0  0  0
  7 32  1  0  0  0  0
  8 33  1  0  0  0  0
  9 10  1  0  0  0  0
  9 34  1  0  0  0  0
  9 35  1  0  0  0  0
 10 11  1  0  0  0  0
 10 36  1  0  0  0  0
 11 12  2  0  0  0  0
 11 13  1  0  0  0  0
 13 14  1  0  0  0  0
 13 37  1  0  0  0  0
 14 19  1  0  0  0  0
 14 15  2  0  0  0  0
 15 16  1  0  0  0  0
 15 38  1  0  0  0  0
 16 17  2  0  0  0  0
 16 39  1  0  0  0  0
 17 18  1  0  0  0  0
 17 47  1  0  0  0  0
 18 19  2  0  0  0  0
 18 40  1  0  0  0  0
 19 41  1  0  0  0  0
 20 21  1  0  0  0  0
 20 42  1  0  0  0  0
 20 43  1  0  0  0  0
 21 44  1  0  0  0  0
 21 45  1  0  0  0  0
M  CHG  1   5   1
M  CHG  1  17   1
M  END
> <s_m_source_file>
AV-unprocessed.smi

> <i_m_source_file_index>
1032

> <i_lp_mmshare_version>
43012

> <i_f3d_flags>
0

> <s_epik_input>
W0NIM11bQ0hdMVtDSDJdW0NIMl1OKFtDSDJdW0NIMl0xKVtDSDJdW0NASF0oW09IXSlbQ0gyXVtOSF1DKD1PKVtOSF1jMltjSF1bY0hdbltjSF1bY0hdMg==

> <s_epik_cmdline>
J2VwaWtfcHl0aG9uJywgJy1waCcsICc3LjAnLCAnLXRuJywgJzgnLCAnLW1hJywgJzIwMCcsICctbWV0YWxfYmluZGluZycsICctaW1hZScsICc8aW5maWxlLm1hZT4nLCAnLW9tYWUnLCAnPG91dGZpbGUubWFlPic=

> <r_epik_Ionization_Penalty>
1.02509

> <r_epik_Ionization_Penalty_Charging>
1.02507

> <r_epik_Ionization_Penalty_Neutral>
1.85474e-05

> <r_epik_State_Penalty>
1.07411

> <r_epik_Charging_Adjusted_Penalty>
2.09917

> <i_epik_Tot_Q>
2

> <i_epik_Tot_abs_Q>
2

> <r_epik_Metal_State_Penalty>
1.1725

> <b_epik_Metal_Only>
0

> <s_lp_Force_Field>
OPLS_2005

> <r_lp_Energy>
29.9623

> <b_lp_Chiralities_Consistent>
1

> <s_lp_Variant>
AV-unprocessed.smi:1032-6

> <Gold.Version>
5.8.1

> <Gold.Id.Protein>
6NUR|6NUR_protein|mol2

> <Gold.PLP.Fitness>
49.7838

> <Gold.PLP.PLP>
-30.3748

> <Gold.PLP.part.hbond>
-5.0000

> <Gold.PLP.part.metal>
0.0000

> <Gold.PLP.part.buried>
-5.5386

> <Gold.PLP.part.nonpolar>
-20.5095

> <Gold.PLP.part.repulsive>
0.1942

> <Gold.PLP.ligand.clash>
0.0000

> <Gold.PLP.ligand.torsion>
0.7930

> <Gold.PLP.Chemscore.Hbond>
6.9840

> <Gold.PLP.Chemscore.CHOScore>
0.0000

> <Gold.PLP.Chemscore.Metal>
0.0000

> <Gold.Chemscore.Hbonds>
donor molecule, donor type, donor heavy atom, donor atom, acceptor molecule, acceptor atom, score
      L1  H     5    46       P1  8028  2.00
      L1  H     8    33       P1  8028  1.00
      L1  H    10    36       P1 10175  1.00
      L1  H    13    37       P1 10175  1.00
      L1  H    17    47       P1 10957  2.00

> <Gold.PLP.Chemscore.Internal.Correction>
0.0428

> <Gold.Rescore>
     Score         DG    S(hbond)    S(metal)    S(lipo)     H(rot)  DE(clash)    DE(int)     intcor
     22.08     -24.42       4.67        0.00      79.69       2.34       0.87       1.46       ----

> <Gold.Chemscore.Fitness>
22.0846

> <Gold.Chemscore.DG>
-24.4230

> <Gold.Chemscore.ZeroCoef>
-5.4800

> <Gold.Chemscore.Hbond>
4.6731

> <Gold.Chemscore.Metal>
0.0000

> <Gold.Chemscore.Lipo>
79.6890

> <Gold.Chemscore.Internal_Hbond>
0.0000

> <Gold.Chemscore.DEClash>
0.8736

> <Gold.Chemscore.DEInternal>
1.4648

> <Gold.Chemscore.Rot>
2.3393

> <Gold.Chemscore.Internal.Correction>
   9.000000E+99

> <Gold.Chemscore.Hbonds>
donor molecule, donor type, donor heavy atom, donor atom, acceptor molecule, acceptor atom, score
      L1  H     5    46       P1  8028  0.97
      L1  H     8    33       P1  8028  0.65
      L1  H    10    36       P1 10175  0.95
      L1  H    13    37       P1 10175  0.98
      L1  H    17    47       P1 10957  0.98

> <Gold.Chemscore.Hbond.Weighted>
-15.6080

> <Gold.Chemscore.Metal.Weighted>
-0.0000

> <Gold.Chemscore.Lipo.Weighted>
-9.3236

> <Gold.Chemscore.Internal_Hbond.Weighted>
0.0000

> <Gold.Chemscore.DEClash.Weighted>
0.8736

> <Gold.Chemscore.DEInternal.Weighted>
1.4648

> <Gold.Chemscore.Rot.Weighted>
5.9886

> <Gold.Chemscore.Internal.Correction.Weighted>
   9.000000E+99

> <Gold.Protein.RotatedTorsions>
[ 6907 6896 6895 6894 ] final   66.54 input  -60.11 | X-H torsion
[ 7974 7965 7964 7962 ] final  131.75 input  175.53 | X-H torsion
[ 8008 7997 7996 7995 ] final   25.84 input   59.86 | X-H torsion
[ 10167 10162 10161 10158 ] final -101.57 input  -65.29 | X-H torsion
[ 10718 10713 10712 10709 ] final  106.48 input   66.30 | X-H torsion
[ 10763 10752 10751 10750 ] final   67.47 input  -60.55 | X-H torsion
[ 11005 11000 10999 10996 ] final -137.69 input  -57.11 | X-H torsion

> <Gold.Protein.ActiveResidues>
 VAL166  LYS551  ARG553  GLY616  TRP617  ASP618  TYR619  PRO620  LYS621  CYS622 
 ASP623  PHE694  ASN695  SER759  ASP760  ASP761  ALA762  ILE779  LEU786  VAL792 
 PHE793  MET794  SER795  GLU796  ALA797  LYS798  CYS799  TRP800  GLU811  SER814 

> <Gold.Protein.RotatedAtoms>
  152.4488  134.5438  159.9846 H   0  0  0  0  0  0  0  0  0  0  0  0  # atno 6907 bound_to 6896
  151.5516  133.3411  159.2962 H   0  0  0  0  0  0  0  0  0  0  0  0  # atno 6908 bound_to 6896
  150.8411  134.7735  159.6996 H   0  0  0  0  0  0  0  0  0  0  0  0  # atno 6909 bound_to 6896
  145.0040  139.4284  143.5278 H   0  0  0  0  0  0  0  0  0  0  0  0  # atno 7974 bound_to 7965
  155.0180  140.3144  155.4804 H   0  0  0  0  0  0  0  0  0  0  0  0  # atno 8008 bound_to 7997
  156.2897  140.2202  156.5239 H   0  0  0  0  0  0  0  0  0  0  0  0  # atno 8009 bound_to 7997
  154.7476  140.0468  157.0854 H   0  0  0  0  0  0  0  0  0  0  0  0  # atno 8010 bound_to 7997
  140.2398  143.3547  152.0811 H   0  0  0  0  0  0  0  0  0  0  0  0  # atno 10167 bound_to 10162
  157.6666  131.0852  150.6014 H   0  0  0  0  0  0  0  0  0  0  0  0  # atno 10718 bound_to 10713
  153.0188  135.5283  154.6984 H   0  0  0  0  0  0  0  0  0  0  0  0  # atno 10763 bound_to 10752
  154.6100  135.2877  155.0445 H   0  0  0  0  0  0  0  0  0  0  0  0  # atno 10764 bound_to 10752
  154.1470  135.6569  153.5007 H   0  0  0  0  0  0  0  0  0  0  0  0  # atno 10765 bound_to 10752
  140.8687  134.2078  157.4664 H   0  0  0  0  0  0  0  0  0  0  0  0  # atno 11005 bound_to 11000
  146.3457  139.9445  142.8736 LP  0  0  0  0  0  0  0  0  0  0  0  0  # atno 17320 bound_to 7965
  145.2114  140.9897  143.4098 LP  0  0  0  0  0  0  0  0  0  0  0  0  # atno 17321 bound_to 7965
  139.5081  144.6844  151.5926 LP  0  0  0  0  0  0  0  0  0  0  0  0  # atno 17342 bound_to 10162
  140.6122  143.9415  150.6461 LP  0  0  0  0  0  0  0  0  0  0  0  0  # atno 17343 bound_to 10162
  156.6314  130.4433  149.5785 LP  0  0  0  0  0  0  0  0  0  0  0  0  # atno 17370 bound_to 10713
  156.2279  130.6776  151.1434 LP  0  0  0  0  0  0  0  0  0  0  0  0  # atno 17371 bound_to 10713
  139.8711  134.9764  156.4919 LP  0  0  0  0  0  0  0  0  0  0  0  0  # atno 17394 bound_to 11000
  140.8599  133.8068  155.9254 LP  0  0  0  0  0  0  0  0  0  0  0  0  # atno 17395 bound_to 11000

$$$$
