AV-unprocessed.smi:2032|AV-procd|sdf|8254|dock8
  -GOLD-   2272010523D 1   1.00000     0.00000
 Structure written by MMmdl.
 42 43  0  0  0  0  0  0  0  0  3 V2000
  145.5853  132.0472  149.6752 C   0  0  0  0  0  0  0  0  0  0  0  0
  145.7260  132.7127  151.0486 C   0  0  1  0  0  0  0  0  0  0  0  0
  146.9198  133.6911  151.0973 C   0  0  0  0  0  0  0  0  0  0  0  0
  146.9997  134.3778  152.4160 N   0  3  2  0  0  0  0  0  0  0  0  0
  147.4965  133.5321  153.5559 C   0  0  1  0  0  0  0  0  0  0  0  0
  148.7576  132.7247  153.1626 C   0  0  0  0  0  0  0  0  0  0  0  0
  147.7869  134.3785  154.8275 C   0  0  0  0  0  0  0  0  0  0  0  0
  149.0275  135.1426  154.7315 N   0  0  0  0  0  0  0  0  0  0  0  0
  149.9553  135.2466  155.6939 C   0  0  0  0  0  0  0  0  0  0  0  0
  149.7815  134.6838  156.7777 O   0  0  0  0  0  0  0  0  0  0  0  0
  151.0280  135.9873  155.3376 N   0  5  0  0  0  0  0  0  0  0  0  0
  150.9197  137.3226  155.2442 C   0  0  0  0  0  0  0  0  0  0  0  0
  150.0542  137.9294  154.4242 N   0  0  0  0  0  0  0  0  0  0  0  0
  150.1151  139.3229  154.4860 C   0  0  0  0  0  0  0  0  0  0  0  0
  151.0548  139.7876  155.3675 C   0  0  0  0  0  0  0  0  0  0  0  0
  151.8971  138.4813  156.1506 S   0  0  0  0  0  0  0  0  0  0  0  0
  145.7008  135.0691  152.6443 C   0  0  0  0  0  0  0  0  0  0  0  0
  144.5196  134.0771  152.5836 C   0  0  1  0  0  0  0  0  0  0  0  0
  143.1694  134.7831  152.7500 C   0  0  0  0  0  0  0  0  0  0  0  0
  144.5252  133.4331  151.3125 O   0  0  0  0  0  0  0  0  0  0  0  0
  146.4737  131.4652  149.4286 H   0  0  0  0  0  0  0  0  0  0  0  0
  145.4416  132.7884  148.8884 H   0  0  0  0  0  0  0  0  0  0  0  0
  144.7302  131.3711  149.6556 H   0  0  0  0  0  0  0  0  0  0  0  0
  145.8464  131.9274  151.7962 H   0  0  0  0  0  0  0  0  0  0  0  0
  147.8505  133.1968  150.8270 H   0  0  0  0  0  0  0  0  0  0  0  0
  146.7822  134.4547  150.3301 H   0  0  0  0  0  0  0  0  0  0  0  0
  146.7219  132.8091  153.8074 H   0  0  0  0  0  0  0  0  0  0  0  0
  149.1795  132.1836  154.0092 H   0  0  0  0  0  0  0  0  0  0  0  0
  149.5390  133.3763  152.7708 H   0  0  0  0  0  0  0  0  0  0  0  0
  148.5432  131.9598  152.4175 H   0  0  0  0  0  0  0  0  0  0  0  0
  146.9696  135.0780  155.0048 H   0  0  0  0  0  0  0  0  0  0  0  0
  147.8718  133.7674  155.7240 H   0  0  0  0  0  0  0  0  0  0  0  0
  149.2056  135.6231  153.8615 H   0  0  0  0  0  0  0  0  0  0  0  0
  149.4522  139.9066  153.8648 H   0  0  0  0  0  0  0  0  0  0  0  0
  151.3034  140.8116  155.6020 H   0  0  0  0  0  0  0  0  0  0  0  0
  145.6856  135.6468  153.5648 H   0  0  0  0  0  0  0  0  0  0  0  0
  145.5756  135.8127  151.8556 H   0  0  0  0  0  0  0  0  0  0  0  0
  144.6091  133.3272  153.3705 H   0  0  0  0  0  0  0  0  0  0  0  0
  143.1075  135.2885  153.7141 H   0  0  0  0  0  0  0  0  0  0  0  0
  142.3470  134.0693  152.6969 H   0  0  0  0  0  0  0  0  0  0  0  0
  143.0140  135.5292  151.9700 H   0  0  0  0  0  0  0  0  0  0  0  0
  147.6911  135.1065  152.3113 H   0  0  0  0  0  0  0  0  0  0  0  0
  1  2  1  0  0  0  0
  1 21  1  0  0  0  0
  1 22  1  0  0  0  0
  1 23  1  0  0  0  0
  2 20  1  0  0  0  0
  2  3  1  0  0  0  0
  2 24  1  0  0  0  0
  3  4  1  0  0  0  0
  3 25  1  0  0  0  0
  3 26  1  0  0  0  0
  4  5  1  0  0  0  0
  4 17  1  0  0  0  0
  4 42  1  0  0  0  0
  5  6  1  0  0  0  0
  5  7  1  0  0  0  0
  5 27  1  0  0  0  0
  6 28  1  0  0  0  0
  6 29  1  0  0  0  0
  6 30  1  0  0  0  0
  7  8  1  0  0  0  0
  7 31  1  0  0  0  0
  7 32  1  0  0  0  0
  8  9  1  0  0  0  0
  8 33  1  0  0  0  0
  9 10  2  0  0  0  0
  9 11  1  0  0  0  0
 11 12  1  0  0  0  0
 12 16  1  0  0  0  0
 12 13  2  0  0  0  0
 13 14  1  0  0  0  0
 14 15  2  0  0  0  0
 14 34  1  0  0  0  0
 15 16  1  0  0  0  0
 15 35  1  0  0  0  0
 17 18  1  0  0  0  0
 17 36  1  0  0  0  0
 17 37  1  0  0  0  0
 18 19  1  0  0  0  0
 18 20  1  0  0  0  0
 18 38  1  0  0  0  0
 19 39  1  0  0  0  0
 19 40  1  0  0  0  0
 19 41  1  0  0  0  0
M  CHG  1   4   1
M  CHG  1  11  -1
M  END
> <s_m_source_file>
AV-unprocessed.smi

> <i_m_source_file_index>
2032

> <i_lp_mmshare_version>
43012

> <i_f3d_flags>
0

> <s_epik_input>
W0NIM11bQ0BASF0xW0NIMl1OKFtDSDJdW0NASF0oTzEpW0NIM10pW0NASF0oW0NIM10pW0NIMl1bTkhdQyg9TylbTkhdYzJuW2NIXVtjSF1zMg==

> <s_epik_cmdline>
J2VwaWtfcHl0aG9uJywgJy1waCcsICc3LjAnLCAnLXRuJywgJzgnLCAnLW1hJywgJzIwMCcsICctbWV0YWxfYmluZGluZycsICctaW1hZScsICc8aW5maWxlLm1hZT4nLCAnLW9tYWUnLCAnPG91dGZpbGUubWFlPic=

> <r_lp_tautomer_probability>
0.999

> <r_epik_Ionization_Penalty>
6.71699

> <r_epik_Ionization_Penalty_Charging>
5.88592

> <r_epik_Ionization_Penalty_Neutral>
0.831074

> <r_epik_State_Penalty>
6.08365

> <r_epik_Charging_Adjusted_Penalty>
11.9696

> <i_epik_Tot_Q>
0

> <i_epik_Tot_abs_Q>
2

> <r_epik_Metal_State_Penalty>
2.0947

> <b_epik_Metal_Only>
1

> <s_lp_Force_Field>
OPLS_2005

> <r_lp_Energy>
10.9106

> <b_lp_Chiralities_Consistent>
1

> <s_lp_Variant>
AV-unprocessed.smi:2032-24

> <Gold.Version>
5.8.1

> <Gold.Id.Protein>
6NUR|6NUR_protein|mol2

> <Gold.PLP.Fitness>
46.3468

> <Gold.PLP.PLP>
-31.3001

> <Gold.PLP.part.hbond>
-3.0000

> <Gold.PLP.part.metal>
0.0000

> <Gold.PLP.part.buried>
-4.1590

> <Gold.PLP.part.nonpolar>
-25.0496

> <Gold.PLP.part.repulsive>
0.5916

> <Gold.PLP.ligand.clash>
0.0000

> <Gold.PLP.ligand.torsion>
1.5028

> <Gold.PLP.Chemscore.Hbond>
5.0000

> <Gold.PLP.Chemscore.CHOScore>
0.9974

> <Gold.PLP.Chemscore.Metal>
0.0000

> <Gold.Chemscore.Hbonds>
donor molecule, donor type, donor heavy atom, donor atom, acceptor molecule, acceptor atom, score
      L1  H     4    42       P1  7948  2.00
      L1  H     8    33       P1  7948  0.88
      P1  H 10752 10765       L1    11  1.79
      L1  C    14    34       P1  7957  0.48

> <Gold.PLP.Chemscore.Internal.Correction>
0.0602

> <Gold.Rescore>
     Score         DG    S(hbond)    S(metal)    S(lipo)     H(rot)  DE(clash)    DE(int)     intcor
     17.51     -19.15       2.80        0.00      71.50       1.58       0.01       1.63       ----

> <Gold.Chemscore.Fitness>
17.5119

> <Gold.Chemscore.DG>
-19.1519

> <Gold.Chemscore.ZeroCoef>
-5.4800

> <Gold.Chemscore.Hbond>
2.7990

> <Gold.Chemscore.Metal>
0.0000

> <Gold.Chemscore.Lipo>
71.5033

> <Gold.Chemscore.Internal_Hbond>
0.0000

> <Gold.Chemscore.DEClash>
0.0073

> <Gold.Chemscore.DEInternal>
1.6327

> <Gold.Chemscore.Rot>
1.5791

> <Gold.Chemscore.Internal.Correction>
   9.000000E+99

> <Gold.Chemscore.Hbonds>
donor molecule, donor type, donor heavy atom, donor atom, acceptor molecule, acceptor atom, score
      L1  H     4    42       P1  7948  0.97
      L1  H     8    33       P1  7948  0.60
      P1  H 10752 10765       L1    11  0.43

> <Gold.Chemscore.Hbond.Weighted>
-9.3485

> <Gold.Chemscore.Metal.Weighted>
-0.0000

> <Gold.Chemscore.Lipo.Weighted>
-8.3659

> <Gold.Chemscore.Internal_Hbond.Weighted>
0.0000

> <Gold.Chemscore.DEClash.Weighted>
0.0073

> <Gold.Chemscore.DEInternal.Weighted>
1.6327

> <Gold.Chemscore.Rot.Weighted>
4.0425

> <Gold.Chemscore.Internal.Correction.Weighted>
   9.000000E+99

> <Gold.Protein.RotatedTorsions>
[ 6907 6896 6895 6894 ] final  172.92 input  -60.11 | X-H torsion
[ 7974 7965 7964 7962 ] final  -52.13 input  175.53 | X-H torsion
[ 8008 7997 7996 7995 ] final -119.28 input   59.86 | X-H torsion
[ 10167 10162 10161 10158 ] final  140.57 input  -65.29 | X-H torsion
[ 10718 10713 10712 10709 ] final   39.51 input   66.30 | X-H torsion
[ 10763 10752 10751 10750 ] final -177.08 input  -60.55 | X-H torsion
[ 11005 11000 10999 10996 ] final  125.49 input  -57.11 | X-H torsion

> <Gold.Protein.ActiveResidues>
 VAL166  LYS551  ARG553  GLY616  TRP617  ASP618  TYR619  PRO620  LYS621  CYS622 
 ASP623  PHE694  ASN695  SER759  ASP760  ASP761  ALA762  ILE779  LEU786  VAL792 
 PHE793  MET794  SER795  GLU796  ALA797  LYS798  CYS799  TRP800  GLU811  SER814 

> <Gold.Protein.RotatedAtoms>
  151.7765  133.3346  159.3459 H   0  0  0  0  0  0  0  0  0  0  0  0  # atno 6907 bound_to 6896
  150.7442  134.5970  159.6026 H   0  0  0  0  0  0  0  0  0  0  0  0  # atno 6908 bound_to 6896
  152.3305  134.7267  160.0342 H   0  0  0  0  0  0  0  0  0  0  0  0  # atno 6909 bound_to 6896
  145.9113  140.7912  142.9693 H   0  0  0  0  0  0  0  0  0  0  0  0  # atno 7974 bound_to 7965
  155.1131  140.0397  157.2729 H   0  0  0  0  0  0  0  0  0  0  0  0  # atno 8008 bound_to 7997
  154.6670  140.2603  155.7022 H   0  0  0  0  0  0  0  0  0  0  0  0  # atno 8009 bound_to 7997
  156.2643  140.2805  156.1164 H   0  0  0  0  0  0  0  0  0  0  0  0  # atno 8010 bound_to 7997
  139.5045  144.6226  151.6015 H   0  0  0  0  0  0  0  0  0  0  0  0  # atno 10167 bound_to 10162
  157.3715  130.7703  149.7122 H   0  0  0  0  0  0  0  0  0  0  0  0  # atno 10718 bound_to 10713
  154.5646  135.2823  155.0887 H   0  0  0  0  0  0  0  0  0  0  0  0  # atno 10763 bound_to 10752
  154.2283  135.6379  153.5170 H   0  0  0  0  0  0  0  0  0  0  0  0  # atno 10764 bound_to 10752
  153.0039  135.5531  154.6250 H   0  0  0  0  0  0  0  0  0  0  0  0  # atno 10765 bound_to 10752
  139.9409  134.9635  156.8566 H   0  0  0  0  0  0  0  0  0  0  0  0  # atno 11005 bound_to 11000
  144.6743  140.1830  143.7404 LP  0  0  0  0  0  0  0  0  0  0  0  0  # atno 17320 bound_to 7965
  145.8667  139.2251  143.1685 LP  0  0  0  0  0  0  0  0  0  0  0  0  # atno 17321 bound_to 7965
  140.5933  143.9741  150.6338 LP  0  0  0  0  0  0  0  0  0  0  0  0  # atno 17342 bound_to 10162
  140.2929  143.3312  152.1045 LP  0  0  0  0  0  0  0  0  0  0  0  0  # atno 17343 bound_to 10162
  155.9756  130.4086  150.3835 LP  0  0  0  0  0  0  0  0  0  0  0  0  # atno 17370 bound_to 10713
  157.1927  131.0419  151.2692 LP  0  0  0  0  0  0  0  0  0  0  0  0  # atno 17371 bound_to 10713
  140.5954  134.0222  155.7516 LP  0  0  0  0  0  0  0  0  0  0  0  0  # atno 17394 bound_to 11000
  141.1043  133.9719  157.3025 LP  0  0  0  0  0  0  0  0  0  0  0  0  # atno 17395 bound_to 11000

$$$$
