AV-unprocessed.smi:794|AV-procd|sdf|3761|dock4
  -GOLD-   22720 1193D 1   1.00000     0.00000
 Structure written by MMmdl.
 41 43  0  0  0  0  0  0  0  0  1 V2000
  147.6785  136.6247  163.4439 C   0  0  0  0  0  0  0  0  0  0  0  0
  147.6638  136.0251  162.0713 C   0  0  0  0  0  0  0  0  0  0  0  0
  148.3764  136.6443  161.0404 N   0  0  0  0  0  0  0  0  0  0  0  0
  148.2612  135.9901  159.8805 C   0  0  0  0  0  0  0  0  0  0  0  0
  148.8755  136.3962  158.6669 N   0  0  0  0  0  0  0  0  0  0  0  0
  150.1178  136.8773  158.4851 C   0  0  0  0  0  0  0  0  0  0  0  0
  150.9586  137.0326  159.3714 O   0  0  0  0  0  0  0  0  0  0  0  0
  150.3394  137.1757  157.1974 N   0  0  0  0  0  0  0  0  0  0  0  0
  151.5870  137.7279  156.6736 C   0  0  1  0  0  0  0  0  0  0  0  0
  151.6655  137.7121  155.1264 C   0  0  1  0  0  0  0  0  0  0  0  0
  150.4216  138.3681  154.4886 C   0  0  0  0  0  0  0  0  0  0  0  0
  150.6092  139.8562  154.8383 C   0  0  0  0  0  0  0  0  0  0  0  0
  151.9444  139.8600  155.6076 C   0  0  2  0  0  0  0  0  0  0  0  0
  152.7229  138.7774  154.8678 C   0  0  0  0  0  0  0  0  0  0  0  0
  151.7298  139.2354  157.0077 C   0  0  2  0  0  0  0  0  0  0  0  0
  152.8789  139.5171  157.9954 C   0  0  0  0  0  0  0  0  0  0  0  0
  154.0072  138.7296  157.6774 O   0  0  0  0  0  0  0  0  0  0  0  0
  147.2600  134.5520  159.9802 S   0  0  0  0  0  0  0  0  0  0  0  0
  147.0006  134.8866  161.6744 C   0  0  0  0  0  0  0  0  0  0  0  0
  146.1488  133.9911  162.5114 C   0  0  0  0  0  0  0  0  0  0  0  0
  147.8743  135.8673  164.2029 H   0  0  0  0  0  0  0  0  0  0  0  0
  146.7199  137.0884  163.6776 H   0  0  0  0  0  0  0  0  0  0  0  0
  148.4483  137.3911  163.5411 H   0  0  0  0  0  0  0  0  0  0  0  0
  148.2967  136.3241  157.8433 H   0  0  0  0  0  0  0  0  0  0  0  0
  149.5976  137.0125  156.5326 H   0  0  0  0  0  0  0  0  0  0  0  0
  152.4330  137.1725  157.0844 H   0  0  0  0  0  0  0  0  0  0  0  0
  151.8986  136.7304  154.7128 H   0  0  0  0  0  0  0  0  0  0  0  0
  150.4319  138.2313  153.4066 H   0  0  0  0  0  0  0  0  0  0  0  0
  149.4782  137.9649  154.8571 H   0  0  0  0  0  0  0  0  0  0  0  0
  150.6831  140.4559  153.9302 H   0  0  0  0  0  0  0  0  0  0  0  0
  149.7852  140.2528  155.4326 H   0  0  0  0  0  0  0  0  0  0  0  0
  152.4246  140.8388  155.6258 H   0  0  0  0  0  0  0  0  0  0  0  0
  153.6895  138.5458  155.3174 H   0  0  0  0  0  0  0  0  0  0  0  0
  152.8690  138.9961  153.8084 H   0  0  0  0  0  0  0  0  0  0  0  0
  150.8077  139.6235  157.4449 H   0  0  0  0  0  0  0  0  0  0  0  0
  153.1698  140.5667  157.9425 H   0  0  0  0  0  0  0  0  0  0  0  0
  152.5800  139.3183  159.0246 H   0  0  0  0  0  0  0  0  0  0  0  0
  153.7906  137.8212  157.8228 H   0  0  0  0  0  0  0  0  0  0  0  0
  145.4025  134.5672  163.0588 H   0  0  0  0  0  0  0  0  0  0  0  0
  146.7558  133.4494  163.2369 H   0  0  0  0  0  0  0  0  0  0  0  0
  145.6221  133.2592  161.8988 H   0  0  0  0  0  0  0  0  0  0  0  0
  1  2  1  0  0  0  0
  1 21  1  0  0  0  0
  1 22  1  0  0  0  0
  1 23  1  0  0  0  0
  2 19  2  0  0  0  0
  2  3  1  0  0  0  0
  3  4  2  0  0  0  0
  4  5  1  0  0  0  0
  4 18  1  0  0  0  0
  5  6  1  0  0  0  0
  5 24  1  0  0  0  0
  6  7  2  0  0  0  0
  6  8  1  0  0  0  0
  8  9  1  0  0  0  0
  8 25  1  0  0  0  0
  9 15  1  0  0  0  0
  9 10  1  0  0  0  0
  9 26  1  0  0  0  0
 10 14  1  0  0  0  0
 10 11  1  0  0  0  0
 10 27  1  0  0  0  0
 11 12  1  0  0  0  0
 11 28  1  0  0  0  0
 11 29  1  0  0  0  0
 12 13  1  0  0  0  0
 12 30  1  0  0  0  0
 12 31  1  0  0  0  0
 13 14  1  0  0  0  0
 13 15  1  0  0  0  0
 13 32  1  0  0  0  0
 14 33  1  0  0  0  0
 14 34  1  0  0  0  0
 15 16  1  0  0  0  0
 15 35  1  0  0  0  0
 16 17  1  0  0  0  0
 16 36  1  0  0  0  0
 16 37  1  0  0  0  0
 17 38  1  0  0  0  0
 18 19  1  0  0  0  0
 19 20  1  0  0  0  0
 20 39  1  0  0  0  0
 20 40  1  0  0  0  0
 20 41  1  0  0  0  0
M  END
> <s_m_source_file>
AV-unprocessed.smi

> <i_m_source_file_index>
794

> <i_lp_mmshare_version>
43012

> <i_f3d_flags>
0

> <s_epik_input>
W0NIM11jMW5jKHNjMVtDSDNdKVtOSF1DKD1PKVtOSF1bQ0BIXShbQ0BASF0yMylbQ0BIXShbQ0gyXVtPSF0pW0NAQEhdKFtDSDJdMylbQ0gyXVtDSDJdMg==

> <s_epik_cmdline>
J2VwaWtfcHl0aG9uJywgJy1waCcsICc3LjAnLCAnLXRuJywgJzgnLCAnLW1hJywgJzIwMCcsICctbWV0YWxfYmluZGluZycsICctaW1hZScsICc8aW5maWxlLm1hZT4nLCAnLW9tYWUnLCAnPG91dGZpbGUubWFlPic=

> <r_lp_tautomer_probability>
0.999

> <r_epik_Ionization_Penalty>
0.000713029

> <r_epik_Ionization_Penalty_Charging>
0

> <r_epik_Ionization_Penalty_Neutral>
0.000713029

> <r_epik_State_Penalty>
0.000177984

> <r_epik_Charging_Adjusted_Penalty>
0.000177984

> <i_epik_Tot_Q>
0

> <i_epik_Tot_abs_Q>
0

> <r_epik_Metal_State_Penalty>
-0

> <b_epik_Metal_Only>
0

> <s_lp_Force_Field>
OPLS_2005

> <r_lp_Energy>
47.7468

> <b_lp_Chiralities_Consistent>
1

> <s_lp_Variant>
AV-unprocessed.smi:794-6

> <Gold.Version>
5.8.1

> <Gold.Id.Protein>
6NUR|6NUR_protein|mol2

> <Gold.PLP.Fitness>
44.8744

> <Gold.PLP.PLP>
-37.2559

> <Gold.PLP.part.hbond>
-2.7128

> <Gold.PLP.part.metal>
0.0000

> <Gold.PLP.part.buried>
-1.5848

> <Gold.PLP.part.nonpolar>
-32.8080

> <Gold.PLP.part.repulsive>
0.1640

> <Gold.PLP.ligand.clash>
0.0000

> <Gold.PLP.ligand.torsion>
0.6261

> <Gold.PLP.Chemscore.Hbond>
2.9513

> <Gold.PLP.Chemscore.CHOScore>
0.0000

> <Gold.PLP.Chemscore.Metal>
0.0000

> <Gold.Chemscore.Hbonds>
donor molecule, donor type, donor heavy atom, donor atom, acceptor molecule, acceptor atom, score
      P1  H  6896  6908       L1     7  1.00
      P1  H  6931  6943       L1     3  1.00
      P1  H  7997  8010       L1    17  0.64

> <Gold.PLP.Chemscore.Internal.Correction>
0.0169

> <Gold.Rescore>
     Score         DG    S(hbond)    S(metal)    S(lipo)     H(rot)  DE(clash)    DE(int)     intcor
     16.25     -18.87       2.27        0.00      88.47       1.78       0.61       2.01       ----

> <Gold.Chemscore.Fitness>
16.2473

> <Gold.Chemscore.DG>
-18.8705

> <Gold.Chemscore.ZeroCoef>
-5.4800

> <Gold.Chemscore.Hbond>
2.2742

> <Gold.Chemscore.Metal>
0.0000

> <Gold.Chemscore.Lipo>
88.4694

> <Gold.Chemscore.Internal_Hbond>
0.0000

> <Gold.Chemscore.DEClash>
0.6123

> <Gold.Chemscore.DEInternal>
2.0109

> <Gold.Chemscore.Rot>
1.7798

> <Gold.Chemscore.Internal.Correction>
   9.000000E+99

> <Gold.Chemscore.Hbonds>
donor molecule, donor type, donor heavy atom, donor atom, acceptor molecule, acceptor atom, score
      P1  H  6896  6908       L1     7  0.38
      P1  H  6931  6943       L1     3  0.39
      P1  H  7997  8010       L1    17  0.06

> <Gold.Chemscore.Hbond.Weighted>
-7.5958

> <Gold.Chemscore.Metal.Weighted>
-0.0000

> <Gold.Chemscore.Lipo.Weighted>
-10.3509

> <Gold.Chemscore.Internal_Hbond.Weighted>
0.0000

> <Gold.Chemscore.DEClash.Weighted>
0.6123

> <Gold.Chemscore.DEInternal.Weighted>
2.0109

> <Gold.Chemscore.Rot.Weighted>
4.5562

> <Gold.Chemscore.Internal.Correction.Weighted>
   9.000000E+99

> <Gold.Protein.RotatedTorsions>
[ 6907 6896 6895 6894 ] final -132.16 input  -60.11 | X-H torsion
[ 7974 7965 7964 7962 ] final  159.50 input  175.53 | X-H torsion
[ 8008 7997 7996 7995 ] final   13.13 input   59.86 | X-H torsion
[ 10167 10162 10161 10158 ] final  115.48 input  -65.29 | X-H torsion
[ 10718 10713 10712 10709 ] final  117.23 input   66.30 | X-H torsion
[ 10763 10752 10751 10750 ] final -160.76 input  -60.55 | X-H torsion
[ 11005 11000 10999 10996 ] final  -90.00 input  -57.11 | X-H torsion

> <Gold.Protein.ActiveResidues>
 VAL166  LYS551  ARG553  GLY616  TRP617  ASP618  TYR619  PRO620  LYS621  CYS622 
 ASP623  PHE694  ASN695  SER759  ASP760  ASP761  ALA762  ILE779  LEU786  VAL792 
 PHE793  MET794  SER795  GLU796  ALA797  LYS798  CYS799  TRP800  GLU811  SER814 

> <Gold.Protein.RotatedAtoms>
  150.9592  133.6464  159.2757 H   0  0  0  0  0  0  0  0  0  0  0  0  # atno 6907 bound_to 6896
  151.3792  135.0935  159.9500 H   0  0  0  0  0  0  0  0  0  0  0  0  # atno 6908 bound_to 6896
  152.5141  133.9130  159.7552 H   0  0  0  0  0  0  0  0  0  0  0  0  # atno 6909 bound_to 6896
  144.7787  139.7626  143.6268 H   0  0  0  0  0  0  0  0  0  0  0  0  # atno 7974 bound_to 7965
  154.8302  140.2898  155.5727 H   0  0  0  0  0  0  0  0  0  0  0  0  # atno 8008 bound_to 7997
  156.3005  140.2533  156.3156 H   0  0  0  0  0  0  0  0  0  0  0  0  # atno 8009 bound_to 7997
  154.9240  140.0385  157.2002 H   0  0  0  0  0  0  0  0  0  0  0  0  # atno 8010 bound_to 7997
  139.6314  144.7115  151.2424 H   0  0  0  0  0  0  0  0  0  0  0  0  # atno 10167 bound_to 10162
  157.6110  131.1035  150.7585 H   0  0  0  0  0  0  0  0  0  0  0  0  # atno 10718 bound_to 10713
  154.7362  135.3058  154.8807 H   0  0  0  0  0  0  0  0  0  0  0  0  # atno 10763 bound_to 10752
  153.9635  135.6750  153.4749 H   0  0  0  0  0  0  0  0  0  0  0  0  # atno 10764 bound_to 10752
  153.0965  135.4933  154.8711 H   0  0  0  0  0  0  0  0  0  0  0  0  # atno 10765 bound_to 10752
  141.1574  133.7665  156.9676 H   0  0  0  0  0  0  0  0  0  0  0  0  # atno 11005 bound_to 11000
  146.1982  139.5261  142.9761 LP  0  0  0  0  0  0  0  0  0  0  0  0  # atno 17320 bound_to 7965
  145.6113  141.0339  143.1965 LP  0  0  0  0  0  0  0  0  0  0  0  0  # atno 17321 bound_to 7965
  140.7441  143.6473  150.8280 LP  0  0  0  0  0  0  0  0  0  0  0  0  # atno 17342 bound_to 10162
  140.0099  143.5654  152.2843 LP  0  0  0  0  0  0  0  0  0  0  0  0  # atno 17343 bound_to 10162
  156.7962  130.4906  149.5377 LP  0  0  0  0  0  0  0  0  0  0  0  0  # atno 17370 bound_to 10713
  156.1213  130.6112  151.0197 LP  0  0  0  0  0  0  0  0  0  0  0  0  # atno 17371 bound_to 10713
  140.1151  134.9452  157.2122 LP  0  0  0  0  0  0  0  0  0  0  0  0  # atno 17394 bound_to 11000
  140.3144  134.2987  155.7260 LP  0  0  0  0  0  0  0  0  0  0  0  0  # atno 17395 bound_to 11000

$$$$
