AV-unprocessed.smi:751|AV-procd|sdf|3594|dock9
  -GOLD-   22720 0583D 1   1.00000     0.00000
 Structure written by MMmdl.
 32 33  0  0  0  0  0  0  0  0  1 V2000
  154.1166  138.5392  157.3735 N   0  0  0  0  0  0  0  0  0  0  0  0
  153.4682  139.3384  157.9022 C   0  0  0  0  0  0  0  0  0  0  0  0
  152.6515  140.3448  158.5682 C   0  0  0  0  0  0  0  0  0  0  0  0
  153.1633  140.9720  159.7228 C   0  0  0  0  0  0  0  0  0  0  0  0
  152.3883  141.9432  160.3771 C   0  0  0  0  0  0  0  0  0  0  0  0
  151.1215  142.2483  159.8440 C   0  0  0  0  0  0  0  0  0  0  0  0
  150.2127  143.2880  160.4845 C   0  0  0  0  0  0  0  0  0  0  0  0
  149.0567  143.4043  159.8298 F   0  0  0  0  0  0  0  0  0  0  0  0
  149.9509  142.9390  161.7445 F   0  0  0  0  0  0  0  0  0  0  0  0
  150.8187  144.4755  160.4847 F   0  0  0  0  0  0  0  0  0  0  0  0
  150.6360  141.6439  158.7378 N   0  0  0  0  0  0  0  0  0  0  0  0
  151.3634  140.7012  158.0824 C   0  0  0  0  0  0  0  0  0  0  0  0
  150.8019  140.0905  156.9209 N   0  0  0  0  0  0  0  0  0  0  0  0
  149.5150  139.4364  157.1350 C   0  0  0  0  0  0  0  0  0  0  0  0
  149.1209  139.9693  155.7596 C   0  0  0  0  0  0  0  0  0  0  0  0
  147.8152  140.5206  155.7558 O   0  0  0  0  0  0  0  0  0  0  0  0
  147.5775  141.3655  154.6406 C   0  0  0  0  0  0  0  0  0  0  0  0
  146.1044  141.2697  154.2460 C   0  0  0  0  0  0  0  0  0  0  0  0
  145.8280  140.7883  153.0309 N   0  0  0  0  0  0  0  0  0  0  0  0
  145.2249  141.6113  155.0336 O   0  0  0  0  0  0  0  0  0  0  0  0
  150.2325  141.0047  155.9346 C   0  0  0  0  0  0  0  0  0  0  0  0
  154.1401  140.7145  160.1070 H   0  0  0  0  0  0  0  0  0  0  0  0
  152.7637  142.4345  161.2625 H   0  0  0  0  0  0  0  0  0  0  0  0
  149.5803  138.3498  157.1920 H   0  0  0  0  0  0  0  0  0  0  0  0
  148.9224  139.8594  157.9477 H   0  0  0  0  0  0  0  0  0  0  0  0
  149.3083  139.2503  154.9588 H   0  0  0  0  0  0  0  0  0  0  0  0
  147.8115  142.4035  154.8819 H   0  0  0  0  0  0  0  0  0  0  0  0
  148.2068  141.0664  153.8008 H   0  0  0  0  0  0  0  0  0  0  0  0
  144.8668  140.7021  152.7326 H   0  0  0  0  0  0  0  0  0  0  0  0
  146.5797  140.5067  152.4187 H   0  0  0  0  0  0  0  0  0  0  0  0
  149.8750  141.9536  156.3371 H   0  0  0  0  0  0  0  0  0  0  0  0
  150.8576  141.1401  155.0518 H   0  0  0  0  0  0  0  0  0  0  0  0
  1  2  3  0  0  0  0
  2  3  1  0  0  0  0
  3 12  1  0  0  0  0
  3  4  2  0  0  0  0
  4  5  1  0  0  0  0
  4 22  1  0  0  0  0
  5  6  2  0  0  0  0
  5 23  1  0  0  0  0
  6  7  1  0  0  0  0
  6 11  1  0  0  0  0
  7  8  1  0  0  0  0
  7  9  1  0  0  0  0
  7 10  1  0  0  0  0
 11 12  2  0  0  0  0
 12 13  1  0  0  0  0
 13 21  1  0  0  0  0
 13 14  1  0  0  0  0
 14 15  1  0  0  0  0
 14 24  1  0  0  0  0
 14 25  1  0  0  0  0
 15 16  1  0  0  0  0
 15 21  1  0  0  0  0
 15 26  1  0  0  0  0
 16 17  1  0  0  0  0
 17 18  1  0  0  0  0
 17 27  1  0  0  0  0
 17 28  1  0  0  0  0
 18 19  1  0  0  0  0
 18 20  2  0  0  0  0
 19 29  1  0  0  0  0
 19 30  1  0  0  0  0
 21 31  1  0  0  0  0
 21 32  1  0  0  0  0
M  END
> <s_m_source_file>
AV-unprocessed.smi

> <i_m_source_file_index>
751

> <i_lp_mmshare_version>
43012

> <i_f3d_flags>
0

> <s_epik_input>
TiNDYzFbY0hdW2NIXWMoQyhGKShGKUYpbmMxTjJbQ0gyXVtDSF0oW0NIMl0yKU9bQ0gyXUMoPU8pW05IMl0=

> <s_epik_cmdline>
J2VwaWtfcHl0aG9uJywgJy1waCcsICc3LjAnLCAnLXRuJywgJzgnLCAnLW1hJywgJzIwMCcsICctbWV0YWxfYmluZGluZycsICctaW1hZScsICc8aW5maWxlLm1hZT4nLCAnLW9tYWUnLCAnPG91dGZpbGUubWFlPic=

> <r_lp_tautomer_probability>
1

> <r_epik_Ionization_Penalty>
6.47511e-08

> <r_epik_Ionization_Penalty_Charging>
0

> <r_epik_Ionization_Penalty_Neutral>
6.47511e-08

> <r_epik_State_Penalty>
-0

> <r_epik_Charging_Adjusted_Penalty>
0

> <i_epik_Tot_Q>
0

> <i_epik_Tot_abs_Q>
0

> <r_epik_Metal_State_Penalty>
-0

> <b_epik_Metal_Only>
0

> <s_lp_Force_Field>
OPLS_2005

> <r_lp_Energy>
25.0077

> <b_lp_Chiralities_Consistent>
1

> <s_lp_Variant>
AV-unprocessed.smi:751-1

> <Gold.Version>
5.8.1

> <Gold.Id.Protein>
6NUR|6NUR_protein|mol2

> <Gold.PLP.Fitness>
-14.4429

> <Gold.PLP.PLP>
14.6128

> <Gold.PLP.part.hbond>
-0.7131

> <Gold.PLP.part.metal>
0.0000

> <Gold.PLP.part.buried>
28.7324

> <Gold.PLP.part.nonpolar>
-21.0825

> <Gold.PLP.part.repulsive>
0.2073

> <Gold.PLP.ligand.clash>
0.0000

> <Gold.PLP.ligand.torsion>
0.4339

> <Gold.PLP.Chemscore.Hbond>
0.2275

> <Gold.PLP.Chemscore.CHOScore>
0.0000

> <Gold.PLP.Chemscore.Metal>
0.0000

> <Gold.Chemscore.Hbonds>
donor molecule, donor type, donor heavy atom, donor atom, acceptor molecule, acceptor atom, score
      L1  H    19    29       P1 10175  0.23

> <Gold.PLP.Chemscore.Internal.Correction>
0.3552

> <Gold.Rescore>
     Score         DG    S(hbond)    S(metal)    S(lipo)     H(rot)  DE(clash)    DE(int)     intcor
      9.72     -10.22       0.99        0.00      68.92       2.59       0.02       0.49       ----

> <Gold.Chemscore.Fitness>
9.7165

> <Gold.Chemscore.DG>
-10.2204

> <Gold.Chemscore.ZeroCoef>
-5.4800

> <Gold.Chemscore.Hbond>
0.9891

> <Gold.Chemscore.Metal>
0.0000

> <Gold.Chemscore.Lipo>
68.9237

> <Gold.Chemscore.Internal_Hbond>
0.0000

> <Gold.Chemscore.DEClash>
0.0159

> <Gold.Chemscore.DEInternal>
0.4879

> <Gold.Chemscore.Rot>
2.5888

> <Gold.Chemscore.Internal.Correction>
   9.000000E+99

> <Gold.Chemscore.Hbonds>
donor molecule, donor type, donor heavy atom, donor atom, acceptor molecule, acceptor atom, score
      L1  H    19    29       P1 10175  0.10

> <Gold.Chemscore.Hbond.Weighted>
-3.3035

> <Gold.Chemscore.Metal.Weighted>
-0.0000

> <Gold.Chemscore.Lipo.Weighted>
-8.0641

> <Gold.Chemscore.Internal_Hbond.Weighted>
0.0000

> <Gold.Chemscore.DEClash.Weighted>
0.0159

> <Gold.Chemscore.DEInternal.Weighted>
0.4879

> <Gold.Chemscore.Rot.Weighted>
6.6272

> <Gold.Chemscore.Internal.Correction.Weighted>
   9.000000E+99

> <Gold.Protein.RotatedTorsions>
[ 6907 6896 6895 6894 ] final  142.39 input  -60.11 | X-H torsion
[ 7974 7965 7964 7962 ] final -146.50 input  175.53 | X-H torsion
[ 8008 7997 7996 7995 ] final -151.08 input   59.86 | X-H torsion
[ 10167 10162 10161 10158 ] final  104.87 input  -65.29 | X-H torsion
[ 10718 10713 10712 10709 ] final   14.26 input   66.30 | X-H torsion
[ 10763 10752 10751 10750 ] final   96.95 input  -60.55 | X-H torsion
[ 11005 11000 10999 10996 ] final  141.17 input  -57.11 | X-H torsion

> <Gold.Protein.ActiveResidues>
 VAL166  LYS551  ARG553  GLY616  TRP617  ASP618  TYR619  PRO620  LYS621  CYS622 
 ASP623  PHE694  ASN695  SER759  ASP760  ASP761  ALA762  ILE779  LEU786  VAL792 
 PHE793  MET794  SER795  GLU796  ALA797  LYS798  CYS799  TRP800  GLU811  SER814 

> <Gold.Protein.RotatedAtoms>
  152.2193  133.4971  159.5153 H   0  0  0  0  0  0  0  0  0  0  0  0  # atno 6907 bound_to 6896
  150.7009  134.1363  159.4097 H   0  0  0  0  0  0  0  0  0  0  0  0  # atno 6908 bound_to 6896
  151.9284  135.0267  160.0578 H   0  0  0  0  0  0  0  0  0  0  0  0  # atno 6909 bound_to 6896
  144.8155  140.5447  143.5614 H   0  0  0  0  0  0  0  0  0  0  0  0  # atno 7974 bound_to 7965
  155.6337  140.0694  157.2641 H   0  0  0  0  0  0  0  0  0  0  0  0  # atno 8008 bound_to 7997
  154.4200  140.1763  156.1548 H   0  0  0  0  0  0  0  0  0  0  0  0  # atno 8009 bound_to 7997
  155.9912  140.3345  155.6758 H   0  0  0  0  0  0  0  0  0  0  0  0  # atno 8010 bound_to 7997
  139.7141  144.7072  151.0979 H   0  0  0  0  0  0  0  0  0  0  0  0  # atno 10167 bound_to 10162
  157.0366  130.6214  149.5744 H   0  0  0  0  0  0  0  0  0  0  0  0  # atno 10718 bound_to 10713
  153.2710  135.4200  155.0987 H   0  0  0  0  0  0  0  0  0  0  0  0  # atno 10763 bound_to 10752
  154.8456  135.3472  154.6244 H   0  0  0  0  0  0  0  0  0  0  0  0  # atno 10764 bound_to 10752
  153.6664  135.7046  153.5218 H   0  0  0  0  0  0  0  0  0  0  0  0  # atno 10765 bound_to 10752
  140.0382  134.9318  157.0792 H   0  0  0  0  0  0  0  0  0  0  0  0  # atno 11005 bound_to 11000
  145.5225  139.1476  143.3544 LP  0  0  0  0  0  0  0  0  0  0  0  0  # atno 17320 bound_to 7965
  146.2458  140.5365  142.8914 LP  0  0  0  0  0  0  0  0  0  0  0  0  # atno 17321 bound_to 7965
  140.7740  143.5253  150.9487 LP  0  0  0  0  0  0  0  0  0  0  0  0  # atno 17342 bound_to 10162
  139.8939  143.6919  152.3141 LP  0  0  0  0  0  0  0  0  0  0  0  0  # atno 17343 bound_to 10162
  156.0052  130.5137  150.7803 LP  0  0  0  0  0  0  0  0  0  0  0  0  # atno 17370 bound_to 10713
  157.5137  131.0927  151.0167 LP  0  0  0  0  0  0  0  0  0  0  0  0  # atno 17371 bound_to 10713
  140.4113  134.1978  155.7163 LP  0  0  0  0  0  0  0  0  0  0  0  0  # atno 17394 bound_to 11000
  141.1868  133.8293  157.1053 LP  0  0  0  0  0  0  0  0  0  0  0  0  # atno 17395 bound_to 11000

$$$$
