AV-unprocessed.smi:1239|AV-procd|sdf|5185|dock3
  -GOLD-   22720 4263D 1   1.00000     0.00000
 Structure written by MMmdl.
 48 49  0  0  0  0  0  0  0  0  2 V2000
  138.5949  138.2152  153.7381 C   0  0  0  0  0  0  0  0  0  0  0  0
  139.2931  139.5893  153.8570 C   0  0  2  0  0  0  0  0  0  0  0  0
  140.5599  139.4085  154.7309 C   0  0  0  0  0  0  0  0  0  0  0  0
  141.7170  139.0138  153.9306 N   0  0  0  0  0  0  0  0  0  0  0  0
  142.1634  137.7598  153.7765 C   0  0  0  0  0  0  0  0  0  0  0  0
  141.6296  136.7799  154.2953 O   0  0  0  0  0  0  0  0  0  0  0  0
  143.2628  137.7279  153.0031 N   0  0  0  0  0  0  0  0  0  0  0  0
  144.0444  136.6067  152.6080 C   0  0  0  0  0  0  0  0  0  0  0  0
  143.3814  135.3729  152.4395 C   0  0  0  0  0  0  0  0  0  0  0  0
  144.1105  134.2286  152.0554 C   0  0  0  0  0  0  0  0  0  0  0  0
  145.5083  134.3210  151.8461 C   0  0  0  0  0  0  0  0  0  0  0  0
  146.3074  133.2234  151.4594 N   0  0  0  0  0  0  0  0  0  0  0  0
  147.6601  133.0893  151.9885 C   0  0  0  0  0  0  0  0  0  0  0  0
  145.7860  132.2435  150.5153 C   0  0  0  0  0  0  0  0  0  0  0  0
  146.1028  135.5248  152.0304 N   0  3  0  0  0  0  0  0  0  0  0  0
  145.4437  136.6450  152.3977 C   0  0  0  0  0  0  0  0  0  0  0  0
  138.3924  140.6719  154.3109 N   0  0  0  0  0  0  0  0  0  0  0  0
  139.0390  141.9876  154.2894 C   0  0  0  0  0  0  0  0  0  0  0  0
  138.0965  143.1180  154.7377 C   0  0  0  0  0  0  0  0  0  0  0  0
  136.9363  143.1280  153.9165 O   0  0  0  0  0  0  0  0  0  0  0  0
  136.2370  141.8912  153.9599 C   0  0  0  0  0  0  0  0  0  0  0  0
  137.1683  140.7531  153.5082 C   0  0  0  0  0  0  0  0  0  0  0  0
  139.3116  137.4261  153.5091 H   0  0  0  0  0  0  0  0  0  0  0  0
  137.8583  138.1965  152.9355 H   0  0  0  0  0  0  0  0  0  0  0  0
  138.0904  137.9410  154.6651 H   0  0  0  0  0  0  0  0  0  0  0  0
  139.6455  139.8455  152.8566 H   0  0  0  0  0  0  0  0  0  0  0  0
  140.7583  140.3398  155.2642 H   0  0  0  0  0  0  0  0  0  0  0  0
  140.4038  138.6683  155.5150 H   0  0  0  0  0  0  0  0  0  0  0  0
  142.2199  139.7601  153.4727 H   0  0  0  0  0  0  0  0  0  0  0  0
  143.6072  138.6250  152.6935 H   0  0  0  0  0  0  0  0  0  0  0  0
  142.3154  135.2998  152.5992 H   0  0  0  0  0  0  0  0  0  0  0  0
  143.5817  133.2961  151.9269 H   0  0  0  0  0  0  0  0  0  0  0  0
  147.6389  132.9919  153.0745 H   0  0  0  0  0  0  0  0  0  0  0  0
  148.2615  133.9614  151.7297 H   0  0  0  0  0  0  0  0  0  0  0  0
  148.1595  132.2083  151.5850 H   0  0  0  0  0  0  0  0  0  0  0  0
  145.5598  132.7156  149.5586 H   0  0  0  0  0  0  0  0  0  0  0  0
  144.8761  131.7842  150.9026 H   0  0  0  0  0  0  0  0  0  0  0  0
  146.5072  131.4470  150.3318 H   0  0  0  0  0  0  0  0  0  0  0  0
  146.0708  137.5156  152.5133 H   0  0  0  0  0  0  0  0  0  0  0  0
  139.9017  142.0013  154.9533 H   0  0  0  0  0  0  0  0  0  0  0  0
  139.4088  142.2018  153.2855 H   0  0  0  0  0  0  0  0  0  0  0  0
  137.8114  142.9915  155.7834 H   0  0  0  0  0  0  0  0  0  0  0  0
  138.5971  144.0830  154.6569 H   0  0  0  0  0  0  0  0  0  0  0  0
  135.8653  141.7093  154.9697 H   0  0  0  0  0  0  0  0  0  0  0  0
  135.3676  141.9513  153.3051 H   0  0  0  0  0  0  0  0  0  0  0  0
  137.4244  140.8922  152.4567 H   0  0  0  0  0  0  0  0  0  0  0  0
  136.6046  139.8238  153.5753 H   0  0  0  0  0  0  0  0  0  0  0  0
  147.1104  135.5902  151.8853 H   0  0  0  0  0  0  0  0  0  0  0  0
  1  2  1  0  0  0  0
  1 23  1  0  0  0  0
  1 24  1  0  0  0  0
  1 25  1  0  0  0  0
  2  3  1  0  0  0  0
  2 17  1  0  0  0  0
  2 26  1  0  0  0  0
  3  4  1  0  0  0  0
  3 27  1  0  0  0  0
  3 28  1  0  0  0  0
  4  5  1  0  0  0  0
  4 29  1  0  0  0  0
  5  6  2  0  0  0  0
  5  7  1  0  0  0  0
  7  8  1  0  0  0  0
  7 30  1  0  0  0  0
  8 16  1  0  0  0  0
  8  9  2  0  0  0  0
  9 10  1  0  0  0  0
  9 31  1  0  0  0  0
 10 11  2  0  0  0  0
 10 32  1  0  0  0  0
 11 12  1  0  0  0  0
 11 15  1  0  0  0  0
 12 13  1  0  0  0  0
 12 14  1  0  0  0  0
 13 33  1  0  0  0  0
 13 34  1  0  0  0  0
 13 35  1  0  0  0  0
 14 36  1  0  0  0  0
 14 37  1  0  0  0  0
 14 38  1  0  0  0  0
 15 16  2  0  0  0  0
 15 48  1  0  0  0  0
 16 39  1  0  0  0  0
 17 22  1  0  0  0  0
 17 18  1  0  0  0  0
 18 19  1  0  0  0  0
 18 40  1  0  0  0  0
 18 41  1  0  0  0  0
 19 20  1  0  0  0  0
 19 42  1  0  0  0  0
 19 43  1  0  0  0  0
 20 21  1  0  0  0  0
 21 22  1  0  0  0  0
 21 44  1  0  0  0  0
 21 45  1  0  0  0  0
 22 46  1  0  0  0  0
 22 47  1  0  0  0  0
M  CHG  1  15   1
M  END
> <s_m_source_file>
AV-unprocessed.smi

> <i_m_source_file_index>
1239

> <i_lp_mmshare_version>
43012

> <i_f3d_flags>
0

> <s_epik_input>
W0NIMl0xW0NIMl1PW0NIMl1bQ0gyXU4xW0NASF0oW0NIM10pW0NIMl1bTkhdQyg9TylbTkhdYzJbY0hdW2NIXWMoTihbQ0gzXSlbQ0gzXSluW2NIXTI=

> <s_epik_cmdline>
J2VwaWtfcHl0aG9uJywgJy1waCcsICc3LjAnLCAnLXRuJywgJzgnLCAnLW1hJywgJzIwMCcsICctbWV0YWxfYmluZGluZycsICctaW1hZScsICc8aW5maWxlLm1hZT4nLCAnLW9tYWUnLCAnPG91dGZpbGUubWFlPic=

> <r_lp_tautomer_probability>
0.999994

> <r_epik_Ionization_Penalty>
0.528791

> <r_epik_Ionization_Penalty_Charging>
0.26278

> <r_epik_Ionization_Penalty_Neutral>
0.26601

> <r_epik_State_Penalty>
0.520375

> <r_epik_Charging_Adjusted_Penalty>
0.783156

> <i_epik_Tot_Q>
1

> <i_epik_Tot_abs_Q>
1

> <r_epik_Metal_State_Penalty>
0.806531

> <b_epik_Metal_Only>
0

> <s_lp_Force_Field>
OPLS_2005

> <r_lp_Energy>
44.5879

> <b_lp_Chiralities_Consistent>
1

> <s_lp_Variant>
AV-unprocessed.smi:1239-1

> <Gold.Version>
5.8.1

> <Gold.Id.Protein>
6NUR|6NUR_protein|mol2

> <Gold.PLP.Fitness>
44.4183

> <Gold.PLP.PLP>
-35.0089

> <Gold.PLP.part.hbond>
-3.1816

> <Gold.PLP.part.metal>
0.0000

> <Gold.PLP.part.buried>
-5.4102

> <Gold.PLP.part.nonpolar>
-27.6603

> <Gold.PLP.part.repulsive>
0.1652

> <Gold.PLP.ligand.clash>
0.0000

> <Gold.PLP.ligand.torsion>
1.3427

> <Gold.PLP.Chemscore.Hbond>
4.0000

> <Gold.PLP.Chemscore.CHOScore>
0.0000

> <Gold.PLP.Chemscore.Metal>
0.0000

> <Gold.Chemscore.Hbonds>
donor molecule, donor type, donor heavy atom, donor atom, acceptor molecule, acceptor atom, score
      L1  H     4    29       P1 10175  1.00
      L1  H     7    30       P1 10175  1.00
      L1  H    15    48       P1  7948  2.00

> <Gold.PLP.Chemscore.Internal.Correction>
0.0948

> <Gold.Rescore>
     Score         DG    S(hbond)    S(metal)    S(lipo)     H(rot)  DE(clash)    DE(int)     intcor
     18.16     -20.62       2.88        0.00      79.14       1.46       0.01       2.45       ----

> <Gold.Chemscore.Fitness>
18.1618

> <Gold.Chemscore.DG>
-20.6233

> <Gold.Chemscore.ZeroCoef>
-5.4800

> <Gold.Chemscore.Hbond>
2.8809

> <Gold.Chemscore.Metal>
0.0000

> <Gold.Chemscore.Lipo>
79.1429

> <Gold.Chemscore.Internal_Hbond>
0.0000

> <Gold.Chemscore.DEClash>
0.0125

> <Gold.Chemscore.DEInternal>
2.4490

> <Gold.Chemscore.Rot>
1.4604

> <Gold.Chemscore.Internal.Correction>
   9.000000E+99

> <Gold.Chemscore.Hbonds>
donor molecule, donor type, donor heavy atom, donor atom, acceptor molecule, acceptor atom, score
      L1  H     4    29       P1 10175  0.91
      L1  H     7    30       P1 10175  0.99
      L1  H    15    48       P1  7948  1.00

> <Gold.Chemscore.Hbond.Weighted>
-9.6221

> <Gold.Chemscore.Metal.Weighted>
-0.0000

> <Gold.Chemscore.Lipo.Weighted>
-9.2597

> <Gold.Chemscore.Internal_Hbond.Weighted>
0.0000

> <Gold.Chemscore.DEClash.Weighted>
0.0125

> <Gold.Chemscore.DEInternal.Weighted>
2.4490

> <Gold.Chemscore.Rot.Weighted>
3.7385

> <Gold.Chemscore.Internal.Correction.Weighted>
   9.000000E+99

> <Gold.Protein.RotatedTorsions>
[ 6907 6896 6895 6894 ] final   41.46 input  -60.11 | X-H torsion
[ 7974 7965 7964 7962 ] final -158.08 input  175.53 | X-H torsion
[ 8008 7997 7996 7995 ] final  -29.52 input   59.86 | X-H torsion
[ 10167 10162 10161 10158 ] final   81.54 input  -65.29 | X-H torsion
[ 10718 10713 10712 10709 ] final  -29.99 input   66.30 | X-H torsion
[ 10763 10752 10751 10750 ] final   46.66 input  -60.55 | X-H torsion
[ 11005 11000 10999 10996 ] final  -97.97 input  -57.11 | X-H torsion

> <Gold.Protein.ActiveResidues>
 VAL166  LYS551  ARG553  GLY616  TRP617  ASP618  TYR619  PRO620  LYS621  CYS622 
 ASP623  PHE694  ASN695  SER759  ASP760  ASP761  ALA762  ILE779  LEU786  VAL792 
 PHE793  MET794  SER795  GLU796  ALA797  LYS798  CYS799  TRP800  GLU811  SER814 

> <Gold.Protein.RotatedAtoms>
  152.1955  134.8634  160.0513 H   0  0  0  0  0  0  0  0  0  0  0  0  # atno 6907 bound_to 6896
  151.9507  133.3660  159.4007 H   0  0  0  0  0  0  0  0  0  0  0  0  # atno 6908 bound_to 6896
  150.6944  134.4267  159.5274 H   0  0  0  0  0  0  0  0  0  0  0  0  # atno 6909 bound_to 6896
  144.7521  140.3878  143.6040 H   0  0  0  0  0  0  0  0  0  0  0  0  # atno 7974 bound_to 7965
  154.4286  140.1816  156.1261 H   0  0  0  0  0  0  0  0  0  0  0  0  # atno 8008 bound_to 7997
  156.0105  140.3351  155.6910 H   0  0  0  0  0  0  0  0  0  0  0  0  # atno 8009 bound_to 7997
  155.6118  140.0651  157.2694 H   0  0  0  0  0  0  0  0  0  0  0  0  # atno 8010 bound_to 7997
  139.9382  144.6107  150.8277 H   0  0  0  0  0  0  0  0  0  0  0  0  # atno 10167 bound_to 10162
  156.4055  130.4398  149.7290 H   0  0  0  0  0  0  0  0  0  0  0  0  # atno 10718 bound_to 10713
  152.9808  135.6001  154.3636 H   0  0  0  0  0  0  0  0  0  0  0  0  # atno 10763 bound_to 10752
  154.3316  135.2768  155.2471 H   0  0  0  0  0  0  0  0  0  0  0  0  # atno 10764 bound_to 10752
  154.4592  135.5970  153.6299 H   0  0  0  0  0  0  0  0  0  0  0  0  # atno 10765 bound_to 10752
  141.1361  133.8211  157.0778 H   0  0  0  0  0  0  0  0  0  0  0  0  # atno 11005 bound_to 11000
  145.6908  139.1639  143.2648 LP  0  0  0  0  0  0  0  0  0  0  0  0  # atno 17320 bound_to 7965
  146.1484  140.6960  142.9334 LP  0  0  0  0  0  0  0  0  0  0  0  0  # atno 17321 bound_to 7965
  140.7618  143.3184  151.2680 LP  0  0  0  0  0  0  0  0  0  0  0  0  # atno 17342 bound_to 10162
  139.6726  143.9993  152.2762 LP  0  0  0  0  0  0  0  0  0  0  0  0  # atno 17343 bound_to 10162
  156.4290  130.7806  151.2825 LP  0  0  0  0  0  0  0  0  0  0  0  0  # atno 17370 bound_to 10713
  157.7505  131.0160  150.3526 LP  0  0  0  0  0  0  0  0  0  0  0  0  # atno 17371 bound_to 10713
  140.0471  134.9825  157.1068 LP  0  0  0  0  0  0  0  0  0  0  0  0  # atno 17394 bound_to 11000
  140.4047  134.2045  155.7163 LP  0  0  0  0  0  0  0  0  0  0  0  0  # atno 17395 bound_to 11000

$$$$
