AV-unprocessed.smi:175|AV-procd|sdf|1432|dock6
  -GOLD-   2262019213D 1   1.00000     0.00000
 Structure written by MMmdl.
 47 50  0  0  0  0  0  0  0  0  1 V2000
  152.9969  141.6468  159.8695 C   0  0  0  0  0  0  0  0  0  0  0  0
  151.9799  142.7676  159.6020 C   0  0  1  0  0  0  0  0  0  0  0  0
  152.6135  144.0074  159.9077 O   0  0  0  0  0  0  0  0  0  0  0  0
  152.0729  145.0177  159.0750 C   0  0  0  0  0  0  0  0  0  0  0  0
  151.9367  144.3019  157.7402 C   0  0  0  0  0  0  0  0  0  0  0  0
  151.4594  142.9090  158.1433 C   0  0  2  0  0  0  0  0  0  0  0  0
  150.0427  142.9355  158.1924 O   0  0  0  0  0  0  0  0  0  0  0  0
  151.8841  141.7966  157.1486 C   0  0  0  0  0  0  0  0  0  0  0  0
  151.0579  140.6017  157.2312 N   0  0  0  0  0  0  0  0  0  0  0  0
  150.8230  139.8352  158.3514 C   0  0  0  0  0  0  0  0  0  0  0  0
  150.0473  138.8015  158.1680 N   0  0  0  0  0  0  0  0  0  0  0  0
  149.7167  138.8669  156.8210 C   0  0  0  0  0  0  0  0  0  0  0  0
  148.9198  138.0672  155.9623 C   0  0  0  0  0  0  0  0  0  0  0  0
  148.2698  136.9705  156.4095 N   0  0  0  0  0  0  0  0  0  0  0  0
  149.1217  135.8068  156.6467 C   0  0  0  0  0  0  0  0  0  0  0  0
  148.6108  135.2839  157.9745 C   0  0  0  0  0  0  0  0  0  0  0  0
  149.0745  134.2901  158.5313 O   0  0  0  0  0  0  0  0  0  0  0  0
  147.6187  136.0560  158.4214 N   0  0  0  0  0  0  0  0  0  0  0  0
  146.8789  135.8974  159.6714 C   0  0  0  0  0  0  0  0  0  0  0  0
  147.8065  135.7903  160.8950 C   0  0  0  0  0  0  0  0  0  0  0  0
  148.8849  136.5446  160.6875 F   0  0  0  0  0  0  0  0  0  0  0  0
  147.1845  136.2310  161.9884 F   0  0  0  0  0  0  0  0  0  0  0  0
  148.2024  134.5332  161.0926 F   0  0  0  0  0  0  0  0  0  0  0  0
  147.3507  137.1718  157.5304 C   0  0  0  0  0  0  0  0  0  0  0  0
  148.8058  138.4439  154.6614 N   0  0  0  0  0  0  0  0  0  0  0  0
  149.4422  139.5364  154.2272 C   0  0  0  0  0  0  0  0  0  0  0  0
  150.2241  140.3749  154.9115 N   0  0  0  0  0  0  0  0  0  0  0  0
  150.3357  139.9964  156.2176 C   0  0  0  0  0  0  0  0  0  0  0  0
  152.5715  140.6644  159.6641 H   0  0  0  0  0  0  0  0  0  0  0  0
  153.3089  141.6535  160.9141 H   0  0  0  0  0  0  0  0  0  0  0  0
  153.8936  141.7660  159.2611 H   0  0  0  0  0  0  0  0  0  0  0  0
  151.1444  142.6451  160.2939 H   0  0  0  0  0  0  0  0  0  0  0  0
  151.1001  145.3318  159.4562 H   0  0  0  0  0  0  0  0  0  0  0  0
  152.7247  145.8898  159.0228 H   0  0  0  0  0  0  0  0  0  0  0  0
  151.2714  144.8138  157.0435 H   0  0  0  0  0  0  0  0  0  0  0  0
  152.9212  144.2411  157.2751 H   0  0  0  0  0  0  0  0  0  0  0  0
  149.7118  142.1912  157.7135 H   0  0  0  0  0  0  0  0  0  0  0  0
  151.8318  142.1609  156.1222 H   0  0  0  0  0  0  0  0  0  0  0  0
  152.9212  141.5066  157.3215 H   0  0  0  0  0  0  0  0  0  0  0  0
  151.2526  140.0648  159.3155 H   0  0  0  0  0  0  0  0  0  0  0  0
  148.9795  135.0636  155.8617 H   0  0  0  0  0  0  0  0  0  0  0  0
  150.1836  136.0499  156.7162 H   0  0  0  0  0  0  0  0  0  0  0  0
  146.1901  136.7344  159.7958 H   0  0  0  0  0  0  0  0  0  0  0  0
  146.2588  135.0024  159.6040 H   0  0  0  0  0  0  0  0  0  0  0  0
  147.4978  138.1189  158.0524 H   0  0  0  0  0  0  0  0  0  0  0  0
  146.3207  137.1342  157.1748 H   0  0  0  0  0  0  0  0  0  0  0  0
  149.3053  139.7727  153.1823 H   0  0  0  0  0  0  0  0  0  0  0  0
  1  2  1  0  0  0  0
  1 29  1  0  0  0  0
  1 30  1  0  0  0  0
  1 31  1  0  0  0  0
  2  6  1  0  0  0  0
  2  3  1  0  0  0  0
  2 32  1  0  0  0  0
  3  4  1  0  0  0  0
  4  5  1  0  0  0  0
  4 33  1  0  0  0  0
  4 34  1  0  0  0  0
  5  6  1  0  0  0  0
  5 35  1  0  0  0  0
  5 36  1  0  0  0  0
  6  7  1  0  0  0  0
  6  8  1  0  0  0  0
  7 37  1  0  0  0  0
  8  9  1  0  0  0  0
  8 38  1  0  0  0  0
  8 39  1  0  0  0  0
  9 28  1  0  0  0  0
  9 10  1  0  0  0  0
 10 11  2  0  0  0  0
 10 40  1  0  0  0  0
 11 12  1  0  0  0  0
 12 28  2  0  0  0  0
 12 13  1  0  0  0  0
 13 14  1  0  0  0  0
 13 25  2  0  0  0  0
 14 24  1  0  0  0  0
 14 15  1  0  0  0  0
 15 16  1  0  0  0  0
 15 41  1  0  0  0  0
 15 42  1  0  0  0  0
 16 17  2  0  0  0  0
 16 18  1  0  0  0  0
 18 19  1  0  0  0  0
 18 24  1  0  0  0  0
 19 20  1  0  0  0  0
 19 43  1  0  0  0  0
 19 44  1  0  0  0  0
 20 21  1  0  0  0  0
 20 22  1  0  0  0  0
 20 23  1  0  0  0  0
 24 45  1  0  0  0  0
 24 46  1  0  0  0  0
 25 26  1  0  0  0  0
 26 27  2  0  0  0  0
 26 47  1  0  0  0  0
 27 28  1  0  0  0  0
M  END
> <s_m_source_file>
AV-unprocessed.smi

> <i_m_source_file_index>
175

> <i_lp_mmshare_version>
43012

> <i_f3d_flags>
0

> <s_epik_input>
W0NIMl0xW0NIMl1PW0NAQEhdKFtDSDNdKVtDQEBdMShbT0hdKVtDSDJdbihbY0hdbjIpYyhjMjMpbltjSF1uYzNONFtDSDJdQyg9TylOKFtDSDJdNClbQ0gyXUMoRikoRilG

> <s_epik_cmdline>
J2VwaWtfcHl0aG9uJywgJy1waCcsICc3LjAnLCAnLXRuJywgJzgnLCAnLW1hJywgJzIwMCcsICctbWV0YWxfYmluZGluZycsICctaW1hZScsICc8aW5maWxlLm1hZT4nLCAnLW9tYWUnLCAnPG91dGZpbGUubWFlPic=

> <r_lp_tautomer_probability>
1

> <r_epik_Ionization_Penalty>
0.000307802

> <r_epik_Ionization_Penalty_Charging>
0

> <r_epik_Ionization_Penalty_Neutral>
0.000307802

> <r_epik_State_Penalty>
-0

> <r_epik_Charging_Adjusted_Penalty>
0

> <i_epik_Tot_Q>
0

> <i_epik_Tot_abs_Q>
0

> <r_epik_Metal_State_Penalty>
-0

> <b_epik_Metal_Only>
0

> <s_epik_Chemistry_Notes>
This compound contains an acetal/aminal-like group ( X-CH(R)-Y where X, Y are N, S, or O) that may be acid/base labile, releasing an aldehyde.

> <s_lp_Force_Field>
OPLS_2005

> <r_lp_Energy>
36.4888

> <b_lp_Chiralities_Consistent>
1

> <s_lp_Variant>
AV-unprocessed.smi:175-4

> <Gold.Version>
5.8.1

> <Gold.Id.Protein>
6NUR|6NUR_protein|mol2

> <Gold.PLP.Fitness>
43.8994

> <Gold.PLP.PLP>
-36.6666

> <Gold.PLP.part.hbond>
-2.6170

> <Gold.PLP.part.metal>
0.0000

> <Gold.PLP.part.buried>
-4.2177

> <Gold.PLP.part.nonpolar>
-30.7056

> <Gold.PLP.part.repulsive>
0.2670

> <Gold.PLP.ligand.clash>
0.0000

> <Gold.PLP.ligand.torsion>
1.0316

> <Gold.PLP.Chemscore.Hbond>
1.9913

> <Gold.PLP.Chemscore.CHOScore>
1.0000

> <Gold.PLP.Chemscore.Metal>
0.0000

> <Gold.Chemscore.Hbonds>
donor molecule, donor type, donor heavy atom, donor atom, acceptor molecule, acceptor atom, score
      P1  H  6896  6909       L1    17  1.00
      P1  H  7989  7998       L1    27  0.94
      L1  C    26    47       P1  7957  1.00

> <Gold.PLP.Chemscore.Internal.Correction>
0.3223

> <Gold.Rescore>
     Score         DG    S(hbond)    S(metal)    S(lipo)     H(rot)  DE(clash)    DE(int)     intcor
      7.57     -11.78       1.52        0.00      77.07       3.05       1.72       2.48       ----

> <Gold.Chemscore.Fitness>
7.5737

> <Gold.Chemscore.DG>
-11.7769

> <Gold.Chemscore.ZeroCoef>
-5.4800

> <Gold.Chemscore.Hbond>
1.5223

> <Gold.Chemscore.Metal>
0.0000

> <Gold.Chemscore.Lipo>
77.0667

> <Gold.Chemscore.Internal_Hbond>
0.0000

> <Gold.Chemscore.DEClash>
1.7211

> <Gold.Chemscore.DEInternal>
2.4821

> <Gold.Chemscore.Rot>
3.0487

> <Gold.Chemscore.Internal.Correction>
   9.000000E+99

> <Gold.Chemscore.Hbonds>
donor molecule, donor type, donor heavy atom, donor atom, acceptor molecule, acceptor atom, score
      P1  H  6896  6909       L1    17  0.99
      P1  H  7989  7998       L1    27  0.30

> <Gold.Chemscore.Hbond.Weighted>
-5.0846

> <Gold.Chemscore.Metal.Weighted>
-0.0000

> <Gold.Chemscore.Lipo.Weighted>
-9.0168

> <Gold.Chemscore.Internal_Hbond.Weighted>
0.0000

> <Gold.Chemscore.DEClash.Weighted>
1.7211

> <Gold.Chemscore.DEInternal.Weighted>
2.4821

> <Gold.Chemscore.Rot.Weighted>
7.8046

> <Gold.Chemscore.Internal.Correction.Weighted>
   9.000000E+99

> <Gold.Protein.RotatedTorsions>
[ 6907 6896 6895 6894 ] final   33.96 input  -60.11 | X-H torsion
[ 7974 7965 7964 7962 ] final   15.30 input  175.53 | X-H torsion
[ 8008 7997 7996 7995 ] final -147.39 input   59.86 | X-H torsion
[ 10167 10162 10161 10158 ] final   83.77 input  -65.29 | X-H torsion
[ 10718 10713 10712 10709 ] final  146.76 input   66.30 | X-H torsion
[ 10763 10752 10751 10750 ] final  -46.59 input  -60.55 | X-H torsion
[ 11005 11000 10999 10996 ] final  -92.41 input  -57.11 | X-H torsion

> <Gold.Protein.ActiveResidues>
 VAL166  LYS551  ARG553  GLY616  TRP617  ASP618  TYR619  PRO620  LYS621  CYS622 
 ASP623  PHE694  ASN695  SER759  ASP760  ASP761  ALA762  ILE779  LEU786  VAL792 
 PHE793  MET794  SER795  GLU796  ALA797  LYS798  CYS799  TRP800  GLU811  SER814 

> <Gold.Protein.RotatedAtoms>
  152.0957  134.9376  160.0570 H   0  0  0  0  0  0  0  0  0  0  0  0  # atno 6907 bound_to 6896
  152.0610  133.4057  159.4426 H   0  0  0  0  0  0  0  0  0  0  0  0  # atno 6908 bound_to 6896
  150.6838  134.3120  159.4794 H   0  0  0  0  0  0  0  0  0  0  0  0  # atno 6909 bound_to 6896
  146.2282  139.8914  142.8554 H   0  0  0  0  0  0  0  0  0  0  0  0  # atno 7974 bound_to 7965
  155.5747  140.0637  157.2798 H   0  0  0  0  0  0  0  0  0  0  0  0  # atno 8008 bound_to 7997
  154.4350  140.1862  156.0961 H   0  0  0  0  0  0  0  0  0  0  0  0  # atno 8009 bound_to 7997
  156.0350  140.3302  155.7184 H   0  0  0  0  0  0  0  0  0  0  0  0  # atno 8010 bound_to 7997
  139.9149  144.6248  150.8499 H   0  0  0  0  0  0  0  0  0  0  0  0  # atno 10167 bound_to 10162
  157.3293  131.0917  151.1176 H   0  0  0  0  0  0  0  0  0  0  0  0  # atno 10718 bound_to 10713
  154.0475  135.6635  153.4796 H   0  0  0  0  0  0  0  0  0  0  0  0  # atno 10763 bound_to 10752
  153.0477  135.5104  154.7783 H   0  0  0  0  0  0  0  0  0  0  0  0  # atno 10764 bound_to 10752
  154.6779  135.3040  154.9620 H   0  0  0  0  0  0  0  0  0  0  0  0  # atno 10765 bound_to 10752
  141.1522  133.7819  157.0016 H   0  0  0  0  0  0  0  0  0  0  0  0  # atno 11005 bound_to 11000
  145.2414  141.0010  143.3933 LP  0  0  0  0  0  0  0  0  0  0  0  0  # atno 17320 bound_to 7965
  144.9449  139.4148  143.6431 LP  0  0  0  0  0  0  0  0  0  0  0  0  # atno 17321 bound_to 7965
  140.7676  143.3338  151.2352 LP  0  0  0  0  0  0  0  0  0  0  0  0  # atno 17342 bound_to 10162
  139.6910  143.9692  152.2859 LP  0  0  0  0  0  0  0  0  0  0  0  0  # atno 17343 bound_to 10162
  157.2430  130.6578  149.5898 LP  0  0  0  0  0  0  0  0  0  0  0  0  # atno 17370 bound_to 10713
  155.9694  130.4562  150.5917 LP  0  0  0  0  0  0  0  0  0  0  0  0  # atno 17371 bound_to 10713
  140.0936  134.9577  157.1815 LP  0  0  0  0  0  0  0  0  0  0  0  0  # atno 17394 bound_to 11000
  140.3412  134.2702  155.7212 LP  0  0  0  0  0  0  0  0  0  0  0  0  # atno 17395 bound_to 11000

$$$$
