AV-unprocessed.smi:743|AV-procd|sdf|3560|dock7
  -GOLD-   22720 0563D 1   1.00000     0.00000
 Structure written by MMmdl.
 29 30  0  0  0  0  0  0  0  0  2 V2000
  145.3033  135.9873  151.4066 C   0  0  0  0  0  0  0  0  0  0  0  0
  145.9334  136.9538  152.2804 N   0  0  0  0  0  0  0  0  0  0  0  0
  146.2203  138.2784  152.0338 C   0  0  0  0  0  0  0  0  0  0  0  0
  146.8239  138.7878  153.1520 C   0  0  0  0  0  0  0  0  0  0  0  0
  147.3508  140.1844  153.4159 C   0  0  2  0  0  0  0  0  0  0  0  0
  148.8120  140.1773  153.5260 N   0  0  0  0  0  0  0  0  0  0  0  0
  149.5310  140.1545  154.6640 C   0  0  0  0  0  0  0  0  0  0  0  0
  150.7528  140.0311  154.6461 O   0  0  0  0  0  0  0  0  0  0  0  0
  148.8124  140.3387  156.0116 C   0  0  0  0  0  0  0  0  0  0  0  0
  147.2817  140.1873  155.9430 C   0  0  0  0  0  0  0  0  0  0  0  0
  146.7178  140.8337  154.6706 C   0  0  2  0  0  0  0  0  0  0  0  0
  145.2435  140.7976  154.6454 N   0  3  0  0  0  0  0  0  0  0  0  0
  146.8431  137.6746  154.0420 C   0  0  0  0  0  0  0  0  0  0  0  0
  146.3187  136.5806  153.5168 N   0  0  0  0  0  0  0  0  0  0  0  0
  146.9939  141.8893  154.6843 H   0  0  0  0  0  0  0  0  0  0  0  0
  145.0785  136.4447  150.4428 H   0  0  0  0  0  0  0  0  0  0  0  0
  144.3747  135.6336  151.8558 H   0  0  0  0  0  0  0  0  0  0  0  0
  145.9715  135.1401  151.2490 H   0  0  0  0  0  0  0  0  0  0  0  0
  145.9794  138.7439  151.0890 H   0  0  0  0  0  0  0  0  0  0  0  0
  147.1174  140.8200  152.5607 H   0  0  0  0  0  0  0  0  0  0  0  0
  149.3247  140.1009  152.6589 H   0  0  0  0  0  0  0  0  0  0  0  0
  149.2242  139.6429  156.7432 H   0  0  0  0  0  0  0  0  0  0  0  0
  149.0563  141.3399  156.3683 H   0  0  0  0  0  0  0  0  0  0  0  0
  147.0140  139.1304  155.9827 H   0  0  0  0  0  0  0  0  0  0  0  0
  146.8354  140.6464  156.8257 H   0  0  0  0  0  0  0  0  0  0  0  0
  144.9185  140.0102  155.1882 H   0  0  0  0  0  0  0  0  0  0  0  0
  144.9234  140.7040  153.6920 H   0  0  0  0  0  0  0  0  0  0  0  0
  147.2288  137.6291  155.0498 H   0  0  0  0  0  0  0  0  0  0  0  0
  144.8780  141.6524  155.0405 H   0  0  0  0  0  0  0  0  0  0  0  0
  1  2  1  0  0  0  0
  1 16  1  0  0  0  0
  1 17  1  0  0  0  0
  1 18  1  0  0  0  0
  2 14  1  0  0  0  0
  2  3  1  0  0  0  0
  3  4  2  0  0  0  0
  3 19  1  0  0  0  0
  4  5  1  0  0  0  0
  4 13  1  0  0  0  0
  5 11  1  0  0  0  0
  5  6  1  0  0  0  0
  5 20  1  0  0  0  0
  6  7  1  0  0  0  0
  6 21  1  0  0  0  0
  7  8  2  0  0  0  0
  7  9  1  0  0  0  0
  9 10  1  0  0  0  0
  9 22  1  0  0  0  0
  9 23  1  0  0  0  0
 10 11  1  0  0  0  0
 10 24  1  0  0  0  0
 10 25  1  0  0  0  0
 11 15  1  0  0  0  0
 11 12  1  0  0  0  0
 12 26  1  0  0  0  0
 12 27  1  0  0  0  0
 12 29  1  0  0  0  0
 13 14  2  0  0  0  0
 13 28  1  0  0  0  0
M  CHG  1  12   1
M  END
> <s_m_source_file>
AV-unprocessed.smi

> <i_m_source_file_index>
743

> <i_lp_mmshare_version>
43012

> <i_f3d_flags>
0

> <s_epik_input>
W0NIM11uMVtjSF1jKFtjSF1uMSlbQ0BASF0yW05IXUMoPU8pW0NIMl1bQ0gyXVtDQEBIXTJbTkgyXQ==

> <s_epik_cmdline>
J2VwaWtfcHl0aG9uJywgJy1waCcsICc3LjAnLCAnLXRuJywgJzgnLCAnLW1hJywgJzIwMCcsICctbWV0YWxfYmluZGluZycsICctaW1hZScsICc8aW5maWxlLm1hZT4nLCAnLW9tYWUnLCAnPG91dGZpbGUubWFlPic=

> <r_lp_tautomer_probability>
1

> <r_epik_Ionization_Penalty>
0.00878543

> <r_epik_Ionization_Penalty_Charging>
0.00874185

> <r_epik_Ionization_Penalty_Neutral>
4.35793e-05

> <r_epik_State_Penalty>
0.00660351

> <r_epik_Charging_Adjusted_Penalty>
0.0153454

> <i_epik_Tot_Q>
1

> <i_epik_Tot_abs_Q>
1

> <r_epik_Metal_State_Penalty>
0.00660727

> <b_epik_Metal_Only>
0

> <s_lp_Force_Field>
OPLS_2005

> <r_lp_Energy>
11.1602

> <b_lp_Chiralities_Consistent>
1

> <s_lp_Variant>
AV-unprocessed.smi:743-1

> <Gold.Version>
5.8.1

> <Gold.Id.Protein>
6NUR|6NUR_protein|mol2

> <Gold.PLP.Fitness>
34.8611

> <Gold.PLP.PLP>
-20.0275

> <Gold.PLP.part.hbond>
-2.9213

> <Gold.PLP.part.metal>
0.0000

> <Gold.PLP.part.buried>
-3.2299

> <Gold.PLP.part.nonpolar>
-15.8451

> <Gold.PLP.part.repulsive>
0.3350

> <Gold.PLP.ligand.clash>
0.0000

> <Gold.PLP.ligand.torsion>
0.0726

> <Gold.PLP.Chemscore.Hbond>
4.0000

> <Gold.PLP.Chemscore.CHOScore>
0.9866

> <Gold.PLP.Chemscore.Metal>
0.0000

> <Gold.Chemscore.Hbonds>
donor molecule, donor type, donor heavy atom, donor atom, acceptor molecule, acceptor atom, score
      L1  H     6    21       P1  7957  0.99
      L1  H    12    27       P1 10175  2.00
      P1  H  7989  7998       L1     8  1.00
      L1  C     3    19       P1 10171  0.98

> <Gold.PLP.Chemscore.Internal.Correction>
0.0189

> <Gold.Rescore>
     Score         DG    S(hbond)    S(metal)    S(lipo)     H(rot)  DE(clash)    DE(int)     intcor
     17.30     -17.35       2.96        0.00      38.84       1.00       0.01       0.05       ----

> <Gold.Chemscore.Fitness>
17.2954

> <Gold.Chemscore.DG>
-17.3520

> <Gold.Chemscore.ZeroCoef>
-5.4800

> <Gold.Chemscore.Hbond>
2.9605

> <Gold.Chemscore.Metal>
0.0000

> <Gold.Chemscore.Lipo>
38.8358

> <Gold.Chemscore.Internal_Hbond>
0.0000

> <Gold.Chemscore.DEClash>
0.0073

> <Gold.Chemscore.DEInternal>
0.0492

> <Gold.Chemscore.Rot>
1.0000

> <Gold.Chemscore.Internal.Correction>
   9.000000E+99

> <Gold.Chemscore.Hbonds>
donor molecule, donor type, donor heavy atom, donor atom, acceptor molecule, acceptor atom, score
      L1  H     6    21       P1  7957  0.92
      L1  H    12    27       P1 10175  0.94
      P1  H  7989  7998       L1     8  0.97

> <Gold.Chemscore.Hbond.Weighted>
-9.8882

> <Gold.Chemscore.Metal.Weighted>
-0.0000

> <Gold.Chemscore.Lipo.Weighted>
-4.5438

> <Gold.Chemscore.Internal_Hbond.Weighted>
0.0000

> <Gold.Chemscore.DEClash.Weighted>
0.0073

> <Gold.Chemscore.DEInternal.Weighted>
0.0492

> <Gold.Chemscore.Rot.Weighted>
2.5600

> <Gold.Chemscore.Internal.Correction.Weighted>
   9.000000E+99

> <Gold.Protein.RotatedTorsions>
[ 6907 6896 6895 6894 ] final   27.07 input  -60.11 | X-H torsion
[ 7974 7965 7964 7962 ] final    6.60 input  175.53 | X-H torsion
[ 8008 7997 7996 7995 ] final  118.35 input   59.86 | X-H torsion
[ 10167 10162 10161 10158 ] final   22.72 input  -65.29 | X-H torsion
[ 10718 10713 10712 10709 ] final   25.02 input   66.30 | X-H torsion
[ 10763 10752 10751 10750 ] final  -43.36 input  -60.55 | X-H torsion
[ 11005 11000 10999 10996 ] final  -88.39 input  -57.11 | X-H torsion

> <Gold.Protein.ActiveResidues>
 VAL166  LYS551  ARG553  GLY616  TRP617  ASP618  TYR619  PRO620  LYS621  CYS622 
 ASP623  PHE694  ASN695  SER759  ASP760  ASP761  ALA762  ILE779  LEU786  VAL792 
 PHE793  MET794  SER795  GLU796  ALA797  LYS798  CYS799  TRP800  GLU811  SER814 

> <Gold.Protein.RotatedAtoms>
  151.9969  134.9949  160.0563 H   0  0  0  0  0  0  0  0  0  0  0  0  # atno 6907 bound_to 6896
  152.1556  133.4544  159.4843 H   0  0  0  0  0  0  0  0  0  0  0  0  # atno 6908 bound_to 6896
  150.6881  134.2053  159.4381 H   0  0  0  0  0  0  0  0  0  0  0  0  # atno 6909 bound_to 6896
  146.2433  140.0209  142.8398 H   0  0  0  0  0  0  0  0  0  0  0  0  # atno 7974 bound_to 7965
  156.2541  140.2876  156.0820 H   0  0  0  0  0  0  0  0  0  0  0  0  # atno 8008 bound_to 7997
  155.1556  140.0398  157.2848 H   0  0  0  0  0  0  0  0  0  0  0  0  # atno 8009 bound_to 7997
  154.6429  140.2526  155.7307 H   0  0  0  0  0  0  0  0  0  0  0  0  # atno 8010 bound_to 7997
  140.5326  143.9816  150.6474 H   0  0  0  0  0  0  0  0  0  0  0  0  # atno 10167 bound_to 10162
  157.1877  130.6832  149.6138 H   0  0  0  0  0  0  0  0  0  0  0  0  # atno 10718 bound_to 10713
  153.9943  135.6701  153.4755 H   0  0  0  0  0  0  0  0  0  0  0  0  # atno 10763 bound_to 10752
  153.0691  135.4984  154.8261 H   0  0  0  0  0  0  0  0  0  0  0  0  # atno 10764 bound_to 10752
  154.7091  135.3093  154.9188 H   0  0  0  0  0  0  0  0  0  0  0  0  # atno 10765 bound_to 10752
  141.1602  133.7567  156.9445 H   0  0  0  0  0  0  0  0  0  0  0  0  # atno 11005 bound_to 11000
  145.1242  140.9480  143.4582 LP  0  0  0  0  0  0  0  0  0  0  0  0  # atno 17320 bound_to 7965
  145.0451  139.3227  143.5957 LP  0  0  0  0  0  0  0  0  0  0  0  0  # atno 17321 bound_to 7965
  140.3195  143.3146  152.0799 LP  0  0  0  0  0  0  0  0  0  0  0  0  # atno 17342 bound_to 10162
  139.4959  144.6583  151.6522 LP  0  0  0  0  0  0  0  0  0  0  0  0  # atno 17343 bound_to 10162
  155.9716  130.4625  150.6148 LP  0  0  0  0  0  0  0  0  0  0  0  0  # atno 17370 bound_to 10713
  157.3891  131.0793  151.1410 LP  0  0  0  0  0  0  0  0  0  0  0  0  # atno 17371 bound_to 10713
  140.1299  134.9362  157.2322 LP  0  0  0  0  0  0  0  0  0  0  0  0  # atno 17394 bound_to 11000
  140.2966  134.3179  155.7301 LP  0  0  0  0  0  0  0  0  0  0  0  0  # atno 17395 bound_to 11000

$$$$
