AV-unprocessed.smi:564|AV-procd|sdf|2950|dock3
  -GOLD-   2262023453D 1   1.00000     0.00000
 Structure written by MMmdl.
 50 51  0  0  0  0  0  0  0  0  2 V2000
  150.5295  138.8098  157.7990 C   0  0  0  0  0  0  0  0  0  0  0  0
  151.0955  140.1849  158.0128 C   0  0  0  0  0  0  0  0  0  0  0  0
  152.1597  140.3337  158.7832 N   0  0  0  0  0  0  0  0  0  0  0  0
  152.4122  141.6577  158.7711 N   0  0  0  0  0  0  0  0  0  0  0  0
  153.5323  142.1754  159.5327 C   0  0  0  0  0  0  0  0  0  0  0  0
  151.5114  142.3462  157.9829 C   0  0  0  0  0  0  0  0  0  0  0  0
  151.5805  143.8281  157.7998 C   0  0  0  0  0  0  0  0  0  0  0  0
  150.6422  141.4221  157.4671 C   0  0  0  0  0  0  0  0  0  0  0  0
  149.4830  141.6436  156.5277 C   0  0  0  0  0  0  0  0  0  0  0  0
  149.5968  140.6576  155.3668 C   0  0  0  0  0  0  0  0  0  0  0  0
  150.6515  140.5566  154.7412 O   0  0  0  0  0  0  0  0  0  0  0  0
  148.5161  139.9003  155.1238 N   0  0  0  0  0  0  0  0  0  0  0  0
  148.4672  138.7799  154.1903 C   0  0  0  0  0  0  0  0  0  0  0  0
  147.2055  137.9067  154.3791 C   0  0  0  0  0  0  0  0  0  0  0  0
  146.8858  137.0596  153.1916 N   0  3  1  0  0  0  0  0  0  0  0  0
  146.2459  135.7787  153.6064 C   0  0  0  0  0  0  0  0  0  0  0  0
  146.0167  134.8327  152.4207 C   0  0  0  0  0  0  0  0  0  0  0  0
  145.1616  135.5142  151.3538 C   0  0  0  0  0  0  0  0  0  0  0  0
  145.8366  136.8186  150.9261 C   0  0  0  0  0  0  0  0  0  0  0  0
  146.1063  137.7616  152.1203 C   0  0  2  0  0  0  0  0  0  0  0  0
  146.8182  139.0227  151.5872 C   0  0  0  0  0  0  0  0  0  0  0  0
  150.7171  138.4650  156.7824 H   0  0  0  0  0  0  0  0  0  0  0  0
  149.4515  138.8015  157.9601 H   0  0  0  0  0  0  0  0  0  0  0  0
  150.9695  138.0811  158.4812 H   0  0  0  0  0  0  0  0  0  0  0  0
  153.1774  142.9167  160.2490 H   0  0  0  0  0  0  0  0  0  0  0  0
  154.2484  142.6449  158.8582 H   0  0  0  0  0  0  0  0  0  0  0  0
  154.0340  141.3727  160.0750 H   0  0  0  0  0  0  0  0  0  0  0  0
  150.9444  144.1541  156.9769 H   0  0  0  0  0  0  0  0  0  0  0  0
  152.5984  144.1490  157.5770 H   0  0  0  0  0  0  0  0  0  0  0  0
  151.2528  144.3437  158.7025 H   0  0  0  0  0  0  0  0  0  0  0  0
  148.5245  141.5018  157.0281 H   0  0  0  0  0  0  0  0  0  0  0  0
  149.4733  142.6618  156.1371 H   0  0  0  0  0  0  0  0  0  0  0  0
  147.6875  140.0713  155.6756 H   0  0  0  0  0  0  0  0  0  0  0  0
  148.4961  139.1874  153.1799 H   0  0  0  0  0  0  0  0  0  0  0  0
  149.3667  138.1710  154.2922 H   0  0  0  0  0  0  0  0  0  0  0  0
  147.3004  137.2843  155.2699 H   0  0  0  0  0  0  0  0  0  0  0  0
  146.3933  138.5969  154.5897 H   0  0  0  0  0  0  0  0  0  0  0  0
  146.8693  135.2642  154.3367 H   0  0  0  0  0  0  0  0  0  0  0  0
  145.2957  135.9914  154.0989 H   0  0  0  0  0  0  0  0  0  0  0  0
  146.9736  134.5328  151.9932 H   0  0  0  0  0  0  0  0  0  0  0  0
  145.5291  133.9187  152.7608 H   0  0  0  0  0  0  0  0  0  0  0  0
  145.0341  134.8554  150.4941 H   0  0  0  0  0  0  0  0  0  0  0  0
  144.1648  135.7193  151.7461 H   0  0  0  0  0  0  0  0  0  0  0  0
  146.7753  136.5865  150.4236 H   0  0  0  0  0  0  0  0  0  0  0  0
  145.2115  137.3198  150.1862 H   0  0  0  0  0  0  0  0  0  0  0  0
  145.1459  138.0610  152.5433 H   0  0  0  0  0  0  0  0  0  0  0  0
  146.3304  139.3942  150.6856 H   0  0  0  0  0  0  0  0  0  0  0  0
  147.8578  138.8144  151.3342 H   0  0  0  0  0  0  0  0  0  0  0  0
  146.7984  139.8476  152.2983 H   0  0  0  0  0  0  0  0  0  0  0  0
  147.7721  136.8187  152.7707 H   0  0  0  0  0  0  0  0  0  0  0  0
  1  2  1  0  0  0  0
  1 22  1  0  0  0  0
  1 23  1  0  0  0  0
  1 24  1  0  0  0  0
  2  8  1  0  0  0  0
  2  3  2  0  0  0  0
  3  4  1  0  0  0  0
  4  5  1  0  0  0  0
  4  6  1  0  0  0  0
  5 25  1  0  0  0  0
  5 26  1  0  0  0  0
  5 27  1  0  0  0  0
  6  7  1  0  0  0  0
  6  8  2  0  0  0  0
  7 28  1  0  0  0  0
  7 29  1  0  0  0  0
  7 30  1  0  0  0  0
  8  9  1  0  0  0  0
  9 10  1  0  0  0  0
  9 31  1  0  0  0  0
  9 32  1  0  0  0  0
 10 11  2  0  0  0  0
 10 12  1  0  0  0  0
 12 13  1  0  0  0  0
 12 33  1  0  0  0  0
 13 14  1  0  0  0  0
 13 34  1  0  0  0  0
 13 35  1  0  0  0  0
 14 15  1  0  0  0  0
 14 36  1  0  0  0  0
 14 37  1  0  0  0  0
 15 20  1  0  0  0  0
 15 16  1  0  0  0  0
 15 50  1  0  0  0  0
 16 17  1  0  0  0  0
 16 38  1  0  0  0  0
 16 39  1  0  0  0  0
 17 18  1  0  0  0  0
 17 40  1  0  0  0  0
 17 41  1  0  0  0  0
 18 19  1  0  0  0  0
 18 42  1  0  0  0  0
 18 43  1  0  0  0  0
 19 20  1  0  0  0  0
 19 44  1  0  0  0  0
 19 45  1  0  0  0  0
 20 21  1  0  0  0  0
 20 46  1  0  0  0  0
 21 47  1  0  0  0  0
 21 48  1  0  0  0  0
 21 49  1  0  0  0  0
M  CHG  1  15   1
M  END
> <s_m_source_file>
AV-unprocessed.smi

> <i_m_source_file_index>
564

> <i_lp_mmshare_version>
43012

> <i_f3d_flags>
0

> <s_epik_input>
W0NIM11jMW5uKFtDSDNdKWMoW0NIM10pYzFbQ0gyXUMoPU8pW05IXVtDSDJdW0NIMl1OMltDSDJdW0NIMl1bQ0gyXVtDSDJdW0NASF0yW0NIM10=

> <s_epik_cmdline>
J2VwaWtfcHl0aG9uJywgJy1waCcsICc3LjAnLCAnLXRuJywgJzgnLCAnLW1hJywgJzIwMCcsICctbWV0YWxfYmluZGluZycsICctaW1hZScsICc8aW5maWxlLm1hZT4nLCAnLW9tYWUnLCAnPG91dGZpbGUubWFlPic=

> <r_lp_tautomer_probability>
1

> <r_epik_Ionization_Penalty>
0.00456826

> <r_epik_Ionization_Penalty_Charging>
0.00240401

> <r_epik_Ionization_Penalty_Neutral>
0.00216425

> <r_epik_State_Penalty>
-0

> <r_epik_Charging_Adjusted_Penalty>
0.00240401

> <i_epik_Tot_Q>
1

> <i_epik_Tot_abs_Q>
1

> <r_epik_Metal_State_Penalty>
-0

> <b_epik_Metal_Only>
0

> <s_lp_Force_Field>
OPLS_2005

> <r_lp_Energy>
16.3925

> <b_lp_Chiralities_Consistent>
1

> <s_lp_Variant>
AV-unprocessed.smi:564-4

> <Gold.Version>
5.8.1

> <Gold.Id.Protein>
6NUR|6NUR_protein|mol2

> <Gold.PLP.Fitness>
43.2866

> <Gold.PLP.PLP>
-35.5804

> <Gold.PLP.part.hbond>
-2.0000

> <Gold.PLP.part.metal>
0.0000

> <Gold.PLP.part.buried>
0.8369

> <Gold.PLP.part.nonpolar>
-34.5436

> <Gold.PLP.part.repulsive>
0.1403

> <Gold.PLP.ligand.clash>
0.0000

> <Gold.PLP.ligand.torsion>
0.6659

> <Gold.PLP.Chemscore.Hbond>
3.0000

> <Gold.PLP.Chemscore.CHOScore>
0.0000

> <Gold.PLP.Chemscore.Metal>
0.0000

> <Gold.Chemscore.Hbonds>
donor molecule, donor type, donor heavy atom, donor atom, acceptor molecule, acceptor atom, score
      L1  H    15    50       P1  7948  2.00
      P1  H  7989  7998       L1    11  1.00

> <Gold.PLP.Chemscore.Internal.Correction>
0.0381

> <Gold.Rescore>
     Score         DG    S(hbond)    S(metal)    S(lipo)     H(rot)  DE(clash)    DE(int)     intcor
     17.71     -18.56       1.98        0.00      90.48       1.61       0.19       0.67       ----

> <Gold.Chemscore.Fitness>
17.7060

> <Gold.Chemscore.DG>
-18.5596

> <Gold.Chemscore.ZeroCoef>
-5.4800

> <Gold.Chemscore.Hbond>
1.9839

> <Gold.Chemscore.Metal>
0.0000

> <Gold.Chemscore.Lipo>
90.4770

> <Gold.Chemscore.Internal_Hbond>
0.0000

> <Gold.Chemscore.DEClash>
0.1878

> <Gold.Chemscore.DEInternal>
0.6658

> <Gold.Chemscore.Rot>
1.6142

> <Gold.Chemscore.Internal.Correction>
   9.000000E+99

> <Gold.Chemscore.Hbonds>
donor molecule, donor type, donor heavy atom, donor atom, acceptor molecule, acceptor atom, score
      L1  H    15    50       P1  7948  0.99
      P1  H  7989  7998       L1    11  0.93

> <Gold.Chemscore.Hbond.Weighted>
-6.6262

> <Gold.Chemscore.Metal.Weighted>
-0.0000

> <Gold.Chemscore.Lipo.Weighted>
-10.5858

> <Gold.Chemscore.Internal_Hbond.Weighted>
0.0000

> <Gold.Chemscore.DEClash.Weighted>
0.1878

> <Gold.Chemscore.DEInternal.Weighted>
0.6658

> <Gold.Chemscore.Rot.Weighted>
4.1324

> <Gold.Chemscore.Internal.Correction.Weighted>
   9.000000E+99

> <Gold.Protein.RotatedTorsions>
[ 6907 6896 6895 6894 ] final   -1.38 input  -60.11 | X-H torsion
[ 7974 7965 7964 7962 ] final   22.55 input  175.53 | X-H torsion
[ 8008 7997 7996 7995 ] final  -67.84 input   59.86 | X-H torsion
[ 10167 10162 10161 10158 ] final  -36.84 input  -65.29 | X-H torsion
[ 10718 10713 10712 10709 ] final  102.58 input   66.30 | X-H torsion
[ 10763 10752 10751 10750 ] final    5.41 input  -60.55 | X-H torsion
[ 11005 11000 10999 10996 ] final -101.26 input  -57.11 | X-H torsion

> <Gold.Protein.ActiveResidues>
 VAL166  LYS551  ARG553  GLY616  TRP617  ASP618  TYR619  PRO620  LYS621  CYS622 
 ASP623  PHE694  ASN695  SER759  ASP760  ASP761  ALA762  ILE779  LEU786  VAL792 
 PHE793  MET794  SER795  GLU796  ALA797  LYS798  CYS799  TRP800  GLU811  SER814 

> <Gold.Protein.RotatedAtoms>
  151.5470  135.1068  159.9940 H   0  0  0  0  0  0  0  0  0  0  0  0  # atno 6907 bound_to 6896
  152.4509  133.7623  159.6764 H   0  0  0  0  0  0  0  0  0  0  0  0  # atno 6908 bound_to 6896
  150.8437  133.7828  159.3075 H   0  0  0  0  0  0  0  0  0  0  0  0  # atno 6909 bound_to 6896
  146.2024  139.7869  142.8752 H   0  0  0  0  0  0  0  0  0  0  0  0  # atno 7974 bound_to 7965
  154.4827  140.0884  156.7415 H   0  0  0  0  0  0  0  0  0  0  0  0  # atno 8008 bound_to 7997
  155.4429  140.3454  155.4273 H   0  0  0  0  0  0  0  0  0  0  0  0  # atno 8009 bound_to 7997
  156.1216  140.1475  156.9185 H   0  0  0  0  0  0  0  0  0  0  0  0  # atno 8010 bound_to 7997
  140.7133  143.3381  151.2417 H   0  0  0  0  0  0  0  0  0  0  0  0  # atno 10167 bound_to 10162
  157.6798  131.0757  150.5425 H   0  0  0  0  0  0  0  0  0  0  0  0  # atno 10718 bound_to 10713
  153.2597  135.6922  153.7591 H   0  0  0  0  0  0  0  0  0  0  0  0  # atno 10763 bound_to 10752
  153.6655  135.3353  155.3140 H   0  0  0  0  0  0  0  0  0  0  0  0  # atno 10764 bound_to 10752
  154.8425  135.4487  154.1583 H   0  0  0  0  0  0  0  0  0  0  0  0  # atno 10765 bound_to 10752
  141.1238  133.8464  157.1209 H   0  0  0  0  0  0  0  0  0  0  0  0  # atno 11005 bound_to 11000
  145.3439  141.0293  143.3377 LP  0  0  0  0  0  0  0  0  0  0  0  0  # atno 17320 bound_to 7965
  144.8713  139.5034  143.6766 LP  0  0  0  0  0  0  0  0  0  0  0  0  # atno 17321 bound_to 7965
  139.6882  143.9738  152.2845 LP  0  0  0  0  0  0  0  0  0  0  0  0  # atno 17342 bound_to 10162
  139.9390  144.6693  150.8285 LP  0  0  0  0  0  0  0  0  0  0  0  0  # atno 17343 bound_to 10162
  156.5732  130.4285  149.6010 LP  0  0  0  0  0  0  0  0  0  0  0  0  # atno 17370 bound_to 10713
  156.2723  130.7024  151.1825 LP  0  0  0  0  0  0  0  0  0  0  0  0  # atno 17371 bound_to 10713
  140.0217  134.9942  157.0606 LP  0  0  0  0  0  0  0  0  0  0  0  0  # atno 17394 bound_to 11000
  140.4428  134.1663  155.7175 LP  0  0  0  0  0  0  0  0  0  0  0  0  # atno 17395 bound_to 11000

$$$$
