AV-unprocessed.smi:1866|AV-procd|sdf|7557|dock10
  -GOLD-   22720 9273D 1   1.00000     0.00000
 Structure written by MMmdl.
 30 31  0  0  0  0  0  0  0  0  1 V2000
  150.6447  131.8998  157.0737 C   0  0  0  0  0  0  0  0  0  0  0  0
  150.2433  133.2712  156.6496 C   0  0  0  0  0  0  0  0  0  0  0  0
  149.9710  134.2504  157.5209 N   0  0  0  0  0  0  0  0  0  0  0  0
  149.6197  135.4348  156.8883 N   0  0  0  0  0  0  0  0  0  0  0  0
  149.6385  135.3133  155.5536 C   0  0  0  0  0  0  0  0  0  0  0  0
  149.3212  136.3701  154.6600 N   0  0  0  0  0  0  0  0  0  0  0  0
  148.9125  137.6168  154.9544 C   0  0  0  0  0  0  0  0  0  0  0  0
  148.7355  138.0594  156.0897 O   0  0  0  0  0  0  0  0  0  0  0  0
  148.7155  138.3367  153.8407 N   0  0  0  0  0  0  0  0  0  0  0  0
  148.2343  139.7161  153.7950 C   0  0  1  0  0  0  0  0  0  0  0  0
  146.7722  139.8077  154.2721 C   0  0  0  0  0  0  0  0  0  0  0  0
  146.3502  141.2724  154.4201 C   0  0  0  0  0  0  0  0  0  0  0  0
  147.2792  142.0023  155.4033 C   0  0  0  0  0  0  0  0  0  0  0  0
  148.6976  141.7299  155.1668 N   0  0  0  0  0  0  0  0  0  0  0  0
  149.2060  140.6722  154.5102 C   0  0  0  0  0  0  0  0  0  0  0  0
  150.4199  140.4850  154.4430 O   0  0  0  0  0  0  0  0  0  0  0  0
  150.0947  133.7268  154.9567 S   0  0  0  0  0  0  0  0  0  0  0  0
  150.5313  131.7809  158.1517 H   0  0  0  0  0  0  0  0  0  0  0  0
  151.6865  131.7186  156.8090 H   0  0  0  0  0  0  0  0  0  0  0  0
  150.0217  131.1577  156.5742 H   0  0  0  0  0  0  0  0  0  0  0  0
  149.4140  136.1496  153.6796 H   0  0  0  0  0  0  0  0  0  0  0  0
  148.8809  137.8902  152.9505 H   0  0  0  0  0  0  0  0  0  0  0  0
  148.2564  140.0431  152.7535 H   0  0  0  0  0  0  0  0  0  0  0  0
  146.1110  139.3006  153.5686 H   0  0  0  0  0  0  0  0  0  0  0  0
  146.6580  139.2984  155.2302 H   0  0  0  0  0  0  0  0  0  0  0  0
  146.3901  141.7613  153.4457 H   0  0  0  0  0  0  0  0  0  0  0  0
  145.3162  141.3394  154.7593 H   0  0  0  0  0  0  0  0  0  0  0  0
  147.1081  143.0777  155.3558 H   0  0  0  0  0  0  0  0  0  0  0  0
  147.0478  141.6934  156.4233 H   0  0  0  0  0  0  0  0  0  0  0  0
  149.3538  142.3670  155.5949 H   0  0  0  0  0  0  0  0  0  0  0  0
  1  2  1  0  0  0  0
  1 18  1  0  0  0  0
  1 19  1  0  0  0  0
  1 20  1  0  0  0  0
  2 17  1  0  0  0  0
  2  3  2  0  0  0  0
  3  4  1  0  0  0  0
  4  5  2  0  0  0  0
  5  6  1  0  0  0  0
  5 17  1  0  0  0  0
  6  7  1  0  0  0  0
  6 21  1  0  0  0  0
  7  8  2  0  0  0  0
  7  9  1  0  0  0  0
  9 10  1  0  0  0  0
  9 22  1  0  0  0  0
 10 15  1  0  0  0  0
 10 11  1  0  0  0  0
 10 23  1  0  0  0  0
 11 12  1  0  0  0  0
 11 24  1  0  0  0  0
 11 25  1  0  0  0  0
 12 13  1  0  0  0  0
 12 26  1  0  0  0  0
 12 27  1  0  0  0  0
 13 14  1  0  0  0  0
 13 28  1  0  0  0  0
 13 29  1  0  0  0  0
 14 15  1  0  0  0  0
 14 30  1  0  0  0  0
 15 16  2  0  0  0  0
M  END
> <s_m_source_file>
AV-unprocessed.smi

> <i_m_source_file_index>
1866

> <i_lp_mmshare_version>
43012

> <i_f3d_flags>
0

> <s_epik_input>
W0NIM11jMW5uYyhzMSlbTkhdQyg9TylbTkhdW0NAQEhdMltDSDJdW0NIMl1bQ0gyXVtOSF1DMj1P

> <s_epik_cmdline>
J2VwaWtfcHl0aG9uJywgJy1waCcsICc3LjAnLCAnLXRuJywgJzgnLCAnLW1hJywgJzIwMCcsICctbWV0YWxfYmluZGluZycsICctaW1hZScsICc8aW5maWxlLm1hZT4nLCAnLW9tYWUnLCAnPG91dGZpbGUubWFlPic=

> <r_lp_tautomer_probability>
1

> <r_epik_Ionization_Penalty>
0.00093002

> <r_epik_Ionization_Penalty_Charging>
0

> <r_epik_Ionization_Penalty_Neutral>
0.00093002

> <r_epik_State_Penalty>
-0

> <r_epik_Charging_Adjusted_Penalty>
0

> <i_epik_Tot_Q>
0

> <i_epik_Tot_abs_Q>
0

> <r_epik_Metal_State_Penalty>
0.280775

> <b_epik_Metal_Only>
0

> <s_lp_Force_Field>
OPLS_2005

> <r_lp_Energy>
8.18439

> <b_lp_Chiralities_Consistent>
1

> <s_lp_Variant>
AV-unprocessed.smi:1866-2

> <Gold.Version>
5.8.1

> <Gold.Id.Protein>
6NUR|6NUR_protein|mol2

> <Gold.PLP.Fitness>
32.5686

> <Gold.PLP.PLP>
-20.6024

> <Gold.PLP.part.hbond>
-5.1067

> <Gold.PLP.part.metal>
0.0000

> <Gold.PLP.part.buried>
-1.5476

> <Gold.PLP.part.nonpolar>
-15.1347

> <Gold.PLP.part.repulsive>
0.3107

> <Gold.PLP.ligand.clash>
0.0000

> <Gold.PLP.ligand.torsion>
0.0290

> <Gold.PLP.Chemscore.Hbond>
3.9940

> <Gold.PLP.Chemscore.CHOScore>
0.0000

> <Gold.PLP.Chemscore.Metal>
0.0000

> <Gold.Chemscore.Hbonds>
donor molecule, donor type, donor heavy atom, donor atom, acceptor molecule, acceptor atom, score
      L1  H     6    21       P1  7948  1.00
      L1  H     9    22       P1  7948  1.00
      L1  H    14    30       P1  8028  0.03
      P1  H  6896  6907       L1     3  0.93
      P1  H  7989  7998       L1    16  0.98

> <Gold.PLP.Chemscore.Internal.Correction>
0.0422

> <Gold.Rescore>
     Score         DG    S(hbond)    S(metal)    S(lipo)     H(rot)  DE(clash)    DE(int)     intcor
     17.69     -19.01       3.70        0.00      31.74       1.00       0.01       1.31       ----

> <Gold.Chemscore.Fitness>
17.6919

> <Gold.Chemscore.DG>
-19.0055

> <Gold.Chemscore.ZeroCoef>
-5.4800

> <Gold.Chemscore.Hbond>
3.7042

> <Gold.Chemscore.Metal>
0.0000

> <Gold.Chemscore.Lipo>
31.7390

> <Gold.Chemscore.Internal_Hbond>
0.0000

> <Gold.Chemscore.DEClash>
0.0060

> <Gold.Chemscore.DEInternal>
1.3076

> <Gold.Chemscore.Rot>
1.0000

> <Gold.Chemscore.Internal.Correction>
   9.000000E+99

> <Gold.Chemscore.Hbonds>
donor molecule, donor type, donor heavy atom, donor atom, acceptor molecule, acceptor atom, score
      L1  H     6    21       P1  7948  0.69
      L1  H     9    22       P1  7948  0.93
      L1  H    14    30       P1  8028  0.05
      P1  H  6896  6907       L1     3  0.73
      P1  H  7989  7998       L1    16  0.91

> <Gold.Chemscore.Hbond.Weighted>
-12.3720

> <Gold.Chemscore.Metal.Weighted>
-0.0000

> <Gold.Chemscore.Lipo.Weighted>
-3.7135

> <Gold.Chemscore.Internal_Hbond.Weighted>
0.0000

> <Gold.Chemscore.DEClash.Weighted>
0.0060

> <Gold.Chemscore.DEInternal.Weighted>
1.3076

> <Gold.Chemscore.Rot.Weighted>
2.5600

> <Gold.Chemscore.Internal.Correction.Weighted>
   9.000000E+99

> <Gold.Protein.RotatedTorsions>
[ 6907 6896 6895 6894 ] final -113.09 input  -60.11 | X-H torsion
[ 7974 7965 7964 7962 ] final  -20.30 input  175.53 | X-H torsion
[ 8008 7997 7996 7995 ] final -173.40 input   59.86 | X-H torsion
[ 10167 10162 10161 10158 ] final  119.50 input  -65.29 | X-H torsion
[ 10718 10713 10712 10709 ] final   68.59 input   66.30 | X-H torsion
[ 10763 10752 10751 10750 ] final   47.61 input  -60.55 | X-H torsion
[ 11005 11000 10999 10996 ] final -172.56 input  -57.11 | X-H torsion

> <Gold.Protein.ActiveResidues>
 VAL166  LYS551  ARG553  GLY616  TRP617  ASP618  TYR619  PRO620  LYS621  CYS622 
 ASP623  PHE694  ASN695  SER759  ASP760  ASP761  ALA762  ILE779  LEU786  VAL792 
 PHE793  MET794  SER795  GLU796  ALA797  LYS798  CYS799  TRP800  GLU811  SER814 

> <Gold.Protein.RotatedAtoms>
  150.7804  133.8994  159.3336 H   0  0  0  0  0  0  0  0  0  0  0  0  # atno 6907 bound_to 6896
  151.6858  135.0952  160.0234 H   0  0  0  0  0  0  0  0  0  0  0  0  # atno 6908 bound_to 6896
  152.3854  133.6565  159.6230 H   0  0  0  0  0  0  0  0  0  0  0  0  # atno 6909 bound_to 6896
  146.1796  140.4182  142.8500 H   0  0  0  0  0  0  0  0  0  0  0  0  # atno 7974 bound_to 7965
  155.9570  140.1137  157.0929 H   0  0  0  0  0  0  0  0  0  0  0  0  # atno 8008 bound_to 7997
  154.4123  140.1189  156.5194 H   0  0  0  0  0  0  0  0  0  0  0  0  # atno 8009 bound_to 7997
  155.6770  140.3473  155.4842 H   0  0  0  0  0  0  0  0  0  0  0  0  # atno 8010 bound_to 7997
  139.6042  144.7065  151.2992 H   0  0  0  0  0  0  0  0  0  0  0  0  # atno 10167 bound_to 10162
  157.6298  130.9381  150.0398 H   0  0  0  0  0  0  0  0  0  0  0  0  # atno 10718 bound_to 10713
  152.9798  135.5971  154.3790 H   0  0  0  0  0  0  0  0  0  0  0  0  # atno 10763 bound_to 10752
  154.3457  135.2767  155.2401 H   0  0  0  0  0  0  0  0  0  0  0  0  # atno 10764 bound_to 10752
  154.4463  135.6001  153.6217 H   0  0  0  0  0  0  0  0  0  0  0  0  # atno 10765 bound_to 10752
  140.4956  134.5943  157.4970 H   0  0  0  0  0  0  0  0  0  0  0  0  # atno 11005 bound_to 11000
  144.8292  140.6679  143.6302 LP  0  0  0  0  0  0  0  0  0  0  0  0  # atno 17320 bound_to 7965
  145.4115  139.1579  143.4123 LP  0  0  0  0  0  0  0  0  0  0  0  0  # atno 17321 bound_to 7965
  140.7272  143.6969  150.7877 LP  0  0  0  0  0  0  0  0  0  0  0  0  # atno 17342 bound_to 10162
  140.0551  143.5211  152.2655 LP  0  0  0  0  0  0  0  0  0  0  0  0  # atno 17343 bound_to 10162
  156.1494  130.3642  149.9461 LP  0  0  0  0  0  0  0  0  0  0  0  0  # atno 17370 bound_to 10713
  156.7485  130.9106  151.3636 LP  0  0  0  0  0  0  0  0  0  0  0  0  # atno 17371 bound_to 10713
  139.9743  134.7241  155.9980 LP  0  0  0  0  0  0  0  0  0  0  0  0  # atno 17394 bound_to 11000
  141.1462  133.6555  156.3874 LP  0  0  0  0  0  0  0  0  0  0  0  0  # atno 17395 bound_to 11000

$$$$
