AV-unprocessed.smi:1346|AV-procd|sdf|5512|dock6
  -GOLD-   22720 5 93D 1   1.00000     0.00000
 Structure written by MMmdl.
 47 48  0  0  0  0  0  0  0  0  1 V2000
  147.5053  142.9407  158.4124 C   0  0  0  0  0  0  0  0  0  0  0  0
  146.1750  142.5318  157.8480 C   0  0  0  0  0  0  0  0  0  0  0  0
  145.1400  142.3954  158.6595 N   0  0  0  0  0  0  0  0  0  0  0  0
  144.0660  142.0139  157.8501 O   0  0  0  0  0  0  0  0  0  0  0  0
  144.5021  141.9311  156.5676 C   0  0  0  0  0  0  0  0  0  0  0  0
  143.4877  141.5374  155.5476 C   0  0  0  0  0  0  0  0  0  0  0  0
  145.8317  142.2470  156.4947 C   0  0  0  0  0  0  0  0  0  0  0  0
  146.7296  142.2887  155.2839 C   0  0  0  0  0  0  0  0  0  0  0  0
  147.9706  141.4270  155.5193 C   0  0  0  0  0  0  0  0  0  0  0  0
  147.9174  140.2111  155.3365 O   0  0  0  0  0  0  0  0  0  0  0  0
  149.0810  142.0702  155.9134 N   0  0  0  0  0  0  0  0  0  0  0  0
  150.3782  141.4465  156.1496 C   0  0  0  0  0  0  0  0  0  0  0  0
  151.3440  142.4192  156.8399 C   0  0  0  0  0  0  0  0  0  0  0  0
  150.8336  142.7549  158.1214 O   0  0  0  0  0  0  0  0  0  0  0  0
  151.8217  143.1513  159.0623 C   0  0  2  0  0  0  0  0  0  0  0  0
  152.3761  141.8917  159.7611 C   0  0  0  0  0  0  0  0  0  0  0  0
  153.3503  142.2550  160.8910 C   0  0  0  0  0  0  0  0  0  0  0  0
  152.6871  143.1947  161.9076 C   0  0  0  0  0  0  0  0  0  0  0  0
  152.1399  144.4542  161.2188 C   0  0  0  0  0  0  0  0  0  0  0  0
  151.1585  144.1052  160.0815 C   0  0  1  0  0  0  0  0  0  0  0  0
  150.6344  145.3833  159.4069 C   0  0  0  0  0  0  0  0  0  0  0  0
  148.1111  143.4553  157.6660 H   0  0  0  0  0  0  0  0  0  0  0  0
  148.0673  142.0714  158.7542 H   0  0  0  0  0  0  0  0  0  0  0  0
  147.3875  143.6168  159.2598 H   0  0  0  0  0  0  0  0  0  0  0  0
  143.9544  141.3390  154.5830 H   0  0  0  0  0  0  0  0  0  0  0  0
  142.7534  142.3311  155.4091 H   0  0  0  0  0  0  0  0  0  0  0  0
  142.9580  140.6363  155.8566 H   0  0  0  0  0  0  0  0  0  0  0  0
  146.2089  141.9277  154.3962 H   0  0  0  0  0  0  0  0  0  0  0  0
  147.0457  143.3060  155.0510 H   0  0  0  0  0  0  0  0  0  0  0  0
  149.0266  143.0701  156.0416 H   0  0  0  0  0  0  0  0  0  0  0  0
  150.2132  140.5822  156.7932 H   0  0  0  0  0  0  0  0  0  0  0  0
  150.8090  141.0633  155.2232 H   0  0  0  0  0  0  0  0  0  0  0  0
  152.3367  141.9723  156.9064 H   0  0  0  0  0  0  0  0  0  0  0  0
  151.4393  143.3305  156.2482 H   0  0  0  0  0  0  0  0  0  0  0  0
  152.6321  143.6855  158.5616 H   0  0  0  0  0  0  0  0  0  0  0  0
  151.5492  141.3088  160.1696 H   0  0  0  0  0  0  0  0  0  0  0  0
  152.8806  141.2441  159.0440 H   0  0  0  0  0  0  0  0  0  0  0  0
  153.6947  141.3492  161.3909 H   0  0  0  0  0  0  0  0  0  0  0  0
  154.2360  142.7338  160.4712 H   0  0  0  0  0  0  0  0  0  0  0  0
  151.8752  142.6721  162.4150 H   0  0  0  0  0  0  0  0  0  0  0  0
  153.4049  143.4746  162.6792 H   0  0  0  0  0  0  0  0  0  0  0  0
  151.6457  145.0861  161.9576 H   0  0  0  0  0  0  0  0  0  0  0  0
  152.9711  145.0388  160.8217 H   0  0  0  0  0  0  0  0  0  0  0  0
  150.3045  143.5893  160.5234 H   0  0  0  0  0  0  0  0  0  0  0  0
  151.4419  145.9387  158.9292 H   0  0  0  0  0  0  0  0  0  0  0  0
  150.1598  146.0439  160.1333 H   0  0  0  0  0  0  0  0  0  0  0  0
  149.8918  145.1530  158.6424 H   0  0  0  0  0  0  0  0  0  0  0  0
  1  2  1  0  0  0  0
  1 22  1  0  0  0  0
  1 23  1  0  0  0  0
  1 24  1  0  0  0  0
  2  7  1  0  0  0  0
  2  3  2  0  0  0  0
  3  4  1  0  0  0  0
  4  5  1  0  0  0  0
  5  6  1  0  0  0  0
  5  7  2  0  0  0  0
  6 25  1  0  0  0  0
  6 26  1  0  0  0  0
  6 27  1  0  0  0  0
  7  8  1  0  0  0  0
  8  9  1  0  0  0  0
  8 28  1  0  0  0  0
  8 29  1  0  0  0  0
  9 10  2  0  0  0  0
  9 11  1  0  0  0  0
 11 12  1  0  0  0  0
 11 30  1  0  0  0  0
 12 13  1  0  0  0  0
 12 31  1  0  0  0  0
 12 32  1  0  0  0  0
 13 14  1  0  0  0  0
 13 33  1  0  0  0  0
 13 34  1  0  0  0  0
 14 15  1  0  0  0  0
 15 20  1  0  0  0  0
 15 16  1  0  0  0  0
 15 35  1  0  0  0  0
 16 17  1  0  0  0  0
 16 36  1  0  0  0  0
 16 37  1  0  0  0  0
 17 18  1  0  0  0  0
 17 38  1  0  0  0  0
 17 39  1  0  0  0  0
 18 19  1  0  0  0  0
 18 40  1  0  0  0  0
 18 41  1  0  0  0  0
 19 20  1  0  0  0  0
 19 42  1  0  0  0  0
 19 43  1  0  0  0  0
 20 21  1  0  0  0  0
 20 44  1  0  0  0  0
 21 45  1  0  0  0  0
 21 46  1  0  0  0  0
 21 47  1  0  0  0  0
M  END
> <s_m_source_file>
AV-unprocessed.smi

> <i_m_source_file_index>
1346

> <i_lp_mmshare_version>
43012

> <i_f3d_flags>
0

> <s_epik_input>
W0NIM11jMW5vYyhbQ0gzXSljMVtDSDJdQyg9TylbTkhdW0NIMl1bQ0gyXU9bQ0BASF0yW0NIMl1bQ0gyXVtDSDJdW0NIMl1bQ0BIXTJbQ0gzXQ==

> <s_epik_cmdline>
J2VwaWtfcHl0aG9uJywgJy1waCcsICc3LjAnLCAnLXRuJywgJzgnLCAnLW1hJywgJzIwMCcsICctbWV0YWxfYmluZGluZycsICctaW1hZScsICc8aW5maWxlLm1hZT4nLCAnLW9tYWUnLCAnPG91dGZpbGUubWFlPic=

> <r_lp_tautomer_probability>
1

> <r_epik_Ionization_Penalty>
3.26154e-08

> <r_epik_Ionization_Penalty_Charging>
0

> <r_epik_Ionization_Penalty_Neutral>
3.26154e-08

> <r_epik_State_Penalty>
-0

> <r_epik_Charging_Adjusted_Penalty>
0

> <i_epik_Tot_Q>
0

> <i_epik_Tot_abs_Q>
0

> <r_epik_Metal_State_Penalty>
-0

> <b_epik_Metal_Only>
0

> <s_lp_Force_Field>
OPLS_2005

> <r_lp_Energy>
5.71646

> <b_lp_Chiralities_Consistent>
1

> <s_lp_Variant>
AV-unprocessed.smi:1346-1

> <Gold.Version>
5.8.1

> <Gold.Id.Protein>
6NUR|6NUR_protein|mol2

> <Gold.PLP.Fitness>
38.0971

> <Gold.PLP.PLP>
-36.7555

> <Gold.PLP.part.hbond>
-1.0000

> <Gold.PLP.part.metal>
0.0000

> <Gold.PLP.part.buried>
-5.9389

> <Gold.PLP.part.nonpolar>
-29.9837

> <Gold.PLP.part.repulsive>
0.2440

> <Gold.PLP.ligand.clash>
0.0000

> <Gold.PLP.ligand.torsion>
0.8810

> <Gold.PLP.Chemscore.Hbond>
1.0000

> <Gold.PLP.Chemscore.CHOScore>
0.0000

> <Gold.PLP.Chemscore.Metal>
0.0000

> <Gold.Chemscore.Hbonds>
donor molecule, donor type, donor heavy atom, donor atom, acceptor molecule, acceptor atom, score
      L1  H    11    30       P1  8028  1.00

> <Gold.PLP.Chemscore.Internal.Correction>
0.1036

> <Gold.Rescore>
     Score         DG    S(hbond)    S(metal)    S(lipo)     H(rot)  DE(clash)    DE(int)     intcor
     15.40     -16.18       0.98        0.00     101.35       1.74       0.11       0.67       ----

> <Gold.Chemscore.Fitness>
15.4031

> <Gold.Chemscore.DG>
-16.1846

> <Gold.Chemscore.ZeroCoef>
-5.4800

> <Gold.Chemscore.Hbond>
0.9847

> <Gold.Chemscore.Metal>
0.0000

> <Gold.Chemscore.Lipo>
101.3467

> <Gold.Chemscore.Internal_Hbond>
0.0000

> <Gold.Chemscore.DEClash>
0.1123

> <Gold.Chemscore.DEInternal>
0.6691

> <Gold.Chemscore.Rot>
1.7352

> <Gold.Chemscore.Internal.Correction>
   9.000000E+99

> <Gold.Chemscore.Hbonds>
donor molecule, donor type, donor heavy atom, donor atom, acceptor molecule, acceptor atom, score
      L1  H    11    30       P1  8028  1.00

> <Gold.Chemscore.Hbond.Weighted>
-3.2890

> <Gold.Chemscore.Metal.Weighted>
-0.0000

> <Gold.Chemscore.Lipo.Weighted>
-11.8576

> <Gold.Chemscore.Internal_Hbond.Weighted>
0.0000

> <Gold.Chemscore.DEClash.Weighted>
0.1123

> <Gold.Chemscore.DEInternal.Weighted>
0.6691

> <Gold.Chemscore.Rot.Weighted>
4.4420

> <Gold.Chemscore.Internal.Correction.Weighted>
   9.000000E+99

> <Gold.Protein.RotatedTorsions>
[ 6907 6896 6895 6894 ] final -159.43 input  -60.11 | X-H torsion
[ 7974 7965 7964 7962 ] final  -99.50 input  175.53 | X-H torsion
[ 8008 7997 7996 7995 ] final -112.23 input   59.86 | X-H torsion
[ 10167 10162 10161 10158 ] final   23.07 input  -65.29 | X-H torsion
[ 10718 10713 10712 10709 ] final   18.77 input   66.30 | X-H torsion
[ 10763 10752 10751 10750 ] final  113.01 input  -60.55 | X-H torsion
[ 11005 11000 10999 10996 ] final  -26.02 input  -57.11 | X-H torsion

> <Gold.Protein.ActiveResidues>
 VAL166  LYS551  ARG553  GLY616  TRP617  ASP618  TYR619  PRO620  LYS621  CYS622 
 ASP623  PHE694  ASN695  SER759  ASP760  ASP761  ALA762  ILE779  LEU786  VAL792 
 PHE793  MET794  SER795  GLU796  ALA797  LYS798  CYS799  TRP800  GLU811  SER814 

> <Gold.Protein.RotatedAtoms>
  151.3334  133.3991  159.2664 H   0  0  0  0  0  0  0  0  0  0  0  0  # atno 6907 bound_to 6896
  150.9937  134.9266  159.7924 H   0  0  0  0  0  0  0  0  0  0  0  0  # atno 6908 bound_to 6896
  152.5255  134.3299  159.9231 H   0  0  0  0  0  0  0  0  0  0  0  0  # atno 6909 bound_to 6896
  145.3068  140.9391  143.2792 H   0  0  0  0  0  0  0  0  0  0  0  0  # atno 7974 bound_to 7965
  155.0020  140.0394  157.2364 H   0  0  0  0  0  0  0  0  0  0  0  0  # atno 8008 bound_to 7997
  154.7535  140.2771  155.6250 H   0  0  0  0  0  0  0  0  0  0  0  0  # atno 8009 bound_to 7997
  156.2890  140.2642  156.2295 H   0  0  0  0  0  0  0  0  0  0  0  0  # atno 8010 bound_to 7997
  140.5298  143.9861  150.6459 H   0  0  0  0  0  0  0  0  0  0  0  0  # atno 10167 bound_to 10162
  157.1010  130.6468  149.5872 H   0  0  0  0  0  0  0  0  0  0  0  0  # atno 10718 bound_to 10713
  153.4862  135.3668  155.2468 H   0  0  0  0  0  0  0  0  0  0  0  0  # atno 10763 bound_to 10752
  154.8753  135.3966  154.3642 H   0  0  0  0  0  0  0  0  0  0  0  0  # atno 10764 bound_to 10752
  153.4254  135.7081  153.6331 H   0  0  0  0  0  0  0  0  0  0  0  0  # atno 10765 bound_to 10752
  140.8991  133.7536  156.0521 H   0  0  0  0  0  0  0  0  0  0  0  0  # atno 11005 bound_to 11000
  144.9048  139.4603  143.6615 LP  0  0  0  0  0  0  0  0  0  0  0  0  # atno 17320 bound_to 7965
  146.3132  139.7823  142.9003 LP  0  0  0  0  0  0  0  0  0  0  0  0  # atno 17321 bound_to 7965
  140.3232  143.3124  152.0762 LP  0  0  0  0  0  0  0  0  0  0  0  0  # atno 17342 bound_to 10162
  139.4950  144.6559  151.6573 LP  0  0  0  0  0  0  0  0  0  0  0  0  # atno 17343 bound_to 10162
  155.9873  130.4912  150.7121 LP  0  0  0  0  0  0  0  0  0  0  0  0  # atno 17370 bound_to 10713
  157.4640  131.0886  151.0714 LP  0  0  0  0  0  0  0  0  0  0  0  0  # atno 17371 bound_to 10713
  140.8252  134.3243  157.5368 LP  0  0  0  0  0  0  0  0  0  0  0  0  # atno 17394 bound_to 11000
  139.8740  134.9332  156.3574 LP  0  0  0  0  0  0  0  0  0  0  0  0  # atno 17395 bound_to 11000

$$$$
