AV-unprocessed.smi:1645|AV-procd|sdf|6612|dock2
  -GOLD-   22720 7313D 1   1.00000     0.00000
 Structure written by MMmdl.
 56 59  0  0  0  0  0  0  0  0  3 V2000
  146.6020  139.8321  153.5939 O   0  0  0  0  0  0  0  0  0  0  0  0
  147.4532  139.0046  153.2698 C   0  0  0  0  0  0  0  0  0  0  0  0
  148.7426  139.0234  153.6500 N   0  0  0  0  0  0  0  0  0  0  0  0
  149.3913  139.9258  154.5364 C   0  0  0  0  0  0  0  0  0  0  0  0
  150.5841  139.4985  155.1555 C   0  0  0  0  0  0  0  0  0  0  0  0
  151.2540  140.3517  156.0564 C   0  0  0  0  0  0  0  0  0  0  0  0
  150.7212  141.6336  156.3452 C   0  0  0  0  0  0  0  0  0  0  0  0
  151.3234  142.5590  157.2285 N   0  0  0  0  0  0  0  0  0  0  0  0
  151.2202  143.9754  156.8611 C   0  0  0  0  0  0  0  0  0  0  0  0
  152.2510  144.8300  157.6177 C   0  0  0  0  0  0  0  0  0  0  0  0
  152.1530  144.6024  159.1320 C   0  0  0  0  0  0  0  0  0  0  0  0
  152.3078  143.1072  159.4417 C   0  0  0  0  0  0  0  0  0  0  0  0
  151.2806  142.2671  158.6631 C   0  0  0  0  0  0  0  0  0  0  0  0
  149.5670  141.9928  155.7325 N   0  3  0  0  0  0  0  0  0  0  0  0
  148.8939  141.2094  154.8631 C   0  0  0  0  0  0  0  0  0  0  0  0
  147.1982  137.9680  152.4591 N   0  0  0  0  0  0  0  0  0  0  0  0
  145.8888  137.6654  151.8854 C   0  0  2  0  0  0  0  0  0  0  0  0
  144.7804  137.5273  152.9378 C   0  0  0  0  0  0  0  0  0  0  0  0
  143.7962  136.4997  152.3499 C   0  0  0  0  0  0  0  0  0  0  0  0
  144.3685  136.0759  151.0525 N   0  3  2  0  0  0  0  0  0  0  0  0
  143.9676  134.7336  150.5588 C   0  0  0  0  0  0  0  0  0  0  0  0
  144.7331  133.5932  151.2503 C   0  0  0  0  0  0  0  0  0  0  0  0
  146.2452  133.8206  151.1547 C   0  0  0  0  0  0  0  0  0  0  0  0
  146.6021  135.1741  151.7778 C   0  0  0  0  0  0  0  0  0  0  0  0
  145.8241  136.3377  151.1111 C   0  0  2  0  0  0  0  0  0  0  0  0
  149.3381  138.3215  153.2352 H   0  0  0  0  0  0  0  0  0  0  0  0
  150.9899  138.5201  154.9423 H   0  0  0  0  0  0  0  0  0  0  0  0
  152.1623  139.9963  156.5189 H   0  0  0  0  0  0  0  0  0  0  0  0
  151.3670  144.1292  155.7922 H   0  0  0  0  0  0  0  0  0  0  0  0
  150.2110  144.3197  157.0913 H   0  0  0  0  0  0  0  0  0  0  0  0
  153.2555  144.5780  157.2749 H   0  0  0  0  0  0  0  0  0  0  0  0
  152.1019  145.8852  157.3870 H   0  0  0  0  0  0  0  0  0  0  0  0
  152.9211  145.1768  159.6505 H   0  0  0  0  0  0  0  0  0  0  0  0
  151.1905  144.9606  159.4996 H   0  0  0  0  0  0  0  0  0  0  0  0
  153.3164  142.7850  159.1784 H   0  0  0  0  0  0  0  0  0  0  0  0
  152.1980  142.9327  160.5124 H   0  0  0  0  0  0  0  0  0  0  0  0
  150.2747  142.4631  159.0367 H   0  0  0  0  0  0  0  0  0  0  0  0
  151.4972  141.2141  158.8432 H   0  0  0  0  0  0  0  0  0  0  0  0
  147.9826  141.6425  154.4794 H   0  0  0  0  0  0  0  0  0  0  0  0
  147.9538  137.3370  152.2351 H   0  0  0  0  0  0  0  0  0  0  0  0
  145.6042  138.4741  151.2086 H   0  0  0  0  0  0  0  0  0  0  0  0
  145.1813  137.1517  153.8805 H   0  0  0  0  0  0  0  0  0  0  0  0
  144.3010  138.4849  153.1441 H   0  0  0  0  0  0  0  0  0  0  0  0
  143.6950  135.6520  153.0285 H   0  0  0  0  0  0  0  0  0  0  0  0
  142.8036  136.9247  152.1983 H   0  0  0  0  0  0  0  0  0  0  0  0
  142.8911  134.6033  150.6765 H   0  0  0  0  0  0  0  0  0  0  0  0
  144.1677  134.6990  149.4873 H   0  0  0  0  0  0  0  0  0  0  0  0
  144.4355  133.5191  152.2967 H   0  0  0  0  0  0  0  0  0  0  0  0
  144.4711  132.6401  150.7899 H   0  0  0  0  0  0  0  0  0  0  0  0
  146.7788  133.0188  151.6660 H   0  0  0  0  0  0  0  0  0  0  0  0
  146.5627  133.7941  150.1114 H   0  0  0  0  0  0  0  0  0  0  0  0
  146.3856  135.1380  152.8463 H   0  0  0  0  0  0  0  0  0  0  0  0
  147.6760  135.3407  151.6898 H   0  0  0  0  0  0  0  0  0  0  0  0
  146.1974  136.4718  150.0949 H   0  0  0  0  0  0  0  0  0  0  0  0
  144.0059  136.7405  150.3837 H   0  0  0  0  0  0  0  0  0  0  0  0
  149.1808  142.9137  155.9410 H   0  0  0  0  0  0  0  0  0  0  0  0
  1  2  2  0  0  0  0
  2  3  1  0  0  0  0
  2 16  1  0  0  0  0
  3  4  1  0  0  0  0
  3 26  1  0  0  0  0
  4 15  1  0  0  0  0
  4  5  2  0  0  0  0
  5  6  1  0  0  0  0
  5 27  1  0  0  0  0
  6  7  2  0  0  0  0
  6 28  1  0  0  0  0
  7  8  1  0  0  0  0
  7 14  1  0  0  0  0
  8 13  1  0  0  0  0
  8  9  1  0  0  0  0
  9 10  1  0  0  0  0
  9 29  1  0  0  0  0
  9 30  1  0  0  0  0
 10 11  1  0  0  0  0
 10 31  1  0  0  0  0
 10 32  1  0  0  0  0
 11 12  1  0  0  0  0
 11 33  1  0  0  0  0
 11 34  1  0  0  0  0
 12 13  1  0  0  0  0
 12 35  1  0  0  0  0
 12 36  1  0  0  0  0
 13 37  1  0  0  0  0
 13 38  1  0  0  0  0
 14 15  2  0  0  0  0
 14 56  1  0  0  0  0
 15 39  1  0  0  0  0
 16 17  1  0  0  0  0
 16 40  1  0  0  0  0
 17 25  1  0  0  0  0
 17 18  1  0  0  0  0
 17 41  1  0  0  0  0
 18 19  1  0  0  0  0
 18 42  1  0  0  0  0
 18 43  1  0  0  0  0
 19 20  1  0  0  0  0
 19 44  1  0  0  0  0
 19 45  1  0  0  0  0
 20 25  1  0  0  0  0
 20 21  1  0  0  0  0
 20 55  1  0  0  0  0
 21 22  1  0  0  0  0
 21 46  1  0  0  0  0
 21 47  1  0  0  0  0
 22 23  1  0  0  0  0
 22 48  1  0  0  0  0
 22 49  1  0  0  0  0
 23 24  1  0  0  0  0
 23 50  1  0  0  0  0
 23 51  1  0  0  0  0
 24 25  1  0  0  0  0
 24 52  1  0  0  0  0
 24 53  1  0  0  0  0
 25 54  1  0  0  0  0
M  CHG  1  14   1
M  CHG  1  20   1
M  END
> <s_m_source_file>
AV-unprocessed.smi

> <i_m_source_file_index>
1645

> <i_lp_mmshare_version>
43012

> <i_f3d_flags>
0

> <s_epik_input>
W0NIMl0xW0NIMl1bQ0gyXVtDSDJdW0NASF0oTjEyKVtDQEBIXShbQ0gyXVtDSDJdMilbTkhdQyg9TylbTkhdYzNbY0hdW2NIXWMobltjSF0zKU40W0NIMl1bQ0gyXVtDSDJdW0NIMl1bQ0gyXTQ=

> <s_epik_cmdline>
J2VwaWtfcHl0aG9uJywgJy1waCcsICc3LjAnLCAnLXRuJywgJzgnLCAnLW1hJywgJzIwMCcsICctbWV0YWxfYmluZGluZycsICctaW1hZScsICc8aW5maWxlLm1hZT4nLCAnLW9tYWUnLCAnPG91dGZpbGUubWFlPic=

> <r_lp_tautomer_probability>
0.999994

> <r_epik_Ionization_Penalty>
1.26838

> <r_epik_Ionization_Penalty_Charging>
1.26836

> <r_epik_Ionization_Penalty_Neutral>
1.95562e-05

> <r_epik_State_Penalty>
1.33841

> <r_epik_Charging_Adjusted_Penalty>
2.60677

> <i_epik_Tot_Q>
2

> <i_epik_Tot_abs_Q>
2

> <r_epik_Metal_State_Penalty>
1.40601

> <b_epik_Metal_Only>
0

> <s_lp_Force_Field>
OPLS_2005

> <r_lp_Energy>
60.1024

> <b_lp_Chiralities_Consistent>
1

> <s_lp_Variant>
AV-unprocessed.smi:1645-13

> <Gold.Version>
5.8.1

> <Gold.Id.Protein>
6NUR|6NUR_protein|mol2

> <Gold.PLP.Fitness>
57.7931

> <Gold.PLP.PLP>
-47.7385

> <Gold.PLP.part.hbond>
-4.0926

> <Gold.PLP.part.metal>
0.0000

> <Gold.PLP.part.buried>
4.1880

> <Gold.PLP.part.nonpolar>
-48.7561

> <Gold.PLP.part.repulsive>
0.4852

> <Gold.PLP.ligand.clash>
0.0000

> <Gold.PLP.ligand.torsion>
1.0662

> <Gold.PLP.Chemscore.Hbond>
3.9670

> <Gold.PLP.Chemscore.CHOScore>
0.0000

> <Gold.PLP.Chemscore.Metal>
0.0000

> <Gold.Chemscore.Hbonds>
donor molecule, donor type, donor heavy atom, donor atom, acceptor molecule, acceptor atom, score
      L1  H    14    56       P1  8028  2.00
      L1  H    16    40       P1  7948  0.98
      L1  H    20    55       P1 10171  0.99

> <Gold.PLP.Chemscore.Internal.Correction>
0.2861

> <Gold.Rescore>
     Score         DG    S(hbond)    S(metal)    S(lipo)     H(rot)  DE(clash)    DE(int)     intcor
     23.35     -28.22       2.90        0.00     133.33       1.00       2.69       2.18       ----

> <Gold.Chemscore.Fitness>
23.3542

> <Gold.Chemscore.DG>
-28.2224

> <Gold.Chemscore.ZeroCoef>
-5.4800

> <Gold.Chemscore.Hbond>
2.9050

> <Gold.Chemscore.Metal>
0.0000

> <Gold.Chemscore.Lipo>
133.3313

> <Gold.Chemscore.Internal_Hbond>
0.0000

> <Gold.Chemscore.DEClash>
2.6897

> <Gold.Chemscore.DEInternal>
2.1785

> <Gold.Chemscore.Rot>
1.0000

> <Gold.Chemscore.Internal.Correction>
   9.000000E+99

> <Gold.Chemscore.Hbonds>
donor molecule, donor type, donor heavy atom, donor atom, acceptor molecule, acceptor atom, score
      L1  H     3    26       P1  7948  0.01
      L1  H    14    56       P1  8028  0.98
      L1  H    16    40       P1  7948  0.91
      L1  H    20    55       P1 10171  0.93

> <Gold.Chemscore.Hbond.Weighted>
-9.7026

> <Gold.Chemscore.Metal.Weighted>
-0.0000

> <Gold.Chemscore.Lipo.Weighted>
-15.5998

> <Gold.Chemscore.Internal_Hbond.Weighted>
0.0000

> <Gold.Chemscore.DEClash.Weighted>
2.6897

> <Gold.Chemscore.DEInternal.Weighted>
2.1785

> <Gold.Chemscore.Rot.Weighted>
2.5600

> <Gold.Chemscore.Internal.Correction.Weighted>
   9.000000E+99

> <Gold.Protein.RotatedTorsions>
[ 6907 6896 6895 6894 ] final -148.07 input  -60.11 | X-H torsion
[ 7974 7965 7964 7962 ] final   85.60 input  175.53 | X-H torsion
[ 8008 7997 7996 7995 ] final  -71.93 input   59.86 | X-H torsion
[ 10167 10162 10161 10158 ] final   88.52 input  -65.29 | X-H torsion
[ 10718 10713 10712 10709 ] final   53.57 input   66.30 | X-H torsion
[ 10763 10752 10751 10750 ] final -132.95 input  -60.55 | X-H torsion
[ 11005 11000 10999 10996 ] final   65.31 input  -57.11 | X-H torsion

> <Gold.Protein.ActiveResidues>
 VAL166  LYS551  ARG553  GLY616  TRP617  ASP618  TYR619  PRO620  LYS621  CYS622 
 ASP623  PHE694  ASN695  SER759  ASP760  ASP761  ALA762  ILE779  LEU786  VAL792 
 PHE793  MET794  SER795  GLU796  ALA797  LYS798  CYS799  TRP800  GLU811  SER814 

> <Gold.Protein.RotatedAtoms>
  151.1647  133.4823  159.2593 H   0  0  0  0  0  0  0  0  0  0  0  0  # atno 6907 bound_to 6896
  151.1418  135.0183  159.8639 H   0  0  0  0  0  0  0  0  0  0  0  0  # atno 6908 bound_to 6896
  152.5462  134.1539  159.8583 H   0  0  0  0  0  0  0  0  0  0  0  0  # atno 6909 bound_to 6896
  145.5834  139.2328  143.2340 H   0  0  0  0  0  0  0  0  0  0  0  0  # atno 7974 bound_to 7965
  154.5126  140.0806  156.8020 H   0  0  0  0  0  0  0  0  0  0  0  0  # atno 8008 bound_to 7997
  155.3751  140.3425  155.4226 H   0  0  0  0  0  0  0  0  0  0  0  0  # atno 8009 bound_to 7997
  156.1591  140.1582  156.8630 H   0  0  0  0  0  0  0  0  0  0  0  0  # atno 8010 bound_to 7997
  139.8665  144.6516  150.8999 H   0  0  0  0  0  0  0  0  0  0  0  0  # atno 10167 bound_to 10162
  157.5178  130.8544  149.8519 H   0  0  0  0  0  0  0  0  0  0  0  0  # atno 10718 bound_to 10713
  154.8738  135.3781  154.4494 H   0  0  0  0  0  0  0  0  0  0  0  0  # atno 10763 bound_to 10752
  153.5171  135.7029  153.5755 H   0  0  0  0  0  0  0  0  0  0  0  0  # atno 10764 bound_to 10752
  153.4019  135.3946  155.1959 H   0  0  0  0  0  0  0  0  0  0  0  0  # atno 10765 bound_to 10752
  139.9902  134.6603  156.0104 H   0  0  0  0  0  0  0  0  0  0  0  0  # atno 11005 bound_to 11000
  146.1700  140.6660  142.9238 LP  0  0  0  0  0  0  0  0  0  0  0  0  # atno 17320 bound_to 7965
  144.7384  140.4872  143.6887 LP  0  0  0  0  0  0  0  0  0  0  0  0  # atno 17321 bound_to 7965
  140.7767  143.3700  151.1667 LP  0  0  0  0  0  0  0  0  0  0  0  0  # atno 17342 bound_to 10162
  139.7324  143.9051  152.3024 LP  0  0  0  0  0  0  0  0  0  0  0  0  # atno 17343 bound_to 10162
  156.0332  130.3758  150.1629 LP  0  0  0  0  0  0  0  0  0  0  0  0  # atno 17370 bound_to 10713
  156.9818  130.9866  151.3435 LP  0  0  0  0  0  0  0  0  0  0  0  0  # atno 17371 bound_to 10713
  141.1560  133.6543  156.4162 LP  0  0  0  0  0  0  0  0  0  0  0  0  # atno 17394 bound_to 11000
  140.4922  134.6564  157.5215 LP  0  0  0  0  0  0  0  0  0  0  0  0  # atno 17395 bound_to 11000

$$$$
