AV-unprocessed.smi:2124|AV-procd|sdf|8653|dock5
  -GOLD-   2272011403D 1   1.00000     0.00000
 Structure written by MMmdl.
 47 49  0  0  0  0  0  0  0  0  1 V2000
  148.8025  134.2716  155.1781 C   0  0  0  0  0  0  0  0  0  0  0  0
  149.7738  135.2545  155.7970 C   0  0  0  0  0  0  0  0  0  0  0  0
  149.8334  135.5100  157.0627 N   0  0  0  0  0  0  0  0  0  0  0  0
  150.7751  136.4437  157.5178 C   0  0  0  0  0  0  0  0  0  0  0  0
  150.7780  136.6973  159.0155 C   0  0  0  0  0  0  0  0  0  0  0  0
  151.6266  137.0777  156.6594 C   0  0  0  0  0  0  0  0  0  0  0  0
  152.6607  138.1035  157.1221 C   0  0  0  0  0  0  0  0  0  0  0  0
  152.4781  139.5312  156.6008 C   0  0  0  0  0  0  0  0  0  0  0  0
  153.0285  139.8928  155.5604 O   0  0  0  0  0  0  0  0  0  0  0  0
  151.6893  140.3264  157.3430 N   0  0  0  0  0  0  0  0  0  0  0  0
  151.3138  141.7170  157.0699 C   0  0  1  0  0  0  0  0  0  0  0  0
  150.0247  141.7749  156.2259 C   0  0  0  0  0  0  0  0  0  0  0  0
  151.2437  142.5707  158.3664 C   0  0  1  0  0  0  0  0  0  0  0  0
  152.5839  142.6498  159.1413 C   0  0  0  0  0  0  0  0  0  0  0  0
  152.8092  144.1624  159.3089 C   0  0  2  0  0  0  0  0  0  0  0  0
  151.7713  144.7335  160.2917 C   0  0  0  0  0  0  0  0  0  0  0  0
  150.4709  144.6973  159.4676 C   0  0  0  0  0  0  0  0  0  0  0  0
  150.9287  144.0704  158.1363 C   0  0  1  0  0  0  0  0  0  0  0  0
  152.3112  144.6939  157.9720 C   0  0  0  0  0  0  0  0  0  0  0  0
  151.5492  136.7789  155.2166 C   0  0  0  0  0  0  0  0  0  0  0  0
  152.2611  137.2974  154.3578 O   0  0  0  0  0  0  0  0  0  0  0  0
  150.6110  135.8703  154.8682 N   0  0  0  0  0  0  0  0  0  0  0  0
  150.5164  135.6339  153.8913 H   0  0  0  0  0  0  0  0  0  0  0  0
  147.7768  134.5700  155.3958 H   0  0  0  0  0  0  0  0  0  0  0  0
  148.9644  133.2747  155.5886 H   0  0  0  0  0  0  0  0  0  0  0  0
  148.9193  134.2177  154.0947 H   0  0  0  0  0  0  0  0  0  0  0  0
  151.7156  136.3601  159.4579 H   0  0  0  0  0  0  0  0  0  0  0  0
  149.9645  136.1644  159.5089 H   0  0  0  0  0  0  0  0  0  0  0  0
  150.6557  137.7595  159.2279 H   0  0  0  0  0  0  0  0  0  0  0  0
  152.6489  138.1407  158.2116 H   0  0  0  0  0  0  0  0  0  0  0  0
  153.6668  137.7687  156.8669 H   0  0  0  0  0  0  0  0  0  0  0  0
  151.2951  139.9229  158.1805 H   0  0  0  0  0  0  0  0  0  0  0  0
  152.1204  142.1091  156.4499 H   0  0  0  0  0  0  0  0  0  0  0  0
  149.8392  142.7776  155.8433 H   0  0  0  0  0  0  0  0  0  0  0  0
  149.1488  141.4781  156.8030 H   0  0  0  0  0  0  0  0  0  0  0  0
  150.0927  141.1129  155.3619 H   0  0  0  0  0  0  0  0  0  0  0  0
  150.4768  142.1449  159.0145 H   0  0  0  0  0  0  0  0  0  0  0  0
  152.5392  142.1270  160.0975 H   0  0  0  0  0  0  0  0  0  0  0  0
  153.4064  142.2183  158.5694 H   0  0  0  0  0  0  0  0  0  0  0  0
  153.8382  144.4261  159.5553 H   0  0  0  0  0  0  0  0  0  0  0  0
  151.7019  144.1439  161.2067 H   0  0  0  0  0  0  0  0  0  0  0  0
  152.0197  145.7583  160.5704 H   0  0  0  0  0  0  0  0  0  0  0  0
  149.6827  144.1217  159.9542 H   0  0  0  0  0  0  0  0  0  0  0  0
  150.0930  145.7078  159.3074 H   0  0  0  0  0  0  0  0  0  0  0  0
  150.2386  144.2724  157.3182 H   0  0  0  0  0  0  0  0  0  0  0  0
  152.2906  145.7841  157.9203 H   0  0  0  0  0  0  0  0  0  0  0  0
  152.8673  144.3079  157.1164 H   0  0  0  0  0  0  0  0  0  0  0  0
  1  2  1  0  0  0  0
  1 24  1  0  0  0  0
  1 25  1  0  0  0  0
  1 26  1  0  0  0  0
  2 22  1  0  0  0  0
  2  3  2  0  0  0  0
  3  4  1  0  0  0  0
  4  5  1  0  0  0  0
  4  6  2  0  0  0  0
  5 27  1  0  0  0  0
  5 28  1  0  0  0  0
  5 29  1  0  0  0  0
  6  7  1  0  0  0  0
  6 20  1  0  0  0  0
  7  8  1  0  0  0  0
  7 30  1  0  0  0  0
  7 31  1  0  0  0  0
  8  9  2  0  0  0  0
  8 10  1  0  0  0  0
 10 11  1  0  0  0  0
 10 32  1  0  0  0  0
 11 12  1  0  0  0  0
 11 13  1  0  0  0  0
 11 33  1  0  0  0  0
 12 34  1  0  0  0  0
 12 35  1  0  0  0  0
 12 36  1  0  0  0  0
 13 18  1  0  0  0  0
 13 14  1  0  0  0  0
 13 37  1  0  0  0  0
 14 15  1  0  0  0  0
 14 38  1  0  0  0  0
 14 39  1  0  0  0  0
 15 19  1  0  0  0  0
 15 16  1  0  0  0  0
 15 40  1  0  0  0  0
 16 17  1  0  0  0  0
 16 41  1  0  0  0  0
 16 42  1  0  0  0  0
 17 18  1  0  0  0  0
 17 43  1  0  0  0  0
 17 44  1  0  0  0  0
 18 19  1  0  0  0  0
 18 45  1  0  0  0  0
 19 46  1  0  0  0  0
 19 47  1  0  0  0  0
 20 21  2  0  0  0  0
 20 22  1  0  0  0  0
 22 23  1  0  0  0  0
M  END
> <s_m_source_file>
AV-unprocessed.smi

> <i_m_source_file_index>
2124

> <i_lp_mmshare_version>
43012

> <i_f3d_flags>
0

> <s_epik_input>
W0NIM11jMW5jKFtDSDNdKWMoYyg9TylbbkhdMSlbQ0gyXUMoPU8pW05IXVtDQEhdKFtDSDNdKVtDQEhdKFtDSDJdW0NASF0yMylbQ0BIXShbQ0gyXTMpW0NIMl1bQ0gyXTI=

> <s_epik_cmdline>
J2VwaWtfcHl0aG9uJywgJy1waCcsICc3LjAnLCAnLXRuJywgJzgnLCAnLW1hJywgJzIwMCcsICctbWV0YWxfYmluZGluZycsICctaW1hZScsICc8aW5maWxlLm1hZT4nLCAnLW9tYWUnLCAnPG91dGZpbGUubWFlPic=

> <r_lp_tautomer_probability>
0.839158

> <r_epik_Ionization_Penalty>
0.000383628

> <r_epik_Ionization_Penalty_Charging>
0.00035045

> <r_epik_Ionization_Penalty_Neutral>
3.31781e-05

> <r_epik_State_Penalty>
0.09125

> <r_epik_Charging_Adjusted_Penalty>
0.0916005

> <i_epik_Tot_Q>
0

> <i_epik_Tot_abs_Q>
0

> <r_epik_Metal_State_Penalty>
0.255229

> <b_epik_Metal_Only>
0

> <s_lp_Force_Field>
OPLS_2005

> <r_lp_Energy>
52.6925

> <b_lp_Chiralities_Consistent>
1

> <s_lp_Variant>
AV-unprocessed.smi:2124-4

> <Gold.Version>
5.8.1

> <Gold.Id.Protein>
6NUR|6NUR_protein|mol2

> <Gold.PLP.Fitness>
46.5685

> <Gold.PLP.PLP>
-39.0007

> <Gold.PLP.part.hbond>
-3.0000

> <Gold.PLP.part.metal>
0.0000

> <Gold.PLP.part.buried>
-5.4204

> <Gold.PLP.part.nonpolar>
-31.2195

> <Gold.PLP.part.repulsive>
0.2664

> <Gold.PLP.ligand.clash>
0.0000

> <Gold.PLP.ligand.torsion>
0.7494

> <Gold.PLP.Chemscore.Hbond>
3.0000

> <Gold.PLP.Chemscore.CHOScore>
0.0000

> <Gold.PLP.Chemscore.Metal>
0.0000

> <Gold.Chemscore.Hbonds>
donor molecule, donor type, donor heavy atom, donor atom, acceptor molecule, acceptor atom, score
      P1  H  7997  8008       L1     9  0.78

> <Gold.PLP.Chemscore.Internal.Correction>
0.0665

> <Gold.Rescore>
     Score         DG    S(hbond)    S(metal)    S(lipo)     H(rot)  DE(clash)    DE(int)     intcor
     22.42     -23.55       2.88        0.00     108.38       1.65       0.08       1.05       ----

> <Gold.Chemscore.Fitness>
22.4211

> <Gold.Chemscore.DG>
-23.5473

> <Gold.Chemscore.ZeroCoef>
-5.4800

> <Gold.Chemscore.Hbond>
2.8801

> <Gold.Chemscore.Metal>
0.0000

> <Gold.Chemscore.Lipo>
108.3799

> <Gold.Chemscore.Internal_Hbond>
0.0000

> <Gold.Chemscore.DEClash>
0.0804

> <Gold.Chemscore.DEInternal>
1.0457

> <Gold.Chemscore.Rot>
1.6534

> <Gold.Chemscore.Internal.Correction>
   9.000000E+99

> <Gold.Chemscore.Hbonds>
donor molecule, donor type, donor heavy atom, donor atom, acceptor molecule, acceptor atom, score
      P1  H  7997  8008       L1     9  0.15

> <Gold.Chemscore.Hbond.Weighted>
-9.6195

> <Gold.Chemscore.Metal.Weighted>
-0.0000

> <Gold.Chemscore.Lipo.Weighted>
-12.6804

> <Gold.Chemscore.Internal_Hbond.Weighted>
0.0000

> <Gold.Chemscore.DEClash.Weighted>
0.0804

> <Gold.Chemscore.DEInternal.Weighted>
1.0457

> <Gold.Chemscore.Rot.Weighted>
4.2326

> <Gold.Chemscore.Internal.Correction.Weighted>
   9.000000E+99

> <Gold.Protein.RotatedTorsions>
[ 6907 6896 6895 6894 ] final  -20.69 input  -60.11 | X-H torsion
[ 7974 7965 7964 7962 ] final  -35.09 input  175.53 | X-H torsion
[ 8008 7997 7996 7995 ] final  -31.43 input   59.86 | X-H torsion
[ 10167 10162 10161 10158 ] final  -13.22 input  -65.29 | X-H torsion
[ 10718 10713 10712 10709 ] final   92.95 input   66.30 | X-H torsion
[ 10763 10752 10751 10750 ] final  -64.85 input  -60.55 | X-H torsion
[ 11005 11000 10999 10996 ] final   59.30 input  -57.11 | X-H torsion

> <Gold.Protein.ActiveResidues>
 VAL166  LYS551  ARG553  GLY616  TRP617  ASP618  TYR619  PRO620  LYS621  CYS622 
 ASP623  PHE694  ASN695  SER759  ASP760  ASP761  ALA762  ILE779  LEU786  VAL792 
 PHE793  MET794  SER795  GLU796  ALA797  LYS798  CYS799  TRP800  GLU811  SER814 

> <Gold.Protein.RotatedAtoms>
  151.2444  135.0600  159.9037 H   0  0  0  0  0  0  0  0  0  0  0  0  # atno 6907 bound_to 6896
  152.5389  134.0399  159.8073 H   0  0  0  0  0  0  0  0  0  0  0  0  # atno 6908 bound_to 6896
  151.0598  133.5505  159.2666 H   0  0  0  0  0  0  0  0  0  0  0  0  # atno 6909 bound_to 6896
  146.0775  140.6118  142.8924 H   0  0  0  0  0  0  0  0  0  0  0  0  # atno 7974 bound_to 7965
  154.4214  140.1764  156.1566 H   0  0  0  0  0  0  0  0  0  0  0  0  # atno 8008 bound_to 7997
  155.9872  140.3372  155.6694 H   0  0  0  0  0  0  0  0  0  0  0  0  # atno 8009 bound_to 7997
  155.6421  140.0681  157.2605 H   0  0  0  0  0  0  0  0  0  0  0  0  # atno 8010 bound_to 7997
  140.7178  143.5449  150.9366 H   0  0  0  0  0  0  0  0  0  0  0  0  # atno 10167 bound_to 10162
  157.6957  131.0461  150.3959 H   0  0  0  0  0  0  0  0  0  0  0  0  # atno 10718 bound_to 10713
  154.3363  135.6166  153.5575 H   0  0  0  0  0  0  0  0  0  0  0  0  # atno 10763 bound_to 10752
  152.9807  135.5759  154.4904 H   0  0  0  0  0  0  0  0  0  0  0  0  # atno 10764 bound_to 10752
  154.4600  135.2855  155.1697 H   0  0  0  0  0  0  0  0  0  0  0  0  # atno 10765 bound_to 10752
  140.0314  134.6007  155.9502 H   0  0  0  0  0  0  0  0  0  0  0  0  # atno 11005 bound_to 11000
  144.7271  140.4559  143.6965 LP  0  0  0  0  0  0  0  0  0  0  0  0  # atno 17320 bound_to 7965
  145.6279  139.1532  143.2985 LP  0  0  0  0  0  0  0  0  0  0  0  0  # atno 17321 bound_to 7965
  139.9172  143.6649  152.3104 LP  0  0  0  0  0  0  0  0  0  0  0  0  # atno 17342 bound_to 10162
  139.7053  144.7629  151.1204 LP  0  0  0  0  0  0  0  0  0  0  0  0  # atno 17343 bound_to 10162
  156.4358  130.3981  149.6730 LP  0  0  0  0  0  0  0  0  0  0  0  0  # atno 17370 bound_to 10713
  156.3931  130.7637  151.2639 LP  0  0  0  0  0  0  0  0  0  0  0  0  # atno 17371 bound_to 10713
  141.1833  133.6550  156.5111 LP  0  0  0  0  0  0  0  0  0  0  0  0  # atno 17394 bound_to 11000
  140.4219  134.7179  157.4895 LP  0  0  0  0  0  0  0  0  0  0  0  0  # atno 17395 bound_to 11000

$$$$
