AV-unprocessed.smi:261|AV-procd|sdf|1983|dock2
  -GOLD-   2262021163D 1   1.00000     0.00000
 Structure written by MMmdl.
 51 54  0  0  0  0  0  0  0  0  1 V2000
  148.9345  125.6786  150.1395 C   0  0  0  0  0  0  0  0  0  0  0  0
  148.7939  125.9280  151.5282 O   0  0  0  0  0  0  0  0  0  0  0  0
  148.9472  127.2964  151.8737 C   0  0  1  0  0  0  0  0  0  0  0  0
  147.6962  128.0883  151.5149 C   0  0  0  0  0  0  0  0  0  0  0  0
  147.8024  129.3291  152.4123 C   0  0  1  0  0  0  0  0  0  0  0  0
  146.4291  129.9534  152.6968 C   0  0  0  0  0  0  0  0  0  0  0  0
  145.5838  129.2338  153.4380 N   0  0  0  0  0  0  0  0  0  0  0  0
  146.1373  131.0700  152.2712 O   0  0  0  0  0  0  0  0  0  0  0  0
  148.4480  128.8390  153.6334 N   0  0  0  0  0  0  0  0  0  0  0  0
  149.2247  129.7423  154.2715 C   0  0  0  0  0  0  0  0  0  0  0  0
  150.0471  129.2785  155.2435 N   0  0  0  0  0  0  0  0  0  0  0  0
  150.8290  130.1279  155.9172 C   0  0  0  0  0  0  0  0  0  0  0  0
  150.9361  131.4519  155.7816 N   0  0  0  0  0  0  0  0  0  0  0  0
  150.1065  131.9195  154.8049 C   0  0  0  0  0  0  0  0  0  0  0  0
  149.2258  131.1401  154.0044 C   0  0  0  0  0  0  0  0  0  0  0  0
  148.5387  131.9592  153.1163 N   0  0  0  0  0  0  0  0  0  0  0  0
  148.9871  133.1566  153.3782 C   0  0  0  0  0  0  0  0  0  0  0  0
  149.9309  133.2237  154.3780 N   0  0  0  0  0  0  0  0  0  0  0  0
  150.5853  134.4233  154.8714 C   0  0  0  0  0  0  0  0  0  0  0  0
  151.3064  134.1935  156.2168 C   0  0  2  0  0  0  0  0  0  0  0  0
  150.3391  133.7987  157.1706 O   0  0  0  0  0  0  0  0  0  0  0  0
  152.0074  135.4589  156.7514 C   0  0  2  0  0  0  0  0  0  0  0  0
  151.0706  136.5042  157.3619 C   0  0  0  0  0  0  0  0  0  0  0  0
  151.8424  137.8058  157.2212 C   0  0  0  0  0  0  0  0  0  0  0  0
  152.9022  137.4907  156.1631 C   0  0  0  0  0  0  0  0  0  0  0  0
  152.5659  136.1992  155.6756 O   0  0  0  0  0  0  0  0  0  0  0  0
  149.0614  127.5382  153.3820 C   0  0  0  0  0  0  0  0  0  0  0  0
  149.8018  127.7351  151.3547 H   0  0  0  0  0  0  0  0  0  0  0  0
  148.4399  130.0671  151.9202 H   0  0  0  0  0  0  0  0  0  0  0  0
  148.7770  124.6184  149.9429 H   0  0  0  0  0  0  0  0  0  0  0  0
  149.9319  125.9392  149.7841 H   0  0  0  0  0  0  0  0  0  0  0  0
  148.1991  126.2399  149.5616 H   0  0  0  0  0  0  0  0  0  0  0  0
  147.6526  128.3382  150.4542 H   0  0  0  0  0  0  0  0  0  0  0  0
  146.8065  127.5044  151.7592 H   0  0  0  0  0  0  0  0  0  0  0  0
  144.6672  129.5971  153.6549 H   0  0  0  0  0  0  0  0  0  0  0  0
  145.8663  128.3265  153.7789 H   0  0  0  0  0  0  0  0  0  0  0  0
  151.4575  129.6831  156.6745 H   0  0  0  0  0  0  0  0  0  0  0  0
  148.6396  134.0305  152.8461 H   0  0  0  0  0  0  0  0  0  0  0  0
  151.2906  134.7503  154.1073 H   0  0  0  0  0  0  0  0  0  0  0  0
  149.8435  135.2173  154.9678 H   0  0  0  0  0  0  0  0  0  0  0  0
  152.0360  133.3907  156.1019 H   0  0  0  0  0  0  0  0  0  0  0  0
  149.5198  134.2190  156.9587 H   0  0  0  0  0  0  0  0  0  0  0  0
  152.7886  135.2020  157.4702 H   0  0  0  0  0  0  0  0  0  0  0  0
  150.1481  136.5656  156.7826 H   0  0  0  0  0  0  0  0  0  0  0  0
  150.8054  136.2819  158.3962 H   0  0  0  0  0  0  0  0  0  0  0  0
  151.1860  138.6204  156.9128 H   0  0  0  0  0  0  0  0  0  0  0  0
  152.3150  138.0904  158.1619 H   0  0  0  0  0  0  0  0  0  0  0  0
  152.9170  138.2215  155.3543 H   0  0  0  0  0  0  0  0  0  0  0  0
  153.8960  137.4587  156.6121 H   0  0  0  0  0  0  0  0  0  0  0  0
  148.4816  126.7942  153.9293 H   0  0  0  0  0  0  0  0  0  0  0  0
  150.0940  127.4615  153.7269 H   0  0  0  0  0  0  0  0  0  0  0  0
  1  2  1  0  0  0  0
  1 30  1  0  0  0  0
  1 31  1  0  0  0  0
  1 32  1  0  0  0  0
  2  3  1  0  0  0  0
  3 28  1  0  0  0  0
  3 27  1  0  0  0  0
  3  4  1  0  0  0  0
  4  5  1  0  0  0  0
  4 33  1  0  0  0  0
  4 34  1  0  0  0  0
  5 29  1  0  0  0  0
  5  6  1  0  0  0  0
  5  9  1  0  0  0  0
  6  7  1  0  0  0  0
  6  8  2  0  0  0  0
  7 35  1  0  0  0  0
  7 36  1  0  0  0  0
  9 10  1  0  0  0  0
  9 27  1  0  0  0  0
 10 15  1  0  0  0  0
 10 11  2  0  0  0  0
 11 12  1  0  0  0  0
 12 13  2  0  0  0  0
 12 37  1  0  0  0  0
 13 14  1  0  0  0  0
 14 18  1  0  0  0  0
 14 15  2  0  0  0  0
 15 16  1  0  0  0  0
 16 17  2  0  0  0  0
 17 18  1  0  0  0  0
 17 38  1  0  0  0  0
 18 19  1  0  0  0  0
 19 20  1  0  0  0  0
 19 39  1  0  0  0  0
 19 40  1  0  0  0  0
 20 21  1  0  0  0  0
 20 22  1  0  0  0  0
 20 41  1  0  0  0  0
 21 42  1  0  0  0  0
 22 26  1  0  0  0  0
 22 23  1  0  0  0  0
 22 43  1  0  0  0  0
 23 24  1  0  0  0  0
 23 44  1  0  0  0  0
 23 45  1  0  0  0  0
 24 25  1  0  0  0  0
 24 46  1  0  0  0  0
 24 47  1  0  0  0  0
 25 26  1  0  0  0  0
 25 48  1  0  0  0  0
 25 49  1  0  0  0  0
 27 50  1  0  0  0  0
 27 51  1  0  0  0  0
M  END
> <s_m_source_file>
AV-unprocessed.smi

> <i_m_source_file_index>
261

> <i_lp_mmshare_version>
43012

> <i_f3d_flags>
0

> <s_epik_input>
W0NIM11PW0NASF0xW0NIMl1bQ0BASF0oQyg9TylbTkgyXSlOKFtDSDJdMSljKG5bY0hdbjIpYyhjMjMpbltjSF1uM1tDSDJdW0NASF0oW09IXSlbQ0BASF00W0NIMl1bQ0gyXVtDSDJdTzQ=

> <s_epik_cmdline>
J2VwaWtfcHl0aG9uJywgJy1waCcsICc3LjAnLCAnLXRuJywgJzgnLCAnLW1hJywgJzIwMCcsICctbWV0YWxfYmluZGluZycsICctaW1hZScsICc8aW5maWxlLm1hZT4nLCAnLW9tYWUnLCAnPG91dGZpbGUubWFlPic=

> <r_lp_tautomer_probability>
1

> <r_epik_Ionization_Penalty>
0.000713824

> <r_epik_Ionization_Penalty_Charging>
0

> <r_epik_Ionization_Penalty_Neutral>
0.000713824

> <r_epik_State_Penalty>
0.000402132

> <r_epik_Charging_Adjusted_Penalty>
0.000402132

> <i_epik_Tot_Q>
0

> <i_epik_Tot_abs_Q>
0

> <r_epik_Metal_State_Penalty>
-0

> <b_epik_Metal_Only>
0

> <s_lp_Force_Field>
OPLS_2005

> <r_lp_Energy>
45.6621

> <b_lp_Chiralities_Consistent>
1

> <s_lp_Variant>
AV-unprocessed.smi:261-1

> <Gold.Version>
5.8.1

> <Gold.Id.Protein>
6NUR|6NUR_protein|mol2

> <Gold.PLP.Fitness>
47.5336

> <Gold.PLP.PLP>
-39.0826

> <Gold.PLP.part.hbond>
-2.9604

> <Gold.PLP.part.metal>
0.0000

> <Gold.PLP.part.buried>
-2.1671

> <Gold.PLP.part.nonpolar>
-32.6799

> <Gold.PLP.part.repulsive>
0.6463

> <Gold.PLP.ligand.clash>
0.0000

> <Gold.PLP.ligand.torsion>
1.2530

> <Gold.PLP.Chemscore.Hbond>
2.5970

> <Gold.PLP.Chemscore.CHOScore>
0.9926

> <Gold.PLP.Chemscore.Metal>
0.0000

> <Gold.Chemscore.Hbonds>
donor molecule, donor type, donor heavy atom, donor atom, acceptor molecule, acceptor atom, score
      L1  H     7    35       P1 10956  0.94
      P1  H  6896  6909       L1    21  0.62
      P1  H 10752 10763       L1    26  0.21
      L1  C    17    38       P1  7948  0.52

> <Gold.PLP.Chemscore.Internal.Correction>
0.1883

> <Gold.Rescore>
     Score         DG    S(hbond)    S(metal)    S(lipo)     H(rot)  DE(clash)    DE(int)     intcor
      5.54     -12.59       2.71        0.00      61.63       3.57       0.04       7.01       ----

> <Gold.Chemscore.Fitness>
5.5398

> <Gold.Chemscore.DG>
-12.5886

> <Gold.Chemscore.ZeroCoef>
-5.4800

> <Gold.Chemscore.Hbond>
2.7087

> <Gold.Chemscore.Metal>
0.0000

> <Gold.Chemscore.Lipo>
61.6312

> <Gold.Chemscore.Internal_Hbond>
0.0000

> <Gold.Chemscore.DEClash>
0.0402

> <Gold.Chemscore.DEInternal>
7.0085

> <Gold.Chemscore.Rot>
3.5740

> <Gold.Chemscore.Internal.Correction>
   9.000000E+99

> <Gold.Chemscore.Hbonds>
donor molecule, donor type, donor heavy atom, donor atom, acceptor molecule, acceptor atom, score
      L1  H     7    35       P1 10956  0.27
      P1  H  6896  6909       L1    21  0.52
      P1  H 10752 10763       L1    26  0.20

> <Gold.Chemscore.Hbond.Weighted>
-9.0472

> <Gold.Chemscore.Metal.Weighted>
-0.0000

> <Gold.Chemscore.Lipo.Weighted>
-7.2108

> <Gold.Chemscore.Internal_Hbond.Weighted>
0.0000

> <Gold.Chemscore.DEClash.Weighted>
0.0402

> <Gold.Chemscore.DEInternal.Weighted>
7.0085

> <Gold.Chemscore.Rot.Weighted>
9.1495

> <Gold.Chemscore.Internal.Correction.Weighted>
   9.000000E+99

> <Gold.Protein.RotatedTorsions>
[ 6907 6896 6895 6894 ] final    2.54 input  -60.11 | X-H torsion
[ 7974 7965 7964 7962 ] final   87.90 input  175.53 | X-H torsion
[ 8008 7997 7996 7995 ] final  -93.97 input   59.86 | X-H torsion
[ 10167 10162 10161 10158 ] final  149.89 input  -65.29 | X-H torsion
[ 10718 10713 10712 10709 ] final   93.90 input   66.30 | X-H torsion
[ 10763 10752 10751 10750 ] final   60.92 input  -60.55 | X-H torsion
[ 11005 11000 10999 10996 ] final  -26.65 input  -57.11 | X-H torsion

> <Gold.Protein.ActiveResidues>
 VAL166  LYS551  ARG553  GLY616  TRP617  ASP618  TYR619  PRO620  LYS621  CYS622 
 ASP623  PHE694  ASN695  SER759  ASP760  ASP761  ALA762  ILE779  LEU786  VAL792 
 PHE793  MET794  SER795  GLU796  ALA797  LYS798  CYS799  TRP800  GLU811  SER814 

> <Gold.Protein.RotatedAtoms>
  151.6105  135.1040  160.0079 H   0  0  0  0  0  0  0  0  0  0  0  0  # atno 6907 bound_to 6896
  152.4211  133.7113  159.6491 H   0  0  0  0  0  0  0  0  0  0  0  0  # atno 6908 bound_to 6896
  150.8098  133.8369  159.3209 H   0  0  0  0  0  0  0  0  0  0  0  0  # atno 6909 bound_to 6896
  145.5528  139.2297  143.2503 H   0  0  0  0  0  0  0  0  0  0  0  0  # atno 7974 bound_to 7965
  154.7425  140.0493  157.0823 H   0  0  0  0  0  0  0  0  0  0  0  0  # atno 8008 bound_to 7997
  155.0160  140.3141  155.4792 H   0  0  0  0  0  0  0  0  0  0  0  0  # atno 8009 bound_to 7997
  156.2867  140.2175  156.5276 H   0  0  0  0  0  0  0  0  0  0  0  0  # atno 8010 bound_to 7997
  139.4856  144.5566  151.7307 H   0  0  0  0  0  0  0  0  0  0  0  0  # atno 10167 bound_to 10162
  157.6952  131.0494  150.4105 H   0  0  0  0  0  0  0  0  0  0  0  0  # atno 10718 bound_to 10713
  152.9935  135.5519  154.5951 H   0  0  0  0  0  0  0  0  0  0  0  0  # atno 10763 bound_to 10752
  154.5305  135.2813  155.1187 H   0  0  0  0  0  0  0  0  0  0  0  0  # atno 10764 bound_to 10752
  154.2504  135.6400  153.5291 H   0  0  0  0  0  0  0  0  0  0  0  0  # atno 10765 bound_to 10752
  140.9049  133.7499  156.0592 H   0  0  0  0  0  0  0  0  0  0  0  0  # atno 11005 bound_to 11000
  146.1905  140.6352  142.9148 LP  0  0  0  0  0  0  0  0  0  0  0  0  # atno 17320 bound_to 7965
  144.7521  140.5216  143.6795 LP  0  0  0  0  0  0  0  0  0  0  0  0  # atno 17321 bound_to 7965
  140.5128  144.0999  150.6000 LP  0  0  0  0  0  0  0  0  0  0  0  0  # atno 17342 bound_to 10162
  140.3930  143.2742  152.0038 LP  0  0  0  0  0  0  0  0  0  0  0  0  # atno 17343 bound_to 10162
  156.4489  130.4007  149.6648 LP  0  0  0  0  0  0  0  0  0  0  0  0  # atno 17370 bound_to 10713
  156.3805  130.7576  151.2569 LP  0  0  0  0  0  0  0  0  0  0  0  0  # atno 17371 bound_to 10713
  140.8184  134.3318  157.5389 LP  0  0  0  0  0  0  0  0  0  0  0  0  # atno 17394 bound_to 11000
  139.8748  134.9295  156.3477 LP  0  0  0  0  0  0  0  0  0  0  0  0  # atno 17395 bound_to 11000

$$$$
