AV-unprocessed.smi:2489|AV-procd|sdf|9806|dock7
  -GOLD-   2272013443D 1   1.00000     0.00000
 Structure written by MMmdl.
 34 35  0  0  0  0  0  0  0  0  2 V2000
  153.7525  142.0733  161.1985 C   0  0  0  0  0  0  0  0  0  0  0  0
  153.1539  141.5670  160.0143 O   0  0  0  0  0  0  0  0  0  0  0  0
  152.3565  142.4164  159.2785 C   0  0  0  0  0  0  0  0  0  0  0  0
  152.1546  143.7870  159.5807 C   0  0  0  0  0  0  0  0  0  0  0  0
  151.3061  144.5553  158.7608 C   0  0  0  0  0  0  0  0  0  0  0  0
  150.7008  143.9878  157.6962 N   0  3  0  0  0  0  0  0  0  0  0  0
  150.8660  142.6919  157.3478 C   0  0  0  0  0  0  0  0  0  0  0  0
  150.1530  142.2300  156.2090 N   0  0  0  0  0  0  0  0  0  0  0  0
  150.3111  141.0762  155.5343 C   0  0  0  0  0  0  0  0  0  0  0  0
  151.1393  140.2110  155.8210 O   0  0  0  0  0  0  0  0  0  0  0  0
  149.3689  140.8811  154.3348 C   0  0  1  0  0  0  0  0  0  0  0  0
  148.3960  139.6916  154.4731 C   0  0  0  0  0  0  0  0  0  0  0  0
  147.0161  140.3268  154.4297 C   0  0  0  0  0  0  0  0  0  0  0  0
  147.2867  141.7720  154.8336 C   0  0  2  0  0  0  0  0  0  0  0  0
  146.2266  142.7681  154.3525 C   0  0  0  0  0  0  0  0  0  0  0  0
  148.5388  142.0345  154.2161 O   0  0  0  0  0  0  0  0  0  0  0  0
  151.6981  141.8746  158.1535 C   0  0  0  0  0  0  0  0  0  0  0  0
  154.3495  141.2887  161.6631 H   0  0  0  0  0  0  0  0  0  0  0  0
  152.9997  142.3873  161.9227 H   0  0  0  0  0  0  0  0  0  0  0  0
  154.4186  142.9100  160.9829 H   0  0  0  0  0  0  0  0  0  0  0  0
  152.6286  144.2626  160.4260 H   0  0  0  0  0  0  0  0  0  0  0  0
  151.0945  145.6021  158.9244 H   0  0  0  0  0  0  0  0  0  0  0  0
  149.4875  142.8806  155.8173 H   0  0  0  0  0  0  0  0  0  0  0  0
  149.9547  140.7832  153.4192 H   0  0  0  0  0  0  0  0  0  0  0  0
  148.5209  138.9727  153.6627 H   0  0  0  0  0  0  0  0  0  0  0  0
  148.5309  139.1442  155.4069 H   0  0  0  0  0  0  0  0  0  0  0  0
  146.6283  140.2866  153.4108 H   0  0  0  0  0  0  0  0  0  0  0  0
  146.2980  139.8314  155.0837 H   0  0  0  0  0  0  0  0  0  0  0  0
  147.4001  141.8416  155.9167 H   0  0  0  0  0  0  0  0  0  0  0  0
  145.2550  142.5488  154.7953 H   0  0  0  0  0  0  0  0  0  0  0  0
  146.1165  142.7368  153.2681 H   0  0  0  0  0  0  0  0  0  0  0  0
  146.4965  143.7872  154.6301 H   0  0  0  0  0  0  0  0  0  0  0  0
  151.8365  140.8266  157.9352 H   0  0  0  0  0  0  0  0  0  0  0  0
  150.0921  144.5724  157.1228 H   0  0  0  0  0  0  0  0  0  0  0  0
  1  2  1  0  0  0  0
  1 18  1  0  0  0  0
  1 19  1  0  0  0  0
  1 20  1  0  0  0  0
  2  3  1  0  0  0  0
  3 17  1  0  0  0  0
  3  4  2  0  0  0  0
  4  5  1  0  0  0  0
  4 21  1  0  0  0  0
  5  6  2  0  0  0  0
  5 22  1  0  0  0  0
  6  7  1  0  0  0  0
  6 34  1  0  0  0  0
  7  8  1  0  0  0  0
  7 17  2  0  0  0  0
  8  9  1  0  0  0  0
  8 23  1  0  0  0  0
  9 10  2  0  0  0  0
  9 11  1  0  0  0  0
 11 16  1  0  0  0  0
 11 12  1  0  0  0  0
 11 24  1  0  0  0  0
 12 13  1  0  0  0  0
 12 25  1  0  0  0  0
 12 26  1  0  0  0  0
 13 14  1  0  0  0  0
 13 27  1  0  0  0  0
 13 28  1  0  0  0  0
 14 15  1  0  0  0  0
 14 16  1  0  0  0  0
 14 29  1  0  0  0  0
 15 30  1  0  0  0  0
 15 31  1  0  0  0  0
 15 32  1  0  0  0  0
 17 33  1  0  0  0  0
M  CHG  1   6   1
M  END
> <s_m_source_file>
AV-unprocessed.smi

> <i_m_source_file_index>
2489

> <i_lp_mmshare_version>
43012

> <i_f3d_flags>
0

> <s_epik_input>
W0NIM11PYzFbY0hdW2NIXW5jKFtjSF0xKVtOSF1DKD1PKVtDQEBIXTJbQ0gyXVtDSDJdW0NASF0oTzIpW0NIM10=

> <s_epik_cmdline>
J2VwaWtfcHl0aG9uJywgJy1waCcsICc3LjAnLCAnLXRuJywgJzgnLCAnLW1hJywgJzIwMCcsICctbWV0YWxfYmluZGluZycsICctaW1hZScsICc8aW5maWxlLm1hZT4nLCAnLW9tYWUnLCAnPG91dGZpbGUubWFlPic=

> <r_epik_Ionization_Penalty>
1.58956

> <r_epik_Ionization_Penalty_Charging>
1.1784

> <r_epik_Ionization_Penalty_Neutral>
0.411158

> <r_epik_State_Penalty>
1.31089

> <r_epik_Charging_Adjusted_Penalty>
2.48928

> <i_epik_Tot_Q>
1

> <i_epik_Tot_abs_Q>
1

> <r_epik_Metal_State_Penalty>
5.00213

> <b_epik_Metal_Only>
0

> <s_lp_Force_Field>
OPLS_2005

> <r_lp_Energy>
33.2408

> <b_lp_Chiralities_Consistent>
1

> <s_lp_Variant>
AV-unprocessed.smi:2489-12

> <Gold.Version>
5.8.1

> <Gold.Id.Protein>
6NUR|6NUR_protein|mol2

> <Gold.PLP.Fitness>
48.6997

> <Gold.PLP.PLP>
-39.2520

> <Gold.PLP.part.hbond>
-3.0000

> <Gold.PLP.part.metal>
0.0000

> <Gold.PLP.part.buried>
-6.3161

> <Gold.PLP.part.nonpolar>
-32.0162

> <Gold.PLP.part.repulsive>
0.3214

> <Gold.PLP.ligand.clash>
0.0000

> <Gold.PLP.ligand.torsion>
0.0693

> <Gold.PLP.Chemscore.Hbond>
3.1924

> <Gold.PLP.Chemscore.CHOScore>
0.0000

> <Gold.PLP.Chemscore.Metal>
0.0000

> <Gold.Chemscore.Hbonds>
donor molecule, donor type, donor heavy atom, donor atom, acceptor molecule, acceptor atom, score
      L1  H     6    34       P1  8028  2.00
      L1  H     8    23       P1  8028  0.96
      P1  H  8011  8017       L1    16  0.03

> <Gold.PLP.Chemscore.Internal.Correction>
0.0091

> <Gold.Rescore>
     Score         DG    S(hbond)    S(metal)    S(lipo)     H(rot)  DE(clash)    DE(int)     intcor
     16.71     -18.07       1.72        0.00      85.52       1.24       0.05       1.31       ----

> <Gold.Chemscore.Fitness>
16.7070

> <Gold.Chemscore.DG>
-18.0691

> <Gold.Chemscore.ZeroCoef>
-5.4800

> <Gold.Chemscore.Hbond>
1.7246

> <Gold.Chemscore.Metal>
0.0000

> <Gold.Chemscore.Lipo>
85.5186

> <Gold.Chemscore.Internal_Hbond>
0.0000

> <Gold.Chemscore.DEClash>
0.0498

> <Gold.Chemscore.DEInternal>
1.3123

> <Gold.Chemscore.Rot>
1.2409

> <Gold.Chemscore.Internal.Correction>
   9.000000E+99

> <Gold.Chemscore.Hbonds>
donor molecule, donor type, donor heavy atom, donor atom, acceptor molecule, acceptor atom, score
      L1  H     6    34       P1  8028  0.43
      L1  H     8    23       P1  8028  0.91

> <Gold.Chemscore.Hbond.Weighted>
-5.7601

> <Gold.Chemscore.Metal.Weighted>
-0.0000

> <Gold.Chemscore.Lipo.Weighted>
-10.0057

> <Gold.Chemscore.Internal_Hbond.Weighted>
0.0000

> <Gold.Chemscore.DEClash.Weighted>
0.0498

> <Gold.Chemscore.DEInternal.Weighted>
1.3123

> <Gold.Chemscore.Rot.Weighted>
3.1767

> <Gold.Chemscore.Internal.Correction.Weighted>
   9.000000E+99

> <Gold.Protein.RotatedTorsions>
[ 6907 6896 6895 6894 ] final   94.41 input  -60.11 | X-H torsion
[ 7974 7965 7964 7962 ] final  -84.41 input  175.53 | X-H torsion
[ 8008 7997 7996 7995 ] final -178.13 input   59.86 | X-H torsion
[ 10167 10162 10161 10158 ] final -135.78 input  -65.29 | X-H torsion
[ 10718 10713 10712 10709 ] final -130.97 input   66.30 | X-H torsion
[ 10763 10752 10751 10750 ] final -179.01 input  -60.55 | X-H torsion
[ 11005 11000 10999 10996 ] final  141.57 input  -57.11 | X-H torsion

> <Gold.Protein.ActiveResidues>
 VAL166  LYS551  ARG553  GLY616  TRP617  ASP618  TYR619  PRO620  LYS621  CYS622 
 ASP623  PHE694  ASN695  SER759  ASP760  ASP761  ALA762  ILE779  LEU786  VAL792 
 PHE793  MET794  SER795  GLU796  ALA797  LYS798  CYS799  TRP800  GLU811  SER814 

> <Gold.Protein.RotatedAtoms>
  152.5449  134.1199  159.8393 H   0  0  0  0  0  0  0  0  0  0  0  0  # atno 6907 bound_to 6896
  151.1256  133.5066  159.2608 H   0  0  0  0  0  0  0  0  0  0  0  0  # atno 6908 bound_to 6896
  151.1731  135.0337  159.8815 H   0  0  0  0  0  0  0  0  0  0  0  0  # atno 6909 bound_to 6896
  145.5069  140.9543  143.1729 H   0  0  0  0  0  0  0  0  0  0  0  0  # atno 7974 bound_to 7965
  156.0152  140.1249  157.0413 H   0  0  0  0  0  0  0  0  0  0  0  0  # atno 8008 bound_to 7997
  154.4290  140.1079  156.5956 H   0  0  0  0  0  0  0  0  0  0  0  0  # atno 8009 bound_to 7997
  155.6023  140.3470  155.4599 H   0  0  0  0  0  0  0  0  0  0  0  0  # atno 8010 bound_to 7997
  139.8744  143.6917  152.2636 H   0  0  0  0  0  0  0  0  0  0  0  0  # atno 10167 bound_to 10162
  156.2198  130.6971  151.0743 H   0  0  0  0  0  0  0  0  0  0  0  0  # atno 10718 bound_to 10713
  154.5405  135.2806  155.1099 H   0  0  0  0  0  0  0  0  0  0  0  0  # atno 10763 bound_to 10752
  154.2584  135.6326  153.5269 H   0  0  0  0  0  0  0  0  0  0  0  0  # atno 10764 bound_to 10752
  152.9978  135.5599  154.5943 H   0  0  0  0  0  0  0  0  0  0  0  0  # atno 10765 bound_to 10752
  140.0411  134.9304  157.0845 H   0  0  0  0  0  0  0  0  0  0  0  0  # atno 11005 bound_to 11000
  144.7749  139.6653  143.7179 LP  0  0  0  0  0  0  0  0  0  0  0  0  # atno 17320 bound_to 7965
  146.2191  139.5603  142.9630 LP  0  0  0  0  0  0  0  0  0  0  0  0  # atno 17321 bound_to 7965
  139.7254  144.7594  151.0887 LP  0  0  0  0  0  0  0  0  0  0  0  0  # atno 17342 bound_to 10162
  140.7755  143.5155  150.9600 LP  0  0  0  0  0  0  0  0  0  0  0  0  # atno 17343 bound_to 10162
  157.7081  131.0747  150.6595 LP  0  0  0  0  0  0  0  0  0  0  0  0  # atno 17370 bound_to 10713
  156.6658  130.4525  149.5673 LP  0  0  0  0  0  0  0  0  0  0  0  0  # atno 17371 bound_to 10713
  140.4068  134.2024  155.7163 LP  0  0  0  0  0  0  0  0  0  0  0  0  # atno 17394 bound_to 11000
  141.1883  133.8262  157.0999 LP  0  0  0  0  0  0  0  0  0  0  0  0  # atno 17395 bound_to 11000

$$$$
