AV-unprocessed.smi:3164|AV-procd|sdf|12080|dock4
  -GOLD-   2272017503D 1   1.00000     0.00000
 Structure written by MMmdl.
 40 41  0  0  0  0  0  0  0  0  3 V2000
  149.8877  136.9769  155.3213 C   0  0  0  0  0  0  0  0  0  0  0  0
  150.4291  137.8165  154.2275 N   0  3  2  0  0  0  0  0  0  0  0  0
  151.8973  138.0087  154.2932 C   0  0  0  0  0  0  0  0  0  0  0  0
  152.2767  139.0777  155.3343 C   0  0  0  0  0  0  0  0  0  0  0  0
  151.5883  140.2896  155.0465 O   0  0  0  0  0  0  0  0  0  0  0  0
  150.1734  140.1450  155.1209 C   0  0  1  0  0  0  0  0  0  0  0  0
  149.5380  141.5218  154.8728 C   0  0  0  0  0  0  0  0  0  0  0  0
  149.1261  142.1648  156.1373 N   0  3  0  0  0  0  0  0  0  0  0  0
  150.1060  142.0145  157.2307 C   0  0  0  0  0  0  0  0  0  0  0  0
  151.0535  143.2203  157.2959 C   0  0  0  0  0  0  0  0  0  0  0  0
  151.3023  143.6733  158.7219 C   0  0  0  0  0  0  0  0  0  0  0  0
  151.9666  142.8329  159.6403 C   0  0  0  0  0  0  0  0  0  0  0  0
  152.1605  143.2981  160.9555 C   0  0  0  0  0  0  0  0  0  0  0  0
  151.6839  144.5776  161.2992 C   0  0  0  0  0  0  0  0  0  0  0  0
  151.0332  145.3396  160.3085 C   0  0  0  0  0  0  0  0  0  0  0  0
  150.8413  144.9025  159.0447 N   0  0  0  0  0  0  0  0  0  0  0  0
  149.7263  139.1119  154.0622 C   0  0  0  0  0  0  0  0  0  0  0  0
  150.0201  137.4431  156.2976 H   0  0  0  0  0  0  0  0  0  0  0  0
  150.3848  136.0066  155.3395 H   0  0  0  0  0  0  0  0  0  0  0  0
  148.8225  136.7966  155.1733 H   0  0  0  0  0  0  0  0  0  0  0  0
  152.3969  137.0628  154.5069 H   0  0  0  0  0  0  0  0  0  0  0  0
  152.2444  138.3263  153.3090 H   0  0  0  0  0  0  0  0  0  0  0  0
  152.0480  138.7450  156.3480 H   0  0  0  0  0  0  0  0  0  0  0  0
  153.3499  139.2662  155.3004 H   0  0  0  0  0  0  0  0  0  0  0  0
  149.8913  139.8013  156.1175 H   0  0  0  0  0  0  0  0  0  0  0  0
  150.2353  142.1706  154.3406 H   0  0  0  0  0  0  0  0  0  0  0  0
  148.6571  141.4094  154.2393 H   0  0  0  0  0  0  0  0  0  0  0  0
  148.9839  143.1508  155.9703 H   0  0  0  0  0  0  0  0  0  0  0  0
  149.5732  141.9050  158.1763 H   0  0  0  0  0  0  0  0  0  0  0  0
  150.6801  141.0997  157.0759 H   0  0  0  0  0  0  0  0  0  0  0  0
  152.0070  142.9732  156.8266 H   0  0  0  0  0  0  0  0  0  0  0  0
  150.6394  144.0550  156.7280 H   0  0  0  0  0  0  0  0  0  0  0  0
  152.3191  141.8542  159.3489 H   0  0  0  0  0  0  0  0  0  0  0  0
  152.6646  142.6842  161.6873 H   0  0  0  0  0  0  0  0  0  0  0  0
  151.8140  144.9664  162.2984 H   0  0  0  0  0  0  0  0  0  0  0  0
  150.6558  146.3253  160.5377 H   0  0  0  0  0  0  0  0  0  0  0  0
  149.9508  139.4930  153.0648 H   0  0  0  0  0  0  0  0  0  0  0  0
  148.6468  138.9597  154.0979 H   0  0  0  0  0  0  0  0  0  0  0  0
  148.2508  141.7572  156.4349 H   0  0  0  0  0  0  0  0  0  0  0  0
  150.2524  137.2893  153.3835 H   0  0  0  0  0  0  0  0  0  0  0  0
  1  2  1  0  0  0  0
  1 18  1  0  0  0  0
  1 19  1  0  0  0  0
  1 20  1  0  0  0  0
  2 17  1  0  0  0  0
  2  3  1  0  0  0  0
  2 40  1  0  0  0  0
  3  4  1  0  0  0  0
  3 21  1  0  0  0  0
  3 22  1  0  0  0  0
  4  5  1  0  0  0  0
  4 23  1  0  0  0  0
  4 24  1  0  0  0  0
  5  6  1  0  0  0  0
  6  7  1  0  0  0  0
  6 17  1  0  0  0  0
  6 25  1  0  0  0  0
  7  8  1  0  0  0  0
  7 26  1  0  0  0  0
  7 27  1  0  0  0  0
  8  9  1  0  0  0  0
  8 28  1  0  0  0  0
  8 39  1  0  0  0  0
  9 10  1  0  0  0  0
  9 29  1  0  0  0  0
  9 30  1  0  0  0  0
 10 11  1  0  0  0  0
 10 31  1  0  0  0  0
 10 32  1  0  0  0  0
 11 16  1  0  0  0  0
 11 12  2  0  0  0  0
 12 13  1  0  0  0  0
 12 33  1  0  0  0  0
 13 14  2  0  0  0  0
 13 34  1  0  0  0  0
 14 15  1  0  0  0  0
 14 35  1  0  0  0  0
 15 16  2  0  0  0  0
 15 36  1  0  0  0  0
 17 37  1  0  0  0  0
 17 38  1  0  0  0  0
M  CHG  1   2   1
M  CHG  1   8   1
M  END
> <s_m_source_file>
AV-unprocessed.smi

> <i_m_source_file_index>
3164

> <i_lp_mmshare_version>
43012

> <i_f3d_flags>
0

> <s_epik_input>
W0NIM11OMVtDSDJdW0NIMl1PW0NASF0oW0NIMl0xKVtDSDJdW05IXVtDSDJdW0NIMl1jMltjSF1bY0hdW2NIXVtjSF1uMg==

> <s_epik_cmdline>
J2VwaWtfcHl0aG9uJywgJy1waCcsICc3LjAnLCAnLXRuJywgJzgnLCAnLW1hJywgJzIwMCcsICctbWV0YWxfYmluZGluZycsICctaW1hZScsICc8aW5maWxlLm1hZT4nLCAnLW9tYWUnLCAnPG91dGZpbGUubWFlPic=

> <r_epik_Ionization_Penalty>
0.294944

> <r_epik_Ionization_Penalty_Charging>
0.29381

> <r_epik_Ionization_Penalty_Neutral>
0.00113372

> <r_epik_State_Penalty>
0.271365

> <r_epik_Charging_Adjusted_Penalty>
0.565175

> <i_epik_Tot_Q>
2

> <i_epik_Tot_abs_Q>
2

> <r_epik_Metal_State_Penalty>
0.271365

> <b_epik_Metal_Only>
0

> <s_lp_Force_Field>
OPLS_2005

> <r_lp_Energy>
22.4199

> <b_lp_Chiralities_Consistent>
1

> <s_lp_Variant>
AV-unprocessed.smi:3164-2

> <Gold.Version>
5.8.1

> <Gold.Id.Protein>
6NUR|6NUR_protein|mol2

> <Gold.PLP.Fitness>
54.7859

> <Gold.PLP.PLP>
-42.1691

> <Gold.PLP.part.hbond>
-3.0516

> <Gold.PLP.part.metal>
0.0000

> <Gold.PLP.part.buried>
-5.9230

> <Gold.PLP.part.nonpolar>
-34.4482

> <Gold.PLP.part.repulsive>
0.2690

> <Gold.PLP.ligand.clash>
0.0000

> <Gold.PLP.ligand.torsion>
1.1979

> <Gold.PLP.Chemscore.Hbond>
5.0000

> <Gold.PLP.Chemscore.CHOScore>
0.0000

> <Gold.PLP.Chemscore.Metal>
0.0000

> <Gold.Chemscore.Hbonds>
donor molecule, donor type, donor heavy atom, donor atom, acceptor molecule, acceptor atom, score
      L1  H     2    40       P1  7948  0.86
      L1  H     8    28       P1  8028  2.00
      P1  H  7989  7998       L1     5  0.80

> <Gold.PLP.Chemscore.Internal.Correction>
0.0126

> <Gold.Rescore>
     Score         DG    S(hbond)    S(metal)    S(lipo)     H(rot)  DE(clash)    DE(int)     intcor
     22.75     -24.37       2.85        0.00     116.01       1.65       0.32       1.31       ----

> <Gold.Chemscore.Fitness>
22.7506

> <Gold.Chemscore.DG>
-24.3742

> <Gold.Chemscore.ZeroCoef>
-5.4800

> <Gold.Chemscore.Hbond>
2.8543

> <Gold.Chemscore.Metal>
0.0000

> <Gold.Chemscore.Lipo>
116.0095

> <Gold.Chemscore.Internal_Hbond>
0.0000

> <Gold.Chemscore.DEClash>
0.3172

> <Gold.Chemscore.DEInternal>
1.3064

> <Gold.Chemscore.Rot>
1.6454

> <Gold.Chemscore.Internal.Correction>
   9.000000E+99

> <Gold.Chemscore.Hbonds>
donor molecule, donor type, donor heavy atom, donor atom, acceptor molecule, acceptor atom, score
      L1  H     2    40       P1  7948  0.06
      L1  H     8    28       P1  8028  0.99
      P1  H  7989  7998       L1     5  0.13

> <Gold.Chemscore.Hbond.Weighted>
-9.5333

> <Gold.Chemscore.Metal.Weighted>
-0.0000

> <Gold.Chemscore.Lipo.Weighted>
-13.5731

> <Gold.Chemscore.Internal_Hbond.Weighted>
0.0000

> <Gold.Chemscore.DEClash.Weighted>
0.3172

> <Gold.Chemscore.DEInternal.Weighted>
1.3064

> <Gold.Chemscore.Rot.Weighted>
4.2122

> <Gold.Chemscore.Internal.Correction.Weighted>
   9.000000E+99

> <Gold.Protein.RotatedTorsions>
[ 6907 6896 6895 6894 ] final   85.39 input  -60.11 | X-H torsion
[ 7974 7965 7964 7962 ] final -118.69 input  175.53 | X-H torsion
[ 8008 7997 7996 7995 ] final   30.79 input   59.86 | X-H torsion
[ 10167 10162 10161 10158 ] final  177.83 input  -65.29 | X-H torsion
[ 10718 10713 10712 10709 ] final -150.40 input   66.30 | X-H torsion
[ 10763 10752 10751 10750 ] final   84.23 input  -60.55 | X-H torsion
[ 11005 11000 10999 10996 ] final  -23.70 input  -57.11 | X-H torsion

> <Gold.Protein.ActiveResidues>
 VAL166  LYS551  ARG553  GLY616  TRP617  ASP618  TYR619  PRO620  LYS621  CYS622 
 ASP623  PHE694  ASN695  SER759  ASP760  ASP761  ALA762  ILE779  LEU786  VAL792 
 PHE793  MET794  SER795  GLU796  ALA797  LYS798  CYS799  TRP800  GLU811  SER814 

> <Gold.Protein.RotatedAtoms>
  152.5374  134.2593  159.8928 H   0  0  0  0  0  0  0  0  0  0  0  0  # atno 6907 bound_to 6896
  151.2553  133.4322  159.2621 H   0  0  0  0  0  0  0  0  0  0  0  0  # atno 6908 bound_to 6896
  151.0501  134.9681  159.8263 H   0  0  0  0  0  0  0  0  0  0  0  0  # atno 6909 bound_to 6896
  145.0710  140.8359  143.4096 H   0  0  0  0  0  0  0  0  0  0  0  0  # atno 7974 bound_to 7965
  155.0960  140.3225  155.4560 H   0  0  0  0  0  0  0  0  0  0  0  0  # atno 8008 bound_to 7997
  156.2730  140.2069  156.6033 H   0  0  0  0  0  0  0  0  0  0  0  0  # atno 8009 bound_to 7997
  154.6866  140.0520  157.0308 H   0  0  0  0  0  0  0  0  0  0  0  0  # atno 8010 bound_to 7997
  139.5269  144.2752  152.0594 H   0  0  0  0  0  0  0  0  0  0  0  0  # atno 10167 bound_to 10162
  156.4457  130.8143  151.2374 H   0  0  0  0  0  0  0  0  0  0  0  0  # atno 10718 bound_to 10713
  153.1362  135.4662  154.9426 H   0  0  0  0  0  0  0  0  0  0  0  0  # atno 10763 bound_to 10752
  154.7708  135.3158  154.8196 H   0  0  0  0  0  0  0  0  0  0  0  0  # atno 10764 bound_to 10752
  153.8727  135.6902  153.4827 H   0  0  0  0  0  0  0  0  0  0  0  0  # atno 10765 bound_to 10752
  140.8776  133.7676  156.0263 H   0  0  0  0  0  0  0  0  0  0  0  0  # atno 11005 bound_to 11000
  145.1293  139.2642  143.5548 LP  0  0  0  0  0  0  0  0  0  0  0  0  # atno 17320 bound_to 7965
  146.3528  140.0939  142.8611 LP  0  0  0  0  0  0  0  0  0  0  0  0  # atno 17321 bound_to 7965
  140.2209  144.4467  150.6342 LP  0  0  0  0  0  0  0  0  0  0  0  0  # atno 17342 bound_to 10162
  140.6419  143.2205  151.6272 LP  0  0  0  0  0  0  0  0  0  0  0  0  # atno 17343 bound_to 10162
  157.7505  131.0154  150.3503 LP  0  0  0  0  0  0  0  0  0  0  0  0  # atno 17370 bound_to 10713
  156.3870  130.3891  149.7058 LP  0  0  0  0  0  0  0  0  0  0  0  0  # atno 17371 bound_to 10713
  140.8499  134.2966  157.5279 LP  0  0  0  0  0  0  0  0  0  0  0  0  # atno 17394 bound_to 11000
  139.8717  134.9462  156.3932 LP  0  0  0  0  0  0  0  0  0  0  0  0  # atno 17395 bound_to 11000

$$$$
