AV-unprocessed.smi:637|AV-procd|sdf|3142|dock7
  -GOLD-   22720 0 73D 1   1.00000     0.00000
 Structure written by MMmdl.
 38 40  0  0  0  0  0  0  0  0  1 V2000
  143.5771  145.0857  155.2120 C   0  0  0  0  0  0  0  0  0  0  0  0
  144.6570  144.2159  154.6639 C   0  0  0  0  0  0  0  0  0  0  0  0
  145.1187  144.1647  153.3711 C   0  0  0  0  0  0  0  0  0  0  0  0
  146.1696  143.2187  153.1813 C   0  0  0  0  0  0  0  0  0  0  0  0
  146.4839  142.5626  154.3478 C   0  0  0  0  0  0  0  0  0  0  0  0
  147.5406  141.5654  154.3945 C   0  0  0  0  0  0  0  0  0  0  0  0
  147.5626  140.4377  153.4790 C   0  0  0  0  0  0  0  0  0  0  0  0
  148.5418  139.5146  153.5937 C   0  0  0  0  0  0  0  0  0  0  0  0
  149.5811  139.6166  154.6163 C   0  0  0  0  0  0  0  0  0  0  0  0
  150.4648  138.7737  154.7678 O   0  0  0  0  0  0  0  0  0  0  0  0
  149.4721  140.7277  155.4007 N   0  0  0  0  0  0  0  0  0  0  0  0
  150.3976  140.9617  156.5176 C   0  0  0  0  0  0  0  0  0  0  0  0
  150.2506  142.3781  157.1221 C   0  0  1  0  0  0  0  0  0  0  0  0
  148.9254  142.5314  157.5879 O   0  0  0  0  0  0  0  0  0  0  0  0
  151.2797  142.6629  158.2089 C   0  0  0  0  0  0  0  0  0  0  0  0
  151.3807  143.9510  158.7798 C   0  0  0  0  0  0  0  0  0  0  0  0
  152.2977  144.1966  159.8201 C   0  0  0  0  0  0  0  0  0  0  0  0
  153.1189  143.1563  160.2952 C   0  0  0  0  0  0  0  0  0  0  0  0
  153.0239  141.8707  159.7288 C   0  0  0  0  0  0  0  0  0  0  0  0
  153.8098  140.8687  160.1890 F   0  0  0  0  0  0  0  0  0  0  0  0
  152.1079  141.6248  158.6879 C   0  0  0  0  0  0  0  0  0  0  0  0
  148.4775  141.6828  155.2796 N   0  0  0  0  0  0  0  0  0  0  0  0
  145.5100  143.0905  155.6924 S   0  0  0  0  0  0  0  0  0  0  0  0
  143.2148  145.7855  154.4586 H   0  0  0  0  0  0  0  0  0  0  0  0
  143.9408  145.6648  156.0611 H   0  0  0  0  0  0  0  0  0  0  0  0
  142.7318  144.4857  155.5493 H   0  0  0  0  0  0  0  0  0  0  0  0
  144.7430  144.7715  152.5606 H   0  0  0  0  0  0  0  0  0  0  0  0
  146.6353  143.0733  152.2169 H   0  0  0  0  0  0  0  0  0  0  0  0
  146.8055  140.3363  152.7161 H   0  0  0  0  0  0  0  0  0  0  0  0
  148.5577  138.6756  152.9137 H   0  0  0  0  0  0  0  0  0  0  0  0
  150.2570  140.2052  157.2919 H   0  0  0  0  0  0  0  0  0  0  0  0
  151.4219  140.8224  156.1659 H   0  0  0  0  0  0  0  0  0  0  0  0
  150.3835  143.1120  156.3262 H   0  0  0  0  0  0  0  0  0  0  0  0
  148.5399  143.2760  157.1519 H   0  0  0  0  0  0  0  0  0  0  0  0
  150.7443  144.7509  158.4307 H   0  0  0  0  0  0  0  0  0  0  0  0
  152.3672  145.1817  160.2570 H   0  0  0  0  0  0  0  0  0  0  0  0
  153.8195  143.3440  161.0953 H   0  0  0  0  0  0  0  0  0  0  0  0
  152.0322  140.6319  158.2692 H   0  0  0  0  0  0  0  0  0  0  0  0
  1  2  1  0  0  0  0
  1 24  1  0  0  0  0
  1 25  1  0  0  0  0
  1 26  1  0  0  0  0
  2 23  1  0  0  0  0
  2  3  2  0  0  0  0
  3  4  1  0  0  0  0
  3 27  1  0  0  0  0
  4  5  2  0  0  0  0
  4 28  1  0  0  0  0
  5  6  1  0  0  0  0
  5 23  1  0  0  0  0
  6 22  2  0  0  0  0
  6  7  1  0  0  0  0
  7  8  2  0  0  0  0
  7 29  1  0  0  0  0
  8  9  1  0  0  0  0
  8 30  1  0  0  0  0
  9 10  2  0  0  0  0
  9 11  1  0  0  0  0
 11 12  1  0  0  0  0
 11 22  1  0  0  0  0
 12 13  1  0  0  0  0
 12 31  1  0  0  0  0
 12 32  1  0  0  0  0
 13 14  1  0  0  0  0
 13 15  1  0  0  0  0
 13 33  1  0  0  0  0
 14 34  1  0  0  0  0
 15 21  1  0  0  0  0
 15 16  2  0  0  0  0
 16 17  1  0  0  0  0
 16 35  1  0  0  0  0
 17 18  2  0  0  0  0
 17 36  1  0  0  0  0
 18 19  1  0  0  0  0
 18 37  1  0  0  0  0
 19 20  1  0  0  0  0
 19 21  2  0  0  0  0
 21 38  1  0  0  0  0
M  END
> <s_m_source_file>
AV-unprocessed.smi

> <i_m_source_file_index>
637

> <i_lp_mmshare_version>
43012

> <i_f3d_flags>
0

> <s_epik_input>
W0NIM11jMVtjSF1bY0hdYyhzMSktYzJbY0hdW2NIXWMoPU8pbihuMilbQ0gyXVtDQEhdKFtPSF0pYzNbY0hdW2NIXVtjSF1jKEYpW2NIXTM=

> <s_epik_cmdline>
J2VwaWtfcHl0aG9uJywgJy1waCcsICc3LjAnLCAnLXRuJywgJzgnLCAnLW1hJywgJzIwMCcsICctbWV0YWxfYmluZGluZycsICctaW1hZScsICc8aW5maWxlLm1hZT4nLCAnLW9tYWUnLCAnPG91dGZpbGUubWFlPic=

> <r_lp_tautomer_probability>
1

> <r_epik_Ionization_Penalty>
2.26963e-07

> <r_epik_Ionization_Penalty_Charging>
5.89185e-08

> <r_epik_Ionization_Penalty_Neutral>
1.68044e-07

> <r_epik_State_Penalty>
-0

> <r_epik_Charging_Adjusted_Penalty>
5.89185e-08

> <i_epik_Tot_Q>
0

> <i_epik_Tot_abs_Q>
0

> <r_epik_Metal_State_Penalty>
-0

> <b_epik_Metal_Only>
0

> <s_lp_Force_Field>
OPLS_2005

> <r_lp_Energy>
25.403

> <b_lp_Chiralities_Consistent>
1

> <s_lp_Variant>
AV-unprocessed.smi:637-2

> <Gold.Version>
5.8.1

> <Gold.Id.Protein>
6NUR|6NUR_protein|mol2

> <Gold.PLP.Fitness>
48.4723

> <Gold.PLP.PLP>
-47.9912

> <Gold.PLP.part.hbond>
-1.0000

> <Gold.PLP.part.metal>
0.0000

> <Gold.PLP.part.buried>
-1.8046

> <Gold.PLP.part.nonpolar>
-45.9033

> <Gold.PLP.part.repulsive>
0.7224

> <Gold.PLP.ligand.clash>
0.0059

> <Gold.PLP.ligand.torsion>
1.1434

> <Gold.PLP.Chemscore.Hbond>
0.9120

> <Gold.PLP.Chemscore.CHOScore>
0.0000

> <Gold.PLP.Chemscore.Metal>
0.0000

> <Gold.Chemscore.Hbonds>
donor molecule, donor type, donor heavy atom, donor atom, acceptor molecule, acceptor atom, score
      L1  H    14    34       P1  8028  0.76

> <Gold.PLP.Chemscore.Internal.Correction>
0.0378

> <Gold.Rescore>
     Score         DG    S(hbond)    S(metal)    S(lipo)     H(rot)  DE(clash)    DE(int)     intcor
     15.74     -20.36       0.85        0.00     142.73       1.82       1.88       2.73       ----

> <Gold.Chemscore.Fitness>
15.7421

> <Gold.Chemscore.DG>
-20.3591

> <Gold.Chemscore.ZeroCoef>
-5.4800

> <Gold.Chemscore.Hbond>
0.8518

> <Gold.Chemscore.Metal>
0.0000

> <Gold.Chemscore.Lipo>
142.7267

> <Gold.Chemscore.Internal_Hbond>
0.0000

> <Gold.Chemscore.DEClash>
1.8845

> <Gold.Chemscore.DEInternal>
2.7325

> <Gold.Chemscore.Rot>
1.8222

> <Gold.Chemscore.Internal.Correction>
   9.000000E+99

> <Gold.Chemscore.Hbonds>
donor molecule, donor type, donor heavy atom, donor atom, acceptor molecule, acceptor atom, score
      L1  H    14    34       P1  8028  0.19

> <Gold.Chemscore.Hbond.Weighted>
-2.8450

> <Gold.Chemscore.Metal.Weighted>
-0.0000

> <Gold.Chemscore.Lipo.Weighted>
-16.6990

> <Gold.Chemscore.Internal_Hbond.Weighted>
0.0000

> <Gold.Chemscore.DEClash.Weighted>
1.8845

> <Gold.Chemscore.DEInternal.Weighted>
2.7325

> <Gold.Chemscore.Rot.Weighted>
4.6649

> <Gold.Chemscore.Internal.Correction.Weighted>
   9.000000E+99

> <Gold.Protein.RotatedTorsions>
[ 6907 6896 6895 6894 ] final -101.51 input  -60.11 | X-H torsion
[ 7974 7965 7964 7962 ] final  -34.48 input  175.53 | X-H torsion
[ 8008 7997 7996 7995 ] final  -26.17 input   59.86 | X-H torsion
[ 10167 10162 10161 10158 ] final -136.58 input  -65.29 | X-H torsion
[ 10718 10713 10712 10709 ] final   79.79 input   66.30 | X-H torsion
[ 10763 10752 10751 10750 ] final   39.50 input  -60.55 | X-H torsion
[ 11005 11000 10999 10996 ] final  -84.88 input  -57.11 | X-H torsion

> <Gold.Protein.ActiveResidues>
 VAL166  LYS551  ARG553  GLY616  TRP617  ASP618  TYR619  PRO620  LYS621  CYS622 
 ASP623  PHE694  ASN695  SER759  ASP760  ASP761  ALA762  ILE779  LEU786  VAL792 
 PHE793  MET794  SER795  GLU796  ALA797  LYS798  CYS799  TRP800  GLU811  SER814 

> <Gold.Protein.RotatedAtoms>
  150.7158  134.0723  159.3868 H   0  0  0  0  0  0  0  0  0  0  0  0  # atno 6907 bound_to 6896
  151.8705  135.0489  160.0488 H   0  0  0  0  0  0  0  0  0  0  0  0  # atno 6908 bound_to 6896
  152.2647  133.5292  159.5439 H   0  0  0  0  0  0  0  0  0  0  0  0  # atno 6909 bound_to 6896
  146.0826  140.6043  142.8901 H   0  0  0  0  0  0  0  0  0  0  0  0  # atno 7974 bound_to 7965
  154.4439  140.1907  156.0733 H   0  0  0  0  0  0  0  0  0  0  0  0  # atno 8008 bound_to 7997
  156.0495  140.3310  155.7308 H   0  0  0  0  0  0  0  0  0  0  0  0  # atno 8009 bound_to 7997
  155.5579  140.0601  157.2826 H   0  0  0  0  0  0  0  0  0  0  0  0  # atno 8010 bound_to 7997
  139.8664  143.7013  152.2645 H   0  0  0  0  0  0  0  0  0  0  0  0  # atno 10167 bound_to 10162
  157.6787  130.9930  150.1984 H   0  0  0  0  0  0  0  0  0  0  0  0  # atno 10718 bound_to 10713
  152.9965  135.6219  154.2474 H   0  0  0  0  0  0  0  0  0  0  0  0  # atno 10763 bound_to 10752
  154.2214  135.2796  155.2925 H   0  0  0  0  0  0  0  0  0  0  0  0  # atno 10764 bound_to 10752
  154.5526  135.5729  153.6993 H   0  0  0  0  0  0  0  0  0  0  0  0  # atno 10765 bound_to 10752
  141.1646  133.7369  156.8933 H   0  0  0  0  0  0  0  0  0  0  0  0  # atno 11005 bound_to 11000
  144.7303  140.4652  143.6942 LP  0  0  0  0  0  0  0  0  0  0  0  0  # atno 17320 bound_to 7965
  145.6190  139.1522  143.3033 LP  0  0  0  0  0  0  0  0  0  0  0  0  # atno 17321 bound_to 7965
  139.7325  144.7579  151.0779 LP  0  0  0  0  0  0  0  0  0  0  0  0  # atno 17342 bound_to 10162
  140.7767  143.5070  150.9699 LP  0  0  0  0  0  0  0  0  0  0  0  0  # atno 17343 bound_to 10162
  156.2680  130.3718  149.8061 LP  0  0  0  0  0  0  0  0  0  0  0  0  # atno 17370 bound_to 10713
  156.5787  130.8456  151.3377 LP  0  0  0  0  0  0  0  0  0  0  0  0  # atno 17371 bound_to 10713
  140.1634  134.9150  157.2743 LP  0  0  0  0  0  0  0  0  0  0  0  0  # atno 17394 bound_to 11000
  140.2585  134.3599  155.7415 LP  0  0  0  0  0  0  0  0  0  0  0  0  # atno 17395 bound_to 11000

$$$$
