AV-unprocessed.smi:2126|AV-procd|sdf|8675|dock10
  -GOLD-   2272011423D 1   1.00000     0.00000
 Structure written by MMmdl.
 40 42  0  0  0  0  0  0  0  0  1 V2000
  148.3996  134.7672  159.1040 C   0  0  0  0  0  0  0  0  0  0  0  0
  149.4186  135.7558  159.1340 O   0  0  0  0  0  0  0  0  0  0  0  0
  149.3572  136.7778  158.2112 C   0  0  0  0  0  0  0  0  0  0  0  0
  148.3361  136.9146  157.2391 C   0  0  0  0  0  0  0  0  0  0  0  0
  148.3549  137.9927  156.3333 C   0  0  0  0  0  0  0  0  0  0  0  0
  149.3823  138.9558  156.3730 C   0  0  0  0  0  0  0  0  0  0  0  0
  149.3209  139.9777  155.4499 O   0  0  0  0  0  0  0  0  0  0  0  0
  150.3451  140.9635  155.4696 C   0  0  0  0  0  0  0  0  0  0  0  0
  150.2427  141.7693  156.7729 C   0  0  2  0  0  0  0  0  0  0  0  0
  149.0607  142.5441  156.7249 O   0  0  0  0  0  0  0  0  0  0  0  0
  151.4616  142.6858  156.9973 C   0  0  0  0  0  0  0  0  0  0  0  0
  151.3982  143.3961  158.2624 N   0  0  0  0  0  0  0  0  0  0  0  0
  150.7895  144.5737  158.5006 C   0  0  0  0  0  0  0  0  0  0  0  0
  150.8532  145.0531  159.7395 N   0  0  0  0  0  0  0  0  0  0  0  0
  151.5885  144.0714  160.3817 C   0  0  0  0  0  0  0  0  0  0  0  0
  152.0120  143.9745  161.7266 C   0  0  0  0  0  0  0  0  0  0  0  0
  152.7671  142.8646  162.1597 C   0  0  0  0  0  0  0  0  0  0  0  0
  153.1103  141.8370  161.2574 C   0  0  0  0  0  0  0  0  0  0  0  0
  152.6997  141.9112  159.9125 C   0  0  0  0  0  0  0  0  0  0  0  0
  151.9456  143.0198  159.4845 C   0  0  0  0  0  0  0  0  0  0  0  0
  150.4033  138.8186  157.3453 C   0  0  0  0  0  0  0  0  0  0  0  0
  150.3850  137.7405  158.2506 C   0  0  0  0  0  0  0  0  0  0  0  0
  148.5912  134.0300  159.8835 H   0  0  0  0  0  0  0  0  0  0  0  0
  148.3829  134.2401  158.1490 H   0  0  0  0  0  0  0  0  0  0  0  0
  147.4173  135.2016  159.2948 H   0  0  0  0  0  0  0  0  0  0  0  0
  147.5260  136.2050  157.1666 H   0  0  0  0  0  0  0  0  0  0  0  0
  147.5688  138.0807  155.5978 H   0  0  0  0  0  0  0  0  0  0  0  0
  151.3304  140.5004  155.3936 H   0  0  0  0  0  0  0  0  0  0  0  0
  150.2181  141.6310  154.6154 H   0  0  0  0  0  0  0  0  0  0  0  0
  150.1472  141.0783  157.6114 H   0  0  0  0  0  0  0  0  0  0  0  0
  149.2160  143.2931  156.1696 H   0  0  0  0  0  0  0  0  0  0  0  0
  152.3821  142.1008  156.9813 H   0  0  0  0  0  0  0  0  0  0  0  0
  151.5456  143.4156  156.1911 H   0  0  0  0  0  0  0  0  0  0  0  0
  150.2722  145.1108  157.7188 H   0  0  0  0  0  0  0  0  0  0  0  0
  151.7567  144.7563  162.4265 H   0  0  0  0  0  0  0  0  0  0  0  0
  153.0855  142.8020  163.1898 H   0  0  0  0  0  0  0  0  0  0  0  0
  153.6903  140.9919  161.5986 H   0  0  0  0  0  0  0  0  0  0  0  0
  152.9631  141.1276  159.2177 H   0  0  0  0  0  0  0  0  0  0  0  0
  151.2143  139.5269  157.4183 H   0  0  0  0  0  0  0  0  0  0  0  0
  151.1719  137.6515  158.9852 H   0  0  0  0  0  0  0  0  0  0  0  0
  1  2  1  0  0  0  0
  1 23  1  0  0  0  0
  1 24  1  0  0  0  0
  1 25  1  0  0  0  0
  2  3  1  0  0  0  0
  3 22  1  0  0  0  0
  3  4  2  0  0  0  0
  4  5  1  0  0  0  0
  4 26  1  0  0  0  0
  5  6  2  0  0  0  0
  5 27  1  0  0  0  0
  6  7  1  0  0  0  0
  6 21  1  0  0  0  0
  7  8  1  0  0  0  0
  8  9  1  0  0  0  0
  8 28  1  0  0  0  0
  8 29  1  0  0  0  0
  9 10  1  0  0  0  0
  9 11  1  0  0  0  0
  9 30  1  0  0  0  0
 10 31  1  0  0  0  0
 11 12  1  0  0  0  0
 11 32  1  0  0  0  0
 11 33  1  0  0  0  0
 12 20  1  0  0  0  0
 12 13  1  0  0  0  0
 13 14  2  0  0  0  0
 13 34  1  0  0  0  0
 14 15  1  0  0  0  0
 15 20  2  0  0  0  0
 15 16  1  0  0  0  0
 16 17  2  0  0  0  0
 16 35  1  0  0  0  0
 17 18  1  0  0  0  0
 17 36  1  0  0  0  0
 18 19  2  0  0  0  0
 18 37  1  0  0  0  0
 19 20  1  0  0  0  0
 19 38  1  0  0  0  0
 21 22  2  0  0  0  0
 21 39  1  0  0  0  0
 22 40  1  0  0  0  0
M  END
> <s_m_source_file>
AV-unprocessed.smi

> <i_m_source_file_index>
2126

> <i_lp_mmshare_version>
43012

> <i_f3d_flags>
0

> <s_epik_input>
W0NIM11PYzFbY0hdW2NIXWMoW2NIXVtjSF0xKU9bQ0gyXVtDQEhdKFtPSF0pW0NIMl1uKFtjSF1uMiljKGMyMylbY0hdW2NIXVtjSF1bY0hdMw==

> <s_epik_cmdline>
J2VwaWtfcHl0aG9uJywgJy1waCcsICc3LjAnLCAnLXRuJywgJzgnLCAnLW1hJywgJzIwMCcsICctbWV0YWxfYmluZGluZycsICctaW1hZScsICc8aW5maWxlLm1hZT4nLCAnLW9tYWUnLCAnPG91dGZpbGUubWFlPic=

> <r_lp_tautomer_probability>
1

> <r_epik_Ionization_Penalty>
0.0608933

> <r_epik_Ionization_Penalty_Charging>
0

> <r_epik_Ionization_Penalty_Neutral>
0.0608933

> <r_epik_State_Penalty>
0.0528196

> <r_epik_Charging_Adjusted_Penalty>
0.0528196

> <i_epik_Tot_Q>
0

> <i_epik_Tot_abs_Q>
0

> <r_epik_Metal_State_Penalty>
5.52429e-05

> <b_epik_Metal_Only>
0

> <s_lp_Force_Field>
OPLS_2005

> <r_lp_Energy>
18.1491

> <b_lp_Chiralities_Consistent>
1

> <s_lp_Variant>
AV-unprocessed.smi:2126-1

> <Gold.Version>
5.8.1

> <Gold.Id.Protein>
6NUR|6NUR_protein|mol2

> <Gold.PLP.Fitness>
50.4737

> <Gold.PLP.PLP>
-42.6740

> <Gold.PLP.part.hbond>
-1.6825

> <Gold.PLP.part.metal>
0.0000

> <Gold.PLP.part.buried>
-6.7031

> <Gold.PLP.part.nonpolar>
-34.6651

> <Gold.PLP.part.repulsive>
0.1826

> <Gold.PLP.ligand.clash>
0.0000

> <Gold.PLP.ligand.torsion>
0.4248

> <Gold.PLP.Chemscore.Hbond>
2.0000

> <Gold.PLP.Chemscore.CHOScore>
0.8651

> <Gold.PLP.Chemscore.Metal>
0.0000

> <Gold.Chemscore.Hbonds>
donor molecule, donor type, donor heavy atom, donor atom, acceptor molecule, acceptor atom, score
      L1  H    10    31       P1  8028  1.00
      P1  H  6896  6909       L1     2  0.85
      L1  C    13    34       P1  8028  0.54
      L1  C    13    34       P1  8029  0.38

> <Gold.PLP.Chemscore.Internal.Correction>
0.0540

> <Gold.Rescore>
     Score         DG    S(hbond)    S(metal)    S(lipo)     H(rot)  DE(clash)    DE(int)     intcor
     16.92     -17.39       1.93        0.00     101.70       2.51       0.02       0.45       ----

> <Gold.Chemscore.Fitness>
16.9179

> <Gold.Chemscore.DG>
-17.3896

> <Gold.Chemscore.ZeroCoef>
-5.4800

> <Gold.Chemscore.Hbond>
1.9256

> <Gold.Chemscore.Metal>
0.0000

> <Gold.Chemscore.Lipo>
101.7032

> <Gold.Chemscore.Internal_Hbond>
0.0000

> <Gold.Chemscore.DEClash>
0.0189

> <Gold.Chemscore.DEInternal>
0.4529

> <Gold.Chemscore.Rot>
2.5083

> <Gold.Chemscore.Internal.Correction>
   9.000000E+99

> <Gold.Chemscore.Hbonds>
donor molecule, donor type, donor heavy atom, donor atom, acceptor molecule, acceptor atom, score
      L1  H    10    31       P1  8028  0.92
      P1  H  6896  6909       L1     2  0.15

> <Gold.Chemscore.Hbond.Weighted>
-6.4316

> <Gold.Chemscore.Metal.Weighted>
-0.0000

> <Gold.Chemscore.Lipo.Weighted>
-11.8993

> <Gold.Chemscore.Internal_Hbond.Weighted>
0.0000

> <Gold.Chemscore.DEClash.Weighted>
0.0189

> <Gold.Chemscore.DEInternal.Weighted>
0.4529

> <Gold.Chemscore.Rot.Weighted>
6.4212

> <Gold.Chemscore.Internal.Correction.Weighted>
   9.000000E+99

> <Gold.Protein.RotatedTorsions>
[ 6907 6896 6895 6894 ] final   57.82 input  -60.11 | X-H torsion
[ 7974 7965 7964 7962 ] final   25.36 input  175.53 | X-H torsion
[ 8008 7997 7996 7995 ] final -153.79 input   59.86 | X-H torsion
[ 10167 10162 10161 10158 ] final  -69.84 input  -65.29 | X-H torsion
[ 10718 10713 10712 10709 ] final -177.02 input   66.30 | X-H torsion
[ 10763 10752 10751 10750 ] final -108.50 input  -60.55 | X-H torsion
[ 11005 11000 10999 10996 ] final  117.35 input  -57.11 | X-H torsion

> <Gold.Protein.ActiveResidues>
 VAL166  LYS551  ARG553  GLY616  TRP617  ASP618  TYR619  PRO620  LYS621  CYS622 
 ASP623  PHE694  ASN695  SER759  ASP760  ASP761  ALA762  ILE779  LEU786  VAL792 
 PHE793  MET794  SER795  GLU796  ALA797  LYS798  CYS799  TRP800  GLU811  SER814 

> <Gold.Protein.RotatedAtoms>
  152.3767  134.6652  160.0157 H   0  0  0  0  0  0  0  0  0  0  0  0  # atno 6907 bound_to 6896
  151.6928  133.3305  159.3255 H   0  0  0  0  0  0  0  0  0  0  0  0  # atno 6908 bound_to 6896
  150.7715  134.6619  159.6389 H   0  0  0  0  0  0  0  0  0  0  0  0  # atno 6909 bound_to 6896
  146.1892  139.7477  142.8844 H   0  0  0  0  0  0  0  0  0  0  0  0  # atno 7974 bound_to 7965
  155.6763  140.0739  157.2501 H   0  0  0  0  0  0  0  0  0  0  0  0  # atno 8008 bound_to 7997
  154.4114  140.1690  156.1985 H   0  0  0  0  0  0  0  0  0  0  0  0  # atno 8009 bound_to 7997
  155.9573  140.3372  155.6463 H   0  0  0  0  0  0  0  0  0  0  0  0  # atno 8010 bound_to 7997
  140.5399  143.2315  151.7108 H   0  0  0  0  0  0  0  0  0  0  0  0  # atno 10167 bound_to 10162
  156.8233  130.9627  151.3110 H   0  0  0  0  0  0  0  0  0  0  0  0  # atno 10718 bound_to 10713
  154.8139  135.4635  154.0591 H   0  0  0  0  0  0  0  0  0  0  0  0  # atno 10763 bound_to 10752
  153.1999  135.6867  153.8251 H   0  0  0  0  0  0  0  0  0  0  0  0  # atno 10764 bound_to 10752
  153.7739  135.3266  155.3333 H   0  0  0  0  0  0  0  0  0  0  0  0  # atno 10765 bound_to 10752
  139.9071  134.9609  156.7338 H   0  0  0  0  0  0  0  0  0  0  0  0  # atno 11005 bound_to 11000
  145.3844  141.0363  143.3159 LP  0  0  0  0  0  0  0  0  0  0  0  0  # atno 17320 bound_to 7965
  144.8455  139.5404  143.6881 LP  0  0  0  0  0  0  0  0  0  0  0  0  # atno 17321 bound_to 7965
  139.4985  144.3985  152.0206 LP  0  0  0  0  0  0  0  0  0  0  0  0  # atno 17342 bound_to 10162
  140.3093  144.3556  150.6038 LP  0  0  0  0  0  0  0  0  0  0  0  0  # atno 17343 bound_to 10162
  157.6445  130.8833  149.9512 LP  0  0  0  0  0  0  0  0  0  0  0  0  # atno 17370 bound_to 10713
  156.0976  130.3658  150.0278 LP  0  0  0  0  0  0  0  0  0  0  0  0  # atno 17371 bound_to 10713
  140.6904  133.9395  155.7963 LP  0  0  0  0  0  0  0  0  0  0  0  0  # atno 17394 bound_to 11000
  141.0446  134.0573  157.3860 LP  0  0  0  0  0  0  0  0  0  0  0  0  # atno 17395 bound_to 11000

$$$$
