AV-unprocessed.smi:2678|AV-procd|sdf|10368|dock7
  -GOLD-   2272014393D 1   1.00000     0.00000
 Structure written by MMmdl.
 46 47  0  0  0  0  0  0  0  0  1 V2000
  150.6768  144.6932  159.2250 C   0  0  0  0  0  0  0  0  0  0  0  0
  151.6332  143.8397  158.3817 C   0  0  0  0  0  0  0  0  0  0  0  0
  152.8063  144.6715  157.8389 C   0  0  0  0  0  0  0  0  0  0  0  0
  150.8934  143.2226  157.2846 N   0  0  0  0  0  0  0  0  0  0  0  0
  150.9490  141.9265  156.9386 C   0  0  0  0  0  0  0  0  0  0  0  0
  151.6460  141.0990  157.5271 O   0  0  0  0  0  0  0  0  0  0  0  0
  150.0897  141.5017  155.7404 C   0  0  2  0  0  0  0  0  0  0  0  0
  148.6120  141.8962  155.9449 C   0  0  0  0  0  0  0  0  0  0  0  0
  147.7479  141.4570  154.7520 C   0  0  0  0  0  0  0  0  0  0  0  0
  147.8817  139.9483  154.4902 C   0  0  0  0  0  0  0  0  0  0  0  0
  149.3528  139.5434  154.2838 C   0  0  2  0  0  0  0  0  0  0  0  0
  149.4398  138.0953  154.0817 N   0  0  0  0  0  0  0  0  0  0  0  0
  149.5460  137.1271  155.0106 C   0  0  0  0  0  0  0  0  0  0  0  0
  149.5972  137.3990  156.2082 O   0  0  0  0  0  0  0  0  0  0  0  0
  149.6059  135.8806  154.5024 N   0  0  0  0  0  0  0  0  0  0  0  0
  149.7694  134.6451  155.1836 C   0  0  0  0  0  0  0  0  0  0  0  0
  149.7305  133.3756  154.5584 C   0  0  0  0  0  0  0  0  0  0  0  0
  149.9228  132.2247  155.3471 C   0  0  0  0  0  0  0  0  0  0  0  0
  150.1541  132.3848  156.7273 C   0  0  0  0  0  0  0  0  0  0  0  0
  150.2079  133.5895  157.3334 N   0  0  0  0  0  0  0  0  0  0  0  0
  150.0227  134.6882  156.5710 C   0  0  0  0  0  0  0  0  0  0  0  0
  150.2069  139.9836  155.4923 C   0  0  0  0  0  0  0  0  0  0  0  0
  151.1939  145.1324  160.0784 H   0  0  0  0  0  0  0  0  0  0  0  0
  149.8530  144.0932  159.6133 H   0  0  0  0  0  0  0  0  0  0  0  0
  150.2496  145.5087  158.6401 H   0  0  0  0  0  0  0  0  0  0  0  0
  152.0324  143.0545  159.0263 H   0  0  0  0  0  0  0  0  0  0  0  0
  153.3691  145.1303  158.6523 H   0  0  0  0  0  0  0  0  0  0  0  0
  152.4574  145.4712  157.1845 H   0  0  0  0  0  0  0  0  0  0  0  0
  153.5010  144.0537  157.2692 H   0  0  0  0  0  0  0  0  0  0  0  0
  150.2928  143.8291  156.7450 H   0  0  0  0  0  0  0  0  0  0  0  0
  150.4596  142.0200  154.8535 H   0  0  0  0  0  0  0  0  0  0  0  0
  148.2219  141.4399  156.8563 H   0  0  0  0  0  0  0  0  0  0  0  0
  148.5264  142.9753  156.0790 H   0  0  0  0  0  0  0  0  0  0  0  0
  146.7035  141.7102  154.9367 H   0  0  0  0  0  0  0  0  0  0  0  0
  148.0468  142.0101  153.8608 H   0  0  0  0  0  0  0  0  0  0  0  0
  147.4595  139.3969  155.3319 H   0  0  0  0  0  0  0  0  0  0  0  0
  147.2916  139.6752  153.6146 H   0  0  0  0  0  0  0  0  0  0  0  0
  149.7113  140.0534  153.3878 H   0  0  0  0  0  0  0  0  0  0  0  0
  149.4205  137.7889  153.1195 H   0  0  0  0  0  0  0  0  0  0  0  0
  149.6145  135.8207  153.4946 H   0  0  0  0  0  0  0  0  0  0  0  0
  149.5727  133.2608  153.4975 H   0  0  0  0  0  0  0  0  0  0  0  0
  149.8973  131.2409  154.9027 H   0  0  0  0  0  0  0  0  0  0  0  0
  150.3057  131.5230  157.3603 H   0  0  0  0  0  0  0  0  0  0  0  0
  150.0744  135.6351  157.0888 H   0  0  0  0  0  0  0  0  0  0  0  0
  151.2530  139.7202  155.3299 H   0  0  0  0  0  0  0  0  0  0  0  0
  149.8889  139.4343  156.3804 H   0  0  0  0  0  0  0  0  0  0  0  0
  1  2  1  0  0  0  0
  1 23  1  0  0  0  0
  1 24  1  0  0  0  0
  1 25  1  0  0  0  0
  2  3  1  0  0  0  0
  2  4  1  0  0  0  0
  2 26  1  0  0  0  0
  3 27  1  0  0  0  0
  3 28  1  0  0  0  0
  3 29  1  0  0  0  0
  4  5  1  0  0  0  0
  4 30  1  0  0  0  0
  5  6  2  0  0  0  0
  5  7  1  0  0  0  0
  7 22  1  0  0  0  0
  7  8  1  0  0  0  0
  7 31  1  0  0  0  0
  8  9  1  0  0  0  0
  8 32  1  0  0  0  0
  8 33  1  0  0  0  0
  9 10  1  0  0  0  0
  9 34  1  0  0  0  0
  9 35  1  0  0  0  0
 10 11  1  0  0  0  0
 10 36  1  0  0  0  0
 10 37  1  0  0  0  0
 11 12  1  0  0  0  0
 11 22  1  0  0  0  0
 11 38  1  0  0  0  0
 12 13  1  0  0  0  0
 12 39  1  0  0  0  0
 13 14  2  0  0  0  0
 13 15  1  0  0  0  0
 15 16  1  0  0  0  0
 15 40  1  0  0  0  0
 16 21  1  0  0  0  0
 16 17  2  0  0  0  0
 17 18  1  0  0  0  0
 17 41  1  0  0  0  0
 18 19  2  0  0  0  0
 18 42  1  0  0  0  0
 19 20  1  0  0  0  0
 19 43  1  0  0  0  0
 20 21  2  0  0  0  0
 21 44  1  0  0  0  0
 22 45  1  0  0  0  0
 22 46  1  0  0  0  0
M  END
> <s_m_source_file>
AV-unprocessed.smi

> <i_m_source_file_index>
2678

> <i_lp_mmshare_version>
43012

> <i_f3d_flags>
0

> <s_epik_input>
W0NIM11bQ0hdKFtDSDNdKVtOSF1DKD1PKVtDQEBIXTFbQ0gyXVtDSDJdW0NIMl1bQ0BIXShbQ0gyXTEpW05IXUMoPU8pW05IXWMyW2NIXVtjSF1bY0hdbltjSF0y

> <s_epik_cmdline>
J2VwaWtfcHl0aG9uJywgJy1waCcsICc3LjAnLCAnLXRuJywgJzgnLCAnLW1hJywgJzIwMCcsICctbWV0YWxfYmluZGluZycsICctaW1hZScsICc8aW5maWxlLm1hZT4nLCAnLW9tYWUnLCAnPG91dGZpbGUubWFlPic=

> <r_epik_Ionization_Penalty>
0.00482944

> <r_epik_Ionization_Penalty_Charging>
0

> <r_epik_Ionization_Penalty_Neutral>
0.00482944

> <r_epik_State_Penalty>
0.00347168

> <r_epik_Charging_Adjusted_Penalty>
0.00347168

> <i_epik_Tot_Q>
0

> <i_epik_Tot_abs_Q>
0

> <r_epik_Metal_State_Penalty>
-0

> <b_epik_Metal_Only>
0

> <s_lp_Force_Field>
OPLS_2005

> <r_lp_Energy>
22.9796

> <b_lp_Chiralities_Consistent>
1

> <s_lp_Variant>
AV-unprocessed.smi:2678-3

> <Gold.Version>
5.8.1

> <Gold.Id.Protein>
6NUR|6NUR_protein|mol2

> <Gold.PLP.Fitness>
48.0669

> <Gold.PLP.PLP>
-37.9748

> <Gold.PLP.part.hbond>
-4.0000

> <Gold.PLP.part.metal>
0.0000

> <Gold.PLP.part.buried>
-3.6896

> <Gold.PLP.part.nonpolar>
-31.4328

> <Gold.PLP.part.repulsive>
0.0930

> <Gold.PLP.ligand.clash>
0.0000

> <Gold.PLP.ligand.torsion>
0.5580

> <Gold.PLP.Chemscore.Hbond>
3.7300

> <Gold.PLP.Chemscore.CHOScore>
0.0000

> <Gold.PLP.Chemscore.Metal>
0.0000

> <Gold.Chemscore.Hbonds>
donor molecule, donor type, donor heavy atom, donor atom, acceptor molecule, acceptor atom, score
      L1  H     4    30       P1  8028  1.00
      L1  H    12    39       P1  7948  0.93
      L1  H    15    40       P1  7948  0.90
      P1  H  6896  6908       L1    20  0.99

> <Gold.PLP.Chemscore.Internal.Correction>
0.0181

> <Gold.Rescore>
     Score         DG    S(hbond)    S(metal)    S(lipo)     H(rot)  DE(clash)    DE(int)     intcor
     20.45     -24.09       3.68        0.00      86.04       1.46       0.12       3.52       ----

> <Gold.Chemscore.Fitness>
20.4474

> <Gold.Chemscore.DG>
-24.0916

> <Gold.Chemscore.ZeroCoef>
-5.4800

> <Gold.Chemscore.Hbond>
3.6776

> <Gold.Chemscore.Metal>
0.0000

> <Gold.Chemscore.Lipo>
86.0399

> <Gold.Chemscore.Internal_Hbond>
0.0000

> <Gold.Chemscore.DEClash>
0.1232

> <Gold.Chemscore.DEInternal>
3.5210

> <Gold.Chemscore.Rot>
1.4603

> <Gold.Chemscore.Internal.Correction>
   9.000000E+99

> <Gold.Chemscore.Hbonds>
donor molecule, donor type, donor heavy atom, donor atom, acceptor molecule, acceptor atom, score
      L1  H     4    30       P1  8028  0.98
      L1  H    12    39       P1  7948  0.78
      L1  H    15    40       P1  7948  0.17
      P1  H  6896  6908       L1    20  0.86

> <Gold.Chemscore.Hbond.Weighted>
-12.2833

> <Gold.Chemscore.Metal.Weighted>
-0.0000

> <Gold.Chemscore.Lipo.Weighted>
-10.0667

> <Gold.Chemscore.Internal_Hbond.Weighted>
0.0000

> <Gold.Chemscore.DEClash.Weighted>
0.1232

> <Gold.Chemscore.DEInternal.Weighted>
3.5210

> <Gold.Chemscore.Rot.Weighted>
3.7383

> <Gold.Chemscore.Internal.Correction.Weighted>
   9.000000E+99

> <Gold.Protein.RotatedTorsions>
[ 6907 6896 6895 6894 ] final  109.57 input  -60.11 | X-H torsion
[ 7974 7965 7964 7962 ] final  -33.16 input  175.53 | X-H torsion
[ 8008 7997 7996 7995 ] final  -68.05 input   59.86 | X-H torsion
[ 10167 10162 10161 10158 ] final -176.23 input  -65.29 | X-H torsion
[ 10718 10713 10712 10709 ] final  -17.17 input   66.30 | X-H torsion
[ 10763 10752 10751 10750 ] final  174.07 input  -60.55 | X-H torsion
[ 11005 11000 10999 10996 ] final   -7.89 input  -57.11 | X-H torsion

> <Gold.Protein.ActiveResidues>
 VAL166  LYS551  ARG553  GLY616  TRP617  ASP618  TYR619  PRO620  LYS621  CYS622 
 ASP623  PHE694  ASN695  SER759  ASP760  ASP761  ALA762  ILE779  LEU786  VAL792 
 PHE793  MET794  SER795  GLU796  ALA797  LYS798  CYS799  TRP800  GLU811  SER814 

> <Gold.Protein.RotatedAtoms>
  152.5061  133.8925  159.7400 H   0  0  0  0  0  0  0  0  0  0  0  0  # atno 6907 bound_to 6896
  150.9361  133.6702  159.2807 H   0  0  0  0  0  0  0  0  0  0  0  0  # atno 6908 bound_to 6896
  151.4030  135.0978  159.9614 H   0  0  0  0  0  0  0  0  0  0  0  0  # atno 6909 bound_to 6896
  146.0933  140.5882  142.8854 H   0  0  0  0  0  0  0  0  0  0  0  0  # atno 7974 bound_to 7965
  154.4841  140.0880  156.7446 H   0  0  0  0  0  0  0  0  0  0  0  0  # atno 8008 bound_to 7997
  155.4395  140.3453  155.4270 H   0  0  0  0  0  0  0  0  0  0  0  0  # atno 8009 bound_to 7997
  156.1235  140.1481  156.9158 H   0  0  0  0  0  0  0  0  0  0  0  0  # atno 8010 bound_to 7997
  139.5540  144.2036  152.1128 H   0  0  0  0  0  0  0  0  0  0  0  0  # atno 10167 bound_to 10162
  156.5773  130.4765  149.6336 H   0  0  0  0  0  0  0  0  0  0  0  0  # atno 10718 bound_to 10713
  154.4488  135.2764  155.1796 H   0  0  0  0  0  0  0  0  0  0  0  0  # atno 10763 bound_to 10752
  154.3632  135.6125  153.5705 H   0  0  0  0  0  0  0  0  0  0  0  0  # atno 10764 bound_to 10752
  152.9845  135.5839  154.4828 H   0  0  0  0  0  0  0  0  0  0  0  0  # atno 10765 bound_to 10752
  140.7176  133.8856  155.8796 H   0  0  0  0  0  0  0  0  0  0  0  0  # atno 11005 bound_to 11000
  144.7376  140.4853  143.6892 LP  0  0  0  0  0  0  0  0  0  0  0  0  # atno 17320 bound_to 7965
  145.5997  139.1502  143.3136 LP  0  0  0  0  0  0  0  0  0  0  0  0  # atno 17321 bound_to 7965
  140.1536  144.5091  150.6673 LP  0  0  0  0  0  0  0  0  0  0  0  0  # atno 17342 bound_to 10162
  140.6809  143.2326  151.5386 LP  0  0  0  0  0  0  0  0  0  0  0  0  # atno 17343 bound_to 10162
  156.2662  130.6991  151.1775 LP  0  0  0  0  0  0  0  0  0  0  0  0  # atno 17370 bound_to 10713
  157.7335  131.0591  150.5575 LP  0  0  0  0  0  0  0  0  0  0  0  0  # atno 17371 bound_to 10713
  141.0031  134.1123  157.4297 LP  0  0  0  0  0  0  0  0  0  0  0  0  # atno 17394 bound_to 11000
  139.8856  135.0074  156.6445 LP  0  0  0  0  0  0  0  0  0  0  0  0  # atno 17395 bound_to 11000

$$$$
