AV-unprocessed.smi:1867|AV-procd|sdf|7566|dock2
  -GOLD-   22720 9283D 1   1.00000     0.00000
 Structure written by MMmdl.
 52 55  0  0  0  0  0  0  0  0  2 V2000
  148.9476  135.1460  156.2161 O   0  0  0  0  0  0  0  0  0  0  0  0
  149.0077  135.3638  155.0084 C   0  0  0  0  0  0  0  0  0  0  0  0
  149.4331  136.5170  154.4568 N   0  0  0  0  0  0  0  0  0  0  0  0
  149.9530  137.6687  155.1043 C   0  0  0  0  0  0  0  0  0  0  0  0
  150.0108  137.6679  156.5112 C   0  0  0  0  0  0  0  0  0  0  0  0
  150.5035  138.8033  157.1814 C   0  0  0  0  0  0  0  0  0  0  0  0
  150.9211  139.9222  156.4218 C   0  0  0  0  0  0  0  0  0  0  0  0
  151.4176  141.0830  157.0480 N   0  0  0  0  0  0  0  0  0  0  0  0
  150.9625  142.4149  156.6834 C   0  0  0  0  0  0  0  0  0  0  0  0
  151.6329  143.3463  157.6931 C   0  0  0  0  0  0  0  0  0  0  0  0
  151.7394  142.4815  158.9490 C   0  0  0  0  0  0  0  0  0  0  0  0
  151.9454  141.0630  158.4067 C   0  0  0  0  0  0  0  0  0  0  0  0
  150.8453  139.9312  155.0698 N   0  0  0  0  0  0  0  0  0  0  0  0
  150.3757  138.8390  154.4310 C   0  0  0  0  0  0  0  0  0  0  0  0
  148.6227  134.4326  154.1162 N   0  0  0  0  0  0  0  0  0  0  0  0
  148.1117  133.0808  154.3652 C   0  0  2  0  0  0  0  0  0  0  0  0
  149.2005  131.9994  154.2228 C   0  0  0  0  0  0  0  0  0  0  0  0
  148.5035  130.8374  153.5082 C   0  0  0  0  0  0  0  0  0  0  0  0
  147.5479  131.5209  152.6298 N   0  3  1  0  0  0  0  0  0  0  0  0
  146.5155  130.7153  151.9467 C   0  0  0  0  0  0  0  0  0  0  0  0
  145.7701  131.6255  150.9469 C   0  0  0  0  0  0  0  0  0  0  0  0
  145.2388  132.9149  151.6133 C   0  0  0  0  0  0  0  0  0  0  0  0
  146.3377  133.6404  152.4203 C   0  0  0  0  0  0  0  0  0  0  0  0
  146.9823  132.6423  153.3998 C   0  0  2  0  0  0  0  0  0  0  0  0
  149.3341  136.5931  153.4554 H   0  0  0  0  0  0  0  0  0  0  0  0
  149.6851  136.8059  157.0753 H   0  0  0  0  0  0  0  0  0  0  0  0
  150.5507  138.7984  158.2600 H   0  0  0  0  0  0  0  0  0  0  0  0
  151.2388  142.6714  155.6602 H   0  0  0  0  0  0  0  0  0  0  0  0
  149.8768  142.4650  156.7742 H   0  0  0  0  0  0  0  0  0  0  0  0
  152.6319  143.6117  157.3442 H   0  0  0  0  0  0  0  0  0  0  0  0
  151.0748  144.2690  157.8543 H   0  0  0  0  0  0  0  0  0  0  0  0
  152.5394  142.7980  159.6188 H   0  0  0  0  0  0  0  0  0  0  0  0
  150.8007  142.5285  159.5027 H   0  0  0  0  0  0  0  0  0  0  0  0
  151.4462  140.3279  159.0392 H   0  0  0  0  0  0  0  0  0  0  0  0
  153.0063  140.8144  158.3657 H   0  0  0  0  0  0  0  0  0  0  0  0
  150.3240  138.9324  153.3575 H   0  0  0  0  0  0  0  0  0  0  0  0
  148.6949  134.6986  153.1445 H   0  0  0  0  0  0  0  0  0  0  0  0
  147.7343  133.0193  155.3875 H   0  0  0  0  0  0  0  0  0  0  0  0
  150.0184  132.3644  153.5991 H   0  0  0  0  0  0  0  0  0  0  0  0
  149.6269  131.7024  155.1814 H   0  0  0  0  0  0  0  0  0  0  0  0
  149.1973  130.2097  152.9479 H   0  0  0  0  0  0  0  0  0  0  0  0
  147.9668  130.2113  154.2229 H   0  0  0  0  0  0  0  0  0  0  0  0
  146.9850  129.8835  151.4203 H   0  0  0  0  0  0  0  0  0  0  0  0
  145.8254  130.2898  152.6766 H   0  0  0  0  0  0  0  0  0  0  0  0
  146.4501  131.8988  150.1389 H   0  0  0  0  0  0  0  0  0  0  0  0
  144.9491  131.0782  150.4828 H   0  0  0  0  0  0  0  0  0  0  0  0
  144.8258  133.5842  150.8580 H   0  0  0  0  0  0  0  0  0  0  0  0
  144.4139  132.6592  152.2797 H   0  0  0  0  0  0  0  0  0  0  0  0
  147.0892  134.0507  151.7444 H   0  0  0  0  0  0  0  0  0  0  0  0
  145.8991  134.4811  152.9580 H   0  0  0  0  0  0  0  0  0  0  0  0
  146.1871  132.2372  154.0297 H   0  0  0  0  0  0  0  0  0  0  0  0
  148.1088  131.9407  151.9022 H   0  0  0  0  0  0  0  0  0  0  0  0
  1  2  2  0  0  0  0
  2  3  1  0  0  0  0
  2 15  1  0  0  0  0
  3  4  1  0  0  0  0
  3 25  1  0  0  0  0
  4 14  1  0  0  0  0
  4  5  2  0  0  0  0
  5  6  1  0  0  0  0
  5 26  1  0  0  0  0
  6  7  2  0  0  0  0
  6 27  1  0  0  0  0
  7  8  1  0  0  0  0
  7 13  1  0  0  0  0
  8 12  1  0  0  0  0
  8  9  1  0  0  0  0
  9 10  1  0  0  0  0
  9 28  1  0  0  0  0
  9 29  1  0  0  0  0
 10 11  1  0  0  0  0
 10 30  1  0  0  0  0
 10 31  1  0  0  0  0
 11 12  1  0  0  0  0
 11 32  1  0  0  0  0
 11 33  1  0  0  0  0
 12 34  1  0  0  0  0
 12 35  1  0  0  0  0
 13 14  2  0  0  0  0
 14 36  1  0  0  0  0
 15 16  1  0  0  0  0
 15 37  1  0  0  0  0
 16 24  1  0  0  0  0
 16 17  1  0  0  0  0
 16 38  1  0  0  0  0
 17 18  1  0  0  0  0
 17 39  1  0  0  0  0
 17 40  1  0  0  0  0
 18 19  1  0  0  0  0
 18 41  1  0  0  0  0
 18 42  1  0  0  0  0
 19 24  1  0  0  0  0
 19 20  1  0  0  0  0
 19 52  1  0  0  0  0
 20 21  1  0  0  0  0
 20 43  1  0  0  0  0
 20 44  1  0  0  0  0
 21 22  1  0  0  0  0
 21 45  1  0  0  0  0
 21 46  1  0  0  0  0
 22 23  1  0  0  0  0
 22 47  1  0  0  0  0
 22 48  1  0  0  0  0
 23 24  1  0  0  0  0
 23 49  1  0  0  0  0
 23 50  1  0  0  0  0
 24 51  1  0  0  0  0
M  CHG  1  19   1
M  END
> <s_m_source_file>
AV-unprocessed.smi

> <i_m_source_file_index>
1867

> <i_lp_mmshare_version>
43012

> <i_f3d_flags>
0

> <s_epik_input>
W0NIMl0xW0NIMl1bQ0gyXVtDSDJdW0NASF0oTjEyKVtDQEBIXShbQ0gyXVtDSDJdMilbTkhdQyg9TylbTkhdYzNbY0hdW2NIXWMobltjSF0zKU40W0NIMl1bQ0gyXVtDSDJdW0NIMl00

> <s_epik_cmdline>
J2VwaWtfcHl0aG9uJywgJy1waCcsICc3LjAnLCAnLXRuJywgJzgnLCAnLW1hJywgJzIwMCcsICctbWV0YWxfYmluZGluZycsICctaW1hZScsICc8aW5maWxlLm1hZT4nLCAnLW9tYWUnLCAnPG91dGZpbGUubWFlPic=

> <r_lp_tautomer_probability>
1

> <r_epik_Ionization_Penalty>
0.0751123

> <r_epik_Ionization_Penalty_Charging>
0.000974069

> <r_epik_Ionization_Penalty_Neutral>
0.0741382

> <r_epik_State_Penalty>
0.0647261

> <r_epik_Charging_Adjusted_Penalty>
0.0657002

> <i_epik_Tot_Q>
1

> <i_epik_Tot_abs_Q>
1

> <r_epik_Metal_State_Penalty>
0.0580571

> <b_epik_Metal_Only>
0

> <s_lp_Force_Field>
OPLS_2005

> <r_lp_Energy>
77.2507

> <b_lp_Chiralities_Consistent>
1

> <s_lp_Variant>
AV-unprocessed.smi:1867-7

> <Gold.Version>
5.8.1

> <Gold.Id.Protein>
6NUR|6NUR_protein|mol2

> <Gold.PLP.Fitness>
48.9744

> <Gold.PLP.PLP>
-37.4672

> <Gold.PLP.part.hbond>
-4.0000

> <Gold.PLP.part.metal>
0.0000

> <Gold.PLP.part.buried>
-3.3065

> <Gold.PLP.part.nonpolar>
-29.2495

> <Gold.PLP.part.repulsive>
0.0984

> <Gold.PLP.ligand.clash>
0.0000

> <Gold.PLP.ligand.torsion>
0.8014

> <Gold.PLP.Chemscore.Hbond>
3.3150

> <Gold.PLP.Chemscore.CHOScore>
1.0000

> <Gold.PLP.Chemscore.Metal>
0.0000

> <Gold.Chemscore.Hbonds>
donor molecule, donor type, donor heavy atom, donor atom, acceptor molecule, acceptor atom, score
      L1  H     3    25       P1  7948  1.00
      L1  H    15    37       P1  7948  0.93
      L1  H    19    52       P1 10747  0.37
      P1  H  7989  7998       L1    13  0.90
      L1  C    14    36       P1  7957  0.96

> <Gold.PLP.Chemscore.Internal.Correction>
0.1650

> <Gold.Rescore>
     Score         DG    S(hbond)    S(metal)    S(lipo)     H(rot)  DE(clash)    DE(int)     intcor
     19.64     -22.25       2.22        0.00     101.95       1.00       0.04       2.57       ----

> <Gold.Chemscore.Fitness>
19.6393

> <Gold.Chemscore.DG>
-22.2519

> <Gold.Chemscore.ZeroCoef>
-5.4800

> <Gold.Chemscore.Hbond>
2.2168

> <Gold.Chemscore.Metal>
0.0000

> <Gold.Chemscore.Lipo>
101.9459

> <Gold.Chemscore.Internal_Hbond>
0.0000

> <Gold.Chemscore.DEClash>
0.0408

> <Gold.Chemscore.DEInternal>
2.5718

> <Gold.Chemscore.Rot>
1.0000

> <Gold.Chemscore.Internal.Correction>
   9.000000E+99

> <Gold.Chemscore.Hbonds>
donor molecule, donor type, donor heavy atom, donor atom, acceptor molecule, acceptor atom, score
      L1  H     3    25       P1  7948  0.90
      L1  H    15    37       P1  7948  0.27
      L1  H    19    52       P1 10747  0.37
      P1  H  7989  7998       L1    13  0.17

> <Gold.Chemscore.Hbond.Weighted>
-7.4043

> <Gold.Chemscore.Metal.Weighted>
-0.0000

> <Gold.Chemscore.Lipo.Weighted>
-11.9277

> <Gold.Chemscore.Internal_Hbond.Weighted>
0.0000

> <Gold.Chemscore.DEClash.Weighted>
0.0408

> <Gold.Chemscore.DEInternal.Weighted>
2.5718

> <Gold.Chemscore.Rot.Weighted>
2.5600

> <Gold.Chemscore.Internal.Correction.Weighted>
   9.000000E+99

> <Gold.Protein.RotatedTorsions>
[ 6907 6896 6895 6894 ] final  -76.37 input  -60.11 | X-H torsion
[ 7974 7965 7964 7962 ] final  177.07 input  175.53 | X-H torsion
[ 8008 7997 7996 7995 ] final  176.20 input   59.86 | X-H torsion
[ 10167 10162 10161 10158 ] final   52.40 input  -65.29 | X-H torsion
[ 10718 10713 10712 10709 ] final  -90.24 input   66.30 | X-H torsion
[ 10763 10752 10751 10750 ] final -156.06 input  -60.55 | X-H torsion
[ 11005 11000 10999 10996 ] final  173.15 input  -57.11 | X-H torsion

> <Gold.Protein.ActiveResidues>
 VAL166  LYS551  ARG553  GLY616  TRP617  ASP618  TYR619  PRO620  LYS621  CYS622 
 ASP623  PHE694  ASN695  SER759  ASP760  ASP761  ALA762  ILE779  LEU786  VAL792 
 PHE793  MET794  SER795  GLU796  ALA797  LYS798  CYS799  TRP800  GLU811  SER814 

> <Gold.Protein.RotatedAtoms>
  150.7030  134.4582  159.5368 H   0  0  0  0  0  0  0  0  0  0  0  0  # atno 6907 bound_to 6896
  152.2262  134.8363  160.0489 H   0  0  0  0  0  0  0  0  0  0  0  0  # atno 6908 bound_to 6896
  151.9195  133.3547  159.3929 H   0  0  0  0  0  0  0  0  0  0  0  0  # atno 6909 bound_to 6896
  144.7174  140.0192  143.6440 H   0  0  0  0  0  0  0  0  0  0  0  0  # atno 7974 bound_to 7965
  156.0790  140.1389  156.9736 H   0  0  0  0  0  0  0  0  0  0  0  0  # atno 8008 bound_to 7997
  154.4574  140.0956  156.6845 H   0  0  0  0  0  0  0  0  0  0  0  0  # atno 8009 bound_to 7997
  155.5107  140.3453  155.4390 H   0  0  0  0  0  0  0  0  0  0  0  0  # atno 8010 bound_to 7997
  140.2518  144.3471  150.6346 H   0  0  0  0  0  0  0  0  0  0  0  0  # atno 10167 bound_to 10162
  155.9987  130.4902  150.5292 H   0  0  0  0  0  0  0  0  0  0  0  0  # atno 10718 bound_to 10713
  154.7741  135.3154  154.8129 H   0  0  0  0  0  0  0  0  0  0  0  0  # atno 10763 bound_to 10752
  153.8857  135.6830  153.4768 H   0  0  0  0  0  0  0  0  0  0  0  0  # atno 10764 bound_to 10752
  153.1361  135.4759  154.9359 H   0  0  0  0  0  0  0  0  0  0  0  0  # atno 10765 bound_to 10752
  140.3374  134.7305  157.4178 H   0  0  0  0  0  0  0  0  0  0  0  0  # atno 11005 bound_to 11000
  146.0195  139.3238  143.0821 LP  0  0  0  0  0  0  0  0  0  0  0  0  # atno 17320 bound_to 7965
  145.8585  140.9488  143.0712 LP  0  0  0  0  0  0  0  0  0  0  0  0  # atno 17321 bound_to 7965
  140.6035  143.2167  151.7026 LP  0  0  0  0  0  0  0  0  0  0  0  0  # atno 17342 bound_to 10162
  139.5044  144.3756  152.0427 LP  0  0  0  0  0  0  0  0  0  0  0  0  # atno 17343 bound_to 10162
  157.3244  131.0688  151.1908 LP  0  0  0  0  0  0  0  0  0  0  0  0  # atno 17370 bound_to 10713
  157.2810  130.6750  149.6066 LP  0  0  0  0  0  0  0  0  0  0  0  0  # atno 17371 bound_to 10713
  140.0809  134.5732  155.8541 LP  0  0  0  0  0  0  0  0  0  0  0  0  # atno 17394 bound_to 11000
  141.2047  133.6641  156.6139 LP  0  0  0  0  0  0  0  0  0  0  0  0  # atno 17395 bound_to 11000

$$$$
