AV-unprocessed.smi:2886|AV-procd|sdf|11093|dock9
  -GOLD-   2272015563D 1   1.00000     0.00000
 Structure written by MMmdl.
 28 30  0  0  0  0  0  0  0  0  3 V2000
  152.6216  139.5891  155.6882 O   0  0  0  0  0  0  0  0  0  0  0  0
  151.5013  139.4688  155.1963 C   0  0  0  0  0  0  0  0  0  0  0  0
  151.1339  138.4053  154.4211 N   0  5  0  0  0  0  0  0  0  0  0  0
  149.9290  138.3037  153.9061 N   0  3  0  0  0  0  0  0  0  0  0  0
  148.9724  139.2089  154.0866 C   0  0  0  0  0  0  0  0  0  0  0  0
  149.2217  140.3632  154.8806 C   0  0  0  0  0  0  0  0  0  0  0  0
  148.2578  141.3395  155.1001 N   0  0  0  0  0  0  0  0  0  0  0  0
  146.8856  141.4087  154.6139 C   0  0  2  0  0  0  0  0  0  0  0  0
  146.5015  142.7861  154.0718 C   0  0  0  0  0  0  0  0  0  0  0  0
  145.2359  143.0963  154.8841 C   0  0  2  0  0  0  0  0  0  0  0  0
  145.5762  143.4830  156.3291 C   0  0  0  0  0  0  0  0  0  0  0  0
  145.9940  142.1377  156.9200 C   0  0  0  0  0  0  0  0  0  0  0  0
  145.8326  141.1949  155.7147 C   0  0  1  0  0  0  0  0  0  0  0  0
  144.7123  141.7928  155.0834 O   0  0  0  0  0  0  0  0  0  0  0  0
  150.4666  140.4947  155.4234 C   0  0  0  0  0  0  0  0  0  0  0  0
  150.8681  141.8697  156.3989 Cl  0  0  0  0  0  0  0  0  0  0  0  0
  149.6756  137.4926  153.3205 H   0  0  0  0  0  0  0  0  0  0  0  0
  148.0226  139.0199  153.6034 H   0  0  0  0  0  0  0  0  0  0  0  0
  148.4948  142.0538  155.7744 H   0  0  0  0  0  0  0  0  0  0  0  0
  146.7150  140.6607  153.8404 H   0  0  0  0  0  0  0  0  0  0  0  0
  147.2740  143.5436  154.2130 H   0  0  0  0  0  0  0  0  0  0  0  0
  146.2782  142.7237  153.0063 H   0  0  0  0  0  0  0  0  0  0  0  0
  144.5514  143.7875  154.3915 H   0  0  0  0  0  0  0  0  0  0  0  0
  146.3647  144.2343  156.3849 H   0  0  0  0  0  0  0  0  0  0  0  0
  144.6970  143.8705  156.8454 H   0  0  0  0  0  0  0  0  0  0  0  0
  147.0059  142.1466  157.3257 H   0  0  0  0  0  0  0  0  0  0  0  0
  145.3140  141.8511  157.7230 H   0  0  0  0  0  0  0  0  0  0  0  0
  145.6872  140.1495  155.9883 H   0  0  0  0  0  0  0  0  0  0  0  0
  1  2  2  0  0  0  0
  2  3  1  0  0  0  0
  2 15  1  0  0  0  0
  3  4  1  0  0  0  0
  4  5  2  0  0  0  0
  4 17  1  0  0  0  0
  5  6  1  0  0  0  0
  5 18  1  0  0  0  0
  6 15  2  0  0  0  0
  6  7  1  0  0  0  0
  7  8  1  0  0  0  0
  7 19  1  0  0  0  0
  8 13  1  0  0  0  0
  8  9  1  0  0  0  0
  8 20  1  0  0  0  0
  9 10  1  0  0  0  0
  9 21  1  0  0  0  0
  9 22  1  0  0  0  0
 10 14  1  0  0  0  0
 10 11  1  0  0  0  0
 10 23  1  0  0  0  0
 11 12  1  0  0  0  0
 11 24  1  0  0  0  0
 11 25  1  0  0  0  0
 12 13  1  0  0  0  0
 12 26  1  0  0  0  0
 12 27  1  0  0  0  0
 13 14  1  0  0  0  0
 13 28  1  0  0  0  0
 15 16  1  0  0  0  0
M  CHG  1   3  -1
M  CHG  1   4   1
M  END
> <s_m_source_file>
AV-unprocessed.smi

> <i_m_source_file_index>
2886

> <i_lp_mmshare_version>
43012

> <i_f3d_flags>
0

> <s_epik_input>
Tz1jMVtuSF1uW2NIXWMoYzFDbClbTkhdW0NASF0oW0NIMl1bQ0BASF0yMylbQ0BASF0oTzMpW0NIMl1bQ0gyXTI=

> <s_epik_cmdline>
J2VwaWtfcHl0aG9uJywgJy1waCcsICc3LjAnLCAnLXRuJywgJzgnLCAnLW1hJywgJzIwMCcsICctbWV0YWxfYmluZGluZycsICctaW1hZScsICc8aW5maWxlLm1hZT4nLCAnLW9tYWUnLCAnPG91dGZpbGUubWFlPic=

> <r_lp_tautomer_probability>
0.0138196

> <r_epik_Ionization_Penalty>
2.43027

> <r_epik_Ionization_Penalty_Charging>
2.43027

> <r_epik_Ionization_Penalty_Neutral>
1.33267e-06

> <r_epik_State_Penalty>
2.7044

> <r_epik_Charging_Adjusted_Penalty>
5.13467

> <i_epik_Tot_Q>
0

> <i_epik_Tot_abs_Q>
2

> <r_epik_Metal_State_Penalty>
2.98589

> <b_epik_Metal_Only>
0

> <s_lp_Force_Field>
OPLS_2005

> <r_lp_Energy>
57.8079

> <b_lp_Chiralities_Consistent>
1

> <s_lp_Variant>
AV-unprocessed.smi:2886-7

> <Gold.Version>
5.8.1

> <Gold.Id.Protein>
6NUR|6NUR_protein|mol2

> <Gold.PLP.Fitness>
35.0637

> <Gold.PLP.PLP>
-26.3344

> <Gold.PLP.part.hbond>
-2.1815

> <Gold.PLP.part.metal>
0.0000

> <Gold.PLP.part.buried>
-3.7547

> <Gold.PLP.part.nonpolar>
-20.8483

> <Gold.PLP.part.repulsive>
0.7724

> <Gold.PLP.ligand.clash>
0.0000

> <Gold.PLP.ligand.torsion>
0.1400

> <Gold.PLP.Chemscore.Hbond>
3.0000

> <Gold.PLP.Chemscore.CHOScore>
0.0000

> <Gold.PLP.Chemscore.Metal>
0.0000

> <Gold.Chemscore.Hbonds>
donor molecule, donor type, donor heavy atom, donor atom, acceptor molecule, acceptor atom, score
      L1  H     4    17       P1  7948  2.00
      P1  H  7997  8010       L1     1  1.00

> <Gold.PLP.Chemscore.Internal.Correction>
0.0093

> <Gold.Rescore>
     Score         DG    S(hbond)    S(metal)    S(lipo)     H(rot)  DE(clash)    DE(int)     intcor
     14.60     -14.88       1.82        0.00      50.27       1.00       0.06       0.23       ----

> <Gold.Chemscore.Fitness>
14.5957

> <Gold.Chemscore.DG>
-14.8840

> <Gold.Chemscore.ZeroCoef>
-5.4800

> <Gold.Chemscore.Hbond>
1.8211

> <Gold.Chemscore.Metal>
0.0000

> <Gold.Chemscore.Lipo>
50.2686

> <Gold.Chemscore.Internal_Hbond>
0.0000

> <Gold.Chemscore.DEClash>
0.0574

> <Gold.Chemscore.DEInternal>
0.2309

> <Gold.Chemscore.Rot>
1.0000

> <Gold.Chemscore.Internal.Correction>
   9.000000E+99

> <Gold.Chemscore.Hbonds>
donor molecule, donor type, donor heavy atom, donor atom, acceptor molecule, acceptor atom, score
      L1  H     4    17       P1  7948  0.70
      P1  H  7997  8010       L1     1  1.00

> <Gold.Chemscore.Hbond.Weighted>
-6.0825

> <Gold.Chemscore.Metal.Weighted>
-0.0000

> <Gold.Chemscore.Lipo.Weighted>
-5.8814

> <Gold.Chemscore.Internal_Hbond.Weighted>
0.0000

> <Gold.Chemscore.DEClash.Weighted>
0.0574

> <Gold.Chemscore.DEInternal.Weighted>
0.2309

> <Gold.Chemscore.Rot.Weighted>
2.5600

> <Gold.Chemscore.Internal.Correction.Weighted>
   9.000000E+99

> <Gold.Protein.RotatedTorsions>
[ 6907 6896 6895 6894 ] final   18.85 input  -60.11 | X-H torsion
[ 7974 7965 7964 7962 ] final -146.67 input  175.53 | X-H torsion
[ 8008 7997 7996 7995 ] final   85.33 input   59.86 | X-H torsion
[ 10167 10162 10161 10158 ] final  148.07 input  -65.29 | X-H torsion
[ 10718 10713 10712 10709 ] final -103.52 input   66.30 | X-H torsion
[ 10763 10752 10751 10750 ] final  -79.15 input  -60.55 | X-H torsion
[ 11005 11000 10999 10996 ] final  -46.49 input  -57.11 | X-H torsion

> <Gold.Protein.ActiveResidues>
 VAL166  LYS551  ARG553  GLY616  TRP617  ASP618  TYR619  PRO620  LYS621  CYS622 
 ASP623  PHE694  ASN695  SER759  ASP760  ASP761  ALA762  ILE779  LEU786  VAL792 
 PHE793  MET794  SER795  GLU796  ALA797  LYS798  CYS799  TRP800  GLU811  SER814 

> <Gold.Protein.RotatedAtoms>
  151.8718  135.0486  160.0479 H   0  0  0  0  0  0  0  0  0  0  0  0  # atno 6907 bound_to 6896
  152.2582  133.5270  159.5374 H   0  0  0  0  0  0  0  0  0  0  0  0  # atno 6908 bound_to 6896
  150.7107  134.0782  159.3931 H   0  0  0  0  0  0  0  0  0  0  0  0  # atno 6909 bound_to 6896
  144.8144  140.5427  143.5620 H   0  0  0  0  0  0  0  0  0  0  0  0  # atno 7974 bound_to 7965
  155.9486  140.3402  155.6388 H   0  0  0  0  0  0  0  0  0  0  0  0  # atno 8008 bound_to 7997
  155.6948  140.0753  157.2452 H   0  0  0  0  0  0  0  0  0  0  0  0  # atno 8009 bound_to 7997
  154.4117  140.1650  156.2114 H   0  0  0  0  0  0  0  0  0  0  0  0  # atno 8010 bound_to 7997
  139.4880  144.5707  151.7060 H   0  0  0  0  0  0  0  0  0  0  0  0  # atno 10167 bound_to 10162
  156.0268  130.5471  150.7264 H   0  0  0  0  0  0  0  0  0  0  0  0  # atno 10718 bound_to 10713
  154.5349  135.5705  153.6790 H   0  0  0  0  0  0  0  0  0  0  0  0  # atno 10763 bound_to 10752
  152.9948  135.6214  154.2579 H   0  0  0  0  0  0  0  0  0  0  0  0  # atno 10764 bound_to 10752
  154.2507  135.2859  155.2797 H   0  0  0  0  0  0  0  0  0  0  0  0  # atno 10765 bound_to 10752
  141.0582  133.6718  156.3163 H   0  0  0  0  0  0  0  0  0  0  0  0  # atno 11005 bound_to 11000
  145.5248  139.1476  143.3532 LP  0  0  0  0  0  0  0  0  0  0  0  0  # atno 17320 bound_to 7965
  146.2446  140.5389  142.8919 LP  0  0  0  0  0  0  0  0  0  0  0  0  # atno 17321 bound_to 7965
  140.5294  144.0754  150.6048 LP  0  0  0  0  0  0  0  0  0  0  0  0  # atno 17342 bound_to 10162
  140.3739  143.2839  152.0247 LP  0  0  0  0  0  0  0  0  0  0  0  0  # atno 17343 bound_to 10162
  157.4867  131.0907  151.0474 LP  0  0  0  0  0  0  0  0  0  0  0  0  # atno 17370 bound_to 10713
  157.0892  130.5935  149.5436 LP  0  0  0  0  0  0  0  0  0  0  0  0  # atno 17371 bound_to 10713
  140.5921  134.5640  157.5501 LP  0  0  0  0  0  0  0  0  0  0  0  0  # atno 17394 bound_to 11000
  139.9409  134.7789  156.0681 LP  0  0  0  0  0  0  0  0  0  0  0  0  # atno 17395 bound_to 11000

$$$$
