AV-unprocessed.smi:2437|AV-procd|sdf|9594|dock6
  -GOLD-   2272013223D 1   1.00000     0.00000
 Structure written by MMmdl.
 34 35  0  0  0  0  0  0  0  0  3 V2000
  150.8347  141.6610  158.7819 O   0  0  0  0  0  0  0  0  0  0  0  0
  150.4988  142.2654  157.7623 C   0  0  0  0  0  0  0  0  0  0  0  0
  149.5950  141.6054  156.7105 C   0  0  0  0  0  0  0  0  0  0  0  0
  150.2213  140.4566  156.0343 N   0  0  0  0  0  0  0  0  0  0  0  0
  151.3068  139.8427  156.6899 C   0  0  0  0  0  0  0  0  0  0  0  0
  151.9604  138.7899  156.1608 C   0  0  0  0  0  0  0  0  0  0  0  0
  153.0731  138.1718  156.8482 N   0  3  0  0  0  0  0  0  0  0  0  0
  153.6260  138.7933  157.7499 O   0  0  0  0  0  0  0  0  0  0  0  0
  153.4323  137.0479  156.5099 O   0  5  0  0  0  0  0  0  0  0  0  0
  151.5118  138.2954  154.8735 C   0  0  0  0  0  0  0  0  0  0  0  0
  150.4754  138.8792  154.2404 C   0  0  0  0  0  0  0  0  0  0  0  0
  149.7648  140.0243  154.8188 C   0  0  0  0  0  0  0  0  0  0  0  0
  148.8179  140.5626  154.2452 O   0  0  0  0  0  0  0  0  0  0  0  0
  150.8747  143.5260  157.4998 N   0  0  0  0  0  0  0  0  0  0  0  0
  151.7361  144.3423  158.3514 C   0  0  0  0  0  0  0  0  0  0  0  0
  152.9871  143.5650  158.8098 C   0  0  0  0  0  0  0  0  0  0  0  0
  152.7875  143.2847  160.2995 C   0  0  0  0  0  0  0  0  0  0  0  0
  151.9567  144.4649  160.7921 C   0  0  0  0  0  0  0  0  0  0  0  0
  150.9973  144.7598  159.6378 C   0  0  0  0  0  0  0  0  0  0  0  0
  148.6691  141.3006  157.2002 H   0  0  0  0  0  0  0  0  0  0  0  0
  149.2941  142.3564  155.9775 H   0  0  0  0  0  0  0  0  0  0  0  0
  151.5681  140.2891  157.6385 H   0  0  0  0  0  0  0  0  0  0  0  0
  152.0049  137.4553  154.4068 H   0  0  0  0  0  0  0  0  0  0  0  0
  150.1590  138.4959  153.2814 H   0  0  0  0  0  0  0  0  0  0  0  0
  150.5466  143.9503  156.6442 H   0  0  0  0  0  0  0  0  0  0  0  0
  152.0438  145.2360  157.8051 H   0  0  0  0  0  0  0  0  0  0  0  0
  153.1661  142.6500  158.2437 H   0  0  0  0  0  0  0  0  0  0  0  0
  153.8666  144.1968  158.6790 H   0  0  0  0  0  0  0  0  0  0  0  0
  152.2246  142.3591  160.4280 H   0  0  0  0  0  0  0  0  0  0  0  0
  153.7299  143.1800  160.8376 H   0  0  0  0  0  0  0  0  0  0  0  0
  151.4376  144.2529  161.7273 H   0  0  0  0  0  0  0  0  0  0  0  0
  152.6064  145.3252  160.9588 H   0  0  0  0  0  0  0  0  0  0  0  0
  150.6946  145.8072  159.6176 H   0  0  0  0  0  0  0  0  0  0  0  0
  150.0909  144.1667  159.7715 H   0  0  0  0  0  0  0  0  0  0  0  0
  1  2  2  0  0  0  0
  2  3  1  0  0  0  0
  2 14  1  0  0  0  0
  3  4  1  0  0  0  0
  3 20  1  0  0  0  0
  3 21  1  0  0  0  0
  4 12  1  0  0  0  0
  4  5  1  0  0  0  0
  5  6  2  0  0  0  0
  5 22  1  0  0  0  0
  6  7  1  0  0  0  0
  6 10  1  0  0  0  0
  7  8  2  0  0  0  0
  7  9  1  0  0  0  0
 10 11  2  0  0  0  0
 10 23  1  0  0  0  0
 11 12  1  0  0  0  0
 11 24  1  0  0  0  0
 12 13  2  0  0  0  0
 14 15  1  0  0  0  0
 14 25  1  0  0  0  0
 15 19  1  0  0  0  0
 15 16  1  0  0  0  0
 15 26  1  0  0  0  0
 16 17  1  0  0  0  0
 16 27  1  0  0  0  0
 16 28  1  0  0  0  0
 17 18  1  0  0  0  0
 17 29  1  0  0  0  0
 17 30  1  0  0  0  0
 18 19  1  0  0  0  0
 18 31  1  0  0  0  0
 18 32  1  0  0  0  0
 19 33  1  0  0  0  0
 19 34  1  0  0  0  0
M  CHG  1   7   1
M  CHG  1   9  -1
M  END
> <s_m_source_file>
AV-unprocessed.smi

> <i_m_source_file_index>
2437

> <i_lp_mmshare_version>
43012

> <i_f3d_flags>
0

> <s_epik_input>
W0NIMl0xW0NIMl1bQ0gyXVtDSDJdW0NIXTFbTkhdQyg9TylbQ0gyXW4yW2NIXWMoW04rXSg9TylbTy1dKVtjSF1bY0hdYzI9Tw==

> <s_epik_cmdline>
J2VwaWtfcHl0aG9uJywgJy1waCcsICc3LjAnLCAnLXRuJywgJzgnLCAnLW1hJywgJzIwMCcsICctbWV0YWxfYmluZGluZycsICctaW1hZScsICc8aW5maWxlLm1hZT4nLCAnLW9tYWUnLCAnPG91dGZpbGUubWFlPic=

> <r_lp_tautomer_probability>
1

> <r_epik_Ionization_Penalty>
1.93821e-08

> <r_epik_Ionization_Penalty_Charging>
8.03436e-11

> <r_epik_Ionization_Penalty_Neutral>
1.93017e-08

> <r_epik_State_Penalty>
-0

> <r_epik_Charging_Adjusted_Penalty>
8.03436e-11

> <i_epik_Tot_Q>
0

> <i_epik_Tot_abs_Q>
2

> <r_epik_Metal_State_Penalty>
-0

> <b_epik_Metal_Only>
0

> <s_lp_Force_Field>
OPLS_2005

> <r_lp_Energy>
29.2975

> <b_lp_Chiralities_Consistent>
1

> <s_lp_Variant>
AV-unprocessed.smi:2437-1

> <Gold.Version>
5.8.1

> <Gold.Id.Protein>
6NUR|6NUR_protein|mol2

> <Gold.PLP.Fitness>
48.6607

> <Gold.PLP.PLP>
-42.2427

> <Gold.PLP.part.hbond>
-3.0000

> <Gold.PLP.part.metal>
0.0000

> <Gold.PLP.part.buried>
-4.3330

> <Gold.PLP.part.nonpolar>
-35.1509

> <Gold.PLP.part.repulsive>
0.1451

> <Gold.PLP.ligand.clash>
0.0000

> <Gold.PLP.ligand.torsion>
0.5818

> <Gold.PLP.Chemscore.Hbond>
2.5200

> <Gold.PLP.Chemscore.CHOScore>
0.0000

> <Gold.PLP.Chemscore.Metal>
0.0000

> <Gold.Chemscore.Hbonds>
donor molecule, donor type, donor heavy atom, donor atom, acceptor molecule, acceptor atom, score
      L1  H    14    25       P1  8028  0.83
      P1  H  7997  8008       L1     8  1.00
      P1  H 10752 10764       L1     9  0.70

> <Gold.PLP.Chemscore.Internal.Correction>
0.0217

> <Gold.Rescore>
     Score         DG    S(hbond)    S(metal)    S(lipo)     H(rot)  DE(clash)    DE(int)     intcor
     17.32     -21.68       2.82        0.00      92.63       1.58       0.02       4.34       ----

> <Gold.Chemscore.Fitness>
17.3174

> <Gold.Chemscore.DG>
-21.6822

> <Gold.Chemscore.ZeroCoef>
-5.4800

> <Gold.Chemscore.Hbond>
2.8194

> <Gold.Chemscore.Metal>
0.0000

> <Gold.Chemscore.Lipo>
92.6341

> <Gold.Chemscore.Internal_Hbond>
0.0000

> <Gold.Chemscore.DEClash>
0.0234

> <Gold.Chemscore.DEInternal>
4.3414

> <Gold.Chemscore.Rot>
1.5831

> <Gold.Chemscore.Internal.Correction>
   9.000000E+99

> <Gold.Chemscore.Hbonds>
donor molecule, donor type, donor heavy atom, donor atom, acceptor molecule, acceptor atom, score
      L1  H    14    25       P1  8028  0.78
      P1  H  7997  8008       L1     8  0.29
      P1  H 10752 10764       L1     9  0.65

> <Gold.Chemscore.Hbond.Weighted>
-9.4167

> <Gold.Chemscore.Metal.Weighted>
-0.0000

> <Gold.Chemscore.Lipo.Weighted>
-10.8382

> <Gold.Chemscore.Internal_Hbond.Weighted>
0.0000

> <Gold.Chemscore.DEClash.Weighted>
0.0234

> <Gold.Chemscore.DEInternal.Weighted>
4.3414

> <Gold.Chemscore.Rot.Weighted>
4.0527

> <Gold.Chemscore.Internal.Correction.Weighted>
   9.000000E+99

> <Gold.Protein.RotatedTorsions>
[ 6907 6896 6895 6894 ] final  161.97 input  -60.11 | X-H torsion
[ 7974 7965 7964 7962 ] final  -30.22 input  175.53 | X-H torsion
[ 8008 7997 7996 7995 ] final  -70.82 input   59.86 | X-H torsion
[ 10167 10162 10161 10158 ] final  179.38 input  -65.29 | X-H torsion
[ 10718 10713 10712 10709 ] final   29.18 input   66.30 | X-H torsion
[ 10763 10752 10751 10750 ] final   -3.42 input  -60.55 | X-H torsion
[ 11005 11000 10999 10996 ] final  175.75 input  -57.11 | X-H torsion

> <Gold.Protein.ActiveResidues>
 VAL166  LYS551  ARG553  GLY616  TRP617  ASP618  TYR619  PRO620  LYS621  CYS622 
 ASP623  PHE694  ASN695  SER759  ASP760  ASP761  ALA762  ILE779  LEU786  VAL792 
 PHE793  MET794  SER795  GLU796  ALA797  LYS798  CYS799  TRP800  GLU811  SER814 

> <Gold.Protein.RotatedAtoms>
  151.9475  133.3656  159.3987 H   0  0  0  0  0  0  0  0  0  0  0  0  # atno 6907 bound_to 6896
  150.6987  134.4375  159.5286 H   0  0  0  0  0  0  0  0  0  0  0  0  # atno 6908 bound_to 6896
  152.2042  134.8560  160.0555 H   0  0  0  0  0  0  0  0  0  0  0  0  # atno 6909 bound_to 6896
  146.1159  140.5513  142.8757 H   0  0  0  0  0  0  0  0  0  0  0  0  # atno 7974 bound_to 7965
  154.5041  140.0827  156.7858 H   0  0  0  0  0  0  0  0  0  0  0  0  # atno 8008 bound_to 7997
  155.3935  140.3433  155.4234 H   0  0  0  0  0  0  0  0  0  0  0  0  # atno 8009 bound_to 7997
  156.1493  140.1553  156.8783 H   0  0  0  0  0  0  0  0  0  0  0  0  # atno 8010 bound_to 7997
  139.5334  144.2568  152.0739 H   0  0  0  0  0  0  0  0  0  0  0  0  # atno 10167 bound_to 10162
  157.2431  130.7079  149.6368 H   0  0  0  0  0  0  0  0  0  0  0  0  # atno 10718 bound_to 10713
  153.3712  135.6994  153.6637 H   0  0  0  0  0  0  0  0  0  0  0  0  # atno 10763 bound_to 10752
  153.5286  135.3597  155.2666 H   0  0  0  0  0  0  0  0  0  0  0  0  # atno 10764 bound_to 10752
  154.8681  135.4175  154.2990 H   0  0  0  0  0  0  0  0  0  0  0  0  # atno 10765 bound_to 10752
  140.3656  134.7074  157.4359 H   0  0  0  0  0  0  0  0  0  0  0  0  # atno 11005 bound_to 11000
  144.7552  140.5290  143.6774 LP  0  0  0  0  0  0  0  0  0  0  0  0  # atno 17320 bound_to 7965
  145.5568  139.1478  143.3363 LP  0  0  0  0  0  0  0  0  0  0  0  0  # atno 17321 bound_to 7965
  140.2035  144.4634  150.6420 LP  0  0  0  0  0  0  0  0  0  0  0  0  # atno 17342 bound_to 10162
  140.6526  143.2229  151.6043 LP  0  0  0  0  0  0  0  0  0  0  0  0  # atno 17343 bound_to 10162
  155.9669  130.4451  150.5490 LP  0  0  0  0  0  0  0  0  0  0  0  0  # atno 17370 bound_to 10713
  157.3357  131.0707  151.1827 LP  0  0  0  0  0  0  0  0  0  0  0  0  # atno 17371 bound_to 10713
  140.0592  134.6020  155.8769 LP  0  0  0  0  0  0  0  0  0  0  0  0  # atno 17394 bound_to 11000
  141.1970  133.6594  156.5722 LP  0  0  0  0  0  0  0  0  0  0  0  0  # atno 17395 bound_to 11000

$$$$
