AV-unprocessed.smi:287|AV-procd|sdf|2190|dock3
  -GOLD-   2262021583D 1   1.00000     0.00000
 Structure written by MMmdl.
 55 58  0  0  0  0  0  0  0  0  1 V2000
  154.3856  140.0342  161.0973 C   0  0  0  0  0  0  0  0  0  0  0  0
  153.4415  141.0930  160.6407 C   0  0  0  0  0  0  0  0  0  0  0  0
  152.6701  141.2547  159.5271 C   0  0  0  0  0  0  0  0  0  0  0  0
  151.9656  142.4871  159.6712 C   0  0  0  0  0  0  0  0  0  0  0  0
  150.9802  143.0728  158.6685 C   0  0  2  0  0  0  0  0  0  0  0  0
  151.6430  144.2250  157.8949 C   0  0  0  0  0  0  0  0  0  0  0  0
  149.8425  143.6453  159.2841 O   0  0  0  0  0  0  0  0  0  0  0  0
  150.4441  142.0089  157.6826 C   0  0  0  0  0  0  0  0  0  0  0  0
  149.5969  142.5773  156.6390 N   0  0  0  0  0  0  0  0  0  0  0  0
  148.9426  141.7693  155.7784 C   0  0  0  0  0  0  0  0  0  0  0  0
  148.8719  142.0679  154.4558 N   0  0  0  0  0  0  0  0  0  0  0  0
  148.2215  141.2506  153.6241 C   0  0  0  0  0  0  0  0  0  0  0  0
  147.5861  140.1110  153.9036 N   0  0  0  0  0  0  0  0  0  0  0  0
  147.6498  139.8008  155.2318 C   0  0  0  0  0  0  0  0  0  0  0  0
  148.3098  140.5804  156.2247 C   0  0  0  0  0  0  0  0  0  0  0  0
  148.1847  139.9719  157.4642 N   0  0  0  0  0  0  0  0  0  0  0  0
  147.4950  138.8929  157.2147 C   0  0  0  0  0  0  0  0  0  0  0  0
  147.1158  138.7109  155.9019 N   0  0  0  0  0  0  0  0  0  0  0  0
  146.3453  137.5334  155.3664 C   0  0  2  0  0  0  0  0  0  0  0  0
  146.6046  137.4233  154.0032 O   0  0  0  0  0  0  0  0  0  0  0  0
  145.5567  138.0379  153.2722 C   0  0  1  0  0  0  0  0  0  0  0  0
  145.5199  137.5040  151.8292 C   0  0  0  0  0  0  0  0  0  0  0  0
  146.5137  138.0958  151.0178 O   0  0  0  0  0  0  0  0  0  0  0  0
  144.2900  137.8346  154.1213 C   0  0  2  0  0  0  0  0  0  0  0  0
  143.4585  138.9742  154.0339 O   0  0  0  0  0  0  0  0  0  0  0  0
  144.8193  137.6553  155.5497 C   0  0  1  0  0  0  0  0  0  0  0  0
  144.2840  136.4781  156.1205 O   0  0  0  0  0  0  0  0  0  0  0  0
  152.3824  142.9894  160.8809 C   0  0  0  0  0  0  0  0  0  0  0  0
  152.0690  144.2267  161.6560 C   0  0  0  0  0  0  0  0  0  0  0  0
  153.2756  142.1495  161.4750 O   0  0  0  0  0  0  0  0  0  0  0  0
  146.7740  136.6827  155.8984 H   0  0  0  0  0  0  0  0  0  0  0  0
  145.8056  139.0979  153.2234 H   0  0  0  0  0  0  0  0  0  0  0  0
  143.7296  136.9553  153.8024 H   0  0  0  0  0  0  0  0  0  0  0  0
  144.5765  138.4874  156.2106 H   0  0  0  0  0  0  0  0  0  0  0  0
  154.3743  139.1828  160.4163 H   0  0  0  0  0  0  0  0  0  0  0  0
  154.1140  139.6755  162.0901 H   0  0  0  0  0  0  0  0  0  0  0  0
  155.4048  140.4183  161.1419 H   0  0  0  0  0  0  0  0  0  0  0  0
  152.6114  140.5624  158.7005 H   0  0  0  0  0  0  0  0  0  0  0  0
  152.5169  143.8794  157.3416 H   0  0  0  0  0  0  0  0  0  0  0  0
  151.9740  145.0164  158.5688 H   0  0  0  0  0  0  0  0  0  0  0  0
  150.9562  144.6705  157.1742 H   0  0  0  0  0  0  0  0  0  0  0  0
  149.3071  144.0415  158.6139 H   0  0  0  0  0  0  0  0  0  0  0  0
  151.2626  141.4366  157.2427 H   0  0  0  0  0  0  0  0  0  0  0  0
  149.8305  141.2982  158.2383 H   0  0  0  0  0  0  0  0  0  0  0  0
  149.5026  143.5832  156.6428 H   0  0  0  0  0  0  0  0  0  0  0  0
  148.2070  141.5528  152.5874 H   0  0  0  0  0  0  0  0  0  0  0  0
  147.2409  138.1893  157.9943 H   0  0  0  0  0  0  0  0  0  0  0  0
  145.6869  136.4268  151.8324 H   0  0  0  0  0  0  0  0  0  0  0  0
  144.5394  137.6732  151.3839 H   0  0  0  0  0  0  0  0  0  0  0  0
  147.3430  137.6858  151.2116 H   0  0  0  0  0  0  0  0  0  0  0  0
  143.6801  139.4438  153.2437 H   0  0  0  0  0  0  0  0  0  0  0  0
  143.8636  136.7058  156.9359 H   0  0  0  0  0  0  0  0  0  0  0  0
  152.2874  145.1173  161.0668 H   0  0  0  0  0  0  0  0  0  0  0  0
  152.6581  144.2792  162.5719 H   0  0  0  0  0  0  0  0  0  0  0  0
  151.0152  144.2518  161.9334 H   0  0  0  0  0  0  0  0  0  0  0  0
  1  2  1  0  0  0  0
  1 35  1  0  0  0  0
  1 36  1  0  0  0  0
  1 37  1  0  0  0  0
  2 30  1  0  0  0  0
  2  3  2  0  0  0  0
  3  4  1  0  0  0  0
  3 38  1  0  0  0  0
  4  5  1  0  0  0  0
  4 28  2  0  0  0  0
  5  6  1  0  0  0  0
  5  7  1  0  0  0  0
  5  8  1  0  0  0  0
  6 39  1  0  0  0  0
  6 40  1  0  0  0  0
  6 41  1  0  0  0  0
  7 42  1  0  0  0  0
  8  9  1  0  0  0  0
  8 43  1  0  0  0  0
  8 44  1  0  0  0  0
  9 10  1  0  0  0  0
  9 45  1  0  0  0  0
 10 15  1  0  0  0  0
 10 11  2  0  0  0  0
 11 12  1  0  0  0  0
 12 13  2  0  0  0  0
 12 46  1  0  0  0  0
 13 14  1  0  0  0  0
 14 18  1  0  0  0  0
 14 15  2  0  0  0  0
 15 16  1  0  0  0  0
 16 17  2  0  0  0  0
 17 18  1  0  0  0  0
 17 47  1  0  0  0  0
 18 19  1  0  0  0  0
 19 31  1  0  0  0  0
 19 26  1  0  0  0  0
 19 20  1  0  0  0  0
 20 21  1  0  0  0  0
 21 32  1  0  0  0  0
 21 22  1  0  0  0  0
 21 24  1  0  0  0  0
 22 23  1  0  0  0  0
 22 48  1  0  0  0  0
 22 49  1  0  0  0  0
 23 50  1  0  0  0  0
 24 33  1  0  0  0  0
 24 25  1  0  0  0  0
 24 26  1  0  0  0  0
 25 51  1  0  0  0  0
 26 34  1  0  0  0  0
 26 27  1  0  0  0  0
 27 52  1  0  0  0  0
 28 29  1  0  0  0  0
 28 30  1  0  0  0  0
 29 53  1  0  0  0  0
 29 54  1  0  0  0  0
 29 55  1  0  0  0  0
M  END
> <s_m_source_file>
AV-unprocessed.smi

> <i_m_source_file_index>
287

> <i_lp_mmshare_version>
43012

> <i_f3d_flags>
0

> <s_epik_input>
W0NIM11jMVtjSF1jKGMobzEpW0NIM10pW0NAQF0oW0NIM10pKFtPSF0pW0NIMl1bTkhdYyhuW2NIXW4yKWMoYzIzKW5bY0hdbjNbQ0BASF00T1tDQEhdKFtDSDJdW09IXSlbQ0BASF0oW09IXSlbQ0BIXTRbT0hd

> <s_epik_cmdline>
J2VwaWtfcHl0aG9uJywgJy1waCcsICc3LjAnLCAnLXRuJywgJzgnLCAnLW1hJywgJzIwMCcsICctbWV0YWxfYmluZGluZycsICctaW1hZScsICc8aW5maWxlLm1hZT4nLCAnLW9tYWUnLCAnPG91dGZpbGUubWFlPic=

> <r_lp_tautomer_probability>
1

> <r_epik_Ionization_Penalty>
0.000992612

> <r_epik_Ionization_Penalty_Charging>
0

> <r_epik_Ionization_Penalty_Neutral>
0.000992612

> <r_epik_State_Penalty>
-0

> <r_epik_Charging_Adjusted_Penalty>
0

> <i_epik_Tot_Q>
0

> <i_epik_Tot_abs_Q>
0

> <r_epik_Metal_State_Penalty>
-0

> <b_epik_Metal_Only>
0

> <s_epik_Chemistry_Notes>
This compound contains an acetal/aminal-like group ( X-CH(R)-Y where X, Y are N, S, or O) that may be acid/base labile, releasing an aldehyde.

> <s_lp_Force_Field>
OPLS_2005

> <r_lp_Energy>
41.2787

> <b_lp_Chiralities_Consistent>
1

> <s_lp_Variant>
AV-unprocessed.smi:287-14

> <Gold.Version>
5.8.1

> <Gold.Id.Protein>
6NUR|6NUR_protein|mol2

> <Gold.PLP.Fitness>
50.6755

> <Gold.PLP.PLP>
-44.0603

> <Gold.PLP.part.hbond>
-6.0703

> <Gold.PLP.part.metal>
0.0000

> <Gold.PLP.part.buried>
-5.1482

> <Gold.PLP.part.nonpolar>
-33.2498

> <Gold.PLP.part.repulsive>
1.6430

> <Gold.PLP.ligand.clash>
0.0000

> <Gold.PLP.ligand.torsion>
1.8885

> <Gold.PLP.Chemscore.Hbond>
2.6960

> <Gold.PLP.Chemscore.CHOScore>
0.7242

> <Gold.PLP.Chemscore.Metal>
0.0000

> <Gold.Chemscore.Hbonds>
donor molecule, donor type, donor heavy atom, donor atom, acceptor molecule, acceptor atom, score
      L1  H     9    45       P1  8028  0.75
      L1  H    23    50       P1  7948  0.52
      L1  H    25    51       P1 10175  0.32
      L1  C    12    46       P1  7957  0.66

> <Gold.PLP.Chemscore.Internal.Correction>
0.1317

> <Gold.Rescore>
     Score         DG    S(hbond)    S(metal)    S(lipo)     H(rot)  DE(clash)    DE(int)     intcor
      7.83     -13.18       2.86        0.00      99.38       5.27       0.06       5.29       ----

> <Gold.Chemscore.Fitness>
7.8313

> <Gold.Chemscore.DG>
-13.1848

> <Gold.Chemscore.ZeroCoef>
-5.4800

> <Gold.Chemscore.Hbond>
2.8627

> <Gold.Chemscore.Metal>
0.0000

> <Gold.Chemscore.Lipo>
99.3777

> <Gold.Chemscore.Internal_Hbond>
0.0000

> <Gold.Chemscore.DEClash>
0.0601

> <Gold.Chemscore.DEInternal>
5.2935

> <Gold.Chemscore.Rot>
5.2672

> <Gold.Chemscore.Internal.Correction>
   9.000000E+99

> <Gold.Chemscore.Hbonds>
donor molecule, donor type, donor heavy atom, donor atom, acceptor molecule, acceptor atom, score
      L1  H     9    45       P1  8028  0.75
      L1  H    23    50       P1  7948  0.52
      L1  H    25    51       P1 10175  0.32

> <Gold.Chemscore.Hbond.Weighted>
-9.5615

> <Gold.Chemscore.Metal.Weighted>
-0.0000

> <Gold.Chemscore.Lipo.Weighted>
-11.6272

> <Gold.Chemscore.Internal_Hbond.Weighted>
0.0000

> <Gold.Chemscore.DEClash.Weighted>
0.0601

> <Gold.Chemscore.DEInternal.Weighted>
5.2935

> <Gold.Chemscore.Rot.Weighted>
13.4839

> <Gold.Chemscore.Internal.Correction.Weighted>
   9.000000E+99

> <Gold.Protein.RotatedTorsions>
[ 6907 6896 6895 6894 ] final   73.09 input  -60.11 | X-H torsion
[ 7974 7965 7964 7962 ] final   93.49 input  175.53 | X-H torsion
[ 8008 7997 7996 7995 ] final  -78.72 input   59.86 | X-H torsion
[ 10167 10162 10161 10158 ] final -172.08 input  -65.29 | X-H torsion
[ 10718 10713 10712 10709 ] final   54.67 input   66.30 | X-H torsion
[ 10763 10752 10751 10750 ] final -129.18 input  -60.55 | X-H torsion
[ 11005 11000 10999 10996 ] final  119.91 input  -57.11 | X-H torsion

> <Gold.Protein.ActiveResidues>
 VAL166  LYS551  ARG553  GLY616  TRP617  ASP618  TYR619  PRO620  LYS621  CYS622 
 ASP623  PHE694  ASN695  SER759  ASP760  ASP761  ALA762  ILE779  LEU786  VAL792 
 PHE793  MET794  SER795  GLU796  ALA797  LYS798  CYS799  TRP800  GLU811  SER814 

> <Gold.Protein.RotatedAtoms>
  152.4904  134.4474  159.9563 H   0  0  0  0  0  0  0  0  0  0  0  0  # atno 6907 bound_to 6896
  151.4463  133.3623  159.2796 H   0  0  0  0  0  0  0  0  0  0  0  0  # atno 6908 bound_to 6896
  150.9053  134.8491  159.7448 H   0  0  0  0  0  0  0  0  0  0  0  0  # atno 6909 bound_to 6896
  145.4782  139.2279  143.2897 H   0  0  0  0  0  0  0  0  0  0  0  0  # atno 7974 bound_to 7965
  154.5716  140.0690  156.8973 H   0  0  0  0  0  0  0  0  0  0  0  0  # atno 8008 bound_to 7997
  155.2624  140.3359  155.4254 H   0  0  0  0  0  0  0  0  0  0  0  0  # atno 8009 bound_to 7997
  156.2122  140.1764  156.7654 H   0  0  0  0  0  0  0  0  0  0  0  0  # atno 8010 bound_to 7997
  139.5765  144.1521  152.1457 H   0  0  0  0  0  0  0  0  0  0  0  0  # atno 10167 bound_to 10162
  157.5277  130.8609  149.8645 H   0  0  0  0  0  0  0  0  0  0  0  0  # atno 10718 bound_to 10713
  154.8757  135.3904  154.3878 H   0  0  0  0  0  0  0  0  0  0  0  0  # atno 10763 bound_to 10752
  153.4617  135.7029  153.6051 H   0  0  0  0  0  0  0  0  0  0  0  0  # atno 10764 bound_to 10752
  153.4547  135.3826  155.2272 H   0  0  0  0  0  0  0  0  0  0  0  0  # atno 10765 bound_to 10752
  139.9165  134.9631  156.7727 H   0  0  0  0  0  0  0  0  0  0  0  0  # atno 11005 bound_to 11000
  146.2357  140.5566  142.8956 LP  0  0  0  0  0  0  0  0  0  0  0  0  # atno 17320 bound_to 7965
  144.7905  140.6022  143.6545 LP  0  0  0  0  0  0  0  0  0  0  0  0  # atno 17321 bound_to 7965
  140.1065  144.5494  150.6954 LP  0  0  0  0  0  0  0  0  0  0  0  0  # atno 17342 bound_to 10162
  140.7047  143.2459  151.4761 LP  0  0  0  0  0  0  0  0  0  0  0  0  # atno 17343 bound_to 10162
  156.0399  130.3741  150.1461 LP  0  0  0  0  0  0  0  0  0  0  0  0  # atno 17370 bound_to 10713
  156.9647  130.9816  151.3471 LP  0  0  0  0  0  0  0  0  0  0  0  0  # atno 17371 bound_to 10713
  140.6608  133.9647  155.7804 LP  0  0  0  0  0  0  0  0  0  0  0  0  # atno 17394 bound_to 11000
  141.0645  134.0297  157.3613 LP  0  0  0  0  0  0  0  0  0  0  0  0  # atno 17395 bound_to 11000

$$$$
