AV-unprocessed.smi:1128|AV-procd|sdf|4844|dock3
  -GOLD-   22720 3413D 1   1.00000     0.00000
 Structure written by MMmdl.
 37 38  0  0  0  0  0  0  0  0  2 V2000
  149.9554  135.4994  158.2601 O   0  0  0  0  0  0  0  0  0  0  0  0
  149.4008  136.5461  158.5934 C   0  0  0  0  0  0  0  0  0  0  0  0
  149.6387  137.7244  157.9989 N   0  0  0  0  0  0  0  0  0  0  0  0
  150.5727  137.9530  156.8996 C   0  0  0  0  0  0  0  0  0  0  0  0
  150.9459  139.4422  156.7502 C   0  0  2  0  0  0  0  0  0  0  0  0
  151.4085  140.0788  158.0826 C   0  0  0  0  0  0  0  0  0  0  0  0
  151.5018  141.5925  158.0099 C   0  0  0  0  0  0  0  0  0  0  0  0
  150.9533  142.3218  157.0243 C   0  0  0  0  0  0  0  0  0  0  0  0
  150.1705  141.7144  155.8755 C   0  0  0  0  0  0  0  0  0  0  0  0
  149.7801  140.2494  156.1465 C   0  0  0  0  0  0  0  0  0  0  0  0
  148.4956  136.6879  159.5791 N   0  0  0  0  0  0  0  0  0  0  0  0
  147.9576  135.7337  160.4613 C   0  0  0  0  0  0  0  0  0  0  0  0
  148.0380  134.3826  160.3047 C   0  0  0  0  0  0  0  0  0  0  0  0
  147.4571  133.4495  161.2625 C   0  0  0  0  0  0  0  0  0  0  0  0
  147.4597  131.9421  161.0786 C   0  0  0  0  0  0  0  0  0  0  0  0
  148.3112  131.3569  161.9212 F   0  0  0  0  0  0  0  0  0  0  0  0
  146.2454  131.4331  161.2874 F   0  0  0  0  0  0  0  0  0  0  0  0
  147.8304  131.6375  159.8358 F   0  0  0  0  0  0  0  0  0  0  0  0
  146.8126  134.0951  162.2994 C   0  0  0  0  0  0  0  0  0  0  0  0
  146.6970  135.4200  162.5351 N   0  5  0  0  0  0  0  0  0  0  0  0
  147.2518  136.2834  161.6383 C   0  0  0  0  0  0  0  0  0  0  0  0
  147.1764  137.5034  161.7900 O   0  0  0  0  0  0  0  0  0  0  0  0
  149.1365  138.5313  158.3393 H   0  0  0  0  0  0  0  0  0  0  0  0
  151.4696  137.3711  157.1133 H   0  0  0  0  0  0  0  0  0  0  0  0
  150.1788  137.5636  155.9592 H   0  0  0  0  0  0  0  0  0  0  0  0
  151.7774  139.5046  156.0459 H   0  0  0  0  0  0  0  0  0  0  0  0
  150.7173  139.8251  158.8871 H   0  0  0  0  0  0  0  0  0  0  0  0
  152.3843  139.6850  158.3681 H   0  0  0  0  0  0  0  0  0  0  0  0
  152.0346  142.0856  158.8097 H   0  0  0  0  0  0  0  0  0  0  0  0
  151.0700  143.3958  157.0215 H   0  0  0  0  0  0  0  0  0  0  0  0
  149.2748  142.3095  155.6955 H   0  0  0  0  0  0  0  0  0  0  0  0
  150.7829  141.7822  154.9760 H   0  0  0  0  0  0  0  0  0  0  0  0
  149.4362  139.7899  155.2191 H   0  0  0  0  0  0  0  0  0  0  0  0
  148.9329  140.2224  156.8332 H   0  0  0  0  0  0  0  0  0  0  0  0
  148.1507  137.6243  159.7327 H   0  0  0  0  0  0  0  0  0  0  0  0
  148.5369  133.9475  159.4559 H   0  0  0  0  0  0  0  0  0  0  0  0
  146.3103  133.4496  163.0514 H   0  0  0  0  0  0  0  0  0  0  0  0
  1  2  2  0  0  0  0
  2  3  1  0  0  0  0
  2 11  1  0  0  0  0
  3  4  1  0  0  0  0
  3 23  1  0  0  0  0
  4  5  1  0  0  0  0
  4 24  1  0  0  0  0
  4 25  1  0  0  0  0
  5 10  1  0  0  0  0
  5  6  1  0  0  0  0
  5 26  1  0  0  0  0
  6  7  1  0  0  0  0
  6 27  1  0  0  0  0
  6 28  1  0  0  0  0
  7  8  2  0  0  0  0
  7 29  1  0  0  0  0
  8  9  1  0  0  0  0
  8 30  1  0  0  0  0
  9 10  1  0  0  0  0
  9 31  1  0  0  0  0
  9 32  1  0  0  0  0
 10 33  1  0  0  0  0
 10 34  1  0  0  0  0
 11 12  1  0  0  0  0
 11 35  1  0  0  0  0
 12 21  1  0  0  0  0
 12 13  2  0  0  0  0
 13 14  1  0  0  0  0
 13 36  1  0  0  0  0
 14 15  1  0  0  0  0
 14 19  2  0  0  0  0
 15 16  1  0  0  0  0
 15 17  1  0  0  0  0
 15 18  1  0  0  0  0
 19 20  1  0  0  0  0
 19 37  1  0  0  0  0
 20 21  1  0  0  0  0
 21 22  2  0  0  0  0
M  CHG  1  20  -1
M  END
> <s_m_source_file>
AV-unprocessed.smi

> <i_m_source_file_index>
1128

> <i_lp_mmshare_version>
43012

> <i_f3d_flags>
0

> <s_epik_input>
Tz1jMVtuSF1bY0hdYyhDKEYpKEYpRilbY0hdYzFbTkhdQyg9TylbTkhdW0NIMl1bQ0BASF0yW0NIMl1bQ0hdPVtDSF1bQ0gyXVtDSDJdMg==

> <s_epik_cmdline>
J2VwaWtfcHl0aG9uJywgJy1waCcsICc3LjAnLCAnLXRuJywgJzgnLCAnLW1hJywgJzIwMCcsICctbWV0YWxfYmluZGluZycsICctaW1hZScsICc8aW5maWxlLm1hZT4nLCAnLW9tYWUnLCAnPG91dGZpbGUubWFlPic=

> <r_lp_tautomer_probability>
1

> <r_epik_Ionization_Penalty>
3.16664

> <r_epik_Ionization_Penalty_Charging>
0.172425

> <r_epik_Ionization_Penalty_Neutral>
2.99422

> <r_epik_State_Penalty>
2.99038

> <r_epik_Charging_Adjusted_Penalty>
3.16281

> <i_epik_Tot_Q>
-1

> <i_epik_Tot_abs_Q>
1

> <r_epik_Metal_State_Penalty>
0.453031

> <b_epik_Metal_Only>
1

> <s_lp_Force_Field>
OPLS_2005

> <r_lp_Energy>
22.3955

> <b_lp_Chiralities_Consistent>
1

> <s_lp_Variant>
AV-unprocessed.smi:1128-3

> <Gold.Version>
5.8.1

> <Gold.Id.Protein>
6NUR|6NUR_protein|mol2

> <Gold.PLP.Fitness>
39.9184

> <Gold.PLP.PLP>
-33.8176

> <Gold.PLP.part.hbond>
-3.0000

> <Gold.PLP.part.metal>
0.0000

> <Gold.PLP.part.buried>
-4.6468

> <Gold.PLP.part.nonpolar>
-26.9006

> <Gold.PLP.part.repulsive>
0.2952

> <Gold.PLP.ligand.clash>
0.0000

> <Gold.PLP.ligand.torsion>
0.7620

> <Gold.PLP.Chemscore.Hbond>
2.5120

> <Gold.PLP.Chemscore.CHOScore>
0.0000

> <Gold.PLP.Chemscore.Metal>
0.0000

> <Gold.Chemscore.Hbonds>
donor molecule, donor type, donor heavy atom, donor atom, acceptor molecule, acceptor atom, score
      P1  H  6896  6908       L1     1  0.99
      P1  H  6931  6943       L1    22  0.70
      P1  H  6934  6947       L1    22  0.78

> <Gold.PLP.Chemscore.Internal.Correction>
0.0887

> <Gold.Rescore>
     Score         DG    S(hbond)    S(metal)    S(lipo)     H(rot)  DE(clash)    DE(int)     intcor
     16.98     -18.30       2.37        0.00      70.27       1.29       0.02       1.31       ----

> <Gold.Chemscore.Fitness>
16.9804

> <Gold.Chemscore.DG>
-18.3044

> <Gold.Chemscore.ZeroCoef>
-5.4800

> <Gold.Chemscore.Hbond>
2.3702

> <Gold.Chemscore.Metal>
0.0000

> <Gold.Chemscore.Lipo>
70.2669

> <Gold.Chemscore.Internal_Hbond>
0.0000

> <Gold.Chemscore.DEClash>
0.0174

> <Gold.Chemscore.DEInternal>
1.3066

> <Gold.Chemscore.Rot>
1.2943

> <Gold.Chemscore.Internal.Correction>
   9.000000E+99

> <Gold.Chemscore.Hbonds>
donor molecule, donor type, donor heavy atom, donor atom, acceptor molecule, acceptor atom, score
      P1  H  6896  6908       L1     1  0.89
      P1  H  6931  6943       L1    22  0.50
      P1  H  6934  6947       L1    22  0.80

> <Gold.Chemscore.Hbond.Weighted>
-7.9165

> <Gold.Chemscore.Metal.Weighted>
-0.0000

> <Gold.Chemscore.Lipo.Weighted>
-8.2212

> <Gold.Chemscore.Internal_Hbond.Weighted>
0.0000

> <Gold.Chemscore.DEClash.Weighted>
0.0174

> <Gold.Chemscore.DEInternal.Weighted>
1.3066

> <Gold.Chemscore.Rot.Weighted>
3.3133

> <Gold.Chemscore.Internal.Correction.Weighted>
   9.000000E+99

> <Gold.Protein.RotatedTorsions>
[ 6907 6896 6895 6894 ] final  168.14 input  -60.11 | X-H torsion
[ 7974 7965 7964 7962 ] final   69.90 input  175.53 | X-H torsion
[ 8008 7997 7996 7995 ] final   70.56 input   59.86 | X-H torsion
[ 10167 10162 10161 10158 ] final   13.05 input  -65.29 | X-H torsion
[ 10718 10713 10712 10709 ] final -152.24 input   66.30 | X-H torsion
[ 10763 10752 10751 10750 ] final   82.33 input  -60.55 | X-H torsion
[ 11005 11000 10999 10996 ] final   18.58 input  -57.11 | X-H torsion

> <Gold.Protein.ActiveResidues>
 VAL166  LYS551  ARG553  GLY616  TRP617  ASP618  TYR619  PRO620  LYS621  CYS622 
 ASP623  PHE694  ASN695  SER759  ASP760  ASP761  ALA762  ILE779  LEU786  VAL792 
 PHE793  MET794  SER795  GLU796  ALA797  LYS798  CYS799  TRP800  GLU811  SER814 

> <Gold.Protein.RotatedAtoms>
  151.8523  133.3442  159.3677 H   0  0  0  0  0  0  0  0  0  0  0  0  # atno 6907 bound_to 6896
  150.7203  134.5287  159.5698 H   0  0  0  0  0  0  0  0  0  0  0  0  # atno 6908 bound_to 6896
  152.2783  134.7858  160.0452 H   0  0  0  0  0  0  0  0  0  0  0  0  # atno 6909 bound_to 6896
  145.7848  139.2905  143.1245 H   0  0  0  0  0  0  0  0  0  0  0  0  # atno 7974 bound_to 7965
  155.7407  140.3490  155.5103 H   0  0  0  0  0  0  0  0  0  0  0  0  # atno 8008 bound_to 7997
  155.9097  140.1048  157.1310 H   0  0  0  0  0  0  0  0  0  0  0  0  # atno 8009 bound_to 7997
  154.4054  140.1270  156.4528 H   0  0  0  0  0  0  0  0  0  0  0  0  # atno 8010 bound_to 7997
  140.6028  143.8569  150.6983 H   0  0  0  0  0  0  0  0  0  0  0  0  # atno 10167 bound_to 10162
  156.4699  130.8253  151.2483 H   0  0  0  0  0  0  0  0  0  0  0  0  # atno 10718 bound_to 10713
  153.1193  135.4732  154.9169 H   0  0  0  0  0  0  0  0  0  0  0  0  # atno 10763 bound_to 10752
  154.7560  135.3118  154.8472 H   0  0  0  0  0  0  0  0  0  0  0  0  # atno 10764 bound_to 10752
  153.9040  135.6872  153.4807 H   0  0  0  0  0  0  0  0  0  0  0  0  # atno 10765 bound_to 10752
  140.4232  134.1496  155.7674 H   0  0  0  0  0  0  0  0  0  0  0  0  # atno 11005 bound_to 11000
  146.0037  140.8497  143.0005 LP  0  0  0  0  0  0  0  0  0  0  0  0  # atno 17320 bound_to 7965
  144.6791  140.2390  143.7346 LP  0  0  0  0  0  0  0  0  0  0  0  0  # atno 17321 bound_to 7965
  140.2119  143.3877  152.1711 LP  0  0  0  0  0  0  0  0  0  0  0  0  # atno 17342 bound_to 10162
  139.5303  144.7151  151.5079 LP  0  0  0  0  0  0  0  0  0  0  0  0  # atno 17343 bound_to 10162
  157.7492  131.0079  150.3210 LP  0  0  0  0  0  0  0  0  0  0  0  0  # atno 17370 bound_to 10713
  156.3629  130.3850  149.7237 LP  0  0  0  0  0  0  0  0  0  0  0  0  # atno 17371 bound_to 10713
  141.1775  133.8483  157.1370 LP  0  0  0  0  0  0  0  0  0  0  0  0  # atno 17394 bound_to 11000
  140.0185  134.9956  157.0543 LP  0  0  0  0  0  0  0  0  0  0  0  0  # atno 17395 bound_to 11000

$$$$
