AV-unprocessed.smi:40|AV-procd|sdf|370|dock9
  -GOLD-   2262016213D 1   1.00000     0.00000
 Structure written by MMmdl.
 47 48  0  0  0  0  0  0  0  0  1 V2000
  152.3926  143.8551  161.2046 C   0  0  0  0  0  0  0  0  0  0  0  0
  151.9355  145.1838  160.5888 C   0  0  0  0  0  0  0  0  0  0  0  0
  151.1635  145.0220  159.2691 C   0  0  0  0  0  0  0  0  0  0  0  0
  152.0156  144.4667  158.1130 C   0  0  0  0  0  0  0  0  0  0  0  0
  152.3730  142.9847  158.2916 C   0  0  0  0  0  0  0  0  0  0  0  0
  151.1947  142.2092  158.1625 O   0  0  0  0  0  0  0  0  0  0  0  0
  151.2556  140.8650  158.1173 C   0  0  0  0  0  0  0  0  0  0  0  0
  152.1519  140.1915  158.6246 O   0  0  0  0  0  0  0  0  0  0  0  0
  150.1432  140.3321  157.3565 N   0  0  0  0  0  0  0  0  0  0  0  0
  149.9082  139.0235  157.1201 C   0  0  0  0  0  0  0  0  0  0  0  0
  150.5868  138.1390  157.8273 N   0  0  0  0  0  0  0  0  0  0  0  0
  150.4702  136.7848  157.6588 C   0  0  0  0  0  0  0  0  0  0  0  0
  151.1549  136.0076  158.3225 O   0  0  0  0  0  0  0  0  0  0  0  0
  149.5527  136.3261  156.6838 N   0  0  0  0  0  0  0  0  0  0  0  0
  149.4154  134.8405  156.4347 C   0  0  1  0  0  0  0  0  0  0  0  0
  148.0872  134.4712  156.6598 O   0  0  0  0  0  0  0  0  0  0  0  0
  147.6497  133.6068  155.6180 C   0  0  1  0  0  0  0  0  0  0  0  0
  146.1186  133.6095  155.4956 C   0  0  0  0  0  0  0  0  0  0  0  0
  148.4366  134.0609  154.3819 C   0  0  1  0  0  0  0  0  0  0  0  0
  147.7945  135.1522  153.7435 O   0  0  0  0  0  0  0  0  0  0  0  0
  149.7849  134.4399  154.9887 C   0  0  1  0  0  0  0  0  0  0  0  0
  150.4880  135.4147  154.2348 O   0  0  0  0  0  0  0  0  0  0  0  0
  148.8152  137.2413  155.9480 C   0  0  0  0  0  0  0  0  0  0  0  0
  148.9528  138.5718  156.1247 C   0  0  0  0  0  0  0  0  0  0  0  0
  148.2211  139.4356  155.3994 F   0  0  0  0  0  0  0  0  0  0  0  0
  150.0355  134.3408  157.1801 H   0  0  0  0  0  0  0  0  0  0  0  0
  147.9782  132.5996  155.8807 H   0  0  0  0  0  0  0  0  0  0  0  0
  148.5377  133.2573  153.6519 H   0  0  0  0  0  0  0  0  0  0  0  0
  150.4058  133.5456  155.0566 H   0  0  0  0  0  0  0  0  0  0  0  0
  152.9890  144.0305  162.1003 H   0  0  0  0  0  0  0  0  0  0  0  0
  153.0054  143.2866  160.5045 H   0  0  0  0  0  0  0  0  0  0  0  0
  151.5454  143.2333  161.4928 H   0  0  0  0  0  0  0  0  0  0  0  0
  151.3294  145.7359  161.3078 H   0  0  0  0  0  0  0  0  0  0  0  0
  152.8164  145.7993  160.4032 H   0  0  0  0  0  0  0  0  0  0  0  0
  150.3259  144.3469  159.4498 H   0  0  0  0  0  0  0  0  0  0  0  0
  150.7235  145.9771  158.9800 H   0  0  0  0  0  0  0  0  0  0  0  0
  151.4766  144.5806  157.1728 H   0  0  0  0  0  0  0  0  0  0  0  0
  152.9317  145.0503  158.0147 H   0  0  0  0  0  0  0  0  0  0  0  0
  153.1089  142.6765  157.5477 H   0  0  0  0  0  0  0  0  0  0  0  0
  152.8116  142.8230  159.2771 H   0  0  0  0  0  0  0  0  0  0  0  0
  149.4558  141.0111  157.0646 H   0  0  0  0  0  0  0  0  0  0  0  0
  145.7904  132.9770  154.6707 H   0  0  0  0  0  0  0  0  0  0  0  0
  145.7291  134.6137  155.3274 H   0  0  0  0  0  0  0  0  0  0  0  0
  145.6586  133.2305  156.4085 H   0  0  0  0  0  0  0  0  0  0  0  0
  148.2729  135.3635  152.9567 H   0  0  0  0  0  0  0  0  0  0  0  0
  149.9204  135.7255  153.5457 H   0  0  0  0  0  0  0  0  0  0  0  0
  148.1097  136.8983  155.2060 H   0  0  0  0  0  0  0  0  0  0  0  0
  1  2  1  0  0  0  0
  1 30  1  0  0  0  0
  1 31  1  0  0  0  0
  1 32  1  0  0  0  0
  2  3  1  0  0  0  0
  2 33  1  0  0  0  0
  2 34  1  0  0  0  0
  3  4  1  0  0  0  0
  3 35  1  0  0  0  0
  3 36  1  0  0  0  0
  4  5  1  0  0  0  0
  4 37  1  0  0  0  0
  4 38  1  0  0  0  0
  5  6  1  0  0  0  0
  5 39  1  0  0  0  0
  5 40  1  0  0  0  0
  6  7  1  0  0  0  0
  7  8  2  0  0  0  0
  7  9  1  0  0  0  0
  9 10  1  0  0  0  0
  9 41  1  0  0  0  0
 10 24  1  0  0  0  0
 10 11  2  0  0  0  0
 11 12  1  0  0  0  0
 12 13  2  0  0  0  0
 12 14  1  0  0  0  0
 14 15  1  0  0  0  0
 14 23  1  0  0  0  0
 15 26  1  0  0  0  0
 15 21  1  0  0  0  0
 15 16  1  0  0  0  0
 16 17  1  0  0  0  0
 17 27  1  0  0  0  0
 17 18  1  0  0  0  0
 17 19  1  0  0  0  0
 18 42  1  0  0  0  0
 18 43  1  0  0  0  0
 18 44  1  0  0  0  0
 19 28  1  0  0  0  0
 19 20  1  0  0  0  0
 19 21  1  0  0  0  0
 20 45  1  0  0  0  0
 21 29  1  0  0  0  0
 21 22  1  0  0  0  0
 22 46  1  0  0  0  0
 23 24  2  0  0  0  0
 23 47  1  0  0  0  0
 24 25  1  0  0  0  0
M  END
> <s_m_source_file>
AV-unprocessed.smi

> <i_m_source_file_index>
40

> <i_lp_mmshare_version>
43012

> <i_f3d_flags>
0

> <s_epik_input>
W0NIM11bQ0gyXVtDSDJdW0NIMl1bQ0gyXU9DKD1PKVtOSF1jMW5jKD1PKW4oW2NIXWMxRilbQ0BASF0yT1tDQEhdKFtDSDNdKVtDQEBIXShbT0hdKVtDQEhdMltPSF0=

> <s_epik_cmdline>
J2VwaWtfcHl0aG9uJywgJy1waCcsICc3LjAnLCAnLXRuJywgJzgnLCAnLW1hJywgJzIwMCcsICctbWV0YWxfYmluZGluZycsICctaW1hZScsICc8aW5maWxlLm1hZT4nLCAnLW9tYWUnLCAnPG91dGZpbGUubWFlPic=

> <r_lp_tautomer_probability>
1

> <r_epik_Ionization_Penalty>
2.29506e-06

> <r_epik_Ionization_Penalty_Charging>
8.26867e-09

> <r_epik_Ionization_Penalty_Neutral>
2.2868e-06

> <r_epik_State_Penalty>
-0

> <r_epik_Charging_Adjusted_Penalty>
8.26867e-09

> <i_epik_Tot_Q>
0

> <i_epik_Tot_abs_Q>
0

> <r_epik_Metal_State_Penalty>
-0

> <b_epik_Metal_Only>
0

> <s_epik_Chemistry_Notes>
This compound has an ester and may undergo hydrolysis at high or low pH. This compound contains an acetal/aminal-like group ( X-CH(R)-Y where X, Y are N, S, or O) that may be acid/base labile, releasing an aldehyde.

> <s_lp_Force_Field>
OPLS_2005

> <r_lp_Energy>
45.3247

> <b_lp_Chiralities_Consistent>
1

> <s_lp_Variant>
AV-unprocessed.smi:40-4

> <Gold.Version>
5.8.1

> <Gold.Id.Protein>
6NUR|6NUR_protein|mol2

> <Gold.PLP.Fitness>
39.4462

> <Gold.PLP.PLP>
-31.3506

> <Gold.PLP.part.hbond>
-3.1164

> <Gold.PLP.part.metal>
0.0000

> <Gold.PLP.part.buried>
-6.2741

> <Gold.PLP.part.nonpolar>
-21.8924

> <Gold.PLP.part.repulsive>
0.0934

> <Gold.PLP.ligand.clash>
0.0000

> <Gold.PLP.ligand.torsion>
0.4858

> <Gold.PLP.Chemscore.Hbond>
3.0000

> <Gold.PLP.Chemscore.CHOScore>
0.0000

> <Gold.PLP.Chemscore.Metal>
0.0000

> <Gold.Chemscore.Hbonds>
donor molecule, donor type, donor heavy atom, donor atom, acceptor molecule, acceptor atom, score
      L1  H    20    45       P1  7948  1.00
      L1  H    22    46       P1  7948  0.50
      P1  H  6896  6908       L1    13  0.45

> <Gold.PLP.Chemscore.Internal.Correction>
0.0673

> <Gold.Rescore>
     Score         DG    S(hbond)    S(metal)    S(lipo)     H(rot)  DE(clash)    DE(int)     intcor
     10.66     -13.66       2.73        0.00      72.81       3.70       0.04       2.95       ----

> <Gold.Chemscore.Fitness>
10.6638

> <Gold.Chemscore.DG>
-13.6593

> <Gold.Chemscore.ZeroCoef>
-5.4800

> <Gold.Chemscore.Hbond>
2.7310

> <Gold.Chemscore.Metal>
0.0000

> <Gold.Chemscore.Lipo>
72.8095

> <Gold.Chemscore.Internal_Hbond>
0.0000

> <Gold.Chemscore.DEClash>
0.0443

> <Gold.Chemscore.DEInternal>
2.9512

> <Gold.Chemscore.Rot>
3.6957

> <Gold.Chemscore.Internal.Correction>
   9.000000E+99

> <Gold.Chemscore.Hbonds>
donor molecule, donor type, donor heavy atom, donor atom, acceptor molecule, acceptor atom, score
      L1  H    20    45       P1  7948  0.92
      L1  H    22    46       P1  7948  0.02
      P1  H  6896  6908       L1    13  0.44

> <Gold.Chemscore.Hbond.Weighted>
-9.1216

> <Gold.Chemscore.Metal.Weighted>
-0.0000

> <Gold.Chemscore.Lipo.Weighted>
-8.5187

> <Gold.Chemscore.Internal_Hbond.Weighted>
0.0000

> <Gold.Chemscore.DEClash.Weighted>
0.0443

> <Gold.Chemscore.DEInternal.Weighted>
2.9512

> <Gold.Chemscore.Rot.Weighted>
9.4610

> <Gold.Chemscore.Internal.Correction.Weighted>
   9.000000E+99

> <Gold.Protein.RotatedTorsions>
[ 6907 6896 6895 6894 ] final -171.56 input  -60.11 | X-H torsion
[ 7974 7965 7964 7962 ] final  176.23 input  175.53 | X-H torsion
[ 8008 7997 7996 7995 ] final  133.76 input   59.86 | X-H torsion
[ 10167 10162 10161 10158 ] final  -90.01 input  -65.29 | X-H torsion
[ 10718 10713 10712 10709 ] final -176.68 input   66.30 | X-H torsion
[ 10763 10752 10751 10750 ] final   16.77 input  -60.55 | X-H torsion
[ 11005 11000 10999 10996 ] final -103.56 input  -57.11 | X-H torsion

> <Gold.Protein.ActiveResidues>
 VAL166  LYS551  ARG553  GLY616  TRP617  ASP618  TYR619  PRO620  LYS621  CYS622 
 ASP623  PHE694  ASN695  SER759  ASP760  ASP761  ALA762  ILE779  LEU786  VAL792 
 PHE793  MET794  SER795  GLU796  ALA797  LYS798  CYS799  TRP800  GLU811  SER814 

> <Gold.Protein.RotatedAtoms>
  151.5258  133.3458  159.2909 H   0  0  0  0  0  0  0  0  0  0  0  0  # atno 6907 bound_to 6896
  150.8624  134.7981  159.7104 H   0  0  0  0  0  0  0  0  0  0  0  0  # atno 6908 bound_to 6896
  152.4639  134.5129  159.9811 H   0  0  0  0  0  0  0  0  0  0  0  0  # atno 6909 bound_to 6896
  144.7188  140.0066  143.6440 H   0  0  0  0  0  0  0  0  0  0  0  0  # atno 7974 bound_to 7965
  156.2995  140.2513  156.3307 H   0  0  0  0  0  0  0  0  0  0  0  0  # atno 8008 bound_to 7997
  154.9148  140.0402  157.1985 H   0  0  0  0  0  0  0  0  0  0  0  0  # atno 8009 bound_to 7997
  154.8370  140.2885  155.5689 H   0  0  0  0  0  0  0  0  0  0  0  0  # atno 8010 bound_to 7997
  140.3592  143.2851  151.9635 H   0  0  0  0  0  0  0  0  0  0  0  0  # atno 10167 bound_to 10162
  156.8183  130.9611  151.3113 H   0  0  0  0  0  0  0  0  0  0  0  0  # atno 10718 bound_to 10713
  153.1400  135.6758  153.9042 H   0  0  0  0  0  0  0  0  0  0  0  0  # atno 10763 bound_to 10752
  153.8502  135.3094  155.3433 H   0  0  0  0  0  0  0  0  0  0  0  0  # atno 10764 bound_to 10752
  154.7780  135.4904  153.9867 H   0  0  0  0  0  0  0  0  0  0  0  0  # atno 10765 bound_to 10752
  141.1140  133.8650  157.1502 H   0  0  0  0  0  0  0  0  0  0  0  0  # atno 11005 bound_to 11000
  146.0292  139.3320  143.0765 LP  0  0  0  0  0  0  0  0  0  0  0  0  # atno 17320 bound_to 7965
  145.8473  140.9548  143.0768 LP  0  0  0  0  0  0  0  0  0  0  0  0  # atno 17321 bound_to 7965
  139.4816  144.6008  151.7609 LP  0  0  0  0  0  0  0  0  0  0  0  0  # atno 17342 bound_to 10162
  140.5144  144.0976  150.6004 LP  0  0  0  0  0  0  0  0  0  0  0  0  # atno 17343 bound_to 10162
  157.6470  130.8852  149.9558 LP  0  0  0  0  0  0  0  0  0  0  0  0  # atno 17370 bound_to 10713
  156.1003  130.3656  150.0229 LP  0  0  0  0  0  0  0  0  0  0  0  0  # atno 17371 bound_to 10713
  140.0051  135.0012  157.0274 LP  0  0  0  0  0  0  0  0  0  0  0  0  # atno 17394 bound_to 11000
  140.4697  134.1399  155.7201 LP  0  0  0  0  0  0  0  0  0  0  0  0  # atno 17395 bound_to 11000

$$$$
