AV-unprocessed.smi:1920|AV-procd|sdf|7778|dock7
  -GOLD-   22720 9523D 1   1.00000     0.00000
 Structure written by MMmdl.
 37 38  0  0  0  0  0  0  0  0  2 V2000
  151.3446  140.5067  155.8511 C   0  0  0  0  0  0  0  0  0  0  0  0
  150.1772  141.4798  155.6379 C   0  0  1  0  0  0  0  0  0  0  0  0
  148.8190  140.7803  155.8592 C   0  0  0  0  0  0  0  0  0  0  0  0
  148.2649  140.2050  154.6288 N   0  0  0  0  0  0  0  0  0  0  0  0
  147.1866  140.6589  153.9130 C   0  0  0  0  0  0  0  0  0  0  0  0
  147.0344  139.8042  152.8519 C   0  0  0  0  0  0  0  0  0  0  0  0
  148.0291  138.8699  152.9607 N   0  3  0  0  0  0  0  0  0  0  0  0
  148.7793  139.1179  154.0393 C   0  0  0  0  0  0  0  0  0  0  0  0
  150.3413  142.6173  156.5425 N   0  0  0  0  0  0  0  0  0  0  0  0
  150.3888  142.5547  157.8828 C   0  0  0  0  0  0  0  0  0  0  0  0
  150.3376  141.4985  158.5133 O   0  0  0  0  0  0  0  0  0  0  0  0
  150.5279  143.8887  158.6240 C   0  0  0  0  0  0  0  0  0  0  0  0
  151.8743  144.0495  159.3634 C   0  0  2  0  0  0  0  0  0  0  0  0
  152.5815  142.7422  159.6297 C   0  0  0  0  0  0  0  0  0  0  0  0
  152.9137  142.5889  160.9094 C   0  0  0  0  0  0  0  0  0  0  0  0
  152.4964  143.7588  161.7564 C   0  0  0  0  0  0  0  0  0  0  0  0
  151.7242  144.6699  160.7762 C   0  0  0  0  0  0  0  0  0  0  0  0
  151.2801  139.6599  155.1672 H   0  0  0  0  0  0  0  0  0  0  0  0
  151.3542  140.1126  156.8679 H   0  0  0  0  0  0  0  0  0  0  0  0
  152.3024  140.9973  155.6746 H   0  0  0  0  0  0  0  0  0  0  0  0
  150.2327  141.8231  154.6031 H   0  0  0  0  0  0  0  0  0  0  0  0
  148.9290  139.9602  156.5699 H   0  0  0  0  0  0  0  0  0  0  0  0
  148.0890  141.4706  156.2856 H   0  0  0  0  0  0  0  0  0  0  0  0
  146.6176  141.5283  154.2092 H   0  0  0  0  0  0  0  0  0  0  0  0
  146.3112  139.7910  152.0493 H   0  0  0  0  0  0  0  0  0  0  0  0
  149.6270  138.5461  154.3726 H   0  0  0  0  0  0  0  0  0  0  0  0
  150.3921  143.5308  156.1147 H   0  0  0  0  0  0  0  0  0  0  0  0
  150.4143  144.6905  157.8938 H   0  0  0  0  0  0  0  0  0  0  0  0
  149.7052  143.9989  159.3325 H   0  0  0  0  0  0  0  0  0  0  0  0
  152.5493  144.6693  158.7710 H   0  0  0  0  0  0  0  0  0  0  0  0
  152.8002  142.0320  158.8455 H   0  0  0  0  0  0  0  0  0  0  0  0
  153.4375  141.7381  161.3194 H   0  0  0  0  0  0  0  0  0  0  0  0
  151.8695  143.4313  162.5862 H   0  0  0  0  0  0  0  0  0  0  0  0
  153.3788  144.2565  162.1595 H   0  0  0  0  0  0  0  0  0  0  0  0
  152.1032  145.6920  160.8018 H   0  0  0  0  0  0  0  0  0  0  0  0
  150.6750  144.7138  161.0715 H   0  0  0  0  0  0  0  0  0  0  0  0
  148.1769  138.1003  152.3198 H   0  0  0  0  0  0  0  0  0  0  0  0
  1  2  1  0  0  0  0
  1 18  1  0  0  0  0
  1 19  1  0  0  0  0
  1 20  1  0  0  0  0
  2  3  1  0  0  0  0
  2  9  1  0  0  0  0
  2 21  1  0  0  0  0
  3  4  1  0  0  0  0
  3 22  1  0  0  0  0
  3 23  1  0  0  0  0
  4  8  1  0  0  0  0
  4  5  1  0  0  0  0
  5  6  2  0  0  0  0
  5 24  1  0  0  0  0
  6  7  1  0  0  0  0
  6 25  1  0  0  0  0
  7  8  2  0  0  0  0
  7 37  1  0  0  0  0
  8 26  1  0  0  0  0
  9 10  1  0  0  0  0
  9 27  1  0  0  0  0
 10 11  2  0  0  0  0
 10 12  1  0  0  0  0
 12 13  1  0  0  0  0
 12 28  1  0  0  0  0
 12 29  1  0  0  0  0
 13 17  1  0  0  0  0
 13 14  1  0  0  0  0
 13 30  1  0  0  0  0
 14 15  2  0  0  0  0
 14 31  1  0  0  0  0
 15 16  1  0  0  0  0
 15 32  1  0  0  0  0
 16 17  1  0  0  0  0
 16 33  1  0  0  0  0
 16 34  1  0  0  0  0
 17 35  1  0  0  0  0
 17 36  1  0  0  0  0
M  CHG  1   7   1
M  END
> <s_m_source_file>
AV-unprocessed.smi

> <i_m_source_file_index>
1920

> <i_lp_mmshare_version>
43012

> <i_f3d_flags>
0

> <s_epik_input>
W2NIXTFuW2NIXVtjSF1uMVtDSDJdW0NAQEhdKFtDSDNdKVtOSF1DKD1PKVtDSDJdW0NAQEhdMltDSF09W0NIXVtDSDJdW0NIMl0y

> <s_epik_cmdline>
J2VwaWtfcHl0aG9uJywgJy1waCcsICc3LjAnLCAnLXRuJywgJzgnLCAnLW1hJywgJzIwMCcsICctbWV0YWxfYmluZGluZycsICctaW1hZScsICc8aW5maWxlLm1hZT4nLCAnLW9tYWUnLCAnPG91dGZpbGUubWFlPic=

> <r_lp_tautomer_probability>
1

> <r_epik_Ionization_Penalty>
0.24816

> <r_epik_Ionization_Penalty_Charging>
0

> <r_epik_Ionization_Penalty_Neutral>
0.24816

> <r_epik_State_Penalty>
0.2394

> <r_epik_Charging_Adjusted_Penalty>
0.2394

> <i_epik_Tot_Q>
1

> <i_epik_Tot_abs_Q>
1

> <r_epik_Metal_State_Penalty>
0.531457

> <b_epik_Metal_Only>
0

> <s_lp_Force_Field>
OPLS_2005

> <r_lp_Energy>
20.1539

> <b_lp_Chiralities_Consistent>
1

> <s_lp_Variant>
AV-unprocessed.smi:1920-2

> <Gold.Version>
5.8.1

> <Gold.Id.Protein>
6NUR|6NUR_protein|mol2

> <Gold.PLP.Fitness>
46.8374

> <Gold.PLP.PLP>
-41.2956

> <Gold.PLP.part.hbond>
-3.0000

> <Gold.PLP.part.metal>
0.0000

> <Gold.PLP.part.buried>
-4.3196

> <Gold.PLP.part.nonpolar>
-34.2429

> <Gold.PLP.part.repulsive>
0.1418

> <Gold.PLP.ligand.clash>
0.0000

> <Gold.PLP.ligand.torsion>
1.1514

> <Gold.PLP.Chemscore.Hbond>
2.6080

> <Gold.PLP.Chemscore.CHOScore>
0.0000

> <Gold.PLP.Chemscore.Metal>
0.0000

> <Gold.Chemscore.Hbonds>
donor molecule, donor type, donor heavy atom, donor atom, acceptor molecule, acceptor atom, score
      L1  H     7    37       P1  7948  1.92
      L1  H     9    27       P1  8028  0.56

> <Gold.PLP.Chemscore.Internal.Correction>
0.0206

> <Gold.Rescore>
     Score         DG    S(hbond)    S(metal)    S(lipo)     H(rot)  DE(clash)    DE(int)     intcor
     14.37     -17.71       1.79        0.00      97.43       2.01       0.03       3.31       ----

> <Gold.Chemscore.Fitness>
14.3688

> <Gold.Chemscore.DG>
-17.7139

> <Gold.Chemscore.ZeroCoef>
-5.4800

> <Gold.Chemscore.Hbond>
1.7926

> <Gold.Chemscore.Metal>
0.0000

> <Gold.Chemscore.Lipo>
97.4342

> <Gold.Chemscore.Internal_Hbond>
0.0000

> <Gold.Chemscore.DEClash>
0.0346

> <Gold.Chemscore.DEInternal>
3.3104

> <Gold.Chemscore.Rot>
2.0130

> <Gold.Chemscore.Internal.Correction>
   9.000000E+99

> <Gold.Chemscore.Hbonds>
donor molecule, donor type, donor heavy atom, donor atom, acceptor molecule, acceptor atom, score
      L1  H     7    37       P1  7948  0.88
      L1  H     9    27       P1  8028  0.55

> <Gold.Chemscore.Hbond.Weighted>
-5.9873

> <Gold.Chemscore.Metal.Weighted>
-0.0000

> <Gold.Chemscore.Lipo.Weighted>
-11.3998

> <Gold.Chemscore.Internal_Hbond.Weighted>
0.0000

> <Gold.Chemscore.DEClash.Weighted>
0.0346

> <Gold.Chemscore.DEInternal.Weighted>
3.3104

> <Gold.Chemscore.Rot.Weighted>
5.1533

> <Gold.Chemscore.Internal.Correction.Weighted>
   9.000000E+99

> <Gold.Protein.RotatedTorsions>
[ 6907 6896 6895 6894 ] final  135.18 input  -60.11 | X-H torsion
[ 7974 7965 7964 7962 ] final  145.40 input  175.53 | X-H torsion
[ 8008 7997 7996 7995 ] final  124.84 input   59.86 | X-H torsion
[ 10167 10162 10161 10158 ] final -161.69 input  -65.29 | X-H torsion
[ 10718 10713 10712 10709 ] final  151.56 input   66.30 | X-H torsion
[ 10763 10752 10751 10750 ] final  -13.88 input  -60.55 | X-H torsion
[ 11005 11000 10999 10996 ] final -133.13 input  -57.11 | X-H torsion

> <Gold.Protein.ActiveResidues>
 VAL166  LYS551  ARG553  GLY616  TRP617  ASP618  TYR619  PRO620  LYS621  CYS622 
 ASP623  PHE694  ASN695  SER759  ASP760  ASP761  ALA762  ILE779  LEU786  VAL792 
 PHE793  MET794  SER795  GLU796  ALA797  LYS798  CYS799  TRP800  GLU811  SER814 

> <Gold.Protein.RotatedAtoms>
  152.3032  133.5676  159.5631 H   0  0  0  0  0  0  0  0  0  0  0  0  # atno 6907 bound_to 6896
  150.7287  134.0261  159.3726 H   0  0  0  0  0  0  0  0  0  0  0  0  # atno 6908 bound_to 6896
  151.8159  135.0667  160.0470 H   0  0  0  0  0  0  0  0  0  0  0  0  # atno 6909 bound_to 6896
  144.8755  139.5779  143.5867 H   0  0  0  0  0  0  0  0  0  0  0  0  # atno 7974 bound_to 7965
  156.2815  140.2730  156.1853 H   0  0  0  0  0  0  0  0  0  0  0  0  # atno 8008 bound_to 7997
  155.0514  140.0386  157.2563 H   0  0  0  0  0  0  0  0  0  0  0  0  # atno 8009 bound_to 7997
  154.7192  140.2684  155.6563 H   0  0  0  0  0  0  0  0  0  0  0  0  # atno 8010 bound_to 7997
  139.6447  144.0195  152.2118 H   0  0  0  0  0  0  0  0  0  0  0  0  # atno 10167 bound_to 10162
  157.2691  131.0813  151.1612 H   0  0  0  0  0  0  0  0  0  0  0  0  # atno 10718 bound_to 10713
  153.5198  135.7016  153.5737 H   0  0  0  0  0  0  0  0  0  0  0  0  # atno 10763 bound_to 10752
  153.3791  135.3925  155.1843 H   0  0  0  0  0  0  0  0  0  0  0  0  # atno 10764 bound_to 10752
  154.8695  135.3830  154.4686 H   0  0  0  0  0  0  0  0  0  0  0  0  # atno 10765 bound_to 10752
  140.9108  134.1570  157.4390 H   0  0  0  0  0  0  0  0  0  0  0  0  # atno 11005 bound_to 11000
  146.2960  139.7279  142.9126 LP  0  0  0  0  0  0  0  0  0  0  0  0  # atno 17320 bound_to 7965
  145.4050  141.0390  143.3049 LP  0  0  0  0  0  0  0  0  0  0  0  0  # atno 17321 bound_to 7965
  139.9893  144.6373  150.7828 LP  0  0  0  0  0  0  0  0  0  0  0  0  # atno 17342 bound_to 10162
  140.7508  143.2962  151.3198 LP  0  0  0  0  0  0  0  0  0  0  0  0  # atno 17343 bound_to 10162
  157.3092  130.6881  149.6206 LP  0  0  0  0  0  0  0  0  0  0  0  0  # atno 17370 bound_to 10713
  155.9663  130.4369  150.5152 LP  0  0  0  0  0  0  0  0  0  0  0  0  # atno 17371 bound_to 10713
  139.8757  134.9935  156.5647 LP  0  0  0  0  0  0  0  0  0  0  0  0  # atno 17394 bound_to 11000
  140.8112  133.8427  155.8812 LP  0  0  0  0  0  0  0  0  0  0  0  0  # atno 17395 bound_to 11000

$$$$
