AV-unprocessed.smi:415|AV-procd|sdf|2518|dock1
  -GOLD-   2262022473D 1   1.00000     0.00000
 Structure written by MMmdl.
 53 54  0  0  0  0  0  0  0  0  1 V2000
  145.8812  132.1472  149.9714 C   0  0  0  0  0  0  0  0  0  0  0  0
  145.8951  133.3726  150.6814 O   0  0  0  0  0  0  0  0  0  0  0  0
  147.0280  133.5017  151.5240 C   0  0  0  0  0  0  0  0  0  0  0  0
  146.9093  132.5381  152.7161 C   0  0  0  0  0  0  0  0  0  0  0  0
  147.9492  132.7313  153.7095 N   0  0  0  0  0  0  0  0  0  0  0  0
  148.9102  131.7660  153.9967 C   0  0  0  0  0  0  0  0  0  0  0  0
  148.9074  130.5706  153.3004 N   0  0  0  0  0  0  0  0  0  0  0  0
  149.8586  131.9730  154.9369 C   0  0  0  0  0  0  0  0  0  0  0  0
  149.9298  133.2126  155.6974 C   0  0  0  0  0  0  0  0  0  0  0  0
  150.7645  133.4069  156.5814 O   0  0  0  0  0  0  0  0  0  0  0  0
  148.9640  134.1911  155.3683 N   0  0  0  0  0  0  0  0  0  0  0  0
  148.9674  135.4716  156.1149 C   0  0  0  0  0  0  0  0  0  0  0  0
  149.1060  135.3277  157.6415 C   0  0  0  0  0  0  0  0  0  0  0  0
  150.1163  135.7622  158.1926 O   0  0  0  0  0  0  0  0  0  0  0  0
  148.1007  134.7383  158.3120 N   0  0  0  0  0  0  0  0  0  0  0  0
  148.0097  134.5489  159.7572 C   0  0  2  0  0  0  0  0  0  0  0  0
  147.8204  133.0466  160.0420 C   0  0  0  0  0  0  0  0  0  0  0  0
  147.6155  132.7675  161.5372 C   0  0  0  0  0  0  0  0  0  0  0  0
  146.4453  133.5900  162.0991 C   0  0  0  0  0  0  0  0  0  0  0  0
  146.6227  135.1018  161.8506 C   0  0  1  0  0  0  0  0  0  0  0  0
  147.7101  135.7037  162.7638 C   0  0  0  0  0  0  0  0  0  0  0  0
  146.8362  135.3813  160.3389 C   0  0  1  0  0  0  0  0  0  0  0  0
  146.9496  136.8877  160.0300 C   0  0  0  0  0  0  0  0  0  0  0  0
  147.9726  133.9803  154.3820 C   0  0  0  0  0  0  0  0  0  0  0  0
  147.1479  134.8641  154.1339 O   0  0  0  0  0  0  0  0  0  0  0  0
  144.9893  132.0960  149.3470 H   0  0  0  0  0  0  0  0  0  0  0  0
  145.8642  131.2957  150.6530 H   0  0  0  0  0  0  0  0  0  0  0  0
  146.7527  132.0591  149.3212 H   0  0  0  0  0  0  0  0  0  0  0  0
  147.9282  133.2634  150.9557 H   0  0  0  0  0  0  0  0  0  0  0  0
  147.1293  134.5299  151.8744 H   0  0  0  0  0  0  0  0  0  0  0  0
  145.9339  132.5943  153.2015 H   0  0  0  0  0  0  0  0  0  0  0  0
  146.9955  131.5033  152.3858 H   0  0  0  0  0  0  0  0  0  0  0  0
  148.2241  130.3730  152.5832 H   0  0  0  0  0  0  0  0  0  0  0  0
  149.5745  129.8380  153.4959 H   0  0  0  0  0  0  0  0  0  0  0  0
  150.5877  131.2016  155.1397 H   0  0  0  0  0  0  0  0  0  0  0  0
  149.7630  136.1310  155.7647 H   0  0  0  0  0  0  0  0  0  0  0  0
  148.0565  136.0365  155.9103 H   0  0  0  0  0  0  0  0  0  0  0  0
  147.3138  134.4124  157.7699 H   0  0  0  0  0  0  0  0  0  0  0  0
  148.9376  134.8690  160.2333 H   0  0  0  0  0  0  0  0  0  0  0  0
  146.9572  132.6729  159.4886 H   0  0  0  0  0  0  0  0  0  0  0  0
  148.6834  132.4865  159.6797 H   0  0  0  0  0  0  0  0  0  0  0  0
  147.4267  131.7046  161.6910 H   0  0  0  0  0  0  0  0  0  0  0  0
  148.5310  132.9963  162.0834 H   0  0  0  0  0  0  0  0  0  0  0  0
  145.5195  133.2554  161.6289 H   0  0  0  0  0  0  0  0  0  0  0  0
  146.3286  133.3928  163.1654 H   0  0  0  0  0  0  0  0  0  0  0  0
  145.6855  135.5792  162.1399 H   0  0  0  0  0  0  0  0  0  0  0  0
  148.7041  135.3264  162.5257 H   0  0  0  0  0  0  0  0  0  0  0  0
  147.5119  135.4674  163.8095 H   0  0  0  0  0  0  0  0  0  0  0  0
  147.7421  136.7902  162.6861 H   0  0  0  0  0  0  0  0  0  0  0  0
  145.9286  135.0414  159.8367 H   0  0  0  0  0  0  0  0  0  0  0  0
  147.9005  137.2967  160.3717 H   0  0  0  0  0  0  0  0  0  0  0  0
  146.1491  137.4497  160.5120 H   0  0  0  0  0  0  0  0  0  0  0  0
  146.8768  137.0821  158.9596 H   0  0  0  0  0  0  0  0  0  0  0  0
  1  2  1  0  0  0  0
  1 26  1  0  0  0  0
  1 27  1  0  0  0  0
  1 28  1  0  0  0  0
  2  3  1  0  0  0  0
  3  4  1  0  0  0  0
  3 29  1  0  0  0  0
  3 30  1  0  0  0  0
  4  5  1  0  0  0  0
  4 31  1  0  0  0  0
  4 32  1  0  0  0  0
  5 24  1  0  0  0  0
  5  6  1  0  0  0  0
  6  7  1  0  0  0  0
  6  8  2  0  0  0  0
  7 33  1  0  0  0  0
  7 34  1  0  0  0  0
  8  9  1  0  0  0  0
  8 35  1  0  0  0  0
  9 10  2  0  0  0  0
  9 11  1  0  0  0  0
 11 12  1  0  0  0  0
 11 24  1  0  0  0  0
 12 13  1  0  0  0  0
 12 36  1  0  0  0  0
 12 37  1  0  0  0  0
 13 14  2  0  0  0  0
 13 15  1  0  0  0  0
 15 16  1  0  0  0  0
 15 38  1  0  0  0  0
 16 22  1  0  0  0  0
 16 17  1  0  0  0  0
 16 39  1  0  0  0  0
 17 18  1  0  0  0  0
 17 40  1  0  0  0  0
 17 41  1  0  0  0  0
 18 19  1  0  0  0  0
 18 42  1  0  0  0  0
 18 43  1  0  0  0  0
 19 20  1  0  0  0  0
 19 44  1  0  0  0  0
 19 45  1  0  0  0  0
 20 21  1  0  0  0  0
 20 22  1  0  0  0  0
 20 46  1  0  0  0  0
 21 47  1  0  0  0  0
 21 48  1  0  0  0  0
 21 49  1  0  0  0  0
 22 23  1  0  0  0  0
 22 50  1  0  0  0  0
 23 51  1  0  0  0  0
 23 52  1  0  0  0  0
 23 53  1  0  0  0  0
 24 25  2  0  0  0  0
M  END
> <s_m_source_file>
AV-unprocessed.smi

> <i_m_source_file_index>
415

> <i_lp_mmshare_version>
43012

> <i_f3d_flags>
0

> <s_epik_input>
W0NIM11PW0NIMl1bQ0gyXW4xYyhbTkgyXSlbY0hdYyg9TyluKGMxPU8pW0NIMl1DKD1PKVtOSF1bQ0BASF0yW0NIMl1bQ0gyXVtDSDJdW0NAQEhdKFtDSDNdKVtDQEhdMltDSDNd

> <s_epik_cmdline>
J2VwaWtfcHl0aG9uJywgJy1waCcsICc3LjAnLCAnLXRuJywgJzgnLCAnLW1hJywgJzIwMCcsICctbWV0YWxfYmluZGluZycsICctaW1hZScsICc8aW5maWxlLm1hZT4nLCAnLW9tYWUnLCAnPG91dGZpbGUubWFlPic=

> <r_lp_tautomer_probability>
1

> <r_epik_Ionization_Penalty>
8.6647e-06

> <r_epik_Ionization_Penalty_Charging>
1.81162e-08

> <r_epik_Ionization_Penalty_Neutral>
8.64658e-06

> <r_epik_State_Penalty>
-0

> <r_epik_Charging_Adjusted_Penalty>
1.81162e-08

> <i_epik_Tot_Q>
0

> <i_epik_Tot_abs_Q>
0

> <r_epik_Metal_State_Penalty>
-0

> <b_epik_Metal_Only>
0

> <s_lp_Force_Field>
OPLS_2005

> <r_lp_Energy>
23.489

> <b_lp_Chiralities_Consistent>
1

> <s_lp_Variant>
AV-unprocessed.smi:415-1

> <Gold.Version>
5.8.1

> <Gold.Id.Protein>
6NUR|6NUR_protein|mol2

> <Gold.PLP.Fitness>
41.3542

> <Gold.PLP.PLP>
-39.0358

> <Gold.PLP.part.hbond>
-2.0000

> <Gold.PLP.part.metal>
0.0000

> <Gold.PLP.part.buried>
-4.6745

> <Gold.PLP.part.nonpolar>
-33.2847

> <Gold.PLP.part.repulsive>
0.3728

> <Gold.PLP.ligand.clash>
0.0000

> <Gold.PLP.ligand.torsion>
0.2794

> <Gold.PLP.Chemscore.Hbond>
0.9379

> <Gold.PLP.Chemscore.CHOScore>
0.0000

> <Gold.PLP.Chemscore.Metal>
0.0000

> <Gold.Chemscore.Hbonds>
donor molecule, donor type, donor heavy atom, donor atom, acceptor molecule, acceptor atom, score
      P1  H  6896  6907       L1    14  0.91

> <Gold.PLP.Chemscore.Internal.Correction>
0.0636

> <Gold.Rescore>
     Score         DG    S(hbond)    S(metal)    S(lipo)     H(rot)  DE(clash)    DE(int)     intcor
      9.21     -12.20       1.06        0.00      76.72       2.26       0.26       2.73       ----

> <Gold.Chemscore.Fitness>
9.2090

> <Gold.Chemscore.DG>
-12.1955

> <Gold.Chemscore.ZeroCoef>
-5.4800

> <Gold.Chemscore.Hbond>
1.0589

> <Gold.Chemscore.Metal>
0.0000

> <Gold.Chemscore.Lipo>
76.7176

> <Gold.Chemscore.Internal_Hbond>
0.0000

> <Gold.Chemscore.DEClash>
0.2591

> <Gold.Chemscore.DEInternal>
2.7273

> <Gold.Chemscore.Rot>
2.2645

> <Gold.Chemscore.Internal.Correction>
   9.000000E+99

> <Gold.Chemscore.Hbonds>
donor molecule, donor type, donor heavy atom, donor atom, acceptor molecule, acceptor atom, score
      L1  H     7    33       P1 10747  0.01
      P1  H  6896  6907       L1    14  0.80

> <Gold.Chemscore.Hbond.Weighted>
-3.5367

> <Gold.Chemscore.Metal.Weighted>
-0.0000

> <Gold.Chemscore.Lipo.Weighted>
-8.9760

> <Gold.Chemscore.Internal_Hbond.Weighted>
0.0000

> <Gold.Chemscore.DEClash.Weighted>
0.2591

> <Gold.Chemscore.DEInternal.Weighted>
2.7273

> <Gold.Chemscore.Rot.Weighted>
5.7972

> <Gold.Chemscore.Internal.Correction.Weighted>
   9.000000E+99

> <Gold.Protein.RotatedTorsions>
[ 6907 6896 6895 6894 ] final  -61.45 input  -60.11 | X-H torsion
[ 7974 7965 7964 7962 ] final  131.36 input  175.53 | X-H torsion
[ 8008 7997 7996 7995 ] final  117.14 input   59.86 | X-H torsion
[ 10167 10162 10161 10158 ] final  -36.05 input  -65.29 | X-H torsion
[ 10718 10713 10712 10709 ] final -146.80 input   66.30 | X-H torsion
[ 10763 10752 10751 10750 ] final -146.39 input  -60.55 | X-H torsion
[ 11005 11000 10999 10996 ] final -134.93 input  -57.11 | X-H torsion

> <Gold.Protein.ActiveResidues>
 VAL166  LYS551  ARG553  GLY616  TRP617  ASP618  TYR619  PRO620  LYS621  CYS622 
 ASP623  PHE694  ASN695  SER759  ASP760  ASP761  ALA762  ILE779  LEU786  VAL792 
 PHE793  MET794  SER795  GLU796  ALA797  LYS798  CYS799  TRP800  GLU811  SER814 

> <Gold.Protein.RotatedAtoms>
  150.7784  134.6703  159.6387 H   0  0  0  0  0  0  0  0  0  0  0  0  # atno 6907 bound_to 6896
  152.3861  134.6512  160.0134 H   0  0  0  0  0  0  0  0  0  0  0  0  # atno 6908 bound_to 6896
  151.6826  133.3275  159.3259 H   0  0  0  0  0  0  0  0  0  0  0  0  # atno 6909 bound_to 6896
  145.0082  139.4246  143.5258 H   0  0  0  0  0  0  0  0  0  0  0  0  # atno 7974 bound_to 7965
  156.2478  140.2902  156.0632 H   0  0  0  0  0  0  0  0  0  0  0  0  # atno 8008 bound_to 7997
  155.1752  140.0403  157.2888 H   0  0  0  0  0  0  0  0  0  0  0  0  # atno 8009 bound_to 7997
  154.6298  140.2496  155.7455 H   0  0  0  0  0  0  0  0  0  0  0  0  # atno 8010 bound_to 7997
  140.7151  143.3435  151.2306 H   0  0  0  0  0  0  0  0  0  0  0  0  # atno 10167 bound_to 10162
  156.3995  130.7926  151.2136 H   0  0  0  0  0  0  0  0  0  0  0  0  # atno 10718 bound_to 10713
  154.8338  135.3388  154.6654 H   0  0  0  0  0  0  0  0  0  0  0  0  # atno 10763 bound_to 10752
  153.7271  135.6954  153.5003 H   0  0  0  0  0  0  0  0  0  0  0  0  # atno 10764 bound_to 10752
  153.2339  135.4407  155.0578 H   0  0  0  0  0  0  0  0  0  0  0  0  # atno 10765 bound_to 10752
  140.8945  134.1770  157.4505 H   0  0  0  0  0  0  0  0  0  0  0  0  # atno 11005 bound_to 11000
  146.3465  139.9510  142.8729 LP  0  0  0  0  0  0  0  0  0  0  0  0  # atno 17320 bound_to 7965
  145.2060  140.9875  143.4128 LP  0  0  0  0  0  0  0  0  0  0  0  0  # atno 17321 bound_to 7965
  139.6948  143.9631  152.2877 LP  0  0  0  0  0  0  0  0  0  0  0  0  # atno 17342 bound_to 10162
  139.9304  144.6745  150.8368 LP  0  0  0  0  0  0  0  0  0  0  0  0  # atno 17343 bound_to 10162
  157.7503  131.0291  150.4079 LP  0  0  0  0  0  0  0  0  0  0  0  0  # atno 17370 bound_to 10713
  156.4355  130.3981  149.6731 LP  0  0  0  0  0  0  0  0  0  0  0  0  # atno 17371 bound_to 10713
  139.8734  134.9872  156.5359 LP  0  0  0  0  0  0  0  0  0  0  0  0  # atno 17394 bound_to 11000
  140.8306  133.8282  155.8981 LP  0  0  0  0  0  0  0  0  0  0  0  0  # atno 17395 bound_to 11000

$$$$
