AV-unprocessed.smi:1490|AV-procd|sdf|6030|dock10
  -GOLD-   22720 6133D 1   1.00000     0.00000
 Structure written by MMmdl.
 38 39  0  0  0  0  0  0  0  0  2 V2000
  150.7218  137.1210  154.6986 C   0  0  0  0  0  0  0  0  0  0  0  0
  152.0835  137.4781  154.8548 O   0  0  0  0  0  0  0  0  0  0  0  0
  152.2593  138.8623  155.1094 C   0  0  0  0  0  0  0  0  0  0  0  0
  151.7704  139.1883  156.5277 C   0  0  0  0  0  0  0  0  0  0  0  0
  151.2047  140.5416  156.6229 N   0  0  0  0  0  0  0  0  0  0  0  0
  150.2782  141.1688  155.8456 C   0  0  0  0  0  0  0  0  0  0  0  0
  149.4659  140.4854  154.4363 S   0  0  0  0  0  0  0  0  0  0  0  0
  148.2074  141.7001  153.9519 C   0  0  0  0  0  0  0  0  0  0  0  0
  146.9655  141.6569  154.8398 C   0  0  0  0  0  0  0  0  0  0  0  0
  146.1223  140.7762  154.6759 O   0  0  0  0  0  0  0  0  0  0  0  0
  146.8646  142.6010  155.7866 N   0  0  0  0  0  0  0  0  0  0  0  0
  145.7613  142.7020  156.7308 C   0  0  0  0  0  0  0  0  0  0  0  0
  146.1712  142.3944  158.1102 C   0  0  0  0  0  0  0  0  0  0  0  0
  146.4934  142.1513  159.1944 N   0  0  0  0  0  0  0  0  0  0  0  0
  150.0857  142.4159  156.3581 N   0  3  0  0  0  0  0  0  0  0  0  0
  150.8954  142.5875  157.4826 C   0  0  0  0  0  0  0  0  0  0  0  0
  151.0484  143.6742  158.3381 C   0  0  0  0  0  0  0  0  0  0  0  0
  151.9601  143.5199  159.4036 C   0  0  0  0  0  0  0  0  0  0  0  0
  152.2014  144.8256  160.5049 Cl  0  0  0  0  0  0  0  0  0  0  0  0
  152.6761  142.3184  159.5860 C   0  0  0  0  0  0  0  0  0  0  0  0
  152.5141  141.2228  158.7126 C   0  0  0  0  0  0  0  0  0  0  0  0
  151.6133  141.3860  157.6607 C   0  0  0  0  0  0  0  0  0  0  0  0
  150.6446  136.0523  154.4985 H   0  0  0  0  0  0  0  0  0  0  0  0
  150.2672  137.6537  153.8625 H   0  0  0  0  0  0  0  0  0  0  0  0
  150.1520  137.3359  155.6036 H   0  0  0  0  0  0  0  0  0  0  0  0
  153.3123  139.1285  155.0050 H   0  0  0  0  0  0  0  0  0  0  0  0
  151.6998  139.4526  154.3820 H   0  0  0  0  0  0  0  0  0  0  0  0
  151.0266  138.4652  156.8632 H   0  0  0  0  0  0  0  0  0  0  0  0
  152.6002  139.1244  157.2319 H   0  0  0  0  0  0  0  0  0  0  0  0
  148.6472  142.6972  153.9956 H   0  0  0  0  0  0  0  0  0  0  0  0
  147.9155  141.5222  152.9165 H   0  0  0  0  0  0  0  0  0  0  0  0
  147.5987  143.2904  155.8594 H   0  0  0  0  0  0  0  0  0  0  0  0
  145.3683  143.7186  156.7129 H   0  0  0  0  0  0  0  0  0  0  0  0
  144.9469  142.0331  156.4488 H   0  0  0  0  0  0  0  0  0  0  0  0
  150.4987  144.5938  158.2004 H   0  0  0  0  0  0  0  0  0  0  0  0
  153.3651  142.2337  160.4140 H   0  0  0  0  0  0  0  0  0  0  0  0
  153.0667  140.3073  158.8642 H   0  0  0  0  0  0  0  0  0  0  0  0
  149.4440  143.0948  155.9692 H   0  0  0  0  0  0  0  0  0  0  0  0
  1  2  1  0  0  0  0
  1 23  1  0  0  0  0
  1 24  1  0  0  0  0
  1 25  1  0  0  0  0
  2  3  1  0  0  0  0
  3  4  1  0  0  0  0
  3 26  1  0  0  0  0
  3 27  1  0  0  0  0
  4  5  1  0  0  0  0
  4 28  1  0  0  0  0
  4 29  1  0  0  0  0
  5 22  1  0  0  0  0
  5  6  1  0  0  0  0
  6  7  1  0  0  0  0
  6 15  2  0  0  0  0
  7  8  1  0  0  0  0
  8  9  1  0  0  0  0
  8 30  1  0  0  0  0
  8 31  1  0  0  0  0
  9 10  2  0  0  0  0
  9 11  1  0  0  0  0
 11 12  1  0  0  0  0
 11 32  1  0  0  0  0
 12 13  1  0  0  0  0
 12 33  1  0  0  0  0
 12 34  1  0  0  0  0
 13 14  3  0  0  0  0
 15 16  1  0  0  0  0
 15 38  1  0  0  0  0
 16 22  2  0  0  0  0
 16 17  1  0  0  0  0
 17 18  2  0  0  0  0
 17 35  1  0  0  0  0
 18 19  1  0  0  0  0
 18 20  1  0  0  0  0
 20 21  2  0  0  0  0
 20 36  1  0  0  0  0
 21 22  1  0  0  0  0
 21 37  1  0  0  0  0
M  CHG  1  15   1
M  END
> <s_m_source_file>
AV-unprocessed.smi

> <i_m_source_file_index>
1490

> <i_lp_mmshare_version>
43012

> <i_f3d_flags>
0

> <s_epik_input>
W2NIXTFjKENsKVtjSF1bY0hdYyhjMTIpbihbQ0gyXVtDSDJdT1tDSDNdKWMobjIpU1tDSDJdQyg9TylbTkhdW0NIMl1DI04=

> <s_epik_cmdline>
J2VwaWtfcHl0aG9uJywgJy1waCcsICc3LjAnLCAnLXRuJywgJzgnLCAnLW1hJywgJzIwMCcsICctbWV0YWxfYmluZGluZycsICctaW1hZScsICc8aW5maWxlLm1hZT4nLCAnLW9tYWUnLCAnPG91dGZpbGUubWFlPic=

> <r_epik_Ionization_Penalty>
2.45232

> <r_epik_Ionization_Penalty_Charging>
2.45231

> <r_epik_Ionization_Penalty_Neutral>
6.97855e-06

> <r_epik_State_Penalty>
2.61389

> <r_epik_Charging_Adjusted_Penalty>
5.0662

> <i_epik_Tot_Q>
1

> <i_epik_Tot_abs_Q>
1

> <r_epik_Metal_State_Penalty>
2.62983

> <b_epik_Metal_Only>
0

> <s_lp_Force_Field>
OPLS_2005

> <r_lp_Energy>
5.53111

> <b_lp_Chiralities_Consistent>
1

> <s_lp_Variant>
AV-unprocessed.smi:1490-2

> <Gold.Version>
5.8.1

> <Gold.Id.Protein>
6NUR|6NUR_protein|mol2

> <Gold.PLP.Fitness>
57.8520

> <Gold.PLP.PLP>
-45.9304

> <Gold.PLP.part.hbond>
-4.0000

> <Gold.PLP.part.metal>
0.0000

> <Gold.PLP.part.buried>
-4.8308

> <Gold.PLP.part.nonpolar>
-37.6127

> <Gold.PLP.part.repulsive>
0.3463

> <Gold.PLP.ligand.clash>
0.0000

> <Gold.PLP.ligand.torsion>
0.7682

> <Gold.PLP.Chemscore.Hbond>
4.4658

> <Gold.PLP.Chemscore.CHOScore>
0.0000

> <Gold.PLP.Chemscore.Metal>
0.0000

> <Gold.Chemscore.Hbonds>
donor molecule, donor type, donor heavy atom, donor atom, acceptor molecule, acceptor atom, score
      L1  H    11    32       P1  8028  0.75
      L1  H    15    38       P1  8028  2.00
      P1  H  6934  6946       L1    14  0.96
      P1  H 10752 10765       L1     2  0.76

> <Gold.PLP.Chemscore.Internal.Correction>
0.0604

> <Gold.Rescore>
     Score         DG    S(hbond)    S(metal)    S(lipo)     H(rot)  DE(clash)    DE(int)     intcor
     18.42     -19.47       2.64        0.00     106.31       2.84       0.17       0.87       ----

> <Gold.Chemscore.Fitness>
18.4250

> <Gold.Chemscore.DG>
-19.4686

> <Gold.Chemscore.ZeroCoef>
-5.4800

> <Gold.Chemscore.Hbond>
2.6392

> <Gold.Chemscore.Metal>
0.0000

> <Gold.Chemscore.Lipo>
106.3123

> <Gold.Chemscore.Internal_Hbond>
0.0000

> <Gold.Chemscore.DEClash>
0.1733

> <Gold.Chemscore.DEInternal>
0.8702

> <Gold.Chemscore.Rot>
2.8378

> <Gold.Chemscore.Internal.Correction>
   9.000000E+99

> <Gold.Chemscore.Hbonds>
donor molecule, donor type, donor heavy atom, donor atom, acceptor molecule, acceptor atom, score
      L1  H    11    32       P1  8028  0.09
      L1  H    15    38       P1  8028  0.98
      P1  H  6934  6946       L1    14  0.86
      P1  H 10752 10765       L1     2  0.18

> <Gold.Chemscore.Hbond.Weighted>
-8.8149

> <Gold.Chemscore.Metal.Weighted>
-0.0000

> <Gold.Chemscore.Lipo.Weighted>
-12.4385

> <Gold.Chemscore.Internal_Hbond.Weighted>
0.0000

> <Gold.Chemscore.DEClash.Weighted>
0.1733

> <Gold.Chemscore.DEInternal.Weighted>
0.8702

> <Gold.Chemscore.Rot.Weighted>
7.2649

> <Gold.Chemscore.Internal.Correction.Weighted>
   9.000000E+99

> <Gold.Protein.RotatedTorsions>
[ 6907 6896 6895 6894 ] final  -47.38 input  -60.11 | X-H torsion
[ 7974 7965 7964 7962 ] final -144.32 input  175.53 | X-H torsion
[ 8008 7997 7996 7995 ] final  -39.32 input   59.86 | X-H torsion
[ 10167 10162 10161 10158 ] final   40.02 input  -65.29 | X-H torsion
[ 10718 10713 10712 10709 ] final  -93.68 input   66.30 | X-H torsion
[ 10763 10752 10751 10750 ] final  176.13 input  -60.55 | X-H torsion
[ 11005 11000 10999 10996 ] final  -98.72 input  -57.11 | X-H torsion

> <Gold.Protein.ActiveResidues>
 VAL166  LYS551  ARG553  GLY616  TRP617  ASP618  TYR619  PRO620  LYS621  CYS622 
 ASP623  PHE694  ASN695  SER759  ASP760  ASP761  ALA762  ILE779  LEU786  VAL792 
 PHE793  MET794  SER795  GLU796  ALA797  LYS798  CYS799  TRP800  GLU811  SER814 

> <Gold.Protein.RotatedAtoms>
  150.9014  134.8427  159.7362 H   0  0  0  0  0  0  0  0  0  0  0  0  # atno 6907 bound_to 6896
  152.4894  134.4496  159.9580 H   0  0  0  0  0  0  0  0  0  0  0  0  # atno 6908 bound_to 6896
  151.4548  133.3569  159.2835 H   0  0  0  0  0  0  0  0  0  0  0  0  # atno 6909 bound_to 6896
  144.8306  140.5725  143.5518 H   0  0  0  0  0  0  0  0  0  0  0  0  # atno 7974 bound_to 7965
  154.4024  140.1554  156.2844 H   0  0  0  0  0  0  0  0  0  0  0  0  # atno 8008 bound_to 7997
  155.8841  140.3442  155.5886 H   0  0  0  0  0  0  0  0  0  0  0  0  # atno 8009 bound_to 7997
  155.7634  140.0820  157.2134 H   0  0  0  0  0  0  0  0  0  0  0  0  # atno 8010 bound_to 7997
  140.3782  144.2014  150.6131 H   0  0  0  0  0  0  0  0  0  0  0  0  # atno 10167 bound_to 10162
  156.0016  130.5037  150.5813 H   0  0  0  0  0  0  0  0  0  0  0  0  # atno 10718 bound_to 10713
  154.4769  135.2773  155.1600 H   0  0  0  0  0  0  0  0  0  0  0  0  # atno 10763 bound_to 10752
  154.3326  135.6187  153.5562 H   0  0  0  0  0  0  0  0  0  0  0  0  # atno 10764 bound_to 10752
  152.9870  135.5769  154.5162 H   0  0  0  0  0  0  0  0  0  0  0  0  # atno 10765 bound_to 10752
  141.1334  133.8267  157.0877 H   0  0  0  0  0  0  0  0  0  0  0  0  # atno 11005 bound_to 11000
  145.4904  139.1489  143.3713 LP  0  0  0  0  0  0  0  0  0  0  0  0  # atno 17320 bound_to 7965
  146.2609  140.5042  142.8854 LP  0  0  0  0  0  0  0  0  0  0  0  0  # atno 17321 bound_to 7965
  140.4964  143.2331  151.8743 LP  0  0  0  0  0  0  0  0  0  0  0  0  # atno 17342 bound_to 10162
  139.4797  144.5109  151.8934 LP  0  0  0  0  0  0  0  0  0  0  0  0  # atno 17343 bound_to 10162
  157.3693  131.0763  151.1571 LP  0  0  0  0  0  0  0  0  0  0  0  0  # atno 17370 bound_to 10713
  157.2330  130.6534  149.5857 LP  0  0  0  0  0  0  0  0  0  0  0  0  # atno 17371 bound_to 10713
  140.0412  134.9853  157.0964 LP  0  0  0  0  0  0  0  0  0  0  0  0  # atno 17394 bound_to 11000
  140.4133  134.1958  155.7163 LP  0  0  0  0  0  0  0  0  0  0  0  0  # atno 17395 bound_to 11000

$$$$
