AV-unprocessed.smi:1608|AV-procd|sdf|6468|dock4
  -GOLD-   22720 7123D 1   1.00000     0.00000
 Structure written by MMmdl.
 42 43  0  0  0  0  0  0  0  0  1 V2000
  146.2237  131.6125  149.2596 C   0  0  0  0  0  0  0  0  0  0  0  0
  145.5457  132.5181  150.1904 N   0  0  0  0  0  0  0  0  0  0  0  0
  146.3327  133.1834  151.1491 C   0  0  0  0  0  0  0  0  0  0  0  0
  145.8105  134.0270  152.0578 C   0  0  0  0  0  0  0  0  0  0  0  0
  146.6860  134.6341  152.9689 N   0  0  0  0  0  0  0  0  0  0  0  0
  146.5802  134.7303  154.3068 C   0  0  0  0  0  0  0  0  0  0  0  0
  145.6826  134.2471  154.9963 O   0  0  0  0  0  0  0  0  0  0  0  0
  147.6100  135.4189  154.8202 N   0  0  0  0  0  0  0  0  0  0  0  0
  147.8230  135.6848  156.2397 C   0  0  1  0  0  0  0  0  0  0  0  0
  149.3245  135.8019  156.5502 C   0  0  0  0  0  0  0  0  0  0  0  0
  149.5241  136.1398  158.0317 C   0  0  0  0  0  0  0  0  0  0  0  0
  148.7615  137.4181  158.4207 C   0  0  0  0  0  0  0  0  0  0  0  0
  147.3339  137.3354  158.0506 N   0  0  0  0  0  0  0  0  0  0  0  0
  146.1399  136.9795  159.2658 S   0  0  0  0  0  0  0  0  0  0  0  0
  144.6500  137.9119  158.7227 C   0  0  0  0  0  0  0  0  0  0  0  0
  145.8347  135.5428  159.1873 O   0  0  0  0  0  0  0  0  0  0  0  0
  146.6047  137.5571  160.5362 O   0  0  0  0  0  0  0  0  0  0  0  0
  147.0824  136.9760  156.6404 C   0  0  0  0  0  0  0  0  0  0  0  0
  144.3731  134.2496  151.9979 C   0  0  0  0  0  0  0  0  0  0  0  0
  143.6146  133.6188  151.0798 C   0  0  0  0  0  0  0  0  0  0  0  0
  144.1948  132.6882  150.1083 C   0  0  0  0  0  0  0  0  0  0  0  0
  143.5106  132.1003  149.2706 O   0  0  0  0  0  0  0  0  0  0  0  0
  147.2943  131.5344  149.4509 H   0  0  0  0  0  0  0  0  0  0  0  0
  146.1000  131.9584  148.2325 H   0  0  0  0  0  0  0  0  0  0  0  0
  145.8083  130.6062  149.3314 H   0  0  0  0  0  0  0  0  0  0  0  0
  147.3883  132.9564  151.1041 H   0  0  0  0  0  0  0  0  0  0  0  0
  147.5100  135.0440  152.5544 H   0  0  0  0  0  0  0  0  0  0  0  0
  148.3039  135.7806  154.1825 H   0  0  0  0  0  0  0  0  0  0  0  0
  147.4091  134.8564  156.8147 H   0  0  0  0  0  0  0  0  0  0  0  0
  149.8389  134.8704  156.3114 H   0  0  0  0  0  0  0  0  0  0  0  0
  149.7767  136.5781  155.9312 H   0  0  0  0  0  0  0  0  0  0  0  0
  149.1930  135.3028  158.6450 H   0  0  0  0  0  0  0  0  0  0  0  0
  150.5863  136.2672  158.2417 H   0  0  0  0  0  0  0  0  0  0  0  0
  148.8676  137.6138  159.4874 H   0  0  0  0  0  0  0  0  0  0  0  0
  149.2003  138.2738  157.9065 H   0  0  0  0  0  0  0  0  0  0  0  0
  143.8405  137.7306  159.4292 H   0  0  0  0  0  0  0  0  0  0  0  0
  144.3387  137.5730  157.7361 H   0  0  0  0  0  0  0  0  0  0  0  0
  144.8655  138.9786  158.7010 H   0  0  0  0  0  0  0  0  0  0  0  0
  147.4165  137.8043  156.0139 H   0  0  0  0  0  0  0  0  0  0  0  0
  146.0117  136.8720  156.4645 H   0  0  0  0  0  0  0  0  0  0  0  0
  143.8776  134.9338  152.6671 H   0  0  0  0  0  0  0  0  0  0  0  0
  142.5516  133.8085  151.0531 H   0  0  0  0  0  0  0  0  0  0  0  0
  1  2  1  0  0  0  0
  1 23  1  0  0  0  0
  1 24  1  0  0  0  0
  1 25  1  0  0  0  0
  2 21  1  0  0  0  0
  2  3  1  0  0  0  0
  3  4  2  0  0  0  0
  3 26  1  0  0  0  0
  4  5  1  0  0  0  0
  4 19  1  0  0  0  0
  5  6  1  0  0  0  0
  5 27  1  0  0  0  0
  6  7  2  0  0  0  0
  6  8  1  0  0  0  0
  8  9  1  0  0  0  0
  8 28  1  0  0  0  0
  9 18  1  0  0  0  0
  9 10  1  0  0  0  0
  9 29  1  0  0  0  0
 10 11  1  0  0  0  0
 10 30  1  0  0  0  0
 10 31  1  0  0  0  0
 11 12  1  0  0  0  0
 11 32  1  0  0  0  0
 11 33  1  0  0  0  0
 12 13  1  0  0  0  0
 12 34  1  0  0  0  0
 12 35  1  0  0  0  0
 13 14  1  0  0  0  0
 13 18  1  0  0  0  0
 14 15  1  0  0  0  0
 14 16  2  0  0  0  0
 14 17  2  0  0  0  0
 15 36  1  0  0  0  0
 15 37  1  0  0  0  0
 15 38  1  0  0  0  0
 18 39  1  0  0  0  0
 18 40  1  0  0  0  0
 19 20  2  0  0  0  0
 19 41  1  0  0  0  0
 20 21  1  0  0  0  0
 20 42  1  0  0  0  0
 21 22  2  0  0  0  0
M  END
> <s_m_source_file>
AV-unprocessed.smi

> <i_m_source_file_index>
1608

> <i_lp_mmshare_version>
43012

> <i_f3d_flags>
0

> <s_epik_input>
Tz1jMVtjSF1bY0hdYyhbY0hdbjFbQ0gzXSlbTkhdQyg9TylbTkhdW0NAQEhdMltDSDJdW0NIMl1bQ0gyXU4oW0NIMl0yKVMoPU8pKD1PKVtDSDNd

> <s_epik_cmdline>
J2VwaWtfcHl0aG9uJywgJy1waCcsICc3LjAnLCAnLXRuJywgJzgnLCAnLW1hJywgJzIwMCcsICctbWV0YWxfYmluZGluZycsICctaW1hZScsICc8aW5maWxlLm1hZT4nLCAnLW9tYWUnLCAnPG91dGZpbGUubWFlPic=

> <r_lp_tautomer_probability>
1

> <r_epik_Ionization_Penalty>
2.44111e-05

> <r_epik_Ionization_Penalty_Charging>
5.7429e-06

> <r_epik_Ionization_Penalty_Neutral>
1.86682e-05

> <r_epik_State_Penalty>
-0

> <r_epik_Charging_Adjusted_Penalty>
5.7429e-06

> <i_epik_Tot_Q>
0

> <i_epik_Tot_abs_Q>
0

> <r_epik_Metal_State_Penalty>
-0

> <b_epik_Metal_Only>
0

> <s_lp_Force_Field>
OPLS_2005

> <r_lp_Energy>
11.6091

> <b_lp_Chiralities_Consistent>
1

> <s_lp_Variant>
AV-unprocessed.smi:1608-2

> <Gold.Version>
5.8.1

> <Gold.Id.Protein>
6NUR|6NUR_protein|mol2

> <Gold.PLP.Fitness>
41.8737

> <Gold.PLP.PLP>
-28.9548

> <Gold.PLP.part.hbond>
-5.0000

> <Gold.PLP.part.metal>
0.0000

> <Gold.PLP.part.buried>
-5.1689

> <Gold.PLP.part.nonpolar>
-19.3961

> <Gold.PLP.part.repulsive>
0.2951

> <Gold.PLP.ligand.clash>
0.0000

> <Gold.PLP.ligand.torsion>
1.9224

> <Gold.PLP.Chemscore.Hbond>
4.3351

> <Gold.PLP.Chemscore.CHOScore>
0.5679

> <Gold.PLP.Chemscore.Metal>
0.0000

> <Gold.Chemscore.Hbonds>
donor molecule, donor type, donor heavy atom, donor atom, acceptor molecule, acceptor atom, score
      L1  H     5    27       P1  7948  1.00
      P1  H  6934  6947       L1    17  1.00
      P1  H 10785 10796       L1    22  0.90
      L1  C     3    26       P1 10747  0.44

> <Gold.PLP.Chemscore.Internal.Correction>
2.0546

> <Gold.Rescore>
     Score         DG    S(hbond)    S(metal)    S(lipo)     H(rot)  DE(clash)    DE(int)     intcor
     20.36     -22.34       4.17        0.00      47.03       1.00       0.06       1.92       ----

> <Gold.Chemscore.Fitness>
20.3626

> <Gold.Chemscore.DG>
-22.3393

> <Gold.Chemscore.ZeroCoef>
-5.4800

> <Gold.Chemscore.Hbond>
4.1667

> <Gold.Chemscore.Metal>
0.0000

> <Gold.Chemscore.Lipo>
47.0288

> <Gold.Chemscore.Internal_Hbond>
0.0000

> <Gold.Chemscore.DEClash>
0.0556

> <Gold.Chemscore.DEInternal>
1.9211

> <Gold.Chemscore.Rot>
1.0000

> <Gold.Chemscore.Internal.Correction>
   9.000000E+99

> <Gold.Chemscore.Hbonds>
donor molecule, donor type, donor heavy atom, donor atom, acceptor molecule, acceptor atom, score
      L1  H     5    27       P1  7948  0.98
      L1  H     8    28       P1  7948  0.05
      P1  H  6934  6947       L1    17  0.99
      P1  H 10785 10796       L1    22  0.83

> <Gold.Chemscore.Hbond.Weighted>
-13.9169

> <Gold.Chemscore.Metal.Weighted>
-0.0000

> <Gold.Chemscore.Lipo.Weighted>
-5.5024

> <Gold.Chemscore.Internal_Hbond.Weighted>
0.0000

> <Gold.Chemscore.DEClash.Weighted>
0.0556

> <Gold.Chemscore.DEInternal.Weighted>
1.9211

> <Gold.Chemscore.Rot.Weighted>
2.5600

> <Gold.Chemscore.Internal.Correction.Weighted>
   9.000000E+99

> <Gold.Protein.RotatedTorsions>
[ 6907 6896 6895 6894 ] final   28.26 input  -60.11 | X-H torsion
[ 7974 7965 7964 7962 ] final  103.72 input  175.53 | X-H torsion
[ 8008 7997 7996 7995 ] final  -99.69 input   59.86 | X-H torsion
[ 10167 10162 10161 10158 ] final  116.07 input  -65.29 | X-H torsion
[ 10718 10713 10712 10709 ] final  144.10 input   66.30 | X-H torsion
[ 10763 10752 10751 10750 ] final -152.02 input  -60.55 | X-H torsion
[ 11005 11000 10999 10996 ] final -130.28 input  -57.11 | X-H torsion

> <Gold.Protein.ActiveResidues>
 VAL166  LYS551  ARG553  GLY616  TRP617  ASP618  TYR619  PRO620  LYS621  CYS622 
 ASP623  PHE694  ASN695  SER759  ASP760  ASP761  ALA762  ILE779  LEU786  VAL792 
 PHE793  MET794  SER795  GLU796  ALA797  LYS798  CYS799  TRP800  GLU811  SER814 

> <Gold.Protein.RotatedAtoms>
  152.0144  134.9858  160.0568 H   0  0  0  0  0  0  0  0  0  0  0  0  # atno 6907 bound_to 6896
  152.1398  133.4452  159.4769 H   0  0  0  0  0  0  0  0  0  0  0  0  # atno 6908 bound_to 6896
  150.6864  134.2237  159.4450 H   0  0  0  0  0  0  0  0  0  0  0  0  # atno 6909 bound_to 6896
  145.3423  139.2459  143.3603 H   0  0  0  0  0  0  0  0  0  0  0  0  # atno 7974 bound_to 7965
  154.8183  140.0446  157.1392 H   0  0  0  0  0  0  0  0  0  0  0  0  # atno 8008 bound_to 7997
  154.9288  140.3037  155.5158 H   0  0  0  0  0  0  0  0  0  0  0  0  # atno 8009 bound_to 7997
  156.2978  140.2327  156.4346 H   0  0  0  0  0  0  0  0  0  0  0  0  # atno 8010 bound_to 7997
  139.6273  144.7110  151.2507 H   0  0  0  0  0  0  0  0  0  0  0  0  # atno 10167 bound_to 10162
  157.3612  131.0965  151.0914 H   0  0  0  0  0  0  0  0  0  0  0  0  # atno 10718 bound_to 10713
  154.8021  135.3246  154.7523 H   0  0  0  0  0  0  0  0  0  0  0  0  # atno 10763 bound_to 10752
  153.8189  135.6889  153.4834 H   0  0  0  0  0  0  0  0  0  0  0  0  # atno 10764 bound_to 10752
  153.1744  135.4610  154.9889 H   0  0  0  0  0  0  0  0  0  0  0  0  # atno 10765 bound_to 10752
  140.9360  134.1257  157.4193 H   0  0  0  0  0  0  0  0  0  0  0  0  # atno 11005 bound_to 11000
  146.3002  140.4022  142.8707 LP  0  0  0  0  0  0  0  0  0  0  0  0  # atno 17320 bound_to 7965
  144.8781  140.7364  143.6004 LP  0  0  0  0  0  0  0  0  0  0  0  0  # atno 17321 bound_to 7965
  140.7418  143.6545  150.8219 LP  0  0  0  0  0  0  0  0  0  0  0  0  # atno 17342 bound_to 10162
  140.0165  143.5588  152.2818 LP  0  0  0  0  0  0  0  0  0  0  0  0  # atno 17343 bound_to 10162
  157.2053  130.6413  149.5753 LP  0  0  0  0  0  0  0  0  0  0  0  0  # atno 17370 bound_to 10713
  155.9738  130.4677  150.6336 LP  0  0  0  0  0  0  0  0  0  0  0  0  # atno 17371 bound_to 10713
  139.8808  135.0021  156.6105 LP  0  0  0  0  0  0  0  0  0  0  0  0  # atno 17394 bound_to 11000
  140.7799  133.8668  155.8559 LP  0  0  0  0  0  0  0  0  0  0  0  0  # atno 17395 bound_to 11000

$$$$
