AV-unprocessed.smi:3019|AV-procd|sdf|11486|dock3
  -GOLD-   2272016423D 1   1.00000     0.00000
 Structure written by MMmdl.
 31 32  0  0  0  0  0  0  0  0  2 V2000
  152.4533  144.8644  158.3708 C   0  0  0  0  0  0  0  0  0  0  0  0
  151.7876  143.5911  158.9130 C   0  0  0  0  0  0  0  0  0  0  0  0
  152.5947  142.9627  160.0585 C   0  0  0  0  0  0  0  0  0  0  0  0
  151.5127  142.6021  157.8214 C   0  0  0  0  0  0  0  0  0  0  0  0
  150.7424  142.8954  156.7712 N   0  0  0  0  0  0  0  0  0  0  0  0
  150.6775  141.8262  155.9497 N   0  0  0  0  0  0  0  0  0  0  0  0
  151.4241  140.9325  156.5968 C   0  0  0  0  0  0  0  0  0  0  0  0
  151.6737  139.5761  156.0150 C   0  0  1  0  0  0  0  0  0  0  0  0
  151.1842  138.4477  156.9422 C   0  0  0  0  0  0  0  0  0  0  0  0
  151.3574  137.1412  156.2780 N   0  3  0  0  0  0  0  0  0  0  0  0
  150.6922  137.1129  154.9601 C   0  0  0  0  0  0  0  0  0  0  0  0
  151.1823  138.2860  154.0925 C   0  0  0  0  0  0  0  0  0  0  0  0
  150.9671  139.5155  154.7776 O   0  0  0  0  0  0  0  0  0  0  0  0
  151.9914  141.3627  157.7653 N   0  0  0  0  0  0  0  0  0  0  0  0
  151.8363  145.3329  157.6036 H   0  0  0  0  0  0  0  0  0  0  0  0
  153.4261  144.6476  157.9285 H   0  0  0  0  0  0  0  0  0  0  0  0
  152.6052  145.5964  159.1645 H   0  0  0  0  0  0  0  0  0  0  0  0
  150.8242  143.8887  159.3296 H   0  0  0  0  0  0  0  0  0  0  0  0
  152.0773  142.0973  160.4736 H   0  0  0  0  0  0  0  0  0  0  0  0
  152.7466  143.6757  160.8694 H   0  0  0  0  0  0  0  0  0  0  0  0
  153.5769  142.6328  159.7191 H   0  0  0  0  0  0  0  0  0  0  0  0
  152.7433  139.4682  155.8229 H   0  0  0  0  0  0  0  0  0  0  0  0
  151.7372  138.4519  157.8820 H   0  0  0  0  0  0  0  0  0  0  0  0
  150.1300  138.5856  157.1872 H   0  0  0  0  0  0  0  0  0  0  0  0
  152.3448  136.9736  156.1459 H   0  0  0  0  0  0  0  0  0  0  0  0
  150.8985  136.1607  154.4708 H   0  0  0  0  0  0  0  0  0  0  0  0
  149.6123  137.1752  155.1023 H   0  0  0  0  0  0  0  0  0  0  0  0
  152.2397  138.1740  153.8477 H   0  0  0  0  0  0  0  0  0  0  0  0
  150.6383  138.3082  153.1479 H   0  0  0  0  0  0  0  0  0  0  0  0
  150.9750  136.4125  156.8640 H   0  0  0  0  0  0  0  0  0  0  0  0
  150.2717  143.7686  156.5798 H   0  0  0  0  0  0  0  0  0  0  0  0
  1  2  1  0  0  0  0
  1 15  1  0  0  0  0
  1 16  1  0  0  0  0
  1 17  1  0  0  0  0
  2  3  1  0  0  0  0
  2  4  1  0  0  0  0
  2 18  1  0  0  0  0
  3 19  1  0  0  0  0
  3 20  1  0  0  0  0
  3 21  1  0  0  0  0
  4 14  2  0  0  0  0
  4  5  1  0  0  0  0
  5  6  1  0  0  0  0
  5 31  1  0  0  0  0
  6  7  2  0  0  0  0
  7  8  1  0  0  0  0
  7 14  1  0  0  0  0
  8 13  1  0  0  0  0
  8  9  1  0  0  0  0
  8 22  1  0  0  0  0
  9 10  1  0  0  0  0
  9 23  1  0  0  0  0
  9 24  1  0  0  0  0
 10 11  1  0  0  0  0
 10 25  1  0  0  0  0
 10 30  1  0  0  0  0
 11 12  1  0  0  0  0
 11 26  1  0  0  0  0
 11 27  1  0  0  0  0
 12 13  1  0  0  0  0
 12 28  1  0  0  0  0
 12 29  1  0  0  0  0
M  CHG  1  10   1
M  END
> <s_m_source_file>
AV-unprocessed.smi

> <i_m_source_file_index>
3019

> <i_lp_mmshare_version>
43012

> <i_f3d_flags>
0

> <s_epik_input>
W0NIM11bQ0hdKFtDSDNdKWMxbltuSF1jKG4xKVtDQEBIXTJbQ0gyXVtOSF1bQ0gyXVtDSDJdTzI=

> <s_epik_cmdline>
J2VwaWtfcHl0aG9uJywgJy1waCcsICc3LjAnLCAnLXRuJywgJzgnLCAnLW1hJywgJzIwMCcsICctbWV0YWxfYmluZGluZycsICctaW1hZScsICc8aW5maWxlLm1hZT4nLCAnLW9tYWUnLCAnPG91dGZpbGUubWFlPic=

> <r_lp_tautomer_probability>
0.948284

> <r_epik_Ionization_Penalty>
0.108767

> <r_epik_Ionization_Penalty_Charging>
0.100865

> <r_epik_Ionization_Penalty_Neutral>
0.00790271

> <r_epik_State_Penalty>
0.197684

> <r_epik_Charging_Adjusted_Penalty>
0.298549

> <i_epik_Tot_Q>
1

> <i_epik_Tot_abs_Q>
1

> <r_epik_Metal_State_Penalty>
0.508163

> <b_epik_Metal_Only>
0

> <s_lp_Force_Field>
OPLS_2005

> <r_lp_Energy>
9.87309

> <b_lp_Chiralities_Consistent>
1

> <s_lp_Variant>
AV-unprocessed.smi:3019-2

> <Gold.Version>
5.8.1

> <Gold.Id.Protein>
6NUR|6NUR_protein|mol2

> <Gold.PLP.Fitness>
33.4472

> <Gold.PLP.PLP>
-27.4659

> <Gold.PLP.part.hbond>
-2.0000

> <Gold.PLP.part.metal>
0.0000

> <Gold.PLP.part.buried>
-4.0298

> <Gold.PLP.part.nonpolar>
-21.0103

> <Gold.PLP.part.repulsive>
0.2824

> <Gold.PLP.ligand.clash>
0.0000

> <Gold.PLP.ligand.torsion>
0.0370

> <Gold.PLP.Chemscore.Hbond>
2.0000

> <Gold.PLP.Chemscore.CHOScore>
0.0000

> <Gold.PLP.Chemscore.Metal>
0.0000

> <Gold.Chemscore.Hbonds>
donor molecule, donor type, donor heavy atom, donor atom, acceptor molecule, acceptor atom, score
      L1  H     5    31       P1  8028  1.00
      P1  H  7989  7998       L1    13  1.00

> <Gold.PLP.Chemscore.Internal.Correction>
0.0552

> <Gold.Rescore>
     Score         DG    S(hbond)    S(metal)    S(lipo)     H(rot)  DE(clash)    DE(int)     intcor
     15.43     -15.66       1.85        0.00      62.28       1.28       0.20       0.03       ----

> <Gold.Chemscore.Fitness>
15.4289

> <Gold.Chemscore.DG>
-15.6588

> <Gold.Chemscore.ZeroCoef>
-5.4800

> <Gold.Chemscore.Hbond>
1.8464

> <Gold.Chemscore.Metal>
0.0000

> <Gold.Chemscore.Lipo>
62.2835

> <Gold.Chemscore.Internal_Hbond>
0.0000

> <Gold.Chemscore.DEClash>
0.1954

> <Gold.Chemscore.DEInternal>
0.0346

> <Gold.Chemscore.Rot>
1.2795

> <Gold.Chemscore.Internal.Correction>
   9.000000E+99

> <Gold.Chemscore.Hbonds>
donor molecule, donor type, donor heavy atom, donor atom, acceptor molecule, acceptor atom, score
      L1  H     5    31       P1  8028  0.94
      P1  H  7989  7998       L1    13  0.32

> <Gold.Chemscore.Hbond.Weighted>
-6.1671

> <Gold.Chemscore.Metal.Weighted>
-0.0000

> <Gold.Chemscore.Lipo.Weighted>
-7.2872

> <Gold.Chemscore.Internal_Hbond.Weighted>
0.0000

> <Gold.Chemscore.DEClash.Weighted>
0.1954

> <Gold.Chemscore.DEInternal.Weighted>
0.0346

> <Gold.Chemscore.Rot.Weighted>
3.2754

> <Gold.Chemscore.Internal.Correction.Weighted>
   9.000000E+99

> <Gold.Protein.RotatedTorsions>
[ 6907 6896 6895 6894 ] final  -31.78 input  -60.11 | X-H torsion
[ 7974 7965 7964 7962 ] final   70.30 input  175.53 | X-H torsion
[ 8008 7997 7996 7995 ] final  152.63 input   59.86 | X-H torsion
[ 10167 10162 10161 10158 ] final  109.91 input  -65.29 | X-H torsion
[ 10718 10713 10712 10709 ] final  106.94 input   66.30 | X-H torsion
[ 10763 10752 10751 10750 ] final  118.14 input  -60.55 | X-H torsion
[ 11005 11000 10999 10996 ] final    7.88 input  -57.11 | X-H torsion

> <Gold.Protein.ActiveResidues>
 VAL166  LYS551  ARG553  GLY616  TRP617  ASP618  TYR619  PRO620  LYS621  CYS622 
 ASP623  PHE694  ASN695  SER759  ASP760  ASP761  ALA762  ILE779  LEU786  VAL792 
 PHE793  MET794  SER795  GLU796  ALA797  LYS798  CYS799  TRP800  GLU811  SER814 

> <Gold.Protein.RotatedAtoms>
  151.0875  134.9896  159.8386 H   0  0  0  0  0  0  0  0  0  0  0  0  # atno 6907 bound_to 6896
  152.5426  134.2106  159.8758 H   0  0  0  0  0  0  0  0  0  0  0  0  # atno 6908 bound_to 6896
  151.2140  133.4496  159.2632 H   0  0  0  0  0  0  0  0  0  0  0  0  # atno 6909 bound_to 6896
  145.7798  139.2882  143.1272 H   0  0  0  0  0  0  0  0  0  0  0  0  # atno 7974 bound_to 7965
  156.2620  140.2015  156.6363 H   0  0  0  0  0  0  0  0  0  0  0  0  # atno 8008 bound_to 7997
  154.6643  140.0557  157.0121 H   0  0  0  0  0  0  0  0  0  0  0  0  # atno 8009 bound_to 7997
  155.1229  140.3226  155.4495 H   0  0  0  0  0  0  0  0  0  0  0  0  # atno 8010 bound_to 7997
  139.6730  144.7124  151.1654 H   0  0  0  0  0  0  0  0  0  0  0  0  # atno 10167 bound_to 10162
  157.6648  131.0862  150.6082 H   0  0  0  0  0  0  0  0  0  0  0  0  # atno 10718 bound_to 10713
  153.5631  135.3517  155.2807 H   0  0  0  0  0  0  0  0  0  0  0  0  # atno 10763 bound_to 10752
  154.8692  135.4141  154.2809 H   0  0  0  0  0  0  0  0  0  0  0  0  # atno 10764 bound_to 10752
  153.3559  135.7057  153.6820 H   0  0  0  0  0  0  0  0  0  0  0  0  # atno 10765 bound_to 10752
  140.5433  134.0354  155.7911 H   0  0  0  0  0  0  0  0  0  0  0  0  # atno 11005 bound_to 11000
  146.0085  140.8456  142.9982 LP  0  0  0  0  0  0  0  0  0  0  0  0  # atno 17320 bound_to 7965
  144.6798  140.2456  143.7338 LP  0  0  0  0  0  0  0  0  0  0  0  0  # atno 17321 bound_to 7965
  140.7625  143.5815  150.8890 LP  0  0  0  0  0  0  0  0  0  0  0  0  # atno 17342 bound_to 10162
  139.9482  143.6303  152.3036 LP  0  0  0  0  0  0  0  0  0  0  0  0  # atno 17343 bound_to 10162
  156.6383  130.4451  149.5761 LP  0  0  0  0  0  0  0  0  0  0  0  0  # atno 17370 bound_to 10713
  156.2229  130.6748  151.1386 LP  0  0  0  0  0  0  0  0  0  0  0  0  # atno 17371 bound_to 10713
  141.1214  133.9454  157.2721 LP  0  0  0  0  0  0  0  0  0  0  0  0  # atno 17394 bound_to 11000
  139.9493  135.0178  156.8945 LP  0  0  0  0  0  0  0  0  0  0  0  0  # atno 17395 bound_to 11000

$$$$
