AV-unprocessed.smi:3056|AV-procd|sdf|11657|dock3
  -GOLD-   2272017 63D 1   1.00000     0.00000
 Structure written by MMmdl.
 47 48  0  0  0  0  0  0  0  0  1 V2000
  151.4377  145.7506  160.6183 C   0  0  0  0  0  0  0  0  0  0  0  0
  151.9870  144.4571  160.0898 C   0  0  0  0  0  0  0  0  0  0  0  0
  152.1330  144.0592  158.7309 C   0  0  0  0  0  0  0  0  0  0  0  0
  152.6553  142.8509  158.6025 N   0  0  0  0  0  0  0  0  0  0  0  0
  152.8578  142.4308  159.8717 N   0  0  0  0  0  0  0  0  0  0  0  0
  153.4356  141.1174  160.1298 C   0  0  2  0  0  0  0  0  0  0  0  0
  154.9268  141.1153  159.7384 C   0  0  0  0  0  0  0  0  0  0  0  0
  152.6360  139.9767  159.4424 C   0  0  2  0  0  0  0  0  0  0  0  0
  153.3149  138.5954  159.5704 C   0  0  0  0  0  0  0  0  0  0  0  0
  152.4989  140.3088  158.0267 N   0  0  0  0  0  0  0  0  0  0  0  0
  151.8709  139.2299  157.2519 C   0  0  0  0  0  0  0  0  0  0  0  0
  151.1815  139.7692  155.9933 C   0  0  0  0  0  0  0  0  0  0  0  0
  151.8892  140.2993  155.1365 O   0  0  0  0  0  0  0  0  0  0  0  0
  149.8376  139.6544  155.8567 N   0  0  0  0  0  0  0  0  0  0  0  0
  148.9093  139.0842  156.8375 C   0  0  0  0  0  0  0  0  0  0  0  0
  147.9772  140.2068  157.3244 C   0  0  0  0  0  0  0  0  0  0  0  0
  147.2897  140.7737  156.2112 O   0  0  0  0  0  0  0  0  0  0  0  0
  148.1627  141.3104  155.2179 C   0  0  2  0  0  0  0  0  0  0  0  0
  147.3046  141.9009  154.0935 C   0  0  0  0  0  0  0  0  0  0  0  0
  149.1000  140.1950  154.7117 C   0  0  0  0  0  0  0  0  0  0  0  0
  152.4629  143.3836  160.7877 C   0  0  0  0  0  0  0  0  0  0  0  0
  151.4341  146.5304  159.8564 H   0  0  0  0  0  0  0  0  0  0  0  0
  152.0244  146.1256  161.4573 H   0  0  0  0  0  0  0  0  0  0  0  0
  150.4114  145.6374  160.9674 H   0  0  0  0  0  0  0  0  0  0  0  0
  151.8776  144.6113  157.8384 H   0  0  0  0  0  0  0  0  0  0  0  0
  153.3794  140.9652  161.2094 H   0  0  0  0  0  0  0  0  0  0  0  0
  155.4187  140.1886  160.0339 H   0  0  0  0  0  0  0  0  0  0  0  0
  155.4590  141.9326  160.2259 H   0  0  0  0  0  0  0  0  0  0  0  0
  155.0586  141.2296  158.6618 H   0  0  0  0  0  0  0  0  0  0  0  0
  151.6488  139.9300  159.9060 H   0  0  0  0  0  0  0  0  0  0  0  0
  153.4035  138.2860  160.6118 H   0  0  0  0  0  0  0  0  0  0  0  0
  154.3185  138.6084  159.1440 H   0  0  0  0  0  0  0  0  0  0  0  0
  152.7518  137.8118  159.0650 H   0  0  0  0  0  0  0  0  0  0  0  0
  151.9564  141.1575  157.9501 H   0  0  0  0  0  0  0  0  0  0  0  0
  152.5926  138.4623  156.9749 H   0  0  0  0  0  0  0  0  0  0  0  0
  151.1243  138.7328  157.8734 H   0  0  0  0  0  0  0  0  0  0  0  0
  148.3257  138.2948  156.3622 H   0  0  0  0  0  0  0  0  0  0  0  0
  149.3969  138.6155  157.6897 H   0  0  0  0  0  0  0  0  0  0  0  0
  147.2445  139.8112  158.0276 H   0  0  0  0  0  0  0  0  0  0  0  0
  148.5403  140.9798  157.8497 H   0  0  0  0  0  0  0  0  0  0  0  0
  148.7540  142.1124  155.6634 H   0  0  0  0  0  0  0  0  0  0  0  0
  147.9276  142.3381  153.3127 H   0  0  0  0  0  0  0  0  0  0  0  0
  146.6501  142.6853  154.4737 H   0  0  0  0  0  0  0  0  0  0  0  0
  146.6771  141.1375  153.6331 H   0  0  0  0  0  0  0  0  0  0  0  0
  149.7561  140.5876  153.9337 H   0  0  0  0  0  0  0  0  0  0  0  0
  148.5232  139.3955  154.2443 H   0  0  0  0  0  0  0  0  0  0  0  0
  152.5522  143.2207  161.8520 H   0  0  0  0  0  0  0  0  0  0  0  0
  1  2  1  0  0  0  0
  1 22  1  0  0  0  0
  1 23  1  0  0  0  0
  1 24  1  0  0  0  0
  2 21  2  0  0  0  0
  2  3  1  0  0  0  0
  3  4  2  0  0  0  0
  3 25  1  0  0  0  0
  4  5  1  0  0  0  0
  5  6  1  0  0  0  0
  5 21  1  0  0  0  0
  6  7  1  0  0  0  0
  6  8  1  0  0  0  0
  6 26  1  0  0  0  0
  7 27  1  0  0  0  0
  7 28  1  0  0  0  0
  7 29  1  0  0  0  0
  8  9  1  0  0  0  0
  8 10  1  0  0  0  0
  8 30  1  0  0  0  0
  9 31  1  0  0  0  0
  9 32  1  0  0  0  0
  9 33  1  0  0  0  0
 10 11  1  0  0  0  0
 10 34  1  0  0  0  0
 11 12  1  0  0  0  0
 11 35  1  0  0  0  0
 11 36  1  0  0  0  0
 12 13  2  0  0  0  0
 12 14  1  0  0  0  0
 14 20  1  0  0  0  0
 14 15  1  0  0  0  0
 15 16  1  0  0  0  0
 15 37  1  0  0  0  0
 15 38  1  0  0  0  0
 16 17  1  0  0  0  0
 16 39  1  0  0  0  0
 16 40  1  0  0  0  0
 17 18  1  0  0  0  0
 18 19  1  0  0  0  0
 18 20  1  0  0  0  0
 18 41  1  0  0  0  0
 19 42  1  0  0  0  0
 19 43  1  0  0  0  0
 19 44  1  0  0  0  0
 20 45  1  0  0  0  0
 20 46  1  0  0  0  0
 21 47  1  0  0  0  0
M  END
> <s_m_source_file>
AV-unprocessed.smi

> <i_m_source_file_index>
3056

> <i_lp_mmshare_version>
43012

> <i_f3d_flags>
0

> <s_epik_input>
W0NIM11jMVtjSF1ubihbY0hdMSlbQ0BIXShbQ0gzXSlbQ0BIXShbQ0gzXSlbTkhdW0NIMl1DKD1PKU4yW0NIMl1bQ0gyXU9bQ0BASF0oW0NIM10pW0NIMl0y

> <s_epik_cmdline>
J2VwaWtfcHl0aG9uJywgJy1waCcsICc3LjAnLCAnLXRuJywgJzgnLCAnLW1hJywgJzIwMCcsICctbWV0YWxfYmluZGluZycsICctaW1hZScsICc8aW5maWxlLm1hZT4nLCAnLW9tYWUnLCAnPG91dGZpbGUubWFlPic=

> <r_lp_tautomer_probability>
1

> <r_epik_Ionization_Penalty>
0.667689

> <r_epik_Ionization_Penalty_Charging>
0

> <r_epik_Ionization_Penalty_Neutral>
0.667689

> <r_epik_State_Penalty>
0.684601

> <r_epik_Charging_Adjusted_Penalty>
0.684601

> <i_epik_Tot_Q>
0

> <i_epik_Tot_abs_Q>
0

> <r_epik_Metal_State_Penalty>
0.681448

> <b_epik_Metal_Only>
0

> <s_lp_Force_Field>
OPLS_2005

> <r_lp_Energy>
28.8183

> <b_lp_Chiralities_Consistent>
1

> <s_lp_Variant>
AV-unprocessed.smi:3056-13

> <Gold.Version>
5.8.1

> <Gold.Id.Protein>
6NUR|6NUR_protein|mol2

> <Gold.PLP.Fitness>
45.3822

> <Gold.PLP.PLP>
-43.0652

> <Gold.PLP.part.hbond>
-1.4107

> <Gold.PLP.part.metal>
0.0000

> <Gold.PLP.part.buried>
-2.3914

> <Gold.PLP.part.nonpolar>
-38.8165

> <Gold.PLP.part.repulsive>
0.0803

> <Gold.PLP.ligand.clash>
0.0000

> <Gold.PLP.ligand.torsion>
0.4164

> <Gold.PLP.Chemscore.Hbond>
1.0063

> <Gold.PLP.Chemscore.CHOScore>
0.0000

> <Gold.PLP.Chemscore.Metal>
0.0000

> <Gold.Chemscore.Hbonds>
donor molecule, donor type, donor heavy atom, donor atom, acceptor molecule, acceptor atom, score
      P1  H  7989  7998       L1    13  0.78
      P1  H  7997  8008       L1    10  0.20

> <Gold.PLP.Chemscore.Internal.Correction>
0.1310

> <Gold.Rescore>
     Score         DG    S(hbond)    S(metal)    S(lipo)     H(rot)  DE(clash)    DE(int)     intcor
     16.12     -16.59       0.92        0.00     105.41       1.68       0.10       0.37       ----

> <Gold.Chemscore.Fitness>
16.1248

> <Gold.Chemscore.DG>
-16.5940

> <Gold.Chemscore.ZeroCoef>
-5.4800

> <Gold.Chemscore.Hbond>
0.9223

> <Gold.Chemscore.Metal>
0.0000

> <Gold.Chemscore.Lipo>
105.4080

> <Gold.Chemscore.Internal_Hbond>
0.0000

> <Gold.Chemscore.DEClash>
0.0974

> <Gold.Chemscore.DEInternal>
0.3718

> <Gold.Chemscore.Rot>
1.6793

> <Gold.Chemscore.Internal.Correction>
   9.000000E+99

> <Gold.Chemscore.Hbonds>
donor molecule, donor type, donor heavy atom, donor atom, acceptor molecule, acceptor atom, score
      P1  H  7989  7998       L1    13  0.78
      P1  H  7997  8008       L1    10  0.01

> <Gold.Chemscore.Hbond.Weighted>
-3.0804

> <Gold.Chemscore.Metal.Weighted>
-0.0000

> <Gold.Chemscore.Lipo.Weighted>
-12.3327

> <Gold.Chemscore.Internal_Hbond.Weighted>
0.0000

> <Gold.Chemscore.DEClash.Weighted>
0.0974

> <Gold.Chemscore.DEInternal.Weighted>
0.3718

> <Gold.Chemscore.Rot.Weighted>
4.2990

> <Gold.Chemscore.Internal.Correction.Weighted>
   9.000000E+99

> <Gold.Protein.RotatedTorsions>
[ 6907 6896 6895 6894 ] final  -54.94 input  -60.11 | X-H torsion
[ 7974 7965 7964 7962 ] final  161.75 input  175.53 | X-H torsion
[ 8008 7997 7996 7995 ] final  -78.84 input   59.86 | X-H torsion
[ 10167 10162 10161 10158 ] final  -82.31 input  -65.29 | X-H torsion
[ 10718 10713 10712 10709 ] final  127.37 input   66.30 | X-H torsion
[ 10763 10752 10751 10750 ] final   70.09 input  -60.55 | X-H torsion
[ 11005 11000 10999 10996 ] final  -71.67 input  -57.11 | X-H torsion

> <Gold.Protein.ActiveResidues>
 VAL166  LYS551  ARG553  GLY616  TRP617  ASP618  TYR619  PRO620  LYS621  CYS622 
 ASP623  PHE694  ASN695  SER759  ASP760  ASP761  ALA762  ILE779  LEU786  VAL792 
 PHE793  MET794  SER795  GLU796  ALA797  LYS798  CYS799  TRP800  GLU811  SER814 

> <Gold.Protein.RotatedAtoms>
  150.8295  134.7541  159.6840 H   0  0  0  0  0  0  0  0  0  0  0  0  # atno 6907 bound_to 6896
  152.4401  134.5605  159.9902 H   0  0  0  0  0  0  0  0  0  0  0  0  # atno 6908 bound_to 6896
  151.5769  133.3345  159.3036 H   0  0  0  0  0  0  0  0  0  0  0  0  # atno 6909 bound_to 6896
  144.7670  139.7942  143.6311 H   0  0  0  0  0  0  0  0  0  0  0  0  # atno 7974 bound_to 7965
  154.5728  140.0688  156.8989 H   0  0  0  0  0  0  0  0  0  0  0  0  # atno 8008 bound_to 7997
  155.2604  140.3358  155.4255 H   0  0  0  0  0  0  0  0  0  0  0  0  # atno 8009 bound_to 7997
  156.2131  140.1767  156.7635 H   0  0  0  0  0  0  0  0  0  0  0  0  # atno 8010 bound_to 7997
  140.4331  143.2541  151.8731 H   0  0  0  0  0  0  0  0  0  0  0  0  # atno 10167 bound_to 10162
  157.5339  131.1098  150.8966 H   0  0  0  0  0  0  0  0  0  0  0  0  # atno 10718 bound_to 10713
  153.0323  135.5186  154.7389 H   0  0  0  0  0  0  0  0  0  0  0  0  # atno 10763 bound_to 10752
  154.6394  135.2910  155.0124 H   0  0  0  0  0  0  0  0  0  0  0  0  # atno 10764 bound_to 10752
  154.1047  135.6631  153.4927 H   0  0  0  0  0  0  0  0  0  0  0  0  # atno 10765 bound_to 10752
  141.1596  133.6824  156.6941 H   0  0  0  0  0  0  0  0  0  0  0  0  # atno 11005 bound_to 11000
  146.1786  139.4968  142.9881 LP  0  0  0  0  0  0  0  0  0  0  0  0  # atno 17320 bound_to 7965
  145.6439  141.0278  143.1796 LP  0  0  0  0  0  0  0  0  0  0  0  0  # atno 17321 bound_to 7965
  139.4786  144.5312  151.8664 LP  0  0  0  0  0  0  0  0  0  0  0  0  # atno 17342 bound_to 10162
  140.4404  144.1994  150.5891 LP  0  0  0  0  0  0  0  0  0  0  0  0  # atno 17343 bound_to 10162
  156.9539  130.5430  149.5283 LP  0  0  0  0  0  0  0  0  0  0  0  0  # atno 17370 bound_to 10713
  156.0443  130.5522  150.8845 LP  0  0  0  0  0  0  0  0  0  0  0  0  # atno 17371 bound_to 10713
  140.3008  134.8165  157.4096 LP  0  0  0  0  0  0  0  0  0  0  0  0  # atno 17394 bound_to 11000
  140.1263  134.5153  155.8142 LP  0  0  0  0  0  0  0  0  0  0  0  0  # atno 17395 bound_to 11000

$$$$
