AV-unprocessed.smi:1285|AV-procd|sdf|5371|dock7
  -GOLD-   22720 4513D 1   1.00000     0.00000
 Structure written by MMmdl.
 47 48  0  0  0  0  0  0  0  0  2 V2000
  143.5392  135.5715  153.4137 C   0  0  0  0  0  0  0  0  0  0  0  0
  144.1809  136.5626  152.4264 C   0  0  0  0  0  0  0  0  0  0  0  0
  145.7406  136.5592  152.3835 C   0  0  1  0  0  0  0  0  0  0  0  0
  146.1700  137.5828  151.2985 C   0  0  0  0  0  0  0  0  0  0  0  0
  146.3103  137.0198  153.7619 C   0  0  0  0  0  0  0  0  0  0  0  0
  147.7346  136.7321  153.9165 N   0  0  0  0  0  0  0  0  0  0  0  0
  148.3045  136.1135  154.9626 C   0  0  0  0  0  0  0  0  0  0  0  0
  147.6618  135.6339  155.8972 O   0  0  0  0  0  0  0  0  0  0  0  0
  149.8393  136.0786  154.9608 C   0  0  2  0  0  0  0  0  0  0  0  0
  150.4255  135.2790  156.1395 C   0  0  0  0  0  0  0  0  0  0  0  0
  150.3527  137.4415  154.9347 N   0  0  0  0  0  0  0  0  0  0  0  0
  150.2805  138.3858  153.9922 C   0  0  0  0  0  0  0  0  0  0  0  0
  150.9227  139.5033  154.3012 N   0  0  0  0  0  0  0  0  0  0  0  0
  151.4044  139.1566  155.5313 C   0  0  0  0  0  0  0  0  0  0  0  0
  151.1017  137.9289  155.9531 N   0  0  0  0  0  0  0  0  0  0  0  0
  146.2425  135.1800  152.0335 N   0  3  0  0  0  0  0  0  0  0  0  0
  146.2293  134.1782  153.1372 C   0  0  0  0  0  0  0  0  0  0  0  0
  146.9408  132.8854  152.7021 C   0  0  0  0  0  0  0  0  0  0  0  0
  146.3221  132.3632  151.5349 O   0  0  0  0  0  0  0  0  0  0  0  0
  146.4052  133.2711  150.4455 C   0  0  0  0  0  0  0  0  0  0  0  0
  145.6642  134.5699  150.8023 C   0  0  0  0  0  0  0  0  0  0  0  0
  142.4522  135.6406  153.3668 H   0  0  0  0  0  0  0  0  0  0  0  0
  143.8317  135.7741  154.4437 H   0  0  0  0  0  0  0  0  0  0  0  0
  143.8057  134.5402  153.1834 H   0  0  0  0  0  0  0  0  0  0  0  0
  143.7868  136.3281  151.4373 H   0  0  0  0  0  0  0  0  0  0  0  0
  143.8069  137.5644  152.6358 H   0  0  0  0  0  0  0  0  0  0  0  0
  145.6321  138.5266  151.3979 H   0  0  0  0  0  0  0  0  0  0  0  0
  145.9796  137.2110  150.2915 H   0  0  0  0  0  0  0  0  0  0  0  0
  147.2302  137.8286  151.3640 H   0  0  0  0  0  0  0  0  0  0  0  0
  146.1333  138.0827  153.9265 H   0  0  0  0  0  0  0  0  0  0  0  0
  145.8021  136.5045  154.5762 H   0  0  0  0  0  0  0  0  0  0  0  0
  148.3479  137.0906  153.1983 H   0  0  0  0  0  0  0  0  0  0  0  0
  150.1542  135.5812  154.0411 H   0  0  0  0  0  0  0  0  0  0  0  0
  150.0561  134.2529  156.1415 H   0  0  0  0  0  0  0  0  0  0  0  0
  150.1724  135.7255  157.1019 H   0  0  0  0  0  0  0  0  0  0  0  0
  151.5131  135.2337  156.0739 H   0  0  0  0  0  0  0  0  0  0  0  0
  149.7583  138.2482  153.0564 H   0  0  0  0  0  0  0  0  0  0  0  0
  152.0036  139.8264  156.1303 H   0  0  0  0  0  0  0  0  0  0  0  0
  146.7395  134.5494  154.0239 H   0  0  0  0  0  0  0  0  0  0  0  0
  145.2035  133.9492  153.4268 H   0  0  0  0  0  0  0  0  0  0  0  0
  148.0005  133.0678  152.5164 H   0  0  0  0  0  0  0  0  0  0  0  0
  146.8817  132.1397  153.4951 H   0  0  0  0  0  0  0  0  0  0  0  0
  147.4488  133.4709  150.1964 H   0  0  0  0  0  0  0  0  0  0  0  0
  145.9517  132.8091  149.5685 H   0  0  0  0  0  0  0  0  0  0  0  0
  144.6081  134.3436  150.9496 H   0  0  0  0  0  0  0  0  0  0  0  0
  145.7328  135.2439  149.9508 H   0  0  0  0  0  0  0  0  0  0  0  0
  147.2206  135.3189  151.8230 H   0  0  0  0  0  0  0  0  0  0  0  0
  1  2  1  0  0  0  0
  1 22  1  0  0  0  0
  1 23  1  0  0  0  0
  1 24  1  0  0  0  0
  2  3  1  0  0  0  0
  2 25  1  0  0  0  0
  2 26  1  0  0  0  0
  3  4  1  0  0  0  0
  3  5  1  0  0  0  0
  3 16  1  0  0  0  0
  4 27  1  0  0  0  0
  4 28  1  0  0  0  0
  4 29  1  0  0  0  0
  5  6  1  0  0  0  0
  5 30  1  0  0  0  0
  5 31  1  0  0  0  0
  6  7  1  0  0  0  0
  6 32  1  0  0  0  0
  7  8  2  0  0  0  0
  7  9  1  0  0  0  0
  9 10  1  0  0  0  0
  9 11  1  0  0  0  0
  9 33  1  0  0  0  0
 10 34  1  0  0  0  0
 10 35  1  0  0  0  0
 10 36  1  0  0  0  0
 11 15  1  0  0  0  0
 11 12  1  0  0  0  0
 12 13  2  0  0  0  0
 12 37  1  0  0  0  0
 13 14  1  0  0  0  0
 14 15  2  0  0  0  0
 14 38  1  0  0  0  0
 16 21  1  0  0  0  0
 16 17  1  0  0  0  0
 16 47  1  0  0  0  0
 17 18  1  0  0  0  0
 17 39  1  0  0  0  0
 17 40  1  0  0  0  0
 18 19  1  0  0  0  0
 18 41  1  0  0  0  0
 18 42  1  0  0  0  0
 19 20  1  0  0  0  0
 20 21  1  0  0  0  0
 20 43  1  0  0  0  0
 20 44  1  0  0  0  0
 21 45  1  0  0  0  0
 21 46  1  0  0  0  0
M  CHG  1  16   1
M  END
> <s_m_source_file>
AV-unprocessed.smi

> <i_m_source_file_index>
1285

> <i_lp_mmshare_version>
43012

> <i_f3d_flags>
0

> <s_epik_input>
W0NIMl0xW0NIMl1PW0NIMl1bQ0gyXU4xW0NAQF0oW0NIM10pKFtDSDJdW0NIM10pW0NIMl1bTkhdQyg9TylbQ0BIXShbQ0gzXSluMltjSF1uW2NIXW4y

> <s_epik_cmdline>
J2VwaWtfcHl0aG9uJywgJy1waCcsICc3LjAnLCAnLXRuJywgJzgnLCAnLW1hJywgJzIwMCcsICctbWV0YWxfYmluZGluZycsICctaW1hZScsICc8aW5maWxlLm1hZT4nLCAnLW9tYWUnLCAnPG91dGZpbGUubWFlPic=

> <r_lp_tautomer_probability>
1

> <r_epik_Ionization_Penalty>
0.569304

> <r_epik_Ionization_Penalty_Charging>
0.569295

> <r_epik_Ionization_Penalty_Neutral>
8.22697e-06

> <r_epik_State_Penalty>
0.581114

> <r_epik_Charging_Adjusted_Penalty>
1.15041

> <i_epik_Tot_Q>
1

> <i_epik_Tot_abs_Q>
1

> <r_epik_Metal_State_Penalty>
0.581117

> <b_epik_Metal_Only>
0

> <s_lp_Force_Field>
OPLS_2005

> <r_lp_Energy>
33.7003

> <b_lp_Chiralities_Consistent>
1

> <s_lp_Variant>
AV-unprocessed.smi:1285-5

> <Gold.Version>
5.8.1

> <Gold.Id.Protein>
6NUR|6NUR_protein|mol2

> <Gold.PLP.Fitness>
42.7588

> <Gold.PLP.PLP>
-27.5023

> <Gold.PLP.part.hbond>
-2.9749

> <Gold.PLP.part.metal>
0.0000

> <Gold.PLP.part.buried>
0.7040

> <Gold.PLP.part.nonpolar>
-24.6204

> <Gold.PLP.part.repulsive>
0.3212

> <Gold.PLP.ligand.clash>
0.0000

> <Gold.PLP.ligand.torsion>
0.6116

> <Gold.PLP.Chemscore.Hbond>
3.5120

> <Gold.PLP.Chemscore.CHOScore>
1.8842

> <Gold.PLP.Chemscore.Metal>
0.0000

> <Gold.Chemscore.Hbonds>
donor molecule, donor type, donor heavy atom, donor atom, acceptor molecule, acceptor atom, score
      L1  H     6    32       P1  7948  0.54
      L1  H    16    47       P1  7948  2.00
      P1  H  7989  7998       L1    13  1.00
      L1  C    12    37       P1  7948  1.00
      L1  C    12    37       P1  7957  0.76

> <Gold.PLP.Chemscore.Internal.Correction>
0.2911

> <Gold.Rescore>
     Score         DG    S(hbond)    S(metal)    S(lipo)     H(rot)  DE(clash)    DE(int)     intcor
     12.09     -13.46       2.76        0.00      49.68       2.76       0.51       0.86       ----

> <Gold.Chemscore.Fitness>
12.0898

> <Gold.Chemscore.DG>
-13.4553

> <Gold.Chemscore.ZeroCoef>
-5.4800

> <Gold.Chemscore.Hbond>
2.7621

> <Gold.Chemscore.Metal>
0.0000

> <Gold.Chemscore.Lipo>
49.6798

> <Gold.Chemscore.Internal_Hbond>
0.0000

> <Gold.Chemscore.DEClash>
0.5093

> <Gold.Chemscore.DEInternal>
0.8562

> <Gold.Chemscore.Rot>
2.7589

> <Gold.Chemscore.Internal.Correction>
   9.000000E+99

> <Gold.Chemscore.Hbonds>
donor molecule, donor type, donor heavy atom, donor atom, acceptor molecule, acceptor atom, score
      L1  H     6    32       P1  7948  0.54
      L1  H    16    47       P1  7948  0.98
      P1  H  7989  7998       L1    13  0.97

> <Gold.Chemscore.Hbond.Weighted>
-9.2255

> <Gold.Chemscore.Metal.Weighted>
-0.0000

> <Gold.Chemscore.Lipo.Weighted>
-5.8125

> <Gold.Chemscore.Internal_Hbond.Weighted>
0.0000

> <Gold.Chemscore.DEClash.Weighted>
0.5093

> <Gold.Chemscore.DEInternal.Weighted>
0.8562

> <Gold.Chemscore.Rot.Weighted>
7.0627

> <Gold.Chemscore.Internal.Correction.Weighted>
   9.000000E+99

> <Gold.Protein.RotatedTorsions>
[ 6907 6896 6895 6894 ] final  120.20 input  -60.11 | X-H torsion
[ 7974 7965 7964 7962 ] final  -45.11 input  175.53 | X-H torsion
[ 8008 7997 7996 7995 ] final   86.74 input   59.86 | X-H torsion
[ 10167 10162 10161 10158 ] final  136.30 input  -65.29 | X-H torsion
[ 10718 10713 10712 10709 ] final -131.44 input   66.30 | X-H torsion
[ 10763 10752 10751 10750 ] final -111.32 input  -60.55 | X-H torsion
[ 11005 11000 10999 10996 ] final -154.26 input  -57.11 | X-H torsion

> <Gold.Protein.ActiveResidues>
 VAL166  LYS551  ARG553  GLY616  TRP617  ASP618  TYR619  PRO620  LYS621  CYS622 
 ASP623  PHE694  ASN695  SER759  ASP760  ASP761  ALA762  ILE779  LEU786  VAL792 
 PHE793  MET794  SER795  GLU796  ALA797  LYS798  CYS799  TRP800  GLU811  SER814 

> <Gold.Protein.RotatedAtoms>
  152.4416  133.7458  159.6666 H   0  0  0  0  0  0  0  0  0  0  0  0  # atno 6907 bound_to 6896
  150.8308  133.8084  159.3105 H   0  0  0  0  0  0  0  0  0  0  0  0  # atno 6908 bound_to 6896
  151.5739  135.1064  160.0053 H   0  0  0  0  0  0  0  0  0  0  0  0  # atno 6909 bound_to 6896
  145.9854  140.7239  142.9343 H   0  0  0  0  0  0  0  0  0  0  0  0  # atno 7974 bound_to 7965
  155.9665  140.3389  155.6537 H   0  0  0  0  0  0  0  0  0  0  0  0  # atno 8008 bound_to 7997
  155.6730  140.0729  157.2531 H   0  0  0  0  0  0  0  0  0  0  0  0  # atno 8009 bound_to 7997
  154.4156  140.1688  156.1887 H   0  0  0  0  0  0  0  0  0  0  0  0  # atno 8010 bound_to 7997
  139.5185  144.6472  151.5406 H   0  0  0  0  0  0  0  0  0  0  0  0  # atno 10167 bound_to 10162
  156.2244  130.6999  151.0791 H   0  0  0  0  0  0  0  0  0  0  0  0  # atno 10718 bound_to 10713
  154.8294  135.4532  154.1021 H   0  0  0  0  0  0  0  0  0  0  0  0  # atno 10763 bound_to 10752
  153.2307  135.6905  153.7900 H   0  0  0  0  0  0  0  0  0  0  0  0  # atno 10764 bound_to 10752
  153.7283  135.3331  155.3257 H   0  0  0  0  0  0  0  0  0  0  0  0  # atno 10765 bound_to 10752
  140.6992  134.3956  157.5211 H   0  0  0  0  0  0  0  0  0  0  0  0  # atno 11005 bound_to 11000
  144.6873  140.2979  143.7268 LP  0  0  0  0  0  0  0  0  0  0  0  0  # atno 17320 bound_to 7965
  145.7709  139.1857  143.2213 LP  0  0  0  0  0  0  0  0  0  0  0  0  # atno 17321 bound_to 7965
  140.6262  143.9165  150.6566 LP  0  0  0  0  0  0  0  0  0  0  0  0  # atno 17342 bound_to 10162
  140.2454  143.3632  152.1451 LP  0  0  0  0  0  0  0  0  0  0  0  0  # atno 17343 bound_to 10162
  157.7103  131.0737  150.6523 LP  0  0  0  0  0  0  0  0  0  0  0  0  # atno 17370 bound_to 10713
  156.6587  130.4506  149.5695 LP  0  0  0  0  0  0  0  0  0  0  0  0  # atno 17371 bound_to 10713
  139.8901  134.8812  156.2385 LP  0  0  0  0  0  0  0  0  0  0  0  0  # atno 17394 bound_to 11000
  141.0177  133.7059  156.1216 LP  0  0  0  0  0  0  0  0  0  0  0  0  # atno 17395 bound_to 11000

$$$$
