AV-unprocessed.smi:1496|AV-procd|sdf|6057|dock1
  -GOLD-   22720 6173D 1   1.00000     0.00000
 Structure written by MMmdl.
 43 44  0  0  0  0  0  0  0  0  2 V2000
  149.3775  135.9903  157.2153 C   0  0  0  0  0  0  0  0  0  0  0  0
  149.5742  136.4219  155.7532 C   0  0  0  0  0  0  0  0  0  0  0  0
  149.4269  135.1871  154.8381 C   0  0  0  0  0  0  0  0  0  0  0  0
  148.5595  137.5330  155.3937 C   0  0  0  0  0  0  0  0  0  0  0  0
  148.8851  138.1729  154.0965 N   0  3  1  0  0  0  0  0  0  0  0  0
  147.8807  139.1912  153.7008 C   0  0  0  0  0  0  0  0  0  0  0  0
  146.5676  138.5580  153.2022 C   0  0  0  0  0  0  0  0  0  0  0  0
  146.7915  137.2254  152.6536 N   0  0  0  0  0  0  0  0  0  0  0  0
  145.8209  136.3735  152.2936 C   0  0  0  0  0  0  0  0  0  0  0  0
  144.6223  136.6357  152.3921 O   0  0  0  0  0  0  0  0  0  0  0  0
  146.3314  135.2290  151.8078 N   0  0  0  0  0  0  0  0  0  0  0  0
  145.6383  134.0816  151.3356 C   0  0  0  0  0  0  0  0  0  0  0  0
  144.2281  133.9762  151.2604 C   0  0  0  0  0  0  0  0  0  0  0  0
  143.6601  132.7755  150.7924 C   0  0  0  0  0  0  0  0  0  0  0  0
  144.5202  131.7233  150.4231 C   0  0  0  0  0  0  0  0  0  0  0  0
  145.8650  131.8049  150.5020 N   0  0  0  0  0  0  0  0  0  0  0  0
  146.4024  132.9585  150.9528 C   0  0  0  0  0  0  0  0  0  0  0  0
  150.2737  138.6909  154.1174 C   0  0  0  0  0  0  0  0  0  0  0  0
  151.2576  137.5619  154.4548 C   0  0  0  0  0  0  0  0  0  0  0  0
  150.9003  136.9539  155.6924 O   0  0  0  0  0  0  0  0  0  0  0  0
  148.3820  135.5757  157.3767 H   0  0  0  0  0  0  0  0  0  0  0  0
  149.4993  136.8328  157.8971 H   0  0  0  0  0  0  0  0  0  0  0  0
  150.1038  135.2294  157.5034 H   0  0  0  0  0  0  0  0  0  0  0  0
  148.4515  134.7183  154.9708 H   0  0  0  0  0  0  0  0  0  0  0  0
  150.1848  134.4368  155.0658 H   0  0  0  0  0  0  0  0  0  0  0  0
  149.5163  135.4364  153.7811 H   0  0  0  0  0  0  0  0  0  0  0  0
  147.5520  137.1153  155.3607 H   0  0  0  0  0  0  0  0  0  0  0  0
  148.5543  138.3025  156.1677 H   0  0  0  0  0  0  0  0  0  0  0  0
  147.6460  139.8165  154.5636 H   0  0  0  0  0  0  0  0  0  0  0  0
  148.3108  139.8544  152.9487 H   0  0  0  0  0  0  0  0  0  0  0  0
  145.8253  138.4948  153.9983 H   0  0  0  0  0  0  0  0  0  0  0  0
  146.1303  139.1784  152.4194 H   0  0  0  0  0  0  0  0  0  0  0  0
  147.7511  136.9339  152.5346 H   0  0  0  0  0  0  0  0  0  0  0  0
  147.3361  135.1948  151.7134 H   0  0  0  0  0  0  0  0  0  0  0  0
  143.5744  134.7790  151.5637 H   0  0  0  0  0  0  0  0  0  0  0  0
  142.5883  132.6625  150.7222 H   0  0  0  0  0  0  0  0  0  0  0  0
  144.1169  130.7895  150.0601 H   0  0  0  0  0  0  0  0  0  0  0  0
  147.4810  132.9868  151.0050 H   0  0  0  0  0  0  0  0  0  0  0  0
  150.5401  139.1205  153.1526 H   0  0  0  0  0  0  0  0  0  0  0  0
  150.3565  139.4903  154.8556 H   0  0  0  0  0  0  0  0  0  0  0  0
  151.2953  136.8225  153.6549 H   0  0  0  0  0  0  0  0  0  0  0  0
  152.2662  137.9652  154.5466 H   0  0  0  0  0  0  0  0  0  0  0  0
  148.8475  137.4411  153.4012 H   0  0  0  0  0  0  0  0  0  0  0  0
  1  2  1  0  0  0  0
  1 21  1  0  0  0  0
  1 22  1  0  0  0  0
  1 23  1  0  0  0  0
  2 20  1  0  0  0  0
  2  3  1  0  0  0  0
  2  4  1  0  0  0  0
  3 24  1  0  0  0  0
  3 25  1  0  0  0  0
  3 26  1  0  0  0  0
  4  5  1  0  0  0  0
  4 27  1  0  0  0  0
  4 28  1  0  0  0  0
  5  6  1  0  0  0  0
  5 18  1  0  0  0  0
  5 43  1  0  0  0  0
  6  7  1  0  0  0  0
  6 29  1  0  0  0  0
  6 30  1  0  0  0  0
  7  8  1  0  0  0  0
  7 31  1  0  0  0  0
  7 32  1  0  0  0  0
  8  9  1  0  0  0  0
  8 33  1  0  0  0  0
  9 10  2  0  0  0  0
  9 11  1  0  0  0  0
 11 12  1  0  0  0  0
 11 34  1  0  0  0  0
 12 17  1  0  0  0  0
 12 13  2  0  0  0  0
 13 14  1  0  0  0  0
 13 35  1  0  0  0  0
 14 15  2  0  0  0  0
 14 36  1  0  0  0  0
 15 16  1  0  0  0  0
 15 37  1  0  0  0  0
 16 17  2  0  0  0  0
 17 38  1  0  0  0  0
 18 19  1  0  0  0  0
 18 39  1  0  0  0  0
 18 40  1  0  0  0  0
 19 20  1  0  0  0  0
 19 41  1  0  0  0  0
 19 42  1  0  0  0  0
M  CHG  1   5   1
M  END
> <s_m_source_file>
AV-unprocessed.smi

> <i_m_source_file_index>
1496

> <i_lp_mmshare_version>
43012

> <i_f3d_flags>
0

> <s_epik_input>
W0NIM11DMShbQ0gzXSlbQ0gyXU4oW0NIMl1bQ0gyXU8xKVtDSDJdW0NIMl1bTkhdQyg9TylbTkhdYzJbY0hdW2NIXVtjSF1uW2NIXTI=

> <s_epik_cmdline>
J2VwaWtfcHl0aG9uJywgJy1waCcsICc3LjAnLCAnLXRuJywgJzgnLCAnLW1hJywgJzIwMCcsICctbWV0YWxfYmluZGluZycsICctaW1hZScsICc8aW5maWxlLm1hZT4nLCAnLW9tYWUnLCAnPG91dGZpbGUubWFlPic=

> <r_epik_Ionization_Penalty>
0.606681

> <r_epik_Ionization_Penalty_Charging>
0.602531

> <r_epik_Ionization_Penalty_Neutral>
0.00415082

> <r_epik_State_Penalty>
0.607427

> <r_epik_Charging_Adjusted_Penalty>
1.20996

> <i_epik_Tot_Q>
1

> <i_epik_Tot_abs_Q>
1

> <r_epik_Metal_State_Penalty>
0.604583

> <b_epik_Metal_Only>
0

> <s_lp_Force_Field>
OPLS_2005

> <r_lp_Energy>
21.2927

> <b_lp_Chiralities_Consistent>
1

> <s_lp_Variant>
AV-unprocessed.smi:1496-3

> <Gold.Version>
5.8.1

> <Gold.Id.Protein>
6NUR|6NUR_protein|mol2

> <Gold.PLP.Fitness>
43.1310

> <Gold.PLP.PLP>
-30.7273

> <Gold.PLP.part.hbond>
-2.8707

> <Gold.PLP.part.metal>
0.0000

> <Gold.PLP.part.buried>
-3.8898

> <Gold.PLP.part.nonpolar>
-24.9536

> <Gold.PLP.part.repulsive>
0.5191

> <Gold.PLP.ligand.clash>
0.0000

> <Gold.PLP.ligand.torsion>
0.4074

> <Gold.PLP.Chemscore.Hbond>
3.9193

> <Gold.PLP.Chemscore.CHOScore>
0.4769

> <Gold.PLP.Chemscore.Metal>
0.0000

> <Gold.Chemscore.Hbonds>
donor molecule, donor type, donor heavy atom, donor atom, acceptor molecule, acceptor atom, score
      L1  H     5    43       P1  7948  2.00
      L1  H     8    33       P1  7948  1.00
      L1  H    11    34       P1  7948  0.91
      L1  C    17    38       P1 10747  0.49

> <Gold.PLP.Chemscore.Internal.Correction>
0.0301

> <Gold.Rescore>
     Score         DG    S(hbond)    S(metal)    S(lipo)     H(rot)  DE(clash)    DE(int)     intcor
     18.52     -20.32       2.85        0.00      78.37       1.50       0.17       1.62       ----

> <Gold.Chemscore.Fitness>
18.5224

> <Gold.Chemscore.DG>
-20.3199

> <Gold.Chemscore.ZeroCoef>
-5.4800

> <Gold.Chemscore.Hbond>
2.8483

> <Gold.Chemscore.Metal>
0.0000

> <Gold.Chemscore.Lipo>
78.3696

> <Gold.Chemscore.Internal_Hbond>
0.0000

> <Gold.Chemscore.DEClash>
0.1728

> <Gold.Chemscore.DEInternal>
1.6248

> <Gold.Chemscore.Rot>
1.5010

> <Gold.Chemscore.Internal.Correction>
   9.000000E+99

> <Gold.Chemscore.Hbonds>
donor molecule, donor type, donor heavy atom, donor atom, acceptor molecule, acceptor atom, score
      L1  H     5    43       P1  7948  0.99
      L1  H     8    33       P1  7948  0.93
      L1  H    11    34       P1  7948  0.83

> <Gold.Chemscore.Hbond.Weighted>
-9.5133

> <Gold.Chemscore.Metal.Weighted>
-0.0000

> <Gold.Chemscore.Lipo.Weighted>
-9.1692

> <Gold.Chemscore.Internal_Hbond.Weighted>
0.0000

> <Gold.Chemscore.DEClash.Weighted>
0.1728

> <Gold.Chemscore.DEInternal.Weighted>
1.6248

> <Gold.Chemscore.Rot.Weighted>
3.8426

> <Gold.Chemscore.Internal.Correction.Weighted>
   9.000000E+99

> <Gold.Protein.RotatedTorsions>
[ 6907 6896 6895 6894 ] final   60.19 input  -60.11 | X-H torsion
[ 7974 7965 7964 7962 ] final  -23.27 input  175.53 | X-H torsion
[ 8008 7997 7996 7995 ] final    7.60 input   59.86 | X-H torsion
[ 10167 10162 10161 10158 ] final  114.55 input  -65.29 | X-H torsion
[ 10718 10713 10712 10709 ] final -152.61 input   66.30 | X-H torsion
[ 10763 10752 10751 10750 ] final -163.50 input  -60.55 | X-H torsion
[ 11005 11000 10999 10996 ] final  -82.48 input  -57.11 | X-H torsion

> <Gold.Protein.ActiveResidues>
 VAL166  LYS551  ARG553  GLY616  TRP617  ASP618  TYR619  PRO620  LYS621  CYS622 
 ASP623  PHE694  ASN695  SER759  ASP760  ASP761  ALA762  ILE779  LEU786  VAL792 
 PHE793  MET794  SER795  GLU796  ALA797  LYS798  CYS799  TRP800  GLU811  SER814 

> <Gold.Protein.RotatedAtoms>
  152.3981  134.6331  160.0080 H   0  0  0  0  0  0  0  0  0  0  0  0  # atno 6907 bound_to 6896
  151.6545  133.3314  159.3167 H   0  0  0  0  0  0  0  0  0  0  0  0  # atno 6908 bound_to 6896
  150.7885  134.6933  159.6554 H   0  0  0  0  0  0  0  0  0  0  0  0  # atno 6909 bound_to 6896
  146.1626  140.4593  142.8565 H   0  0  0  0  0  0  0  0  0  0  0  0  # atno 7974 bound_to 7965
  154.7559  140.2775  155.6254 H   0  0  0  0  0  0  0  0  0  0  0  0  # atno 8008 bound_to 7997
  156.2905  140.2669  156.2251 H   0  0  0  0  0  0  0  0  0  0  0  0  # atno 8009 bound_to 7997
  155.0078  140.0372  157.2377 H   0  0  0  0  0  0  0  0  0  0  0  0  # atno 8010 bound_to 7997
  139.6380  144.7121  151.2295 H   0  0  0  0  0  0  0  0  0  0  0  0  # atno 10167 bound_to 10162
  156.4748  130.8275  151.2504 H   0  0  0  0  0  0  0  0  0  0  0  0  # atno 10718 bound_to 10713
  154.7116  135.3007  154.9187 H   0  0  0  0  0  0  0  0  0  0  0  0  # atno 10763 bound_to 10752
  154.0087  135.6697  153.4768 H   0  0  0  0  0  0  0  0  0  0  0  0  # atno 10764 bound_to 10752
  153.0760  135.5034  154.8319 H   0  0  0  0  0  0  0  0  0  0  0  0  # atno 10765 bound_to 10752
  141.1663  133.7247  156.8579 H   0  0  0  0  0  0  0  0  0  0  0  0  # atno 11005 bound_to 11000
  144.8048  140.6279  143.6454 LP  0  0  0  0  0  0  0  0  0  0  0  0  # atno 17320 bound_to 7965
  145.4549  139.1519  143.3898 LP  0  0  0  0  0  0  0  0  0  0  0  0  # atno 17321 bound_to 7965
  140.7476  143.6362  150.8377 LP  0  0  0  0  0  0  0  0  0  0  0  0  # atno 17342 bound_to 10162
  139.9995  143.5759  152.2880 LP  0  0  0  0  0  0  0  0  0  0  0  0  # atno 17343 bound_to 10162
  157.7488  131.0064  150.3151 LP  0  0  0  0  0  0  0  0  0  0  0  0  # atno 17370 bound_to 10713
  156.3581  130.3842  149.7274 LP  0  0  0  0  0  0  0  0  0  0  0  0  # atno 17371 bound_to 10713
  140.1870  134.8993  157.3015 LP  0  0  0  0  0  0  0  0  0  0  0  0  # atno 17394 bound_to 11000
  140.2332  134.3884  155.7512 LP  0  0  0  0  0  0  0  0  0  0  0  0  # atno 17395 bound_to 11000

$$$$
