AV-unprocessed.smi:729|AV-procd|sdf|3521|dock1
  -GOLD-   22720 0513D 1   1.00000     0.00000
 Structure written by MMmdl.
 21 21  0  0  0  0  0  0  0  0  2 V2000
  153.1945  140.4970  159.6130 C   0  0  0  0  0  0  0  0  0  0  0  0
  152.4848  141.7122  159.0304 C   0  0  0  0  0  0  0  0  0  0  0  0
  152.7179  142.9364  159.5582 C   0  0  0  0  0  0  0  0  0  0  0  0
  152.0457  144.1319  159.0209 C   0  0  0  0  0  0  0  0  0  0  0  0
  152.2442  145.2548  159.4808 O   0  0  0  0  0  0  0  0  0  0  0  0
  151.1244  143.8996  157.8998 C   0  0  0  0  0  0  0  0  0  0  0  0
  150.9573  142.6452  157.4387 C   0  0  0  0  0  0  0  0  0  0  0  0
  150.1285  142.3837  156.4167 O   0  0  0  0  0  0  0  0  0  0  0  0
  151.6028  141.5012  157.9476 N   0  0  0  0  0  0  0  0  0  0  0  0
  151.3409  140.1566  157.4069 C   0  0  0  0  0  0  0  0  0  0  0  0
  151.8405  139.9250  155.9771 C   0  0  0  0  0  0  0  0  0  0  0  0
  153.0244  139.5451  155.8431 O   0  0  0  0  0  0  0  0  0  0  0  0
  151.0381  140.1397  155.0421 O   0  5  0  0  0  0  0  0  0  0  0  0
  153.7266  140.7557  160.5289 H   0  0  0  0  0  0  0  0  0  0  0  0
  153.9269  140.1052  158.9071 H   0  0  0  0  0  0  0  0  0  0  0  0
  152.4902  139.7060  159.8685 H   0  0  0  0  0  0  0  0  0  0  0  0
  153.3994  143.0672  160.3862 H   0  0  0  0  0  0  0  0  0  0  0  0
  150.6005  144.7400  157.4685 H   0  0  0  0  0  0  0  0  0  0  0  0
  151.7829  139.3924  158.0460 H   0  0  0  0  0  0  0  0  0  0  0  0
  150.2749  139.9363  157.4465 H   0  0  0  0  0  0  0  0  0  0  0  0
  149.9338  143.2040  155.9906 H   0  0  0  0  0  0  0  0  0  0  0  0
  1  2  1  0  0  0  0
  1 14  1  0  0  0  0
  1 15  1  0  0  0  0
  1 16  1  0  0  0  0
  2  9  1  0  0  0  0
  2  3  2  0  0  0  0
  3  4  1  0  0  0  0
  3 17  1  0  0  0  0
  4  5  2  0  0  0  0
  4  6  1  0  0  0  0
  6  7  2  0  0  0  0
  6 18  1  0  0  0  0
  7  8  1  0  0  0  0
  7  9  1  0  0  0  0
  8 21  1  0  0  0  0
  9 10  1  0  0  0  0
 10 11  1  0  0  0  0
 10 19  1  0  0  0  0
 10 20  1  0  0  0  0
 11 12  2  0  0  0  0
 11 13  1  0  0  0  0
M  CHG  1  13  -1
M  END
> <s_m_source_file>
AV-unprocessed.smi

> <i_m_source_file_index>
729

> <i_lp_mmshare_version>
43012

> <i_f3d_flags>
0

> <s_epik_input>
W0NIM11jMVtjSF1jKFtPSF0pW2NIXWMoPU8pbjFbQ0gyXUMoPU8pW09IXQ==

> <s_epik_cmdline>
J2VwaWtfcHl0aG9uJywgJy1waCcsICc3LjAnLCAnLXRuJywgJzgnLCAnLW1hJywgJzIwMCcsICctbWV0YWxfYmluZGluZycsICctaW1hZScsICc8aW5maWxlLm1hZT4nLCAnLW9tYWUnLCAnPG91dGZpbGUubWFlPic=

> <r_epik_Ionization_Penalty>
0.00133656

> <r_epik_Ionization_Penalty_Charging>
0.00133656

> <r_epik_Ionization_Penalty_Neutral>
0

> <r_epik_State_Penalty>
1.59842

> <r_epik_Charging_Adjusted_Penalty>
1.59975

> <i_epik_Tot_Q>
-1

> <i_epik_Tot_abs_Q>
1

> <r_epik_Metal_State_Penalty>
1.59842

> <b_epik_Metal_Only>
0

> <s_lp_Force_Field>
OPLS_2005

> <r_lp_Energy>
2.46832

> <b_lp_Chiralities_Consistent>
1

> <s_lp_Variant>
AV-unprocessed.smi:729-3

> <Gold.Version>
5.8.1

> <Gold.Id.Protein>
6NUR|6NUR_protein|mol2

> <Gold.PLP.Fitness>
40.7157

> <Gold.PLP.PLP>
-29.5441

> <Gold.PLP.part.hbond>
-2.9728

> <Gold.PLP.part.metal>
0.0000

> <Gold.PLP.part.buried>
-3.7688

> <Gold.PLP.part.nonpolar>
-23.2159

> <Gold.PLP.part.repulsive>
0.1216

> <Gold.PLP.ligand.clash>
0.0000

> <Gold.PLP.ligand.torsion>
0.4155

> <Gold.PLP.Chemscore.Hbond>
4.0000

> <Gold.PLP.Chemscore.CHOScore>
0.0000

> <Gold.PLP.Chemscore.Metal>
0.0000

> <Gold.Chemscore.Hbonds>
donor molecule, donor type, donor heavy atom, donor atom, acceptor molecule, acceptor atom, score
      L1  H     8    21       P1  8028  1.00
      P1  H  7989  7998       L1    13  1.00
      P1  H  7997  8008       L1    12  1.92

> <Gold.PLP.Chemscore.Internal.Correction>
0.0028

> <Gold.Rescore>
     Score         DG    S(hbond)    S(metal)    S(lipo)     H(rot)  DE(clash)    DE(int)     intcor
     14.47     -15.13       2.99        0.00      45.15       2.20       0.00       0.66       ----

> <Gold.Chemscore.Fitness>
14.4671

> <Gold.Chemscore.DG>
-15.1273

> <Gold.Chemscore.ZeroCoef>
-5.4800

> <Gold.Chemscore.Hbond>
2.9935

> <Gold.Chemscore.Metal>
0.0000

> <Gold.Chemscore.Lipo>
45.1487

> <Gold.Chemscore.Internal_Hbond>
0.0000

> <Gold.Chemscore.DEClash>
0.0038

> <Gold.Chemscore.DEInternal>
0.6564

> <Gold.Chemscore.Rot>
2.2006

> <Gold.Chemscore.Internal.Correction>
   9.000000E+99

> <Gold.Chemscore.Hbonds>
donor molecule, donor type, donor heavy atom, donor atom, acceptor molecule, acceptor atom, score
      L1  H     8    21       P1  8028  0.98
      P1  H  7989  7998       L1    13  0.96
      P1  H  7997  8008       L1    12  0.91

> <Gold.Chemscore.Hbond.Weighted>
-9.9984

> <Gold.Chemscore.Metal.Weighted>
-0.0000

> <Gold.Chemscore.Lipo.Weighted>
-5.2824

> <Gold.Chemscore.Internal_Hbond.Weighted>
0.0000

> <Gold.Chemscore.DEClash.Weighted>
0.0038

> <Gold.Chemscore.DEInternal.Weighted>
0.6564

> <Gold.Chemscore.Rot.Weighted>
5.6335

> <Gold.Chemscore.Internal.Correction.Weighted>
   9.000000E+99

> <Gold.Protein.RotatedTorsions>
[ 6907 6896 6895 6894 ] final  -91.37 input  -60.11 | X-H torsion
[ 7974 7965 7964 7962 ] final  -82.78 input  175.53 | X-H torsion
[ 8008 7997 7996 7995 ] final  -23.80 input   59.86 | X-H torsion
[ 10167 10162 10161 10158 ] final  -12.07 input  -65.29 | X-H torsion
[ 10718 10713 10712 10709 ] final  -44.58 input   66.30 | X-H torsion
[ 10763 10752 10751 10750 ] final  152.36 input  -60.55 | X-H torsion
[ 11005 11000 10999 10996 ] final  -54.09 input  -57.11 | X-H torsion

> <Gold.Protein.ActiveResidues>
 VAL166  LYS551  ARG553  GLY616  TRP617  ASP618  TYR619  PRO620  LYS621  CYS622 
 ASP623  PHE694  ASN695  SER759  ASP760  ASP761  ALA762  ILE779  LEU786  VAL792 
 PHE793  MET794  SER795  GLU796  ALA797  LYS798  CYS799  TRP800  GLU811  SER814 

> <Gold.Protein.RotatedAtoms>
  150.6892  134.2288  159.4425 H   0  0  0  0  0  0  0  0  0  0  0  0  # atno 6907 bound_to 6896
  152.0240  134.9804  160.0580 H   0  0  0  0  0  0  0  0  0  0  0  0  # atno 6908 bound_to 6896
  152.1370  133.4406  159.4785 H   0  0  0  0  0  0  0  0  0  0  0  0  # atno 6909 bound_to 6896
  145.5287  140.9523  143.1615 H   0  0  0  0  0  0  0  0  0  0  0  0  # atno 7974 bound_to 7965
  154.4565  140.1971  156.0366 H   0  0  0  0  0  0  0  0  0  0  0  0  # atno 8008 bound_to 7997
  156.0755  140.3278  155.7601 H   0  0  0  0  0  0  0  0  0  0  0  0  # atno 8009 bound_to 7997
  155.5195  140.0568  157.2900 H   0  0  0  0  0  0  0  0  0  0  0  0  # atno 8010 bound_to 7997
  140.7153  143.5571  150.9236 H   0  0  0  0  0  0  0  0  0  0  0  0  # atno 10167 bound_to 10162
  156.2371  130.4177  149.8805 H   0  0  0  0  0  0  0  0  0  0  0  0  # atno 10718 bound_to 10713
  154.1188  135.2834  155.3213 H   0  0  0  0  0  0  0  0  0  0  0  0  # atno 10763 bound_to 10752
  154.6438  135.5393  153.7823 H   0  0  0  0  0  0  0  0  0  0  0  0  # atno 10764 bound_to 10752
  153.0320  135.6493  154.1343 H   0  0  0  0  0  0  0  0  0  0  0  0  # atno 10765 bound_to 10752
  141.1008  133.6618  156.4268 H   0  0  0  0  0  0  0  0  0  0  0  0  # atno 11005 bound_to 11000
  144.7637  139.6895  143.7223 LP  0  0  0  0  0  0  0  0  0  0  0  0  # atno 17320 bound_to 7965
  146.2058  139.5382  142.9713 LP  0  0  0  0  0  0  0  0  0  0  0  0  # atno 17321 bound_to 7965
  139.9296  143.6508  152.3079 LP  0  0  0  0  0  0  0  0  0  0  0  0  # atno 17342 bound_to 10162
  139.6955  144.7642  151.1365 LP  0  0  0  0  0  0  0  0  0  0  0  0  # atno 17343 bound_to 10162
  156.6400  130.8701  151.3512 LP  0  0  0  0  0  0  0  0  0  0  0  0  # atno 17370 bound_to 10713
  157.7159  130.9496  150.1253 LP  0  0  0  0  0  0  0  0  0  0  0  0  # atno 17371 bound_to 10713
  140.5026  134.6471  157.5254 LP  0  0  0  0  0  0  0  0  0  0  0  0  # atno 17394 bound_to 11000
  139.9859  134.7062  155.9774 LP  0  0  0  0  0  0  0  0  0  0  0  0  # atno 17395 bound_to 11000

$$$$
