AV-unprocessed.smi:3284|AV-procd|sdf|12578|dock8
  -GOLD-   2272018503D 1   1.00000     0.00000
 Structure written by MMmdl.
 45 46  0  0  0  0  0  0  0  0  3 V2000
  151.5588  137.8142  153.8942 C   0  0  0  0  0  0  0  0  0  0  0  0
  151.0359  138.9344  154.7782 C   0  0  0  0  0  0  0  0  0  0  0  0
  151.7050  139.2707  155.8975 C   0  0  0  0  0  0  0  0  0  0  0  0
  151.3202  140.4126  156.8093 C   0  0  0  0  0  0  0  0  0  0  0  0
  150.4407  141.4270  156.0747 C   0  0  0  0  0  0  0  0  0  0  0  0
  149.2705  140.7371  155.3547 C   0  0  1  0  0  0  0  0  0  0  0  0
  148.3682  141.8043  154.7056 C   0  0  0  0  0  0  0  0  0  0  0  0
  149.7506  139.6616  154.3314 C   0  0  2  0  0  0  0  0  0  0  0  0
  148.5916  138.6815  154.0097 C   0  0  0  0  0  0  0  0  0  0  0  0
  148.1963  138.7047  152.5862 N   0  3  0  0  0  0  0  0  0  0  0  0
  146.7399  138.8006  152.3668 C   0  0  0  0  0  0  0  0  0  0  0  0
  146.0077  137.5997  152.9814 C   0  0  0  0  0  0  0  0  0  0  0  0
  145.4652  136.6584  151.9498 C   0  0  0  0  0  0  0  0  0  0  0  0
  146.1967  135.9251  151.1017 N   0  3  0  0  0  0  0  0  0  0  0  0
  145.3834  135.1864  150.2855 C   0  0  0  0  0  0  0  0  0  0  0  0
  144.0963  135.4852  150.6483 C   0  0  0  0  0  0  0  0  0  0  0  0
  144.1773  136.3947  151.6717 N   0  0  0  0  0  0  0  0  0  0  0  0
  143.0537  137.0069  152.3843 C   0  0  0  0  0  0  0  0  0  0  0  0
  151.6258  138.1442  152.8573 H   0  0  0  0  0  0  0  0  0  0  0  0
  150.9117  136.9392  153.9489 H   0  0  0  0  0  0  0  0  0  0  0  0
  152.5559  137.4989  154.2038 H   0  0  0  0  0  0  0  0  0  0  0  0
  152.5879  138.7180  156.1849 H   0  0  0  0  0  0  0  0  0  0  0  0
  150.8034  140.0073  157.6799 H   0  0  0  0  0  0  0  0  0  0  0  0
  152.2244  140.9025  157.1712 H   0  0  0  0  0  0  0  0  0  0  0  0
  150.0698  142.1658  156.7863 H   0  0  0  0  0  0  0  0  0  0  0  0
  151.0446  141.9742  155.3490 H   0  0  0  0  0  0  0  0  0  0  0  0
  148.6840  140.2323  156.1244 H   0  0  0  0  0  0  0  0  0  0  0  0
  148.8978  142.3443  153.9200 H   0  0  0  0  0  0  0  0  0  0  0  0
  148.0412  142.5385  155.4427 H   0  0  0  0  0  0  0  0  0  0  0  0
  147.4688  141.3776  154.2643 H   0  0  0  0  0  0  0  0  0  0  0  0
  150.0198  140.1880  153.4142 H   0  0  0  0  0  0  0  0  0  0  0  0
  148.8806  137.6691  154.2961 H   0  0  0  0  0  0  0  0  0  0  0  0
  147.7009  138.9192  154.5894 H   0  0  0  0  0  0  0  0  0  0  0  0
  148.6491  139.4905  152.1411 H   0  0  0  0  0  0  0  0  0  0  0  0
  146.3752  139.7286  152.8091 H   0  0  0  0  0  0  0  0  0  0  0  0
  146.5389  138.8526  151.2958 H   0  0  0  0  0  0  0  0  0  0  0  0
  146.6791  137.0210  153.6174 H   0  0  0  0  0  0  0  0  0  0  0  0
  145.1730  137.9226  153.6045 H   0  0  0  0  0  0  0  0  0  0  0  0
  145.7711  134.5210  149.5274 H   0  0  0  0  0  0  0  0  0  0  0  0
  143.1527  135.1262  150.2626 H   0  0  0  0  0  0  0  0  0  0  0  0
  142.1171  136.7212  151.9042 H   0  0  0  0  0  0  0  0  0  0  0  0
  143.1528  138.0923  152.3596 H   0  0  0  0  0  0  0  0  0  0  0  0
  143.0501  136.6581  153.4174 H   0  0  0  0  0  0  0  0  0  0  0  0
  148.5291  137.8541  152.1543 H   0  0  0  0  0  0  0  0  0  0  0  0
  147.2086  135.9147  151.0711 H   0  0  0  0  0  0  0  0  0  0  0  0
  1  2  1  0  0  0  0
  1 19  1  0  0  0  0
  1 20  1  0  0  0  0
  1 21  1  0  0  0  0
  2  8  1  0  0  0  0
  2  3  2  0  0  0  0
  3  4  1  0  0  0  0
  3 22  1  0  0  0  0
  4  5  1  0  0  0  0
  4 23  1  0  0  0  0
  4 24  1  0  0  0  0
  5  6  1  0  0  0  0
  5 25  1  0  0  0  0
  5 26  1  0  0  0  0
  6  7  1  0  0  0  0
  6  8  1  0  0  0  0
  6 27  1  0  0  0  0
  7 28  1  0  0  0  0
  7 29  1  0  0  0  0
  7 30  1  0  0  0  0
  8  9  1  0  0  0  0
  8 31  1  0  0  0  0
  9 10  1  0  0  0  0
  9 32  1  0  0  0  0
  9 33  1  0  0  0  0
 10 11  1  0  0  0  0
 10 34  1  0  0  0  0
 10 44  1  0  0  0  0
 11 12  1  0  0  0  0
 11 35  1  0  0  0  0
 11 36  1  0  0  0  0
 12 13  1  0  0  0  0
 12 37  1  0  0  0  0
 12 38  1  0  0  0  0
 13 17  1  0  0  0  0
 13 14  2  0  0  0  0
 14 15  1  0  0  0  0
 14 45  1  0  0  0  0
 15 16  2  0  0  0  0
 15 39  1  0  0  0  0
 16 17  1  0  0  0  0
 16 40  1  0  0  0  0
 17 18  1  0  0  0  0
 18 41  1  0  0  0  0
 18 42  1  0  0  0  0
 18 43  1  0  0  0  0
M  CHG  1  10   1
M  CHG  1  14   1
M  END
> <s_m_source_file>
AV-unprocessed.smi

> <i_m_source_file_index>
3284

> <i_lp_mmshare_version>
43012

> <i_f3d_flags>
0

> <s_epik_input>
W0NIM11DMT1bQ0hdW0NIMl1bQ0gyXVtDQEBIXShbQ0gzXSlbQ0BIXTFbQ0gyXVtOSF1bQ0gyXVtDSDJdYzJuW2NIXVtjSF1uMltDSDNd

> <s_epik_cmdline>
J2VwaWtfcHl0aG9uJywgJy1waCcsICc3LjAnLCAnLXRuJywgJzgnLCAnLW1hJywgJzIwMCcsICctbWV0YWxfYmluZGluZycsICctaW1hZScsICc8aW5maWxlLm1hZT4nLCAnLW9tYWUnLCAnPG91dGZpbGUubWFlPic=

> <r_lp_tautomer_probability>
1

> <r_epik_Ionization_Penalty>
0.892846

> <r_epik_Ionization_Penalty_Charging>
0.00275802

> <r_epik_Ionization_Penalty_Neutral>
0.890088

> <r_epik_State_Penalty>
0.485211

> <r_epik_Charging_Adjusted_Penalty>
0.487969

> <i_epik_Tot_Q>
2

> <i_epik_Tot_abs_Q>
2

> <r_epik_Metal_State_Penalty>
4.22898

> <b_epik_Metal_Only>
0

> <s_lp_Force_Field>
OPLS_2005

> <r_lp_Energy>
22.9484

> <b_lp_Chiralities_Consistent>
1

> <s_lp_Variant>
AV-unprocessed.smi:3284-7

> <Gold.Version>
5.8.1

> <Gold.Id.Protein>
6NUR|6NUR_protein|mol2

> <Gold.PLP.Fitness>
55.3494

> <Gold.PLP.PLP>
-40.2353

> <Gold.PLP.part.hbond>
-2.9122

> <Gold.PLP.part.metal>
0.0000

> <Gold.PLP.part.buried>
-2.6453

> <Gold.PLP.part.nonpolar>
-35.3299

> <Gold.PLP.part.repulsive>
0.1515

> <Gold.PLP.ligand.clash>
0.0000

> <Gold.PLP.ligand.torsion>
1.4587

> <Gold.PLP.Chemscore.Hbond>
5.0000

> <Gold.PLP.Chemscore.CHOScore>
0.9864

> <Gold.PLP.Chemscore.Metal>
0.0000

> <Gold.Chemscore.Hbonds>
donor molecule, donor type, donor heavy atom, donor atom, acceptor molecule, acceptor atom, score
      L1  H    10    34       P1  7957  0.82
      L1  H    10    44       P1  7948  2.00
      L1  H    14    45       P1  7948  2.00
      L1  C    16    40       P1 10186  0.92

> <Gold.PLP.Chemscore.Internal.Correction>
0.0724

> <Gold.Rescore>
     Score         DG    S(hbond)    S(metal)    S(lipo)     H(rot)  DE(clash)    DE(int)     intcor
     19.85     -21.28       2.96        0.00      87.80       1.70       0.04       1.39       ----

> <Gold.Chemscore.Fitness>
19.8516

> <Gold.Chemscore.DG>
-21.2814

> <Gold.Chemscore.ZeroCoef>
-5.4800

> <Gold.Chemscore.Hbond>
2.9581

> <Gold.Chemscore.Metal>
0.0000

> <Gold.Chemscore.Lipo>
87.8008

> <Gold.Chemscore.Internal_Hbond>
0.0000

> <Gold.Chemscore.DEClash>
0.0412

> <Gold.Chemscore.DEInternal>
1.3886

> <Gold.Chemscore.Rot>
1.6997

> <Gold.Chemscore.Internal.Correction>
   9.000000E+99

> <Gold.Chemscore.Hbonds>
donor molecule, donor type, donor heavy atom, donor atom, acceptor molecule, acceptor atom, score
      L1  H    10    34       P1  7957  0.78
      L1  H    10    44       P1  7948  1.00
      L1  H    14    45       P1  7948  0.92

> <Gold.Chemscore.Hbond.Weighted>
-9.8800

> <Gold.Chemscore.Metal.Weighted>
-0.0000

> <Gold.Chemscore.Lipo.Weighted>
-10.2727

> <Gold.Chemscore.Internal_Hbond.Weighted>
0.0000

> <Gold.Chemscore.DEClash.Weighted>
0.0412

> <Gold.Chemscore.DEInternal.Weighted>
1.3886

> <Gold.Chemscore.Rot.Weighted>
4.3512

> <Gold.Chemscore.Internal.Correction.Weighted>
   9.000000E+99

> <Gold.Protein.RotatedTorsions>
[ 6907 6896 6895 6894 ] final -101.25 input  -60.11 | X-H torsion
[ 7974 7965 7964 7962 ] final   42.84 input  175.53 | X-H torsion
[ 8008 7997 7996 7995 ] final   30.49 input   59.86 | X-H torsion
[ 10167 10162 10161 10158 ] final -150.43 input  -65.29 | X-H torsion
[ 10718 10713 10712 10709 ] final -134.27 input   66.30 | X-H torsion
[ 10763 10752 10751 10750 ] final  -59.44 input  -60.55 | X-H torsion
[ 11005 11000 10999 10996 ] final   73.88 input  -57.11 | X-H torsion

> <Gold.Protein.ActiveResidues>
 VAL166  LYS551  ARG553  GLY616  TRP617  ASP618  TYR619  PRO620  LYS621  CYS622 
 ASP623  PHE694  ASN695  SER759  ASP760  ASP761  ALA762  ILE779  LEU786  VAL792 
 PHE793  MET794  SER795  GLU796  ALA797  LYS798  CYS799  TRP800  GLU811  SER814 

> <Gold.Protein.RotatedAtoms>
  150.7147  134.0763  159.3881 H   0  0  0  0  0  0  0  0  0  0  0  0  # atno 6907 bound_to 6896
  151.8746  135.0474  160.0492 H   0  0  0  0  0  0  0  0  0  0  0  0  # atno 6908 bound_to 6896
  152.2616  133.5267  159.5422 H   0  0  0  0  0  0  0  0  0  0  0  0  # atno 6909 bound_to 6896
  146.0706  139.5255  142.9600 H   0  0  0  0  0  0  0  0  0  0  0  0  # atno 7974 bound_to 7965
  155.0912  140.3220  155.4573 H   0  0  0  0  0  0  0  0  0  0  0  0  # atno 8008 bound_to 7997
  156.2742  140.2077  156.5986 H   0  0  0  0  0  0  0  0  0  0  0  0  # atno 8009 bound_to 7997
  154.6902  140.0517  157.0342 H   0  0  0  0  0  0  0  0  0  0  0  0  # atno 8010 bound_to 7997
  139.7355  143.8743  152.2547 H   0  0  0  0  0  0  0  0  0  0  0  0  # atno 10167 bound_to 10162
  156.2536  130.7168  151.1076 H   0  0  0  0  0  0  0  0  0  0  0  0  # atno 10718 bound_to 10713
  154.2537  135.6321  153.5249 H   0  0  0  0  0  0  0  0  0  0  0  0  # atno 10763 bound_to 10752
  152.9908  135.5571  154.5780 H   0  0  0  0  0  0  0  0  0  0  0  0  # atno 10764 bound_to 10752
  154.5313  135.2888  155.1152 H   0  0  0  0  0  0  0  0  0  0  0  0  # atno 10765 bound_to 10752
  139.9418  134.7385  156.1080 H   0  0  0  0  0  0  0  0  0  0  0  0  # atno 11005 bound_to 11000
  145.6397  141.0287  143.1818 LP  0  0  0  0  0  0  0  0  0  0  0  0  # atno 17320 bound_to 7965
  144.7229  139.7969  143.7375 LP  0  0  0  0  0  0  0  0  0  0  0  0  # atno 17321 bound_to 7965
  139.8678  144.7084  150.9023 LP  0  0  0  0  0  0  0  0  0  0  0  0  # atno 17342 bound_to 10162
  140.7778  143.3763  151.1557 LP  0  0  0  0  0  0  0  0  0  0  0  0  # atno 17343 bound_to 10162
  157.7224  131.0673  150.6079 LP  0  0  0  0  0  0  0  0  0  0  0  0  # atno 17370 bound_to 10713
  156.6161  130.4393  149.5840 LP  0  0  0  0  0  0  0  0  0  0  0  0  # atno 17371 bound_to 10713
  141.1055  133.6661  156.2853 LP  0  0  0  0  0  0  0  0  0  0  0  0  # atno 17394 bound_to 11000
  140.5933  134.5628  157.5504 LP  0  0  0  0  0  0  0  0  0  0  0  0  # atno 17395 bound_to 11000

$$$$
