AV-unprocessed.smi:2104|AV-procd|sdf|8589|dock10
  -GOLD-   2272011323D 1   1.00000     0.00000
 Structure written by MMmdl.
 42 43  0  0  0  0  0  0  0  0  2 V2000
  146.0111  142.3112  154.3182 C   0  0  0  0  0  0  0  0  0  0  0  0
  147.1771  141.3868  154.2412 C   0  0  0  0  0  0  0  0  0  0  0  0
  148.5169  141.5618  154.4428 C   0  0  0  0  0  0  0  0  0  0  0  0
  149.0533  140.2688  154.1960 C   0  0  0  0  0  0  0  0  0  0  0  0
  150.3469  139.9213  154.2714 N   0  5  0  0  0  0  0  0  0  0  0  0
  150.9004  139.6317  155.4715 C   0  0  0  0  0  0  0  0  0  0  0  0
  151.0471  138.5064  155.9543 O   0  0  0  0  0  0  0  0  0  0  0  0
  151.2876  140.7138  156.1624 N   0  0  0  0  0  0  0  0  0  0  0  0
  151.7940  140.7188  157.5316 C   0  0  0  0  0  0  0  0  0  0  0  0
  150.7760  141.3503  158.4933 C   0  0  0  0  0  0  0  0  0  0  0  0
  151.4256  141.6656  159.7152 O   0  0  0  0  0  0  0  0  0  0  0  0
  152.5642  142.5085  159.5947 C   0  0  2  0  0  0  0  0  0  0  0  0
  153.8026  141.6544  159.9237 C   0  0  0  0  0  0  0  0  0  0  0  0
  153.8093  141.1966  161.3927 C   0  0  0  0  0  0  0  0  0  0  0  0
  153.6944  142.3913  162.3508 C   0  0  0  0  0  0  0  0  0  0  0  0
  152.4552  143.2432  162.0342 C   0  0  0  0  0  0  0  0  0  0  0  0
  152.4494  143.7106  160.5650 C   0  0  2  0  0  0  0  0  0  0  0  0
  151.2434  144.6137  160.2654 C   0  0  0  0  0  0  0  0  0  0  0  0
  148.1194  139.3836  153.8889 N   0  0  0  0  0  0  0  0  0  0  0  0
  146.9137  140.0942  153.9099 O   0  0  0  0  0  0  0  0  0  0  0  0
  145.5266  142.2393  155.2919 H   0  0  0  0  0  0  0  0  0  0  0  0
  145.2726  142.0711  153.5528 H   0  0  0  0  0  0  0  0  0  0  0  0
  146.3255  143.3447  154.1714 H   0  0  0  0  0  0  0  0  0  0  0  0
  149.0334  142.4695  154.7164 H   0  0  0  0  0  0  0  0  0  0  0  0
  151.1549  141.6126  155.7230 H   0  0  0  0  0  0  0  0  0  0  0  0
  152.0653  139.7133  157.8568 H   0  0  0  0  0  0  0  0  0  0  0  0
  152.7127  141.3050  157.5400 H   0  0  0  0  0  0  0  0  0  0  0  0
  150.3669  142.2650  158.0629 H   0  0  0  0  0  0  0  0  0  0  0  0
  149.9421  140.6656  158.6526 H   0  0  0  0  0  0  0  0  0  0  0  0
  152.6680  142.8730  158.5707 H   0  0  0  0  0  0  0  0  0  0  0  0
  153.8425  140.7871  159.2641 H   0  0  0  0  0  0  0  0  0  0  0  0
  154.7045  142.2339  159.7231 H   0  0  0  0  0  0  0  0  0  0  0  0
  152.9801  140.5094  161.5667 H   0  0  0  0  0  0  0  0  0  0  0  0
  154.7213  140.6378  161.6033 H   0  0  0  0  0  0  0  0  0  0  0  0
  153.6476  142.0379  163.3813 H   0  0  0  0  0  0  0  0  0  0  0  0
  154.5908  143.0079  162.2753 H   0  0  0  0  0  0  0  0  0  0  0  0
  151.5529  142.6680  162.2450 H   0  0  0  0  0  0  0  0  0  0  0  0
  152.4274  144.1059  162.7008 H   0  0  0  0  0  0  0  0  0  0  0  0
  153.3393  144.3246  160.4180 H   0  0  0  0  0  0  0  0  0  0  0  0
  150.3017  144.0954  160.4448 H   0  0  0  0  0  0  0  0  0  0  0  0
  151.2504  144.9498  159.2285 H   0  0  0  0  0  0  0  0  0  0  0  0
  151.2528  145.5004  160.8994 H   0  0  0  0  0  0  0  0  0  0  0  0
  1  2  1  0  0  0  0
  1 21  1  0  0  0  0
  1 22  1  0  0  0  0
  1 23  1  0  0  0  0
  2 20  1  0  0  0  0
  2  3  2  0  0  0  0
  3  4  1  0  0  0  0
  3 24  1  0  0  0  0
  4  5  1  0  0  0  0
  4 19  2  0  0  0  0
  5  6  1  0  0  0  0
  6  7  2  0  0  0  0
  6  8  1  0  0  0  0
  8  9  1  0  0  0  0
  8 25  1  0  0  0  0
  9 10  1  0  0  0  0
  9 26  1  0  0  0  0
  9 27  1  0  0  0  0
 10 11  1  0  0  0  0
 10 28  1  0  0  0  0
 10 29  1  0  0  0  0
 11 12  1  0  0  0  0
 12 17  1  0  0  0  0
 12 13  1  0  0  0  0
 12 30  1  0  0  0  0
 13 14  1  0  0  0  0
 13 31  1  0  0  0  0
 13 32  1  0  0  0  0
 14 15  1  0  0  0  0
 14 33  1  0  0  0  0
 14 34  1  0  0  0  0
 15 16  1  0  0  0  0
 15 35  1  0  0  0  0
 15 36  1  0  0  0  0
 16 17  1  0  0  0  0
 16 37  1  0  0  0  0
 16 38  1  0  0  0  0
 17 18  1  0  0  0  0
 17 39  1  0  0  0  0
 18 40  1  0  0  0  0
 18 41  1  0  0  0  0
 18 42  1  0  0  0  0
 19 20  1  0  0  0  0
M  CHG  1   5  -1
M  END
> <s_m_source_file>
AV-unprocessed.smi

> <i_m_source_file_index>
2104

> <i_lp_mmshare_version>
43012

> <i_f3d_flags>
0

> <s_epik_input>
W0NIM11jMVtjSF1jKG5vMSlbTkhdQyg9TylbTkhdW0NIMl1bQ0gyXU9bQ0BASF0yW0NIMl1bQ0gyXVtDSDJdW0NIMl1bQ0BIXTJbQ0gzXQ==

> <s_epik_cmdline>
J2VwaWtfcHl0aG9uJywgJy1waCcsICc3LjAnLCAnLXRuJywgJzgnLCAnLW1hJywgJzIwMCcsICctbWV0YWxfYmluZGluZycsICctaW1hZScsICc8aW5maWxlLm1hZT4nLCAnLW9tYWUnLCAnPG91dGZpbGUubWFlPic=

> <r_lp_tautomer_probability>
1

> <r_epik_Ionization_Penalty>
6.47137

> <r_epik_Ionization_Penalty_Charging>
6.47125

> <r_epik_Ionization_Penalty_Neutral>
0.000118933

> <r_epik_State_Penalty>
6.47124

> <r_epik_Charging_Adjusted_Penalty>
12.9425

> <i_epik_Tot_Q>
-1

> <i_epik_Tot_abs_Q>
1

> <r_epik_Metal_State_Penalty>
2.3995

> <b_epik_Metal_Only>
1

> <s_lp_Force_Field>
OPLS_2005

> <r_lp_Energy>
3.94735

> <b_lp_Chiralities_Consistent>
1

> <s_lp_Variant>
AV-unprocessed.smi:2104-7

> <Gold.Version>
5.8.1

> <Gold.Id.Protein>
6NUR|6NUR_protein|mol2

> <Gold.PLP.Fitness>
45.6579

> <Gold.PLP.PLP>
-47.1906

> <Gold.PLP.part.hbond>
-1.8511

> <Gold.PLP.part.metal>
0.0000

> <Gold.PLP.part.buried>
-4.2388

> <Gold.PLP.part.nonpolar>
-41.5311

> <Gold.PLP.part.repulsive>
1.0706

> <Gold.PLP.ligand.clash>
0.0000

> <Gold.PLP.ligand.torsion>
2.2997

> <Gold.PLP.Chemscore.Hbond>
1.0000

> <Gold.PLP.Chemscore.CHOScore>
0.0000

> <Gold.PLP.Chemscore.Metal>
0.0000

> <Gold.Chemscore.Hbonds>
donor molecule, donor type, donor heavy atom, donor atom, acceptor molecule, acceptor atom, score
      P1  H  7989  7998       L1     5  1.00

> <Gold.PLP.Chemscore.Internal.Correction>
0.0666

> <Gold.Rescore>
     Score         DG    S(hbond)    S(metal)    S(lipo)     H(rot)  DE(clash)    DE(int)     intcor
     14.07     -16.40       0.73        0.00     110.06       1.71       0.02       2.31       ----

> <Gold.Chemscore.Fitness>
14.0742

> <Gold.Chemscore.DG>
-16.4040

> <Gold.Chemscore.ZeroCoef>
-5.4800

> <Gold.Chemscore.Hbond>
0.7260

> <Gold.Chemscore.Metal>
0.0000

> <Gold.Chemscore.Lipo>
110.0635

> <Gold.Chemscore.Internal_Hbond>
0.0000

> <Gold.Chemscore.DEClash>
0.0174

> <Gold.Chemscore.DEInternal>
2.3123

> <Gold.Chemscore.Rot>
1.7103

> <Gold.Chemscore.Internal.Correction>
   9.000000E+99

> <Gold.Chemscore.Hbonds>
donor molecule, donor type, donor heavy atom, donor atom, acceptor molecule, acceptor atom, score
      P1  H  7989  7998       L1     5  0.39

> <Gold.Chemscore.Hbond.Weighted>
-2.4249

> <Gold.Chemscore.Metal.Weighted>
-0.0000

> <Gold.Chemscore.Lipo.Weighted>
-12.8774

> <Gold.Chemscore.Internal_Hbond.Weighted>
0.0000

> <Gold.Chemscore.DEClash.Weighted>
0.0174

> <Gold.Chemscore.DEInternal.Weighted>
2.3123

> <Gold.Chemscore.Rot.Weighted>
4.3784

> <Gold.Chemscore.Internal.Correction.Weighted>
   9.000000E+99

> <Gold.Protein.RotatedTorsions>
[ 6907 6896 6895 6894 ] final  134.23 input  -60.11 | X-H torsion
[ 7974 7965 7964 7962 ] final -164.18 input  175.53 | X-H torsion
[ 8008 7997 7996 7995 ] final  -80.55 input   59.86 | X-H torsion
[ 10167 10162 10161 10158 ] final   75.75 input  -65.29 | X-H torsion
[ 10718 10713 10712 10709 ] final   62.64 input   66.30 | X-H torsion
[ 10763 10752 10751 10750 ] final  166.88 input  -60.55 | X-H torsion
[ 11005 11000 10999 10996 ] final   90.99 input  -57.11 | X-H torsion

> <Gold.Protein.ActiveResidues>
 VAL166  LYS551  ARG553  GLY616  TRP617  ASP618  TYR619  PRO620  LYS621  CYS622 
 ASP623  PHE694  ASN695  SER759  ASP760  ASP761  ALA762  ILE779  LEU786  VAL792 
 PHE793  MET794  SER795  GLU796  ALA797  LYS798  CYS799  TRP800  GLU811  SER814 

> <Gold.Protein.RotatedAtoms>
  152.3135  133.5777  159.5696 H   0  0  0  0  0  0  0  0  0  0  0  0  # atno 6907 bound_to 6896
  150.7334  134.0117  159.3681 H   0  0  0  0  0  0  0  0  0  0  0  0  # atno 6908 bound_to 6896
  151.8008  135.0710  160.0451 H   0  0  0  0  0  0  0  0  0  0  0  0  # atno 6909 bound_to 6896
  144.7304  140.2999  143.6206 H   0  0  0  0  0  0  0  0  0  0  0  0  # atno 7974 bound_to 7965
  154.5894  140.0661  156.9218 H   0  0  0  0  0  0  0  0  0  0  0  0  # atno 8008 bound_to 7997
  155.2321  140.3338  155.4284 H   0  0  0  0  0  0  0  0  0  0  0  0  # atno 8009 bound_to 7997
  156.2245  140.1813  156.7380 H   0  0  0  0  0  0  0  0  0  0  0  0  # atno 8010 bound_to 7997
  139.9996  144.5696  150.7748 H   0  0  0  0  0  0  0  0  0  0  0  0  # atno 10167 bound_to 10162
  157.5915  130.9061  149.9614 H   0  0  0  0  0  0  0  0  0  0  0  0  # atno 10718 bound_to 10713
  154.3455  135.2753  155.2400 H   0  0  0  0  0  0  0  0  0  0  0  0  # atno 10763 bound_to 10752
  154.4651  135.5897  153.6286 H   0  0  0  0  0  0  0  0  0  0  0  0  # atno 10764 bound_to 10752
  152.9854  135.6074  154.3661 H   0  0  0  0  0  0  0  0  0  0  0  0  # atno 10765 bound_to 10752
  139.8846  134.8647  156.3364 H   0  0  0  0  0  0  0  0  0  0  0  0  # atno 11005 bound_to 11000
  145.7771  139.1878  143.2179 LP  0  0  0  0  0  0  0  0  0  0  0  0  # atno 17320 bound_to 7965
  146.0864  140.7706  142.9616 LP  0  0  0  0  0  0  0  0  0  0  0  0  # atno 17321 bound_to 7965
  140.7424  143.2831  151.3541 LP  0  0  0  0  0  0  0  0  0  0  0  0  # atno 17342 bound_to 10162
  139.6281  144.0774  152.2452 LP  0  0  0  0  0  0  0  0  0  0  0  0  # atno 17343 bound_to 10162
  156.0970  130.3658  150.0287 LP  0  0  0  0  0  0  0  0  0  0  0  0  # atno 17370 bound_to 10713
  156.8409  130.9425  151.3632 LP  0  0  0  0  0  0  0  0  0  0  0  0  # atno 17371 bound_to 10713
  140.9688  133.7341  156.0505 LP  0  0  0  0  0  0  0  0  0  0  0  0  # atno 17394 bound_to 11000
  140.7897  134.3631  157.5467 LP  0  0  0  0  0  0  0  0  0  0  0  0  # atno 17395 bound_to 11000

$$$$
