AV-unprocessed.smi:1033|AV-procd|sdf|4507|dock1
  -GOLD-   22720 2513D 1   1.00000     0.00000
 Structure written by MMmdl.
 57 59  0  0  0  0  0  0  0  0  3 V2000
  153.8800  142.6316  163.1951 C   0  0  0  0  0  0  0  0  0  0  0  0
  153.2604  142.7453  161.8131 C   0  0  0  0  0  0  0  0  0  0  0  0
  152.3393  143.7858  161.5569 C   0  0  0  0  0  0  0  0  0  0  0  0
  151.7380  143.9242  160.2870 C   0  0  0  0  0  0  0  0  0  0  0  0
  150.8242  144.8540  159.8216 N   0  0  0  0  0  0  0  0  0  0  0  0
  150.6491  144.4536  158.5661 C   0  0  0  0  0  0  0  0  0  0  0  0
  151.3558  143.3822  158.1567 N   0  0  0  0  0  0  0  0  0  0  0  0
  151.3414  142.7744  156.8386 C   0  0  0  0  0  0  0  0  0  0  0  0
  150.3465  141.6008  156.7385 C   0  0  1  0  0  0  0  0  0  0  0  0
  149.0474  142.1138  156.9521 O   0  0  0  0  0  0  0  0  0  0  0  0
  150.3778  140.8748  155.3754 C   0  0  0  0  0  0  0  0  0  0  0  0
  150.3631  139.3967  155.5221 N   0  3  2  0  0  0  0  0  0  0  0  0
  151.1064  138.6875  154.4490 C   0  0  0  0  0  0  0  0  0  0  0  0
  151.1289  137.1695  154.7005 C   0  0  0  0  0  0  0  0  0  0  0  0
  149.7549  136.6271  154.8405 N   0  3  1  0  0  0  0  0  0  0  0  0
  149.7417  135.1484  154.9875 C   0  0  0  0  0  0  0  0  0  0  0  0
  148.3433  134.5438  154.7530 C   0  0  2  0  0  0  0  0  0  0  0  0
  148.4027  133.2561  153.9214 C   0  0  0  0  0  0  0  0  0  0  0  0
  147.5452  135.4812  154.0591 O   0  0  0  0  0  0  0  0  0  0  0  0
  149.0108  137.3372  155.9125 C   0  0  0  0  0  0  0  0  0  0  0  0
  148.9889  138.8555  155.6613 C   0  0  0  0  0  0  0  0  0  0  0  0
  152.0878  142.9869  159.2713 C   0  0  0  0  0  0  0  0  0  0  0  0
  153.0018  141.9464  159.5143 C   0  0  0  0  0  0  0  0  0  0  0  0
  153.5936  141.8228  160.7888 C   0  0  0  0  0  0  0  0  0  0  0  0
  154.5794  140.6960  161.0420 C   0  0  0  0  0  0  0  0  0  0  0  0
  153.4953  143.3979  163.8687 H   0  0  0  0  0  0  0  0  0  0  0  0
  154.9625  142.7482  163.1388 H   0  0  0  0  0  0  0  0  0  0  0  0
  153.6577  141.6592  163.6351 H   0  0  0  0  0  0  0  0  0  0  0  0
  152.0837  144.4876  162.3374 H   0  0  0  0  0  0  0  0  0  0  0  0
  149.9758  144.9763  157.9024 H   0  0  0  0  0  0  0  0  0  0  0  0
  151.0916  143.5475  156.1104 H   0  0  0  0  0  0  0  0  0  0  0  0
  152.3519  142.4372  156.6024 H   0  0  0  0  0  0  0  0  0  0  0  0
  150.5616  140.8995  157.5433 H   0  0  0  0  0  0  0  0  0  0  0  0
  148.8901  142.8110  156.3329 H   0  0  0  0  0  0  0  0  0  0  0  0
  149.5141  141.1998  154.7930 H   0  0  0  0  0  0  0  0  0  0  0  0
  151.2568  141.1583  154.7950 H   0  0  0  0  0  0  0  0  0  0  0  0
  150.6418  138.8972  153.4839 H   0  0  0  0  0  0  0  0  0  0  0  0
  152.1313  139.0521  154.3890 H   0  0  0  0  0  0  0  0  0  0  0  0
  151.6370  136.6761  153.8709 H   0  0  0  0  0  0  0  0  0  0  0  0
  151.7019  136.9465  155.6022 H   0  0  0  0  0  0  0  0  0  0  0  0
  150.4347  134.7011  154.2727 H   0  0  0  0  0  0  0  0  0  0  0  0
  150.1141  134.8813  155.9778 H   0  0  0  0  0  0  0  0  0  0  0  0
  147.8568  134.3168  155.7009 H   0  0  0  0  0  0  0  0  0  0  0  0
  148.9858  132.4882  154.4308 H   0  0  0  0  0  0  0  0  0  0  0  0
  148.8614  133.4299  152.9472 H   0  0  0  0  0  0  0  0  0  0  0  0
  147.4046  132.8505  153.7514 H   0  0  0  0  0  0  0  0  0  0  0  0
  147.9170  135.6211  153.2009 H   0  0  0  0  0  0  0  0  0  0  0  0
  147.9854  136.9738  155.9707 H   0  0  0  0  0  0  0  0  0  0  0  0
  149.4738  137.1273  156.8781 H   0  0  0  0  0  0  0  0  0  0  0  0
  148.4811  139.3489  156.4912 H   0  0  0  0  0  0  0  0  0  0  0  0
  148.4164  139.0794  154.7595 H   0  0  0  0  0  0  0  0  0  0  0  0
  153.2433  141.2463  158.7282 H   0  0  0  0  0  0  0  0  0  0  0  0
  154.7431  140.0997  160.1438 H   0  0  0  0  0  0  0  0  0  0  0  0
  154.2059  140.0309  161.8210 H   0  0  0  0  0  0  0  0  0  0  0  0
  155.5434  141.0947  161.3585 H   0  0  0  0  0  0  0  0  0  0  0  0
  149.2822  136.8232  153.9690 H   0  0  0  0  0  0  0  0  0  0  0  0
  150.8360  139.1989  156.3931 H   0  0  0  0  0  0  0  0  0  0  0  0
  1  2  1  0  0  0  0
  1 26  1  0  0  0  0
  1 27  1  0  0  0  0
  1 28  1  0  0  0  0
  2 24  1  0  0  0  0
  2  3  2  0  0  0  0
  3  4  1  0  0  0  0
  3 29  1  0  0  0  0
  4 22  2  0  0  0  0
  4  5  1  0  0  0  0
  5  6  2  0  0  0  0
  6  7  1  0  0  0  0
  6 30  1  0  0  0  0
  7  8  1  0  0  0  0
  7 22  1  0  0  0  0
  8  9  1  0  0  0  0
  8 31  1  0  0  0  0
  8 32  1  0  0  0  0
  9 10  1  0  0  0  0
  9 11  1  0  0  0  0
  9 33  1  0  0  0  0
 10 34  1  0  0  0  0
 11 12  1  0  0  0  0
 11 35  1  0  0  0  0
 11 36  1  0  0  0  0
 12 21  1  0  0  0  0
 12 13  1  0  0  0  0
 12 57  1  0  0  0  0
 13 14  1  0  0  0  0
 13 37  1  0  0  0  0
 13 38  1  0  0  0  0
 14 15  1  0  0  0  0
 14 39  1  0  0  0  0
 14 40  1  0  0  0  0
 15 16  1  0  0  0  0
 15 20  1  0  0  0  0
 15 56  1  0  0  0  0
 16 17  1  0  0  0  0
 16 41  1  0  0  0  0
 16 42  1  0  0  0  0
 17 18  1  0  0  0  0
 17 19  1  0  0  0  0
 17 43  1  0  0  0  0
 18 44  1  0  0  0  0
 18 45  1  0  0  0  0
 18 46  1  0  0  0  0
 19 47  1  0  0  0  0
 20 21  1  0  0  0  0
 20 48  1  0  0  0  0
 20 49  1  0  0  0  0
 21 50  1  0  0  0  0
 21 51  1  0  0  0  0
 22 23  1  0  0  0  0
 23 24  2  0  0  0  0
 23 52  1  0  0  0  0
 24 25  1  0  0  0  0
 25 53  1  0  0  0  0
 25 54  1  0  0  0  0
 25 55  1  0  0  0  0
M  CHG  1  12   1
M  CHG  1  15   1
M  END
> <s_m_source_file>
AV-unprocessed.smi

> <i_m_source_file_index>
1033

> <i_lp_mmshare_version>
43012

> <i_f3d_flags>
0

> <s_epik_input>
W0NIM11jKFtjSF0xKWMoW0NIM10pW2NIXWMoYzEyKW4oW2NIXW4yKVtDSDJdW0NASF0oW09IXSlbQ0gyXU4zW0NIMl1bQ0gyXU4oW0NIMl1bQ0gyXTMpW0NIMl1bQ0BIXShbQ0gzXSlbT0hd

> <s_epik_cmdline>
J2VwaWtfcHl0aG9uJywgJy1waCcsICc3LjAnLCAnLXRuJywgJzgnLCAnLW1hJywgJzIwMCcsICctbWV0YWxfYmluZGluZycsICctaW1hZScsICc8aW5maWxlLm1hZT4nLCAnLW9tYWUnLCAnPG91dGZpbGUubWFlPic=

> <r_epik_Ionization_Penalty>
3.16016

> <r_epik_Ionization_Penalty_Charging>
3.07679

> <r_epik_Ionization_Penalty_Neutral>
0.083365

> <r_epik_State_Penalty>
2.09701

> <r_epik_Charging_Adjusted_Penalty>
5.1738

> <i_epik_Tot_Q>
2

> <i_epik_Tot_abs_Q>
2

> <r_epik_Metal_State_Penalty>
2.02534

> <b_epik_Metal_Only>
0

> <s_lp_Force_Field>
OPLS_2005

> <r_lp_Energy>
25.863

> <b_lp_Chiralities_Consistent>
1

> <s_lp_Variant>
AV-unprocessed.smi:1033-18

> <Gold.Version>
5.8.1

> <Gold.Id.Protein>
6NUR|6NUR_protein|mol2

> <Gold.PLP.Fitness>
64.6924

> <Gold.PLP.PLP>
-54.7413

> <Gold.PLP.part.hbond>
-2.7154

> <Gold.PLP.part.metal>
0.0000

> <Gold.PLP.part.buried>
-4.8728

> <Gold.PLP.part.nonpolar>
-47.4085

> <Gold.PLP.part.repulsive>
0.2578

> <Gold.PLP.ligand.clash>
0.0000

> <Gold.PLP.ligand.torsion>
2.0036

> <Gold.PLP.Chemscore.Hbond>
3.4830

> <Gold.PLP.Chemscore.CHOScore>
0.9458

> <Gold.PLP.Chemscore.Metal>
0.0000

> <Gold.Chemscore.Hbonds>
donor molecule, donor type, donor heavy atom, donor atom, acceptor molecule, acceptor atom, score
      L1  H    10    34       P1  8028  1.00
      L1  H    15    56       P1  7948  1.12
      L1  H    19    47       P1  7948  1.00
      L1  C     6    30       P1  8028  0.36
      L1  C     6    30       P1  8029  0.59

> <Gold.PLP.Chemscore.Internal.Correction>
0.6718

> <Gold.Rescore>
     Score         DG    S(hbond)    S(metal)    S(lipo)     H(rot)  DE(clash)    DE(int)     intcor
     20.63     -22.68       2.52        0.00     143.74       3.14       0.15       1.89       ----

> <Gold.Chemscore.Fitness>
20.6320

> <Gold.Chemscore.DG>
-22.6764

> <Gold.Chemscore.ZeroCoef>
-5.4800

> <Gold.Chemscore.Hbond>
2.5185

> <Gold.Chemscore.Metal>
0.0000

> <Gold.Chemscore.Lipo>
143.7428

> <Gold.Chemscore.Internal_Hbond>
0.0000

> <Gold.Chemscore.DEClash>
0.1514

> <Gold.Chemscore.DEInternal>
1.8930

> <Gold.Chemscore.Rot>
3.1380

> <Gold.Chemscore.Internal.Correction>
   9.000000E+99

> <Gold.Chemscore.Hbonds>
donor molecule, donor type, donor heavy atom, donor atom, acceptor molecule, acceptor atom, score
      L1  H    10    34       P1  8028  0.93
      L1  H    15    56       P1  7948  0.53
      L1  H    19    47       P1  7948  1.00

> <Gold.Chemscore.Hbond.Weighted>
-8.4117

> <Gold.Chemscore.Metal.Weighted>
-0.0000

> <Gold.Chemscore.Lipo.Weighted>
-16.8179

> <Gold.Chemscore.Internal_Hbond.Weighted>
0.0000

> <Gold.Chemscore.DEClash.Weighted>
0.1514

> <Gold.Chemscore.DEInternal.Weighted>
1.8930

> <Gold.Chemscore.Rot.Weighted>
8.0332

> <Gold.Chemscore.Internal.Correction.Weighted>
   9.000000E+99

> <Gold.Protein.RotatedTorsions>
[ 6907 6896 6895 6894 ] final  -99.44 input  -60.11 | X-H torsion
[ 7974 7965 7964 7962 ] final   20.15 input  175.53 | X-H torsion
[ 8008 7997 7996 7995 ] final -141.93 input   59.86 | X-H torsion
[ 10167 10162 10161 10158 ] final  -41.78 input  -65.29 | X-H torsion
[ 10718 10713 10712 10709 ] final   68.33 input   66.30 | X-H torsion
[ 10763 10752 10751 10750 ] final   63.43 input  -60.55 | X-H torsion
[ 11005 11000 10999 10996 ] final -128.21 input  -57.11 | X-H torsion

> <Gold.Protein.ActiveResidues>
 VAL166  LYS551  ARG553  GLY616  TRP617  ASP618  TYR619  PRO620  LYS621  CYS622 
 ASP623  PHE694  ASN695  SER759  ASP760  ASP761  ALA762  ILE779  LEU786  VAL792 
 PHE793  MET794  SER795  GLU796  ALA797  LYS798  CYS799  TRP800  GLU811  SER814 

> <Gold.Protein.RotatedAtoms>
  150.7080  134.1040  159.3975 H   0  0  0  0  0  0  0  0  0  0  0  0  # atno 6907 bound_to 6896
  151.9027  135.0369  160.0517 H   0  0  0  0  0  0  0  0  0  0  0  0  # atno 6908 bound_to 6896
  152.2401  133.5093  159.5302 H   0  0  0  0  0  0  0  0  0  0  0  0  # atno 6909 bound_to 6896
  146.2122  139.8210  142.8680 H   0  0  0  0  0  0  0  0  0  0  0  0  # atno 7974 bound_to 7965
  155.4859  140.0564  157.2960 H   0  0  0  0  0  0  0  0  0  0  0  0  # atno 8008 bound_to 7997
  154.4642  140.2010  156.0115 H   0  0  0  0  0  0  0  0  0  0  0  0  # atno 8009 bound_to 7997
  156.0944  140.3228  155.7863 H   0  0  0  0  0  0  0  0  0  0  0  0  # atno 8010 bound_to 7997
  140.6991  143.3075  151.3116 H   0  0  0  0  0  0  0  0  0  0  0  0  # atno 10167 bound_to 10162
  157.6283  130.9368  150.0363 H   0  0  0  0  0  0  0  0  0  0  0  0  # atno 10718 bound_to 10713
  153.0017  135.5429  154.6350 H   0  0  0  0  0  0  0  0  0  0  0  0  # atno 10763 bound_to 10752
  154.5619  135.2834  155.0913 H   0  0  0  0  0  0  0  0  0  0  0  0  # atno 10764 bound_to 10752
  154.2113  135.6467  153.5168 H   0  0  0  0  0  0  0  0  0  0  0  0  # atno 10765 bound_to 10752
  140.9535  134.1033  157.4039 H   0  0  0  0  0  0  0  0  0  0  0  0  # atno 11005 bound_to 11000
  145.3096  141.0216  143.3562 LP  0  0  0  0  0  0  0  0  0  0  0  0  # atno 17320 bound_to 7965
  144.8946  139.4730  143.6662 LP  0  0  0  0  0  0  0  0  0  0  0  0  # atno 17321 bound_to 7965
  139.6486  144.0405  152.2609 LP  0  0  0  0  0  0  0  0  0  0  0  0  # atno 17342 bound_to 10162
  139.9934  144.6345  150.7794 LP  0  0  0  0  0  0  0  0  0  0  0  0  # atno 17343 bound_to 10162
  156.1469  130.3642  149.9497 LP  0  0  0  0  0  0  0  0  0  0  0  0  # atno 17370 bound_to 10713
  156.7525  130.9121  151.3638 LP  0  0  0  0  0  0  0  0  0  0  0  0  # atno 17371 bound_to 10713
  139.8855  135.0073  156.6437 LP  0  0  0  0  0  0  0  0  0  0  0  0  # atno 17394 bound_to 11000
  140.7569  133.8850  155.8388 LP  0  0  0  0  0  0  0  0  0  0  0  0  # atno 17395 bound_to 11000

$$$$
