AV-unprocessed.smi:69|AV-procd|sdf|648|dock1
  -GOLD-   2262016543D 1   1.00000     0.00000
 Structure written by MMmdl.
 32 34  0  0  0  0  0  0  0  0  1 V2000
  152.1010  142.3252  162.0455 N   0  0  0  0  0  0  0  0  0  0  0  0
  151.8620  142.7294  160.7903 C   0  0  0  0  0  0  0  0  0  0  0  0
  151.8291  144.0593  160.5374 N   0  0  0  0  0  0  0  0  0  0  0  0
  151.5892  144.4882  159.2935 C   0  0  0  0  0  0  0  0  0  0  0  0
  151.3607  143.7694  158.1904 N   0  0  0  0  0  0  0  0  0  0  0  0
  151.3971  142.4297  158.4507 C   0  0  0  0  0  0  0  0  0  0  0  0
  151.6397  141.8306  159.7165 C   0  0  0  0  0  0  0  0  0  0  0  0
  151.5987  140.4477  159.5990 N   0  0  0  0  0  0  0  0  0  0  0  0
  151.3432  140.2464  158.3332 C   0  0  0  0  0  0  0  0  0  0  0  0
  151.1985  141.3881  157.5714 N   0  0  0  0  0  0  0  0  0  0  0  0
  150.9027  141.5289  156.1072 C   0  0  1  0  0  0  0  0  0  0  0  0
  151.3890  140.3991  155.4469 O   0  0  0  0  0  0  0  0  0  0  0  0
  150.3145  139.5134  155.1542 C   0  0  2  0  0  0  0  0  0  0  0  0
  150.6968  138.5180  154.0458 C   0  0  0  0  0  0  0  0  0  0  0  0
  149.5744  137.7406  153.6874 O   0  0  0  0  0  0  0  0  0  0  0  0
  149.1747  140.4817  154.8135 C   0  0  2  0  0  0  0  0  0  0  0  0
  149.2913  140.9622  153.4860 O   0  0  0  0  0  0  0  0  0  0  0  0
  149.3838  141.6138  155.8123 C   0  0  1  0  0  0  0  0  0  0  0  0
  148.5601  141.4048  156.9474 O   0  0  0  0  0  0  0  0  0  0  0  0
  151.4618  142.4124  155.7961 H   0  0  0  0  0  0  0  0  0  0  0  0
  150.0387  138.9729  156.0617 H   0  0  0  0  0  0  0  0  0  0  0  0
  148.1969  140.0081  154.9138 H   0  0  0  0  0  0  0  0  0  0  0  0
  149.1452  142.5904  155.3881 H   0  0  0  0  0  0  0  0  0  0  0  0
  152.1283  141.3382  162.2580 H   0  0  0  0  0  0  0  0  0  0  0  0
  152.2506  143.0066  162.7753 H   0  0  0  0  0  0  0  0  0  0  0  0
  151.5783  145.5602  159.1632 H   0  0  0  0  0  0  0  0  0  0  0  0
  151.2531  139.2504  157.9248 H   0  0  0  0  0  0  0  0  0  0  0  0
  151.0193  139.0555  153.1537 H   0  0  0  0  0  0  0  0  0  0  0  0
  151.5199  137.8727  154.3545 H   0  0  0  0  0  0  0  0  0  0  0  0
  149.7197  137.3821  152.8251 H   0  0  0  0  0  0  0  0  0  0  0  0
  149.4197  140.2245  152.9094 H   0  0  0  0  0  0  0  0  0  0  0  0
  148.7352  140.5396  157.2859 H   0  0  0  0  0  0  0  0  0  0  0  0
  1  2  1  0  0  0  0
  1 24  1  0  0  0  0
  1 25  1  0  0  0  0
  2  7  1  0  0  0  0
  2  3  2  0  0  0  0
  3  4  1  0  0  0  0
  4  5  2  0  0  0  0
  4 26  1  0  0  0  0
  5  6  1  0  0  0  0
  6 10  1  0  0  0  0
  6  7  2  0  0  0  0
  7  8  1  0  0  0  0
  8  9  2  0  0  0  0
  9 10  1  0  0  0  0
  9 27  1  0  0  0  0
 10 11  1  0  0  0  0
 11 20  1  0  0  0  0
 11 18  1  0  0  0  0
 11 12  1  0  0  0  0
 12 13  1  0  0  0  0
 13 21  1  0  0  0  0
 13 14  1  0  0  0  0
 13 16  1  0  0  0  0
 14 15  1  0  0  0  0
 14 28  1  0  0  0  0
 14 29  1  0  0  0  0
 15 30  1  0  0  0  0
 16 22  1  0  0  0  0
 16 17  1  0  0  0  0
 16 18  1  0  0  0  0
 17 31  1  0  0  0  0
 18 23  1  0  0  0  0
 18 19  1  0  0  0  0
 19 32  1  0  0  0  0
M  END
> <s_m_source_file>
AV-unprocessed.smi

> <i_m_source_file_index>
69

> <i_lp_mmshare_version>
43012

> <i_f3d_flags>
0

> <s_epik_input>
bjFbY0hdbmMoW05IMl0pYyhjMTIpbltjSF1uMltDQEBIXTNPW0NASF0oW0NIMl1bT0hdKVtDQEBIXShbT0hdKVtDQEhdM1tPSF0=

> <s_epik_cmdline>
J2VwaWtfcHl0aG9uJywgJy1waCcsICc3LjAnLCAnLXRuJywgJzgnLCAnLW1hJywgJzIwMCcsICctbWV0YWxfYmluZGluZycsICctaW1hZScsICc8aW5maWxlLm1hZT4nLCAnLW9tYWUnLCAnPG91dGZpbGUubWFlPic=

> <r_lp_tautomer_probability>
1

> <r_epik_Ionization_Penalty>
0.000428445

> <r_epik_Ionization_Penalty_Charging>
0

> <r_epik_Ionization_Penalty_Neutral>
0.000428445

> <r_epik_State_Penalty>
-0

> <r_epik_Charging_Adjusted_Penalty>
0

> <i_epik_Tot_Q>
0

> <i_epik_Tot_abs_Q>
0

> <r_epik_Metal_State_Penalty>
-0

> <b_epik_Metal_Only>
0

> <s_epik_Chemistry_Notes>
This compound contains an acetal/aminal-like group ( X-CH(R)-Y where X, Y are N, S, or O) that may be acid/base labile, releasing an aldehyde.

> <s_lp_Force_Field>
OPLS_2005

> <r_lp_Energy>
38.9041

> <b_lp_Chiralities_Consistent>
1

> <s_lp_Variant>
AV-unprocessed.smi:69-6

> <Gold.Version>
5.8.1

> <Gold.Id.Protein>
6NUR|6NUR_protein|mol2

> <Gold.PLP.Fitness>
45.3798

> <Gold.PLP.PLP>
-35.9943

> <Gold.PLP.part.hbond>
-4.8412

> <Gold.PLP.part.metal>
0.0000

> <Gold.PLP.part.buried>
-7.1504

> <Gold.PLP.part.nonpolar>
-24.8599

> <Gold.PLP.part.repulsive>
0.2495

> <Gold.PLP.ligand.clash>
0.0000

> <Gold.PLP.ligand.torsion>
0.7544

> <Gold.PLP.Chemscore.Hbond>
3.6000

> <Gold.PLP.Chemscore.CHOScore>
0.0000

> <Gold.PLP.Chemscore.Metal>
0.0000

> <Gold.Chemscore.Hbonds>
donor molecule, donor type, donor heavy atom, donor atom, acceptor molecule, acceptor atom, score
      L1  H    15    30       P1  7948  0.75
      L1  H    17    31       P1  7957  0.69
      P1  H  7989  7998       L1    12  0.59
      P1  H  8011  8017       L1    17  1.00

> <Gold.PLP.Chemscore.Internal.Correction>
0.0944

> <Gold.Rescore>
     Score         DG    S(hbond)    S(metal)    S(lipo)     H(rot)  DE(clash)    DE(int)     intcor
      6.85      -7.28       2.40        0.00      34.95       4.03       0.05       0.37       ----

> <Gold.Chemscore.Fitness>
6.8547

> <Gold.Chemscore.DG>
-7.2786

> <Gold.Chemscore.ZeroCoef>
-5.4800

> <Gold.Chemscore.Hbond>
2.4012

> <Gold.Chemscore.Metal>
0.0000

> <Gold.Chemscore.Lipo>
34.9524

> <Gold.Chemscore.Internal_Hbond>
0.0000

> <Gold.Chemscore.DEClash>
0.0513

> <Gold.Chemscore.DEInternal>
0.3726

> <Gold.Chemscore.Rot>
4.0277

> <Gold.Chemscore.Internal.Correction>
   9.000000E+99

> <Gold.Chemscore.Hbonds>
donor molecule, donor type, donor heavy atom, donor atom, acceptor molecule, acceptor atom, score
      L1  H    15    30       P1  7948  0.29
      L1  H    17    31       P1  7957  0.68
      P1  H  7989  7998       L1    12  0.03
      P1  H  8011  8017       L1    17  0.29

> <Gold.Chemscore.Hbond.Weighted>
-8.0201

> <Gold.Chemscore.Metal.Weighted>
-0.0000

> <Gold.Chemscore.Lipo.Weighted>
-4.0894

> <Gold.Chemscore.Internal_Hbond.Weighted>
0.0000

> <Gold.Chemscore.DEClash.Weighted>
0.0513

> <Gold.Chemscore.DEInternal.Weighted>
0.3726

> <Gold.Chemscore.Rot.Weighted>
10.3110

> <Gold.Chemscore.Internal.Correction.Weighted>
   9.000000E+99

> <Gold.Protein.RotatedTorsions>
[ 6907 6896 6895 6894 ] final  144.53 input  -60.11 | X-H torsion
[ 7974 7965 7964 7962 ] final  116.11 input  175.53 | X-H torsion
[ 8008 7997 7996 7995 ] final  -65.74 input   59.86 | X-H torsion
[ 10167 10162 10161 10158 ] final -110.27 input  -65.29 | X-H torsion
[ 10718 10713 10712 10709 ] final   67.82 input   66.30 | X-H torsion
[ 10763 10752 10751 10750 ] final -162.98 input  -60.55 | X-H torsion
[ 11005 11000 10999 10996 ] final -104.11 input  -57.11 | X-H torsion

> <Gold.Protein.ActiveResidues>
 VAL166  LYS551  ARG553  GLY616  TRP617  ASP618  TYR619  PRO620  LYS621  CYS622 
 ASP623  PHE694  ASN695  SER759  ASP760  ASP761  ALA762  ILE779  LEU786  VAL792 
 PHE793  MET794  SER795  GLU796  ALA797  LYS798  CYS799  TRP800  GLU811  SER814 

> <Gold.Protein.RotatedAtoms>
  152.1925  133.4783  159.5015 H   0  0  0  0  0  0  0  0  0  0  0  0  # atno 6907 bound_to 6896
  150.6954  134.1694  159.4215 H   0  0  0  0  0  0  0  0  0  0  0  0  # atno 6908 bound_to 6896
  151.9609  135.0123  160.0598 H   0  0  0  0  0  0  0  0  0  0  0  0  # atno 6909 bound_to 6896
  145.1837  139.3036  143.4405 H   0  0  0  0  0  0  0  0  0  0  0  0  # atno 7974 bound_to 7965
  154.4691  140.0927  156.7097 H   0  0  0  0  0  0  0  0  0  0  0  0  # atno 8008 bound_to 7997
  155.4775  140.3466  155.4316 H   0  0  0  0  0  0  0  0  0  0  0  0  # atno 8009 bound_to 7997
  156.1007  140.1421  156.9459 H   0  0  0  0  0  0  0  0  0  0  0  0  # atno 8010 bound_to 7997
  140.1462  143.4237  152.1527 H   0  0  0  0  0  0  0  0  0  0  0  0  # atno 10167 bound_to 10162
  157.6253  130.9341  150.0294 H   0  0  0  0  0  0  0  0  0  0  0  0  # atno 10718 bound_to 10713
  154.7164  135.3016  154.9116 H   0  0  0  0  0  0  0  0  0  0  0  0  # atno 10763 bound_to 10752
  154.0002  135.6708  153.4763 H   0  0  0  0  0  0  0  0  0  0  0  0  # atno 10764 bound_to 10752
  153.0797  135.5015  154.8393 H   0  0  0  0  0  0  0  0  0  0  0  0  # atno 10765 bound_to 10752
  141.1115  133.8696  157.1570 H   0  0  0  0  0  0  0  0  0  0  0  0  # atno 11005 bound_to 11000
  146.3449  140.2025  142.8589 LP  0  0  0  0  0  0  0  0  0  0  0  0  # atno 17320 bound_to 7965
  145.0111  140.8714  143.5224 LP  0  0  0  0  0  0  0  0  0  0  0  0  # atno 17321 bound_to 7965
  139.5448  144.7288  151.4619 LP  0  0  0  0  0  0  0  0  0  0  0  0  # atno 17342 bound_to 10162
  140.6730  143.8252  150.7023 LP  0  0  0  0  0  0  0  0  0  0  0  0  # atno 17343 bound_to 10162
  156.1422  130.3642  149.9565 LP  0  0  0  0  0  0  0  0  0  0  0  0  # atno 17370 bound_to 10713
  156.7604  130.9148  151.3641 LP  0  0  0  0  0  0  0  0  0  0  0  0  # atno 17371 bound_to 10713
  140.0012  135.0027  157.0194 LP  0  0  0  0  0  0  0  0  0  0  0  0  # atno 17394 bound_to 11000
  140.4762  134.1336  155.7210 LP  0  0  0  0  0  0  0  0  0  0  0  0  # atno 17395 bound_to 11000

$$$$
