AV-unprocessed.smi:971|AV-procd|sdf|4295|dock6
  -GOLD-   22720 2203D 1   1.00000     0.00000
 Structure written by MMmdl.
 34 35  0  0  0  0  0  0  0  0  1 V2000
  152.5061  142.9398  162.0156 C   0  0  0  0  0  0  0  0  0  0  0  0
  153.1631  142.5267  160.6942 C   0  0  0  0  0  0  0  0  0  0  0  0
  152.3868  143.0013  159.5011 C   0  0  0  0  0  0  0  0  0  0  0  0
  152.0117  142.0805  158.5181 N   0  0  0  0  0  0  0  0  0  0  0  0
  151.3147  142.6389  157.5266 C   0  0  0  0  0  0  0  0  0  0  0  0
  150.8227  141.8828  156.3387 C   0  0  0  0  0  0  0  0  0  0  0  0
  149.6082  140.9994  156.6662 C   0  0  0  0  0  0  0  0  0  0  0  0
  148.4905  141.2668  155.7682 N   0  0  0  0  0  0  0  0  0  0  0  0
  148.5641  141.2856  154.4286 C   0  0  0  0  0  0  0  0  0  0  0  0
  149.6093  141.0761  153.8110 O   0  0  0  0  0  0  0  0  0  0  0  0
  147.2643  141.5790  153.7538 C   0  0  0  0  0  0  0  0  0  0  0  0
  146.6266  142.9284  154.0157 C   0  0  0  0  0  0  0  0  0  0  0  0
  146.0277  141.6851  154.6234 C   0  0  0  0  0  0  0  0  0  0  0  0
  151.0925  144.3708  157.7292 S   0  0  0  0  0  0  0  0  0  0  0  0
  151.9677  144.2846  159.2368 C   0  0  0  0  0  0  0  0  0  0  0  0
  152.1848  145.5074  160.0651 C   0  0  0  0  0  0  0  0  0  0  0  0
  153.0877  142.5852  162.8666 H   0  0  0  0  0  0  0  0  0  0  0  0
  151.5014  142.5251  162.1034 H   0  0  0  0  0  0  0  0  0  0  0  0
  152.4291  144.0248  162.0927 H   0  0  0  0  0  0  0  0  0  0  0  0
  154.1814  142.9148  160.6637 H   0  0  0  0  0  0  0  0  0  0  0  0
  153.2605  141.4408  160.6671 H   0  0  0  0  0  0  0  0  0  0  0  0
  150.5743  142.5968  155.5523 H   0  0  0  0  0  0  0  0  0  0  0  0
  151.6395  141.2697  155.9562 H   0  0  0  0  0  0  0  0  0  0  0  0
  149.8776  139.9478  156.5660 H   0  0  0  0  0  0  0  0  0  0  0  0
  149.2980  141.1434  157.7026 H   0  0  0  0  0  0  0  0  0  0  0  0
  147.5945  141.4498  156.1965 H   0  0  0  0  0  0  0  0  0  0  0  0
  147.1273  141.1602  152.7577 H   0  0  0  0  0  0  0  0  0  0  0  0
  147.1306  143.6209  154.6878 H   0  0  0  0  0  0  0  0  0  0  0  0
  146.1012  143.3953  153.1851 H   0  0  0  0  0  0  0  0  0  0  0  0
  145.0962  141.3098  154.2049 H   0  0  0  0  0  0  0  0  0  0  0  0
  146.1337  141.5536  155.6991 H   0  0  0  0  0  0  0  0  0  0  0  0
  151.8933  145.3306  161.1007 H   0  0  0  0  0  0  0  0  0  0  0  0
  151.5992  146.3476  159.6915 H   0  0  0  0  0  0  0  0  0  0  0  0
  153.2351  145.7985  160.0548 H   0  0  0  0  0  0  0  0  0  0  0  0
  1  2  1  0  0  0  0
  1 17  1  0  0  0  0
  1 18  1  0  0  0  0
  1 19  1  0  0  0  0
  2  3  1  0  0  0  0
  2 20  1  0  0  0  0
  2 21  1  0  0  0  0
  3 15  2  0  0  0  0
  3  4  1  0  0  0  0
  4  5  2  0  0  0  0
  5  6  1  0  0  0  0
  5 14  1  0  0  0  0
  6  7  1  0  0  0  0
  6 22  1  0  0  0  0
  6 23  1  0  0  0  0
  7  8  1  0  0  0  0
  7 24  1  0  0  0  0
  7 25  1  0  0  0  0
  8  9  1  0  0  0  0
  8 26  1  0  0  0  0
  9 10  2  0  0  0  0
  9 11  1  0  0  0  0
 11 13  1  0  0  0  0
 11 12  1  0  0  0  0
 11 27  1  0  0  0  0
 12 13  1  0  0  0  0
 12 28  1  0  0  0  0
 12 29  1  0  0  0  0
 13 30  1  0  0  0  0
 13 31  1  0  0  0  0
 14 15  1  0  0  0  0
 15 16  1  0  0  0  0
 16 32  1  0  0  0  0
 16 33  1  0  0  0  0
 16 34  1  0  0  0  0
M  END
> <s_m_source_file>
AV-unprocessed.smi

> <i_m_source_file_index>
971

> <i_lp_mmshare_version>
43012

> <i_f3d_flags>
0

> <s_epik_input>
W0NIM11bQ0gyXWMxbmMoc2MxW0NIM10pW0NIMl1bQ0gyXVtOSF1DKD1PKVtDSF0yW0NIMl1bQ0gyXTI=

> <s_epik_cmdline>
J2VwaWtfcHl0aG9uJywgJy1waCcsICc3LjAnLCAnLXRuJywgJzgnLCAnLW1hJywgJzIwMCcsICctbWV0YWxfYmluZGluZycsICctaW1hZScsICc8aW5maWxlLm1hZT4nLCAnLW9tYWUnLCAnPG91dGZpbGUubWFlPic=

> <r_epik_Ionization_Penalty>
0.00242093

> <r_epik_Ionization_Penalty_Charging>
0

> <r_epik_Ionization_Penalty_Neutral>
0.00242093

> <r_epik_State_Penalty>
0.00167523

> <r_epik_Charging_Adjusted_Penalty>
0.00167523

> <i_epik_Tot_Q>
0

> <i_epik_Tot_abs_Q>
0

> <r_epik_Metal_State_Penalty>
-0

> <b_epik_Metal_Only>
0

> <s_lp_Force_Field>
OPLS_2005

> <r_lp_Energy>
-4.35298

> <b_lp_Chiralities_Consistent>
1

> <s_lp_Variant>
AV-unprocessed.smi:971-1

> <Gold.Version>
5.8.1

> <Gold.Id.Protein>
6NUR|6NUR_protein|mol2

> <Gold.PLP.Fitness>
44.3703

> <Gold.PLP.PLP>
-42.0079

> <Gold.PLP.part.hbond>
-2.0000

> <Gold.PLP.part.metal>
0.0000

> <Gold.PLP.part.buried>
-3.7916

> <Gold.PLP.part.nonpolar>
-37.5901

> <Gold.PLP.part.repulsive>
1.9207

> <Gold.PLP.ligand.clash>
0.0751

> <Gold.PLP.ligand.torsion>
0.6560

> <Gold.PLP.Chemscore.Hbond>
1.2123

> <Gold.PLP.Chemscore.CHOScore>
0.0000

> <Gold.PLP.Chemscore.Metal>
0.0000

> <Gold.Chemscore.Hbonds>
donor molecule, donor type, donor heavy atom, donor atom, acceptor molecule, acceptor atom, score
      P1  H  7989  7998       L1    10  0.34
      P1  H  8011  8017       L1    10  0.91

> <Gold.PLP.Chemscore.Internal.Correction>
0.1127

> <Gold.Rescore>
     Score         DG    S(hbond)    S(metal)    S(lipo)     H(rot)  DE(clash)    DE(int)     intcor
     15.09     -18.31       1.06        0.00     113.25       1.54       1.32       1.90       ----

> <Gold.Chemscore.Fitness>
15.0900

> <Gold.Chemscore.DG>
-18.3122

> <Gold.Chemscore.ZeroCoef>
-5.4800

> <Gold.Chemscore.Hbond>
1.0583

> <Gold.Chemscore.Metal>
0.0000

> <Gold.Chemscore.Lipo>
113.2525

> <Gold.Chemscore.Internal_Hbond>
0.0000

> <Gold.Chemscore.DEClash>
1.3175

> <Gold.Chemscore.DEInternal>
1.9047

> <Gold.Chemscore.Rot>
1.5441

> <Gold.Chemscore.Internal.Correction>
   9.000000E+99

> <Gold.Chemscore.Hbonds>
donor molecule, donor type, donor heavy atom, donor atom, acceptor molecule, acceptor atom, score
      P1  H  7989  7998       L1    10  0.32
      P1  H  8011  8017       L1    10  0.64

> <Gold.Chemscore.Hbond.Weighted>
-3.5346

> <Gold.Chemscore.Metal.Weighted>
-0.0000

> <Gold.Chemscore.Lipo.Weighted>
-13.2505

> <Gold.Chemscore.Internal_Hbond.Weighted>
0.0000

> <Gold.Chemscore.DEClash.Weighted>
1.3175

> <Gold.Chemscore.DEInternal.Weighted>
1.9047

> <Gold.Chemscore.Rot.Weighted>
3.9529

> <Gold.Chemscore.Internal.Correction.Weighted>
   9.000000E+99

> <Gold.Protein.RotatedTorsions>
[ 6907 6896 6895 6894 ] final  -91.59 input  -60.11 | X-H torsion
[ 7974 7965 7964 7962 ] final  131.60 input  175.53 | X-H torsion
[ 8008 7997 7996 7995 ] final -109.33 input   59.86 | X-H torsion
[ 10167 10162 10161 10158 ] final  152.96 input  -65.29 | X-H torsion
[ 10718 10713 10712 10709 ] final  -28.18 input   66.30 | X-H torsion
[ 10763 10752 10751 10750 ] final  -64.20 input  -60.55 | X-H torsion
[ 11005 11000 10999 10996 ] final   78.08 input  -57.11 | X-H torsion

> <Gold.Protein.ActiveResidues>
 VAL166  LYS551  ARG553  GLY616  TRP617  ASP618  TYR619  PRO620  LYS621  CYS622 
 ASP623  PHE694  ASN695  SER759  ASP760  ASP761  ALA762  ILE779  LEU786  VAL792 
 PHE793  MET794  SER795  GLU796  ALA797  LYS798  CYS799  TRP800  GLU811  SER814 

> <Gold.Protein.RotatedAtoms>
  150.6894  134.2253  159.4412 H   0  0  0  0  0  0  0  0  0  0  0  0  # atno 6907 bound_to 6896
  152.0207  134.9822  160.0580 H   0  0  0  0  0  0  0  0  0  0  0  0  # atno 6908 bound_to 6896
  152.1400  133.4423  159.4799 H   0  0  0  0  0  0  0  0  0  0  0  0  # atno 6909 bound_to 6896
  145.0056  139.4270  143.5270 H   0  0  0  0  0  0  0  0  0  0  0  0  # atno 7974 bound_to 7965
  154.9577  140.0399  157.2175 H   0  0  0  0  0  0  0  0  0  0  0  0  # atno 8008 bound_to 7997
  154.7919  140.2837  155.5963 H   0  0  0  0  0  0  0  0  0  0  0  0  # atno 8009 bound_to 7997
  156.2950  140.2572  156.2768 H   0  0  0  0  0  0  0  0  0  0  0  0  # atno 8010 bound_to 7997
  139.4830  144.5314  151.7717 H   0  0  0  0  0  0  0  0  0  0  0  0  # atno 10167 bound_to 10162
  156.4286  130.4440  149.7133 H   0  0  0  0  0  0  0  0  0  0  0  0  # atno 10718 bound_to 10713
  154.3265  135.6185  153.5531 H   0  0  0  0  0  0  0  0  0  0  0  0  # atno 10763 bound_to 10752
  152.9815  135.5736  154.5010 H   0  0  0  0  0  0  0  0  0  0  0  0  # atno 10764 bound_to 10752
  154.4688  135.2858  155.1634 H   0  0  0  0  0  0  0  0  0  0  0  0  # atno 10765 bound_to 10752
  139.9227  134.7735  156.1604 H   0  0  0  0  0  0  0  0  0  0  0  0  # atno 11005 bound_to 11000
  146.3460  139.9470  142.8734 LP  0  0  0  0  0  0  0  0  0  0  0  0  # atno 17320 bound_to 7965
  145.2093  140.9889  143.4110 LP  0  0  0  0  0  0  0  0  0  0  0  0  # atno 17321 bound_to 7965
  140.4841  144.1407  150.5938 LP  0  0  0  0  0  0  0  0  0  0  0  0  # atno 17342 bound_to 10162
  140.4245  143.2596  151.9673 LP  0  0  0  0  0  0  0  0  0  0  0  0  # atno 17343 bound_to 10162
  156.4045  130.7691  151.2701 LP  0  0  0  0  0  0  0  0  0  0  0  0  # atno 17370 bound_to 10713
  157.7508  131.0230  150.3814 LP  0  0  0  0  0  0  0  0  0  0  0  0  # atno 17371 bound_to 10713
  141.0761  133.6774  156.2240 LP  0  0  0  0  0  0  0  0  0  0  0  0  # atno 17394 bound_to 11000
  140.6425  134.5151  157.5571 LP  0  0  0  0  0  0  0  0  0  0  0  0  # atno 17395 bound_to 11000

$$$$
