AV-unprocessed.smi:1899|AV-procd|sdf|7708|dock4
  -GOLD-   22720 9443D 1   1.00000     0.00000
 Structure written by MMmdl.
 33 34  0  0  0  0  0  0  0  0  1 V2000
  152.4194  140.0869  157.4921 O   0  0  0  0  0  0  0  0  0  0  0  0
  151.4554  140.8527  157.4731 C   0  0  0  0  0  0  0  0  0  0  0  0
  150.3695  140.6475  156.7123 N   0  0  0  0  0  0  0  0  0  0  0  0
  150.1535  139.4917  155.8475 C   0  0  0  0  0  0  0  0  0  0  0  0
  150.3744  139.8207  154.3583 C   0  0  0  0  0  0  0  0  0  0  0  0
  149.3626  140.7203  153.8371 N   0  0  0  0  0  0  0  0  0  0  0  0
  148.3123  140.3989  152.9879 C   0  0  0  0  0  0  0  0  0  0  0  0
  147.6210  141.5673  152.7592 C   0  0  0  0  0  0  0  0  0  0  0  0
  148.2246  142.6135  153.4532 N   0  0  0  0  0  0  0  0  0  0  0  0
  149.2471  142.0353  154.0698 C   0  0  0  0  0  0  0  0  0  0  0  0
  151.4470  142.1086  158.3540 C   0  0  1  0  0  0  0  0  0  0  0  0
  152.5442  142.0292  159.4405 C   0  0  0  0  0  0  0  0  0  0  0  0
  152.7441  143.3546  160.1539 C   0  0  0  0  0  0  0  0  0  0  0  0
  152.2784  144.5248  159.6849 C   0  0  0  0  0  0  0  0  0  0  0  0
  151.5019  144.6551  158.3865 C   0  0  0  0  0  0  0  0  0  0  0  0
  151.6100  143.3909  157.5131 C   0  0  0  0  0  0  0  0  0  0  0  0
  149.6253  141.3289  156.7558 H   0  0  0  0  0  0  0  0  0  0  0  0
  150.8344  138.6990  156.1587 H   0  0  0  0  0  0  0  0  0  0  0  0
  149.1440  139.1062  155.9991 H   0  0  0  0  0  0  0  0  0  0  0  0
  151.3493  140.2902  154.2236 H   0  0  0  0  0  0  0  0  0  0  0  0
  150.3832  138.9122  153.7544 H   0  0  0  0  0  0  0  0  0  0  0  0
  148.1493  139.3945  152.6257 H   0  0  0  0  0  0  0  0  0  0  0  0
  146.7430  141.7341  152.1527 H   0  0  0  0  0  0  0  0  0  0  0  0
  149.9329  142.5821  154.7005 H   0  0  0  0  0  0  0  0  0  0  0  0
  150.4789  142.1664  158.8557 H   0  0  0  0  0  0  0  0  0  0  0  0
  152.2755  141.2741  160.1801 H   0  0  0  0  0  0  0  0  0  0  0  0
  153.5032  141.7290  159.0159 H   0  0  0  0  0  0  0  0  0  0  0  0
  153.3035  143.3312  161.0777 H   0  0  0  0  0  0  0  0  0  0  0  0
  152.4436  145.4325  160.2466 H   0  0  0  0  0  0  0  0  0  0  0  0
  150.4593  144.8533  158.6359 H   0  0  0  0  0  0  0  0  0  0  0  0
  151.8667  145.5209  157.8332 H   0  0  0  0  0  0  0  0  0  0  0  0
  152.5835  143.3820  157.0201 H   0  0  0  0  0  0  0  0  0  0  0  0
  150.8640  143.4304  156.7179 H   0  0  0  0  0  0  0  0  0  0  0  0
  1  2  2  0  0  0  0
  2  3  1  0  0  0  0
  2 11  1  0  0  0  0
  3  4  1  0  0  0  0
  3 17  1  0  0  0  0
  4  5  1  0  0  0  0
  4 18  1  0  0  0  0
  4 19  1  0  0  0  0
  5  6  1  0  0  0  0
  5 20  1  0  0  0  0
  5 21  1  0  0  0  0
  6 10  1  0  0  0  0
  6  7  1  0  0  0  0
  7  8  2  0  0  0  0
  7 22  1  0  0  0  0
  8  9  1  0  0  0  0
  8 23  1  0  0  0  0
  9 10  2  0  0  0  0
 10 24  1  0  0  0  0
 11 16  1  0  0  0  0
 11 12  1  0  0  0  0
 11 25  1  0  0  0  0
 12 13  1  0  0  0  0
 12 26  1  0  0  0  0
 12 27  1  0  0  0  0
 13 14  2  0  0  0  0
 13 28  1  0  0  0  0
 14 15  1  0  0  0  0
 14 29  1  0  0  0  0
 15 16  1  0  0  0  0
 15 30  1  0  0  0  0
 15 31  1  0  0  0  0
 16 32  1  0  0  0  0
 16 33  1  0  0  0  0
M  END
> <s_m_source_file>
AV-unprocessed.smi

> <i_m_source_file_index>
1899

> <i_lp_mmshare_version>
43012

> <i_f3d_flags>
0

> <s_epik_input>
W0NIMl0xW0NIMl1bQ0hdPVtDSF1bQ0gyXVtDQEhdMUMoPU8pW05IXVtDSDJdW0NIMl1uMltjSF1bY0hdbltjSF0y

> <s_epik_cmdline>
J2VwaWtfcHl0aG9uJywgJy1waCcsICc3LjAnLCAnLXRuJywgJzgnLCAnLW1hJywgJzIwMCcsICctbWV0YWxfYmluZGluZycsICctaW1hZScsICc8aW5maWxlLm1hZT4nLCAnLW9tYWUnLCAnPG91dGZpbGUubWFlPic=

> <r_lp_tautomer_probability>
1

> <r_epik_Ionization_Penalty>
0.598506

> <r_epik_Ionization_Penalty_Charging>
0.598506

> <r_epik_Ionization_Penalty_Neutral>
1.57027e-08

> <r_epik_State_Penalty>
0.612686

> <r_epik_Charging_Adjusted_Penalty>
1.21119

> <i_epik_Tot_Q>
0

> <i_epik_Tot_abs_Q>
0

> <r_epik_Metal_State_Penalty>
0.300712

> <b_epik_Metal_Only>
0

> <s_lp_Force_Field>
OPLS_2005

> <r_lp_Energy>
10.0214

> <b_lp_Chiralities_Consistent>
1

> <s_lp_Variant>
AV-unprocessed.smi:1899-4

> <Gold.Version>
5.8.1

> <Gold.Id.Protein>
6NUR|6NUR_protein|mol2

> <Gold.PLP.Fitness>
43.0593

> <Gold.PLP.PLP>
-35.5760

> <Gold.PLP.part.hbond>
-1.0000

> <Gold.PLP.part.metal>
0.0000

> <Gold.PLP.part.buried>
-2.0270

> <Gold.PLP.part.nonpolar>
-33.3392

> <Gold.PLP.part.repulsive>
0.1831

> <Gold.PLP.ligand.clash>
0.0000

> <Gold.PLP.ligand.torsion>
0.6045

> <Gold.PLP.Chemscore.Hbond>
1.0000

> <Gold.PLP.Chemscore.CHOScore>
1.8891

> <Gold.PLP.Chemscore.Metal>
0.0000

> <Gold.Chemscore.Hbonds>
donor molecule, donor type, donor heavy atom, donor atom, acceptor molecule, acceptor atom, score
      P1  H  7997  8009       L1     1  0.73
      P1  H  8022  8030       L1     9  0.46
      L1  C     7    22       P1  7957  0.04
      L1  C    10    24       P1  8028  0.60

> <Gold.PLP.Chemscore.Internal.Correction>
0.0251

> <Gold.Rescore>
     Score         DG    S(hbond)    S(metal)    S(lipo)     H(rot)  DE(clash)    DE(int)     intcor
     14.71     -15.21       0.96        0.00      95.16       1.80       0.10       0.41       ----

> <Gold.Chemscore.Fitness>
14.7054

> <Gold.Chemscore.DG>
-15.2071

> <Gold.Chemscore.ZeroCoef>
-5.4800

> <Gold.Chemscore.Hbond>
0.9621

> <Gold.Chemscore.Metal>
0.0000

> <Gold.Chemscore.Lipo>
95.1638

> <Gold.Chemscore.Internal_Hbond>
0.0000

> <Gold.Chemscore.DEClash>
0.0966

> <Gold.Chemscore.DEInternal>
0.4052

> <Gold.Chemscore.Rot>
1.8048

> <Gold.Chemscore.Internal.Correction>
   9.000000E+99

> <Gold.Chemscore.Hbonds>
donor molecule, donor type, donor heavy atom, donor atom, acceptor molecule, acceptor atom, score
      P1  H  7997  8009       L1     1  0.70
      P1  H  8022  8030       L1     9  0.25

> <Gold.Chemscore.Hbond.Weighted>
-3.2133

> <Gold.Chemscore.Metal.Weighted>
-0.0000

> <Gold.Chemscore.Lipo.Weighted>
-11.1342

> <Gold.Chemscore.Internal_Hbond.Weighted>
0.0000

> <Gold.Chemscore.DEClash.Weighted>
0.0966

> <Gold.Chemscore.DEInternal.Weighted>
0.4052

> <Gold.Chemscore.Rot.Weighted>
4.6203

> <Gold.Chemscore.Internal.Correction.Weighted>
   9.000000E+99

> <Gold.Protein.RotatedTorsions>
[ 6907 6896 6895 6894 ] final  139.08 input  -60.11 | X-H torsion
[ 7974 7965 7964 7962 ] final   47.18 input  175.53 | X-H torsion
[ 8008 7997 7996 7995 ] final -176.89 input   59.86 | X-H torsion
[ 10167 10162 10161 10158 ] final   38.36 input  -65.29 | X-H torsion
[ 10718 10713 10712 10709 ] final   58.36 input   66.30 | X-H torsion
[ 10763 10752 10751 10750 ] final  -29.92 input  -60.55 | X-H torsion
[ 11005 11000 10999 10996 ] final   31.97 input  -57.11 | X-H torsion

> <Gold.Protein.ActiveResidues>
 VAL166  LYS551  ARG553  GLY616  TRP617  ASP618  TYR619  PRO620  LYS621  CYS622 
 ASP623  PHE694  ASN695  SER759  ASP760  ASP761  ALA762  ILE779  LEU786  VAL792 
 PHE793  MET794  SER795  GLU796  ALA797  LYS798  CYS799  TRP800  GLU811  SER814 

> <Gold.Protein.RotatedAtoms>
  152.2590  133.5281  159.5370 H   0  0  0  0  0  0  0  0  0  0  0  0  # atno 6907 bound_to 6896
  150.7119  134.0855  159.3922 H   0  0  0  0  0  0  0  0  0  0  0  0  # atno 6908 bound_to 6896
  151.8773  135.0467  160.0536 H   0  0  0  0  0  0  0  0  0  0  0  0  # atno 6909 bound_to 6896
  146.0321  139.4776  142.9831 H   0  0  0  0  0  0  0  0  0  0  0  0  # atno 7974 bound_to 7965
  156.0003  140.1219  157.0553 H   0  0  0  0  0  0  0  0  0  0  0  0  # atno 8008 bound_to 7997
  154.4240  140.1108  156.5757 H   0  0  0  0  0  0  0  0  0  0  0  0  # atno 8009 bound_to 7997
  155.6221  140.3472  155.4657 H   0  0  0  0  0  0  0  0  0  0  0  0  # atno 8010 bound_to 7997
  140.3944  144.1809  150.6131 H   0  0  0  0  0  0  0  0  0  0  0  0  # atno 10167 bound_to 10162
  157.5590  130.8821  149.9081 H   0  0  0  0  0  0  0  0  0  0  0  0  # atno 10718 bound_to 10713
  153.7726  135.6911  153.4903 H   0  0  0  0  0  0  0  0  0  0  0  0  # atno 10763 bound_to 10752
  153.1864  135.4487  155.0093 H   0  0  0  0  0  0  0  0  0  0  0  0  # atno 10764 bound_to 10752
  154.8112  135.3378  154.7234 H   0  0  0  0  0  0  0  0  0  0  0  0  # atno 10765 bound_to 10752
  140.2783  134.3002  155.7808 H   0  0  0  0  0  0  0  0  0  0  0  0  # atno 11005 bound_to 11000
  145.7023  141.0132  143.1497 LP  0  0  0  0  0  0  0  0  0  0  0  0  # atno 17320 bound_to 7965
  144.7035  139.8659  143.7437 LP  0  0  0  0  0  0  0  0  0  0  0  0  # atno 17321 bound_to 7965
  140.4806  143.2380  151.8960 LP  0  0  0  0  0  0  0  0  0  0  0  0  # atno 17342 bound_to 10162
  139.4787  144.5273  151.8717 LP  0  0  0  0  0  0  0  0  0  0  0  0  # atno 17343 bound_to 10162
  156.0645  130.3694  150.0909 LP  0  0  0  0  0  0  0  0  0  0  0  0  # atno 17370 bound_to 10713
  156.9075  130.9641  151.3568 LP  0  0  0  0  0  0  0  0  0  0  0  0  # atno 17371 bound_to 10713
  141.2167  133.7509  156.9441 LP  0  0  0  0  0  0  0  0  0  0  0  0  # atno 17394 bound_to 11000
  140.1307  134.9357  157.2333 LP  0  0  0  0  0  0  0  0  0  0  0  0  # atno 17395 bound_to 11000

$$$$
