AV-unprocessed.smi:1032|AV-procd|sdf|4488|dock1
  -GOLD-   22720 2473D 1   1.00000     0.00000
 Structure written by MMmdl.
 47 48  0  0  0  0  0  0  0  0  3 V2000
  146.5086  131.2903  155.3173 C   0  0  0  0  0  0  0  0  0  0  0  0
  147.3863  130.8733  154.1242 C   0  0  2  0  0  0  0  0  0  0  0  0
  148.3578  131.9830  153.6830 C   0  0  0  0  0  0  0  0  0  0  0  0
  147.6437  133.1195  152.9292 C   0  0  0  0  0  0  0  0  0  0  0  0
  146.8790  132.6001  151.7663 N   0  3  2  0  0  0  0  0  0  0  0  0
  146.2921  133.6909  150.9456 C   0  0  0  0  0  0  0  0  0  0  0  0
  145.3648  134.6136  151.7629 C   0  0  2  0  0  0  0  0  0  0  0  0
  144.0429  134.1297  151.6222 O   0  0  0  0  0  0  0  0  0  0  0  0
  145.4039  136.0651  151.2413 C   0  0  0  0  0  0  0  0  0  0  0  0
  146.5163  136.8219  151.8083 N   0  0  0  0  0  0  0  0  0  0  0  0
  146.4209  138.0549  152.3265 C   0  0  0  0  0  0  0  0  0  0  0  0
  145.3687  138.6931  152.3624 O   0  0  0  0  0  0  0  0  0  0  0  0
  147.6119  138.4951  152.7680 N   0  0  0  0  0  0  0  0  0  0  0  0
  147.9183  139.7328  153.3964 C   0  0  0  0  0  0  0  0  0  0  0  0
  147.0177  140.8046  153.2070 C   0  0  0  0  0  0  0  0  0  0  0  0
  147.2900  142.0552  153.7984 C   0  0  0  0  0  0  0  0  0  0  0  0
  148.4120  142.2228  154.5308 N   0  3  0  0  0  0  0  0  0  0  0  0
  149.3099  141.2335  154.7270 C   0  0  0  0  0  0  0  0  0  0  0  0
  149.0910  139.9609  154.1611 C   0  0  0  0  0  0  0  0  0  0  0  0
  145.8827  131.5764  152.1808 C   0  0  0  0  0  0  0  0  0  0  0  0
  146.5612  130.4044  152.9121 C   0  0  0  0  0  0  0  0  0  0  0  0
  145.8641  132.1362  155.0802 H   0  0  0  0  0  0  0  0  0  0  0  0
  147.1228  131.5746  156.1721 H   0  0  0  0  0  0  0  0  0  0  0  0
  145.8680  130.4675  155.6361 H   0  0  0  0  0  0  0  0  0  0  0  0
  147.9845  130.0265  154.4634 H   0  0  0  0  0  0  0  0  0  0  0  0
  148.8904  132.3836  154.5463 H   0  0  0  0  0  0  0  0  0  0  0  0
  149.1198  131.5523  153.0320 H   0  0  0  0  0  0  0  0  0  0  0  0
  146.9728  133.6615  153.5968 H   0  0  0  0  0  0  0  0  0  0  0  0
  148.3903  133.8365  152.5850 H   0  0  0  0  0  0  0  0  0  0  0  0
  147.1015  134.2643  150.4908 H   0  0  0  0  0  0  0  0  0  0  0  0
  145.7198  133.2707  150.1167 H   0  0  0  0  0  0  0  0  0  0  0  0
  145.6425  134.5890  152.8159 H   0  0  0  0  0  0  0  0  0  0  0  0
  143.4817  134.6004  152.2199 H   0  0  0  0  0  0  0  0  0  0  0  0
  145.5089  136.0693  150.1548 H   0  0  0  0  0  0  0  0  0  0  0  0
  144.4674  136.5832  151.4522 H   0  0  0  0  0  0  0  0  0  0  0  0
  147.4194  136.3701  151.8087 H   0  0  0  0  0  0  0  0  0  0  0  0
  148.4020  137.8938  152.5856 H   0  0  0  0  0  0  0  0  0  0  0  0
  146.1208  140.6726  152.6190 H   0  0  0  0  0  0  0  0  0  0  0  0
  146.6498  142.9205  153.7059 H   0  0  0  0  0  0  0  0  0  0  0  0
  150.1747  141.4888  155.3219 H   0  0  0  0  0  0  0  0  0  0  0  0
  149.8317  139.1911  154.3141 H   0  0  0  0  0  0  0  0  0  0  0  0
  145.1267  132.0366  152.8182 H   0  0  0  0  0  0  0  0  0  0  0  0
  145.3554  131.1859  151.3113 H   0  0  0  0  0  0  0  0  0  0  0  0
  147.2181  129.8851  152.2127 H   0  0  0  0  0  0  0  0  0  0  0  0
  145.8141  129.6734  153.2233 H   0  0  0  0  0  0  0  0  0  0  0  0
  147.5520  132.1341  151.1739 H   0  0  0  0  0  0  0  0  0  0  0  0
  148.5914  143.1362  154.9490 H   0  0  0  0  0  0  0  0  0  0  0  0
  1  2  1  0  0  0  0
  1 22  1  0  0  0  0
  1 23  1  0  0  0  0
  1 24  1  0  0  0  0
  2 21  1  0  0  0  0
  2  3  1  0  0  0  0
  2 25  1  0  0  0  0
  3  4  1  0  0  0  0
  3 26  1  0  0  0  0
  3 27  1  0  0  0  0
  4  5  1  0  0  0  0
  4 28  1  0  0  0  0
  4 29  1  0  0  0  0
  5  6  1  0  0  0  0
  5 20  1  0  0  0  0
  5 46  1  0  0  0  0
  6  7  1  0  0  0  0
  6 30  1  0  0  0  0
  6 31  1  0  0  0  0
  7  8  1  0  0  0  0
  7  9  1  0  0  0  0
  7 32  1  0  0  0  0
  8 33  1  0  0  0  0
  9 10  1  0  0  0  0
  9 34  1  0  0  0  0
  9 35  1  0  0  0  0
 10 11  1  0  0  0  0
 10 36  1  0  0  0  0
 11 12  2  0  0  0  0
 11 13  1  0  0  0  0
 13 14  1  0  0  0  0
 13 37  1  0  0  0  0
 14 19  1  0  0  0  0
 14 15  2  0  0  0  0
 15 16  1  0  0  0  0
 15 38  1  0  0  0  0
 16 17  2  0  0  0  0
 16 39  1  0  0  0  0
 17 18  1  0  0  0  0
 17 47  1  0  0  0  0
 18 19  2  0  0  0  0
 18 40  1  0  0  0  0
 19 41  1  0  0  0  0
 20 21  1  0  0  0  0
 20 42  1  0  0  0  0
 20 43  1  0  0  0  0
 21 44  1  0  0  0  0
 21 45  1  0  0  0  0
M  CHG  1   5   1
M  CHG  1  17   1
M  END
> <s_m_source_file>
AV-unprocessed.smi

> <i_m_source_file_index>
1032

> <i_lp_mmshare_version>
43012

> <i_f3d_flags>
0

> <s_epik_input>
W0NIM11bQ0hdMVtDSDJdW0NIMl1OKFtDSDJdW0NIMl0xKVtDSDJdW0NASF0oW09IXSlbQ0gyXVtOSF1DKD1PKVtOSF1jMltjSF1bY0hdbltjSF1bY0hdMg==

> <s_epik_cmdline>
J2VwaWtfcHl0aG9uJywgJy1waCcsICc3LjAnLCAnLXRuJywgJzgnLCAnLW1hJywgJzIwMCcsICctbWV0YWxfYmluZGluZycsICctaW1hZScsICc8aW5maWxlLm1hZT4nLCAnLW9tYWUnLCAnPG91dGZpbGUubWFlPic=

> <r_epik_Ionization_Penalty>
1.02509

> <r_epik_Ionization_Penalty_Charging>
1.02507

> <r_epik_Ionization_Penalty_Neutral>
1.85474e-05

> <r_epik_State_Penalty>
1.07411

> <r_epik_Charging_Adjusted_Penalty>
2.09917

> <i_epik_Tot_Q>
2

> <i_epik_Tot_abs_Q>
2

> <r_epik_Metal_State_Penalty>
1.1725

> <b_epik_Metal_Only>
0

> <s_lp_Force_Field>
OPLS_2005

> <r_lp_Energy>
33.8521

> <b_lp_Chiralities_Consistent>
1

> <s_lp_Variant>
AV-unprocessed.smi:1032-7

> <Gold.Version>
5.8.1

> <Gold.Id.Protein>
6NUR|6NUR_protein|mol2

> <Gold.PLP.Fitness>
47.6551

> <Gold.PLP.PLP>
-34.5906

> <Gold.PLP.part.hbond>
-4.8827

> <Gold.PLP.part.metal>
0.0000

> <Gold.PLP.part.buried>
-1.7525

> <Gold.PLP.part.nonpolar>
-33.1509

> <Gold.PLP.part.repulsive>
4.5227

> <Gold.PLP.ligand.clash>
0.0000

> <Gold.PLP.ligand.torsion>
0.8764

> <Gold.PLP.Chemscore.Hbond>
4.9192

> <Gold.PLP.Chemscore.CHOScore>
0.0000

> <Gold.PLP.Chemscore.Metal>
0.0000

> <Gold.Chemscore.Hbonds>
donor molecule, donor type, donor heavy atom, donor atom, acceptor molecule, acceptor atom, score
      L1  H     5    46       P1 10747  0.80
      L1  H    10    36       P1  7948  0.96
      L1  H    13    37       P1  7948  0.91
      L1  H    17    47       P1  8028  2.00

> <Gold.PLP.Chemscore.Internal.Correction>
0.0596

> <Gold.Rescore>
     Score         DG    S(hbond)    S(metal)    S(lipo)     H(rot)  DE(clash)    DE(int)     intcor
     18.45     -22.41       3.91        0.00      84.19       2.34       1.72       2.24       ----

> <Gold.Chemscore.Fitness>
18.4531

> <Gold.Chemscore.DG>
-22.4062

> <Gold.Chemscore.ZeroCoef>
-5.4800

> <Gold.Chemscore.Hbond>
3.9116

> <Gold.Chemscore.Metal>
0.0000

> <Gold.Chemscore.Lipo>
84.1894

> <Gold.Chemscore.Internal_Hbond>
0.0000

> <Gold.Chemscore.DEClash>
1.7175

> <Gold.Chemscore.DEInternal>
2.2356

> <Gold.Chemscore.Rot>
2.3393

> <Gold.Chemscore.Internal.Correction>
   9.000000E+99

> <Gold.Chemscore.Hbonds>
donor molecule, donor type, donor heavy atom, donor atom, acceptor molecule, acceptor atom, score
      L1  H     5    46       P1 10747  0.79
      L1  H    10    36       P1  7948  0.91
      L1  H    13    37       P1  7948  0.90
      L1  H    17    47       P1  8028  1.00

> <Gold.Chemscore.Hbond.Weighted>
-13.0647

> <Gold.Chemscore.Metal.Weighted>
-0.0000

> <Gold.Chemscore.Lipo.Weighted>
-9.8502

> <Gold.Chemscore.Internal_Hbond.Weighted>
0.0000

> <Gold.Chemscore.DEClash.Weighted>
1.7175

> <Gold.Chemscore.DEInternal.Weighted>
2.2356

> <Gold.Chemscore.Rot.Weighted>
5.9886

> <Gold.Chemscore.Internal.Correction.Weighted>
   9.000000E+99

> <Gold.Protein.RotatedTorsions>
[ 6907 6896 6895 6894 ] final   19.26 input  -60.11 | X-H torsion
[ 7974 7965 7964 7962 ] final -155.99 input  175.53 | X-H torsion
[ 8008 7997 7996 7995 ] final -123.14 input   59.86 | X-H torsion
[ 10167 10162 10161 10158 ] final -106.02 input  -65.29 | X-H torsion
[ 10718 10713 10712 10709 ] final -130.69 input   66.30 | X-H torsion
[ 10763 10752 10751 10750 ] final  -50.25 input  -60.55 | X-H torsion
[ 11005 11000 10999 10996 ] final -162.49 input  -57.11 | X-H torsion

> <Gold.Protein.ActiveResidues>
 VAL166  LYS551  ARG553  GLY616  TRP617  ASP618  TYR619  PRO620  LYS621  CYS622 
 ASP623  PHE694  ASN695  SER759  ASP760  ASP761  ALA762  ILE779  LEU786  VAL792 
 PHE793  MET794  SER795  GLU796  ALA797  LYS798  CYS799  TRP800  GLU811  SER814 

> <Gold.Protein.RotatedAtoms>
  151.8782  135.0464  160.0485 H   0  0  0  0  0  0  0  0  0  0  0  0  # atno 6907 bound_to 6896
  152.2534  133.5230  159.5347 H   0  0  0  0  0  0  0  0  0  0  0  0  # atno 6908 bound_to 6896
  150.7091  134.0845  159.3952 H   0  0  0  0  0  0  0  0  0  0  0  0  # atno 6909 bound_to 6896
  144.7614  140.4173  143.5974 H   0  0  0  0  0  0  0  0  0  0  0  0  # atno 7974 bound_to 7965
  155.1756  140.0409  157.2872 H   0  0  0  0  0  0  0  0  0  0  0  0  # atno 8008 bound_to 7997
  154.6239  140.2507  155.7488 H   0  0  0  0  0  0  0  0  0  0  0  0  # atno 8009 bound_to 7997
  156.2448  140.2889  156.0559 H   0  0  0  0  0  0  0  0  0  0  0  0  # atno 8010 bound_to 7997
  140.1922  143.3883  152.1197 H   0  0  0  0  0  0  0  0  0  0  0  0  # atno 10167 bound_to 10162
  156.2169  130.6954  151.0713 H   0  0  0  0  0  0  0  0  0  0  0  0  # atno 10718 bound_to 10713
  154.1073  135.6554  153.4879 H   0  0  0  0  0  0  0  0  0  0  0  0  # atno 10763 bound_to 10752
  153.0268  135.5239  154.7227 H   0  0  0  0  0  0  0  0  0  0  0  0  # atno 10764 bound_to 10752
  154.6396  135.2986  155.0088 H   0  0  0  0  0  0  0  0  0  0  0  0  # atno 10765 bound_to 10752
  140.6086  134.4872  157.5213 H   0  0  0  0  0  0  0  0  0  0  0  0  # atno 11005 bound_to 11000
  145.6607  139.1581  143.2810 LP  0  0  0  0  0  0  0  0  0  0  0  0  # atno 17320 bound_to 7965
  146.1680  140.6688  142.9246 LP  0  0  0  0  0  0  0  0  0  0  0  0  # atno 17321 bound_to 7965
  139.5251  144.7092  151.5260 LP  0  0  0  0  0  0  0  0  0  0  0  0  # atno 17342 bound_to 10162
  140.6448  143.8817  150.6726 LP  0  0  0  0  0  0  0  0  0  0  0  0  # atno 17343 bound_to 10162
  157.7068  131.0753  150.6640 LP  0  0  0  0  0  0  0  0  0  0  0  0  # atno 17370 bound_to 10713
  156.6701  130.4537  149.5660 LP  0  0  0  0  0  0  0  0  0  0  0  0  # atno 17371 bound_to 10713
  139.9201  134.8165  156.1237 LP  0  0  0  0  0  0  0  0  0  0  0  0  # atno 17394 bound_to 11000
  141.0823  133.6749  156.2362 LP  0  0  0  0  0  0  0  0  0  0  0  0  # atno 17395 bound_to 11000

$$$$
