AV-unprocessed.smi:123|AV-procd|sdf|1146|dock3
  -GOLD-   2262018283D 1   1.00000     0.00000
 Structure written by MMmdl.
 43 45  0  0  0  0  0  0  0  0  1 V2000
  151.0434  138.0710  155.0452 C   0  0  0  0  0  0  0  0  0  0  0  0
  149.7807  138.2430  154.1909 C   0  0  1  0  0  0  0  0  0  0  0  0
  148.8311  137.1839  154.5195 N   0  0  0  0  0  0  0  0  0  0  0  0
  148.2896  136.9770  155.7295 C   0  0  0  0  0  0  0  0  0  0  0  0
  148.5343  137.6861  156.7070 O   0  0  0  0  0  0  0  0  0  0  0  0
  147.3275  135.7837  155.8342 C   0  0  0  0  0  0  0  0  0  0  0  0
  147.5239  134.7709  154.7733 N   0  0  0  0  0  0  0  0  0  0  0  0
  148.6029  133.8611  154.8954 C   0  0  0  0  0  0  0  0  0  0  0  0
  149.3560  133.8890  155.8699 O   0  0  0  0  0  0  0  0  0  0  0  0
  148.7575  132.9179  153.7946 C   0  0  0  0  0  0  0  0  0  0  0  0
  149.7626  132.0263  153.8177 F   0  0  0  0  0  0  0  0  0  0  0  0
  147.9079  132.9285  152.7472 C   0  0  0  0  0  0  0  0  0  0  0  0
  146.8468  133.8072  152.6474 N   0  0  0  0  0  0  0  0  0  0  0  0
  145.9827  133.7705  151.4052 C   0  0  1  0  0  0  0  0  0  0  0  0
  146.5119  132.8333  150.3094 C   0  0  0  0  0  0  0  0  0  0  0  0
  145.2199  132.3033  149.7258 C   0  0  0  0  0  0  0  0  0  0  0  0
  144.3225  132.2272  150.9562 C   0  0  0  0  0  0  0  0  0  0  0  0
  144.6955  133.3486  151.7530 O   0  0  0  0  0  0  0  0  0  0  0  0
  146.6507  134.7774  153.6586 C   0  0  0  0  0  0  0  0  0  0  0  0
  145.7512  135.6146  153.5733 O   0  0  0  0  0  0  0  0  0  0  0  0
  149.1684  139.5989  154.3578 C   0  0  0  0  0  0  0  0  0  0  0  0
  147.8797  140.0558  154.3265 C   0  0  0  0  0  0  0  0  0  0  0  0
  147.9454  141.4591  154.5481 C   0  0  0  0  0  0  0  0  0  0  0  0
  149.2706  141.7558  154.6931 C   0  0  0  0  0  0  0  0  0  0  0  0
  150.0307  140.6335  154.5759 O   0  0  0  0  0  0  0  0  0  0  0  0
  151.7932  138.8198  154.7887 H   0  0  0  0  0  0  0  0  0  0  0  0
  151.4924  137.0895  154.8905 H   0  0  0  0  0  0  0  0  0  0  0  0
  150.8223  138.1729  156.1083 H   0  0  0  0  0  0  0  0  0  0  0  0
  150.0760  138.1231  153.1469 H   0  0  0  0  0  0  0  0  0  0  0  0
  148.5782  136.5526  153.7735 H   0  0  0  0  0  0  0  0  0  0  0  0
  147.4351  135.3405  156.8254 H   0  0  0  0  0  0  0  0  0  0  0  0
  146.3038  136.1613  155.8252 H   0  0  0  0  0  0  0  0  0  0  0  0
  148.0715  132.2114  151.9560 H   0  0  0  0  0  0  0  0  0  0  0  0
  145.9141  134.8013  151.0552 H   0  0  0  0  0  0  0  0  0  0  0  0
  147.1231  133.3793  149.5905 H   0  0  0  0  0  0  0  0  0  0  0  0
  147.1057  132.0213  150.7267 H   0  0  0  0  0  0  0  0  0  0  0  0
  144.8117  133.0178  149.0096 H   0  0  0  0  0  0  0  0  0  0  0  0
  145.3383  131.3430  149.2235 H   0  0  0  0  0  0  0  0  0  0  0  0
  143.2627  132.2550  150.7032 H   0  0  0  0  0  0  0  0  0  0  0  0
  144.5101  131.3078  151.5111 H   0  0  0  0  0  0  0  0  0  0  0  0
  146.9983  139.4526  154.1672 H   0  0  0  0  0  0  0  0  0  0  0  0
  147.1272  142.1623  154.5951 H   0  0  0  0  0  0  0  0  0  0  0  0
  149.8193  142.6680  154.8746 H   0  0  0  0  0  0  0  0  0  0  0  0
  1  2  1  0  0  0  0
  1 26  1  0  0  0  0
  1 27  1  0  0  0  0
  1 28  1  0  0  0  0
  2  3  1  0  0  0  0
  2 21  1  0  0  0  0
  2 29  1  0  0  0  0
  3  4  1  0  0  0  0
  3 30  1  0  0  0  0
  4  5  2  0  0  0  0
  4  6  1  0  0  0  0
  6  7  1  0  0  0  0
  6 31  1  0  0  0  0
  6 32  1  0  0  0  0
  7 19  1  0  0  0  0
  7  8  1  0  0  0  0
  8  9  2  0  0  0  0
  8 10  1  0  0  0  0
 10 11  1  0  0  0  0
 10 12  2  0  0  0  0
 12 13  1  0  0  0  0
 12 33  1  0  0  0  0
 13 14  1  0  0  0  0
 13 19  1  0  0  0  0
 14 18  1  0  0  0  0
 14 15  1  0  0  0  0
 14 34  1  0  0  0  0
 15 16  1  0  0  0  0
 15 35  1  0  0  0  0
 15 36  1  0  0  0  0
 16 17  1  0  0  0  0
 16 37  1  0  0  0  0
 16 38  1  0  0  0  0
 17 18  1  0  0  0  0
 17 39  1  0  0  0  0
 17 40  1  0  0  0  0
 19 20  2  0  0  0  0
 21 25  1  0  0  0  0
 21 22  2  0  0  0  0
 22 23  1  0  0  0  0
 22 41  1  0  0  0  0
 23 24  2  0  0  0  0
 23 42  1  0  0  0  0
 24 25  1  0  0  0  0
 24 43  1  0  0  0  0
M  END
> <s_m_source_file>
AV-unprocessed.smi

> <i_m_source_file_index>
123

> <i_lp_mmshare_version>
43012

> <i_f3d_flags>
0

> <s_epik_input>
bzFbY0hdW2NIXVtjSF1jMVtDQEhdKFtDSDNdKVtOSF1DKD1PKVtDSDJdbjJjKD1PKWMoRilbY0hdbihjMj1PKVtDQEBIXTNbQ0gyXVtDSDJdW0NIMl1PMw==

> <s_epik_cmdline>
J2VwaWtfcHl0aG9uJywgJy1waCcsICc3LjAnLCAnLXRuJywgJzgnLCAnLW1hJywgJzIwMCcsICctbWV0YWxfYmluZGluZycsICctaW1hZScsICc8aW5maWxlLm1hZT4nLCAnLW9tYWUnLCAnPG91dGZpbGUubWFlPic=

> <r_lp_tautomer_probability>
1

> <r_epik_Ionization_Penalty>
2.31906e-08

> <r_epik_Ionization_Penalty_Charging>
3.85846e-09

> <r_epik_Ionization_Penalty_Neutral>
1.93321e-08

> <r_epik_State_Penalty>
-0

> <r_epik_Charging_Adjusted_Penalty>
3.85846e-09

> <i_epik_Tot_Q>
0

> <i_epik_Tot_abs_Q>
0

> <r_epik_Metal_State_Penalty>
-0

> <b_epik_Metal_Only>
0

> <s_epik_Chemistry_Notes>
This compound contains an acetal/aminal-like group ( X-CH(R)-Y where X, Y are N, S, or O) that may be acid/base labile, releasing an aldehyde.

> <s_lp_Force_Field>
OPLS_2005

> <r_lp_Energy>
16.2808

> <b_lp_Chiralities_Consistent>
1

> <s_lp_Variant>
AV-unprocessed.smi:123-4

> <Gold.Version>
5.8.1

> <Gold.Id.Protein>
6NUR|6NUR_protein|mol2

> <Gold.PLP.Fitness>
44.9864

> <Gold.PLP.PLP>
-37.2819

> <Gold.PLP.part.hbond>
-2.0000

> <Gold.PLP.part.metal>
0.0000

> <Gold.PLP.part.buried>
-2.4684

> <Gold.PLP.part.nonpolar>
-32.6003

> <Gold.PLP.part.repulsive>
0.2872

> <Gold.PLP.ligand.clash>
0.0000

> <Gold.PLP.ligand.torsion>
1.4362

> <Gold.PLP.Chemscore.Hbond>
1.6960

> <Gold.PLP.Chemscore.CHOScore>
1.8123

> <Gold.PLP.Chemscore.Metal>
0.0000

> <Gold.Chemscore.Hbonds>
donor molecule, donor type, donor heavy atom, donor atom, acceptor molecule, acceptor atom, score
      L1  H     3    30       P1  7948  0.80
      P1  H  7989  7998       L1    25  0.82
      L1  C    12    33       P1 10747  1.00
      L1  C    24    43       P1  8028  0.92

> <Gold.PLP.Chemscore.Internal.Correction>
0.0518

> <Gold.Rescore>
     Score         DG    S(hbond)    S(metal)    S(lipo)     H(rot)  DE(clash)    DE(int)     intcor
     11.22     -13.64       1.33        0.00      80.58       2.23       0.21       2.21       ----

> <Gold.Chemscore.Fitness>
11.2155

> <Gold.Chemscore.DG>
-13.6396

> <Gold.Chemscore.ZeroCoef>
-5.4800

> <Gold.Chemscore.Hbond>
1.3332

> <Gold.Chemscore.Metal>
0.0000

> <Gold.Chemscore.Lipo>
80.5772

> <Gold.Chemscore.Internal_Hbond>
0.0000

> <Gold.Chemscore.DEClash>
0.2116

> <Gold.Chemscore.DEInternal>
2.2125

> <Gold.Chemscore.Rot>
2.2347

> <Gold.Chemscore.Internal.Correction>
   9.000000E+99

> <Gold.Chemscore.Hbonds>
donor molecule, donor type, donor heavy atom, donor atom, acceptor molecule, acceptor atom, score
      L1  H     3    30       P1  7948  0.78
      P1  H  7989  7998       L1    25  0.68

> <Gold.Chemscore.Hbond.Weighted>
-4.4529

> <Gold.Chemscore.Metal.Weighted>
-0.0000

> <Gold.Chemscore.Lipo.Weighted>
-9.4275

> <Gold.Chemscore.Internal_Hbond.Weighted>
0.0000

> <Gold.Chemscore.DEClash.Weighted>
0.2116

> <Gold.Chemscore.DEInternal.Weighted>
2.2125

> <Gold.Chemscore.Rot.Weighted>
5.7208

> <Gold.Chemscore.Internal.Correction.Weighted>
   9.000000E+99

> <Gold.Protein.RotatedTorsions>
[ 6907 6896 6895 6894 ] final  126.52 input  -60.11 | X-H torsion
[ 7974 7965 7964 7962 ] final   41.52 input  175.53 | X-H torsion
[ 8008 7997 7996 7995 ] final   -6.04 input   59.86 | X-H torsion
[ 10167 10162 10161 10158 ] final -165.41 input  -65.29 | X-H torsion
[ 10718 10713 10712 10709 ] final   48.84 input   66.30 | X-H torsion
[ 10763 10752 10751 10750 ] final   31.16 input  -60.55 | X-H torsion
[ 11005 11000 10999 10996 ] final  121.05 input  -57.11 | X-H torsion

> <Gold.Protein.ActiveResidues>
 VAL166  LYS551  ARG553  GLY616  TRP617  ASP618  TYR619  PRO620  LYS621  CYS622 
 ASP623  PHE694  ASN695  SER759  ASP760  ASP761  ALA762  ILE779  LEU786  VAL792 
 PHE793  MET794  SER795  GLU796  ALA797  LYS798  CYS799  TRP800  GLU811  SER814 

> <Gold.Protein.RotatedAtoms>
  152.3895  133.6659  159.6226 H   0  0  0  0  0  0  0  0  0  0  0  0  # atno 6907 bound_to 6896
  150.7807  133.8978  159.3341 H   0  0  0  0  0  0  0  0  0  0  0  0  # atno 6908 bound_to 6896
  151.6767  135.0969  160.0259 H   0  0  0  0  0  0  0  0  0  0  0  0  # atno 6909 bound_to 6896
  146.0816  139.5406  142.9533 H   0  0  0  0  0  0  0  0  0  0  0  0  # atno 7974 bound_to 7965
  154.5978  140.2443  155.7833 H   0  0  0  0  0  0  0  0  0  0  0  0  # atno 8008 bound_to 7997
  156.2291  140.2973  156.0095 H   0  0  0  0  0  0  0  0  0  0  0  0  # atno 8009 bound_to 7997
  155.2263  140.0402  157.2946 H   0  0  0  0  0  0  0  0  0  0  0  0  # atno 8010 bound_to 7997
  139.6184  144.0674  152.1909 H   0  0  0  0  0  0  0  0  0  0  0  0  # atno 10167 bound_to 10162
  157.4727  130.8265  149.8006 H   0  0  0  0  0  0  0  0  0  0  0  0  # atno 10718 bound_to 10713
  153.0331  135.6446  154.1156 H   0  0  0  0  0  0  0  0  0  0  0  0  # atno 10763 bound_to 10752
  154.0875  135.2869  155.3280 H   0  0  0  0  0  0  0  0  0  0  0  0  # atno 10764 bound_to 10752
  154.6488  135.5433  153.7940 H   0  0  0  0  0  0  0  0  0  0  0  0  # atno 10765 bound_to 10752
  139.9210  134.9637  156.7899 H   0  0  0  0  0  0  0  0  0  0  0  0  # atno 11005 bound_to 11000
  145.6207  141.0323  143.1916 LP  0  0  0  0  0  0  0  0  0  0  0  0  # atno 17320 bound_to 7965
  144.7297  139.7763  143.7351 LP  0  0  0  0  0  0  0  0  0  0  0  0  # atno 17321 bound_to 7965
  140.0309  144.6081  150.7488 LP  0  0  0  0  0  0  0  0  0  0  0  0  # atno 17342 bound_to 10162
  140.7366  143.2755  151.3756 LP  0  0  0  0  0  0  0  0  0  0  0  0  # atno 17343 bound_to 10162
  156.0081  130.3846  150.2358 LP  0  0  0  0  0  0  0  0  0  0  0  0  # atno 17370 bound_to 10713
  157.0541  131.0071  151.3244 LP  0  0  0  0  0  0  0  0  0  0  0  0  # atno 17371 bound_to 10713
  140.6475  133.9762  155.7738 LP  0  0  0  0  0  0  0  0  0  0  0  0  # atno 17394 bound_to 11000
  141.0730  134.0177  157.3498 LP  0  0  0  0  0  0  0  0  0  0  0  0  # atno 17395 bound_to 11000

$$$$
