AV-unprocessed.smi:2076|AV-procd|sdf|8458|dock4
  -GOLD-   2272011153D 1   1.00000     0.00000
 Structure written by MMmdl.
 44 45  0  0  0  0  0  0  0  0  1 V2000
  144.6549  144.4017  154.2011 C   0  0  0  0  0  0  0  0  0  0  0  0
  145.6287  143.3936  154.7357 C   0  0  0  0  0  0  0  0  0  0  0  0
  145.7700  142.9266  156.0723 C   0  0  0  0  0  0  0  0  0  0  0  0
  146.7943  142.0243  156.0087 C   0  0  0  0  0  0  0  0  0  0  0  0
  147.4113  141.1918  157.0841 C   0  0  0  0  0  0  0  0  0  0  0  0
  147.2136  141.9856  154.6904 N   0  0  0  0  0  0  0  0  0  0  0  0
  148.2663  141.1852  154.0842 C   0  0  0  0  0  0  0  0  0  0  0  0
  149.5732  141.3032  154.8696 C   0  0  0  0  0  0  0  0  0  0  0  0
  150.3455  140.3468  154.9293 O   0  0  0  0  0  0  0  0  0  0  0  0
  149.8070  142.4810  155.4658 N   0  0  0  0  0  0  0  0  0  0  0  0
  150.9931  142.7937  156.2544 C   0  0  0  0  0  0  0  0  0  0  0  0
  150.9329  142.1782  157.6797 C   0  0  1  0  0  0  0  0  0  0  0  0
  151.3188  140.6793  157.5922 C   0  0  0  0  0  0  0  0  0  0  0  0
  151.7439  142.9176  158.6753 N   0  0  0  0  0  0  0  0  0  0  0  0
  152.0466  142.1105  159.8631 C   0  0  0  0  0  0  0  0  0  0  0  0
  152.8656  142.8772  160.9160 C   0  0  0  0  0  0  0  0  0  0  0  0
  152.1750  144.0604  161.2920 O   0  0  0  0  0  0  0  0  0  0  0  0
  151.9316  144.9107  160.1803 C   0  0  0  0  0  0  0  0  0  0  0  0
  151.1029  144.1592  159.1242 C   0  0  0  0  0  0  0  0  0  0  0  0
  146.4961  142.8269  153.9132 N   0  0  0  0  0  0  0  0  0  0  0  0
  143.9746  144.7443  154.9811 H   0  0  0  0  0  0  0  0  0  0  0  0
  144.0514  143.9781  153.3979 H   0  0  0  0  0  0  0  0  0  0  0  0
  145.1728  145.2757  153.8057 H   0  0  0  0  0  0  0  0  0  0  0  0
  145.2032  143.2102  156.9467 H   0  0  0  0  0  0  0  0  0  0  0  0
  146.9957  141.4461  158.0592 H   0  0  0  0  0  0  0  0  0  0  0  0
  148.4888  141.3484  157.1302 H   0  0  0  0  0  0  0  0  0  0  0  0
  147.2284  140.1319  156.9071 H   0  0  0  0  0  0  0  0  0  0  0  0
  147.9513  140.1411  154.0409 H   0  0  0  0  0  0  0  0  0  0  0  0
  148.4164  141.5115  153.0546 H   0  0  0  0  0  0  0  0  0  0  0  0
  149.1198  143.2133  155.3589 H   0  0  0  0  0  0  0  0  0  0  0  0
  151.8882  142.4446  155.7361 H   0  0  0  0  0  0  0  0  0  0  0  0
  151.0440  143.8808  156.2871 H   0  0  0  0  0  0  0  0  0  0  0  0
  149.8902  142.2206  157.9989 H   0  0  0  0  0  0  0  0  0  0  0  0
  150.7646  140.1481  156.8191 H   0  0  0  0  0  0  0  0  0  0  0  0
  151.1017  140.1423  158.5144 H   0  0  0  0  0  0  0  0  0  0  0  0
  152.3802  140.5591  157.3729 H   0  0  0  0  0  0  0  0  0  0  0  0
  151.1193  141.7553  160.3152 H   0  0  0  0  0  0  0  0  0  0  0  0
  152.6243  141.2288  159.5920 H   0  0  0  0  0  0  0  0  0  0  0  0
  153.0171  142.2587  161.8006 H   0  0  0  0  0  0  0  0  0  0  0  0
  153.8538  143.1298  160.5287 H   0  0  0  0  0  0  0  0  0  0  0  0
  151.3962  145.7970  160.5209 H   0  0  0  0  0  0  0  0  0  0  0  0
  152.8782  145.2518  159.7580 H   0  0  0  0  0  0  0  0  0  0  0  0
  150.9620  144.8444  158.2909 H   0  0  0  0  0  0  0  0  0  0  0  0
  150.1133  143.9401  159.5281 H   0  0  0  0  0  0  0  0  0  0  0  0
  1  2  1  0  0  0  0
  1 21  1  0  0  0  0
  1 22  1  0  0  0  0
  1 23  1  0  0  0  0
  2 20  2  0  0  0  0
  2  3  1  0  0  0  0
  3  4  2  0  0  0  0
  3 24  1  0  0  0  0
  4  5  1  0  0  0  0
  4  6  1  0  0  0  0
  5 25  1  0  0  0  0
  5 26  1  0  0  0  0
  5 27  1  0  0  0  0
  6  7  1  0  0  0  0
  6 20  1  0  0  0  0
  7  8  1  0  0  0  0
  7 28  1  0  0  0  0
  7 29  1  0  0  0  0
  8  9  2  0  0  0  0
  8 10  1  0  0  0  0
 10 11  1  0  0  0  0
 10 30  1  0  0  0  0
 11 12  1  0  0  0  0
 11 31  1  0  0  0  0
 11 32  1  0  0  0  0
 12 13  1  0  0  0  0
 12 14  1  0  0  0  0
 12 33  1  0  0  0  0
 13 34  1  0  0  0  0
 13 35  1  0  0  0  0
 13 36  1  0  0  0  0
 14 19  1  0  0  0  0
 14 15  1  0  0  0  0
 15 16  1  0  0  0  0
 15 37  1  0  0  0  0
 15 38  1  0  0  0  0
 16 17  1  0  0  0  0
 16 39  1  0  0  0  0
 16 40  1  0  0  0  0
 17 18  1  0  0  0  0
 18 19  1  0  0  0  0
 18 41  1  0  0  0  0
 18 42  1  0  0  0  0
 19 43  1  0  0  0  0
 19 44  1  0  0  0  0
M  END
> <s_m_source_file>
AV-unprocessed.smi

> <i_m_source_file_index>
2076

> <i_lp_mmshare_version>
43012

> <i_f3d_flags>
0

> <s_epik_input>
W0NIM11jMVtjSF1jKFtDSDNdKW4objEpW0NIMl1DKD1PKVtOSF1bQ0gyXVtDQEhdKFtDSDNdKU4yW0NIMl1bQ0gyXU9bQ0gyXVtDSDJdMg==

> <s_epik_cmdline>
J2VwaWtfcHl0aG9uJywgJy1waCcsICc3LjAnLCAnLXRuJywgJzgnLCAnLW1hJywgJzIwMCcsICctbWV0YWxfYmluZGluZycsICctaW1hZScsICc8aW5maWxlLm1hZT4nLCAnLW9tYWUnLCAnPG91dGZpbGUubWFlPic=

> <r_lp_tautomer_probability>
1

> <r_epik_Ionization_Penalty>
0.197284

> <r_epik_Ionization_Penalty_Charging>
0

> <r_epik_Ionization_Penalty_Neutral>
0.197284

> <r_epik_State_Penalty>
0.186684

> <r_epik_Charging_Adjusted_Penalty>
0.186684

> <i_epik_Tot_Q>
0

> <i_epik_Tot_abs_Q>
0

> <r_epik_Metal_State_Penalty>
0.186636

> <b_epik_Metal_Only>
0

> <s_lp_Force_Field>
OPLS_2005

> <r_lp_Energy>
27.1724

> <b_lp_Chiralities_Consistent>
1

> <s_lp_Variant>
AV-unprocessed.smi:2076-2

> <Gold.Version>
5.8.1

> <Gold.Id.Protein>
6NUR|6NUR_protein|mol2

> <Gold.PLP.Fitness>
41.9119

> <Gold.PLP.PLP>
-38.6373

> <Gold.PLP.part.hbond>
-1.6653

> <Gold.PLP.part.metal>
0.0000

> <Gold.PLP.part.buried>
-5.4971

> <Gold.PLP.part.nonpolar>
-31.5038

> <Gold.PLP.part.repulsive>
0.6296

> <Gold.PLP.ligand.clash>
0.0000

> <Gold.PLP.ligand.torsion>
1.1928

> <Gold.PLP.Chemscore.Hbond>
1.8640

> <Gold.PLP.Chemscore.CHOScore>
0.0000

> <Gold.PLP.Chemscore.Metal>
0.0000

> <Gold.Chemscore.Hbonds>
donor molecule, donor type, donor heavy atom, donor atom, acceptor molecule, acceptor atom, score
      L1  H    10    30       P1  8028  0.85
      P1  H  7989  7998       L1     9  0.95

> <Gold.PLP.Chemscore.Internal.Correction>
0.0682

> <Gold.Rescore>
     Score         DG    S(hbond)    S(metal)    S(lipo)     H(rot)  DE(clash)    DE(int)     intcor
     14.68     -16.49       1.49        0.00      88.69       1.70       0.71       1.10       ----

> <Gold.Chemscore.Fitness>
14.6839

> <Gold.Chemscore.DG>
-16.4912

> <Gold.Chemscore.ZeroCoef>
-5.4800

> <Gold.Chemscore.Hbond>
1.4926

> <Gold.Chemscore.Metal>
0.0000

> <Gold.Chemscore.Lipo>
88.6851

> <Gold.Chemscore.Internal_Hbond>
0.0000

> <Gold.Chemscore.DEClash>
0.7060

> <Gold.Chemscore.DEInternal>
1.1014

> <Gold.Chemscore.Rot>
1.6993

> <Gold.Chemscore.Internal.Correction>
   9.000000E+99

> <Gold.Chemscore.Hbonds>
donor molecule, donor type, donor heavy atom, donor atom, acceptor molecule, acceptor atom, score
      L1  H    10    30       P1  8028  0.81
      P1  H  7989  7998       L1     9  0.20

> <Gold.Chemscore.Hbond.Weighted>
-4.9853

> <Gold.Chemscore.Metal.Weighted>
-0.0000

> <Gold.Chemscore.Lipo.Weighted>
-10.3762

> <Gold.Chemscore.Internal_Hbond.Weighted>
0.0000

> <Gold.Chemscore.DEClash.Weighted>
0.7060

> <Gold.Chemscore.DEInternal.Weighted>
1.1014

> <Gold.Chemscore.Rot.Weighted>
4.3502

> <Gold.Chemscore.Internal.Correction.Weighted>
   9.000000E+99

> <Gold.Protein.RotatedTorsions>
[ 6907 6896 6895 6894 ] final  -95.21 input  -60.11 | X-H torsion
[ 7974 7965 7964 7962 ] final  -21.28 input  175.53 | X-H torsion
[ 8008 7997 7996 7995 ] final  177.12 input   59.86 | X-H torsion
[ 10167 10162 10161 10158 ] final -129.99 input  -65.29 | X-H torsion
[ 10718 10713 10712 10709 ] final   -1.24 input   66.30 | X-H torsion
[ 10763 10752 10751 10750 ] final  -87.73 input  -60.55 | X-H torsion
[ 11005 11000 10999 10996 ] final  -17.79 input  -57.11 | X-H torsion

> <Gold.Protein.ActiveResidues>
 VAL166  LYS551  ARG553  GLY616  TRP617  ASP618  TYR619  PRO620  LYS621  CYS622 
 ASP623  PHE694  ASN695  SER759  ASP760  ASP761  ALA762  ILE779  LEU786  VAL792 
 PHE793  MET794  SER795  GLU796  ALA797  LYS798  CYS799  TRP800  GLU811  SER814 

> <Gold.Protein.RotatedAtoms>
  150.6959  134.1693  159.4205 H   0  0  0  0  0  0  0  0  0  0  0  0  # atno 6907 bound_to 6896
  151.9671  135.0093  160.0560 H   0  0  0  0  0  0  0  0  0  0  0  0  # atno 6908 bound_to 6896
  152.1875  133.4715  159.5027 H   0  0  0  0  0  0  0  0  0  0  0  0  # atno 6909 bound_to 6896
  146.1741  140.4320  142.8520 H   0  0  0  0  0  0  0  0  0  0  0  0  # atno 7974 bound_to 7965
  156.0691  140.1366  156.9850 H   0  0  0  0  0  0  0  0  0  0  0  0  # atno 8008 bound_to 7997
  154.4522  140.0975  156.6703 H   0  0  0  0  0  0  0  0  0  0  0  0  # atno 8009 bound_to 7997
  155.5257  140.3457  155.4418 H   0  0  0  0  0  0  0  0  0  0  0  0  # atno 8010 bound_to 7997
  139.9340  143.6239  152.2522 H   0  0  0  0  0  0  0  0  0  0  0  0  # atno 10167 bound_to 10162
  156.8086  130.5417  149.5712 H   0  0  0  0  0  0  0  0  0  0  0  0  # atno 10718 bound_to 10713
  154.6369  135.5402  153.7744 H   0  0  0  0  0  0  0  0  0  0  0  0  # atno 10763 bound_to 10752
  153.0313  135.6449  154.1218 H   0  0  0  0  0  0  0  0  0  0  0  0  # atno 10764 bound_to 10752
  154.1145  135.2924  155.3203 H   0  0  0  0  0  0  0  0  0  0  0  0  # atno 10765 bound_to 10752
  140.8204  133.8073  155.9653 H   0  0  0  0  0  0  0  0  0  0  0  0  # atno 11005 bound_to 11000
  144.8209  140.6548  143.6353 LP  0  0  0  0  0  0  0  0  0  0  0  0  # atno 17320 bound_to 7965
  145.4259  139.1556  143.4049 LP  0  0  0  0  0  0  0  0  0  0  0  0  # atno 17321 bound_to 7965
  139.6759  144.7658  151.1698 LP  0  0  0  0  0  0  0  0  0  0  0  0  # atno 17342 bound_to 10162
  140.7629  143.5796  150.8908 LP  0  0  0  0  0  0  0  0  0  0  0  0  # atno 17343 bound_to 10162
  156.1058  130.6003  150.9968 LP  0  0  0  0  0  0  0  0  0  0  0  0  # atno 17370 bound_to 10713
  157.6517  131.0896  150.8035 LP  0  0  0  0  0  0  0  0  0  0  0  0  # atno 17371 bound_to 10713
  140.9105  134.2266  157.4988 LP  0  0  0  0  0  0  0  0  0  0  0  0  # atno 17394 bound_to 11000
  139.8709  134.9748  156.4859 LP  0  0  0  0  0  0  0  0  0  0  0  0  # atno 17395 bound_to 11000

$$$$
