AV-unprocessed.smi:3177|AV-procd|sdf|12128|dock4
  -GOLD-   2272017573D 1   1.00000     0.00000
 Structure written by MMmdl.
 30 31  0  0  0  0  0  0  0  0  1 V2000
  154.3118  140.6756  161.2896 C   0  0  0  0  0  0  0  0  0  0  0  0
  153.9551  141.9965  160.8965 O   0  0  0  0  0  0  0  0  0  0  0  0
  153.0590  142.1517  159.8590 C   0  0  0  0  0  0  0  0  0  0  0  0
  152.7262  143.4571  159.4457 C   0  0  0  0  0  0  0  0  0  0  0  0
  151.8143  143.6247  158.3862 C   0  0  0  0  0  0  0  0  0  0  0  0
  151.2689  142.4760  157.7652 C   0  0  0  0  0  0  0  0  0  0  0  0
  150.3244  142.5161  156.7047 N   0  0  0  0  0  0  0  0  0  0  0  0
  150.2132  141.6888  155.6486 C   0  0  0  0  0  0  0  0  0  0  0  0
  150.9105  140.6893  155.4760 O   0  0  0  0  0  0  0  0  0  0  0  0
  149.0916  142.0267  154.6464 C   0  0  2  0  0  0  0  0  0  0  0  0
  147.6788  141.7006  155.1424 C   0  0  0  0  0  0  0  0  0  0  0  0
  147.5479  140.2100  154.8774 C   0  0  0  0  0  0  0  0  0  0  0  0
  148.5326  139.9547  153.7311 C   0  0  0  0  0  0  0  0  0  0  0  0
  149.1920  141.1976  153.4915 O   0  0  0  0  0  0  0  0  0  0  0  0
  151.6541  141.2144  158.2643 C   0  0  0  0  0  0  0  0  0  0  0  0
  152.5283  141.0468  159.2789 N   0  0  0  0  0  0  0  0  0  0  0  0
  155.0257  140.7246  162.1116 H   0  0  0  0  0  0  0  0  0  0  0  0
  154.7859  140.1303  160.4722 H   0  0  0  0  0  0  0  0  0  0  0  0
  153.4435  140.1153  161.6390 H   0  0  0  0  0  0  0  0  0  0  0  0
  153.1592  144.3161  159.9369 H   0  0  0  0  0  0  0  0  0  0  0  0
  151.5421  144.6239  158.0834 H   0  0  0  0  0  0  0  0  0  0  0  0
  149.6196  143.2360  156.7753 H   0  0  0  0  0  0  0  0  0  0  0  0
  149.1815  143.0768  154.3665 H   0  0  0  0  0  0  0  0  0  0  0  0
  147.4995  141.9614  156.1862 H   0  0  0  0  0  0  0  0  0  0  0  0
  146.9505  142.2464  154.5414 H   0  0  0  0  0  0  0  0  0  0  0  0
  147.8457  139.6404  155.7587 H   0  0  0  0  0  0  0  0  0  0  0  0
  146.5262  139.9258  154.6241 H   0  0  0  0  0  0  0  0  0  0  0  0
  149.2623  139.1931  154.0088 H   0  0  0  0  0  0  0  0  0  0  0  0
  148.0268  139.6234  152.8239 H   0  0  0  0  0  0  0  0  0  0  0  0
  151.2527  140.3087  157.8335 H   0  0  0  0  0  0  0  0  0  0  0  0
  1  2  1  0  0  0  0
  1 17  1  0  0  0  0
  1 18  1  0  0  0  0
  1 19  1  0  0  0  0
  2  3  1  0  0  0  0
  3 16  1  0  0  0  0
  3  4  2  0  0  0  0
  4  5  1  0  0  0  0
  4 20  1  0  0  0  0
  5  6  2  0  0  0  0
  5 21  1  0  0  0  0
  6  7  1  0  0  0  0
  6 15  1  0  0  0  0
  7  8  1  0  0  0  0
  7 22  1  0  0  0  0
  8  9  2  0  0  0  0
  8 10  1  0  0  0  0
 10 14  1  0  0  0  0
 10 11  1  0  0  0  0
 10 23  1  0  0  0  0
 11 12  1  0  0  0  0
 11 24  1  0  0  0  0
 11 25  1  0  0  0  0
 12 13  1  0  0  0  0
 12 26  1  0  0  0  0
 12 27  1  0  0  0  0
 13 14  1  0  0  0  0
 13 28  1  0  0  0  0
 13 29  1  0  0  0  0
 15 16  2  0  0  0  0
 15 30  1  0  0  0  0
M  END
> <s_m_source_file>
AV-unprocessed.smi

> <i_m_source_file_index>
3177

> <i_lp_mmshare_version>
43012

> <i_f3d_flags>
0

> <s_epik_input>
W0NIM11PYzFbY0hdW2NIXWMoW2NIXW4xKVtOSF1DKD1PKVtDQEBIXTJbQ0gyXVtDSDJdW0NIMl1PMg==

> <s_epik_cmdline>
J2VwaWtfcHl0aG9uJywgJy1waCcsICc3LjAnLCAnLXRuJywgJzgnLCAnLW1hJywgJzIwMCcsICctbWV0YWxfYmluZGluZycsICctaW1hZScsICc8aW5maWxlLm1hZT4nLCAnLW9tYWUnLCAnPG91dGZpbGUubWFlPic=

> <r_lp_tautomer_probability>
1

> <r_epik_Ionization_Penalty>
2.59882e-05

> <r_epik_Ionization_Penalty_Charging>
0

> <r_epik_Ionization_Penalty_Neutral>
2.59882e-05

> <r_epik_State_Penalty>
-0

> <r_epik_Charging_Adjusted_Penalty>
0

> <i_epik_Tot_Q>
0

> <i_epik_Tot_abs_Q>
0

> <r_epik_Metal_State_Penalty>
-0

> <b_epik_Metal_Only>
0

> <s_lp_Force_Field>
OPLS_2005

> <r_lp_Energy>
23.6564

> <b_lp_Chiralities_Consistent>
1

> <s_lp_Variant>
AV-unprocessed.smi:3177-1

> <Gold.Version>
5.8.1

> <Gold.Id.Protein>
6NUR|6NUR_protein|mol2

> <Gold.PLP.Fitness>
34.8173

> <Gold.PLP.PLP>
-28.5445

> <Gold.PLP.part.hbond>
-4.2750

> <Gold.PLP.part.metal>
0.0000

> <Gold.PLP.part.buried>
1.7420

> <Gold.PLP.part.nonpolar>
-27.8951

> <Gold.PLP.part.repulsive>
3.3513

> <Gold.PLP.ligand.clash>
0.0000

> <Gold.PLP.ligand.torsion>
0.5412

> <Gold.PLP.Chemscore.Hbond>
2.4360

> <Gold.PLP.Chemscore.CHOScore>
0.0000

> <Gold.PLP.Chemscore.Metal>
0.0000

> <Gold.Chemscore.Hbonds>
donor molecule, donor type, donor heavy atom, donor atom, acceptor molecule, acceptor atom, score
      L1  H     7    22       P1  8028  0.78
      P1  H  7989  7998       L1     9  0.69
      P1  H  8011  8017       L1    14  0.95

> <Gold.PLP.Chemscore.Internal.Correction>
0.0471

> <Gold.Rescore>
     Score         DG    S(hbond)    S(metal)    S(lipo)     H(rot)  DE(clash)    DE(int)     intcor
     10.88     -14.22       1.04        0.00      72.20       1.24       1.83       1.51       ----

> <Gold.Chemscore.Fitness>
10.8774

> <Gold.Chemscore.DG>
-14.2174

> <Gold.Chemscore.ZeroCoef>
-5.4800

> <Gold.Chemscore.Hbond>
1.0356

> <Gold.Chemscore.Metal>
0.0000

> <Gold.Chemscore.Lipo>
72.2040

> <Gold.Chemscore.Internal_Hbond>
0.0000

> <Gold.Chemscore.DEClash>
1.8257

> <Gold.Chemscore.DEInternal>
1.5142

> <Gold.Chemscore.Rot>
1.2381

> <Gold.Chemscore.Internal.Correction>
   9.000000E+99

> <Gold.Chemscore.Hbonds>
donor molecule, donor type, donor heavy atom, donor atom, acceptor molecule, acceptor atom, score
      L1  H     7    22       P1  8028  0.75
      P1  H  7989  7998       L1     9  0.31
      P1  H  8011  8017       L1    14  0.20

> <Gold.Chemscore.Hbond.Weighted>
-3.4589

> <Gold.Chemscore.Metal.Weighted>
-0.0000

> <Gold.Chemscore.Lipo.Weighted>
-8.4479

> <Gold.Chemscore.Internal_Hbond.Weighted>
0.0000

> <Gold.Chemscore.DEClash.Weighted>
1.8257

> <Gold.Chemscore.DEInternal.Weighted>
1.5142

> <Gold.Chemscore.Rot.Weighted>
3.1694

> <Gold.Chemscore.Internal.Correction.Weighted>
   9.000000E+99

> <Gold.Protein.RotatedTorsions>
[ 6907 6896 6895 6894 ] final -100.30 input  -60.11 | X-H torsion
[ 7974 7965 7964 7962 ] final  -52.58 input  175.53 | X-H torsion
[ 8008 7997 7996 7995 ] final  -91.82 input   59.86 | X-H torsion
[ 10167 10162 10161 10158 ] final   54.98 input  -65.29 | X-H torsion
[ 10718 10713 10712 10709 ] final  -62.43 input   66.30 | X-H torsion
[ 10763 10752 10751 10750 ] final  172.65 input  -60.55 | X-H torsion
[ 11005 11000 10999 10996 ] final -126.75 input  -57.11 | X-H torsion

> <Gold.Protein.ActiveResidues>
 VAL166  LYS551  ARG553  GLY616  TRP617  ASP618  TYR619  PRO620  LYS621  CYS622 
 ASP623  PHE694  ASN695  SER759  ASP760  ASP761  ALA762  ILE779  LEU786  VAL792 
 PHE793  MET794  SER795  GLU796  ALA797  LYS798  CYS799  TRP800  GLU811  SER814 

> <Gold.Protein.RotatedAtoms>
  150.7111  134.0908  159.3930 H   0  0  0  0  0  0  0  0  0  0  0  0  # atno 6907 bound_to 6896
  151.8893  135.0420  160.0505 H   0  0  0  0  0  0  0  0  0  0  0  0  # atno 6908 bound_to 6896
  152.2505  133.5175  159.5359 H   0  0  0  0  0  0  0  0  0  0  0  0  # atno 6909 bound_to 6896
  145.9064  140.7952  142.9717 H   0  0  0  0  0  0  0  0  0  0  0  0  # atno 7974 bound_to 7965
  154.7154  140.0515  157.0590 H   0  0  0  0  0  0  0  0  0  0  0  0  # atno 8008 bound_to 7997
  155.0498  140.3178  155.4677 H   0  0  0  0  0  0  0  0  0  0  0  0  # atno 8009 bound_to 7997
  156.2801  140.2118  156.5623 H   0  0  0  0  0  0  0  0  0  0  0  0  # atno 8010 bound_to 7997
  140.2243  144.3755  150.6438 H   0  0  0  0  0  0  0  0  0  0  0  0  # atno 10167 bound_to 10162
  156.0856  130.4209  150.1134 H   0  0  0  0  0  0  0  0  0  0  0  0  # atno 10718 bound_to 10713
  154.4290  135.2759  155.1925 H   0  0  0  0  0  0  0  0  0  0  0  0  # atno 10763 bound_to 10752
  154.3839  135.6081  153.5809 H   0  0  0  0  0  0  0  0  0  0  0  0  # atno 10764 bound_to 10752
  152.9835  135.5887  154.4598 H   0  0  0  0  0  0  0  0  0  0  0  0  # atno 10765 bound_to 10752
  140.9656  134.0877  157.3924 H   0  0  0  0  0  0  0  0  0  0  0  0  # atno 11005 bound_to 11000
  144.6739  140.1757  143.7410 LP  0  0  0  0  0  0  0  0  0  0  0  0  # atno 17320 bound_to 7965
  145.8727  139.2280  143.1652 LP  0  0  0  0  0  0  0  0  0  0  0  0  # atno 17321 bound_to 7965
  140.6232  143.2178  151.6651 LP  0  0  0  0  0  0  0  0  0  0  0  0  # atno 17342 bound_to 10162
  139.5133  144.3448  152.0706 LP  0  0  0  0  0  0  0  0  0  0  0  0  # atno 17343 bound_to 10162
  156.9156  130.9666  151.3556 LP  0  0  0  0  0  0  0  0  0  0  0  0  # atno 17370 bound_to 10713
  157.5988  130.8497  149.8771 LP  0  0  0  0  0  0  0  0  0  0  0  0  # atno 17371 bound_to 10713
  139.8893  135.0104  156.6672 LP  0  0  0  0  0  0  0  0  0  0  0  0  # atno 17394 bound_to 11000
  140.7405  133.8982  155.8274 LP  0  0  0  0  0  0  0  0  0  0  0  0  # atno 17395 bound_to 11000

$$$$
