AV-unprocessed.smi:1832|AV-procd|sdf|7464|dock2
  -GOLD-   22720 9153D 1   1.00000     0.00000
 Structure written by MMmdl.
 35 35  0  0  0  0  0  0  0  0  1 V2000
  152.0387  144.5779  159.8639 C   0  0  0  0  0  0  0  0  0  0  0  0
  151.3728  145.0455  158.5655 C   0  0  0  0  0  0  0  0  0  0  0  0
  151.6603  144.1022  157.3863 C   0  0  0  0  0  0  0  0  0  0  0  0
  150.6323  143.0766  157.2532 N   0  0  0  0  0  0  0  0  0  0  0  0
  150.5938  141.9274  157.9443 C   0  0  0  0  0  0  0  0  0  0  0  0
  151.4513  141.6078  158.7692 O   0  0  0  0  0  0  0  0  0  0  0  0
  149.4128  140.9965  157.6333 C   0  0  0  0  0  0  0  0  0  0  0  0
  148.6653  141.3865  156.4255 N   0  0  0  0  0  0  0  0  0  0  0  0
  147.3814  141.9349  156.6170 C   0  0  0  0  0  0  0  0  0  0  0  0
  146.6071  142.3351  155.5840 C   0  0  0  0  0  0  0  0  0  0  0  0
  145.2729  142.9192  155.7500 C   0  0  0  0  0  0  0  0  0  0  0  0
  144.5449  142.7152  156.7223 O   0  0  0  0  0  0  0  0  0  0  0  0
  144.8877  143.7146  154.7370 N   0  0  0  0  0  0  0  0  0  0  0  0
  143.6069  144.4016  154.6684 C   0  0  0  0  0  0  0  0  0  0  0  0
  147.1484  142.1754  154.2480 C   0  0  0  0  0  0  0  0  0  0  0  0
  148.3775  141.6571  154.0586 C   0  0  0  0  0  0  0  0  0  0  0  0
  149.2156  141.2320  155.1831 C   0  0  0  0  0  0  0  0  0  0  0  0
  150.3430  140.7653  155.0181 O   0  0  0  0  0  0  0  0  0  0  0  0
  151.8178  145.2628  160.6827 H   0  0  0  0  0  0  0  0  0  0  0  0
  153.1223  144.5290  159.7541 H   0  0  0  0  0  0  0  0  0  0  0  0
  151.6850  143.5880  160.1537 H   0  0  0  0  0  0  0  0  0  0  0  0
  150.2960  145.1206  158.7212 H   0  0  0  0  0  0  0  0  0  0  0  0
  151.7214  146.0515  158.3298 H   0  0  0  0  0  0  0  0  0  0  0  0
  151.7500  144.6667  156.4564 H   0  0  0  0  0  0  0  0  0  0  0  0
  152.6168  143.6011  157.5373 H   0  0  0  0  0  0  0  0  0  0  0  0
  149.8913  143.2576  156.5914 H   0  0  0  0  0  0  0  0  0  0  0  0
  149.7766  139.9716  157.5380 H   0  0  0  0  0  0  0  0  0  0  0  0
  148.7533  140.9823  158.5021 H   0  0  0  0  0  0  0  0  0  0  0  0
  147.0924  142.0101  157.6555 H   0  0  0  0  0  0  0  0  0  0  0  0
  145.5238  143.8461  153.9642 H   0  0  0  0  0  0  0  0  0  0  0  0
  143.5405  144.9706  153.7410 H   0  0  0  0  0  0  0  0  0  0  0  0
  143.4924  145.0943  155.5030 H   0  0  0  0  0  0  0  0  0  0  0  0
  142.7820  143.6883  154.6905 H   0  0  0  0  0  0  0  0  0  0  0  0
  146.5706  142.4732  153.3847 H   0  0  0  0  0  0  0  0  0  0  0  0
  148.7564  141.5513  153.0527 H   0  0  0  0  0  0  0  0  0  0  0  0
  1  2  1  0  0  0  0
  1 19  1  0  0  0  0
  1 20  1  0  0  0  0
  1 21  1  0  0  0  0
  2  3  1  0  0  0  0
  2 22  1  0  0  0  0
  2 23  1  0  0  0  0
  3  4  1  0  0  0  0
  3 24  1  0  0  0  0
  3 25  1  0  0  0  0
  4  5  1  0  0  0  0
  4 26  1  0  0  0  0
  5  6  2  0  0  0  0
  5  7  1  0  0  0  0
  7  8  1  0  0  0  0
  7 27  1  0  0  0  0
  7 28  1  0  0  0  0
  8 17  1  0  0  0  0
  8  9  1  0  0  0  0
  9 10  2  0  0  0  0
  9 29  1  0  0  0  0
 10 11  1  0  0  0  0
 10 15  1  0  0  0  0
 11 12  2  0  0  0  0
 11 13  1  0  0  0  0
 13 14  1  0  0  0  0
 13 30  1  0  0  0  0
 14 31  1  0  0  0  0
 14 32  1  0  0  0  0
 14 33  1  0  0  0  0
 15 16  2  0  0  0  0
 15 34  1  0  0  0  0
 16 17  1  0  0  0  0
 16 35  1  0  0  0  0
 17 18  2  0  0  0  0
M  END
> <s_m_source_file>
AV-unprocessed.smi

> <i_m_source_file_index>
1832

> <i_lp_mmshare_version>
43012

> <i_f3d_flags>
0

> <s_epik_input>
W0NIM11bQ0gyXVtDSDJdW05IXUMoPU8pW0NIMl1uMVtjSF1jKEMoPU8pW05IXVtDSDNdKVtjSF1bY0hdYzE9Tw==

> <s_epik_cmdline>
J2VwaWtfcHl0aG9uJywgJy1waCcsICc3LjAnLCAnLXRuJywgJzgnLCAnLW1hJywgJzIwMCcsICctbWV0YWxfYmluZGluZycsICctaW1hZScsICc8aW5maWxlLm1hZT4nLCAnLW9tYWUnLCAnPG91dGZpbGUubWFlPic=

> <r_lp_tautomer_probability>
1

> <r_epik_Ionization_Penalty>
3.67838e-07

> <r_epik_Ionization_Penalty_Charging>
4.72549e-08

> <r_epik_Ionization_Penalty_Neutral>
3.20583e-07

> <r_epik_State_Penalty>
-0

> <r_epik_Charging_Adjusted_Penalty>
4.72549e-08

> <i_epik_Tot_Q>
0

> <i_epik_Tot_abs_Q>
0

> <r_epik_Metal_State_Penalty>
-0

> <b_epik_Metal_Only>
0

> <s_lp_Force_Field>
OPLS_2005

> <r_lp_Energy>
14.7098

> <b_lp_Chiralities_Consistent>
1

> <s_lp_Variant>
AV-unprocessed.smi:1832-1

> <Gold.Version>
5.8.1

> <Gold.Id.Protein>
6NUR|6NUR_protein|mol2

> <Gold.PLP.Fitness>
37.6751

> <Gold.PLP.PLP>
-34.2554

> <Gold.PLP.part.hbond>
-2.0000

> <Gold.PLP.part.metal>
0.0000

> <Gold.PLP.part.buried>
-5.0014

> <Gold.PLP.part.nonpolar>
-27.7133

> <Gold.PLP.part.repulsive>
0.1577

> <Gold.PLP.ligand.clash>
0.0000

> <Gold.PLP.ligand.torsion>
0.8981

> <Gold.PLP.Chemscore.Hbond>
1.7280

> <Gold.PLP.Chemscore.CHOScore>
0.0000

> <Gold.PLP.Chemscore.Metal>
0.0000

> <Gold.Chemscore.Hbonds>
donor molecule, donor type, donor heavy atom, donor atom, acceptor molecule, acceptor atom, score
      L1  H     4    26       P1  8028  0.86
      P1  H  7989  7998       L1    18  0.85

> <Gold.PLP.Chemscore.Internal.Correction>
0.0320

> <Gold.Rescore>
     Score         DG    S(hbond)    S(metal)    S(lipo)     H(rot)  DE(clash)    DE(int)     intcor
     13.44     -14.17       1.64        0.00      66.46       1.78       0.03       0.70       ----

> <Gold.Chemscore.Fitness>
13.4439

> <Gold.Chemscore.DG>
-14.1745

> <Gold.Chemscore.ZeroCoef>
-5.4800

> <Gold.Chemscore.Hbond>
1.6382

> <Gold.Chemscore.Metal>
0.0000

> <Gold.Chemscore.Lipo>
66.4613

> <Gold.Chemscore.Internal_Hbond>
0.0000

> <Gold.Chemscore.DEClash>
0.0284

> <Gold.Chemscore.DEInternal>
0.7022

> <Gold.Chemscore.Rot>
1.7785

> <Gold.Chemscore.Internal.Correction>
   9.000000E+99

> <Gold.Chemscore.Hbonds>
donor molecule, donor type, donor heavy atom, donor atom, acceptor molecule, acceptor atom, score
      L1  H     4    26       P1  8028  0.82
      P1  H  7989  7998       L1    18  0.81

> <Gold.Chemscore.Hbond.Weighted>
-5.4716

> <Gold.Chemscore.Metal.Weighted>
-0.0000

> <Gold.Chemscore.Lipo.Weighted>
-7.7760

> <Gold.Chemscore.Internal_Hbond.Weighted>
0.0000

> <Gold.Chemscore.DEClash.Weighted>
0.0284

> <Gold.Chemscore.DEInternal.Weighted>
0.7022

> <Gold.Chemscore.Rot.Weighted>
4.5530

> <Gold.Chemscore.Internal.Correction.Weighted>
   9.000000E+99

> <Gold.Protein.RotatedTorsions>
[ 6907 6896 6895 6894 ] final -138.01 input  -60.11 | X-H torsion
[ 7974 7965 7964 7962 ] final -119.64 input  175.53 | X-H torsion
[ 8008 7997 7996 7995 ] final  155.66 input   59.86 | X-H torsion
[ 10167 10162 10161 10158 ] final  160.94 input  -65.29 | X-H torsion
[ 10718 10713 10712 10709 ] final   72.34 input   66.30 | X-H torsion
[ 10763 10752 10751 10750 ] final   37.63 input  -60.55 | X-H torsion
[ 11005 11000 10999 10996 ] final   36.17 input  -57.11 | X-H torsion

> <Gold.Protein.ActiveResidues>
 VAL166  LYS551  ARG553  GLY616  TRP617  ASP618  TYR619  PRO620  LYS621  CYS622 
 ASP623  PHE694  ASN695  SER759  ASP760  ASP761  ALA762  ILE779  LEU786  VAL792 
 PHE793  MET794  SER795  GLU796  ALA797  LYS798  CYS799  TRP800  GLU811  SER814 

> <Gold.Protein.RotatedAtoms>
  151.0296  133.5802  159.2661 H   0  0  0  0  0  0  0  0  0  0  0  0  # atno 6907 bound_to 6896
  151.2889  135.0735  159.9206 H   0  0  0  0  0  0  0  0  0  0  0  0  # atno 6908 bound_to 6896
  152.5342  133.9998  159.7943 H   0  0  0  0  0  0  0  0  0  0  0  0  # atno 6909 bound_to 6896
  145.0602  140.8285  143.4157 H   0  0  0  0  0  0  0  0  0  0  0  0  # atno 7974 bound_to 7965
  156.2466  140.1933  156.6835 H   0  0  0  0  0  0  0  0  0  0  0  0  # atno 8008 bound_to 7997
  154.6304  140.0596  156.9751 H   0  0  0  0  0  0  0  0  0  0  0  0  # atno 8009 bound_to 7997
  155.1719  140.3269  155.4393 H   0  0  0  0  0  0  0  0  0  0  0  0  # atno 8010 bound_to 7997
  139.4844  144.4585  151.8736 H   0  0  0  0  0  0  0  0  0  0  0  0  # atno 10167 bound_to 10162
  157.6496  130.9574  150.0915 H   0  0  0  0  0  0  0  0  0  0  0  0  # atno 10718 bound_to 10713
  153.0030  135.6272  154.2176 H   0  0  0  0  0  0  0  0  0  0  0  0  # atno 10763 bound_to 10752
  154.1919  135.2808  155.3021 H   0  0  0  0  0  0  0  0  0  0  0  0  # atno 10764 bound_to 10752
  154.5752  135.5664  153.7192 H   0  0  0  0  0  0  0  0  0  0  0  0  # atno 10765 bound_to 10752
  140.2352  134.3480  155.7947 H   0  0  0  0  0  0  0  0  0  0  0  0  # atno 11005 bound_to 11000
  145.1418  139.2568  143.5486 LP  0  0  0  0  0  0  0  0  0  0  0  0  # atno 17320 bound_to 7965
  146.3524  140.1097  142.8604 LP  0  0  0  0  0  0  0  0  0  0  0  0  # atno 17321 bound_to 7965
  140.4046  144.2448  150.5891 LP  0  0  0  0  0  0  0  0  0  0  0  0  # atno 17342 bound_to 10162
  140.5024  143.2314  151.8658 LP  0  0  0  0  0  0  0  0  0  0  0  0  # atno 17343 bound_to 10162
  156.1863  130.3652  149.8969 LP  0  0  0  0  0  0  0  0  0  0  0  0  # atno 17370 bound_to 10713
  156.6908  130.8895  151.3588 LP  0  0  0  0  0  0  0  0  0  0  0  0  # atno 17371 bound_to 10713
  141.2215  133.7268  156.8796 LP  0  0  0  0  0  0  0  0  0  0  0  0  # atno 17394 bound_to 11000
  140.1709  134.9100  157.2832 LP  0  0  0  0  0  0  0  0  0  0  0  0  # atno 17395 bound_to 11000

$$$$
