AV-unprocessed.smi:712|AV-procd|sdf|3472|dock2
  -GOLD-   22720 0463D 1   1.00000     0.00000
 Structure written by MMmdl.
 50 51  0  0  0  0  0  0  0  0  1 V2000
  150.9070  142.6318  157.1045 C   0  0  0  0  0  0  0  0  0  0  0  0
  151.0848  141.3770  156.2749 C   0  0  0  0  0  0  0  0  0  0  0  0
  150.1363  141.0428  155.2340 C   0  0  0  0  0  0  0  0  0  0  0  0
  150.3065  139.9116  154.5333 C   0  0  0  0  0  0  0  0  0  0  0  0
  151.3869  139.0430  154.7726 N   0  0  0  0  0  0  0  0  0  0  0  0
  151.4361  137.8118  153.9625 C   0  0  0  0  0  0  0  0  0  0  0  0
  151.1624  136.5236  154.7585 C   0  0  0  0  0  0  0  0  0  0  0  0
  151.9563  136.1762  155.6316 O   0  0  0  0  0  0  0  0  0  0  0  0
  150.0740  135.8063  154.4350 N   0  0  0  0  0  0  0  0  0  0  0  0
  149.7282  134.4914  154.9599 C   0  0  0  0  0  0  0  0  0  0  0  0
  149.1632  133.5880  153.8502 C   0  0  2  0  0  0  0  0  0  0  0  0
  147.6570  133.8211  153.5958 C   0  0  0  0  0  0  0  0  0  0  0  0
  147.1210  132.9080  152.5905 N   0  0  0  0  0  0  0  0  0  0  0  0
  145.6904  133.1054  152.3488 C   0  0  0  0  0  0  0  0  0  0  0  0
  145.0606  132.2135  151.2565 C   0  0  0  0  0  0  0  0  0  0  0  0
  145.7816  132.4125  149.9160 C   0  0  0  0  0  0  0  0  0  0  0  0
  143.5529  132.4719  151.1013 C   0  0  0  0  0  0  0  0  0  0  0  0
  147.3973  131.5367  153.0028 C   0  0  0  0  0  0  0  0  0  0  0  0
  148.8961  131.3039  153.2579 C   0  0  0  0  0  0  0  0  0  0  0  0
  149.3633  132.2303  154.2331 O   0  0  0  0  0  0  0  0  0  0  0  0
  152.3284  139.3097  155.7276 C   0  0  0  0  0  0  0  0  0  0  0  0
  153.2743  138.5525  155.9444 O   0  0  0  0  0  0  0  0  0  0  0  0
  152.1270  140.5450  156.4943 C   0  0  0  0  0  0  0  0  0  0  0  0
  149.8801  142.9940  157.0487 H   0  0  0  0  0  0  0  0  0  0  0  0
  151.5688  143.4194  156.7442 H   0  0  0  0  0  0  0  0  0  0  0  0
  151.1390  142.4376  158.1521 H   0  0  0  0  0  0  0  0  0  0  0  0
  149.2962  141.6892  155.0272 H   0  0  0  0  0  0  0  0  0  0  0  0
  149.6284  139.5972  153.7528 H   0  0  0  0  0  0  0  0  0  0  0  0
  150.7080  137.8782  153.1524 H   0  0  0  0  0  0  0  0  0  0  0  0
  152.4011  137.7085  153.4642 H   0  0  0  0  0  0  0  0  0  0  0  0
  149.4685  136.1752  153.7162 H   0  0  0  0  0  0  0  0  0  0  0  0
  150.5920  134.0208  155.4321 H   0  0  0  0  0  0  0  0  0  0  0  0
  148.9831  134.6258  155.7444 H   0  0  0  0  0  0  0  0  0  0  0  0
  149.7185  133.7749  152.9288 H   0  0  0  0  0  0  0  0  0  0  0  0
  147.1070  133.7061  154.5310 H   0  0  0  0  0  0  0  0  0  0  0  0
  147.5135  134.8511  153.2725 H   0  0  0  0  0  0  0  0  0  0  0  0
  145.1493  132.9241  153.2787 H   0  0  0  0  0  0  0  0  0  0  0  0
  145.5101  134.1528  152.1024 H   0  0  0  0  0  0  0  0  0  0  0  0
  145.1999  131.1679  151.5267 H   0  0  0  0  0  0  0  0  0  0  0  0
  145.6940  133.4420  149.5672 H   0  0  0  0  0  0  0  0  0  0  0  0
  145.3648  131.7635  149.1453 H   0  0  0  0  0  0  0  0  0  0  0  0
  146.8432  132.1785  150.0022 H   0  0  0  0  0  0  0  0  0  0  0  0
  143.3534  133.5137  150.8492 H   0  0  0  0  0  0  0  0  0  0  0  0
  143.0144  132.2419  152.0211 H   0  0  0  0  0  0  0  0  0  0  0  0
  143.1265  131.8512  150.3129 H   0  0  0  0  0  0  0  0  0  0  0  0
  146.8377  131.3035  153.9102 H   0  0  0  0  0  0  0  0  0  0  0  0
  147.0512  130.8425  152.2362 H   0  0  0  0  0  0  0  0  0  0  0  0
  149.0659  130.2898  153.6195 H   0  0  0  0  0  0  0  0  0  0  0  0
  149.4676  131.4155  152.3351 H   0  0  0  0  0  0  0  0  0  0  0  0
  152.8390  140.7883  157.2699 H   0  0  0  0  0  0  0  0  0  0  0  0
  1  2  1  0  0  0  0
  1 24  1  0  0  0  0
  1 25  1  0  0  0  0
  1 26  1  0  0  0  0
  2 23  2  0  0  0  0
  2  3  1  0  0  0  0
  3  4  2  0  0  0  0
  3 27  1  0  0  0  0
  4  5  1  0  0  0  0
  4 28  1  0  0  0  0
  5  6  1  0  0  0  0
  5 21  1  0  0  0  0
  6  7  1  0  0  0  0
  6 29  1  0  0  0  0
  6 30  1  0  0  0  0
  7  8  2  0  0  0  0
  7  9  1  0  0  0  0
  9 10  1  0  0  0  0
  9 31  1  0  0  0  0
 10 11  1  0  0  0  0
 10 32  1  0  0  0  0
 10 33  1  0  0  0  0
 11 20  1  0  0  0  0
 11 12  1  0  0  0  0
 11 34  1  0  0  0  0
 12 13  1  0  0  0  0
 12 35  1  0  0  0  0
 12 36  1  0  0  0  0
 13 14  1  0  0  0  0
 13 18  1  0  0  0  0
 14 15  1  0  0  0  0
 14 37  1  0  0  0  0
 14 38  1  0  0  0  0
 15 16  1  0  0  0  0
 15 17  1  0  0  0  0
 15 39  1  0  0  0  0
 16 40  1  0  0  0  0
 16 41  1  0  0  0  0
 16 42  1  0  0  0  0
 17 43  1  0  0  0  0
 17 44  1  0  0  0  0
 17 45  1  0  0  0  0
 18 19  1  0  0  0  0
 18 46  1  0  0  0  0
 18 47  1  0  0  0  0
 19 20  1  0  0  0  0
 19 48  1  0  0  0  0
 19 49  1  0  0  0  0
 21 22  2  0  0  0  0
 21 23  1  0  0  0  0
 23 50  1  0  0  0  0
M  END
> <s_m_source_file>
AV-unprocessed.smi

> <i_m_source_file_index>
712

> <i_lp_mmshare_version>
43012

> <i_f3d_flags>
0

> <s_epik_input>
W0NIM11jMVtjSF1bY0hdbihjKD1PKVtjSF0xKVtDSDJdQyg9TylbTkhdW0NIMl1bQ0BASF0yW0NIMl1OKFtDSDJdW0NIMl1PMilbQ0gyXVtDSF0oW0NIM10pW0NIM10=

> <s_epik_cmdline>
J2VwaWtfcHl0aG9uJywgJy1waCcsICc3LjAnLCAnLXRuJywgJzgnLCAnLW1hJywgJzIwMCcsICctbWV0YWxfYmluZGluZycsICctaW1hZScsICc8aW5maWxlLm1hZT4nLCAnLW9tYWUnLCAnPG91dGZpbGUubWFlPic=

> <r_lp_tautomer_probability>
1

> <r_epik_Ionization_Penalty>
1.11669

> <r_epik_Ionization_Penalty_Charging>
4.93496e-07

> <r_epik_Ionization_Penalty_Neutral>
1.11669

> <r_epik_State_Penalty>
1.17516

> <r_epik_Charging_Adjusted_Penalty>
1.17516

> <i_epik_Tot_Q>
0

> <i_epik_Tot_abs_Q>
0

> <r_epik_Metal_State_Penalty>
1.17513

> <b_epik_Metal_Only>
0

> <s_lp_Force_Field>
OPLS_2005

> <r_lp_Energy>
32.9939

> <b_lp_Chiralities_Consistent>
1

> <s_lp_Variant>
AV-unprocessed.smi:712-5

> <Gold.Version>
5.8.1

> <Gold.Id.Protein>
6NUR|6NUR_protein|mol2

> <Gold.PLP.Fitness>
54.8462

> <Gold.PLP.PLP>
-43.8628

> <Gold.PLP.part.hbond>
-3.0683

> <Gold.PLP.part.metal>
0.0000

> <Gold.PLP.part.buried>
1.1385

> <Gold.PLP.part.nonpolar>
-41.1947

> <Gold.PLP.part.repulsive>
0.2617

> <Gold.PLP.ligand.clash>
0.0000

> <Gold.PLP.ligand.torsion>
0.4841

> <Gold.PLP.Chemscore.Hbond>
2.9436

> <Gold.PLP.Chemscore.CHOScore>
0.9956

> <Gold.PLP.Chemscore.Metal>
0.0000

> <Gold.Chemscore.Hbonds>
donor molecule, donor type, donor heavy atom, donor atom, acceptor molecule, acceptor atom, score
      L1  H     9    31       P1  7948  0.94
      P1  H  7997  8010       L1    22  0.44
      P1  H 10752 10765       L1     8  0.84
      L1  C     4    28       P1  7957  0.76

> <Gold.PLP.Chemscore.Internal.Correction>
0.1339

> <Gold.Rescore>
     Score         DG    S(hbond)    S(metal)    S(lipo)     H(rot)  DE(clash)    DE(int)     intcor
     17.83     -19.73       2.08        0.00     102.32       1.82       0.12       1.79       ----

> <Gold.Chemscore.Fitness>
17.8255

> <Gold.Chemscore.DG>
-19.7315

> <Gold.Chemscore.ZeroCoef>
-5.4800

> <Gold.Chemscore.Hbond>
2.0810

> <Gold.Chemscore.Metal>
0.0000

> <Gold.Chemscore.Lipo>
102.3185

> <Gold.Chemscore.Internal_Hbond>
0.0000

> <Gold.Chemscore.DEClash>
0.1193

> <Gold.Chemscore.DEInternal>
1.7866

> <Gold.Chemscore.Rot>
1.8243

> <Gold.Chemscore.Internal.Correction>
   9.000000E+99

> <Gold.Chemscore.Hbonds>
donor molecule, donor type, donor heavy atom, donor atom, acceptor molecule, acceptor atom, score
      L1  H     9    31       P1  7948  0.59
      P1  H  7997  8010       L1    22  0.03
      P1  H 10752 10765       L1     8  0.50

> <Gold.Chemscore.Hbond.Weighted>
-6.9505

> <Gold.Chemscore.Metal.Weighted>
-0.0000

> <Gold.Chemscore.Lipo.Weighted>
-11.9713

> <Gold.Chemscore.Internal_Hbond.Weighted>
0.0000

> <Gold.Chemscore.DEClash.Weighted>
0.1193

> <Gold.Chemscore.DEInternal.Weighted>
1.7866

> <Gold.Chemscore.Rot.Weighted>
4.6703

> <Gold.Chemscore.Internal.Correction.Weighted>
   9.000000E+99

> <Gold.Protein.RotatedTorsions>
[ 6907 6896 6895 6894 ] final  -97.20 input  -60.11 | X-H torsion
[ 7974 7965 7964 7962 ] final  131.19 input  175.53 | X-H torsion
[ 8008 7997 7996 7995 ] final   57.52 input   59.86 | X-H torsion
[ 10167 10162 10161 10158 ] final -126.65 input  -65.29 | X-H torsion
[ 10718 10713 10712 10709 ] final   65.76 input   66.30 | X-H torsion
[ 10763 10752 10751 10750 ] final -156.73 input  -60.55 | X-H torsion
[ 11005 11000 10999 10996 ] final   71.37 input  -57.11 | X-H torsion

> <Gold.Protein.ActiveResidues>
 VAL166  LYS551  ARG553  GLY616  TRP617  ASP618  TYR619  PRO620  LYS621  CYS622 
 ASP623  PHE694  ASN695  SER759  ASP760  ASP761  ALA762  ILE779  LEU786  VAL792 
 PHE793  MET794  SER795  GLU796  ALA797  LYS798  CYS799  TRP800  GLU811  SER814 

> <Gold.Protein.RotatedAtoms>
  150.7010  134.1385  159.4095 H   0  0  0  0  0  0  0  0  0  0  0  0  # atno 6907 bound_to 6896
  151.9369  135.0229  160.0542 H   0  0  0  0  0  0  0  0  0  0  0  0  # atno 6908 bound_to 6896
  152.2127  133.4888  159.5155 H   0  0  0  0  0  0  0  0  0  0  0  0  # atno 6909 bound_to 6896
  145.0100  139.4230  143.5250 H   0  0  0  0  0  0  0  0  0  0  0  0  # atno 7974 bound_to 7965
  155.5351  140.3483  155.4434 H   0  0  0  0  0  0  0  0  0  0  0  0  # atno 8008 bound_to 7997
  156.0691  140.1358  156.9877 H   0  0  0  0  0  0  0  0  0  0  0  0  # atno 8009 bound_to 7997
  154.4519  140.0969  156.6617 H   0  0  0  0  0  0  0  0  0  0  0  0  # atno 8010 bound_to 7997
  139.9692  143.5864  152.2418 H   0  0  0  0  0  0  0  0  0  0  0  0  # atno 10167 bound_to 10162
  157.6126  130.9231  150.0019 H   0  0  0  0  0  0  0  0  0  0  0  0  # atno 10718 bound_to 10713
  154.7690  135.3139  154.8228 H   0  0  0  0  0  0  0  0  0  0  0  0  # atno 10763 bound_to 10752
  153.8968  135.6820  153.4761 H   0  0  0  0  0  0  0  0  0  0  0  0  # atno 10764 bound_to 10752
  153.1301  135.4784  154.9268 H   0  0  0  0  0  0  0  0  0  0  0  0  # atno 10765 bound_to 10752
  139.9547  134.7165  156.0780 H   0  0  0  0  0  0  0  0  0  0  0  0  # atno 11005 bound_to 11000
  146.3468  139.9538  142.8725 LP  0  0  0  0  0  0  0  0  0  0  0  0  # atno 17320 bound_to 7965
  145.2037  140.9865  143.4141 LP  0  0  0  0  0  0  0  0  0  0  0  0  # atno 17321 bound_to 7965
  139.6494  144.7660  151.2178 LP  0  0  0  0  0  0  0  0  0  0  0  0  # atno 17342 bound_to 10162
  140.7527  143.6185  150.8536 LP  0  0  0  0  0  0  0  0  0  0  0  0  # atno 17343 bound_to 10162
  156.1235  130.3645  149.9848 LP  0  0  0  0  0  0  0  0  0  0  0  0  # atno 17370 bound_to 10713
  156.7923  130.9260  151.3646 LP  0  0  0  0  0  0  0  0  0  0  0  0  # atno 17371 bound_to 10713
  141.1217  133.6611  156.3231 LP  0  0  0  0  0  0  0  0  0  0  0  0  # atno 17394 bound_to 11000
  140.5636  134.5909  157.5440 LP  0  0  0  0  0  0  0  0  0  0  0  0  # atno 17395 bound_to 11000

$$$$
