AV-unprocessed.smi:2133|AV-procd|sdf|8693|dock7
  -GOLD-   2272011453D 1   1.00000     0.00000
 Structure written by MMmdl.
 45 47  0  0  0  0  0  0  0  0  1 V2000
  151.8861  144.0369  161.1775 C   0  0  0  0  0  0  0  0  0  0  0  0
  152.1901  142.8814  160.3131 N   0  0  0  0  0  0  0  0  0  0  0  0
  151.6121  142.8301  159.0719 C   0  0  0  0  0  0  0  0  0  0  0  0
  150.8637  143.6899  158.6060 O   0  0  0  0  0  0  0  0  0  0  0  0
  151.9594  141.6305  158.3050 C   0  0  0  0  0  0  0  0  0  0  0  0
  152.8090  140.6792  158.7641 C   0  0  0  0  0  0  0  0  0  0  0  0
  152.9688  139.6554  157.8367 N   0  0  0  0  0  0  0  0  0  0  0  0
  152.1831  140.0593  156.8383 C   0  0  0  0  0  0  0  0  0  0  0  0
  151.5316  141.2225  157.0434 N   0  0  0  0  0  0  0  0  0  0  0  0
  150.6040  141.8642  156.1233 C   0  0  0  0  0  0  0  0  0  0  0  0
  149.3242  141.0367  155.8690 C   0  0  1  0  0  0  0  0  0  0  0  0
  148.1824  141.8548  156.0150 O   0  0  0  0  0  0  0  0  0  0  0  0
  149.2646  140.3029  154.5162 C   0  0  0  0  0  0  0  0  0  0  0  0
  148.0096  139.6607  154.3576 O   0  0  0  0  0  0  0  0  0  0  0  0
  147.4803  139.8069  153.0511 C   0  0  0  0  0  0  0  0  0  0  0  0
  147.0445  138.4728  152.4817 C   0  0  0  0  0  0  0  0  0  0  0  0
  146.6497  137.4274  153.3425 C   0  0  0  0  0  0  0  0  0  0  0  0
  146.2442  136.1882  152.8096 C   0  0  0  0  0  0  0  0  0  0  0  0
  146.2282  135.9919  151.4150 C   0  0  0  0  0  0  0  0  0  0  0  0
  146.6201  137.0345  150.5530 C   0  0  0  0  0  0  0  0  0  0  0  0
  147.0285  138.2728  151.0854 C   0  0  0  0  0  0  0  0  0  0  0  0
  153.3799  140.8480  160.0519 N   0  0  0  0  0  0  0  0  0  0  0  0
  154.2999  139.8249  160.5573 C   0  0  0  0  0  0  0  0  0  0  0  0
  153.0558  141.9322  160.8294 C   0  0  0  0  0  0  0  0  0  0  0  0
  153.5302  142.0507  161.9629 O   0  0  0  0  0  0  0  0  0  0  0  0
  151.1386  144.7233  160.7784 H   0  0  0  0  0  0  0  0  0  0  0  0
  152.7896  144.6225  161.3542 H   0  0  0  0  0  0  0  0  0  0  0  0
  151.5066  143.7053  162.1455 H   0  0  0  0  0  0  0  0  0  0  0  0
  152.0668  139.4837  155.9316 H   0  0  0  0  0  0  0  0  0  0  0  0
  150.3548  142.8549  156.5044 H   0  0  0  0  0  0  0  0  0  0  0  0
  151.1292  142.0259  155.1806 H   0  0  0  0  0  0  0  0  0  0  0  0
  149.2424  140.2781  156.6470 H   0  0  0  0  0  0  0  0  0  0  0  0
  148.4661  142.7362  156.2038 H   0  0  0  0  0  0  0  0  0  0  0  0
  149.3952  141.0311  153.7138 H   0  0  0  0  0  0  0  0  0  0  0  0
  150.0806  139.5839  154.4261 H   0  0  0  0  0  0  0  0  0  0  0  0
  146.6191  140.4770  153.0694 H   0  0  0  0  0  0  0  0  0  0  0  0
  148.2253  140.2595  152.3947 H   0  0  0  0  0  0  0  0  0  0  0  0
  146.6566  137.5729  154.4128 H   0  0  0  0  0  0  0  0  0  0  0  0
  145.9444  135.3887  153.4710 H   0  0  0  0  0  0  0  0  0  0  0  0
  145.9157  135.0419  151.0069 H   0  0  0  0  0  0  0  0  0  0  0  0
  146.6077  136.8841  149.4835 H   0  0  0  0  0  0  0  0  0  0  0  0
  147.3295  139.0684  150.4196 H   0  0  0  0  0  0  0  0  0  0  0  0
  155.1811  140.2743  161.0180 H   0  0  0  0  0  0  0  0  0  0  0  0
  154.6614  139.1658  159.7681 H   0  0  0  0  0  0  0  0  0  0  0  0
  153.8016  139.2064  161.3045 H   0  0  0  0  0  0  0  0  0  0  0  0
  1  2  1  0  0  0  0
  1 26  1  0  0  0  0
  1 27  1  0  0  0  0
  1 28  1  0  0  0  0
  2 24  1  0  0  0  0
  2  3  1  0  0  0  0
  3  4  2  0  0  0  0
  3  5  1  0  0  0  0
  5  9  1  0  0  0  0
  5  6  2  0  0  0  0
  6  7  1  0  0  0  0
  6 22  1  0  0  0  0
  7  8  2  0  0  0  0
  8  9  1  0  0  0  0
  8 29  1  0  0  0  0
  9 10  1  0  0  0  0
 10 11  1  0  0  0  0
 10 30  1  0  0  0  0
 10 31  1  0  0  0  0
 11 12  1  0  0  0  0
 11 13  1  0  0  0  0
 11 32  1  0  0  0  0
 12 33  1  0  0  0  0
 13 14  1  0  0  0  0
 13 34  1  0  0  0  0
 13 35  1  0  0  0  0
 14 15  1  0  0  0  0
 15 16  1  0  0  0  0
 15 36  1  0  0  0  0
 15 37  1  0  0  0  0
 16 21  1  0  0  0  0
 16 17  2  0  0  0  0
 17 18  1  0  0  0  0
 17 38  1  0  0  0  0
 18 19  2  0  0  0  0
 18 39  1  0  0  0  0
 19 20  1  0  0  0  0
 19 40  1  0  0  0  0
 20 21  2  0  0  0  0
 20 41  1  0  0  0  0
 21 42  1  0  0  0  0
 22 23  1  0  0  0  0
 22 24  1  0  0  0  0
 23 43  1  0  0  0  0
 23 44  1  0  0  0  0
 23 45  1  0  0  0  0
 24 25  2  0  0  0  0
M  END
> <s_m_source_file>
AV-unprocessed.smi

> <i_m_source_file_index>
2133

> <i_lp_mmshare_version>
43012

> <i_f3d_flags>
0

> <s_epik_input>
Tz1jMW4oW0NIM10pYyg9TyluKFtDSDNdKWMoYzEyKW5bY0hdbjJbQ0gyXVtDQEhdKFtPSF0pW0NIMl1PW0NIMl1jM1tjSF1bY0hdW2NIXVtjSF1bY0hdMw==

> <s_epik_cmdline>
J2VwaWtfcHl0aG9uJywgJy1waCcsICc3LjAnLCAnLXRuJywgJzgnLCAnLW1hJywgJzIwMCcsICctbWV0YWxfYmluZGluZycsICctaW1hZScsICc8aW5maWxlLm1hZT4nLCAnLW9tYWUnLCAnPG91dGZpbGUubWFlPic=

> <r_lp_tautomer_probability>
1

> <r_epik_Ionization_Penalty>
1.52174e-06

> <r_epik_Ionization_Penalty_Charging>
3.83535e-09

> <r_epik_Ionization_Penalty_Neutral>
1.5179e-06

> <r_epik_State_Penalty>
-0

> <r_epik_Charging_Adjusted_Penalty>
3.83535e-09

> <i_epik_Tot_Q>
0

> <i_epik_Tot_abs_Q>
0

> <r_epik_Metal_State_Penalty>
-0

> <b_epik_Metal_Only>
0

> <s_lp_Force_Field>
OPLS_2005

> <r_lp_Energy>
39.5783

> <b_lp_Chiralities_Consistent>
1

> <s_lp_Variant>
AV-unprocessed.smi:2133-2

> <Gold.Version>
5.8.1

> <Gold.Id.Protein>
6NUR|6NUR_protein|mol2

> <Gold.PLP.Fitness>
50.5327

> <Gold.PLP.PLP>
-47.8866

> <Gold.PLP.part.hbond>
-2.2485

> <Gold.PLP.part.metal>
0.0000

> <Gold.PLP.part.buried>
0.4713

> <Gold.PLP.part.nonpolar>
-47.1177

> <Gold.PLP.part.repulsive>
0.2459

> <Gold.PLP.ligand.clash>
0.0000

> <Gold.PLP.ligand.torsion>
1.7125

> <Gold.PLP.Chemscore.Hbond>
2.0000

> <Gold.PLP.Chemscore.CHOScore>
0.0000

> <Gold.PLP.Chemscore.Metal>
0.0000

> <Gold.Chemscore.Hbonds>
donor molecule, donor type, donor heavy atom, donor atom, acceptor molecule, acceptor atom, score
      L1  H    12    33       P1  8028  0.84
      P1  H  7997  8009       L1     7  0.70

> <Gold.PLP.Chemscore.Internal.Correction>
0.0712

> <Gold.Rescore>
     Score         DG    S(hbond)    S(metal)    S(lipo)     H(rot)  DE(clash)    DE(int)     intcor
      9.93     -11.82       1.08        0.00      87.13       2.91       0.30       1.59       ----

> <Gold.Chemscore.Fitness>
9.9284

> <Gold.Chemscore.DG>
-11.8176

> <Gold.Chemscore.ZeroCoef>
-5.4800

> <Gold.Chemscore.Hbond>
1.0782

> <Gold.Chemscore.Metal>
0.0000

> <Gold.Chemscore.Lipo>
87.1296

> <Gold.Chemscore.Internal_Hbond>
0.0000

> <Gold.Chemscore.DEClash>
0.3017

> <Gold.Chemscore.DEInternal>
1.5876

> <Gold.Chemscore.Rot>
2.9132

> <Gold.Chemscore.Internal.Correction>
   9.000000E+99

> <Gold.Chemscore.Hbonds>
donor molecule, donor type, donor heavy atom, donor atom, acceptor molecule, acceptor atom, score
      L1  H    12    33       P1  8028  0.78
      P1  H  7997  8009       L1     7  0.04

> <Gold.Chemscore.Hbond.Weighted>
-3.6012

> <Gold.Chemscore.Metal.Weighted>
-0.0000

> <Gold.Chemscore.Lipo.Weighted>
-10.1942

> <Gold.Chemscore.Internal_Hbond.Weighted>
0.0000

> <Gold.Chemscore.DEClash.Weighted>
0.3017

> <Gold.Chemscore.DEInternal.Weighted>
1.5876

> <Gold.Chemscore.Rot.Weighted>
7.4578

> <Gold.Chemscore.Internal.Correction.Weighted>
   9.000000E+99

> <Gold.Protein.RotatedTorsions>
[ 6907 6896 6895 6894 ] final -166.61 input  -60.11 | X-H torsion
[ 7974 7965 7964 7962 ] final -173.44 input  175.53 | X-H torsion
[ 8008 7997 7996 7995 ] final  159.98 input   59.86 | X-H torsion
[ 10167 10162 10161 10158 ] final -113.68 input  -65.29 | X-H torsion
[ 10718 10713 10712 10709 ] final  -46.19 input   66.30 | X-H torsion
[ 10763 10752 10751 10750 ] final -136.53 input  -60.55 | X-H torsion
[ 11005 11000 10999 10996 ] final  159.63 input  -57.11 | X-H torsion

> <Gold.Protein.ActiveResidues>
 VAL166  LYS551  ARG553  GLY616  TRP617  ASP618  TYR619  PRO620  LYS621  CYS622 
 ASP623  PHE694  ASN695  SER759  ASP760  ASP761  ALA762  ILE779  LEU786  VAL792 
 PHE793  MET794  SER795  GLU796  ALA797  LYS798  CYS799  TRP800  GLU811  SER814 

> <Gold.Protein.RotatedAtoms>
  151.4464  133.3629  159.2788 H   0  0  0  0  0  0  0  0  0  0  0  0  # atno 6907 bound_to 6896
  150.9122  134.8540  159.7443 H   0  0  0  0  0  0  0  0  0  0  0  0  # atno 6908 bound_to 6896
  152.4938  134.4394  159.9590 H   0  0  0  0  0  0  0  0  0  0  0  0  # atno 6909 bound_to 6896
  144.7138  140.1622  143.6375 H   0  0  0  0  0  0  0  0  0  0  0  0  # atno 7974 bound_to 7965
  156.2203  140.1816  156.7492 H   0  0  0  0  0  0  0  0  0  0  0  0  # atno 8008 bound_to 7997
  154.5855  140.0659  156.9193 H   0  0  0  0  0  0  0  0  0  0  0  0  # atno 8009 bound_to 7997
  155.2427  140.3323  155.4293 H   0  0  0  0  0  0  0  0  0  0  0  0  # atno 8010 bound_to 7997
  140.1092  143.4543  152.1763 H   0  0  0  0  0  0  0  0  0  0  0  0  # atno 10167 bound_to 10162
  156.2208  130.4166  149.8995 H   0  0  0  0  0  0  0  0  0  0  0  0  # atno 10718 bound_to 10713
  154.8682  135.3670  154.5075 H   0  0  0  0  0  0  0  0  0  0  0  0  # atno 10763 bound_to 10752
  153.5712  135.7020  153.5509 H   0  0  0  0  0  0  0  0  0  0  0  0  # atno 10764 bound_to 10752
  153.3540  135.4064  155.1631 H   0  0  0  0  0  0  0  0  0  0  0  0  # atno 10765 bound_to 10752
  140.1981  134.8358  157.2987 H   0  0  0  0  0  0  0  0  0  0  0  0  # atno 11005 bound_to 11000
  145.9020  139.2436  143.1488 LP  0  0  0  0  0  0  0  0  0  0  0  0  # atno 17320 bound_to 7965
  145.9801  140.8689  143.0118 LP  0  0  0  0  0  0  0  0  0  0  0  0  # atno 17321 bound_to 7965
  139.5628  144.7417  151.4105 LP  0  0  0  0  0  0  0  0  0  0  0  0  # atno 17342 bound_to 10162
  140.6935  143.7805  150.7291 LP  0  0  0  0  0  0  0  0  0  0  0  0  # atno 17343 bound_to 10162
  156.6642  130.8794  151.3552 LP  0  0  0  0  0  0  0  0  0  0  0  0  # atno 17370 bound_to 10713
  157.7086  130.9414  150.1014 LP  0  0  0  0  0  0  0  0  0  0  0  0  # atno 17371 bound_to 10713
  140.2085  134.4168  155.7625 LP  0  0  0  0  0  0  0  0  0  0  0  0  # atno 17394 bound_to 11000
  141.2227  133.7106  156.8299 LP  0  0  0  0  0  0  0  0  0  0  0  0  # atno 17395 bound_to 11000

$$$$
