AV-unprocessed.smi:100|AV-procd|sdf|898|dock1
  -GOLD-   2262017393D 1   1.00000     0.00000
 Structure written by MMmdl.
 31 33  0  0  0  0  0  0  0  0  1 V2000
  154.0971  141.3499  160.6921 N   0  0  0  0  0  0  0  0  0  0  0  0
  153.1677  141.8653  159.8754 C   0  0  0  0  0  0  0  0  0  0  0  0
  152.6705  143.0916  160.1602 N   0  0  0  0  0  0  0  0  0  0  0  0
  151.7424  143.6269  159.3606 C   0  0  0  0  0  0  0  0  0  0  0  0
  151.1938  143.1129  158.2567 N   0  0  0  0  0  0  0  0  0  0  0  0
  151.6950  141.8755  157.9709 C   0  0  0  0  0  0  0  0  0  0  0  0
  152.6828  141.1869  158.7287 C   0  0  0  0  0  0  0  0  0  0  0  0
  152.9564  139.9579  158.1445 N   0  0  0  0  0  0  0  0  0  0  0  0
  152.1721  139.9255  157.1007 C   0  0  0  0  0  0  0  0  0  0  0  0
  151.3797  141.0378  156.9184 N   0  0  0  0  0  0  0  0  0  0  0  0
  150.3951  141.2769  155.8147 C   0  0  1  0  0  0  0  0  0  0  0  0
  150.4448  140.2292  154.8983 O   0  0  0  0  0  0  0  0  0  0  0  0
  149.1444  139.9538  154.3698 C   0  0  1  0  0  0  0  0  0  0  0  0
  148.7948  138.4860  154.6704 C   0  0  0  0  0  0  0  0  0  0  0  0
  149.7646  137.6300  154.1053 O   0  0  0  0  0  0  0  0  0  0  0  0
  148.1936  140.9415  155.0674 C   0  0  2  0  0  0  0  0  0  0  0  0
  148.0013  142.0017  154.2803 F   0  0  0  0  0  0  0  0  0  0  0  0
  148.9494  141.3794  156.3069 C   0  0  1  0  0  0  0  0  0  0  0  0
  148.6533  140.5522  157.4172 O   0  0  0  0  0  0  0  0  0  0  0  0
  154.4838  140.4368  160.5005 H   0  0  0  0  0  0  0  0  0  0  0  0
  154.4061  141.8736  161.4980 H   0  0  0  0  0  0  0  0  0  0  0  0
  151.3882  144.6068  159.6449 H   0  0  0  0  0  0  0  0  0  0  0  0
  152.1511  139.0813  156.4269 H   0  0  0  0  0  0  0  0  0  0  0  0
  150.7348  142.1902  155.3232 H   0  0  0  0  0  0  0  0  0  0  0  0
  149.1307  140.1258  153.2922 H   0  0  0  0  0  0  0  0  0  0  0  0
  148.7013  138.3034  155.7402 H   0  0  0  0  0  0  0  0  0  0  0  0
  147.8371  138.2270  154.2183 H   0  0  0  0  0  0  0  0  0  0  0  0
  149.3367  137.0605  153.4845 H   0  0  0  0  0  0  0  0  0  0  0  0
  147.2057  140.5315  155.2812 H   0  0  0  0  0  0  0  0  0  0  0  0
  148.7283  142.4107  156.5851 H   0  0  0  0  0  0  0  0  0  0  0  0
  148.0753  139.8620  157.1289 H   0  0  0  0  0  0  0  0  0  0  0  0
  1  2  1  0  0  0  0
  1 20  1  0  0  0  0
  1 21  1  0  0  0  0
  2  7  1  0  0  0  0
  2  3  2  0  0  0  0
  3  4  1  0  0  0  0
  4  5  2  0  0  0  0
  4 22  1  0  0  0  0
  5  6  1  0  0  0  0
  6 10  1  0  0  0  0
  6  7  2  0  0  0  0
  7  8  1  0  0  0  0
  8  9  2  0  0  0  0
  9 10  1  0  0  0  0
  9 23  1  0  0  0  0
 10 11  1  0  0  0  0
 11 18  1  0  0  0  0
 11 12  1  0  0  0  0
 11 24  1  0  0  0  0
 12 13  1  0  0  0  0
 13 14  1  0  0  0  0
 13 16  1  0  0  0  0
 13 25  1  0  0  0  0
 14 15  1  0  0  0  0
 14 26  1  0  0  0  0
 14 27  1  0  0  0  0
 15 28  1  0  0  0  0
 16 17  1  0  0  0  0
 16 18  1  0  0  0  0
 16 29  1  0  0  0  0
 18 19  1  0  0  0  0
 18 30  1  0  0  0  0
 19 31  1  0  0  0  0
M  END
> <s_m_source_file>
AV-unprocessed.smi

> <i_m_source_file_index>
100

> <i_lp_mmshare_version>
43012

> <i_f3d_flags>
0

> <s_epik_input>
bjFbY0hdbmMoW05IMl0pYyhjMTIpbltjSF1uMltDQEBIXTNPW0NAQEhdKFtDSDJdW09IXSlbQ0BIXShGKVtDQEhdM1tPSF0=

> <s_epik_cmdline>
J2VwaWtfcHl0aG9uJywgJy1waCcsICc3LjAnLCAnLXRuJywgJzgnLCAnLW1hJywgJzIwMCcsICctbWV0YWxfYmluZGluZycsICctaW1hZScsICc8aW5maWxlLm1hZT4nLCAnLW9tYWUnLCAnPG91dGZpbGUubWFlPic=

> <r_lp_tautomer_probability>
1

> <r_epik_Ionization_Penalty>
0.000750324

> <r_epik_Ionization_Penalty_Charging>
0

> <r_epik_Ionization_Penalty_Neutral>
0.000750324

> <r_epik_State_Penalty>
-0

> <r_epik_Charging_Adjusted_Penalty>
0

> <i_epik_Tot_Q>
0

> <i_epik_Tot_abs_Q>
0

> <r_epik_Metal_State_Penalty>
-0

> <b_epik_Metal_Only>
0

> <s_epik_Chemistry_Notes>
This compound contains an acetal/aminal-like group ( X-CH(R)-Y where X, Y are N, S, or O) that may be acid/base labile, releasing an aldehyde.

> <s_lp_Force_Field>
OPLS_2005

> <r_lp_Energy>
37.0589

> <b_lp_Chiralities_Consistent>
1

> <s_lp_Variant>
AV-unprocessed.smi:100-2

> <Gold.Version>
5.8.1

> <Gold.Id.Protein>
6NUR|6NUR_protein|mol2

> <Gold.PLP.Fitness>
40.2298

> <Gold.PLP.PLP>
-31.7247

> <Gold.PLP.part.hbond>
-3.0000

> <Gold.PLP.part.metal>
0.0000

> <Gold.PLP.part.buried>
-4.6044

> <Gold.PLP.part.nonpolar>
-23.6928

> <Gold.PLP.part.repulsive>
0.1879

> <Gold.PLP.ligand.clash>
0.0000

> <Gold.PLP.ligand.torsion>
0.0449

> <Gold.PLP.Chemscore.Hbond>
2.8640

> <Gold.PLP.Chemscore.CHOScore>
0.0000

> <Gold.PLP.Chemscore.Metal>
0.0000

> <Gold.Chemscore.Hbonds>
donor molecule, donor type, donor heavy atom, donor atom, acceptor molecule, acceptor atom, score
      L1  H    15    28       P1  7948  1.00
      P1  H  7989  7998       L1    12  1.00
      P1  H  7997  8010       L1     8  0.77

> <Gold.PLP.Chemscore.Internal.Correction>
0.0029

> <Gold.Rescore>
     Score         DG    S(hbond)    S(metal)    S(lipo)     H(rot)  DE(clash)    DE(int)     intcor
      6.87      -7.68       2.01        0.00      31.11       3.19       0.79       0.02       ----

> <Gold.Chemscore.Fitness>
6.8669

> <Gold.Chemscore.DG>
-7.6768

> <Gold.Chemscore.ZeroCoef>
-5.4800

> <Gold.Chemscore.Hbond>
2.0131

> <Gold.Chemscore.Metal>
0.0000

> <Gold.Chemscore.Lipo>
31.1089

> <Gold.Chemscore.Internal_Hbond>
0.0000

> <Gold.Chemscore.DEClash>
0.7851

> <Gold.Chemscore.DEInternal>
0.0248

> <Gold.Chemscore.Rot>
3.1901

> <Gold.Chemscore.Internal.Correction>
   9.000000E+99

> <Gold.Chemscore.Hbonds>
donor molecule, donor type, donor heavy atom, donor atom, acceptor molecule, acceptor atom, score
      L1  H    15    28       P1  7948  0.96
      P1  H  7989  7998       L1    12  0.33
      P1  H  7997  8010       L1     8  0.12

> <Gold.Chemscore.Hbond.Weighted>
-6.7237

> <Gold.Chemscore.Metal.Weighted>
-0.0000

> <Gold.Chemscore.Lipo.Weighted>
-3.6397

> <Gold.Chemscore.Internal_Hbond.Weighted>
0.0000

> <Gold.Chemscore.DEClash.Weighted>
0.7851

> <Gold.Chemscore.DEInternal.Weighted>
0.0248

> <Gold.Chemscore.Rot.Weighted>
8.1667

> <Gold.Chemscore.Internal.Correction.Weighted>
   9.000000E+99

> <Gold.Protein.RotatedTorsions>
[ 6907 6896 6895 6894 ] final   15.56 input  -60.11 | X-H torsion
[ 7974 7965 7964 7962 ] final -150.89 input  175.53 | X-H torsion
[ 8008 7997 7996 7995 ] final   20.30 input   59.86 | X-H torsion
[ 10167 10162 10161 10158 ] final  121.11 input  -65.29 | X-H torsion
[ 10718 10713 10712 10709 ] final   73.89 input   66.30 | X-H torsion
[ 10763 10752 10751 10750 ] final   84.25 input  -60.55 | X-H torsion
[ 11005 11000 10999 10996 ] final  110.53 input  -57.11 | X-H torsion

> <Gold.Protein.ActiveResidues>
 VAL166  LYS551  ARG553  GLY616  TRP617  ASP618  TYR619  PRO620  LYS621  CYS622 
 ASP623  PHE694  ASN695  SER759  ASP760  ASP761  ALA762  ILE779  LEU786  VAL792 
 PHE793  MET794  SER795  GLU796  ALA797  LYS798  CYS799  TRP800  GLU811  SER814 

> <Gold.Protein.RotatedAtoms>
  151.8200  135.0654  160.0423 H   0  0  0  0  0  0  0  0  0  0  0  0  # atno 6907 bound_to 6896
  152.2958  133.5601  159.5595 H   0  0  0  0  0  0  0  0  0  0  0  0  # atno 6908 bound_to 6896
  150.7250  134.0279  159.3765 H   0  0  0  0  0  0  0  0  0  0  0  0  # atno 6909 bound_to 6896
  144.7881  140.4871  143.5792 H   0  0  0  0  0  0  0  0  0  0  0  0  # atno 7974 bound_to 7965
  154.9335  140.3043  155.5156 H   0  0  0  0  0  0  0  0  0  0  0  0  # atno 8008 bound_to 7997
  156.3001  140.2349  156.4334 H   0  0  0  0  0  0  0  0  0  0  0  0  # atno 8009 bound_to 7997
  154.8214  140.0423  157.1402 H   0  0  0  0  0  0  0  0  0  0  0  0  # atno 8010 bound_to 7997
  139.5940  144.7035  151.3221 H   0  0  0  0  0  0  0  0  0  0  0  0  # atno 10167 bound_to 10162
  157.6568  130.9651  150.1133 H   0  0  0  0  0  0  0  0  0  0  0  0  # atno 10718 bound_to 10713
  153.1365  135.4661  154.9430 H   0  0  0  0  0  0  0  0  0  0  0  0  # atno 10763 bound_to 10752
  154.7710  135.3159  154.8191 H   0  0  0  0  0  0  0  0  0  0  0  0  # atno 10764 bound_to 10752
  153.8723  135.6902  153.4827 H   0  0  0  0  0  0  0  0  0  0  0  0  # atno 10765 bound_to 10752
  139.8884  134.9486  156.6294 H   0  0  0  0  0  0  0  0  0  0  0  0  # atno 11005 bound_to 11000
  145.5867  139.1492  143.3205 LP  0  0  0  0  0  0  0  0  0  0  0  0  # atno 17320 bound_to 7965
  146.2122  140.5995  142.9054 LP  0  0  0  0  0  0  0  0  0  0  0  0  # atno 17321 bound_to 7965
  140.7196  143.7171  150.7724 LP  0  0  0  0  0  0  0  0  0  0  0  0  # atno 17342 bound_to 10162
  140.0733  143.5040  152.2568 LP  0  0  0  0  0  0  0  0  0  0  0  0  # atno 17343 bound_to 10162
  156.2024  130.3661  149.8771 LP  0  0  0  0  0  0  0  0  0  0  0  0  # atno 17370 bound_to 10713
  156.6672  130.8805  151.3556 LP  0  0  0  0  0  0  0  0  0  0  0  0  # atno 17371 bound_to 10713
  140.7678  133.8763  155.8468 LP  0  0  0  0  0  0  0  0  0  0  0  0  # atno 17394 bound_to 11000
  140.9867  134.1333  157.4445 LP  0  0  0  0  0  0  0  0  0  0  0  0  # atno 17395 bound_to 11000

$$$$
