AV-unprocessed.smi:763|AV-procd|sdf|3634|dock5
  -GOLD-   22720 1 23D 1   1.00000     0.00000
 Structure written by MMmdl.
 44 45  0  0  0  0  0  0  0  0  1 V2000
  152.4860  144.6871  158.0751 C   0  0  0  0  0  0  0  0  0  0  0  0
  151.6257  144.1758  159.0810 O   0  0  0  0  0  0  0  0  0  0  0  0
  152.2494  144.0089  160.3466 C   0  0  0  0  0  0  0  0  0  0  0  0
  152.7535  142.5734  160.5551 C   0  0  0  0  0  0  0  0  0  0  0  0
  151.9505  141.6928  159.7750 O   0  0  0  0  0  0  0  0  0  0  0  0
  152.4963  140.4957  159.3527 C   0  0  0  0  0  0  0  0  0  0  0  0
  153.5076  139.9522  160.0758 N   0  0  0  0  0  0  0  0  0  0  0  0
  154.0351  138.7811  159.6617 C   0  0  0  0  0  0  0  0  0  0  0  0
  153.5876  138.0951  158.5172 C   0  0  0  0  0  0  0  0  0  0  0  0
  152.5400  138.6593  157.7661 C   0  0  0  0  0  0  0  0  0  0  0  0
  151.9800  139.8848  158.1875 C   0  0  0  0  0  0  0  0  0  0  0  0
  150.9403  140.4978  157.4827 N   0  0  0  0  0  0  0  0  0  0  0  0
  150.1461  139.9526  156.0417 S   0  0  0  0  0  0  0  0  0  0  0  0
  151.1746  139.9779  154.9902 O   0  0  0  0  0  0  0  0  0  0  0  0
  149.4695  138.7005  156.4137 O   0  0  0  0  0  0  0  0  0  0  0  0
  148.8968  141.2901  155.7301 C   0  0  2  0  0  0  0  0  0  0  0  0
  147.8259  141.2729  156.8404 C   0  0  0  0  0  0  0  0  0  0  0  0
  146.7485  142.3434  156.6123 C   0  0  0  0  0  0  0  0  0  0  0  0
  146.1041  142.1900  155.2273 C   0  0  0  0  0  0  0  0  0  0  0  0
  147.1656  142.2505  154.1194 C   0  0  0  0  0  0  0  0  0  0  0  0
  148.2589  141.1850  154.3228 C   0  0  1  0  0  0  0  0  0  0  0  0
  149.2313  141.3713  153.3152 O   0  0  0  0  0  0  0  0  0  0  0  0
  151.9198  144.8354  157.1557 H   0  0  0  0  0  0  0  0  0  0  0  0
  153.3021  144.0000  157.8522 H   0  0  0  0  0  0  0  0  0  0  0  0
  152.9078  145.6496  158.3668 H   0  0  0  0  0  0  0  0  0  0  0  0
  153.0501  144.7358  160.4920 H   0  0  0  0  0  0  0  0  0  0  0  0
  151.4932  144.2280  161.1008 H   0  0  0  0  0  0  0  0  0  0  0  0
  153.7939  142.5034  160.2333 H   0  0  0  0  0  0  0  0  0  0  0  0
  152.7046  142.3025  161.6108 H   0  0  0  0  0  0  0  0  0  0  0  0
  154.8383  138.3790  160.2613 H   0  0  0  0  0  0  0  0  0  0  0  0
  154.0375  137.1590  158.2212 H   0  0  0  0  0  0  0  0  0  0  0  0
  152.1813  138.1519  156.8831 H   0  0  0  0  0  0  0  0  0  0  0  0
  150.6238  141.3774  157.8642 H   0  0  0  0  0  0  0  0  0  0  0  0
  149.4375  142.2349  155.8001 H   0  0  0  0  0  0  0  0  0  0  0  0
  147.3509  140.2920  156.8797 H   0  0  0  0  0  0  0  0  0  0  0  0
  148.2913  141.4283  157.8140 H   0  0  0  0  0  0  0  0  0  0  0  0
  145.9848  142.2729  157.3873 H   0  0  0  0  0  0  0  0  0  0  0  0
  147.1915  143.3358  156.7044 H   0  0  0  0  0  0  0  0  0  0  0  0
  145.5701  141.2405  155.1730 H   0  0  0  0  0  0  0  0  0  0  0  0
  145.3613  142.9736  155.0742 H   0  0  0  0  0  0  0  0  0  0  0  0
  146.6900  142.1171  153.1470 H   0  0  0  0  0  0  0  0  0  0  0  0
  147.6153  143.2446  154.1084 H   0  0  0  0  0  0  0  0  0  0  0  0
  147.8164  140.1974  154.1898 H   0  0  0  0  0  0  0  0  0  0  0  0
  149.2168  140.6211  152.7396 H   0  0  0  0  0  0  0  0  0  0  0  0
  1  2  1  0  0  0  0
  1 23  1  0  0  0  0
  1 24  1  0  0  0  0
  1 25  1  0  0  0  0
  2  3  1  0  0  0  0
  3  4  1  0  0  0  0
  3 26  1  0  0  0  0
  3 27  1  0  0  0  0
  4  5  1  0  0  0  0
  4 28  1  0  0  0  0
  4 29  1  0  0  0  0
  5  6  1  0  0  0  0
  6 11  1  0  0  0  0
  6  7  2  0  0  0  0
  7  8  1  0  0  0  0
  8  9  2  0  0  0  0
  8 30  1  0  0  0  0
  9 10  1  0  0  0  0
  9 31  1  0  0  0  0
 10 11  2  0  0  0  0
 10 32  1  0  0  0  0
 11 12  1  0  0  0  0
 12 13  1  0  0  0  0
 12 33  1  0  0  0  0
 13 14  2  0  0  0  0
 13 15  2  0  0  0  0
 13 16  1  0  0  0  0
 16 21  1  0  0  0  0
 16 17  1  0  0  0  0
 16 34  1  0  0  0  0
 17 18  1  0  0  0  0
 17 35  1  0  0  0  0
 17 36  1  0  0  0  0
 18 19  1  0  0  0  0
 18 37  1  0  0  0  0
 18 38  1  0  0  0  0
 19 20  1  0  0  0  0
 19 39  1  0  0  0  0
 19 40  1  0  0  0  0
 20 21  1  0  0  0  0
 20 41  1  0  0  0  0
 20 42  1  0  0  0  0
 21 22  1  0  0  0  0
 21 43  1  0  0  0  0
 22 44  1  0  0  0  0
M  END
> <s_m_source_file>
AV-unprocessed.smi

> <i_m_source_file_index>
763

> <i_lp_mmshare_version>
43012

> <i_f3d_flags>
0

> <s_epik_input>
W0NIM11PW0NIMl1bQ0gyXU9jMW5bY0hdW2NIXVtjSF1jMVtOSF1TKD1PKSg9TylbQ0BASF0yW0NIMl1bQ0gyXVtDSDJdW0NIMl1bQ0BIXTJbT0hd

> <s_epik_cmdline>
J2VwaWtfcHl0aG9uJywgJy1waCcsICc3LjAnLCAnLXRuJywgJzgnLCAnLW1hJywgJzIwMCcsICctbWV0YWxfYmluZGluZycsICctaW1hZScsICc8aW5maWxlLm1hZT4nLCAnLW9tYWUnLCAnPG91dGZpbGUubWFlPic=

> <r_epik_Ionization_Penalty>
0.124685

> <r_epik_Ionization_Penalty_Charging>
0

> <r_epik_Ionization_Penalty_Neutral>
0.124685

> <r_epik_State_Penalty>
0.114154

> <r_epik_Charging_Adjusted_Penalty>
0.114154

> <i_epik_Tot_Q>
0

> <i_epik_Tot_abs_Q>
0

> <r_epik_Metal_State_Penalty>
0.443785

> <b_epik_Metal_Only>
0

> <s_lp_Force_Field>
OPLS_2005

> <r_lp_Energy>
9.05246

> <b_lp_Chiralities_Consistent>
1

> <s_lp_Variant>
AV-unprocessed.smi:763-1

> <Gold.Version>
5.8.1

> <Gold.Id.Protein>
6NUR|6NUR_protein|mol2

> <Gold.PLP.Fitness>
45.9209

> <Gold.PLP.PLP>
-39.7526

> <Gold.PLP.part.hbond>
-3.7916

> <Gold.PLP.part.metal>
0.0000

> <Gold.PLP.part.buried>
-7.0921

> <Gold.PLP.part.nonpolar>
-28.3851

> <Gold.PLP.part.repulsive>
0.1489

> <Gold.PLP.ligand.clash>
0.0000

> <Gold.PLP.ligand.torsion>
1.9217

> <Gold.PLP.Chemscore.Hbond>
2.8800

> <Gold.PLP.Chemscore.CHOScore>
0.0000

> <Gold.PLP.Chemscore.Metal>
0.0000

> <Gold.Chemscore.Hbonds>
donor molecule, donor type, donor heavy atom, donor atom, acceptor molecule, acceptor atom, score
      L1  H    22    44       P1  7957  0.88
      P1  H  7989  7998       L1    14  1.00
      P1  H  8011  8017       L1    22  0.95

> <Gold.PLP.Chemscore.Internal.Correction>
1.3716

> <Gold.Rescore>
     Score         DG    S(hbond)    S(metal)    S(lipo)     H(rot)  DE(clash)    DE(int)     intcor
     16.12     -17.93       2.47        0.00      88.56       2.41       0.03       1.79       ----

> <Gold.Chemscore.Fitness>
16.1151

> <Gold.Chemscore.DG>
-17.9345

> <Gold.Chemscore.ZeroCoef>
-5.4800

> <Gold.Chemscore.Hbond>
2.4701

> <Gold.Chemscore.Metal>
0.0000

> <Gold.Chemscore.Lipo>
88.5631

> <Gold.Chemscore.Internal_Hbond>
0.0000

> <Gold.Chemscore.DEClash>
0.0253

> <Gold.Chemscore.DEInternal>
1.7941

> <Gold.Chemscore.Rot>
2.4052

> <Gold.Chemscore.Internal.Correction>
   9.000000E+99

> <Gold.Chemscore.Hbonds>
donor molecule, donor type, donor heavy atom, donor atom, acceptor molecule, acceptor atom, score
      L1  H    22    44       P1  7957  0.87
      P1  H  7989  7998       L1    14  1.00
      P1  H  8011  8017       L1    22  0.19

> <Gold.Chemscore.Hbond.Weighted>
-8.2500

> <Gold.Chemscore.Metal.Weighted>
-0.0000

> <Gold.Chemscore.Lipo.Weighted>
-10.3619

> <Gold.Chemscore.Internal_Hbond.Weighted>
0.0000

> <Gold.Chemscore.DEClash.Weighted>
0.0253

> <Gold.Chemscore.DEInternal.Weighted>
1.7941

> <Gold.Chemscore.Rot.Weighted>
6.1574

> <Gold.Chemscore.Internal.Correction.Weighted>
   9.000000E+99

> <Gold.Protein.RotatedTorsions>
[ 6907 6896 6895 6894 ] final   -1.49 input  -60.11 | X-H torsion
[ 7974 7965 7964 7962 ] final  179.25 input  175.53 | X-H torsion
[ 8008 7997 7996 7995 ] final -121.14 input   59.86 | X-H torsion
[ 10167 10162 10161 10158 ] final -154.06 input  -65.29 | X-H torsion
[ 10718 10713 10712 10709 ] final  -91.23 input   66.30 | X-H torsion
[ 10763 10752 10751 10750 ] final  129.65 input  -60.55 | X-H torsion
[ 11005 11000 10999 10996 ] final   64.01 input  -57.11 | X-H torsion

> <Gold.Protein.ActiveResidues>
 VAL166  LYS551  ARG553  GLY616  TRP617  ASP618  TYR619  PRO620  LYS621  CYS622 
 ASP623  PHE694  ASN695  SER759  ASP760  ASP761  ALA762  ILE779  LEU786  VAL792 
 PHE793  MET794  SER795  GLU796  ALA797  LYS798  CYS799  TRP800  GLU811  SER814 

> <Gold.Protein.RotatedAtoms>
  151.5453  135.1068  159.9936 H   0  0  0  0  0  0  0  0  0  0  0  0  # atno 6907 bound_to 6896
  152.4517  133.7637  159.6771 H   0  0  0  0  0  0  0  0  0  0  0  0  # atno 6908 bound_to 6896
  150.8447  133.7814  159.3072 H   0  0  0  0  0  0  0  0  0  0  0  0  # atno 6909 bound_to 6896
  144.7147  140.0519  143.6435 H   0  0  0  0  0  0  0  0  0  0  0  0  # atno 7974 bound_to 7965
  155.1431  140.0402  157.2803 H   0  0  0  0  0  0  0  0  0  0  0  0  # atno 8008 bound_to 7997
  154.6458  140.2557  155.7243 H   0  0  0  0  0  0  0  0  0  0  0  0  # atno 8009 bound_to 7997
  156.2554  140.2846  156.0871 H   0  0  0  0  0  0  0  0  0  0  0  0  # atno 8010 bound_to 7997
  139.7045  143.9209  152.2443 H   0  0  0  0  0  0  0  0  0  0  0  0  # atno 10167 bound_to 10162
  155.9992  130.4940  150.5442 H   0  0  0  0  0  0  0  0  0  0  0  0  # atno 10718 bound_to 10713
  153.7451  135.3218  155.3311 H   0  0  0  0  0  0  0  0  0  0  0  0  # atno 10763 bound_to 10752
  154.8282  135.4554  154.0987 H   0  0  0  0  0  0  0  0  0  0  0  0  # atno 10764 bound_to 10752
  153.2173  135.6943  153.8123 H   0  0  0  0  0  0  0  0  0  0  0  0  # atno 10765 bound_to 10752
  139.9987  134.6476  155.9967 H   0  0  0  0  0  0  0  0  0  0  0  0  # atno 11005 bound_to 11000
  145.9936  139.3035  143.0970 LP  0  0  0  0  0  0  0  0  0  0  0  0  # atno 17320 bound_to 7965
  145.8874  140.9325  143.0570 LP  0  0  0  0  0  0  0  0  0  0  0  0  # atno 17321 bound_to 7965
  139.9061  144.6884  150.8613 LP  0  0  0  0  0  0  0  0  0  0  0  0  # atno 17342 bound_to 10162
  140.7718  143.3478  151.2076 LP  0  0  0  0  0  0  0  0  0  0  0  0  # atno 17343 bound_to 10162
  157.3374  131.0710  151.1814 LP  0  0  0  0  0  0  0  0  0  0  0  0  # atno 17370 bound_to 10713
  157.2674  130.6688  149.6003 LP  0  0  0  0  0  0  0  0  0  0  0  0  # atno 17371 bound_to 10713
  141.1625  133.6538  156.4366 LP  0  0  0  0  0  0  0  0  0  0  0  0  # atno 17394 bound_to 11000
  140.4769  134.6701  157.5154 LP  0  0  0  0  0  0  0  0  0  0  0  0  # atno 17395 bound_to 11000

$$$$
