AV-unprocessed.smi:1676|AV-procd|sdf|6719|dock2
  -GOLD-   22720 7463D 1   1.00000     0.00000
 Structure written by MMmdl.
 42 43  0  0  0  0  0  0  0  0  2 V2000
  147.5263  138.7693  156.9786 C   0  0  0  0  0  0  0  0  0  0  0  0
  147.3616  138.0808  158.3031 C   0  0  0  0  0  0  0  0  0  0  0  0
  146.2436  138.2560  158.9873 N   0  0  0  0  0  0  0  0  0  0  0  0
  146.3794  137.4871  160.1471 O   0  0  0  0  0  0  0  0  0  0  0  0
  147.5882  136.8707  160.1145 C   0  0  0  0  0  0  0  0  0  0  0  0
  147.9191  135.9882  161.2697 C   0  0  0  0  0  0  0  0  0  0  0  0
  148.2660  137.2086  158.9756 C   0  0  0  0  0  0  0  0  0  0  0  0
  149.6371  136.7584  158.5306 C   0  0  0  0  0  0  0  0  0  0  0  0
  150.6658  137.8949  158.5967 C   0  0  0  0  0  0  0  0  0  0  0  0
  151.5122  137.9214  159.4905 O   0  0  0  0  0  0  0  0  0  0  0  0
  150.5403  138.8172  157.6238 N   0  0  0  0  0  0  0  0  0  0  0  0
  151.2930  140.0437  157.2985 C   0  0  0  0  0  0  0  0  0  0  0  0
  151.7035  139.8631  155.8116 C   0  0  0  0  0  0  0  0  0  0  0  0
  150.8222  139.9455  154.9268 O   0  0  0  0  0  0  0  0  0  0  0  0
  152.9066  139.6048  155.5773 O   0  5  0  0  0  0  0  0  0  0  0  0
  150.4720  141.3627  157.4921 C   0  0  0  0  0  0  0  0  0  0  0  0
  151.2743  142.6745  157.3930 C   0  0  0  0  0  0  0  0  0  0  0  0
  151.7867  143.1514  158.7619 C   0  0  0  0  0  0  0  0  0  0  0  0
  152.8931  142.2782  159.3725 C   0  0  0  0  0  0  0  0  0  0  0  0
  152.5431  140.7843  159.5082 C   0  0  0  0  0  0  0  0  0  0  0  0
  152.5920  140.0289  158.1660 C   0  0  0  0  0  0  0  0  0  0  0  0
  148.5673  138.7729  156.6568 H   0  0  0  0  0  0  0  0  0  0  0  0
  147.1943  139.8066  157.0279 H   0  0  0  0  0  0  0  0  0  0  0  0
  146.9440  138.2683  156.2052 H   0  0  0  0  0  0  0  0  0  0  0  0
  148.6553  135.2355  160.9868 H   0  0  0  0  0  0  0  0  0  0  0  0
  147.0307  135.4690  161.6298 H   0  0  0  0  0  0  0  0  0  0  0  0
  148.3295  136.5707  162.0942 H   0  0  0  0  0  0  0  0  0  0  0  0
  149.9968  135.9318  159.1438 H   0  0  0  0  0  0  0  0  0  0  0  0
  149.6086  136.3811  157.5076 H   0  0  0  0  0  0  0  0  0  0  0  0
  149.7721  138.6514  156.9898 H   0  0  0  0  0  0  0  0  0  0  0  0
  149.6580  141.4016  156.7664 H   0  0  0  0  0  0  0  0  0  0  0  0
  149.9690  141.3581  158.4586 H   0  0  0  0  0  0  0  0  0  0  0  0
  152.0923  142.5930  156.6767 H   0  0  0  0  0  0  0  0  0  0  0  0
  150.6128  143.4471  156.9999 H   0  0  0  0  0  0  0  0  0  0  0  0
  152.1688  144.1674  158.6582 H   0  0  0  0  0  0  0  0  0  0  0  0
  150.9520  143.2218  159.4603 H   0  0  0  0  0  0  0  0  0  0  0  0
  153.8097  142.3897  158.7919 H   0  0  0  0  0  0  0  0  0  0  0  0
  153.1253  142.6718  160.3625 H   0  0  0  0  0  0  0  0  0  0  0  0
  153.2902  140.3364  160.1646 H   0  0  0  0  0  0  0  0  0  0  0  0
  151.5877  140.6393  160.0130 H   0  0  0  0  0  0  0  0  0  0  0  0
  152.8684  138.9936  158.3748 H   0  0  0  0  0  0  0  0  0  0  0  0
  153.4396  140.4212  157.6007 H   0  0  0  0  0  0  0  0  0  0  0  0
  1  2  1  0  0  0  0
  1 22  1  0  0  0  0
  1 23  1  0  0  0  0
  1 24  1  0  0  0  0
  2  7  1  0  0  0  0
  2  3  2  0  0  0  0
  3  4  1  0  0  0  0
  4  5  1  0  0  0  0
  5  6  1  0  0  0  0
  5  7  2  0  0  0  0
  6 25  1  0  0  0  0
  6 26  1  0  0  0  0
  6 27  1  0  0  0  0
  7  8  1  0  0  0  0
  8  9  1  0  0  0  0
  8 28  1  0  0  0  0
  8 29  1  0  0  0  0
  9 10  2  0  0  0  0
  9 11  1  0  0  0  0
 11 12  1  0  0  0  0
 11 30  1  0  0  0  0
 12 21  1  0  0  0  0
 12 13  1  0  0  0  0
 12 16  1  0  0  0  0
 13 14  2  0  0  0  0
 13 15  1  0  0  0  0
 16 17  1  0  0  0  0
 16 31  1  0  0  0  0
 16 32  1  0  0  0  0
 17 18  1  0  0  0  0
 17 33  1  0  0  0  0
 17 34  1  0  0  0  0
 18 19  1  0  0  0  0
 18 35  1  0  0  0  0
 18 36  1  0  0  0  0
 19 20  1  0  0  0  0
 19 37  1  0  0  0  0
 19 38  1  0  0  0  0
 20 21  1  0  0  0  0
 20 39  1  0  0  0  0
 20 40  1  0  0  0  0
 21 41  1  0  0  0  0
 21 42  1  0  0  0  0
M  CHG  1  15  -1
M  END
> <s_m_source_file>
AV-unprocessed.smi

> <i_m_source_file_index>
1676

> <i_lp_mmshare_version>
43012

> <i_f3d_flags>
0

> <s_epik_input>
W0NIM11jMW5vYyhbQ0gzXSljMVtDSDJdQyg9TylbTkhdQzIoQyg9TylbT0hdKVtDSDJdW0NIMl1bQ0gyXVtDSDJdW0NIMl1bQ0gyXTI=

> <s_epik_cmdline>
J2VwaWtfcHl0aG9uJywgJy1waCcsICc3LjAnLCAnLXRuJywgJzgnLCAnLW1hJywgJzIwMCcsICctbWV0YWxfYmluZGluZycsICctaW1hZScsICc8aW5maWxlLm1hZT4nLCAnLW9tYWUnLCAnPG91dGZpbGUubWFlPic=

> <r_epik_Ionization_Penalty>
0.000392727

> <r_epik_Ionization_Penalty_Charging>
0.000392708

> <r_epik_Ionization_Penalty_Neutral>
1.90763e-08

> <r_epik_State_Penalty>
0.000240388

> <r_epik_Charging_Adjusted_Penalty>
0.000633096

> <i_epik_Tot_Q>
-1

> <i_epik_Tot_abs_Q>
1

> <r_epik_Metal_State_Penalty>
-0

> <b_epik_Metal_Only>
0

> <s_lp_Force_Field>
OPLS_2005

> <r_lp_Energy>
9.66029

> <b_lp_Chiralities_Consistent>
1

> <s_lp_Variant>
AV-unprocessed.smi:1676-1

> <Gold.Version>
5.8.1

> <Gold.Id.Protein>
6NUR|6NUR_protein|mol2

> <Gold.PLP.Fitness>
39.7715

> <Gold.PLP.PLP>
-32.7825

> <Gold.PLP.part.hbond>
-4.0000

> <Gold.PLP.part.metal>
0.0000

> <Gold.PLP.part.buried>
-4.2952

> <Gold.PLP.part.nonpolar>
-24.4293

> <Gold.PLP.part.repulsive>
0.0938

> <Gold.PLP.ligand.clash>
1.3305

> <Gold.PLP.ligand.torsion>
0.6380

> <Gold.PLP.Chemscore.Hbond>
3.1750

> <Gold.PLP.Chemscore.CHOScore>
0.0000

> <Gold.PLP.Chemscore.Metal>
0.0000

> <Gold.Chemscore.Hbonds>
donor molecule, donor type, donor heavy atom, donor atom, acceptor molecule, acceptor atom, score
      P1  H  6934  6947       L1     4  0.17
      P1  H  7989  7998       L1    14  1.00
      P1  H  7997  8009       L1    15  2.00

> <Gold.PLP.Chemscore.Internal.Correction>
0.0706

> <Gold.Rescore>
     Score         DG    S(hbond)    S(metal)    S(lipo)     H(rot)  DE(clash)    DE(int)     intcor
     13.34     -15.55       1.93        0.00      72.50       1.89       0.01       2.20       ----

> <Gold.Chemscore.Fitness>
13.3378

> <Gold.Chemscore.DG>
-15.5471

> <Gold.Chemscore.ZeroCoef>
-5.4800

> <Gold.Chemscore.Hbond>
1.9250

> <Gold.Chemscore.Metal>
0.0000

> <Gold.Chemscore.Lipo>
72.4958

> <Gold.Chemscore.Internal_Hbond>
0.0000

> <Gold.Chemscore.DEClash>
0.0106

> <Gold.Chemscore.DEInternal>
2.1986

> <Gold.Chemscore.Rot>
1.8924

> <Gold.Chemscore.Internal.Correction>
   9.000000E+99

> <Gold.Chemscore.Hbonds>
donor molecule, donor type, donor heavy atom, donor atom, acceptor molecule, acceptor atom, score
      P1  H  7989  7998       L1    14  0.50
      P1  H  7997  8009       L1    15  1.00

> <Gold.Chemscore.Hbond.Weighted>
-6.4296

> <Gold.Chemscore.Metal.Weighted>
-0.0000

> <Gold.Chemscore.Lipo.Weighted>
-8.4820

> <Gold.Chemscore.Internal_Hbond.Weighted>
0.0000

> <Gold.Chemscore.DEClash.Weighted>
0.0106

> <Gold.Chemscore.DEInternal.Weighted>
2.1986

> <Gold.Chemscore.Rot.Weighted>
4.8445

> <Gold.Chemscore.Internal.Correction.Weighted>
   9.000000E+99

> <Gold.Protein.RotatedTorsions>
[ 6907 6896 6895 6894 ] final   33.82 input  -60.11 | X-H torsion
[ 7974 7965 7964 7962 ] final  -71.66 input  175.53 | X-H torsion
[ 8008 7997 7996 7995 ] final -144.34 input   59.86 | X-H torsion
[ 10167 10162 10161 10158 ] final   28.76 input  -65.29 | X-H torsion
[ 10718 10713 10712 10709 ] final -165.46 input   66.30 | X-H torsion
[ 10763 10752 10751 10750 ] final  162.06 input  -60.55 | X-H torsion
[ 11005 11000 10999 10996 ] final  -79.48 input  -57.11 | X-H torsion

> <Gold.Protein.ActiveResidues>
 VAL166  LYS551  ARG553  GLY616  TRP617  ASP618  TYR619  PRO620  LYS621  CYS622 
 ASP623  PHE694  ASN695  SER759  ASP760  ASP761  ALA762  ILE779  LEU786  VAL792 
 PHE793  MET794  SER795  GLU796  ALA797  LYS798  CYS799  TRP800  GLU811  SER814 

> <Gold.Protein.RotatedAtoms>
  152.0938  134.9389  160.0571 H   0  0  0  0  0  0  0  0  0  0  0  0  # atno 6907 bound_to 6896
  152.0630  133.4066  159.4434 H   0  0  0  0  0  0  0  0  0  0  0  0  # atno 6908 bound_to 6896
  150.6837  134.3099  159.4785 H   0  0  0  0  0  0  0  0  0  0  0  0  # atno 6909 bound_to 6896
  145.6752  140.9207  143.0861 H   0  0  0  0  0  0  0  0  0  0  0  0  # atno 7974 bound_to 7965
  155.5253  140.0595  157.2899 H   0  0  0  0  0  0  0  0  0  0  0  0  # atno 8008 bound_to 7997
  154.4503  140.1945  156.0484 H   0  0  0  0  0  0  0  0  0  0  0  0  # atno 8009 bound_to 7997
  156.0690  140.3262  155.7557 H   0  0  0  0  0  0  0  0  0  0  0  0  # atno 8010 bound_to 7997
  140.4824  144.0595  150.6270 H   0  0  0  0  0  0  0  0  0  0  0  0  # atno 10167 bound_to 10162
  156.6537  130.9018  151.3017 H   0  0  0  0  0  0  0  0  0  0  0  0  # atno 10718 bound_to 10713
  154.2726  135.2765  155.2731 H   0  0  0  0  0  0  0  0  0  0  0  0  # atno 10763 bound_to 10752
  154.5288  135.5735  153.6745 H   0  0  0  0  0  0  0  0  0  0  0  0  # atno 10764 bound_to 10752
  152.9942  135.6222  154.2881 H   0  0  0  0  0  0  0  0  0  0  0  0  # atno 10765 bound_to 10752
  141.1667  133.7107  156.8128 H   0  0  0  0  0  0  0  0  0  0  0  0  # atno 11005 bound_to 11000
  144.7044  139.8625  143.7434 LP  0  0  0  0  0  0  0  0  0  0  0  0  # atno 17320 bound_to 7965
  146.1011  139.4007  143.0346 LP  0  0  0  0  0  0  0  0  0  0  0  0  # atno 17321 bound_to 7965
  140.3840  143.2787  152.0137 LP  0  0  0  0  0  0  0  0  0  0  0  0  # atno 17342 bound_to 10162
  139.4836  144.6131  151.7396 LP  0  0  0  0  0  0  0  0  0  0  0  0  # atno 17343 bound_to 10162
  157.7132  130.9466  150.1164 LP  0  0  0  0  0  0  0  0  0  0  0  0  # atno 17370 bound_to 10713
  156.2065  130.3663  149.8723 LP  0  0  0  0  0  0  0  0  0  0  0  0  # atno 17371 bound_to 10713
  140.2175  134.8782  157.3341 LP  0  0  0  0  0  0  0  0  0  0  0  0  # atno 17394 bound_to 11000
  140.2022  134.4240  155.7656 LP  0  0  0  0  0  0  0  0  0  0  0  0  # atno 17395 bound_to 11000

$$$$
