AV-unprocessed.smi:3019|AV-procd|sdf|11489|dock7
  -GOLD-   2272016433D 1   1.00000     0.00000
 Structure written by MMmdl.
 30 31  0  0  0  0  0  0  0  0  1 V2000
  152.1641  144.5414  158.0356 C   0  0  0  0  0  0  0  0  0  0  0  0
  151.6583  143.2009  158.5891 C   0  0  0  0  0  0  0  0  0  0  0  0
  152.6361  142.5914  159.6043 C   0  0  0  0  0  0  0  0  0  0  0  0
  151.3323  142.2363  157.4903 C   0  0  0  0  0  0  0  0  0  0  0  0
  150.4235  142.5054  156.5501 N   0  0  0  0  0  0  0  0  0  0  0  0
  150.3290  141.4575  155.7046 N   0  0  0  0  0  0  0  0  0  0  0  0
  151.2298  140.6131  156.2059 C   0  0  0  0  0  0  0  0  0  0  0  0
  151.4405  139.2622  155.5959 C   0  0  2  0  0  0  0  0  0  0  0  0
  150.4926  139.0099  154.4067 C   0  0  0  0  0  0  0  0  0  0  0  0
  150.6567  137.6453  153.9081 N   0  0  0  0  0  0  0  0  0  0  0  0
  150.4693  136.6677  154.9793 C   0  0  0  0  0  0  0  0  0  0  0  0
  151.4133  136.9746  156.1561 C   0  0  0  0  0  0  0  0  0  0  0  0
  151.1847  138.3013  156.6182 O   0  0  0  0  0  0  0  0  0  0  0  0
  151.8786  141.0346  157.3348 N   0  0  0  0  0  0  0  0  0  0  0  0
  151.4304  144.9912  157.3658 H   0  0  0  0  0  0  0  0  0  0  0  0
  153.0917  144.4149  157.4760 H   0  0  0  0  0  0  0  0  0  0  0  0
  152.3561  145.2516  158.8402 H   0  0  0  0  0  0  0  0  0  0  0  0
  150.7303  143.4075  159.1245 H   0  0  0  0  0  0  0  0  0  0  0  0
  152.2351  141.6717  160.0312 H   0  0  0  0  0  0  0  0  0  0  0  0
  152.8291  143.2806  160.4267 H   0  0  0  0  0  0  0  0  0  0  0  0
  153.5933  142.3527  159.1392 H   0  0  0  0  0  0  0  0  0  0  0  0
  152.4808  139.1803  155.2740 H   0  0  0  0  0  0  0  0  0  0  0  0
  149.4592  139.1651  154.7199 H   0  0  0  0  0  0  0  0  0  0  0  0
  150.6896  139.7266  153.6091 H   0  0  0  0  0  0  0  0  0  0  0  0
  149.4350  136.6898  155.3247 H   0  0  0  0  0  0  0  0  0  0  0  0
  150.6530  135.6610  154.6038 H   0  0  0  0  0  0  0  0  0  0  0  0
  151.2290  136.2801  156.9758 H   0  0  0  0  0  0  0  0  0  0  0  0
  152.4571  136.8510  155.8630 H   0  0  0  0  0  0  0  0  0  0  0  0
  149.9848  137.4708  153.1677 H   0  0  0  0  0  0  0  0  0  0  0  0
  149.8662  143.3423  156.4558 H   0  0  0  0  0  0  0  0  0  0  0  0
  1  2  1  0  0  0  0
  1 15  1  0  0  0  0
  1 16  1  0  0  0  0
  1 17  1  0  0  0  0
  2  3  1  0  0  0  0
  2  4  1  0  0  0  0
  2 18  1  0  0  0  0
  3 19  1  0  0  0  0
  3 20  1  0  0  0  0
  3 21  1  0  0  0  0
  4 14  2  0  0  0  0
  4  5  1  0  0  0  0
  5  6  1  0  0  0  0
  5 30  1  0  0  0  0
  6  7  2  0  0  0  0
  7  8  1  0  0  0  0
  7 14  1  0  0  0  0
  8 13  1  0  0  0  0
  8  9  1  0  0  0  0
  8 22  1  0  0  0  0
  9 10  1  0  0  0  0
  9 23  1  0  0  0  0
  9 24  1  0  0  0  0
 10 11  1  0  0  0  0
 10 29  1  0  0  0  0
 11 12  1  0  0  0  0
 11 25  1  0  0  0  0
 11 26  1  0  0  0  0
 12 13  1  0  0  0  0
 12 27  1  0  0  0  0
 12 28  1  0  0  0  0
M  END
> <s_m_source_file>
AV-unprocessed.smi

> <i_m_source_file_index>
3019

> <i_lp_mmshare_version>
43012

> <i_f3d_flags>
0

> <s_epik_input>
W0NIM11bQ0hdKFtDSDNdKWMxbltuSF1jKG4xKVtDQEBIXTJbQ0gyXVtOSF1bQ0gyXVtDSDJdTzI=

> <s_epik_cmdline>
J2VwaWtfcHl0aG9uJywgJy1waCcsICc3LjAnLCAnLXRuJywgJzgnLCAnLW1hJywgJzIwMCcsICctbWV0YWxfYmluZGluZycsICctaW1hZScsICc8aW5maWxlLm1hZT4nLCAnLW9tYWUnLCAnPG91dGZpbGUubWFlPic=

> <r_lp_tautomer_probability>
0.948284

> <r_epik_Ionization_Penalty>
1.10045

> <r_epik_Ionization_Penalty_Charging>
0

> <r_epik_Ionization_Penalty_Neutral>
1.10045

> <r_epik_State_Penalty>
1.2625

> <r_epik_Charging_Adjusted_Penalty>
1.2625

> <i_epik_Tot_Q>
0

> <i_epik_Tot_abs_Q>
0

> <r_epik_Metal_State_Penalty>
1.57133

> <b_epik_Metal_Only>
0

> <s_lp_Force_Field>
OPLS_2005

> <r_lp_Energy>
11.1222

> <b_lp_Chiralities_Consistent>
1

> <s_lp_Variant>
AV-unprocessed.smi:3019-5

> <Gold.Version>
5.8.1

> <Gold.Id.Protein>
6NUR|6NUR_protein|mol2

> <Gold.PLP.Fitness>
34.6673

> <Gold.PLP.PLP>
-28.7187

> <Gold.PLP.part.hbond>
-3.0864

> <Gold.PLP.part.metal>
0.0000

> <Gold.PLP.part.buried>
-3.9954

> <Gold.PLP.part.nonpolar>
-22.7261

> <Gold.PLP.part.repulsive>
0.1504

> <Gold.PLP.ligand.clash>
0.0000

> <Gold.PLP.ligand.torsion>
0.0526

> <Gold.PLP.Chemscore.Hbond>
2.0000

> <Gold.PLP.Chemscore.CHOScore>
0.0000

> <Gold.PLP.Chemscore.Metal>
0.0000

> <Gold.Chemscore.Hbonds>
donor molecule, donor type, donor heavy atom, donor atom, acceptor molecule, acceptor atom, score
      L1  H     5    30       P1  8028  1.00
      L1  H    10    29       P1  7948  1.00

> <Gold.PLP.Chemscore.Internal.Correction>
0.0539

> <Gold.Rescore>
     Score         DG    S(hbond)    S(metal)    S(lipo)     H(rot)  DE(clash)    DE(int)     intcor
     15.07     -15.19       1.80        0.00      59.27       1.26       0.02       0.10       ----

> <Gold.Chemscore.Fitness>
15.0694

> <Gold.Chemscore.DG>
-15.1894

> <Gold.Chemscore.ZeroCoef>
-5.4800

> <Gold.Chemscore.Hbond>
1.7966

> <Gold.Chemscore.Metal>
0.0000

> <Gold.Chemscore.Lipo>
59.2654

> <Gold.Chemscore.Internal_Hbond>
0.0000

> <Gold.Chemscore.DEClash>
0.0250

> <Gold.Chemscore.DEInternal>
0.0950

> <Gold.Chemscore.Rot>
1.2598

> <Gold.Chemscore.Internal.Correction>
   9.000000E+99

> <Gold.Chemscore.Hbonds>
donor molecule, donor type, donor heavy atom, donor atom, acceptor molecule, acceptor atom, score
      L1  H     5    30       P1  8028  1.00
      L1  H    10    29       P1  7948  0.27

> <Gold.Chemscore.Hbond.Weighted>
-6.0005

> <Gold.Chemscore.Metal.Weighted>
-0.0000

> <Gold.Chemscore.Lipo.Weighted>
-6.9341

> <Gold.Chemscore.Internal_Hbond.Weighted>
0.0000

> <Gold.Chemscore.DEClash.Weighted>
0.0250

> <Gold.Chemscore.DEInternal.Weighted>
0.0950

> <Gold.Chemscore.Rot.Weighted>
3.2251

> <Gold.Chemscore.Internal.Correction.Weighted>
   9.000000E+99

> <Gold.Protein.RotatedTorsions>
[ 6907 6896 6895 6894 ] final -177.64 input  -60.11 | X-H torsion
[ 7974 7965 7964 7962 ] final  -88.91 input  175.53 | X-H torsion
[ 8008 7997 7996 7995 ] final  177.80 input   59.86 | X-H torsion
[ 10167 10162 10161 10158 ] final  102.82 input  -65.29 | X-H torsion
[ 10718 10713 10712 10709 ] final  -75.86 input   66.30 | X-H torsion
[ 10763 10752 10751 10750 ] final   64.15 input  -60.55 | X-H torsion
[ 11005 11000 10999 10996 ] final   83.96 input  -57.11 | X-H torsion

> <Gold.Protein.ActiveResidues>
 VAL166  LYS551  ARG553  GLY616  TRP617  ASP618  TYR619  PRO620  LYS621  CYS622 
 ASP623  PHE694  ASN695  SER759  ASP760  ASP761  ALA762  ILE779  LEU786  VAL792 
 PHE793  MET794  SER795  GLU796  ALA797  LYS798  CYS799  TRP800  GLU811  SER814 

> <Gold.Protein.RotatedAtoms>
  151.6242  133.3337  159.3094 H   0  0  0  0  0  0  0  0  0  0  0  0  # atno 6907 bound_to 6896
  150.8090  134.7236  159.6682 H   0  0  0  0  0  0  0  0  0  0  0  0  # atno 6908 bound_to 6896
  152.4186  134.6001  160.0049 H   0  0  0  0  0  0  0  0  0  0  0  0  # atno 6909 bound_to 6896
  145.4468  140.9560  143.2044 H   0  0  0  0  0  0  0  0  0  0  0  0  # atno 7974 bound_to 7965
  156.0617  140.1349  156.9933 H   0  0  0  0  0  0  0  0  0  0  0  0  # atno 8008 bound_to 7997
  154.4485  140.0990  156.6598 H   0  0  0  0  0  0  0  0  0  0  0  0  # atno 8009 bound_to 7997
  155.5367  140.3460  155.4440 H   0  0  0  0  0  0  0  0  0  0  0  0  # atno 8010 bound_to 7997
  139.7316  144.7034  151.0713 H   0  0  0  0  0  0  0  0  0  0  0  0  # atno 10167 bound_to 10162
  156.0193  130.4451  150.3107 H   0  0  0  0  0  0  0  0  0  0  0  0  # atno 10718 bound_to 10713
  153.0044  135.5403  154.6464 H   0  0  0  0  0  0  0  0  0  0  0  0  # atno 10763 bound_to 10752
  154.5707  135.2841  155.0832 H   0  0  0  0  0  0  0  0  0  0  0  0  # atno 10764 bound_to 10752
  154.1999  135.6485  153.5136 H   0  0  0  0  0  0  0  0  0  0  0  0  # atno 10765 bound_to 10752
  139.9015  134.8182  156.2381 H   0  0  0  0  0  0  0  0  0  0  0  0  # atno 11005 bound_to 11000
  144.8086  139.6003  143.7039 LP  0  0  0  0  0  0  0  0  0  0  0  0  # atno 17320 bound_to 7965
  146.2526  139.6233  142.9416 LP  0  0  0  0  0  0  0  0  0  0  0  0  # atno 17321 bound_to 7965
  140.7772  143.5036  150.9741 LP  0  0  0  0  0  0  0  0  0  0  0  0  # atno 17342 bound_to 10162
  139.8724  143.7176  152.3165 LP  0  0  0  0  0  0  0  0  0  0  0  0  # atno 17343 bound_to 10162
  157.1209  131.0246  151.3010 LP  0  0  0  0  0  0  0  0  0  0  0  0  # atno 17370 bound_to 10713
  157.4629  130.7664  149.7252 LP  0  0  0  0  0  0  0  0  0  0  0  0  # atno 17371 bound_to 10713
  141.0303  133.6992  156.1418 LP  0  0  0  0  0  0  0  0  0  0  0  0  # atno 17394 bound_to 11000
  140.7107  134.4465  157.5581 LP  0  0  0  0  0  0  0  0  0  0  0  0  # atno 17395 bound_to 11000

$$$$
