AV-unprocessed.smi:19|AV-procd|sdf|109|dock2
  -GOLD-   2262015273D 1   1.00000     0.00000
 Structure written by MMmdl.
 57 60  0  0  0  0  0  0  0  0  1 V2000
  152.0958  142.3638  158.8977 C   0  0  0  0  0  0  0  0  0  0  0  0
  151.9658  141.0117  158.4875 O   0  0  0  0  0  0  0  0  0  0  0  0
  150.8536  140.7626  157.6376 C   0  0  0  0  0  0  0  0  0  0  0  0
  151.2141  140.9375  156.1444 C   0  0  2  0  0  0  0  0  0  0  0  0
  150.0451  140.6288  155.1897 C   0  0  0  0  0  0  0  0  0  0  0  0
  149.8091  139.1915  155.1139 N   0  0  0  0  0  0  0  0  0  0  0  0
  148.6238  138.8284  154.5630 C   0  0  0  0  0  0  0  0  0  0  0  0
  147.8831  139.7419  153.8802 N   0  0  0  0  0  0  0  0  0  0  0  0
  146.7107  139.3934  153.3424 C   0  0  0  0  0  0  0  0  0  0  0  0
  146.1047  138.2053  153.3614 N   0  0  0  0  0  0  0  0  0  0  0  0
  146.8478  137.2799  154.0328 C   0  0  0  0  0  0  0  0  0  0  0  0
  148.1044  137.5067  154.6624 C   0  0  0  0  0  0  0  0  0  0  0  0
  148.5597  136.3303  155.2453 N   0  0  0  0  0  0  0  0  0  0  0  0
  147.6202  135.4627  154.9877 C   0  0  0  0  0  0  0  0  0  0  0  0
  146.5627  135.9416  154.2468 N   0  0  0  0  0  0  0  0  0  0  0  0
  145.3892  135.1921  153.8176 C   0  0  0  0  0  0  0  0  0  0  0  0
  145.4424  134.6706  152.3501 C   0  0  0  0  0  0  0  0  0  0  0  0
  145.5998  135.8542  151.3530 C   0  0  0  0  0  0  0  0  0  0  0  0
  144.5145  136.7575  151.4178 O   0  0  0  0  0  0  0  0  0  0  0  0
  146.6310  133.6899  152.1788 C   0  0  0  0  0  0  0  0  0  0  0  0
  146.5663  132.8805  150.8698 C   0  0  0  0  0  0  0  0  0  0  0  0
  145.3277  132.1894  150.7796 O   0  0  0  0  0  0  0  0  0  0  0  0
  144.2089  133.0661  150.7581 C   0  0  0  0  0  0  0  0  0  0  0  0
  144.1482  133.8639  152.0724 C   0  0  0  0  0  0  0  0  0  0  0  0
  151.0037  138.4356  154.7528 C   0  0  0  0  0  0  0  0  0  0  0  0
  152.1440  138.7531  155.7364 C   0  0  1  0  0  0  0  0  0  0  0  0
  153.4580  138.0821  155.3239 C   0  0  0  0  0  0  0  0  0  0  0  0
  152.3600  140.1640  155.7788 O   0  0  0  0  0  0  0  0  0  0  0  0
  152.9851  142.4683  159.5193 H   0  0  0  0  0  0  0  0  0  0  0  0
  151.2414  142.6979  159.4856 H   0  0  0  0  0  0  0  0  0  0  0  0
  152.2107  143.0267  158.0392 H   0  0  0  0  0  0  0  0  0  0  0  0
  150.4525  139.7649  157.8231 H   0  0  0  0  0  0  0  0  0  0  0  0
  150.0685  141.4639  157.9199 H   0  0  0  0  0  0  0  0  0  0  0  0
  151.5087  141.9736  155.9844 H   0  0  0  0  0  0  0  0  0  0  0  0
  149.1562  141.1737  155.5056 H   0  0  0  0  0  0  0  0  0  0  0  0
  150.2880  140.9875  154.1885 H   0  0  0  0  0  0  0  0  0  0  0  0
  146.1825  140.1790  152.8226 H   0  0  0  0  0  0  0  0  0  0  0  0
  147.6792  134.4384  155.3259 H   0  0  0  0  0  0  0  0  0  0  0  0
  145.2681  134.3557  154.5070 H   0  0  0  0  0  0  0  0  0  0  0  0
  144.5104  135.8207  153.9659 H   0  0  0  0  0  0  0  0  0  0  0  0
  146.5201  136.4054  151.5473 H   0  0  0  0  0  0  0  0  0  0  0  0
  145.6724  135.5078  150.3235 H   0  0  0  0  0  0  0  0  0  0  0  0
  144.5563  137.3320  150.6684 H   0  0  0  0  0  0  0  0  0  0  0  0
  147.5805  134.2241  152.2203 H   0  0  0  0  0  0  0  0  0  0  0  0
  146.6410  132.9848  153.0112 H   0  0  0  0  0  0  0  0  0  0  0  0
  146.7072  133.5164  149.9954 H   0  0  0  0  0  0  0  0  0  0  0  0
  147.3730  132.1475  150.8507 H   0  0  0  0  0  0  0  0  0  0  0  0
  144.2567  133.7242  149.8900 H   0  0  0  0  0  0  0  0  0  0  0  0
  143.3037  132.4690  150.6467 H   0  0  0  0  0  0  0  0  0  0  0  0
  143.9827  133.1550  152.8851 H   0  0  0  0  0  0  0  0  0  0  0  0
  143.2750  134.5170  152.0696 H   0  0  0  0  0  0  0  0  0  0  0  0
  150.7921  137.3656  154.7700 H   0  0  0  0  0  0  0  0  0  0  0  0
  151.2997  138.6941  153.7351 H   0  0  0  0  0  0  0  0  0  0  0  0
  151.8789  138.3928  156.7307 H   0  0  0  0  0  0  0  0  0  0  0  0
  153.3494  136.9978  155.2861 H   0  0  0  0  0  0  0  0  0  0  0  0
  154.2527  138.3117  156.0342 H   0  0  0  0  0  0  0  0  0  0  0  0
  153.7820  138.4210  154.3394 H   0  0  0  0  0  0  0  0  0  0  0  0
  1  2  1  0  0  0  0
  1 29  1  0  0  0  0
  1 30  1  0  0  0  0
  1 31  1  0  0  0  0
  2  3  1  0  0  0  0
  3  4  1  0  0  0  0
  3 32  1  0  0  0  0
  3 33  1  0  0  0  0
  4 28  1  0  0  0  0
  4  5  1  0  0  0  0
  4 34  1  0  0  0  0
  5  6  1  0  0  0  0
  5 35  1  0  0  0  0
  5 36  1  0  0  0  0
  6  7  1  0  0  0  0
  6 25  1  0  0  0  0
  7 12  1  0  0  0  0
  7  8  2  0  0  0  0
  8  9  1  0  0  0  0
  9 10  2  0  0  0  0
  9 37  1  0  0  0  0
 10 11  1  0  0  0  0
 11 15  1  0  0  0  0
 11 12  2  0  0  0  0
 12 13  1  0  0  0  0
 13 14  2  0  0  0  0
 14 15  1  0  0  0  0
 14 38  1  0  0  0  0
 15 16  1  0  0  0  0
 16 17  1  0  0  0  0
 16 39  1  0  0  0  0
 16 40  1  0  0  0  0
 17 24  1  0  0  0  0
 17 18  1  0  0  0  0
 17 20  1  0  0  0  0
 18 19  1  0  0  0  0
 18 41  1  0  0  0  0
 18 42  1  0  0  0  0
 19 43  1  0  0  0  0
 20 21  1  0  0  0  0
 20 44  1  0  0  0  0
 20 45  1  0  0  0  0
 21 22  1  0  0  0  0
 21 46  1  0  0  0  0
 21 47  1  0  0  0  0
 22 23  1  0  0  0  0
 23 24  1  0  0  0  0
 23 48  1  0  0  0  0
 23 49  1  0  0  0  0
 24 50  1  0  0  0  0
 24 51  1  0  0  0  0
 25 26  1  0  0  0  0
 25 52  1  0  0  0  0
 25 53  1  0  0  0  0
 26 27  1  0  0  0  0
 26 28  1  0  0  0  0
 26 54  1  0  0  0  0
 27 55  1  0  0  0  0
 27 56  1  0  0  0  0
 27 57  1  0  0  0  0
M  END
> <s_m_source_file>
AV-unprocessed.smi

> <i_m_source_file_index>
19

> <i_lp_mmshare_version>
43012

> <i_f3d_flags>
0

> <s_epik_input>
W0NIM11PW0NIMl1bQ0BASF0xW0NIMl1OKFtDSDJdW0NASF0oTzEpW0NIM10pYyhuW2NIXW4yKWMoYzIzKW5bY0hdbjNbQ0gyXUM0KFtDSDJdW09IXSlbQ0gyXVtDSDJdT1tDSDJdW0NIMl00

> <s_epik_cmdline>
J2VwaWtfcHl0aG9uJywgJy1waCcsICc3LjAnLCAnLXRuJywgJzgnLCAnLW1hJywgJzIwMCcsICctbWV0YWxfYmluZGluZycsICctaW1hZScsICc8aW5maWxlLm1hZT4nLCAnLW9tYWUnLCAnPG91dGZpbGUubWFlPic=

> <r_lp_tautomer_probability>
1

> <r_epik_Ionization_Penalty>
6.20357e-05

> <r_epik_Ionization_Penalty_Charging>
0

> <r_epik_Ionization_Penalty_Neutral>
6.20357e-05

> <r_epik_State_Penalty>
-0

> <r_epik_Charging_Adjusted_Penalty>
0

> <i_epik_Tot_Q>
0

> <i_epik_Tot_abs_Q>
0

> <r_epik_Metal_State_Penalty>
-0

> <b_epik_Metal_Only>
0

> <s_lp_Force_Field>
OPLS_2005

> <r_lp_Energy>
39.3548

> <b_lp_Chiralities_Consistent>
1

> <s_lp_Variant>
AV-unprocessed.smi:19-1

> <Gold.Version>
5.8.1

> <Gold.Id.Protein>
6NUR|6NUR_protein|mol2

> <Gold.PLP.Fitness>
43.4114

> <Gold.PLP.PLP>
-35.4941

> <Gold.PLP.part.hbond>
-2.3738

> <Gold.PLP.part.metal>
0.0000

> <Gold.PLP.part.buried>
-1.2706

> <Gold.PLP.part.nonpolar>
-33.3274

> <Gold.PLP.part.repulsive>
0.6879

> <Gold.PLP.ligand.clash>
0.0000

> <Gold.PLP.ligand.torsion>
0.6972

> <Gold.PLP.Chemscore.Hbond>
1.9606

> <Gold.PLP.Chemscore.CHOScore>
0.9874

> <Gold.PLP.Chemscore.Metal>
0.0000

> <Gold.Chemscore.Hbonds>
donor molecule, donor type, donor heavy atom, donor atom, acceptor molecule, acceptor atom, score
      L1  H    19    43       P1 10171  0.96
      P1  H  7997  8008       L1    28  0.88
      L1  C     9    37       P1 10175  0.98

> <Gold.PLP.Chemscore.Internal.Correction>
0.4676

> <Gold.Rescore>
     Score         DG    S(hbond)    S(metal)    S(lipo)     H(rot)  DE(clash)    DE(int)     intcor
     12.92     -13.94       1.95        0.00      79.42       2.87       0.28       0.75       ----

> <Gold.Chemscore.Fitness>
12.9170

> <Gold.Chemscore.DG>
-13.9429

> <Gold.Chemscore.ZeroCoef>
-5.4800

> <Gold.Chemscore.Hbond>
1.9536

> <Gold.Chemscore.Metal>
0.0000

> <Gold.Chemscore.Lipo>
79.4228

> <Gold.Chemscore.Internal_Hbond>
0.0000

> <Gold.Chemscore.DEClash>
0.2753

> <Gold.Chemscore.DEInternal>
0.7506

> <Gold.Chemscore.Rot>
2.8729

> <Gold.Chemscore.Internal.Correction>
   9.000000E+99

> <Gold.Chemscore.Hbonds>
donor molecule, donor type, donor heavy atom, donor atom, acceptor molecule, acceptor atom, score
      L1  H    19    43       P1 10171  0.92
      P1  H  7997  8008       L1    28  0.16

> <Gold.Chemscore.Hbond.Weighted>
-6.5250

> <Gold.Chemscore.Metal.Weighted>
-0.0000

> <Gold.Chemscore.Lipo.Weighted>
-9.2925

> <Gold.Chemscore.Internal_Hbond.Weighted>
0.0000

> <Gold.Chemscore.DEClash.Weighted>
0.2753

> <Gold.Chemscore.DEInternal.Weighted>
0.7506

> <Gold.Chemscore.Rot.Weighted>
7.3546

> <Gold.Chemscore.Internal.Correction.Weighted>
   9.000000E+99

> <Gold.Protein.RotatedTorsions>
[ 6907 6896 6895 6894 ] final   77.72 input  -60.11 | X-H torsion
[ 7974 7965 7964 7962 ] final  150.66 input  175.53 | X-H torsion
[ 8008 7997 7996 7995 ] final  -41.79 input   59.86 | X-H torsion
[ 10167 10162 10161 10158 ] final -151.99 input  -65.29 | X-H torsion
[ 10718 10713 10712 10709 ] final -157.83 input   66.30 | X-H torsion
[ 10763 10752 10751 10750 ] final -106.88 input  -60.55 | X-H torsion
[ 11005 11000 10999 10996 ] final  -67.27 input  -57.11 | X-H torsion

> <Gold.Protein.ActiveResidues>
 VAL166  LYS551  ARG553  GLY616  TRP617  ASP618  TYR619  PRO620  LYS621  CYS622 
 ASP623  PHE694  ASN695  SER759  ASP760  ASP761  ALA762  ILE779  LEU786  VAL792 
 PHE793  MET794  SER795  GLU796  ALA797  LYS798  CYS799  TRP800  GLU811  SER814 

> <Gold.Protein.RotatedAtoms>
  152.5130  134.3773  159.9338 H   0  0  0  0  0  0  0  0  0  0  0  0  # atno 6907 bound_to 6896
  151.3729  133.3842  159.2709 H   0  0  0  0  0  0  0  0  0  0  0  0  # atno 6908 bound_to 6896
  150.9564  134.8977  159.7762 H   0  0  0  0  0  0  0  0  0  0  0  0  # atno 6909 bound_to 6896
  144.8348  139.6437  143.6043 H   0  0  0  0  0  0  0  0  0  0  0  0  # atno 7974 bound_to 7965
  154.4002  140.1490  156.3248 H   0  0  0  0  0  0  0  0  0  0  0  0  # atno 8008 bound_to 7997
  155.8497  140.3458  155.5664 H   0  0  0  0  0  0  0  0  0  0  0  0  # atno 8009 bound_to 7997
  155.7998  140.0868  157.1954 H   0  0  0  0  0  0  0  0  0  0  0  0  # atno 8010 bound_to 7997
  139.7220  143.8943  152.2506 H   0  0  0  0  0  0  0  0  0  0  0  0  # atno 10167 bound_to 10162
  156.5457  130.8583  151.2763 H   0  0  0  0  0  0  0  0  0  0  0  0  # atno 10718 bound_to 10713
  154.8040  135.4695  154.0347 H   0  0  0  0  0  0  0  0  0  0  0  0  # atno 10763 bound_to 10752
  153.1830  135.6843  153.8459 H   0  0  0  0  0  0  0  0  0  0  0  0  # atno 10764 bound_to 10752
  153.8003  135.3231  155.3367 H   0  0  0  0  0  0  0  0  0  0  0  0  # atno 10765 bound_to 10752
  141.1504  133.6716  156.6267 H   0  0  0  0  0  0  0  0  0  0  0  0  # atno 11005 bound_to 11000
  146.2648  139.6494  142.9337 LP  0  0  0  0  0  0  0  0  0  0  0  0  # atno 17320 bound_to 7965
  145.4818  141.0438  143.2642 LP  0  0  0  0  0  0  0  0  0  0  0  0  # atno 17321 bound_to 7965
  139.8841  144.7001  150.8844 LP  0  0  0  0  0  0  0  0  0  0  0  0  # atno 17342 bound_to 10162
  140.7755  143.3637  151.1779 LP  0  0  0  0  0  0  0  0  0  0  0  0  # atno 17343 bound_to 10162
  157.7397  130.9836  150.2331 LP  0  0  0  0  0  0  0  0  0  0  0  0  # atno 17370 bound_to 10713
  156.2931  130.3748  149.7822 LP  0  0  0  0  0  0  0  0  0  0  0  0  # atno 17371 bound_to 10713
  140.3498  134.7778  157.4459 LP  0  0  0  0  0  0  0  0  0  0  0  0  # atno 17394 bound_to 11000
  140.0870  134.5653  155.8482 LP  0  0  0  0  0  0  0  0  0  0  0  0  # atno 17395 bound_to 11000

$$$$
