AV-unprocessed.smi:320|AV-procd|sdf|2332|dock4
  -GOLD-   2262022233D 1   1.00000     0.00000
 Structure written by MMmdl.
 49 52  0  0  0  0  0  0  0  0  1 V2000
  146.6138  135.2732  156.1705 C   0  0  0  0  0  0  0  0  0  0  0  0
  147.0318  134.6706  154.8136 C   0  0  2  0  0  0  0  0  0  0  0  0
  148.3597  135.1800  154.4678 N   0  0  0  0  0  0  0  0  0  0  0  0
  149.4000  135.3007  155.3065 C   0  0  0  0  0  0  0  0  0  0  0  0
  149.3547  134.9713  156.4927 O   0  0  0  0  0  0  0  0  0  0  0  0
  150.6871  135.8715  154.6935 C   0  0  0  0  0  0  0  0  0  0  0  0
  150.9592  137.2626  155.0922 N   0  0  0  0  0  0  0  0  0  0  0  0
  150.1572  138.2639  154.5093 C   0  0  0  0  0  0  0  0  0  0  0  0
  150.3241  139.5644  154.7970 C   0  0  0  0  0  0  0  0  0  0  0  0
  151.3605  139.9286  155.7337 C   0  0  0  0  0  0  0  0  0  0  0  0
  152.1360  138.9792  156.2943 C   0  0  0  0  0  0  0  0  0  0  0  0
  151.9588  137.5565  155.9804 C   0  0  0  0  0  0  0  0  0  0  0  0
  152.6656  136.6829  156.4844 O   0  0  0  0  0  0  0  0  0  0  0  0
  146.0241  134.8981  153.6418 C   0  0  0  0  0  0  0  0  0  0  0  0
  146.4783  134.0772  152.3982 C   0  0  0  0  0  0  0  0  0  0  0  0
  145.4935  134.2589  151.2246 C   0  0  2  0  0  0  0  0  0  0  0  0
  145.4290  135.7500  150.8354 C   0  0  0  0  0  0  0  0  0  0  0  0
  144.9435  136.5696  152.0484 C   0  0  1  0  0  0  0  0  0  0  0  0
  143.5412  136.0851  152.4711 C   0  0  0  0  0  0  0  0  0  0  0  0
  143.6145  134.5926  152.8547 C   0  0  1  0  0  0  0  0  0  0  0  0
  144.0941  133.7679  151.6444 C   0  0  0  0  0  0  0  0  0  0  0  0
  144.5984  134.4108  154.0302 C   0  0  0  0  0  0  0  0  0  0  0  0
  145.9303  136.3946  153.2237 C   0  0  0  0  0  0  0  0  0  0  0  0
  145.6851  134.8416  156.5412 H   0  0  0  0  0  0  0  0  0  0  0  0
  146.4872  136.3540  156.1160 H   0  0  0  0  0  0  0  0  0  0  0  0
  147.3712  135.0763  156.9300 H   0  0  0  0  0  0  0  0  0  0  0  0
  147.1031  133.5911  154.9599 H   0  0  0  0  0  0  0  0  0  0  0  0
  148.4937  135.4705  153.5101 H   0  0  0  0  0  0  0  0  0  0  0  0
  151.5165  135.2232  154.9795 H   0  0  0  0  0  0  0  0  0  0  0  0
  150.6301  135.7980  153.6055 H   0  0  0  0  0  0  0  0  0  0  0  0
  149.4104  137.9087  153.8140 H   0  0  0  0  0  0  0  0  0  0  0  0
  149.7024  140.3181  154.3366 H   0  0  0  0  0  0  0  0  0  0  0  0
  151.5155  140.9674  155.9856 H   0  0  0  0  0  0  0  0  0  0  0  0
  152.9079  139.2707  156.9915 H   0  0  0  0  0  0  0  0  0  0  0  0
  147.4736  134.3810  152.0725 H   0  0  0  0  0  0  0  0  0  0  0  0
  146.5546  133.0194  152.6533 H   0  0  0  0  0  0  0  0  0  0  0  0
  145.8384  133.6766  150.3695 H   0  0  0  0  0  0  0  0  0  0  0  0
  146.4100  136.0993  150.5109 H   0  0  0  0  0  0  0  0  0  0  0  0
  144.7555  135.8908  149.9890 H   0  0  0  0  0  0  0  0  0  0  0  0
  144.8931  137.6237  151.7741 H   0  0  0  0  0  0  0  0  0  0  0  0
  143.1744  136.6751  153.3119 H   0  0  0  0  0  0  0  0  0  0  0  0
  142.8297  136.2317  151.6575 H   0  0  0  0  0  0  0  0  0  0  0  0
  142.6244  134.2486  153.1557 H   0  0  0  0  0  0  0  0  0  0  0  0
  143.3928  133.8684  150.8151 H   0  0  0  0  0  0  0  0  0  0  0  0
  144.1242  132.7071  151.8974 H   0  0  0  0  0  0  0  0  0  0  0  0
  144.6261  133.3631  154.3329 H   0  0  0  0  0  0  0  0  0  0  0  0
  144.2173  134.9668  154.8863 H   0  0  0  0  0  0  0  0  0  0  0  0
  145.5997  137.0079  154.0622 H   0  0  0  0  0  0  0  0  0  0  0  0
  146.9086  136.7786  152.9326 H   0  0  0  0  0  0  0  0  0  0  0  0
  1  2  1  0  0  0  0
  1 24  1  0  0  0  0
  1 25  1  0  0  0  0
  1 26  1  0  0  0  0
  2  3  1  0  0  0  0
  2 14  1  0  0  0  0
  2 27  1  0  0  0  0
  3  4  1  0  0  0  0
  3 28  1  0  0  0  0
  4  5  2  0  0  0  0
  4  6  1  0  0  0  0
  6  7  1  0  0  0  0
  6 29  1  0  0  0  0
  6 30  1  0  0  0  0
  7 12  1  0  0  0  0
  7  8  1  0  0  0  0
  8  9  2  0  0  0  0
  8 31  1  0  0  0  0
  9 10  1  0  0  0  0
  9 32  1  0  0  0  0
 10 11  2  0  0  0  0
 10 33  1  0  0  0  0
 11 12  1  0  0  0  0
 11 34  1  0  0  0  0
 12 13  2  0  0  0  0
 14 22  1  0  0  0  0
 14 23  1  0  0  0  0
 14 15  1  0  0  0  0
 15 16  1  0  0  0  0
 15 35  1  0  0  0  0
 15 36  1  0  0  0  0
 16 21  1  0  0  0  0
 16 17  1  0  0  0  0
 16 37  1  0  0  0  0
 17 18  1  0  0  0  0
 17 38  1  0  0  0  0
 17 39  1  0  0  0  0
 18 19  1  0  0  0  0
 18 23  1  0  0  0  0
 18 40  1  0  0  0  0
 19 20  1  0  0  0  0
 19 41  1  0  0  0  0
 19 42  1  0  0  0  0
 20 21  1  0  0  0  0
 20 22  1  0  0  0  0
 20 43  1  0  0  0  0
 21 44  1  0  0  0  0
 21 45  1  0  0  0  0
 22 46  1  0  0  0  0
 22 47  1  0  0  0  0
 23 48  1  0  0  0  0
 23 49  1  0  0  0  0
M  END
> <s_m_source_file>
AV-unprocessed.smi

> <i_m_source_file_index>
320

> <i_lp_mmshare_version>
43012

> <i_f3d_flags>
0

> <s_epik_input>
W0NIMl0xW0NAQEhdKFtDSDJdMilbQ0gyXVtDQEBIXShbQ0gyXTMpW0NIMl1bQ0BIXTFbQ0gyXUMyM1tDQEhdKFtDSDNdKVtOSF1DKD1PKVtDSDJdbjRbY0hdW2NIXVtjSF1bY0hdYzQ9Tw==

> <s_epik_cmdline>
J2VwaWtfcHl0aG9uJywgJy1waCcsICc3LjAnLCAnLXRuJywgJzgnLCAnLW1hJywgJzIwMCcsICctbWV0YWxfYmluZGluZycsICctaW1hZScsICc8aW5maWxlLm1hZT4nLCAnLW9tYWUnLCAnPG91dGZpbGUubWFlPic=

> <r_lp_tautomer_probability>
1

> <r_epik_Ionization_Penalty>
4.15949e-07

> <r_epik_Ionization_Penalty_Charging>
3.97363e-07

> <r_epik_Ionization_Penalty_Neutral>
1.85865e-08

> <r_epik_State_Penalty>
-0

> <r_epik_Charging_Adjusted_Penalty>
3.97363e-07

> <i_epik_Tot_Q>
0

> <i_epik_Tot_abs_Q>
0

> <r_epik_Metal_State_Penalty>
-0

> <b_epik_Metal_Only>
0

> <s_lp_Force_Field>
OPLS_2005

> <r_lp_Energy>
45.4177

> <b_lp_Chiralities_Consistent>
1

> <s_lp_Variant>
AV-unprocessed.smi:320-1

> <Gold.Version>
5.8.1

> <Gold.Id.Protein>
6NUR|6NUR_protein|mol2

> <Gold.PLP.Fitness>
42.4336

> <Gold.PLP.PLP>
-34.4599

> <Gold.PLP.part.hbond>
-2.0000

> <Gold.PLP.part.metal>
0.0000

> <Gold.PLP.part.buried>
-1.6479

> <Gold.PLP.part.nonpolar>
-30.7441

> <Gold.PLP.part.repulsive>
0.0074

> <Gold.PLP.ligand.clash>
0.0000

> <Gold.PLP.ligand.torsion>
0.5390

> <Gold.PLP.Chemscore.Hbond>
2.0000

> <Gold.PLP.Chemscore.CHOScore>
1.0000

> <Gold.PLP.Chemscore.Metal>
0.0000

> <Gold.Chemscore.Hbonds>
donor molecule, donor type, donor heavy atom, donor atom, acceptor molecule, acceptor atom, score
      L1  H     3    28       P1  7948  1.00
      P1  H 10752 10764       L1    13  1.00
      L1  C     8    31       P1  7948  0.86

> <Gold.PLP.Chemscore.Internal.Correction>
0.0516

> <Gold.Rescore>
     Score         DG    S(hbond)    S(metal)    S(lipo)     H(rot)  DE(clash)    DE(int)     intcor
     15.46     -17.44       1.91        0.00      80.90       1.52       0.20       1.79       ----

> <Gold.Chemscore.Fitness>
15.4613

> <Gold.Chemscore.DG>
-17.4443

> <Gold.Chemscore.ZeroCoef>
-5.4800

> <Gold.Chemscore.Hbond>
1.9132

> <Gold.Chemscore.Metal>
0.0000

> <Gold.Chemscore.Lipo>
80.9049

> <Gold.Chemscore.Internal_Hbond>
0.0000

> <Gold.Chemscore.DEClash>
0.1970

> <Gold.Chemscore.DEInternal>
1.7859

> <Gold.Chemscore.Rot>
1.5202

> <Gold.Chemscore.Internal.Correction>
   9.000000E+99

> <Gold.Chemscore.Hbonds>
donor molecule, donor type, donor heavy atom, donor atom, acceptor molecule, acceptor atom, score
      L1  H     3    28       P1  7948  0.98
      P1  H 10752 10764       L1    13  0.86

> <Gold.Chemscore.Hbond.Weighted>
-6.3901

> <Gold.Chemscore.Metal.Weighted>
-0.0000

> <Gold.Chemscore.Lipo.Weighted>
-9.4659

> <Gold.Chemscore.Internal_Hbond.Weighted>
0.0000

> <Gold.Chemscore.DEClash.Weighted>
0.1970

> <Gold.Chemscore.DEInternal.Weighted>
1.7859

> <Gold.Chemscore.Rot.Weighted>
3.8916

> <Gold.Chemscore.Internal.Correction.Weighted>
   9.000000E+99

> <Gold.Protein.RotatedTorsions>
[ 6907 6896 6895 6894 ] final -171.67 input  -60.11 | X-H torsion
[ 7974 7965 7964 7962 ] final  176.79 input  175.53 | X-H torsion
[ 8008 7997 7996 7995 ] final -158.16 input   59.86 | X-H torsion
[ 10167 10162 10161 10158 ] final   59.93 input  -65.29 | X-H torsion
[ 10718 10713 10712 10709 ] final  158.09 input   66.30 | X-H torsion
[ 10763 10752 10751 10750 ] final  -10.06 input  -60.55 | X-H torsion
[ 11005 11000 10999 10996 ] final   99.97 input  -57.11 | X-H torsion

> <Gold.Protein.ActiveResidues>
 VAL166  LYS551  ARG553  GLY616  TRP617  ASP618  TYR619  PRO620  LYS621  CYS622 
 ASP623  PHE694  ASN695  SER759  ASP760  ASP761  ALA762  ILE779  LEU786  VAL792 
 PHE793  MET794  SER795  GLU796  ALA797  LYS798  CYS799  TRP800  GLU811  SER814 

> <Gold.Protein.RotatedAtoms>
  151.5275  133.3455  159.2912 H   0  0  0  0  0  0  0  0  0  0  0  0  # atno 6907 bound_to 6896
  150.8614  134.7969  159.7096 H   0  0  0  0  0  0  0  0  0  0  0  0  # atno 6908 bound_to 6896
  152.4632  134.5145  159.9815 H   0  0  0  0  0  0  0  0  0  0  0  0  # atno 6909 bound_to 6896
  144.7179  140.0149  143.6440 H   0  0  0  0  0  0  0  0  0  0  0  0  # atno 7974 bound_to 7965
  155.7434  140.0817  157.2235 H   0  0  0  0  0  0  0  0  0  0  0  0  # atno 8008 bound_to 7997
  154.4019  140.1574  156.2697 H   0  0  0  0  0  0  0  0  0  0  0  0  # atno 8009 bound_to 7997
  155.8999  140.3410  155.6021 H   0  0  0  0  0  0  0  0  0  0  0  0  # atno 8010 bound_to 7997
  140.1711  144.4275  150.6661 H   0  0  0  0  0  0  0  0  0  0  0  0  # atno 10167 bound_to 10162
  157.1826  131.0636  151.2123 H   0  0  0  0  0  0  0  0  0  0  0  0  # atno 10718 bound_to 10713
  153.4637  135.7016  153.6035 H   0  0  0  0  0  0  0  0  0  0  0  0  # atno 10763 bound_to 10752
  153.4319  135.3800  155.2175 H   0  0  0  0  0  0  0  0  0  0  0  0  # atno 10764 bound_to 10752
  154.8727  135.3953  154.4066 H   0  0  0  0  0  0  0  0  0  0  0  0  # atno 10765 bound_to 10752
  139.8771  134.9119  156.4685 H   0  0  0  0  0  0  0  0  0  0  0  0  # atno 11005 bound_to 11000
  146.0228  139.3266  143.0802 LP  0  0  0  0  0  0  0  0  0  0  0  0  # atno 17320 bound_to 7965
  145.8547  140.9509  143.0731 LP  0  0  0  0  0  0  0  0  0  0  0  0  # atno 17321 bound_to 7965
  140.6581  143.2243  151.5921 LP  0  0  0  0  0  0  0  0  0  0  0  0  # atno 17342 bound_to 10162
  139.5337  144.2841  152.1205 LP  0  0  0  0  0  0  0  0  0  0  0  0  # atno 17343 bound_to 10162
  157.3938  130.7296  149.6716 LP  0  0  0  0  0  0  0  0  0  0  0  0  # atno 17370 bound_to 10713
  155.9722  130.4139  150.4107 LP  0  0  0  0  0  0  0  0  0  0  0  0  # atno 17371 bound_to 10713
  140.8812  133.7916  155.9469 LP  0  0  0  0  0  0  0  0  0  0  0  0  # atno 17394 bound_to 11000
  140.8852  134.2563  157.5124 LP  0  0  0  0  0  0  0  0  0  0  0  0  # atno 17395 bound_to 11000

$$$$
