AV-unprocessed.smi:2799|AV-procd|sdf|10790|dock5
  -GOLD-   2272015223D 1   1.00000     0.00000
 Structure written by MMmdl.
 52 53  0  0  0  0  0  0  0  0  2 V2000
  148.5821  132.8408  154.2751 C   0  0  0  0  0  0  0  0  0  0  0  0
  149.5005  134.0363  154.5801 C   0  0  0  0  0  0  0  0  0  0  0  0
  150.4888  133.6795  155.7000 C   0  0  0  0  0  0  0  0  0  0  0  0
  148.7002  135.3056  154.9516 C   0  0  0  0  0  0  0  0  0  0  0  0
  149.3720  136.5880  154.5977 N   0  3  1  0  0  0  0  0  0  0  0  0
  148.4325  137.7407  154.6497 C   0  0  0  0  0  0  0  0  0  0  0  0
  149.0640  139.0059  154.0475 C   0  0  0  0  0  0  0  0  0  0  0  0
  150.3898  139.3444  154.7373 C   0  0  0  0  0  0  0  0  0  0  0  0
  151.3263  138.1298  154.6861 C   0  0  0  0  0  0  0  0  0  0  0  0
  150.6722  136.8631  155.2873 C   0  0  1  0  0  0  0  0  0  0  0  0
  150.5510  136.9051  156.8357 C   0  0  0  0  0  0  0  0  0  0  0  0
  151.5793  137.7371  157.4519 N   0  0  0  0  0  0  0  0  0  0  0  0
  151.3640  138.9524  157.9751 C   0  0  0  0  0  0  0  0  0  0  0  0
  150.2604  139.4976  157.9726 O   0  0  0  0  0  0  0  0  0  0  0  0
  152.4922  139.4540  158.5100 N   0  0  0  0  0  0  0  0  0  0  0  0
  152.6998  140.6866  159.1536 C   0  0  0  0  0  0  0  0  0  0  0  0
  153.3773  140.8430  160.3187 C   0  0  0  0  0  0  0  0  0  0  0  0
  153.5376  142.1477  160.9144 C   0  0  0  0  0  0  0  0  0  0  0  0
  152.9912  143.2029  160.2944 C   0  0  0  0  0  0  0  0  0  0  0  0
  152.2755  143.0630  159.0932 N   0  0  0  0  0  0  0  0  0  0  0  0
  151.7138  144.2761  158.4936 C   0  0  0  0  0  0  0  0  0  0  0  0
  152.0943  141.8540  158.4830 C   0  0  0  0  0  0  0  0  0  0  0  0
  151.4589  141.7592  157.4298 O   0  0  0  0  0  0  0  0  0  0  0  0
  147.9515  132.5959  155.1303 H   0  0  0  0  0  0  0  0  0  0  0  0
  149.1651  131.9529  154.0287 H   0  0  0  0  0  0  0  0  0  0  0  0
  147.9288  133.0426  153.4261 H   0  0  0  0  0  0  0  0  0  0  0  0
  150.1060  134.2367  153.6967 H   0  0  0  0  0  0  0  0  0  0  0  0
  149.9703  133.4548  156.6327 H   0  0  0  0  0  0  0  0  0  0  0  0
  151.1788  134.5019  155.8923 H   0  0  0  0  0  0  0  0  0  0  0  0
  151.0869  132.8074  155.4335 H   0  0  0  0  0  0  0  0  0  0  0  0
  147.7441  135.2661  154.4277 H   0  0  0  0  0  0  0  0  0  0  0  0
  148.4506  135.3001  156.0128 H   0  0  0  0  0  0  0  0  0  0  0  0
  147.5277  137.5009  154.0896 H   0  0  0  0  0  0  0  0  0  0  0  0
  148.1191  137.9234  155.6780 H   0  0  0  0  0  0  0  0  0  0  0  0
  149.2355  138.8555  152.9808 H   0  0  0  0  0  0  0  0  0  0  0  0
  148.3735  139.8455  154.1339 H   0  0  0  0  0  0  0  0  0  0  0  0
  150.8579  140.1995  154.2487 H   0  0  0  0  0  0  0  0  0  0  0  0
  150.2097  139.6392  155.7714 H   0  0  0  0  0  0  0  0  0  0  0  0
  151.5879  137.9318  153.6455 H   0  0  0  0  0  0  0  0  0  0  0  0
  152.2675  138.3618  155.1850 H   0  0  0  0  0  0  0  0  0  0  0  0
  151.3488  136.0484  155.0337 H   0  0  0  0  0  0  0  0  0  0  0  0
  149.5824  137.2988  157.1416 H   0  0  0  0  0  0  0  0  0  0  0  0
  150.6216  135.9054  157.2646 H   0  0  0  0  0  0  0  0  0  0  0  0
  152.5137  137.3566  157.4940 H   0  0  0  0  0  0  0  0  0  0  0  0
  153.3031  138.8522  158.4922 H   0  0  0  0  0  0  0  0  0  0  0  0
  153.8037  140.0060  160.8473 H   0  0  0  0  0  0  0  0  0  0  0  0
  154.0861  142.2702  161.8366 H   0  0  0  0  0  0  0  0  0  0  0  0
  153.0684  144.2109  160.6754 H   0  0  0  0  0  0  0  0  0  0  0  0
  152.1234  144.4347  157.4950 H   0  0  0  0  0  0  0  0  0  0  0  0
  151.9269  145.1723  159.0774 H   0  0  0  0  0  0  0  0  0  0  0  0
  150.6292  144.1951  158.4085 H   0  0  0  0  0  0  0  0  0  0  0  0
  149.6116  136.4922  153.6213 H   0  0  0  0  0  0  0  0  0  0  0  0
  1  2  1  0  0  0  0
  1 24  1  0  0  0  0
  1 25  1  0  0  0  0
  1 26  1  0  0  0  0
  2  3  1  0  0  0  0
  2  4  1  0  0  0  0
  2 27  1  0  0  0  0
  3 28  1  0  0  0  0
  3 29  1  0  0  0  0
  3 30  1  0  0  0  0
  4  5  1  0  0  0  0
  4 31  1  0  0  0  0
  4 32  1  0  0  0  0
  5 10  1  0  0  0  0
  5  6  1  0  0  0  0
  5 52  1  0  0  0  0
  6  7  1  0  0  0  0
  6 33  1  0  0  0  0
  6 34  1  0  0  0  0
  7  8  1  0  0  0  0
  7 35  1  0  0  0  0
  7 36  1  0  0  0  0
  8  9  1  0  0  0  0
  8 37  1  0  0  0  0
  8 38  1  0  0  0  0
  9 10  1  0  0  0  0
  9 39  1  0  0  0  0
  9 40  1  0  0  0  0
 10 11  1  0  0  0  0
 10 41  1  0  0  0  0
 11 12  1  0  0  0  0
 11 42  1  0  0  0  0
 11 43  1  0  0  0  0
 12 13  1  0  0  0  0
 12 44  1  0  0  0  0
 13 14  2  0  0  0  0
 13 15  1  0  0  0  0
 15 16  1  0  0  0  0
 15 45  1  0  0  0  0
 16 22  1  0  0  0  0
 16 17  2  0  0  0  0
 17 18  1  0  0  0  0
 17 46  1  0  0  0  0
 18 19  2  0  0  0  0
 18 47  1  0  0  0  0
 19 20  1  0  0  0  0
 19 48  1  0  0  0  0
 20 21  1  0  0  0  0
 20 22  1  0  0  0  0
 21 49  1  0  0  0  0
 21 50  1  0  0  0  0
 21 51  1  0  0  0  0
 22 23  2  0  0  0  0
M  CHG  1   5   1
M  END
> <s_m_source_file>
AV-unprocessed.smi

> <i_m_source_file_index>
2799

> <i_lp_mmshare_version>
43012

> <i_f3d_flags>
0

> <s_epik_input>
W0NIM11bQ0hdKFtDSDNdKVtDSDJdTjFbQ0gyXVtDSDJdW0NIMl1bQ0gyXVtDQEhdMVtDSDJdW05IXUMoPU8pW05IXWMyW2NIXVtjSF1bY0hdbihbQ0gzXSljMj1P

> <s_epik_cmdline>
J2VwaWtfcHl0aG9uJywgJy1waCcsICc3LjAnLCAnLXRuJywgJzgnLCAnLW1hJywgJzIwMCcsICctbWV0YWxfYmluZGluZycsICctaW1hZScsICc8aW5maWxlLm1hZT4nLCAnLW9tYWUnLCAnPG91dGZpbGUubWFlPic=

> <r_lp_tautomer_probability>
1

> <r_epik_Ionization_Penalty>
0.0010885

> <r_epik_Ionization_Penalty_Charging>
0.00106921

> <r_epik_Ionization_Penalty_Neutral>
1.92865e-05

> <r_epik_State_Penalty>
0.000697184

> <r_epik_Charging_Adjusted_Penalty>
0.0017664

> <i_epik_Tot_Q>
1

> <i_epik_Tot_abs_Q>
1

> <r_epik_Metal_State_Penalty>
-0

> <b_epik_Metal_Only>
0

> <s_lp_Force_Field>
OPLS_2005

> <r_lp_Energy>
35.5071

> <b_lp_Chiralities_Consistent>
1

> <s_lp_Variant>
AV-unprocessed.smi:2799-2

> <Gold.Version>
5.8.1

> <Gold.Id.Protein>
6NUR|6NUR_protein|mol2

> <Gold.PLP.Fitness>
46.2384

> <Gold.PLP.PLP>
-42.6234

> <Gold.PLP.part.hbond>
-1.0000

> <Gold.PLP.part.metal>
0.0000

> <Gold.PLP.part.buried>
-4.8769

> <Gold.PLP.part.nonpolar>
-37.3334

> <Gold.PLP.part.repulsive>
0.2065

> <Gold.PLP.ligand.clash>
0.0000

> <Gold.PLP.ligand.torsion>
1.2102

> <Gold.PLP.Chemscore.Hbond>
1.9840

> <Gold.PLP.Chemscore.CHOScore>
0.0000

> <Gold.PLP.Chemscore.Metal>
0.0000

> <Gold.Chemscore.Hbonds>
donor molecule, donor type, donor heavy atom, donor atom, acceptor molecule, acceptor atom, score
      L1  H     5    52       P1  7948  1.89

> <Gold.PLP.Chemscore.Internal.Correction>
0.0835

> <Gold.Rescore>
     Score         DG    S(hbond)    S(metal)    S(lipo)     H(rot)  DE(clash)    DE(int)     intcor
     12.75     -16.69       0.97        0.00     102.51       1.57       0.01       3.93       ----

> <Gold.Chemscore.Fitness>
12.7548

> <Gold.Chemscore.DG>
-16.6895

> <Gold.Chemscore.ZeroCoef>
-5.4800

> <Gold.Chemscore.Hbond>
0.9678

> <Gold.Chemscore.Metal>
0.0000

> <Gold.Chemscore.Lipo>
102.5065

> <Gold.Chemscore.Internal_Hbond>
0.0000

> <Gold.Chemscore.DEClash>
0.0060

> <Gold.Chemscore.DEInternal>
3.9288

> <Gold.Chemscore.Rot>
1.5688

> <Gold.Chemscore.Internal.Correction>
   9.000000E+99

> <Gold.Chemscore.Hbonds>
donor molecule, donor type, donor heavy atom, donor atom, acceptor molecule, acceptor atom, score
      L1  H     5    52       P1  7948  0.56

> <Gold.Chemscore.Hbond.Weighted>
-3.2323

> <Gold.Chemscore.Metal.Weighted>
-0.0000

> <Gold.Chemscore.Lipo.Weighted>
-11.9933

> <Gold.Chemscore.Internal_Hbond.Weighted>
0.0000

> <Gold.Chemscore.DEClash.Weighted>
0.0060

> <Gold.Chemscore.DEInternal.Weighted>
3.9288

> <Gold.Chemscore.Rot.Weighted>
4.0161

> <Gold.Chemscore.Internal.Correction.Weighted>
   9.000000E+99

> <Gold.Protein.RotatedTorsions>
[ 6907 6896 6895 6894 ] final -155.93 input  -60.11 | X-H torsion
[ 7974 7965 7964 7962 ] final  117.78 input  175.53 | X-H torsion
[ 8008 7997 7996 7995 ] final   96.15 input   59.86 | X-H torsion
[ 10167 10162 10161 10158 ] final  -22.15 input  -65.29 | X-H torsion
[ 10718 10713 10712 10709 ] final  -30.99 input   66.30 | X-H torsion
[ 10763 10752 10751 10750 ] final -107.86 input  -60.55 | X-H torsion
[ 11005 11000 10999 10996 ] final  128.31 input  -57.11 | X-H torsion

> <Gold.Protein.ActiveResidues>
 VAL166  LYS551  ARG553  GLY616  TRP617  ASP618  TYR619  PRO620  LYS621  CYS622 
 ASP623  PHE694  ASN695  SER759  ASP760  ASP761  ALA762  ILE779  LEU786  VAL792 
 PHE793  MET794  SER795  GLU796  ALA797  LYS798  CYS799  TRP800  GLU811  SER814 

> <Gold.Protein.RotatedAtoms>
  151.2799  133.4214  159.2626 H   0  0  0  0  0  0  0  0  0  0  0  0  # atno 6907 bound_to 6896
  151.0370  134.9580  159.8151 H   0  0  0  0  0  0  0  0  0  0  0  0  # atno 6908 bound_to 6896
  152.5357  134.2759  159.9041 H   0  0  0  0  0  0  0  0  0  0  0  0  # atno 6909 bound_to 6896
  145.1632  139.3143  143.4506 H   0  0  0  0  0  0  0  0  0  0  0  0  # atno 7974 bound_to 7965
  156.0766  140.3276  155.7641 H   0  0  0  0  0  0  0  0  0  0  0  0  # atno 8008 bound_to 7997
  155.5221  140.0586  157.2922 H   0  0  0  0  0  0  0  0  0  0  0  0  # atno 8009 bound_to 7997
  154.4559  140.1942  156.0400 H   0  0  0  0  0  0  0  0  0  0  0  0  # atno 8010 bound_to 7997
  140.7285  143.4561  151.0446 H   0  0  0  0  0  0  0  0  0  0  0  0  # atno 10167 bound_to 10162
  156.3929  130.4376  149.7381 H   0  0  0  0  0  0  0  0  0  0  0  0  # atno 10718 bound_to 10713
  154.8101  135.4659  154.0493 H   0  0  0  0  0  0  0  0  0  0  0  0  # atno 10763 bound_to 10752
  153.1931  135.6858  153.8334 H   0  0  0  0  0  0  0  0  0  0  0  0  # atno 10764 bound_to 10752
  153.7844  135.3252  155.3347 H   0  0  0  0  0  0  0  0  0  0  0  0  # atno 10765 bound_to 10752
  139.9554  134.9614  156.8983 H   0  0  0  0  0  0  0  0  0  0  0  0  # atno 11005 bound_to 11000
  146.3479  140.1751  142.8589 LP  0  0  0  0  0  0  0  0  0  0  0  0  # atno 17320 bound_to 7965
  145.0309  140.8870  143.5110 LP  0  0  0  0  0  0  0  0  0  0  0  0  # atno 17321 bound_to 7965
  139.8241  143.7779  152.3178 LP  0  0  0  0  0  0  0  0  0  0  0  0  # atno 17342 bound_to 10162
  139.7872  144.7423  151.0005 LP  0  0  0  0  0  0  0  0  0  0  0  0  # atno 17343 bound_to 10162
  156.4428  130.7869  151.2890 LP  0  0  0  0  0  0  0  0  0  0  0  0  # atno 17370 bound_to 10713
  157.7500  131.0120  150.3366 LP  0  0  0  0  0  0  0  0  0  0  0  0  # atno 17371 bound_to 10713
  140.5622  134.0523  155.7402 LP  0  0  0  0  0  0  0  0  0  0  0  0  # atno 17394 bound_to 11000
  141.1224  133.9439  157.2703 LP  0  0  0  0  0  0  0  0  0  0  0  0  # atno 17395 bound_to 11000

$$$$
