AV-unprocessed.smi:1990|AV-procd|sdf|8064|dock9
  -GOLD-   2272010273D 1   1.00000     0.00000
 Structure written by MMmdl.
 46 47  0  0  0  0  0  0  0  0  1 V2000
  153.7975  141.9824  161.8655 C   0  0  0  0  0  0  0  0  0  0  0  0
  153.5249  142.2006  160.3736 C   0  0  1  0  0  0  0  0  0  0  0  0
  152.6352  141.0924  159.7794 C   0  0  0  0  0  0  0  0  0  0  0  0
  152.2921  141.3944  158.3924 N   0  0  0  0  0  0  0  0  0  0  0  0
  151.7440  140.3696  157.5868 C   0  0  0  0  0  0  0  0  0  0  0  0
  150.9835  140.6466  156.4223 C   0  0  0  0  0  0  0  0  0  0  0  0
  150.4596  139.5789  155.6679 C   0  0  0  0  0  0  0  0  0  0  0  0
  150.7100  138.2525  156.0887 C   0  0  0  0  0  0  0  0  0  0  0  0
  150.2294  137.0876  155.4312 N   0  0  0  0  0  0  0  0  0  0  0  0
  150.7059  135.8293  155.4740 C   0  0  0  0  0  0  0  0  0  0  0  0
  151.6874  135.4751  156.1264 O   0  0  0  0  0  0  0  0  0  0  0  0
  149.9264  134.7980  154.6462 C   0  0  1  0  0  0  0  0  0  0  0  0
  150.4514  133.3707  154.8714 C   0  0  0  0  0  0  0  0  0  0  0  0
  148.1211  134.8796  155.0625 S   0  0  0  0  0  0  0  0  0  0  0  0
  147.3686  133.6593  153.9049 C   0  0  0  0  0  0  0  0  0  0  0  0
  147.9486  134.3773  156.4341 O   0  0  0  0  0  0  0  0  0  0  0  0
  147.6088  136.2139  154.7147 O   0  0  0  0  0  0  0  0  0  0  0  0
  151.4634  138.0762  157.2653 C   0  0  0  0  0  0  0  0  0  0  0  0
  151.9676  139.0956  157.9898 N   0  0  0  0  0  0  0  0  0  0  0  0
  151.7581  142.7421  158.1956 C   0  0  0  0  0  0  0  0  0  0  0  0
  152.6751  143.7940  158.8470 C   0  0  1  0  0  0  0  0  0  0  0  0
  152.0722  145.2011  158.7786 C   0  0  0  0  0  0  0  0  0  0  0  0
  152.8763  143.4588  160.2166 O   0  0  0  0  0  0  0  0  0  0  0  0
  154.3023  141.0314  162.0373 H   0  0  0  0  0  0  0  0  0  0  0  0
  152.8707  141.9788  162.4398 H   0  0  0  0  0  0  0  0  0  0  0  0
  154.4338  142.7730  162.2642 H   0  0  0  0  0  0  0  0  0  0  0  0
  154.4814  142.2230  159.8483 H   0  0  0  0  0  0  0  0  0  0  0  0
  153.1737  140.1461  159.8383 H   0  0  0  0  0  0  0  0  0  0  0  0
  151.7178  140.9885  160.3604 H   0  0  0  0  0  0  0  0  0  0  0  0
  150.7931  141.6540  156.0848 H   0  0  0  0  0  0  0  0  0  0  0  0
  149.8708  139.8051  154.7932 H   0  0  0  0  0  0  0  0  0  0  0  0
  149.3805  137.2172  154.8999 H   0  0  0  0  0  0  0  0  0  0  0  0
  150.0213  135.0385  153.5867 H   0  0  0  0  0  0  0  0  0  0  0  0
  151.5191  133.3030  154.6600 H   0  0  0  0  0  0  0  0  0  0  0  0
  149.9426  132.6627  154.2171 H   0  0  0  0  0  0  0  0  0  0  0  0
  150.2906  133.0413  155.8989 H   0  0  0  0  0  0  0  0  0  0  0  0
  146.3062  133.5620  154.1277 H   0  0  0  0  0  0  0  0  0  0  0  0
  147.8521  132.6905  154.0272 H   0  0  0  0  0  0  0  0  0  0  0  0
  147.4849  134.0007  152.8766 H   0  0  0  0  0  0  0  0  0  0  0  0
  151.6735  137.0845  157.6385 H   0  0  0  0  0  0  0  0  0  0  0  0
  151.6526  142.9828  157.1377 H   0  0  0  0  0  0  0  0  0  0  0  0
  150.7603  142.7878  158.6336 H   0  0  0  0  0  0  0  0  0  0  0  0
  153.6392  143.8066  158.3356 H   0  0  0  0  0  0  0  0  0  0  0  0
  151.9116  145.5086  157.7449 H   0  0  0  0  0  0  0  0  0  0  0  0
  152.7343  145.9320  159.2434 H   0  0  0  0  0  0  0  0  0  0  0  0
  151.1127  145.2452  159.2945 H   0  0  0  0  0  0  0  0  0  0  0  0
  1  2  1  0  0  0  0
  1 24  1  0  0  0  0
  1 25  1  0  0  0  0
  1 26  1  0  0  0  0
  2 23  1  0  0  0  0
  2  3  1  0  0  0  0
  2 27  1  0  0  0  0
  3  4  1  0  0  0  0
  3 28  1  0  0  0  0
  3 29  1  0  0  0  0
  4  5  1  0  0  0  0
  4 20  1  0  0  0  0
  5 19  1  0  0  0  0
  5  6  2  0  0  0  0
  6  7  1  0  0  0  0
  6 30  1  0  0  0  0
  7  8  2  0  0  0  0
  7 31  1  0  0  0  0
  8  9  1  0  0  0  0
  8 18  1  0  0  0  0
  9 10  1  0  0  0  0
  9 32  1  0  0  0  0
 10 11  2  0  0  0  0
 10 12  1  0  0  0  0
 12 13  1  0  0  0  0
 12 14  1  0  0  0  0
 12 33  1  0  0  0  0
 13 34  1  0  0  0  0
 13 35  1  0  0  0  0
 13 36  1  0  0  0  0
 14 15  1  0  0  0  0
 14 16  2  0  0  0  0
 14 17  2  0  0  0  0
 15 37  1  0  0  0  0
 15 38  1  0  0  0  0
 15 39  1  0  0  0  0
 18 19  2  0  0  0  0
 18 40  1  0  0  0  0
 20 21  1  0  0  0  0
 20 41  1  0  0  0  0
 20 42  1  0  0  0  0
 21 22  1  0  0  0  0
 21 23  1  0  0  0  0
 21 43  1  0  0  0  0
 22 44  1  0  0  0  0
 22 45  1  0  0  0  0
 22 46  1  0  0  0  0
M  END
> <s_m_source_file>
AV-unprocessed.smi

> <i_m_source_file_index>
1990

> <i_lp_mmshare_version>
43012

> <i_f3d_flags>
0

> <s_epik_input>
W0NIM11bQ0BASF0xW0NIMl1OKFtDSDJdW0NASF0oTzEpW0NIM10pYzJbY0hdW2NIXWMoW2NIXW4yKVtOSF1DKD1PKVtDQEhdKFtDSDNdKVMoPU8pKD1PKVtDSDNd

> <s_epik_cmdline>
J2VwaWtfcHl0aG9uJywgJy1waCcsICc3LjAnLCAnLXRuJywgJzgnLCAnLW1hJywgJzIwMCcsICctbWV0YWxfYmluZGluZycsICctaW1hZScsICc8aW5maWxlLm1hZT4nLCAnLW9tYWUnLCAnPG91dGZpbGUubWFlPic=

> <r_lp_tautomer_probability>
1

> <r_epik_Ionization_Penalty>
0.000334888

> <r_epik_Ionization_Penalty_Charging>
0

> <r_epik_Ionization_Penalty_Neutral>
0.000334888

> <r_epik_State_Penalty>
0.000200905

> <r_epik_Charging_Adjusted_Penalty>
0.000200905

> <i_epik_Tot_Q>
0

> <i_epik_Tot_abs_Q>
0

> <r_epik_Metal_State_Penalty>
-0

> <b_epik_Metal_Only>
0

> <s_lp_Force_Field>
OPLS_2005

> <r_lp_Energy>
18.0691

> <b_lp_Chiralities_Consistent>
1

> <s_lp_Variant>
AV-unprocessed.smi:1990-4

> <Gold.Version>
5.8.1

> <Gold.Id.Protein>
6NUR|6NUR_protein|mol2

> <Gold.PLP.Fitness>
39.1717

> <Gold.PLP.PLP>
-37.1645

> <Gold.PLP.part.hbond>
-1.0000

> <Gold.PLP.part.metal>
0.0000

> <Gold.PLP.part.buried>
-5.9836

> <Gold.PLP.part.nonpolar>
-29.8330

> <Gold.PLP.part.repulsive>
0.5076

> <Gold.PLP.ligand.clash>
0.0000

> <Gold.PLP.ligand.torsion>
0.8025

> <Gold.PLP.Chemscore.Hbond>
1.0000

> <Gold.PLP.Chemscore.CHOScore>
0.0000

> <Gold.PLP.Chemscore.Metal>
0.0000

> <Gold.Chemscore.Hbonds>
donor molecule, donor type, donor heavy atom, donor atom, acceptor molecule, acceptor atom, score
      P1  H 10752 10763       L1    11  1.00

> <Gold.PLP.Chemscore.Internal.Correction>
0.6123

> <Gold.Rescore>
     Score         DG    S(hbond)    S(metal)    S(lipo)     H(rot)  DE(clash)    DE(int)     intcor
     13.32     -16.80       0.96        0.00     102.46       1.52       0.05       3.44       ----

> <Gold.Chemscore.Fitness>
13.3152

> <Gold.Chemscore.DG>
-16.8022

> <Gold.Chemscore.ZeroCoef>
-5.4800

> <Gold.Chemscore.Hbond>
0.9640

> <Gold.Chemscore.Metal>
0.0000

> <Gold.Chemscore.Lipo>
102.4600

> <Gold.Chemscore.Internal_Hbond>
0.0000

> <Gold.Chemscore.DEClash>
0.0507

> <Gold.Chemscore.DEInternal>
3.4363

> <Gold.Chemscore.Rot>
1.5177

> <Gold.Chemscore.Internal.Correction>
   9.000000E+99

> <Gold.Chemscore.Hbonds>
donor molecule, donor type, donor heavy atom, donor atom, acceptor molecule, acceptor atom, score
      P1  H 10752 10763       L1    11  0.88

> <Gold.Chemscore.Hbond.Weighted>
-3.2196

> <Gold.Chemscore.Metal.Weighted>
-0.0000

> <Gold.Chemscore.Lipo.Weighted>
-11.9878

> <Gold.Chemscore.Internal_Hbond.Weighted>
0.0000

> <Gold.Chemscore.DEClash.Weighted>
0.0507

> <Gold.Chemscore.DEInternal.Weighted>
3.4363

> <Gold.Chemscore.Rot.Weighted>
3.8853

> <Gold.Chemscore.Internal.Correction.Weighted>
   9.000000E+99

> <Gold.Protein.RotatedTorsions>
[ 6907 6896 6895 6894 ] final   93.63 input  -60.11 | X-H torsion
[ 7974 7965 7964 7962 ] final -141.01 input  175.53 | X-H torsion
[ 8008 7997 7996 7995 ] final   92.46 input   59.86 | X-H torsion
[ 10167 10162 10161 10158 ] final  -57.93 input  -65.29 | X-H torsion
[ 10718 10713 10712 10709 ] final -175.87 input   66.30 | X-H torsion
[ 10763 10752 10751 10750 ] final  103.65 input  -60.55 | X-H torsion
[ 11005 11000 10999 10996 ] final   37.97 input  -57.11 | X-H torsion

> <Gold.Protein.ActiveResidues>
 VAL166  LYS551  ARG553  GLY616  TRP617  ASP618  TYR619  PRO620  LYS621  CYS622 
 ASP623  PHE694  ASN695  SER759  ASP760  ASP761  ALA762  ILE779  LEU786  VAL792 
 PHE793  MET794  SER795  GLU796  ALA797  LYS798  CYS799  TRP800  GLU811  SER814 

> <Gold.Protein.RotatedAtoms>
  152.5452  134.1318  159.8441 H   0  0  0  0  0  0  0  0  0  0  0  0  # atno 6907 bound_to 6896
  151.1363  133.4995  159.2605 H   0  0  0  0  0  0  0  0  0  0  0  0  # atno 6908 bound_to 6896
  151.1621  135.0288  159.8769 H   0  0  0  0  0  0  0  0  0  0  0  0  # atno 6909 bound_to 6896
  144.8552  140.6131  143.5364 H   0  0  0  0  0  0  0  0  0  0  0  0  # atno 7974 bound_to 7965
  156.0356  140.3325  155.7187 H   0  0  0  0  0  0  0  0  0  0  0  0  # atno 8008 bound_to 7997
  155.5821  140.0638  157.2798 H   0  0  0  0  0  0  0  0  0  0  0  0  # atno 8009 bound_to 7997
  154.4371  140.1842  156.0975 H   0  0  0  0  0  0  0  0  0  0  0  0  # atno 8010 bound_to 7997
  140.6228  143.2426  151.5438 H   0  0  0  0  0  0  0  0  0  0  0  0  # atno 10167 bound_to 10162
  156.8062  130.9570  151.3117 H   0  0  0  0  0  0  0  0  0  0  0  0  # atno 10718 bound_to 10713
  153.3555  135.3969  155.1678 H   0  0  0  0  0  0  0  0  0  0  0  0  # atno 10763 bound_to 10752
  154.8670  135.3667  154.5167 H   0  0  0  0  0  0  0  0  0  0  0  0  # atno 10764 bound_to 10752
  153.5622  135.7081  153.5602 H   0  0  0  0  0  0  0  0  0  0  0  0  # atno 10765 bound_to 10752
  140.2173  134.3683  155.8021 H   0  0  0  0  0  0  0  0  0  0  0  0  # atno 11005 bound_to 11000
  145.4420  139.1534  143.3965 LP  0  0  0  0  0  0  0  0  0  0  0  0  # atno 17320 bound_to 7965
  146.2817  140.4542  142.8773 LP  0  0  0  0  0  0  0  0  0  0  0  0  # atno 17321 bound_to 7965
  139.5453  144.2536  152.1431 LP  0  0  0  0  0  0  0  0  0  0  0  0  # atno 17342 bound_to 10162
  140.1761  144.4890  150.6553 LP  0  0  0  0  0  0  0  0  0  0  0  0  # atno 17343 bound_to 10162
  157.6529  130.8899  149.9669 LP  0  0  0  0  0  0  0  0  0  0  0  0  # atno 17370 bound_to 10713
  156.1071  130.3652  150.0114 LP  0  0  0  0  0  0  0  0  0  0  0  0  # atno 17371 bound_to 10713
  141.2224  133.7174  156.8517 LP  0  0  0  0  0  0  0  0  0  0  0  0  # atno 17394 bound_to 11000
  140.1887  134.8981  157.3035 LP  0  0  0  0  0  0  0  0  0  0  0  0  # atno 17395 bound_to 11000

$$$$
