AV-unprocessed.smi:2568|AV-procd|sdf|10089|dock1
  -GOLD-   2272014113D 1   1.00000     0.00000
 Structure written by MMmdl.
 25 26  0  0  0  0  0  0  0  0  2 V2000
  153.3916  138.4202  154.4764 C   0  0  0  0  0  0  0  0  0  0  0  0
  151.9135  138.5770  154.3564 C   0  0  0  0  0  0  0  0  0  0  0  0
  151.1476  137.6538  153.7723 N   0  0  0  0  0  0  0  0  0  0  0  0
  149.8589  138.0539  153.8102 N   0  0  0  0  0  0  0  0  0  0  0  0
  149.9517  139.2356  154.4189 C   0  0  0  0  0  0  0  0  0  0  0  0
  148.7245  140.0383  154.7202 C   0  0  1  0  0  0  0  0  0  0  0  0
  149.0622  141.4088  155.3366 C   0  0  0  0  0  0  0  0  0  0  0  0
  147.8258  142.1922  155.5239 N   0  3  0  0  0  0  0  0  0  0  0  0
  147.0691  142.3174  154.2621 C   0  0  0  0  0  0  0  0  0  0  0  0
  146.8041  140.9257  153.6599 C   0  0  0  0  0  0  0  0  0  0  0  0
  148.0355  140.2316  153.4865 O   0  0  0  0  0  0  0  0  0  0  0  0
  151.2105  139.6118  154.8035 N   0  0  0  0  0  0  0  0  0  0  0  0
  151.4431  136.7789  153.3625 H   0  0  0  0  0  0  0  0  0  0  0  0
  153.8298  139.2909  154.9655 H   0  0  0  0  0  0  0  0  0  0  0  0
  153.8388  138.3145  153.4876 H   0  0  0  0  0  0  0  0  0  0  0  0
  153.6275  137.5338  155.0655 H   0  0  0  0  0  0  0  0  0  0  0  0
  148.0898  139.4651  155.3993 H   0  0  0  0  0  0  0  0  0  0  0  0
  149.5632  141.2878  156.2976 H   0  0  0  0  0  0  0  0  0  0  0  0
  149.7405  141.9636  154.6866 H   0  0  0  0  0  0  0  0  0  0  0  0
  147.2456  141.7224  156.2047 H   0  0  0  0  0  0  0  0  0  0  0  0
  146.1307  142.8383  154.4531 H   0  0  0  0  0  0  0  0  0  0  0  0
  147.6399  142.9284  153.5617 H   0  0  0  0  0  0  0  0  0  0  0  0
  146.1355  140.3459  154.2983 H   0  0  0  0  0  0  0  0  0  0  0  0
  146.3133  141.0227  152.6916 H   0  0  0  0  0  0  0  0  0  0  0  0
  148.0594  143.1123  155.8692 H   0  0  0  0  0  0  0  0  0  0  0  0
  1 14  1  0  0  0  0
  1 15  1  0  0  0  0
  1 16  1  0  0  0  0
  1  2  1  0  0  0  0
  2 12  2  0  0  0  0
  2  3  1  0  0  0  0
  3  4  1  0  0  0  0
  3 13  1  0  0  0  0
  4  5  2  0  0  0  0
  5 12  1  0  0  0  0
  5  6  1  0  0  0  0
  6 11  1  0  0  0  0
  6  7  1  0  0  0  0
  6 17  1  0  0  0  0
  7  8  1  0  0  0  0
  7 18  1  0  0  0  0
  7 19  1  0  0  0  0
  8  9  1  0  0  0  0
  8 20  1  0  0  0  0
  8 25  1  0  0  0  0
  9 10  1  0  0  0  0
  9 21  1  0  0  0  0
  9 22  1  0  0  0  0
 10 11  1  0  0  0  0
 10 23  1  0  0  0  0
 10 24  1  0  0  0  0
M  CHG  1   8   1
M  END
> <s_m_source_file>
AV-unprocessed.smi

> <i_m_source_file_index>
2568

> <i_lp_mmshare_version>
43012

> <i_f3d_flags>
0

> <s_epik_input>
W0NIM11jMW5bbkhdYyhuMSlbQ0BASF0yW0NIMl1bTkhdW0NIMl1bQ0gyXU8y

> <s_epik_cmdline>
J2VwaWtfcHl0aG9uJywgJy1waCcsICc3LjAnLCAnLXRuJywgJzgnLCAnLW1hJywgJzIwMCcsICctbWV0YWxfYmluZGluZycsICctaW1hZScsICc8aW5maWxlLm1hZT4nLCAnLW9tYWUnLCAnPG91dGZpbGUubWFlPic=

> <r_lp_tautomer_probability>
0.948284

> <r_epik_Ionization_Penalty>
0.107151

> <r_epik_Ionization_Penalty_Charging>
0.100865

> <r_epik_Ionization_Penalty_Neutral>
0.00628602

> <r_epik_State_Penalty>
0.200426

> <r_epik_Charging_Adjusted_Penalty>
0.30129

> <i_epik_Tot_Q>
1

> <i_epik_Tot_abs_Q>
1

> <r_epik_Metal_State_Penalty>
0.501686

> <b_epik_Metal_Only>
0

> <s_lp_Force_Field>
OPLS_2005

> <r_lp_Energy>
11.0041

> <b_lp_Chiralities_Consistent>
1

> <s_lp_Variant>
AV-unprocessed.smi:2568-2

> <Gold.Version>
5.8.1

> <Gold.Id.Protein>
6NUR|6NUR_protein|mol2

> <Gold.PLP.Fitness>
30.2741

> <Gold.PLP.PLP>
-19.7328

> <Gold.PLP.part.hbond>
-3.4854

> <Gold.PLP.part.metal>
0.0000

> <Gold.PLP.part.buried>
-5.0575

> <Gold.PLP.part.nonpolar>
-16.3574

> <Gold.PLP.part.repulsive>
4.7017

> <Gold.PLP.ligand.clash>
0.0000

> <Gold.PLP.ligand.torsion>
0.0731

> <Gold.PLP.Chemscore.Hbond>
3.5577

> <Gold.PLP.Chemscore.CHOScore>
0.0000

> <Gold.PLP.Chemscore.Metal>
0.0000

> <Gold.Chemscore.Hbonds>
donor molecule, donor type, donor heavy atom, donor atom, acceptor molecule, acceptor atom, score
      L1  H     3    13       P1  7949  0.61
      L1  H     8    25       P1  8028  2.00
      P1  H  7989  7998       L1    12  0.95

> <Gold.PLP.Chemscore.Internal.Correction>
0.0143

> <Gold.Rescore>
     Score         DG    S(hbond)    S(metal)    S(lipo)     H(rot)  DE(clash)    DE(int)     intcor
     13.41     -13.68       1.94        0.00      36.46       1.00       0.19       0.08       ----

> <Gold.Chemscore.Fitness>
13.4069

> <Gold.Chemscore.DG>
-13.6781

> <Gold.Chemscore.ZeroCoef>
-5.4800

> <Gold.Chemscore.Hbond>
1.9438

> <Gold.Chemscore.Metal>
0.0000

> <Gold.Chemscore.Lipo>
36.4590

> <Gold.Chemscore.Internal_Hbond>
0.0000

> <Gold.Chemscore.DEClash>
0.1893

> <Gold.Chemscore.DEInternal>
0.0819

> <Gold.Chemscore.Rot>
1.0000

> <Gold.Chemscore.Internal.Correction>
   9.000000E+99

> <Gold.Chemscore.Hbonds>
donor molecule, donor type, donor heavy atom, donor atom, acceptor molecule, acceptor atom, score
      L1  H     3    13       P1  7949  0.47
      L1  H     8    25       P1  8028  0.62
      P1  H  7989  7998       L1    12  0.07

> <Gold.Chemscore.Hbond.Weighted>
-6.4924

> <Gold.Chemscore.Metal.Weighted>
-0.0000

> <Gold.Chemscore.Lipo.Weighted>
-4.2657

> <Gold.Chemscore.Internal_Hbond.Weighted>
0.0000

> <Gold.Chemscore.DEClash.Weighted>
0.1893

> <Gold.Chemscore.DEInternal.Weighted>
0.0819

> <Gold.Chemscore.Rot.Weighted>
2.5600

> <Gold.Chemscore.Internal.Correction.Weighted>
   9.000000E+99

> <Gold.Protein.RotatedTorsions>
[ 6907 6896 6895 6894 ] final   96.87 input  -60.11 | X-H torsion
[ 7974 7965 7964 7962 ] final   68.83 input  175.53 | X-H torsion
[ 8008 7997 7996 7995 ] final  -36.25 input   59.86 | X-H torsion
[ 10167 10162 10161 10158 ] final  -23.98 input  -65.29 | X-H torsion
[ 10718 10713 10712 10709 ] final   28.53 input   66.30 | X-H torsion
[ 10763 10752 10751 10750 ] final -144.64 input  -60.55 | X-H torsion
[ 11005 11000 10999 10996 ] final   50.51 input  -57.11 | X-H torsion

> <Gold.Protein.ActiveResidues>
 VAL166  LYS551  ARG553  GLY616  TRP617  ASP618  TYR619  PRO620  LYS621  CYS622 
 ASP623  PHE694  ASN695  SER759  ASP760  ASP761  ALA762  ILE779  LEU786  VAL792 
 PHE793  MET794  SER795  GLU796  ALA797  LYS798  CYS799  TRP800  GLU811  SER814 

> <Gold.Protein.RotatedAtoms>
  152.5430  134.0820  159.8239 H   0  0  0  0  0  0  0  0  0  0  0  0  # atno 6907 bound_to 6896
  151.0921  133.5301  159.2621 H   0  0  0  0  0  0  0  0  0  0  0  0  # atno 6908 bound_to 6896
  151.2088  135.0481  159.8957 H   0  0  0  0  0  0  0  0  0  0  0  0  # atno 6909 bound_to 6896
  145.7978  139.2966  143.1173 H   0  0  0  0  0  0  0  0  0  0  0  0  # atno 7974 bound_to 7965
  154.4077  140.1635  156.2343 H   0  0  0  0  0  0  0  0  0  0  0  0  # atno 8008 bound_to 7997
  155.9255  140.3418  155.6184 H   0  0  0  0  0  0  0  0  0  0  0  0  # atno 8009 bound_to 7997
  155.7170  140.0763  157.2338 H   0  0  0  0  0  0  0  0  0  0  0  0  # atno 8010 bound_to 7997
  140.7288  143.4394  151.0679 H   0  0  0  0  0  0  0  0  0  0  0  0  # atno 10167 bound_to 10162
  157.2347  130.7040  149.6330 H   0  0  0  0  0  0  0  0  0  0  0  0  # atno 10718 bound_to 10713
  154.8419  135.3435  154.6377 H   0  0  0  0  0  0  0  0  0  0  0  0  # atno 10763 bound_to 10752
  153.6988  135.6971  153.5073 H   0  0  0  0  0  0  0  0  0  0  0  0  # atno 10764 bound_to 10752
  153.2539  135.4344  155.0780 H   0  0  0  0  0  0  0  0  0  0  0  0  # atno 10765 bound_to 10752
  140.1011  134.5080  155.8762 H   0  0  0  0  0  0  0  0  0  0  0  0  # atno 11005 bound_to 11000
  145.9910  140.8602  143.0066 LP  0  0  0  0  0  0  0  0  0  0  0  0  # atno 17320 bound_to 7965
  144.6773  140.2215  143.7366 LP  0  0  0  0  0  0  0  0  0  0  0  0  # atno 17321 bound_to 7965
  139.8060  143.8017  152.3167 LP  0  0  0  0  0  0  0  0  0  0  0  0  # atno 17342 bound_to 10162
  139.8050  144.7359  150.9773 LP  0  0  0  0  0  0  0  0  0  0  0  0  # atno 17343 bound_to 10162
  155.9673  130.4477  150.5592 LP  0  0  0  0  0  0  0  0  0  0  0  0  # atno 17370 bound_to 10713
  157.3441  131.0722  151.1765 LP  0  0  0  0  0  0  0  0  0  0  0  0  # atno 17371 bound_to 10713
  141.2106  133.6696  156.6520 LP  0  0  0  0  0  0  0  0  0  0  0  0  # atno 17394 bound_to 11000
  140.3219  134.8001  157.4259 LP  0  0  0  0  0  0  0  0  0  0  0  0  # atno 17395 bound_to 11000

$$$$
