AV-unprocessed.smi:3267|AV-procd|sdf|12507|dock2
  -GOLD-   2272018413D 1   1.00000     0.00000
 Structure written by MMmdl.
 38 39  0  0  0  0  0  0  0  0  1 V2000
  147.6538  139.9613  155.2209 C   0  0  0  0  0  0  0  0  0  0  0  0
  148.3604  141.0507  154.3980 C   0  0  1  0  0  0  0  0  0  0  0  0
  147.4128  141.8057  153.4356 C   0  0  0  0  0  0  0  0  0  0  0  0
  146.3922  142.5891  154.1127 N   0  0  0  0  0  0  0  0  0  0  0  0
  145.5587  143.5521  153.5830 C   0  0  0  0  0  0  0  0  0  0  0  0
  144.7692  144.0106  154.5983 C   0  0  0  0  0  0  0  0  0  0  0  0
  145.2038  143.2625  155.7280 C   0  0  0  0  0  0  0  0  0  0  0  0
  146.1758  142.4143  155.4349 N   0  0  0  0  0  0  0  0  0  0  0  0
  149.0388  141.9749  155.3036 N   0  0  0  0  0  0  0  0  0  0  0  0
  150.1030  141.6790  156.0622 C   0  0  0  0  0  0  0  0  0  0  0  0
  150.6366  140.5699  156.1037 O   0  0  0  0  0  0  0  0  0  0  0  0
  150.5156  142.7385  156.7704 N   0  0  0  0  0  0  0  0  0  0  0  0
  151.6336  142.7347  157.7059 C   0  0  0  0  0  0  0  0  0  0  0  0
  151.3085  143.5423  158.9733 C   0  0  1  0  0  0  0  0  0  0  0  0
  152.2101  143.2193  160.1643 C   0  0  0  0  0  0  0  0  0  0  0  0
  152.2258  144.5108  160.9705 C   0  0  0  0  0  0  0  0  0  0  0  0
  151.5637  145.5380  160.0486 C   0  0  0  0  0  0  0  0  0  0  0  0
  151.5564  144.9244  158.7687 O   0  0  0  0  0  0  0  0  0  0  0  0
  147.1310  139.2584  154.5718 H   0  0  0  0  0  0  0  0  0  0  0  0
  146.9244  140.3843  155.9122 H   0  0  0  0  0  0  0  0  0  0  0  0
  148.3719  139.3910  155.8110 H   0  0  0  0  0  0  0  0  0  0  0  0
  149.1188  140.5531  153.7908 H   0  0  0  0  0  0  0  0  0  0  0  0
  147.9768  142.4618  152.7705 H   0  0  0  0  0  0  0  0  0  0  0  0
  146.9070  141.0870  152.7898 H   0  0  0  0  0  0  0  0  0  0  0  0
  145.5941  143.8247  152.5383 H   0  0  0  0  0  0  0  0  0  0  0  0
  143.9994  144.7658  154.5428 H   0  0  0  0  0  0  0  0  0  0  0  0
  144.8446  143.3105  156.7454 H   0  0  0  0  0  0  0  0  0  0  0  0
  148.6809  142.9182  155.3391 H   0  0  0  0  0  0  0  0  0  0  0  0
  150.0111  143.6068  156.6678 H   0  0  0  0  0  0  0  0  0  0  0  0
  151.8938  141.7078  157.9679 H   0  0  0  0  0  0  0  0  0  0  0  0
  152.5040  143.1567  157.2027 H   0  0  0  0  0  0  0  0  0  0  0  0
  150.2637  143.4072  159.2601 H   0  0  0  0  0  0  0  0  0  0  0  0
  151.8488  142.3657  160.7386 H   0  0  0  0  0  0  0  0  0  0  0  0
  153.2212  142.9905  159.8251 H   0  0  0  0  0  0  0  0  0  0  0  0
  151.6735  144.4137  161.9059 H   0  0  0  0  0  0  0  0  0  0  0  0
  153.2498  144.7971  161.2132 H   0  0  0  0  0  0  0  0  0  0  0  0
  150.5352  145.7262  160.3601 H   0  0  0  0  0  0  0  0  0  0  0  0
  152.0936  146.4907  160.0295 H   0  0  0  0  0  0  0  0  0  0  0  0
  1  2  1  0  0  0  0
  1 19  1  0  0  0  0
  1 20  1  0  0  0  0
  1 21  1  0  0  0  0
  2  3  1  0  0  0  0
  2  9  1  0  0  0  0
  2 22  1  0  0  0  0
  3  4  1  0  0  0  0
  3 23  1  0  0  0  0
  3 24  1  0  0  0  0
  4  8  1  0  0  0  0
  4  5  1  0  0  0  0
  5  6  2  0  0  0  0
  5 25  1  0  0  0  0
  6  7  1  0  0  0  0
  6 26  1  0  0  0  0
  7  8  2  0  0  0  0
  7 27  1  0  0  0  0
  9 10  1  0  0  0  0
  9 28  1  0  0  0  0
 10 11  2  0  0  0  0
 10 12  1  0  0  0  0
 12 13  1  0  0  0  0
 12 29  1  0  0  0  0
 13 14  1  0  0  0  0
 13 30  1  0  0  0  0
 13 31  1  0  0  0  0
 14 18  1  0  0  0  0
 14 15  1  0  0  0  0
 14 32  1  0  0  0  0
 15 16  1  0  0  0  0
 15 33  1  0  0  0  0
 15 34  1  0  0  0  0
 16 17  1  0  0  0  0
 16 35  1  0  0  0  0
 16 36  1  0  0  0  0
 17 18  1  0  0  0  0
 17 37  1  0  0  0  0
 17 38  1  0  0  0  0
M  END
> <s_m_source_file>
AV-unprocessed.smi

> <i_m_source_file_index>
3267

> <i_lp_mmshare_version>
43012

> <i_f3d_flags>
0

> <s_epik_input>
bjFbY0hdW2NIXVtjSF1uMVtDSDJdW0NAQEhdKFtDSDNdKVtOSF1DKD1PKVtOSF1bQ0gyXVtDQEBIXTJbQ0gyXVtDSDJdW0NIMl1PMg==

> <s_epik_cmdline>
J2VwaWtfcHl0aG9uJywgJy1waCcsICc3LjAnLCAnLXRuJywgJzgnLCAnLW1hJywgJzIwMCcsICctbWV0YWxfYmluZGluZycsICctaW1hZScsICc8aW5maWxlLm1hZT4nLCAnLW9tYWUnLCAnPG91dGZpbGUubWFlPic=

> <r_lp_tautomer_probability>
1

> <r_epik_Ionization_Penalty>
6.24796e-05

> <r_epik_Ionization_Penalty_Charging>
0

> <r_epik_Ionization_Penalty_Neutral>
6.24796e-05

> <r_epik_State_Penalty>
-0

> <r_epik_Charging_Adjusted_Penalty>
0

> <i_epik_Tot_Q>
0

> <i_epik_Tot_abs_Q>
0

> <r_epik_Metal_State_Penalty>
-0

> <b_epik_Metal_Only>
0

> <s_lp_Force_Field>
OPLS_2005

> <r_lp_Energy>
14.3103

> <b_lp_Chiralities_Consistent>
1

> <s_lp_Variant>
AV-unprocessed.smi:3267-4

> <Gold.Version>
5.8.1

> <Gold.Id.Protein>
6NUR|6NUR_protein|mol2

> <Gold.PLP.Fitness>
44.3499

> <Gold.PLP.PLP>
-39.5433

> <Gold.PLP.part.hbond>
-2.0000

> <Gold.PLP.part.metal>
0.0000

> <Gold.PLP.part.buried>
-9.0417

> <Gold.PLP.part.nonpolar>
-28.1383

> <Gold.PLP.part.repulsive>
0.4968

> <Gold.PLP.ligand.clash>
0.0000

> <Gold.PLP.ligand.torsion>
0.6170

> <Gold.PLP.Chemscore.Hbond>
2.0000

> <Gold.PLP.Chemscore.CHOScore>
0.0000

> <Gold.PLP.Chemscore.Metal>
0.0000

> <Gold.Chemscore.Hbonds>
donor molecule, donor type, donor heavy atom, donor atom, acceptor molecule, acceptor atom, score
      L1  H     9    28       P1  8028  1.00
      L1  H    12    29       P1  8028  1.00

> <Gold.PLP.Chemscore.Internal.Correction>
0.0406

> <Gold.Rescore>
     Score         DG    S(hbond)    S(metal)    S(lipo)     H(rot)  DE(clash)    DE(int)     intcor
     15.13     -16.93       1.93        0.00      83.77       1.87       0.08       1.72       ----

> <Gold.Chemscore.Fitness>
15.1307

> <Gold.Chemscore.DG>
-16.9341

> <Gold.Chemscore.ZeroCoef>
-5.4800

> <Gold.Chemscore.Hbond>
1.9300

> <Gold.Chemscore.Metal>
0.0000

> <Gold.Chemscore.Lipo>
83.7713

> <Gold.Chemscore.Internal_Hbond>
0.0000

> <Gold.Chemscore.DEClash>
0.0827

> <Gold.Chemscore.DEInternal>
1.7207

> <Gold.Chemscore.Rot>
1.8724

> <Gold.Chemscore.Internal.Correction>
   9.000000E+99

> <Gold.Chemscore.Hbonds>
donor molecule, donor type, donor heavy atom, donor atom, acceptor molecule, acceptor atom, score
      L1  H     9    28       P1  8028  0.97
      L1  H    12    29       P1  8028  0.95

> <Gold.Chemscore.Hbond.Weighted>
-6.4461

> <Gold.Chemscore.Metal.Weighted>
-0.0000

> <Gold.Chemscore.Lipo.Weighted>
-9.8012

> <Gold.Chemscore.Internal_Hbond.Weighted>
0.0000

> <Gold.Chemscore.DEClash.Weighted>
0.0827

> <Gold.Chemscore.DEInternal.Weighted>
1.7207

> <Gold.Chemscore.Rot.Weighted>
4.7933

> <Gold.Chemscore.Internal.Correction.Weighted>
   9.000000E+99

> <Gold.Protein.RotatedTorsions>
[ 6907 6896 6895 6894 ] final  143.77 input  -60.11 | X-H torsion
[ 7974 7965 7964 7962 ] final  100.54 input  175.53 | X-H torsion
[ 8008 7997 7996 7995 ] final -174.27 input   59.86 | X-H torsion
[ 10167 10162 10161 10158 ] final   69.98 input  -65.29 | X-H torsion
[ 10718 10713 10712 10709 ] final  131.63 input   66.30 | X-H torsion
[ 10763 10752 10751 10750 ] final -141.13 input  -60.55 | X-H torsion
[ 11005 11000 10999 10996 ] final  174.98 input  -57.11 | X-H torsion

> <Gold.Protein.ActiveResidues>
 VAL166  LYS551  ARG553  GLY616  TRP617  ASP618  TYR619  PRO620  LYS621  CYS622 
 ASP623  PHE694  ASN695  SER759  ASP760  ASP761  ALA762  ILE779  LEU786  VAL792 
 PHE793  MET794  SER795  GLU796  ALA797  LYS798  CYS799  TRP800  GLU811  SER814 

> <Gold.Protein.RotatedAtoms>
  152.2021  133.4848  159.5063 H   0  0  0  0  0  0  0  0  0  0  0  0  # atno 6907 bound_to 6896
  150.6972  134.1577  159.4173 H   0  0  0  0  0  0  0  0  0  0  0  0  # atno 6908 bound_to 6896
  151.9495  135.0175  160.0592 H   0  0  0  0  0  0  0  0  0  0  0  0  # atno 6909 bound_to 6896
  145.3842  139.2374  143.3387 H   0  0  0  0  0  0  0  0  0  0  0  0  # atno 7974 bound_to 7965
  155.9679  140.1157  157.0838 H   0  0  0  0  0  0  0  0  0  0  0  0  # atno 8008 bound_to 7997
  154.4149  140.1169  156.5334 H   0  0  0  0  0  0  0  0  0  0  0  0  # atno 8009 bound_to 7997
  155.6635  140.3473  155.4793 H   0  0  0  0  0  0  0  0  0  0  0  0  # atno 8010 bound_to 7997
  140.0619  144.5226  150.7288 H   0  0  0  0  0  0  0  0  0  0  0  0  # atno 10167 bound_to 10162
  157.4949  131.1092  150.9506 H   0  0  0  0  0  0  0  0  0  0  0  0  # atno 10718 bound_to 10713
  154.8555  135.3533  154.5819 H   0  0  0  0  0  0  0  0  0  0  0  0  # atno 10763 bound_to 10752
  153.6430  135.6997  153.5240 H   0  0  0  0  0  0  0  0  0  0  0  0  # atno 10764 bound_to 10752
  153.2956  135.4222  155.1165 H   0  0  0  0  0  0  0  0  0  0  0  0  # atno 10765 bound_to 10752
  140.3572  134.7144  157.4307 H   0  0  0  0  0  0  0  0  0  0  0  0  # atno 11005 bound_to 11000
  146.2828  140.4514  142.8769 LP  0  0  0  0  0  0  0  0  0  0  0  0  # atno 17320 bound_to 7965
  144.8486  140.6967  143.6183 LP  0  0  0  0  0  0  0  0  0  0  0  0  # atno 17321 bound_to 7965
  140.7168  143.2551  151.4409 LP  0  0  0  0  0  0  0  0  0  0  0  0  # atno 17342 bound_to 10162
  139.5888  144.1544  152.2063 LP  0  0  0  0  0  0  0  0  0  0  0  0  # atno 17343 bound_to 10162
  157.0196  130.5668  149.5330 LP  0  0  0  0  0  0  0  0  0  0  0  0  # atno 17370 bound_to 10713
  156.0195  130.5289  150.8233 LP  0  0  0  0  0  0  0  0  0  0  0  0  # atno 17371 bound_to 10713
  140.0655  134.5935  155.8700 LP  0  0  0  0  0  0  0  0  0  0  0  0  # atno 17394 bound_to 11000
  141.1995  133.6607  156.5846 LP  0  0  0  0  0  0  0  0  0  0  0  0  # atno 17395 bound_to 11000

$$$$
