AV-unprocessed.smi:1952|AV-procd|sdf|7889|dock1
  -GOLD-   2272010 43D 1   1.00000     0.00000
 Structure written by MMmdl.
 39 40  0  0  0  0  0  0  0  0  3 V2000
  152.4054  141.3791  158.7550 C   0  0  0  0  0  0  0  0  0  0  0  0
  152.1554  140.7397  157.4325 C   0  0  0  0  0  0  0  0  0  0  0  0
  151.1314  140.8325  156.5331 C   0  0  0  0  0  0  0  0  0  0  0  0
  151.5391  139.9618  155.4864 C   0  0  0  0  0  0  0  0  0  0  0  0
  150.8514  139.7043  154.3633 N   0  5  0  0  0  0  0  0  0  0  0  0
  149.5062  139.8331  154.3474 C   0  0  0  0  0  0  0  0  0  0  0  0
  148.7827  140.0497  155.3220 O   0  0  0  0  0  0  0  0  0  0  0  0
  148.9708  139.7381  153.1208 N   0  0  0  0  0  0  0  0  0  0  0  0
  147.5649  139.9343  152.7613 C   0  0  2  0  0  0  0  0  0  0  0  0
  147.1836  141.4027  152.9910 C   0  0  0  0  0  0  0  0  0  0  0  0
  146.6555  138.9800  153.5686 C   0  0  0  0  0  0  0  0  0  0  0  0
  146.5268  137.6432  152.9363 N   0  3  0  0  0  0  0  0  0  0  0  0
  145.9895  136.6058  153.8458 C   0  0  0  0  0  0  0  0  0  0  0  0
  145.9977  135.2376  153.1427 C   0  0  0  0  0  0  0  0  0  0  0  0
  145.2459  135.3140  151.9366 O   0  0  0  0  0  0  0  0  0  0  0  0
  145.7939  136.2589  151.0241 C   0  0  0  0  0  0  0  0  0  0  0  0
  145.7721  137.6580  151.6608 C   0  0  0  0  0  0  0  0  0  0  0  0
  152.7012  139.3802  155.7348 N   0  0  0  0  0  0  0  0  0  0  0  0
  153.1063  139.8797  156.9784 O   0  0  0  0  0  0  0  0  0  0  0  0
  152.6889  140.6341  159.4984 H   0  0  0  0  0  0  0  0  0  0  0  0
  151.5130  141.8919  159.1140 H   0  0  0  0  0  0  0  0  0  0  0  0
  153.2104  142.1105  158.6839 H   0  0  0  0  0  0  0  0  0  0  0  0
  150.2348  141.4293  156.6094 H   0  0  0  0  0  0  0  0  0  0  0  0
  149.6076  139.5472  152.3608 H   0  0  0  0  0  0  0  0  0  0  0  0
  147.4313  139.7361  151.6970 H   0  0  0  0  0  0  0  0  0  0  0  0
  146.1475  141.5879  152.7063 H   0  0  0  0  0  0  0  0  0  0  0  0
  147.8114  142.0685  152.3977 H   0  0  0  0  0  0  0  0  0  0  0  0
  147.2967  141.6852  154.0384 H   0  0  0  0  0  0  0  0  0  0  0  0
  147.0912  138.8607  154.5617 H   0  0  0  0  0  0  0  0  0  0  0  0
  145.6676  139.4172  153.7213 H   0  0  0  0  0  0  0  0  0  0  0  0
  146.5965  136.5537  154.7505 H   0  0  0  0  0  0  0  0  0  0  0  0
  144.9758  136.8710  154.1499 H   0  0  0  0  0  0  0  0  0  0  0  0
  147.0187  134.9168  152.9284 H   0  0  0  0  0  0  0  0  0  0  0  0
  145.5544  134.4796  153.7887 H   0  0  0  0  0  0  0  0  0  0  0  0
  146.8102  135.9722  150.7483 H   0  0  0  0  0  0  0  0  0  0  0  0
  145.2010  136.2526  150.1094 H   0  0  0  0  0  0  0  0  0  0  0  0
  144.7433  137.9712  151.8446 H   0  0  0  0  0  0  0  0  0  0  0  0
  146.2071  138.3801  150.9704 H   0  0  0  0  0  0  0  0  0  0  0  0
  147.4697  137.3542  152.7132 H   0  0  0  0  0  0  0  0  0  0  0  0
  1  2  1  0  0  0  0
  1 20  1  0  0  0  0
  1 21  1  0  0  0  0
  1 22  1  0  0  0  0
  2 19  1  0  0  0  0
  2  3  2  0  0  0  0
  3  4  1  0  0  0  0
  3 23  1  0  0  0  0
  4  5  1  0  0  0  0
  4 18  2  0  0  0  0
  5  6  1  0  0  0  0
  6  7  2  0  0  0  0
  6  8  1  0  0  0  0
  8  9  1  0  0  0  0
  8 24  1  0  0  0  0
  9 10  1  0  0  0  0
  9 11  1  0  0  0  0
  9 25  1  0  0  0  0
 10 26  1  0  0  0  0
 10 27  1  0  0  0  0
 10 28  1  0  0  0  0
 11 12  1  0  0  0  0
 11 29  1  0  0  0  0
 11 30  1  0  0  0  0
 12 17  1  0  0  0  0
 12 13  1  0  0  0  0
 12 39  1  0  0  0  0
 13 14  1  0  0  0  0
 13 31  1  0  0  0  0
 13 32  1  0  0  0  0
 14 15  1  0  0  0  0
 14 33  1  0  0  0  0
 14 34  1  0  0  0  0
 15 16  1  0  0  0  0
 16 17  1  0  0  0  0
 16 35  1  0  0  0  0
 16 36  1  0  0  0  0
 17 37  1  0  0  0  0
 17 38  1  0  0  0  0
 18 19  1  0  0  0  0
M  CHG  1   5  -1
M  CHG  1  12   1
M  END
> <s_m_source_file>
AV-unprocessed.smi

> <i_m_source_file_index>
1952

> <i_lp_mmshare_version>
43012

> <i_f3d_flags>
0

> <s_epik_input>
W0NIM11jMVtjSF1jKG5vMSlbTkhdQyg9TylbTkhdW0NASF0oW0NIM10pW0NIMl1OMltDSDJdW0NIMl1PW0NIMl1bQ0gyXTI=

> <s_epik_cmdline>
J2VwaWtfcHl0aG9uJywgJy1waCcsICc3LjAnLCAnLXRuJywgJzgnLCAnLW1hJywgJzIwMCcsICctbWV0YWxfYmluZGluZycsICctaW1hZScsICc8aW5maWxlLm1hZT4nLCAnLW9tYWUnLCAnPG91dGZpbGUubWFlPic=

> <r_epik_Ionization_Penalty>
6.62152

> <r_epik_Ionization_Penalty_Charging>
6.62142

> <r_epik_Ionization_Penalty_Neutral>
9.8734e-05

> <r_epik_State_Penalty>
6.82189

> <r_epik_Charging_Adjusted_Penalty>
13.4433

> <i_epik_Tot_Q>
0

> <i_epik_Tot_abs_Q>
2

> <r_epik_Metal_State_Penalty>
2.76365

> <b_epik_Metal_Only>
1

> <s_lp_Force_Field>
OPLS_2005

> <r_lp_Energy>
7.85486

> <b_lp_Chiralities_Consistent>
1

> <s_lp_Variant>
AV-unprocessed.smi:1952-7

> <Gold.Version>
5.8.1

> <Gold.Id.Protein>
6NUR|6NUR_protein|mol2

> <Gold.PLP.Fitness>
39.9058

> <Gold.PLP.PLP>
-26.6840

> <Gold.PLP.part.hbond>
-4.4639

> <Gold.PLP.part.metal>
0.0000

> <Gold.PLP.part.buried>
-0.5568

> <Gold.PLP.part.nonpolar>
-22.0263

> <Gold.PLP.part.repulsive>
0.3855

> <Gold.PLP.ligand.clash>
0.0000

> <Gold.PLP.ligand.torsion>
0.5781

> <Gold.PLP.Chemscore.Hbond>
4.7520

> <Gold.PLP.Chemscore.CHOScore>
0.0000

> <Gold.PLP.Chemscore.Metal>
0.0000

> <Gold.Chemscore.Hbonds>
donor molecule, donor type, donor heavy atom, donor atom, acceptor molecule, acceptor atom, score
      L1  H     8    24       P1  7957  0.24
      L1  H    12    39       P1  7948  1.95
      P1  H  7989  7998       L1     5  0.70
      P1  H  7997  8009       L1    19  0.64

> <Gold.PLP.Chemscore.Internal.Correction>
0.1220

> <Gold.Rescore>
     Score         DG    S(hbond)    S(metal)    S(lipo)     H(rot)  DE(clash)    DE(int)     intcor
     13.53     -16.85       2.69        0.00      54.93       1.58       0.09       3.24       ----

> <Gold.Chemscore.Fitness>
13.5265

> <Gold.Chemscore.DG>
-16.8537

> <Gold.Chemscore.ZeroCoef>
-5.4800

> <Gold.Chemscore.Hbond>
2.6918

> <Gold.Chemscore.Metal>
0.0000

> <Gold.Chemscore.Lipo>
54.9326

> <Gold.Chemscore.Internal_Hbond>
0.0000

> <Gold.Chemscore.DEClash>
0.0922

> <Gold.Chemscore.DEInternal>
3.2350

> <Gold.Chemscore.Rot>
1.5798

> <Gold.Chemscore.Internal.Correction>
   9.000000E+99

> <Gold.Chemscore.Hbonds>
donor molecule, donor type, donor heavy atom, donor atom, acceptor molecule, acceptor atom, score
      L1  H     8    24       P1  7957  0.25
      L1  H    12    39       P1  7948  0.92
      P1  H  7989  7998       L1     5  0.06
      P1  H  7997  8009       L1    19  0.45

> <Gold.Chemscore.Hbond.Weighted>
-8.9907

> <Gold.Chemscore.Metal.Weighted>
-0.0000

> <Gold.Chemscore.Lipo.Weighted>
-6.4271

> <Gold.Chemscore.Internal_Hbond.Weighted>
0.0000

> <Gold.Chemscore.DEClash.Weighted>
0.0922

> <Gold.Chemscore.DEInternal.Weighted>
3.2350

> <Gold.Chemscore.Rot.Weighted>
4.0442

> <Gold.Chemscore.Internal.Correction.Weighted>
   9.000000E+99

> <Gold.Protein.RotatedTorsions>
[ 6907 6896 6895 6894 ] final   19.66 input  -60.11 | X-H torsion
[ 7974 7965 7964 7962 ] final  -43.52 input  175.53 | X-H torsion
[ 8008 7997 7996 7995 ] final  156.77 input   59.86 | X-H torsion
[ 10167 10162 10161 10158 ] final   50.54 input  -65.29 | X-H torsion
[ 10718 10713 10712 10709 ] final  101.59 input   66.30 | X-H torsion
[ 10763 10752 10751 10750 ] final   48.42 input  -60.55 | X-H torsion
[ 11005 11000 10999 10996 ] final   86.37 input  -57.11 | X-H torsion

> <Gold.Protein.ActiveResidues>
 VAL166  LYS551  ARG553  GLY616  TRP617  ASP618  TYR619  PRO620  LYS621  CYS622 
 ASP623  PHE694  ASN695  SER759  ASP760  ASP761  ALA762  ILE779  LEU786  VAL792 
 PHE793  MET794  SER795  GLU796  ALA797  LYS798  CYS799  TRP800  GLU811  SER814 

> <Gold.Protein.RotatedAtoms>
  151.8844  135.0441  160.0491 H   0  0  0  0  0  0  0  0  0  0  0  0  # atno 6907 bound_to 6896
  152.2487  133.5192  159.5321 H   0  0  0  0  0  0  0  0  0  0  0  0  # atno 6908 bound_to 6896
  150.7076  134.0906  159.3973 H   0  0  0  0  0  0  0  0  0  0  0  0  # atno 6909 bound_to 6896
  146.0011  140.7073  142.9270 H   0  0  0  0  0  0  0  0  0  0  0  0  # atno 7974 bound_to 7965
  156.2403  140.1903  156.7005 H   0  0  0  0  0  0  0  0  0  0  0  0  # atno 8008 bound_to 7997
  154.6185  140.0612  156.9611 H   0  0  0  0  0  0  0  0  0  0  0  0  # atno 8009 bound_to 7997
  155.1900  140.3283  155.4363 H   0  0  0  0  0  0  0  0  0  0  0  0  # atno 8010 bound_to 7997
  140.2713  144.3262  150.6289 H   0  0  0  0  0  0  0  0  0  0  0  0  # atno 10167 bound_to 10162
  157.6825  131.0730  150.5275 H   0  0  0  0  0  0  0  0  0  0  0  0  # atno 10718 bound_to 10713
  152.9792  135.5944  154.3923 H   0  0  0  0  0  0  0  0  0  0  0  0  # atno 10763 bound_to 10752
  154.3577  135.2767  155.2339 H   0  0  0  0  0  0  0  0  0  0  0  0  # atno 10764 bound_to 10752
  154.4350  135.6027  153.6147 H   0  0  0  0  0  0  0  0  0  0  0  0  # atno 10765 bound_to 10752
  139.8946  134.8351  156.2711 H   0  0  0  0  0  0  0  0  0  0  0  0  # atno 11005 bound_to 11000
  144.6920  140.3235  143.7228 LP  0  0  0  0  0  0  0  0  0  0  0  0  # atno 17320 bound_to 7965
  145.7486  139.1786  143.2334 LP  0  0  0  0  0  0  0  0  0  0  0  0  # atno 17321 bound_to 7965
  140.5887  143.2169  151.7293 LP  0  0  0  0  0  0  0  0  0  0  0  0  # atno 17342 bound_to 10162
  139.4988  144.3972  152.0219 LP  0  0  0  0  0  0  0  0  0  0  0  0  # atno 17343 bound_to 10162
  156.5586  130.4250  149.6074 LP  0  0  0  0  0  0  0  0  0  0  0  0  # atno 17370 bound_to 10713
  156.2841  130.7087  151.1919 LP  0  0  0  0  0  0  0  0  0  0  0  0  # atno 17371 bound_to 10713
  141.0100  133.7101  156.1096 LP  0  0  0  0  0  0  0  0  0  0  0  0  # atno 17394 bound_to 11000
  140.7381  134.4181  157.5558 LP  0  0  0  0  0  0  0  0  0  0  0  0  # atno 17395 bound_to 11000

$$$$
