AV-unprocessed.smi:470|AV-procd|sdf|2655|dock10
  -GOLD-   2262023 63D 1   1.00000     0.00000
 Structure written by MMmdl.
 33 34  0  0  0  0  0  0  0  0  1 V2000
  144.9499  137.9566  151.9717 N   0  0  0  0  0  0  0  0  0  0  0  0
  146.2316  138.3042  152.1163 C   0  0  0  0  0  0  0  0  0  0  0  0
  146.9017  138.7485  151.1865 O   0  0  0  0  0  0  0  0  0  0  0  0
  146.8522  138.1247  153.5030 C   0  0  0  0  0  0  0  0  0  0  0  0
  147.2502  139.4556  154.0707 C   0  0  0  0  0  0  0  0  0  0  0  0
  146.5190  140.6185  154.0437 C   0  0  0  0  0  0  0  0  0  0  0  0
  147.3505  141.9323  154.8326 S   0  0  0  0  0  0  0  0  0  0  0  0
  148.6951  140.8455  155.1435 C   0  0  0  0  0  0  0  0  0  0  0  0
  149.8414  141.2586  155.8726 N   0  0  0  0  0  0  0  0  0  0  0  0
  149.9441  141.9455  157.0291 C   0  0  0  0  0  0  0  0  0  0  0  0
  148.9231  142.3226  157.6022 O   0  0  0  0  0  0  0  0  0  0  0  0
  151.3164  142.2878  157.6463 C   0  0  1  0  0  0  0  0  0  0  0  0
  151.5282  143.8152  157.7872 C   0  0  0  0  0  0  0  0  0  0  0  0
  152.7760  144.1433  158.5883 C   0  0  0  0  0  0  0  0  0  0  0  0
  153.4025  143.2519  159.3757 C   0  0  0  0  0  0  0  0  0  0  0  0
  152.9299  141.8198  159.5558 C   0  0  0  0  0  0  0  0  0  0  0  0
  151.5027  141.6066  159.0178 C   0  0  0  0  0  0  0  0  0  0  0  0
  148.4854  139.5985  154.7102 N   0  0  0  0  0  0  0  0  0  0  0  0
  144.4989  138.0668  151.0751 H   0  0  0  0  0  0  0  0  0  0  0  0
  144.4342  137.5931  152.7602 H   0  0  0  0  0  0  0  0  0  0  0  0
  146.1408  137.6185  154.1574 H   0  0  0  0  0  0  0  0  0  0  0  0
  147.7186  137.4670  153.4255 H   0  0  0  0  0  0  0  0  0  0  0  0
  145.5396  140.7773  153.6174 H   0  0  0  0  0  0  0  0  0  0  0  0
  150.7223  141.0149  155.4435 H   0  0  0  0  0  0  0  0  0  0  0  0
  152.1025  141.9485  156.9736 H   0  0  0  0  0  0  0  0  0  0  0  0
  151.6186  144.2688  156.7997 H   0  0  0  0  0  0  0  0  0  0  0  0
  150.6847  144.2972  158.2830 H   0  0  0  0  0  0  0  0  0  0  0  0
  153.1509  145.1537  158.5153 H   0  0  0  0  0  0  0  0  0  0  0  0
  154.2945  143.5421  159.9113 H   0  0  0  0  0  0  0  0  0  0  0  0
  153.6290  141.1652  159.0342 H   0  0  0  0  0  0  0  0  0  0  0  0
  152.9730  141.5551  160.6125 H   0  0  0  0  0  0  0  0  0  0  0  0
  150.7852  142.0224  159.7273 H   0  0  0  0  0  0  0  0  0  0  0  0
  151.2890  140.5386  158.9627 H   0  0  0  0  0  0  0  0  0  0  0  0
  1  2  1  0  0  0  0
  1 19  1  0  0  0  0
  1 20  1  0  0  0  0
  2  3  2  0  0  0  0
  2  4  1  0  0  0  0
  4  5  1  0  0  0  0
  4 21  1  0  0  0  0
  4 22  1  0  0  0  0
  5 18  1  0  0  0  0
  5  6  2  0  0  0  0
  6  7  1  0  0  0  0
  6 23  1  0  0  0  0
  7  8  1  0  0  0  0
  8  9  1  0  0  0  0
  8 18  2  0  0  0  0
  9 10  1  0  0  0  0
  9 24  1  0  0  0  0
 10 11  2  0  0  0  0
 10 12  1  0  0  0  0
 12 17  1  0  0  0  0
 12 13  1  0  0  0  0
 12 25  1  0  0  0  0
 13 14  1  0  0  0  0
 13 26  1  0  0  0  0
 13 27  1  0  0  0  0
 14 15  2  0  0  0  0
 14 28  1  0  0  0  0
 15 16  1  0  0  0  0
 15 29  1  0  0  0  0
 16 17  1  0  0  0  0
 16 30  1  0  0  0  0
 16 31  1  0  0  0  0
 17 32  1  0  0  0  0
 17 33  1  0  0  0  0
M  END
> <s_m_source_file>
AV-unprocessed.smi

> <i_m_source_file_index>
470

> <i_lp_mmshare_version>
43012

> <i_f3d_flags>
0

> <s_epik_input>
W05IMl1DKD1PKVtDSDJdYzFbY0hdc2MobjEpW05IXUMoPU8pW0NAQEhdMltDSDJdW0NIXT1bQ0hdW0NIMl1bQ0gyXTI=

> <s_epik_cmdline>
J2VwaWtfcHl0aG9uJywgJy1waCcsICc3LjAnLCAnLXRuJywgJzgnLCAnLW1hJywgJzIwMCcsICctbWV0YWxfYmluZGluZycsICctaW1hZScsICc8aW5maWxlLm1hZT4nLCAnLW9tYWUnLCAnPG91dGZpbGUubWFlPic=

> <r_lp_tautomer_probability>
1

> <r_epik_Ionization_Penalty>
0.00025496

> <r_epik_Ionization_Penalty_Charging>
0

> <r_epik_Ionization_Penalty_Neutral>
0.00025496

> <r_epik_State_Penalty>
-0

> <r_epik_Charging_Adjusted_Penalty>
0

> <i_epik_Tot_Q>
0

> <i_epik_Tot_abs_Q>
0

> <r_epik_Metal_State_Penalty>
0.149391

> <b_epik_Metal_Only>
0

> <s_lp_Force_Field>
OPLS_2005

> <r_lp_Energy>
12.0987

> <b_lp_Chiralities_Consistent>
1

> <s_lp_Variant>
AV-unprocessed.smi:470-2

> <Gold.Version>
5.8.1

> <Gold.Id.Protein>
6NUR|6NUR_protein|mol2

> <Gold.PLP.Fitness>
41.5136

> <Gold.PLP.PLP>
-33.8151

> <Gold.PLP.part.hbond>
-3.0000

> <Gold.PLP.part.metal>
0.0000

> <Gold.PLP.part.buried>
-5.4497

> <Gold.PLP.part.nonpolar>
-29.4712

> <Gold.PLP.part.repulsive>
2.0537

> <Gold.PLP.ligand.clash>
0.0000

> <Gold.PLP.ligand.torsion>
0.6605

> <Gold.PLP.Chemscore.Hbond>
2.0000

> <Gold.PLP.Chemscore.CHOScore>
1.0000

> <Gold.PLP.Chemscore.Metal>
0.0000

> <Gold.Chemscore.Hbonds>
donor molecule, donor type, donor heavy atom, donor atom, acceptor molecule, acceptor atom, score
      L1  H     1    19       P1 10171  0.93
      P1  H  7954  7966       L1     3  0.98
      L1  C     6    23       P1 10175  1.00

> <Gold.PLP.Chemscore.Internal.Correction>
0.0196

> <Gold.Rescore>
     Score         DG    S(hbond)    S(metal)    S(lipo)     H(rot)  DE(clash)    DE(int)     intcor
     15.30     -16.22       1.81        0.00      81.56       1.90       0.17       0.75       ----

> <Gold.Chemscore.Fitness>
15.2987

> <Gold.Chemscore.DG>
-16.2177

> <Gold.Chemscore.ZeroCoef>
-5.4800

> <Gold.Chemscore.Hbond>
1.8117

> <Gold.Chemscore.Metal>
0.0000

> <Gold.Chemscore.Lipo>
81.5592

> <Gold.Chemscore.Internal_Hbond>
0.0000

> <Gold.Chemscore.DEClash>
0.1725

> <Gold.Chemscore.DEInternal>
0.7465

> <Gold.Chemscore.Rot>
1.8968

> <Gold.Chemscore.Internal.Correction>
   9.000000E+99

> <Gold.Chemscore.Hbonds>
donor molecule, donor type, donor heavy atom, donor atom, acceptor molecule, acceptor atom, score
      L1  H     1    19       P1 10171  0.89
      P1  H  7954  7966       L1     3  0.90

> <Gold.Chemscore.Hbond.Weighted>
-6.0511

> <Gold.Chemscore.Metal.Weighted>
-0.0000

> <Gold.Chemscore.Lipo.Weighted>
-9.5424

> <Gold.Chemscore.Internal_Hbond.Weighted>
0.0000

> <Gold.Chemscore.DEClash.Weighted>
0.1725

> <Gold.Chemscore.DEInternal.Weighted>
0.7465

> <Gold.Chemscore.Rot.Weighted>
4.8558

> <Gold.Chemscore.Internal.Correction.Weighted>
   9.000000E+99

> <Gold.Protein.RotatedTorsions>
[ 6907 6896 6895 6894 ] final   48.83 input  -60.11 | X-H torsion
[ 7974 7965 7964 7962 ] final  161.14 input  175.53 | X-H torsion
[ 8008 7997 7996 7995 ] final -168.13 input   59.86 | X-H torsion
[ 10167 10162 10161 10158 ] final -142.92 input  -65.29 | X-H torsion
[ 10718 10713 10712 10709 ] final   -6.79 input   66.30 | X-H torsion
[ 10763 10752 10751 10750 ] final   38.54 input  -60.55 | X-H torsion
[ 11005 11000 10999 10996 ] final   54.63 input  -57.11 | X-H torsion

> <Gold.Protein.ActiveResidues>
 VAL166  LYS551  ARG553  GLY616  TRP617  ASP618  TYR619  PRO620  LYS621  CYS622 
 ASP623  PHE694  ASN695  SER759  ASP760  ASP761  ALA762  ILE779  LEU786  VAL792 
 PHE793  MET794  SER795  GLU796  ALA797  LYS798  CYS799  TRP800  GLU811  SER814 

> <Gold.Protein.RotatedAtoms>
  152.2839  134.7798  160.0391 H   0  0  0  0  0  0  0  0  0  0  0  0  # atno 6907 bound_to 6896
  151.8367  133.3412  159.3638 H   0  0  0  0  0  0  0  0  0  0  0  0  # atno 6908 bound_to 6896
  150.7201  134.5359  159.5767 H   0  0  0  0  0  0  0  0  0  0  0  0  # atno 6909 bound_to 6896
  144.7701  139.7856  143.6300 H   0  0  0  0  0  0  0  0  0  0  0  0  # atno 7974 bound_to 7965
  155.8872  140.1018  157.1444 H   0  0  0  0  0  0  0  0  0  0  0  0  # atno 8008 bound_to 7997
  154.4011  140.1318  156.4333 H   0  0  0  0  0  0  0  0  0  0  0  0  # atno 8009 bound_to 7997
  155.7576  140.3464  155.5184 H   0  0  0  0  0  0  0  0  0  0  0  0  # atno 8010 bound_to 7997
  139.8043  143.7790  152.2660 H   0  0  0  0  0  0  0  0  0  0  0  0  # atno 10167 bound_to 10162
  156.7268  130.5167  149.5855 H   0  0  0  0  0  0  0  0  0  0  0  0  # atno 10718 bound_to 10713
  152.9997  135.6246  154.2322 H   0  0  0  0  0  0  0  0  0  0  0  0  # atno 10763 bound_to 10752
  154.2064  135.2802  155.2975 H   0  0  0  0  0  0  0  0  0  0  0  0  # atno 10764 bound_to 10752
  154.5642  135.5696  153.7094 H   0  0  0  0  0  0  0  0  0  0  0  0  # atno 10765 bound_to 10752
  140.0671  134.5521  155.9087 H   0  0  0  0  0  0  0  0  0  0  0  0  # atno 11005 bound_to 11000
  146.1840  139.5046  142.9848 LP  0  0  0  0  0  0  0  0  0  0  0  0  # atno 17320 bound_to 7965
  145.6351  141.0296  143.1842 LP  0  0  0  0  0  0  0  0  0  0  0  0  # atno 17321 bound_to 7965
  139.7920  144.7407  150.9942 LP  0  0  0  0  0  0  0  0  0  0  0  0  # atno 17342 bound_to 10162
  140.7819  143.4432  151.0520 LP  0  0  0  0  0  0  0  0  0  0  0  0  # atno 17343 bound_to 10162
  156.1557  130.6340  151.0653 LP  0  0  0  0  0  0  0  0  0  0  0  0  # atno 17370 bound_to 10713
  157.6875  131.0820  150.7200 LP  0  0  0  0  0  0  0  0  0  0  0  0  # atno 17371 bound_to 10713
  141.1997  133.6608  156.5859 LP  0  0  0  0  0  0  0  0  0  0  0  0  # atno 17394 bound_to 11000
  140.3682  134.7629  157.4580 LP  0  0  0  0  0  0  0  0  0  0  0  0  # atno 17395 bound_to 11000

$$$$
