AV-unprocessed.smi:1740|AV-procd|sdf|7012|dock8
  -GOLD-   22720 8223D 1   1.00000     0.00000
 Structure written by MMmdl.
 51 53  0  0  0  0  0  0  0  0  3 V2000
  143.4426  134.0960  148.1961 N   0  5  0  0  0  0  0  0  0  0  0  0
  143.4739  132.8346  148.6717 C   0  0  0  0  0  0  0  0  0  0  0  0
  143.5286  131.7870  148.0320 O   0  0  0  0  0  0  0  0  0  0  0  0
  143.4320  132.7878  150.2030 C   0  0  0  0  0  0  0  0  0  0  0  0
  144.4633  133.6845  150.7849 N   0  3  2  0  0  0  0  0  0  0  0  0
  145.3529  132.9818  151.7435 C   0  0  0  0  0  0  0  0  0  0  0  0
  146.5000  133.8953  152.2079 C   0  0  0  0  0  0  0  0  0  0  0  0
  145.9624  135.1970  152.8244 C   0  0  1  0  0  0  0  0  0  0  0  0
  147.0735  136.0789  153.1704 N   0  0  0  0  0  0  0  0  0  0  0  0
  146.9654  137.3883  153.4374 C   0  0  0  0  0  0  0  0  0  0  0  0
  145.8939  137.9942  153.4445 O   0  0  0  0  0  0  0  0  0  0  0  0
  148.1654  137.9300  153.7056 N   0  0  0  0  0  0  0  0  0  0  0  0
  148.4725  139.2838  154.0247 C   0  0  0  0  0  0  0  0  0  0  0  0
  147.6054  140.3478  153.6737 C   0  0  0  0  0  0  0  0  0  0  0  0
  147.9889  141.6713  153.9504 C   0  0  0  0  0  0  0  0  0  0  0  0
  149.2378  141.8887  154.5553 C   0  0  0  0  0  0  0  0  0  0  0  0
  150.0805  140.8894  154.8830 N   0  0  0  0  0  0  0  0  0  0  0  0
  149.7180  139.6065  154.6359 C   0  0  0  0  0  0  0  0  0  0  0  0
  150.6317  138.5982  155.0180 N   0  0  0  0  0  0  0  0  0  0  0  0
  150.6612  138.2115  156.4257 C   0  0  0  0  0  0  0  0  0  0  0  0
  152.1297  137.9422  156.7701 C   0  0  0  0  0  0  0  0  0  0  0  0
  152.7721  137.6637  155.4150 C   0  0  0  0  0  0  0  0  0  0  0  0
  151.9924  138.5939  154.4903 C   0  0  0  0  0  0  0  0  0  0  0  0
  145.0108  135.8840  151.8275 C   0  0  0  0  0  0  0  0  0  0  0  0
  143.8967  134.9281  151.3718 C   0  0  0  0  0  0  0  0  0  0  0  0
  144.3291  134.6037  148.0901 H   0  0  0  0  0  0  0  0  0  0  0  0
  142.4406  133.0575  150.5707 H   0  0  0  0  0  0  0  0  0  0  0  0
  143.6070  131.7551  150.5097 H   0  0  0  0  0  0  0  0  0  0  0  0
  144.7694  132.6404  152.6000 H   0  0  0  0  0  0  0  0  0  0  0  0
  145.7735  132.0936  151.2704 H   0  0  0  0  0  0  0  0  0  0  0  0
  147.1210  133.3666  152.9319 H   0  0  0  0  0  0  0  0  0  0  0  0
  147.1440  134.1251  151.3575 H   0  0  0  0  0  0  0  0  0  0  0  0
  145.4090  134.9439  153.7311 H   0  0  0  0  0  0  0  0  0  0  0  0
  147.9939  135.6646  153.1944 H   0  0  0  0  0  0  0  0  0  0  0  0
  148.9427  137.2881  153.7616 H   0  0  0  0  0  0  0  0  0  0  0  0
  146.6639  140.1746  153.1756 H   0  0  0  0  0  0  0  0  0  0  0  0
  147.3461  142.5001  153.6930 H   0  0  0  0  0  0  0  0  0  0  0  0
  149.5727  142.8912  154.7767 H   0  0  0  0  0  0  0  0  0  0  0  0
  150.2343  138.9786  157.0736 H   0  0  0  0  0  0  0  0  0  0  0  0
  150.0767  137.2997  156.5513 H   0  0  0  0  0  0  0  0  0  0  0  0
  152.5744  138.8375  157.2068 H   0  0  0  0  0  0  0  0  0  0  0  0
  152.2560  137.1237  157.4793 H   0  0  0  0  0  0  0  0  0  0  0  0
  153.8458  137.8522  155.4021 H   0  0  0  0  0  0  0  0  0  0  0  0
  152.6042  136.6244  155.1287 H   0  0  0  0  0  0  0  0  0  0  0  0
  152.0158  138.2499  153.4560 H   0  0  0  0  0  0  0  0  0  0  0  0
  152.4305  139.5919  154.5300 H   0  0  0  0  0  0  0  0  0  0  0  0
  144.5669  136.7719  152.2791 H   0  0  0  0  0  0  0  0  0  0  0  0
  145.5703  136.2280  150.9561 H   0  0  0  0  0  0  0  0  0  0  0  0
  143.2682  135.4376  150.6409 H   0  0  0  0  0  0  0  0  0  0  0  0
  143.2544  134.6728  152.2159 H   0  0  0  0  0  0  0  0  0  0  0  0
  145.0433  133.9608  150.0046 H   0  0  0  0  0  0  0  0  0  0  0  0
  1  2  1  0  0  0  0
  1 26  1  0  0  0  0
  2  3  2  0  0  0  0
  2  4  1  0  0  0  0
  4  5  1  0  0  0  0
  4 27  1  0  0  0  0
  4 28  1  0  0  0  0
  5 25  1  0  0  0  0
  5  6  1  0  0  0  0
  5 51  1  0  0  0  0
  6  7  1  0  0  0  0
  6 29  1  0  0  0  0
  6 30  1  0  0  0  0
  7  8  1  0  0  0  0
  7 31  1  0  0  0  0
  7 32  1  0  0  0  0
  8  9  1  0  0  0  0
  8 24  1  0  0  0  0
  8 33  1  0  0  0  0
  9 10  1  0  0  0  0
  9 34  1  0  0  0  0
 10 11  2  0  0  0  0
 10 12  1  0  0  0  0
 12 13  1  0  0  0  0
 12 35  1  0  0  0  0
 13 18  1  0  0  0  0
 13 14  2  0  0  0  0
 14 15  1  0  0  0  0
 14 36  1  0  0  0  0
 15 16  2  0  0  0  0
 15 37  1  0  0  0  0
 16 17  1  0  0  0  0
 16 38  1  0  0  0  0
 17 18  2  0  0  0  0
 18 19  1  0  0  0  0
 19 23  1  0  0  0  0
 19 20  1  0  0  0  0
 20 21  1  0  0  0  0
 20 39  1  0  0  0  0
 20 40  1  0  0  0  0
 21 22  1  0  0  0  0
 21 41  1  0  0  0  0
 21 42  1  0  0  0  0
 22 23  1  0  0  0  0
 22 43  1  0  0  0  0
 22 44  1  0  0  0  0
 23 45  1  0  0  0  0
 23 46  1  0  0  0  0
 24 25  1  0  0  0  0
 24 47  1  0  0  0  0
 24 48  1  0  0  0  0
 25 49  1  0  0  0  0
 25 50  1  0  0  0  0
M  CHG  1   1  -1
M  CHG  1   5   1
M  END
> <s_m_source_file>
AV-unprocessed.smi

> <i_m_source_file_index>
1740

> <i_lp_mmshare_version>
43012

> <i_f3d_flags>
0

> <s_epik_input>
W05IMl1DKD1PKVtDSDJdTjFbQ0gyXVtDSDJdW0NIXShbQ0gyXVtDSDJdMSlbTkhdQyg9TylbTkhdYzJbY0hdW2NIXVtjSF1uYzJOM1tDSDJdW0NIMl1bQ0gyXVtDSDJdMw==

> <s_epik_cmdline>
J2VwaWtfcHl0aG9uJywgJy1waCcsICc3LjAnLCAnLXRuJywgJzgnLCAnLW1hJywgJzIwMCcsICctbWV0YWxfYmluZGluZycsICctaW1hZScsICc8aW5maWxlLm1hZT4nLCAnLW9tYWUnLCAnPG91dGZpbGUubWFlPic=

> <r_lp_tautomer_probability>
1

> <r_epik_Ionization_Penalty>
5.80652

> <r_epik_Ionization_Penalty_Charging>
5.7288

> <r_epik_Ionization_Penalty_Neutral>
0.0777157

> <r_epik_State_Penalty>
6.60246

> <r_epik_Charging_Adjusted_Penalty>
12.3313

> <i_epik_Tot_Q>
0

> <i_epik_Tot_abs_Q>
2

> <r_epik_Metal_State_Penalty>
2.64988

> <b_epik_Metal_Only>
1

> <s_lp_Force_Field>
OPLS_2005

> <r_lp_Energy>
35.8158

> <b_lp_Chiralities_Consistent>
1

> <s_lp_Variant>
AV-unprocessed.smi:1740-7

> <Gold.Version>
5.8.1

> <Gold.Id.Protein>
6NUR|6NUR_protein|mol2

> <Gold.PLP.Fitness>
44.2007

> <Gold.PLP.PLP>
-34.0941

> <Gold.PLP.part.hbond>
-6.3029

> <Gold.PLP.part.metal>
0.0000

> <Gold.PLP.part.buried>
4.1585

> <Gold.PLP.part.nonpolar>
-32.8390

> <Gold.PLP.part.repulsive>
0.7230

> <Gold.PLP.ligand.clash>
0.0000

> <Gold.PLP.ligand.torsion>
1.3596

> <Gold.PLP.Chemscore.Hbond>
3.1661

> <Gold.PLP.Chemscore.CHOScore>
1.0000

> <Gold.PLP.Chemscore.Metal>
0.0000

> <Gold.Chemscore.Hbonds>
donor molecule, donor type, donor heavy atom, donor atom, acceptor molecule, acceptor atom, score
      L1  H     1    26       P1  7921  1.00
      L1  H     9    34       P1  7948  0.22
      L1  H    12    35       P1  7948  0.09
      P1  H  7989  7998       L1    17  0.50
      P1  H 10192 10197       L1     1  0.91
      P1  H 10785 10796       L1     3  0.43
      L1  C    16    38       P1  8028  1.00

> <Gold.PLP.Chemscore.Internal.Correction>
0.3274

> <Gold.Rescore>
     Score         DG    S(hbond)    S(metal)    S(lipo)     H(rot)  DE(clash)    DE(int)     intcor
     10.76     -18.69       2.55        0.00      87.20       2.16       3.86       4.08       ----

> <Gold.Chemscore.Fitness>
10.7566

> <Gold.Chemscore.DG>
-18.6933

> <Gold.Chemscore.ZeroCoef>
-5.4800

> <Gold.Chemscore.Hbond>
2.5540

> <Gold.Chemscore.Metal>
0.0000

> <Gold.Chemscore.Lipo>
87.2039

> <Gold.Chemscore.Internal_Hbond>
0.0000

> <Gold.Chemscore.DEClash>
3.8588

> <Gold.Chemscore.DEInternal>
4.0780

> <Gold.Chemscore.Rot>
2.1562

> <Gold.Chemscore.Internal.Correction>
   9.000000E+99

> <Gold.Chemscore.Hbonds>
donor molecule, donor type, donor heavy atom, donor atom, acceptor molecule, acceptor atom, score
      L1  H     1    26       P1  7921  0.98
      L1  H     9    34       P1  7948  0.22
      L1  H    12    35       P1  7948  0.09
      P1  H  7989  7998       L1    17  0.04
      P1  H 10192 10197       L1     1  0.53
      P1  H 10785 10796       L1     3  0.44

> <Gold.Chemscore.Hbond.Weighted>
-8.5303

> <Gold.Chemscore.Metal.Weighted>
-0.0000

> <Gold.Chemscore.Lipo.Weighted>
-10.2029

> <Gold.Chemscore.Internal_Hbond.Weighted>
0.0000

> <Gold.Chemscore.DEClash.Weighted>
3.8588

> <Gold.Chemscore.DEInternal.Weighted>
4.0780

> <Gold.Chemscore.Rot.Weighted>
5.5198

> <Gold.Chemscore.Internal.Correction.Weighted>
   9.000000E+99

> <Gold.Protein.RotatedTorsions>
[ 6907 6896 6895 6894 ] final -107.16 input  -60.11 | X-H torsion
[ 7974 7965 7964 7962 ] final  102.01 input  175.53 | X-H torsion
[ 8008 7997 7996 7995 ] final  -66.72 input   59.86 | X-H torsion
[ 10167 10162 10161 10158 ] final  121.53 input  -65.29 | X-H torsion
[ 10718 10713 10712 10709 ] final   56.43 input   66.30 | X-H torsion
[ 10763 10752 10751 10750 ] final  147.52 input  -60.55 | X-H torsion
[ 11005 11000 10999 10996 ] final  151.46 input  -57.11 | X-H torsion

> <Gold.Protein.ActiveResidues>
 VAL166  LYS551  ARG553  GLY616  TRP617  ASP618  TYR619  PRO620  LYS621  CYS622 
 ASP623  PHE694  ASN695  SER759  ASP760  ASP761  ALA762  ILE779  LEU786  VAL792 
 PHE793  MET794  SER795  GLU796  ALA797  LYS798  CYS799  TRP800  GLU811  SER814 

> <Gold.Protein.RotatedAtoms>
  150.7428  133.9869  159.3593 H   0  0  0  0  0  0  0  0  0  0  0  0  # atno 6907 bound_to 6896
  151.7814  135.0758  160.0383 H   0  0  0  0  0  0  0  0  0  0  0  0  # atno 6908 bound_to 6896
  152.3271  133.5881  159.5820 H   0  0  0  0  0  0  0  0  0  0  0  0  # atno 6909 bound_to 6896
  145.3648  139.2410  143.3487 H   0  0  0  0  0  0  0  0  0  0  0  0  # atno 7974 bound_to 7965
  154.4753  140.0907  156.7246 H   0  0  0  0  0  0  0  0  0  0  0  0  # atno 8008 bound_to 7997
  155.4614  140.3461  155.4295 H   0  0  0  0  0  0  0  0  0  0  0  0  # atno 8009 bound_to 7997
  156.1105  140.1446  156.9333 H   0  0  0  0  0  0  0  0  0  0  0  0  # atno 8010 bound_to 7997
  139.5914  144.7026  151.3281 H   0  0  0  0  0  0  0  0  0  0  0  0  # atno 10167 bound_to 10162
  157.5430  130.8711  149.8850 H   0  0  0  0  0  0  0  0  0  0  0  0  # atno 10718 bound_to 10713
  154.0397  135.2890  155.3357 H   0  0  0  0  0  0  0  0  0  0  0  0  # atno 10763 bound_to 10752
  154.6937  135.5216  153.8431 H   0  0  0  0  0  0  0  0  0  0  0  0  # atno 10764 bound_to 10752
  153.0605  135.6612  154.0602 H   0  0  0  0  0  0  0  0  0  0  0  0  # atno 10765 bound_to 10752
  140.1221  134.8857  157.2087 H   0  0  0  0  0  0  0  0  0  0  0  0  # atno 11005 bound_to 11000
  146.2911  140.4288  142.8739 LP  0  0  0  0  0  0  0  0  0  0  0  0  # atno 17320 bound_to 7965
  144.8620  140.7152  143.6101 LP  0  0  0  0  0  0  0  0  0  0  0  0  # atno 17321 bound_to 7965
  140.7176  143.7224  150.7686 LP  0  0  0  0  0  0  0  0  0  0  0  0  # atno 17342 bound_to 10162
  140.0780  143.4996  152.2545 LP  0  0  0  0  0  0  0  0  0  0  0  0  # atno 17343 bound_to 10162
  156.0512  130.3717  150.1197 LP  0  0  0  0  0  0  0  0  0  0  0  0  # atno 17370 bound_to 10713
  156.9375  130.9734  151.3522 LP  0  0  0  0  0  0  0  0  0  0  0  0  # atno 17371 bound_to 10713
  140.2951  134.3195  155.7304 LP  0  0  0  0  0  0  0  0  0  0  0  0  # atno 17394 bound_to 11000
  141.2154  133.7558  156.9560 LP  0  0  0  0  0  0  0  0  0  0  0  0  # atno 17395 bound_to 11000

$$$$
