AV-unprocessed.smi:2915|AV-procd|sdf|11187|dock10
  -GOLD-   2272016 83D 1   1.00000     0.00000
 Structure written by MMmdl.
 41 42  0  0  0  0  0  0  0  0  1 V2000
  153.5079  142.1946  160.3651 C   0  0  0  0  0  0  0  0  0  0  0  0
  152.4348  142.6931  159.4594 C   0  0  0  0  0  0  0  0  0  0  0  0
  151.1741  142.2535  159.4943 N   0  0  0  0  0  0  0  0  0  0  0  0
  150.3578  142.8830  158.5486 C   0  0  0  0  0  0  0  0  0  0  0  0
  148.9032  142.5168  158.4482 C   0  0  0  0  0  0  0  0  0  0  0  0
  148.6178  141.5811  157.2660 C   0  0  0  0  0  0  0  0  0  0  0  0
  148.3527  140.3904  157.4402 O   0  0  0  0  0  0  0  0  0  0  0  0
  148.6823  142.1498  156.0523 N   0  0  0  0  0  0  0  0  0  0  0  0
  148.4800  141.4726  154.7706 C   0  0  0  0  0  0  0  0  0  0  0  0
  146.9879  141.3868  154.3410 C   0  0  0  0  0  0  0  0  0  0  0  0
  146.9256  140.5087  153.0584 C   0  0  0  0  0  0  0  0  0  0  0  0
  147.1812  138.9964  153.2336 C   0  0  0  0  0  0  0  0  0  0  0  0
  147.1303  138.3617  151.9743 O   0  0  0  0  0  0  0  0  0  0  0  0
  146.1160  140.7927  155.4819 C   0  0  0  0  0  0  0  0  0  0  0  0
  144.8879  141.6960  155.6004 C   0  0  0  0  0  0  0  0  0  0  0  0
  145.4081  143.0762  155.2160 C   0  0  0  0  0  0  0  0  0  0  0  0
  146.4010  142.8028  154.0848 C   0  0  0  0  0  0  0  0  0  0  0  0
  151.0299  143.8033  157.7822 C   0  0  0  0  0  0  0  0  0  0  0  0
  152.7083  143.9233  158.2320 S   0  0  0  0  0  0  0  0  0  0  0  0
  153.0919  141.5371  161.1292 H   0  0  0  0  0  0  0  0  0  0  0  0
  153.9995  143.0339  160.8569 H   0  0  0  0  0  0  0  0  0  0  0  0
  154.2504  141.6398  159.7915 H   0  0  0  0  0  0  0  0  0  0  0  0
  148.5724  142.0283  159.3654 H   0  0  0  0  0  0  0  0  0  0  0  0
  148.2926  143.4145  158.3399 H   0  0  0  0  0  0  0  0  0  0  0  0
  148.9060  143.1334  156.0091 H   0  0  0  0  0  0  0  0  0  0  0  0
  149.0650  141.9534  153.9848 H   0  0  0  0  0  0  0  0  0  0  0  0
  148.8917  140.4677  154.8701 H   0  0  0  0  0  0  0  0  0  0  0  0
  145.9496  140.6450  152.5896 H   0  0  0  0  0  0  0  0  0  0  0  0
  147.6518  140.8887  152.3380 H   0  0  0  0  0  0  0  0  0  0  0  0
  148.1611  138.8041  153.6686 H   0  0  0  0  0  0  0  0  0  0  0  0
  146.4428  138.5273  153.8818 H   0  0  0  0  0  0  0  0  0  0  0  0
  147.7506  137.6486  151.9710 H   0  0  0  0  0  0  0  0  0  0  0  0
  145.8445  139.7495  155.3204 H   0  0  0  0  0  0  0  0  0  0  0  0
  146.6441  140.8112  156.4350 H   0  0  0  0  0  0  0  0  0  0  0  0
  144.1214  141.3799  154.8919 H   0  0  0  0  0  0  0  0  0  0  0  0
  144.4480  141.6769  156.5979 H   0  0  0  0  0  0  0  0  0  0  0  0
  144.6113  143.7583  154.9186 H   0  0  0  0  0  0  0  0  0  0  0  0
  145.9293  143.5222  156.0644 H   0  0  0  0  0  0  0  0  0  0  0  0
  147.1630  143.5801  154.0263 H   0  0  0  0  0  0  0  0  0  0  0  0
  145.8708  142.8473  153.1349 H   0  0  0  0  0  0  0  0  0  0  0  0
  150.6381  144.4207  156.9875 H   0  0  0  0  0  0  0  0  0  0  0  0
  1  2  1  0  0  0  0
  1 20  1  0  0  0  0
  1 21  1  0  0  0  0
  1 22  1  0  0  0  0
  2 19  1  0  0  0  0
  2  3  2  0  0  0  0
  3  4  1  0  0  0  0
  4  5  1  0  0  0  0
  4 18  2  0  0  0  0
  5  6  1  0  0  0  0
  5 23  1  0  0  0  0
  5 24  1  0  0  0  0
  6  7  2  0  0  0  0
  6  8  1  0  0  0  0
  8  9  1  0  0  0  0
  8 25  1  0  0  0  0
  9 10  1  0  0  0  0
  9 26  1  0  0  0  0
  9 27  1  0  0  0  0
 10 17  1  0  0  0  0
 10 11  1  0  0  0  0
 10 14  1  0  0  0  0
 11 12  1  0  0  0  0
 11 28  1  0  0  0  0
 11 29  1  0  0  0  0
 12 13  1  0  0  0  0
 12 30  1  0  0  0  0
 12 31  1  0  0  0  0
 13 32  1  0  0  0  0
 14 15  1  0  0  0  0
 14 33  1  0  0  0  0
 14 34  1  0  0  0  0
 15 16  1  0  0  0  0
 15 35  1  0  0  0  0
 15 36  1  0  0  0  0
 16 17  1  0  0  0  0
 16 37  1  0  0  0  0
 16 38  1  0  0  0  0
 17 39  1  0  0  0  0
 17 40  1  0  0  0  0
 18 19  1  0  0  0  0
 18 41  1  0  0  0  0
M  END
> <s_m_source_file>
AV-unprocessed.smi

> <i_m_source_file_index>
2915

> <i_lp_mmshare_version>
43012

> <i_f3d_flags>
0

> <s_epik_input>
W0NIM11jMW5jKFtjSF1zMSlbQ0gyXUMoPU8pW05IXVtDSDJdQzIoW0NIMl1bQ0gyXVtPSF0pW0NIMl1bQ0gyXVtDSDJdW0NIMl0y

> <s_epik_cmdline>
J2VwaWtfcHl0aG9uJywgJy1waCcsICc3LjAnLCAnLXRuJywgJzgnLCAnLW1hJywgJzIwMCcsICctbWV0YWxfYmluZGluZycsICctaW1hZScsICc8aW5maWxlLm1hZT4nLCAnLW9tYWUnLCAnPG91dGZpbGUubWFlPic=

> <r_lp_tautomer_probability>
1

> <r_epik_Ionization_Penalty>
5.95244e-05

> <r_epik_Ionization_Penalty_Charging>
0

> <r_epik_Ionization_Penalty_Neutral>
5.95244e-05

> <r_epik_State_Penalty>
-0

> <r_epik_Charging_Adjusted_Penalty>
0

> <i_epik_Tot_Q>
0

> <i_epik_Tot_abs_Q>
0

> <r_epik_Metal_State_Penalty>
-0

> <b_epik_Metal_Only>
0

> <s_lp_Force_Field>
OPLS_2005

> <r_lp_Energy>
27.9647

> <b_lp_Chiralities_Consistent>
1

> <s_lp_Variant>
AV-unprocessed.smi:2915-1

> <Gold.Version>
5.8.1

> <Gold.Id.Protein>
6NUR|6NUR_protein|mol2

> <Gold.PLP.Fitness>
48.2622

> <Gold.PLP.PLP>
-40.6424

> <Gold.PLP.part.hbond>
-4.5561

> <Gold.PLP.part.metal>
0.0000

> <Gold.PLP.part.buried>
-2.8158

> <Gold.PLP.part.nonpolar>
-33.4890

> <Gold.PLP.part.repulsive>
0.1023

> <Gold.PLP.ligand.clash>
0.0000

> <Gold.PLP.ligand.torsion>
0.6921

> <Gold.PLP.Chemscore.Hbond>
1.9913

> <Gold.PLP.Chemscore.CHOScore>
1.0000

> <Gold.PLP.Chemscore.Metal>
0.0000

> <Gold.Chemscore.Hbonds>
donor molecule, donor type, donor heavy atom, donor atom, acceptor molecule, acceptor atom, score
      L1  H     8    25       P1  8028  1.00
      L1  H    13    32       P1  7948  1.00
      L1  C    18    41       P1  8028  1.00

> <Gold.PLP.Chemscore.Internal.Correction>
0.0303

> <Gold.Rescore>
     Score         DG    S(hbond)    S(metal)    S(lipo)     H(rot)  DE(clash)    DE(int)     intcor
     16.96     -17.75       1.96        0.00     102.52       2.45       0.03       0.76       ----

> <Gold.Chemscore.Fitness>
16.9593

> <Gold.Chemscore.DG>
-17.7472

> <Gold.Chemscore.ZeroCoef>
-5.4800

> <Gold.Chemscore.Hbond>
1.9572

> <Gold.Chemscore.Metal>
0.0000

> <Gold.Chemscore.Lipo>
102.5151

> <Gold.Chemscore.Internal_Hbond>
0.0000

> <Gold.Chemscore.DEClash>
0.0281

> <Gold.Chemscore.DEInternal>
0.7598

> <Gold.Chemscore.Rot>
2.4469

> <Gold.Chemscore.Internal.Correction>
   9.000000E+99

> <Gold.Chemscore.Hbonds>
donor molecule, donor type, donor heavy atom, donor atom, acceptor molecule, acceptor atom, score
      L1  H     8    25       P1  8028  0.99
      L1  H    13    32       P1  7948  1.00

> <Gold.Chemscore.Hbond.Weighted>
-6.5370

> <Gold.Chemscore.Metal.Weighted>
-0.0000

> <Gold.Chemscore.Lipo.Weighted>
-11.9943

> <Gold.Chemscore.Internal_Hbond.Weighted>
0.0000

> <Gold.Chemscore.DEClash.Weighted>
0.0281

> <Gold.Chemscore.DEInternal.Weighted>
0.7598

> <Gold.Chemscore.Rot.Weighted>
6.2640

> <Gold.Chemscore.Internal.Correction.Weighted>
   9.000000E+99

> <Gold.Protein.RotatedTorsions>
[ 6907 6896 6895 6894 ] final   64.16 input  -60.11 | X-H torsion
[ 7974 7965 7964 7962 ] final  -41.80 input  175.53 | X-H torsion
[ 8008 7997 7996 7995 ] final  160.55 input   59.86 | X-H torsion
[ 10167 10162 10161 10158 ] final  -41.06 input  -65.29 | X-H torsion
[ 10718 10713 10712 10709 ] final    0.03 input   66.30 | X-H torsion
[ 10763 10752 10751 10750 ] final  146.40 input  -60.55 | X-H torsion
[ 11005 11000 10999 10996 ] final  149.44 input  -57.11 | X-H torsion

> <Gold.Protein.ActiveResidues>
 VAL166  LYS551  ARG553  GLY616  TRP617  ASP618  TYR619  PRO620  LYS621  CYS622 
 ASP623  PHE694  ASN695  SER759  ASP760  ASP761  ALA762  ILE779  LEU786  VAL792 
 PHE793  MET794  SER795  GLU796  ALA797  LYS798  CYS799  TRP800  GLU811  SER814 

> <Gold.Protein.RotatedAtoms>
  152.4310  134.5778  159.9939 H   0  0  0  0  0  0  0  0  0  0  0  0  # atno 6907 bound_to 6896
  151.5901  133.3362  159.3034 H   0  0  0  0  0  0  0  0  0  0  0  0  # atno 6908 bound_to 6896
  150.8203  134.7443  159.6831 H   0  0  0  0  0  0  0  0  0  0  0  0  # atno 6909 bound_to 6896
  146.0177  140.6888  142.9193 H   0  0  0  0  0  0  0  0  0  0  0  0  # atno 7974 bound_to 7965
  156.2164  140.1801  156.7578 H   0  0  0  0  0  0  0  0  0  0  0  0  # atno 8008 bound_to 7997
  154.5798  140.0668  156.9117 H   0  0  0  0  0  0  0  0  0  0  0  0  # atno 8009 bound_to 7997
  155.2522  140.3330  155.4283 H   0  0  0  0  0  0  0  0  0  0  0  0  # atno 8010 bound_to 7997
  140.7014  143.3116  151.3013 H   0  0  0  0  0  0  0  0  0  0  0  0  # atno 10167 bound_to 10162
  156.8274  130.5477  149.5690 H   0  0  0  0  0  0  0  0  0  0  0  0  # atno 10718 bound_to 10713
  154.0213  135.2905  155.3380 H   0  0  0  0  0  0  0  0  0  0  0  0  # atno 10763 bound_to 10752
  154.7044  135.5175  153.8577 H   0  0  0  0  0  0  0  0  0  0  0  0  # atno 10764 bound_to 10752
  153.0680  135.6637  154.0435 H   0  0  0  0  0  0  0  0  0  0  0  0  # atno 10765 bound_to 10752
  140.1045  134.8963  157.1845 H   0  0  0  0  0  0  0  0  0  0  0  0  # atno 11005 bound_to 11000
  144.6977  140.3510  143.7181 LP  0  0  0  0  0  0  0  0  0  0  0  0  # atno 17320 bound_to 7965
  145.7243  139.1718  143.2467 LP  0  0  0  0  0  0  0  0  0  0  0  0  # atno 17321 bound_to 7965
  139.6541  144.0308  152.2647 LP  0  0  0  0  0  0  0  0  0  0  0  0  # atno 17342 bound_to 10162
  139.9854  144.6399  150.7862 LP  0  0  0  0  0  0  0  0  0  0  0  0  # atno 17343 bound_to 10162
  156.0954  130.5928  150.9804 LP  0  0  0  0  0  0  0  0  0  0  0  0  # atno 17370 bound_to 10713
  157.6425  131.0908  150.8222 LP  0  0  0  0  0  0  0  0  0  0  0  0  # atno 17371 bound_to 10713
  140.3175  134.2954  155.7253 LP  0  0  0  0  0  0  0  0  0  0  0  0  # atno 17394 bound_to 11000
  141.2114  133.7689  156.9864 LP  0  0  0  0  0  0  0  0  0  0  0  0  # atno 17395 bound_to 11000

$$$$
