AV-unprocessed.smi:3228|AV-procd|sdf|12325|dock9
  -GOLD-   2272018173D 1   1.00000     0.00000
 Structure written by MMmdl.
 30 31  0  0  0  0  0  0  0  0  2 V2000
  148.3713  137.7329  158.3746 O   0  0  0  0  0  0  0  0  0  0  0  0
  149.2115  136.9496  158.8239 C   0  0  0  0  0  0  0  0  0  0  0  0
  150.5161  137.2464  158.7372 N   0  0  0  0  0  0  0  0  0  0  0  0
  151.0820  138.4439  158.1236 C   0  0  0  0  0  0  0  0  0  0  0  0
  150.9145  138.4392  156.5888 C   0  0  2  0  0  0  0  0  0  0  0  0
  150.7648  137.0520  155.9530 C   0  0  0  0  0  0  0  0  0  0  0  0
  151.1269  137.2393  154.4724 C   0  0  0  0  0  0  0  0  0  0  0  0
  151.8145  138.6103  154.3589 C   0  0  0  0  0  0  0  0  0  0  0  0
  152.0576  139.0884  155.7956 C   0  0  2  0  0  0  0  0  0  0  0  0
  153.3224  138.6207  156.2279 O   0  0  0  0  0  0  0  0  0  0  0  0
  148.9616  135.7615  159.4199 N   0  5  0  0  0  0  0  0  0  0  0  0
  148.3350  135.7246  160.6072 C   0  0  0  0  0  0  0  0  0  0  0  0
  148.2476  136.7838  161.4201 N   0  0  0  0  0  0  0  0  0  0  0  0
  147.5575  136.5191  162.6045 C   0  0  0  0  0  0  0  0  0  0  0  0
  147.1177  135.2254  162.7001 C   0  0  0  0  0  0  0  0  0  0  0  0
  147.5591  134.2956  161.2965 S   0  0  0  0  0  0  0  0  0  0  0  0
  151.1687  136.5771  159.1182 H   0  0  0  0  0  0  0  0  0  0  0  0
  150.6214  139.3348  158.5529 H   0  0  0  0  0  0  0  0  0  0  0  0
  152.1375  138.4826  158.3927 H   0  0  0  0  0  0  0  0  0  0  0  0
  150.0110  139.0020  156.3477 H   0  0  0  0  0  0  0  0  0  0  0  0
  151.4667  136.3551  156.4135 H   0  0  0  0  0  0  0  0  0  0  0  0
  149.7628  136.6429  156.0863 H   0  0  0  0  0  0  0  0  0  0  0  0
  151.7845  136.4374  154.1353 H   0  0  0  0  0  0  0  0  0  0  0  0
  150.2337  137.2120  153.8472 H   0  0  0  0  0  0  0  0  0  0  0  0
  152.7271  138.5736  153.7623 H   0  0  0  0  0  0  0  0  0  0  0  0
  151.1365  139.3053  153.8617 H   0  0  0  0  0  0  0  0  0  0  0  0
  152.0397  140.1762  155.8712 H   0  0  0  0  0  0  0  0  0  0  0  0
  153.1962  138.0879  156.9982 H   0  0  0  0  0  0  0  0  0  0  0  0
  147.4277  137.3119  163.3261 H   0  0  0  0  0  0  0  0  0  0  0  0
  146.5660  134.7643  163.5053 H   0  0  0  0  0  0  0  0  0  0  0  0
  1  2  2  0  0  0  0
  2  3  1  0  0  0  0
  2 11  1  0  0  0  0
  3  4  1  0  0  0  0
  3 17  1  0  0  0  0
  4  5  1  0  0  0  0
  4 18  1  0  0  0  0
  4 19  1  0  0  0  0
  5  9  1  0  0  0  0
  5  6  1  0  0  0  0
  5 20  1  0  0  0  0
  6  7  1  0  0  0  0
  6 21  1  0  0  0  0
  6 22  1  0  0  0  0
  7  8  1  0  0  0  0
  7 23  1  0  0  0  0
  7 24  1  0  0  0  0
  8  9  1  0  0  0  0
  8 25  1  0  0  0  0
  8 26  1  0  0  0  0
  9 10  1  0  0  0  0
  9 27  1  0  0  0  0
 10 28  1  0  0  0  0
 11 12  1  0  0  0  0
 12 16  1  0  0  0  0
 12 13  2  0  0  0  0
 13 14  1  0  0  0  0
 14 15  2  0  0  0  0
 14 29  1  0  0  0  0
 15 16  1  0  0  0  0
 15 30  1  0  0  0  0
M  CHG  1  11  -1
M  END
> <s_m_source_file>
AV-unprocessed.smi

> <i_m_source_file_index>
3228

> <i_lp_mmshare_version>
43012

> <i_f3d_flags>
0

> <s_epik_input>
czFbY0hdW2NIXW5jMVtOSF1DKD1PKVtOSF1bQ0gyXVtDQEBIXTJbQ0gyXVtDSDJdW0NIMl1bQ0BIXTJbT0hd

> <s_epik_cmdline>
J2VwaWtfcHl0aG9uJywgJy1waCcsICc3LjAnLCAnLXRuJywgJzgnLCAnLW1hJywgJzIwMCcsICctbWV0YWxfYmluZGluZycsICctaW1hZScsICc8aW5maWxlLm1hZT4nLCAnLW9tYWUnLCAnPG91dGZpbGUubWFlPic=

> <r_lp_tautomer_probability>
0.999

> <r_epik_Ionization_Penalty>
8.49756

> <r_epik_Ionization_Penalty_Charging>
6.79645

> <r_epik_Ionization_Penalty_Neutral>
1.70111

> <r_epik_State_Penalty>
6.79662

> <r_epik_Charging_Adjusted_Penalty>
13.5931

> <i_epik_Tot_Q>
-1

> <i_epik_Tot_abs_Q>
1

> <r_epik_Metal_State_Penalty>
2.71629

> <b_epik_Metal_Only>
1

> <s_lp_Force_Field>
OPLS_2005

> <r_lp_Energy>
19.9343

> <b_lp_Chiralities_Consistent>
1

> <s_lp_Variant>
AV-unprocessed.smi:3228-7

> <Gold.Version>
5.8.1

> <Gold.Id.Protein>
6NUR|6NUR_protein|mol2

> <Gold.PLP.Fitness>
39.2211

> <Gold.PLP.PLP>
-29.6524

> <Gold.PLP.part.hbond>
-3.2329

> <Gold.PLP.part.metal>
0.0000

> <Gold.PLP.part.buried>
-4.6578

> <Gold.PLP.part.nonpolar>
-21.7222

> <Gold.PLP.part.repulsive>
0.1607

> <Gold.PLP.ligand.clash>
0.0000

> <Gold.PLP.ligand.torsion>
1.2196

> <Gold.PLP.Chemscore.Hbond>
4.0000

> <Gold.PLP.Chemscore.CHOScore>
0.0000

> <Gold.PLP.Chemscore.Metal>
0.0000

> <Gold.Chemscore.Hbonds>
donor molecule, donor type, donor heavy atom, donor atom, acceptor molecule, acceptor atom, score
      P1  H  6896  6907       L1    11  1.82
      P1  H  6931  6943       L1    13  0.90
      P1  H  7997  8008       L1    10  0.96

> <Gold.PLP.Chemscore.Internal.Correction>
0.0080

> <Gold.Rescore>
     Score         DG    S(hbond)    S(metal)    S(lipo)     H(rot)  DE(clash)    DE(int)     intcor
     15.24     -16.46       2.58        0.00      60.71       1.85       0.03       1.19       ----

> <Gold.Chemscore.Fitness>
15.2449

> <Gold.Chemscore.DG>
-16.4620

> <Gold.Chemscore.ZeroCoef>
-5.4800

> <Gold.Chemscore.Hbond>
2.5779

> <Gold.Chemscore.Metal>
0.0000

> <Gold.Chemscore.Lipo>
60.7090

> <Gold.Chemscore.Internal_Hbond>
0.0000

> <Gold.Chemscore.DEClash>
0.0276

> <Gold.Chemscore.DEInternal>
1.1895

> <Gold.Chemscore.Rot>
1.8481

> <Gold.Chemscore.Internal.Correction>
   9.000000E+99

> <Gold.Chemscore.Hbonds>
donor molecule, donor type, donor heavy atom, donor atom, acceptor molecule, acceptor atom, score
      P1  H  6896  6907       L1    11  0.35
      P1  H  6931  6943       L1    13  0.18
      P1  H  7997  8008       L1    10  0.52

> <Gold.Chemscore.Hbond.Weighted>
-8.6103

> <Gold.Chemscore.Metal.Weighted>
-0.0000

> <Gold.Chemscore.Lipo.Weighted>
-7.1030

> <Gold.Chemscore.Internal_Hbond.Weighted>
0.0000

> <Gold.Chemscore.DEClash.Weighted>
0.0276

> <Gold.Chemscore.DEInternal.Weighted>
1.1895

> <Gold.Chemscore.Rot.Weighted>
4.7313

> <Gold.Chemscore.Internal.Correction.Weighted>
   9.000000E+99

> <Gold.Protein.RotatedTorsions>
[ 6907 6896 6895 6894 ] final  -56.91 input  -60.11 | X-H torsion
[ 7974 7965 7964 7962 ] final  -10.23 input  175.53 | X-H torsion
[ 8008 7997 7996 7995 ] final  -49.10 input   59.86 | X-H torsion
[ 10167 10162 10161 10158 ] final   -8.76 input  -65.29 | X-H torsion
[ 10718 10713 10712 10709 ] final    2.89 input   66.30 | X-H torsion
[ 10763 10752 10751 10750 ] final  -19.27 input  -60.55 | X-H torsion
[ 11005 11000 10999 10996 ] final  -84.27 input  -57.11 | X-H torsion

> <Gold.Protein.ActiveResidues>
 VAL166  LYS551  ARG553  GLY616  TRP617  ASP618  TYR619  PRO620  LYS621  CYS622 
 ASP623  PHE694  ASN695  SER759  ASP760  ASP761  ALA762  ILE779  LEU786  VAL792 
 PHE793  MET794  SER795  GLU796  ALA797  LYS798  CYS799  TRP800  GLU811  SER814 

> <Gold.Protein.RotatedAtoms>
  150.8129  134.7294  159.6703 H   0  0  0  0  0  0  0  0  0  0  0  0  # atno 6907 bound_to 6896
  152.4249  134.5884  159.9977 H   0  0  0  0  0  0  0  0  0  0  0  0  # atno 6908 bound_to 6896
  151.6089  133.3312  159.3099 H   0  0  0  0  0  0  0  0  0  0  0  0  # atno 6909 bound_to 6896
  146.2227  140.2733  142.8358 H   0  0  0  0  0  0  0  0  0  0  0  0  # atno 7974 bound_to 7965
  154.4039  140.1305  156.4447 H   0  0  0  0  0  0  0  0  0  0  0  0  # atno 8008 bound_to 7997
  155.7424  140.3489  155.5091 H   0  0  0  0  0  0  0  0  0  0  0  0  # atno 8009 bound_to 7997
  155.9026  140.1022  157.1329 H   0  0  0  0  0  0  0  0  0  0  0  0  # atno 8010 bound_to 7997
  140.7068  143.5933  150.8872 H   0  0  0  0  0  0  0  0  0  0  0  0  # atno 10167 bound_to 10162
  156.8697  130.5615  149.5658 H   0  0  0  0  0  0  0  0  0  0  0  0  # atno 10718 bound_to 10713
  153.6022  135.6999  153.5380 H   0  0  0  0  0  0  0  0  0  0  0  0  # atno 10763 bound_to 10752
  153.3087  135.4107  155.1317 H   0  0  0  0  0  0  0  0  0  0  0  0  # atno 10764 bound_to 10752
  154.8580  135.3667  154.5558 H   0  0  0  0  0  0  0  0  0  0  0  0  # atno 10765 bound_to 10752
  141.1652  133.7337  156.8842 H   0  0  0  0  0  0  0  0  0  0  0  0  # atno 11005 bound_to 11000
  144.9251  140.7912  143.5724 LP  0  0  0  0  0  0  0  0  0  0  0  0  # atno 17320 bound_to 7965
  145.2673  139.1968  143.4860 LP  0  0  0  0  0  0  0  0  0  0  0  0  # atno 17321 bound_to 7965
  139.9658  143.6112  152.2989 LP  0  0  0  0  0  0  0  0  0  0  0  0  # atno 17342 bound_to 10162
  139.6681  144.7661  151.1834 LP  0  0  0  0  0  0  0  0  0  0  0  0  # atno 17343 bound_to 10162
  156.0733  130.5761  150.9425 LP  0  0  0  0  0  0  0  0  0  0  0  0  # atno 17370 bound_to 10713
  157.6203  131.0930  150.8635 LP  0  0  0  0  0  0  0  0  0  0  0  0  # atno 17371 bound_to 10713
  140.1693  134.9111  157.2814 LP  0  0  0  0  0  0  0  0  0  0  0  0  # atno 17394 bound_to 11000
  140.2520  134.3672  155.7438 LP  0  0  0  0  0  0  0  0  0  0  0  0  # atno 17395 bound_to 11000

$$$$
