AV-unprocessed.smi:1809|AV-procd|sdf|7316|dock3
  -GOLD-   22720 8573D 1   1.00000     0.00000
 Structure written by MMmdl.
 40 42  0  0  0  0  0  0  0  0  2 V2000
  144.0559  143.9333  162.4885 C   0  0  0  0  0  0  0  0  0  0  0  0
  144.9272  143.4379  161.3852 C   0  0  0  0  0  0  0  0  0  0  0  0
  145.0297  142.1418  161.0663 N   0  0  0  0  0  0  0  0  0  0  0  0
  145.8978  141.9281  160.0046 N   0  0  0  0  0  0  0  0  0  0  0  0
  146.4255  143.0739  159.5525 C   0  0  0  0  0  0  0  0  0  0  0  0
  147.3445  143.1475  158.4726 N   0  0  0  0  0  0  0  0  0  0  0  0
  148.0507  142.1506  157.9112 C   0  0  0  0  0  0  0  0  0  0  0  0
  148.0162  140.9689  158.2557 O   0  0  0  0  0  0  0  0  0  0  0  0
  148.8208  142.6025  156.9112 N   0  0  0  0  0  0  0  0  0  0  0  0
  149.7065  141.7736  156.1004 C   0  0  0  0  0  0  0  0  0  0  0  0
  150.9945  141.3992  156.8550 C   0  0  1  0  0  0  0  0  0  0  0  0
  151.3942  142.4819  157.8844 C   0  0  0  0  0  0  0  0  0  0  0  0
  152.5648  141.9937  158.6357 N   0  3  1  0  0  0  0  0  0  0  0  0
  153.1470  142.8654  159.6707 C   0  0  0  0  0  0  0  0  0  0  0  0
  153.8759  141.9035  160.6312 C   0  0  0  0  0  0  0  0  0  0  0  0
  153.5164  140.4840  160.1546 C   0  0  0  0  0  0  0  0  0  0  0  0
  152.2800  140.7161  159.2926 C   0  0  2  0  0  0  0  0  0  0  0  0
  151.9300  139.6709  158.2258 C   0  0  0  0  0  0  0  0  0  0  0  0
  150.7838  140.1470  157.5187 O   0  0  0  0  0  0  0  0  0  0  0  0
  145.9000  144.5204  160.3967 S   0  0  0  0  0  0  0  0  0  0  0  0
  143.6801  143.1016  163.0854 H   0  0  0  0  0  0  0  0  0  0  0  0
  143.2077  144.4794  162.0754 H   0  0  0  0  0  0  0  0  0  0  0  0
  144.6205  144.6017  163.1388 H   0  0  0  0  0  0  0  0  0  0  0  0
  147.4782  144.0681  158.0813 H   0  0  0  0  0  0  0  0  0  0  0  0
  148.7938  143.5882  156.6939 H   0  0  0  0  0  0  0  0  0  0  0  0
  149.1754  140.8738  155.7853 H   0  0  0  0  0  0  0  0  0  0  0  0
  149.9522  142.3219  155.1906 H   0  0  0  0  0  0  0  0  0  0  0  0
  151.8105  141.2803  156.1398 H   0  0  0  0  0  0  0  0  0  0  0  0
  151.6441  143.4167  157.3812 H   0  0  0  0  0  0  0  0  0  0  0  0
  150.5708  142.6883  158.5701 H   0  0  0  0  0  0  0  0  0  0  0  0
  153.8160  143.6043  159.2286 H   0  0  0  0  0  0  0  0  0  0  0  0
  152.3549  143.3967  160.2010 H   0  0  0  0  0  0  0  0  0  0  0  0
  154.9552  142.0584  160.6166 H   0  0  0  0  0  0  0  0  0  0  0  0
  153.5350  142.0661  161.6543 H   0  0  0  0  0  0  0  0  0  0  0  0
  154.3282  140.0785  159.5490 H   0  0  0  0  0  0  0  0  0  0  0  0
  153.3330  139.7932  160.9784 H   0  0  0  0  0  0  0  0  0  0  0  0
  151.4213  140.8483  159.9549 H   0  0  0  0  0  0  0  0  0  0  0  0
  152.7602  139.5052  157.5375 H   0  0  0  0  0  0  0  0  0  0  0  0
  151.6935  138.7136  158.6907 H   0  0  0  0  0  0  0  0  0  0  0  0
  153.2993  141.8144  157.9658 H   0  0  0  0  0  0  0  0  0  0  0  0
  1  2  1  0  0  0  0
  1 21  1  0  0  0  0
  1 22  1  0  0  0  0
  1 23  1  0  0  0  0
  2 20  1  0  0  0  0
  2  3  2  0  0  0  0
  3  4  1  0  0  0  0
  4  5  2  0  0  0  0
  5  6  1  0  0  0  0
  5 20  1  0  0  0  0
  6  7  1  0  0  0  0
  6 24  1  0  0  0  0
  7  8  2  0  0  0  0
  7  9  1  0  0  0  0
  9 10  1  0  0  0  0
  9 25  1  0  0  0  0
 10 11  1  0  0  0  0
 10 26  1  0  0  0  0
 10 27  1  0  0  0  0
 11 19  1  0  0  0  0
 11 12  1  0  0  0  0
 11 28  1  0  0  0  0
 12 13  1  0  0  0  0
 12 29  1  0  0  0  0
 12 30  1  0  0  0  0
 13 17  1  0  0  0  0
 13 14  1  0  0  0  0
 13 40  1  0  0  0  0
 14 15  1  0  0  0  0
 14 31  1  0  0  0  0
 14 32  1  0  0  0  0
 15 16  1  0  0  0  0
 15 33  1  0  0  0  0
 15 34  1  0  0  0  0
 16 17  1  0  0  0  0
 16 35  1  0  0  0  0
 16 36  1  0  0  0  0
 17 18  1  0  0  0  0
 17 37  1  0  0  0  0
 18 19  1  0  0  0  0
 18 38  1  0  0  0  0
 18 39  1  0  0  0  0
M  CHG  1  13   1
M  END
> <s_m_source_file>
AV-unprocessed.smi

> <i_m_source_file_index>
1809

> <i_lp_mmshare_version>
43012

> <i_f3d_flags>
0

> <s_epik_input>
W0NIM11jMW5uYyhzMSlbTkhdQyg9TylbTkhdW0NIMl1bQ0BIXShbQ0gyXTIpT1tDSDJdW0NAQEhdKE4yMylbQ0gyXVtDSDJdW0NIMl0z

> <s_epik_cmdline>
J2VwaWtfcHl0aG9uJywgJy1waCcsICc3LjAnLCAnLXRuJywgJzgnLCAnLW1hJywgJzIwMCcsICctbWV0YWxfYmluZGluZycsICctaW1hZScsICc8aW5maWxlLm1hZT4nLCAnLW9tYWUnLCAnPG91dGZpbGUubWFlPic=

> <r_lp_tautomer_probability>
1

> <r_epik_Ionization_Penalty>
0.112474

> <r_epik_Ionization_Penalty_Charging>
0.108916

> <r_epik_Ionization_Penalty_Neutral>
0.00355844

> <r_epik_State_Penalty>
0.0565397

> <r_epik_Charging_Adjusted_Penalty>
0.165456

> <i_epik_Tot_Q>
1

> <i_epik_Tot_abs_Q>
1

> <r_epik_Metal_State_Penalty>
0.422831

> <b_epik_Metal_Only>
0

> <s_lp_Force_Field>
OPLS_2005

> <r_lp_Energy>
33.8042

> <b_lp_Chiralities_Consistent>
1

> <s_lp_Variant>
AV-unprocessed.smi:1809-8

> <Gold.Version>
5.8.1

> <Gold.Id.Protein>
6NUR|6NUR_protein|mol2

> <Gold.PLP.Fitness>
43.0867

> <Gold.PLP.PLP>
-35.8153

> <Gold.PLP.part.hbond>
-4.1565

> <Gold.PLP.part.metal>
0.0000

> <Gold.PLP.part.buried>
-3.1869

> <Gold.PLP.part.nonpolar>
-27.7558

> <Gold.PLP.part.repulsive>
0.2043

> <Gold.PLP.ligand.clash>
0.0000

> <Gold.PLP.ligand.torsion>
0.5582

> <Gold.PLP.Chemscore.Hbond>
2.7950

> <Gold.PLP.Chemscore.CHOScore>
0.0000

> <Gold.PLP.Chemscore.Metal>
0.0000

> <Gold.Chemscore.Hbonds>
donor molecule, donor type, donor heavy atom, donor atom, acceptor molecule, acceptor atom, score
      L1  H     6    24       P1  8029  0.91
      L1  H     9    25       P1  8028  0.99
      P1  H  6934  6946       L1     4  0.95

> <Gold.PLP.Chemscore.Internal.Correction>
0.0027

> <Gold.Rescore>
     Score         DG    S(hbond)    S(metal)    S(lipo)     H(rot)  DE(clash)    DE(int)     intcor
     14.61     -16.55       1.41        0.00      83.76       1.34       0.07       1.87       ----

> <Gold.Chemscore.Fitness>
14.6100

> <Gold.Chemscore.DG>
-16.5450

> <Gold.Chemscore.ZeroCoef>
-5.4800

> <Gold.Chemscore.Hbond>
1.4052

> <Gold.Chemscore.Metal>
0.0000

> <Gold.Chemscore.Lipo>
83.7572

> <Gold.Chemscore.Internal_Hbond>
0.0000

> <Gold.Chemscore.DEClash>
0.0659

> <Gold.Chemscore.DEInternal>
1.8691

> <Gold.Chemscore.Rot>
1.3391

> <Gold.Chemscore.Internal.Correction>
   9.000000E+99

> <Gold.Chemscore.Hbonds>
donor molecule, donor type, donor heavy atom, donor atom, acceptor molecule, acceptor atom, score
      L1  H     6    24       P1  8029  0.22
      L1  H     9    25       P1  8028  0.53
      P1  H  6934  6946       L1     4  0.21

> <Gold.Chemscore.Hbond.Weighted>
-4.6935

> <Gold.Chemscore.Metal.Weighted>
-0.0000

> <Gold.Chemscore.Lipo.Weighted>
-9.7996

> <Gold.Chemscore.Internal_Hbond.Weighted>
0.0000

> <Gold.Chemscore.DEClash.Weighted>
0.0659

> <Gold.Chemscore.DEInternal.Weighted>
1.8691

> <Gold.Chemscore.Rot.Weighted>
3.4281

> <Gold.Chemscore.Internal.Correction.Weighted>
   9.000000E+99

> <Gold.Protein.RotatedTorsions>
[ 6907 6896 6895 6894 ] final  -75.54 input  -60.11 | X-H torsion
[ 7974 7965 7964 7962 ] final  -13.83 input  175.53 | X-H torsion
[ 8008 7997 7996 7995 ] final -105.62 input   59.86 | X-H torsion
[ 10167 10162 10161 10158 ] final   25.85 input  -65.29 | X-H torsion
[ 10718 10713 10712 10709 ] final  -71.23 input   66.30 | X-H torsion
[ 10763 10752 10751 10750 ] final -103.87 input  -60.55 | X-H torsion
[ 11005 11000 10999 10996 ] final   62.73 input  -57.11 | X-H torsion

> <Gold.Protein.ActiveResidues>
 VAL166  LYS551  ARG553  GLY616  TRP617  ASP618  TYR619  PRO620  LYS621  CYS622 
 ASP623  PHE694  ASN695  SER759  ASP760  ASP761  ALA762  ILE779  LEU786  VAL792 
 PHE793  MET794  SER795  GLU796  ALA797  LYS798  CYS799  TRP800  GLU811  SER814 

> <Gold.Protein.RotatedAtoms>
  150.7056  134.4706  159.5423 H   0  0  0  0  0  0  0  0  0  0  0  0  # atno 6907 bound_to 6896
  152.2363  134.8270  160.0476 H   0  0  0  0  0  0  0  0  0  0  0  0  # atno 6908 bound_to 6896
  151.9068  133.3516  159.3886 H   0  0  0  0  0  0  0  0  0  0  0  0  # atno 6909 bound_to 6896
  146.2099  140.3260  142.8394 H   0  0  0  0  0  0  0  0  0  0  0  0  # atno 7974 bound_to 7965
  154.9026  140.0412  157.1901 H   0  0  0  0  0  0  0  0  0  0  0  0  # atno 8008 bound_to 7997
  154.8429  140.2917  155.5627 H   0  0  0  0  0  0  0  0  0  0  0  0  # atno 8009 bound_to 7997
  156.2993  140.2479  156.3374 H   0  0  0  0  0  0  0  0  0  0  0  0  # atno 8010 bound_to 7997
  140.5072  144.0219  150.6357 H   0  0  0  0  0  0  0  0  0  0  0  0  # atno 10167 bound_to 10162
  156.0372  130.4347  150.2413 H   0  0  0  0  0  0  0  0  0  0  0  0  # atno 10718 bound_to 10713
  154.7838  135.4807  153.9902 H   0  0  0  0  0  0  0  0  0  0  0  0  # atno 10763 bound_to 10752
  153.1531  135.6795  153.8859 H   0  0  0  0  0  0  0  0  0  0  0  0  # atno 10764 bound_to 10752
  153.8497  135.3169  155.3410 H   0  0  0  0  0  0  0  0  0  0  0  0  # atno 10765 bound_to 10752
  140.0072  134.6351  155.9836 H   0  0  0  0  0  0  0  0  0  0  0  0  # atno 11005 bound_to 11000
  144.8886  140.7495  143.5941 LP  0  0  0  0  0  0  0  0  0  0  0  0  # atno 17320 bound_to 7965
  145.3182  139.1797  143.4602 LP  0  0  0  0  0  0  0  0  0  0  0  0  # atno 17321 bound_to 7965
  140.3532  143.2951  152.0465 LP  0  0  0  0  0  0  0  0  0  0  0  0  # atno 17342 bound_to 10162
  139.4886  144.6358  151.6977 LP  0  0  0  0  0  0  0  0  0  0  0  0  # atno 17343 bound_to 10162
  157.0511  131.0063  151.3253 LP  0  0  0  0  0  0  0  0  0  0  0  0  # atno 17370 bound_to 10713
  157.5139  130.7956  149.7735 LP  0  0  0  0  0  0  0  0  0  0  0  0  # atno 17371 bound_to 10713
  141.1685  133.6537  156.4567 LP  0  0  0  0  0  0  0  0  0  0  0  0  # atno 17394 bound_to 11000
  140.4619  134.6833  157.5089 LP  0  0  0  0  0  0  0  0  0  0  0  0  # atno 17395 bound_to 11000

$$$$
