AV-unprocessed.smi:3303|AV-procd|sdf|12678|dock8
  -GOLD-   2272019 13D 1   1.00000     0.00000
 Structure written by MMmdl.
 44 45  0  0  0  0  0  0  0  0  2 V2000
  151.5831  140.3393  157.6912 C   0  0  0  0  0  0  0  0  0  0  0  0
  151.0879  141.4581  158.6230 C   0  0  1  0  0  0  0  0  0  0  0  0
  152.2221  141.8859  159.5776 C   0  0  0  0  0  0  0  0  0  0  0  0
  151.7736  142.9523  160.4726 N   0  0  0  0  0  0  0  0  0  0  0  0
  152.7786  143.2158  161.4950 C   0  0  0  0  0  0  0  0  0  0  0  0
  151.3572  144.1672  159.7566 C   0  0  1  0  0  0  0  0  0  0  0  0
  152.4999  144.9079  159.0247 C   0  0  0  0  0  0  0  0  0  0  0  0
  150.1889  143.8060  158.8169 C   0  0  0  0  0  0  0  0  0  0  0  0
  150.5453  142.6722  157.8381 C   0  0  2  0  0  0  0  0  0  0  0  0
  149.3451  142.2969  157.0577 N   0  3  0  0  0  0  0  0  0  0  0  0
  148.1242  142.0851  157.8601 C   0  0  0  0  0  0  0  0  0  0  0  0
  147.1611  141.1228  157.1520 C   0  0  0  0  0  0  0  0  0  0  0  0
  147.0219  141.4352  155.6743 C   0  0  0  0  0  0  0  0  0  0  0  0
  146.3586  142.6042  155.2440 C   0  0  0  0  0  0  0  0  0  0  0  0
  146.2501  142.8426  153.8601 C   0  0  0  0  0  0  0  0  0  0  0  0
  146.8064  141.9082  152.9655 C   0  0  0  0  0  0  0  0  0  0  0  0
  147.4469  140.7707  153.4961 C   0  0  0  0  0  0  0  0  0  0  0  0
  147.5544  140.5313  154.8214 N   0  0  0  0  0  0  0  0  0  0  0  0
  152.3857  140.6913  157.0422 H   0  0  0  0  0  0  0  0  0  0  0  0
  150.7828  139.9597  157.0558 H   0  0  0  0  0  0  0  0  0  0  0  0
  151.9680  139.4956  158.2650 H   0  0  0  0  0  0  0  0  0  0  0  0
  150.2781  141.0522  159.2317 H   0  0  0  0  0  0  0  0  0  0  0  0
  152.5245  141.0259  160.1769 H   0  0  0  0  0  0  0  0  0  0  0  0
  153.1042  142.1992  159.0187 H   0  0  0  0  0  0  0  0  0  0  0  0
  152.4477  144.0089  162.1662 H   0  0  0  0  0  0  0  0  0  0  0  0
  153.7344  143.5069  161.0589 H   0  0  0  0  0  0  0  0  0  0  0  0
  152.9463  142.3224  162.0974 H   0  0  0  0  0  0  0  0  0  0  0  0
  150.9631  144.8553  160.5058 H   0  0  0  0  0  0  0  0  0  0  0  0
  152.1148  145.7911  158.5146 H   0  0  0  0  0  0  0  0  0  0  0  0
  152.9902  144.2919  158.2717 H   0  0  0  0  0  0  0  0  0  0  0  0
  153.2646  145.2589  159.7169 H   0  0  0  0  0  0  0  0  0  0  0  0
  149.3332  143.5042  159.4232 H   0  0  0  0  0  0  0  0  0  0  0  0
  149.8689  144.6909  158.2649 H   0  0  0  0  0  0  0  0  0  0  0  0
  151.3242  143.0263  157.1610 H   0  0  0  0  0  0  0  0  0  0  0  0
  149.1611  143.0362  156.3945 H   0  0  0  0  0  0  0  0  0  0  0  0
  148.4030  141.6909  158.8384 H   0  0  0  0  0  0  0  0  0  0  0  0
  147.6317  143.0445  158.0243 H   0  0  0  0  0  0  0  0  0  0  0  0
  147.5074  140.0948  157.2689 H   0  0  0  0  0  0  0  0  0  0  0  0
  146.1751  141.1688  157.6174 H   0  0  0  0  0  0  0  0  0  0  0  0
  145.9412  143.3030  155.9544 H   0  0  0  0  0  0  0  0  0  0  0  0
  145.7486  143.7255  153.4916 H   0  0  0  0  0  0  0  0  0  0  0  0
  146.7432  142.0597  151.8980 H   0  0  0  0  0  0  0  0  0  0  0  0
  147.8831  140.0329  152.8388 H   0  0  0  0  0  0  0  0  0  0  0  0
  149.5471  141.4506  156.5445 H   0  0  0  0  0  0  0  0  0  0  0  0
  1  2  1  0  0  0  0
  1 19  1  0  0  0  0
  1 20  1  0  0  0  0
  1 21  1  0  0  0  0
  2  9  1  0  0  0  0
  2  3  1  0  0  0  0
  2 22  1  0  0  0  0
  3  4  1  0  0  0  0
  3 23  1  0  0  0  0
  3 24  1  0  0  0  0
  4  5  1  0  0  0  0
  4  6  1  0  0  0  0
  5 25  1  0  0  0  0
  5 26  1  0  0  0  0
  5 27  1  0  0  0  0
  6  7  1  0  0  0  0
  6  8  1  0  0  0  0
  6 28  1  0  0  0  0
  7 29  1  0  0  0  0
  7 30  1  0  0  0  0
  7 31  1  0  0  0  0
  8  9  1  0  0  0  0
  8 32  1  0  0  0  0
  8 33  1  0  0  0  0
  9 10  1  0  0  0  0
  9 34  1  0  0  0  0
 10 11  1  0  0  0  0
 10 35  1  0  0  0  0
 10 44  1  0  0  0  0
 11 12  1  0  0  0  0
 11 36  1  0  0  0  0
 11 37  1  0  0  0  0
 12 13  1  0  0  0  0
 12 38  1  0  0  0  0
 12 39  1  0  0  0  0
 13 18  1  0  0  0  0
 13 14  2  0  0  0  0
 14 15  1  0  0  0  0
 14 40  1  0  0  0  0
 15 16  2  0  0  0  0
 15 41  1  0  0  0  0
 16 17  1  0  0  0  0
 16 42  1  0  0  0  0
 17 18  2  0  0  0  0
 17 43  1  0  0  0  0
M  CHG  1  10   1
M  END
> <s_m_source_file>
AV-unprocessed.smi

> <i_m_source_file_index>
3303

> <i_lp_mmshare_version>
43012

> <i_f3d_flags>
0

> <s_epik_input>
W0NIM11bQ0BASF0xW0NIMl1OKFtDSDNdKVtDQEBIXShbQ0gzXSlbQ0gyXVtDQEhdMVtOSF1bQ0gyXVtDSDJdYzJbY0hdW2NIXVtjSF1bY0hdbjI=

> <s_epik_cmdline>
J2VwaWtfcHl0aG9uJywgJy1waCcsICc3LjAnLCAnLXRuJywgJzgnLCAnLW1hJywgJzIwMCcsICctbWV0YWxfYmluZGluZycsICctaW1hZScsICc8aW5maWxlLm1hZT4nLCAnLW9tYWUnLCAnPG91dGZpbGUubWFlPic=

> <r_epik_Ionization_Penalty>
1.37325

> <r_epik_Ionization_Penalty_Charging>
0.000251572

> <r_epik_Ionization_Penalty_Neutral>
1.373

> <r_epik_State_Penalty>
1.46343

> <r_epik_Charging_Adjusted_Penalty>
1.46368

> <i_epik_Tot_Q>
1

> <i_epik_Tot_abs_Q>
1

> <r_epik_Metal_State_Penalty>
1.46331

> <b_epik_Metal_Only>
0

> <s_lp_Force_Field>
OPLS_2005

> <r_lp_Energy>
23.1884

> <b_lp_Chiralities_Consistent>
1

> <s_lp_Variant>
AV-unprocessed.smi:3303-22

> <Gold.Version>
5.8.1

> <Gold.Id.Protein>
6NUR|6NUR_protein|mol2

> <Gold.PLP.Fitness>
43.7866

> <Gold.PLP.PLP>
-35.5094

> <Gold.PLP.part.hbond>
-1.3538

> <Gold.PLP.part.metal>
0.0000

> <Gold.PLP.part.buried>
-6.7325

> <Gold.PLP.part.nonpolar>
-26.3218

> <Gold.PLP.part.repulsive>
0.1522

> <Gold.PLP.ligand.clash>
0.0000

> <Gold.PLP.ligand.torsion>
0.3681

> <Gold.PLP.Chemscore.Hbond>
2.0000

> <Gold.PLP.Chemscore.CHOScore>
1.0000

> <Gold.PLP.Chemscore.Metal>
0.0000

> <Gold.Chemscore.Hbonds>
donor molecule, donor type, donor heavy atom, donor atom, acceptor molecule, acceptor atom, score
      L1  H    10    35       P1  8028  2.00
      L1  C    17    43       P1  7957  1.00

> <Gold.PLP.Chemscore.Internal.Correction>
0.0135

> <Gold.Rescore>
     Score         DG    S(hbond)    S(metal)    S(lipo)     H(rot)  DE(clash)    DE(int)     intcor
     17.44     -17.92       0.99        0.00     107.27       1.33       0.07       0.40       ----

> <Gold.Chemscore.Fitness>
17.4424

> <Gold.Chemscore.DG>
-17.9164

> <Gold.Chemscore.ZeroCoef>
-5.4800

> <Gold.Chemscore.Hbond>
0.9850

> <Gold.Chemscore.Metal>
0.0000

> <Gold.Chemscore.Lipo>
107.2708

> <Gold.Chemscore.Internal_Hbond>
0.0000

> <Gold.Chemscore.DEClash>
0.0743

> <Gold.Chemscore.DEInternal>
0.3997

> <Gold.Chemscore.Rot>
1.3298

> <Gold.Chemscore.Internal.Correction>
   9.000000E+99

> <Gold.Chemscore.Hbonds>
donor molecule, donor type, donor heavy atom, donor atom, acceptor molecule, acceptor atom, score
      L1  H    10    35       P1  8028  1.00

> <Gold.Chemscore.Hbond.Weighted>
-3.2901

> <Gold.Chemscore.Metal.Weighted>
-0.0000

> <Gold.Chemscore.Lipo.Weighted>
-12.5507

> <Gold.Chemscore.Internal_Hbond.Weighted>
0.0000

> <Gold.Chemscore.DEClash.Weighted>
0.0743

> <Gold.Chemscore.DEInternal.Weighted>
0.3997

> <Gold.Chemscore.Rot.Weighted>
3.4043

> <Gold.Chemscore.Internal.Correction.Weighted>
   9.000000E+99

> <Gold.Protein.RotatedTorsions>
[ 6907 6896 6895 6894 ] final   -4.12 input  -60.11 | X-H torsion
[ 7974 7965 7964 7962 ] final   80.71 input  175.53 | X-H torsion
[ 8008 7997 7996 7995 ] final  128.17 input   59.86 | X-H torsion
[ 10167 10162 10161 10158 ] final   76.42 input  -65.29 | X-H torsion
[ 10718 10713 10712 10709 ] final  120.70 input   66.30 | X-H torsion
[ 10763 10752 10751 10750 ] final   46.08 input  -60.55 | X-H torsion
[ 11005 11000 10999 10996 ] final   43.38 input  -57.11 | X-H torsion

> <Gold.Protein.ActiveResidues>
 VAL166  LYS551  ARG553  GLY616  TRP617  ASP618  TYR619  PRO620  LYS621  CYS622 
 ASP623  PHE694  ASN695  SER759  ASP760  ASP761  ALA762  ILE779  LEU786  VAL792 
 PHE793  MET794  SER795  GLU796  ALA797  LYS798  CYS799  TRP800  GLU811  SER814 

> <Gold.Protein.RotatedAtoms>
  151.5027  135.1062  159.9832 H   0  0  0  0  0  0  0  0  0  0  0  0  # atno 6907 bound_to 6896
  152.4695  133.7993  159.6954 H   0  0  0  0  0  0  0  0  0  0  0  0  # atno 6908 bound_to 6896
  150.8696  133.7462  159.2991 H   0  0  0  0  0  0  0  0  0  0  0  0  # atno 6909 bound_to 6896
  145.6477  139.2440  143.1995 H   0  0  0  0  0  0  0  0  0  0  0  0  # atno 7974 bound_to 7965
  156.2909  140.2651  156.2392 H   0  0  0  0  0  0  0  0  0  0  0  0  # atno 8008 bound_to 7997
  154.9994  140.0388  157.2372 H   0  0  0  0  0  0  0  0  0  0  0  0  # atno 8009 bound_to 7997
  154.7615  140.2761  155.6215 H   0  0  0  0  0  0  0  0  0  0  0  0  # atno 8010 bound_to 7997
  139.9925  144.5747  150.7806 H   0  0  0  0  0  0  0  0  0  0  0  0  # atno 10167 bound_to 10162
  157.5872  131.1068  150.8071 H   0  0  0  0  0  0  0  0  0  0  0  0  # atno 10718 bound_to 10713
  152.9815  135.6019  154.3541 H   0  0  0  0  0  0  0  0  0  0  0  0  # atno 10763 bound_to 10752
  154.3228  135.2769  155.2513 H   0  0  0  0  0  0  0  0  0  0  0  0  # atno 10764 bound_to 10752
  154.4671  135.5951  153.6351 H   0  0  0  0  0  0  0  0  0  0  0  0  # atno 10765 bound_to 10752
  140.1650  134.4293  155.8293 H   0  0  0  0  0  0  0  0  0  0  0  0  # atno 11005 bound_to 11000
  146.1229  140.7285  142.9449 LP  0  0  0  0  0  0  0  0  0  0  0  0  # atno 17320 bound_to 7965
  144.7134  140.4122  143.7063 LP  0  0  0  0  0  0  0  0  0  0  0  0  # atno 17321 bound_to 7965
  140.7449  143.2868  151.3441 LP  0  0  0  0  0  0  0  0  0  0  0  0  # atno 17342 bound_to 10162
  139.6330  144.0684  152.2492 LP  0  0  0  0  0  0  0  0  0  0  0  0  # atno 17343 bound_to 10162
  156.8503  130.5078  149.5312 LP  0  0  0  0  0  0  0  0  0  0  0  0  # atno 17370 bound_to 10713
  156.0922  130.5904  150.9752 LP  0  0  0  0  0  0  0  0  0  0  0  0  # atno 17371 bound_to 10713
  141.2213  133.6930  156.7663 LP  0  0  0  0  0  0  0  0  0  0  0  0  # atno 17394 bound_to 11000
  140.2444  134.8589  157.3605 LP  0  0  0  0  0  0  0  0  0  0  0  0  # atno 17395 bound_to 11000

$$$$
