AV-unprocessed.smi:959|AV-procd|sdf|4269|dock3
  -GOLD-   22720 2173D 1   1.00000     0.00000
 Structure written by MMmdl.
 33 34  0  0  0  0  0  0  0  0  2 V2000
  152.7535  144.9924  158.2423 C   0  0  0  0  0  0  0  0  0  0  0  0
  151.8173  144.1777  159.1472 C   0  0  0  0  0  0  0  0  0  0  0  0
  151.8620  144.6791  160.6012 C   0  0  0  0  0  0  0  0  0  0  0  0
  152.1169  142.7519  159.0426 N   0  0  0  0  0  0  0  0  0  0  0  0
  153.1062  142.0544  159.6290 C   0  0  0  0  0  0  0  0  0  0  0  0
  153.1435  140.7578  159.3303 N   0  0  0  0  0  0  0  0  0  0  0  0
  152.0981  140.5764  158.4521 N   0  0  0  0  0  0  0  0  0  0  0  0
  151.5403  141.7840  158.2917 C   0  0  0  0  0  0  0  0  0  0  0  0
  150.3606  142.0192  157.3879 C   0  0  2  0  0  0  0  0  0  0  0  0
  149.1317  141.2008  157.8266 C   0  0  0  0  0  0  0  0  0  0  0  0
  147.9503  141.4500  156.8767 C   0  0  0  0  0  0  0  0  0  0  0  0
  148.3510  141.1776  155.4173 C   0  0  0  0  0  0  0  0  0  0  0  0
  149.5284  141.9889  155.0386 N   0  3  0  0  0  0  0  0  0  0  0  0
  150.7013  141.7455  155.9075 C   0  0  0  0  0  0  0  0  0  0  0  0
  152.5104  146.0546  158.2820 H   0  0  0  0  0  0  0  0  0  0  0  0
  152.6751  144.6759  157.2020 H   0  0  0  0  0  0  0  0  0  0  0  0
  153.7947  144.8783  158.5463 H   0  0  0  0  0  0  0  0  0  0  0  0
  150.7922  144.3242  158.8075 H   0  0  0  0  0  0  0  0  0  0  0  0
  151.5309  145.7162  160.6636 H   0  0  0  0  0  0  0  0  0  0  0  0
  152.8701  144.6357  161.0146 H   0  0  0  0  0  0  0  0  0  0  0  0
  151.2076  144.0887  161.2436 H   0  0  0  0  0  0  0  0  0  0  0  0
  153.8239  142.5019  160.3004 H   0  0  0  0  0  0  0  0  0  0  0  0
  150.0850  143.0711  157.4448 H   0  0  0  0  0  0  0  0  0  0  0  0
  149.3744  140.1371  157.8332 H   0  0  0  0  0  0  0  0  0  0  0  0
  148.8498  141.4621  158.8474 H   0  0  0  0  0  0  0  0  0  0  0  0
  147.1075  140.8175  157.1568 H   0  0  0  0  0  0  0  0  0  0  0  0
  147.6102  142.4815  156.9774 H   0  0  0  0  0  0  0  0  0  0  0  0
  148.5823  140.1207  155.2773 H   0  0  0  0  0  0  0  0  0  0  0  0
  147.5248  141.4150  154.7467 H   0  0  0  0  0  0  0  0  0  0  0  0
  149.7787  141.7770  154.0831 H   0  0  0  0  0  0  0  0  0  0  0  0
  151.5197  142.3883  155.5809 H   0  0  0  0  0  0  0  0  0  0  0  0
  151.0312  140.7145  155.7699 H   0  0  0  0  0  0  0  0  0  0  0  0
  149.2786  142.9656  155.1011 H   0  0  0  0  0  0  0  0  0  0  0  0
  1  2  1  0  0  0  0
  1 15  1  0  0  0  0
  1 16  1  0  0  0  0
  1 17  1  0  0  0  0
  2  3  1  0  0  0  0
  2  4  1  0  0  0  0
  2 18  1  0  0  0  0
  3 19  1  0  0  0  0
  3 20  1  0  0  0  0
  3 21  1  0  0  0  0
  4  8  1  0  0  0  0
  4  5  1  0  0  0  0
  5  6  2  0  0  0  0
  5 22  1  0  0  0  0
  6  7  1  0  0  0  0
  7  8  2  0  0  0  0
  8  9  1  0  0  0  0
  9 14  1  0  0  0  0
  9 10  1  0  0  0  0
  9 23  1  0  0  0  0
 10 11  1  0  0  0  0
 10 24  1  0  0  0  0
 10 25  1  0  0  0  0
 11 12  1  0  0  0  0
 11 26  1  0  0  0  0
 11 27  1  0  0  0  0
 12 13  1  0  0  0  0
 12 28  1  0  0  0  0
 12 29  1  0  0  0  0
 13 14  1  0  0  0  0
 13 30  1  0  0  0  0
 13 33  1  0  0  0  0
 14 31  1  0  0  0  0
 14 32  1  0  0  0  0
M  CHG  1  13   1
M  END
> <s_m_source_file>
AV-unprocessed.smi

> <i_m_source_file_index>
959

> <i_lp_mmshare_version>
43012

> <i_f3d_flags>
0

> <s_epik_input>
W0NIM11bQ0hdKFtDSDNdKW4xW2NIXW5uYzFbQ0BASF0yW0NIMl1bQ0gyXVtDSDJdW05IXVtDSDJdMg==

> <s_epik_cmdline>
J2VwaWtfcHl0aG9uJywgJy1waCcsICc3LjAnLCAnLXRuJywgJzgnLCAnLW1hJywgJzIwMCcsICctbWV0YWxfYmluZGluZycsICctaW1hZScsICc8aW5maWxlLm1hZT4nLCAnLW9tYWUnLCAnPG91dGZpbGUubWFlPic=

> <r_lp_tautomer_probability>
1

> <r_epik_Ionization_Penalty>
0.000442722

> <r_epik_Ionization_Penalty_Charging>
0.000426856

> <r_epik_Ionization_Penalty_Neutral>
1.58656e-05

> <r_epik_State_Penalty>
-0

> <r_epik_Charging_Adjusted_Penalty>
0.000426856

> <i_epik_Tot_Q>
1

> <i_epik_Tot_abs_Q>
1

> <r_epik_Metal_State_Penalty>
-0

> <b_epik_Metal_Only>
0

> <s_lp_Force_Field>
OPLS_2005

> <r_lp_Energy>
20.311

> <b_lp_Chiralities_Consistent>
1

> <s_lp_Variant>
AV-unprocessed.smi:959-1

> <Gold.Version>
5.8.1

> <Gold.Id.Protein>
6NUR|6NUR_protein|mol2

> <Gold.PLP.Fitness>
36.5368

> <Gold.PLP.PLP>
-31.5160

> <Gold.PLP.part.hbond>
-1.0000

> <Gold.PLP.part.metal>
0.0000

> <Gold.PLP.part.buried>
-5.5266

> <Gold.PLP.part.nonpolar>
-23.9664

> <Gold.PLP.part.repulsive>
0.2152

> <Gold.PLP.ligand.clash>
0.0000

> <Gold.PLP.ligand.torsion>
0.5260

> <Gold.PLP.Chemscore.Hbond>
2.0000

> <Gold.PLP.Chemscore.CHOScore>
0.0000

> <Gold.PLP.Chemscore.Metal>
0.0000

> <Gold.Chemscore.Hbonds>
donor molecule, donor type, donor heavy atom, donor atom, acceptor molecule, acceptor atom, score
      L1  H    13    33       P1  8028  2.00

> <Gold.PLP.Chemscore.Internal.Correction>
0.0728

> <Gold.Rescore>
     Score         DG    S(hbond)    S(metal)    S(lipo)     H(rot)  DE(clash)    DE(int)     intcor
     12.63     -13.09       1.00        0.00      63.51       1.24       0.07       0.39       ----

> <Gold.Chemscore.Fitness>
12.6319

> <Gold.Chemscore.DG>
-13.0868

> <Gold.Chemscore.ZeroCoef>
-5.4800

> <Gold.Chemscore.Hbond>
1.0000

> <Gold.Chemscore.Metal>
0.0000

> <Gold.Chemscore.Lipo>
63.5064

> <Gold.Chemscore.Internal_Hbond>
0.0000

> <Gold.Chemscore.DEClash>
0.0677

> <Gold.Chemscore.DEInternal>
0.3872

> <Gold.Chemscore.Rot>
1.2357

> <Gold.Chemscore.Internal.Correction>
   9.000000E+99

> <Gold.Chemscore.Hbonds>
donor molecule, donor type, donor heavy atom, donor atom, acceptor molecule, acceptor atom, score
      L1  H    13    33       P1  8028  1.00

> <Gold.Chemscore.Hbond.Weighted>
-3.3399

> <Gold.Chemscore.Metal.Weighted>
-0.0000

> <Gold.Chemscore.Lipo.Weighted>
-7.4303

> <Gold.Chemscore.Internal_Hbond.Weighted>
0.0000

> <Gold.Chemscore.DEClash.Weighted>
0.0677

> <Gold.Chemscore.DEInternal.Weighted>
0.3872

> <Gold.Chemscore.Rot.Weighted>
3.1634

> <Gold.Chemscore.Internal.Correction.Weighted>
   9.000000E+99

> <Gold.Protein.RotatedTorsions>
[ 6907 6896 6895 6894 ] final  -42.64 input  -60.11 | X-H torsion
[ 7974 7965 7964 7962 ] final  -43.43 input  175.53 | X-H torsion
[ 8008 7997 7996 7995 ] final   -7.51 input   59.86 | X-H torsion
[ 10167 10162 10161 10158 ] final   16.88 input  -65.29 | X-H torsion
[ 10718 10713 10712 10709 ] final  -87.32 input   66.30 | X-H torsion
[ 10763 10752 10751 10750 ] final -123.35 input  -60.55 | X-H torsion
[ 11005 11000 10999 10996 ] final   34.23 input  -57.11 | X-H torsion

> <Gold.Protein.ActiveResidues>
 VAL166  LYS551  ARG553  GLY616  TRP617  ASP618  TYR619  PRO620  LYS621  CYS622 
 ASP623  PHE694  ASN695  SER759  ASP760  ASP761  ALA762  ILE779  LEU786  VAL792 
 PHE793  MET794  SER795  GLU796  ALA797  LYS798  CYS799  TRP800  GLU811  SER814 

> <Gold.Protein.RotatedAtoms>
  150.9530  134.8927  159.7683 H   0  0  0  0  0  0  0  0  0  0  0  0  # atno 6907 bound_to 6896
  152.5127  134.3780  159.9351 H   0  0  0  0  0  0  0  0  0  0  0  0  # atno 6908 bound_to 6896
  151.3795  133.3786  159.2743 H   0  0  0  0  0  0  0  0  0  0  0  0  # atno 6909 bound_to 6896
  146.0019  140.7064  142.9266 H   0  0  0  0  0  0  0  0  0  0  0  0  # atno 7974 bound_to 7965
  154.5831  140.2405  155.8025 H   0  0  0  0  0  0  0  0  0  0  0  0  # atno 8008 bound_to 7997
  156.2194  140.3002  155.9872 H   0  0  0  0  0  0  0  0  0  0  0  0  # atno 8009 bound_to 7997
  155.2505  140.0410  157.2976 H   0  0  0  0  0  0  0  0  0  0  0  0  # atno 8010 bound_to 7997
  140.5766  143.9061  150.6755 H   0  0  0  0  0  0  0  0  0  0  0  0  # atno 10167 bound_to 10162
  155.9986  130.4796  150.4849 H   0  0  0  0  0  0  0  0  0  0  0  0  # atno 10718 bound_to 10713
  154.8706  135.4101  154.2929 H   0  0  0  0  0  0  0  0  0  0  0  0  # atno 10763 bound_to 10752
  153.3802  135.7011  153.6576 H   0  0  0  0  0  0  0  0  0  0  0  0  # atno 10764 bound_to 10752
  153.5402  135.3649  155.2686 H   0  0  0  0  0  0  0  0  0  0  0  0  # atno 10765 bound_to 10752
  140.2550  134.3258  155.7877 H   0  0  0  0  0  0  0  0  0  0  0  0  # atno 11005 bound_to 11000
  144.6922  140.3249  143.7226 LP  0  0  0  0  0  0  0  0  0  0  0  0  # atno 17320 bound_to 7965
  145.7474  139.1783  143.2341 LP  0  0  0  0  0  0  0  0  0  0  0  0  # atno 17321 bound_to 7965
  140.2550  143.3566  152.1373 LP  0  0  0  0  0  0  0  0  0  0  0  0  # atno 17342 bound_to 10162
  139.5146  144.6950  151.5655 LP  0  0  0  0  0  0  0  0  0  0  0  0  # atno 17343 bound_to 10162
  157.2850  131.0614  151.2172 LP  0  0  0  0  0  0  0  0  0  0  0  0  # atno 17370 bound_to 10713
  157.3205  130.6935  149.6266 LP  0  0  0  0  0  0  0  0  0  0  0  0  # atno 17371 bound_to 10713
  141.2197  133.7376  156.9097 LP  0  0  0  0  0  0  0  0  0  0  0  0  # atno 17394 bound_to 11000
  140.1520  134.9223  157.2605 LP  0  0  0  0  0  0  0  0  0  0  0  0  # atno 17395 bound_to 11000

$$$$
