AV-unprocessed.smi:883|AV-procd|sdf|4041|dock2
  -GOLD-   22720 1533D 1   1.00000     0.00000
 Structure written by MMmdl.
 29 31  0  0  0  0  0  0  0  0  1 V2000
  151.3798  136.7342  154.3331 N   0  0  0  0  0  0  0  0  0  0  0  0
  151.2595  137.8142  154.7304 C   0  0  0  0  0  0  0  0  0  0  0  0
  151.1083  139.1705  155.2288 C   0  0  0  0  0  0  0  0  0  0  0  0
  150.0922  140.0127  154.7359 C   0  0  0  0  0  0  0  0  0  0  0  0
  149.9865  141.3203  155.2497 C   0  0  0  0  0  0  0  0  0  0  0  0
  150.9014  141.7398  156.2386 C   0  0  0  0  0  0  0  0  0  0  0  0
  150.7899  143.0426  156.7454 N   0  0  0  0  0  0  0  0  0  0  0  0
  151.6088  143.4959  157.8650 C   0  0  1  0  0  0  0  0  0  0  0  0
  151.2759  144.9238  158.3165 C   0  0  0  0  0  0  0  0  0  0  0  0
  150.9561  144.7203  159.8027 C   0  0  2  0  0  0  0  0  0  0  0  0
  152.1994  144.3453  160.6208 C   0  0  0  0  0  0  0  0  0  0  0  0
  152.4378  142.9006  160.1825 C   0  0  0  0  0  0  0  0  0  0  0  0
  151.3229  142.6963  159.1477 C   0  0  1  0  0  0  0  0  0  0  0  0
  150.2935  143.4698  159.7432 O   0  0  0  0  0  0  0  0  0  0  0  0
  151.8769  140.9294  156.7153 N   0  0  0  0  0  0  0  0  0  0  0  0
  151.9743  139.6772  156.2188 C   0  0  0  0  0  0  0  0  0  0  0  0
  149.4036  139.6688  153.9774 H   0  0  0  0  0  0  0  0  0  0  0  0
  149.2164  141.9859  154.8878 H   0  0  0  0  0  0  0  0  0  0  0  0
  150.2434  143.7268  156.2425 H   0  0  0  0  0  0  0  0  0  0  0  0
  152.6621  143.3973  157.5986 H   0  0  0  0  0  0  0  0  0  0  0  0
  152.1023  145.6172  158.1584 H   0  0  0  0  0  0  0  0  0  0  0  0
  150.4015  145.3174  157.7958 H   0  0  0  0  0  0  0  0  0  0  0  0
  150.3626  145.5232  160.2405 H   0  0  0  0  0  0  0  0  0  0  0  0
  153.0465  144.9986  160.4085 H   0  0  0  0  0  0  0  0  0  0  0  0
  151.9910  144.3905  161.6903 H   0  0  0  0  0  0  0  0  0  0  0  0
  153.4319  142.7419  159.7634 H   0  0  0  0  0  0  0  0  0  0  0  0
  152.3109  142.2203  161.0254 H   0  0  0  0  0  0  0  0  0  0  0  0
  151.0688  141.6484  158.9833 H   0  0  0  0  0  0  0  0  0  0  0  0
  152.7671  139.0671  156.6270 H   0  0  0  0  0  0  0  0  0  0  0  0
  1  2  3  0  0  0  0
  2  3  1  0  0  0  0
  3 16  1  0  0  0  0
  3  4  2  0  0  0  0
  4  5  1  0  0  0  0
  4 17  1  0  0  0  0
  5  6  2  0  0  0  0
  5 18  1  0  0  0  0
  6  7  1  0  0  0  0
  6 15  1  0  0  0  0
  7  8  1  0  0  0  0
  7 19  1  0  0  0  0
  8 13  1  0  0  0  0
  8  9  1  0  0  0  0
  8 20  1  0  0  0  0
  9 10  1  0  0  0  0
  9 21  1  0  0  0  0
  9 22  1  0  0  0  0
 10 14  1  0  0  0  0
 10 11  1  0  0  0  0
 10 23  1  0  0  0  0
 11 12  1  0  0  0  0
 11 24  1  0  0  0  0
 11 25  1  0  0  0  0
 12 13  1  0  0  0  0
 12 26  1  0  0  0  0
 12 27  1  0  0  0  0
 13 14  1  0  0  0  0
 13 28  1  0  0  0  0
 15 16  2  0  0  0  0
 16 29  1  0  0  0  0
M  END
> <s_m_source_file>
AV-unprocessed.smi

> <i_m_source_file_index>
883

> <i_lp_mmshare_version>
43012

> <i_f3d_flags>
0

> <s_epik_input>
TiNDYzFbY0hdW2NIXWMobltjSF0xKVtOSF1bQ0BIXShbQ0gyXVtDQEBIXTIzKVtDQEBIXShPMylbQ0gyXVtDSDJdMg==

> <s_epik_cmdline>
J2VwaWtfcHl0aG9uJywgJy1waCcsICc3LjAnLCAnLXRuJywgJzgnLCAnLW1hJywgJzIwMCcsICctbWV0YWxfYmluZGluZycsICctaW1hZScsICc8aW5maWxlLm1hZT4nLCAnLW9tYWUnLCAnPG91dGZpbGUubWFlPic=

> <r_lp_tautomer_probability>
1

> <r_epik_Ionization_Penalty>
1.50983e-05

> <r_epik_Ionization_Penalty_Charging>
0

> <r_epik_Ionization_Penalty_Neutral>
1.50983e-05

> <r_epik_State_Penalty>
-0

> <r_epik_Charging_Adjusted_Penalty>
0

> <i_epik_Tot_Q>
0

> <i_epik_Tot_abs_Q>
0

> <r_epik_Metal_State_Penalty>
-0

> <b_epik_Metal_Only>
0

> <s_lp_Force_Field>
OPLS_2005

> <r_lp_Energy>
39.3096

> <b_lp_Chiralities_Consistent>
1

> <s_lp_Variant>
AV-unprocessed.smi:883-4

> <Gold.Version>
5.8.1

> <Gold.Id.Protein>
6NUR|6NUR_protein|mol2

> <Gold.PLP.Fitness>
43.8431

> <Gold.PLP.PLP>
-37.8620

> <Gold.PLP.part.hbond>
-3.0000

> <Gold.PLP.part.metal>
0.0000

> <Gold.PLP.part.buried>
-3.4053

> <Gold.PLP.part.nonpolar>
-31.2038

> <Gold.PLP.part.repulsive>
1.1320

> <Gold.PLP.ligand.clash>
0.0000

> <Gold.PLP.ligand.torsion>
0.0190

> <Gold.PLP.Chemscore.Hbond>
2.0000

> <Gold.PLP.Chemscore.CHOScore>
0.0000

> <Gold.PLP.Chemscore.Metal>
0.0000

> <Gold.Chemscore.Hbonds>
donor molecule, donor type, donor heavy atom, donor atom, acceptor molecule, acceptor atom, score
      L1  H     7    19       P1  8028  1.00
      P1  H 10752 10764       L1     1  1.00

> <Gold.PLP.Chemscore.Internal.Correction>
0.0192

> <Gold.Rescore>
     Score         DG    S(hbond)    S(metal)    S(lipo)     H(rot)  DE(clash)    DE(int)     intcor
     19.70     -20.56       2.00        0.00      93.81       1.00       0.83       0.03       ----

> <Gold.Chemscore.Fitness>
19.7040

> <Gold.Chemscore.DG>
-20.5647

> <Gold.Chemscore.ZeroCoef>
-5.4800

> <Gold.Chemscore.Hbond>
1.9966

> <Gold.Chemscore.Metal>
0.0000

> <Gold.Chemscore.Lipo>
93.8119

> <Gold.Chemscore.Internal_Hbond>
0.0000

> <Gold.Chemscore.DEClash>
0.8263

> <Gold.Chemscore.DEInternal>
0.0344

> <Gold.Chemscore.Rot>
1.0000

> <Gold.Chemscore.Internal.Correction>
   9.000000E+99

> <Gold.Chemscore.Hbonds>
donor molecule, donor type, donor heavy atom, donor atom, acceptor molecule, acceptor atom, score
      L1  H     7    19       P1  8028  1.00
      P1  H 10752 10764       L1     1  1.00

> <Gold.Chemscore.Hbond.Weighted>
-6.6687

> <Gold.Chemscore.Metal.Weighted>
-0.0000

> <Gold.Chemscore.Lipo.Weighted>
-10.9760

> <Gold.Chemscore.Internal_Hbond.Weighted>
0.0000

> <Gold.Chemscore.DEClash.Weighted>
0.8263

> <Gold.Chemscore.DEInternal.Weighted>
0.0344

> <Gold.Chemscore.Rot.Weighted>
2.5600

> <Gold.Chemscore.Internal.Correction.Weighted>
   9.000000E+99

> <Gold.Protein.RotatedTorsions>
[ 6907 6896 6895 6894 ] final   20.36 input  -60.11 | X-H torsion
[ 7974 7965 7964 7962 ] final  -75.64 input  175.53 | X-H torsion
[ 8008 7997 7996 7995 ] final  -49.62 input   59.86 | X-H torsion
[ 10167 10162 10161 10158 ] final  -70.93 input  -65.29 | X-H torsion
[ 10718 10713 10712 10709 ] final -136.89 input   66.30 | X-H torsion
[ 10763 10752 10751 10750 ] final  -78.11 input  -60.55 | X-H torsion
[ 11005 11000 10999 10996 ] final -160.47 input  -57.11 | X-H torsion

> <Gold.Protein.ActiveResidues>
 VAL166  LYS551  ARG553  GLY616  TRP617  ASP618  TYR619  PRO620  LYS621  CYS622 
 ASP623  PHE694  ASN695  SER759  ASP760  ASP761  ALA762  ILE779  LEU786  VAL792 
 PHE793  MET794  SER795  GLU796  ALA797  LYS798  CYS799  TRP800  GLU811  SER814 

> <Gold.Protein.RotatedAtoms>
  151.8952  135.0401  160.0501 H   0  0  0  0  0  0  0  0  0  0  0  0  # atno 6907 bound_to 6896
  152.2404  133.5126  159.5275 H   0  0  0  0  0  0  0  0  0  0  0  0  # atno 6908 bound_to 6896
  150.7052  134.1013  159.4009 H   0  0  0  0  0  0  0  0  0  0  0  0  # atno 6909 bound_to 6896
  145.6234  140.9357  143.1126 H   0  0  0  0  0  0  0  0  0  0  0  0  # atno 7974 bound_to 7965
  154.4047  140.1292  156.4533 H   0  0  0  0  0  0  0  0  0  0  0  0  # atno 8008 bound_to 7997
  155.7345  140.3491  155.5055 H   0  0  0  0  0  0  0  0  0  0  0  0  # atno 8009 bound_to 7997
  155.9096  140.1033  157.1279 H   0  0  0  0  0  0  0  0  0  0  0  0  # atno 8010 bound_to 7997
  140.5313  143.2321  151.7256 H   0  0  0  0  0  0  0  0  0  0  0  0  # atno 10167 bound_to 10162
  156.2820  130.7326  151.1326 H   0  0  0  0  0  0  0  0  0  0  0  0  # atno 10718 bound_to 10713
  154.5217  135.5741  153.6686 H   0  0  0  0  0  0  0  0  0  0  0  0  # atno 10763 bound_to 10752
  152.9919  135.6183  154.2746 H   0  0  0  0  0  0  0  0  0  0  0  0  # atno 10764 bound_to 10752
  154.2667  135.2854  155.2735 H   0  0  0  0  0  0  0  0  0  0  0  0  # atno 10765 bound_to 10752
  140.6312  134.4649  157.5229 H   0  0  0  0  0  0  0  0  0  0  0  0  # atno 11005 bound_to 11000
  144.7222  139.7993  143.7378 LP  0  0  0  0  0  0  0  0  0  0  0  0  # atno 17320 bound_to 7965
  146.1413  139.4471  143.0107 LP  0  0  0  0  0  0  0  0  0  0  0  0  # atno 17321 bound_to 7965
  139.4955  144.4109  152.0081 LP  0  0  0  0  0  0  0  0  0  0  0  0  # atno 17342 bound_to 10162
  140.3212  144.3426  150.6009 LP  0  0  0  0  0  0  0  0  0  0  0  0  # atno 17343 bound_to 10162
  157.7317  131.0606  150.5663 LP  0  0  0  0  0  0  0  0  0  0  0  0  # atno 17370 bound_to 10713
  156.5770  130.4294  149.5994 LP  0  0  0  0  0  0  0  0  0  0  0  0  # atno 17371 bound_to 10713
  139.9115  134.8334  156.1511 LP  0  0  0  0  0  0  0  0  0  0  0  0  # atno 17394 bound_to 11000
  141.0674  133.6813  156.2072 LP  0  0  0  0  0  0  0  0  0  0  0  0  # atno 17395 bound_to 11000

$$$$
