AV-unprocessed.smi:1531|AV-procd|sdf|6156|dock6
  -GOLD-   22720 6303D 1   1.00000     0.00000
 Structure written by MMmdl.
 44 45  0  0  0  0  0  0  0  0  1 V2000
  143.5950  136.5417  152.6813 C   0  0  0  0  0  0  0  0  0  0  0  0
  144.5322  135.3874  153.0640 C   0  0  0  0  0  0  0  0  0  0  0  0
  144.9825  134.5102  151.8700 C   0  0  2  0  0  0  0  0  0  0  0  0
  143.7892  133.7531  151.2414 C   0  0  0  0  0  0  0  0  0  0  0  0
  144.2163  132.8649  150.0636 C   0  0  0  0  0  0  0  0  0  0  0  0
  145.3037  131.8714  150.4883 C   0  0  0  0  0  0  0  0  0  0  0  0
  146.5086  132.6085  151.0859 C   0  0  0  0  0  0  0  0  0  0  0  0
  146.0981  133.5076  152.2711 C   0  0  1  0  0  0  0  0  0  0  0  0
  147.2774  134.2164  152.7664 N   0  0  0  0  0  0  0  0  0  0  0  0
  147.8215  134.0637  153.9823 C   0  0  0  0  0  0  0  0  0  0  0  0
  147.3820  133.2910  154.8337 O   0  0  0  0  0  0  0  0  0  0  0  0
  148.8958  134.8541  154.1386 N   0  0  0  0  0  0  0  0  0  0  0  0
  149.7273  134.9522  155.2820 C   0  0  0  0  0  0  0  0  0  0  0  0
  149.7699  134.1246  156.4395 C   0  0  0  0  0  0  0  0  0  0  0  0
  150.6920  134.5464  157.2918 N   0  0  0  0  0  0  0  0  0  0  0  0
  151.2462  135.6357  156.7028 N   0  0  0  0  0  0  0  0  0  0  0  0
  152.3111  136.3549  157.3787 C   0  0  0  0  0  0  0  0  0  0  0  0
  151.7646  137.2082  158.5245 C   0  0  0  0  0  0  0  0  0  0  0  0
  151.8917  138.5330  158.4119 N   0  0  0  0  0  0  0  0  0  0  0  0
  151.2320  136.6780  159.4971 O   0  0  0  0  0  0  0  0  0  0  0  0
  150.6762  135.9106  155.4749 C   0  0  0  0  0  0  0  0  0  0  0  0
  143.3938  137.1747  153.5457 H   0  0  0  0  0  0  0  0  0  0  0  0
  142.6342  136.1819  152.3151 H   0  0  0  0  0  0  0  0  0  0  0  0
  144.0386  137.1699  151.9085 H   0  0  0  0  0  0  0  0  0  0  0  0
  145.4020  135.8288  153.5502 H   0  0  0  0  0  0  0  0  0  0  0  0
  144.0531  134.7642  153.8200 H   0  0  0  0  0  0  0  0  0  0  0  0
  145.3938  135.1731  151.1069 H   0  0  0  0  0  0  0  0  0  0  0  0
  143.3042  133.1377  152.0002 H   0  0  0  0  0  0  0  0  0  0  0  0
  143.0349  134.4552  150.8874 H   0  0  0  0  0  0  0  0  0  0  0  0
  143.3528  132.3255  149.6730 H   0  0  0  0  0  0  0  0  0  0  0  0
  144.5862  133.4887  149.2488 H   0  0  0  0  0  0  0  0  0  0  0  0
  144.8993  131.1726  151.2218 H   0  0  0  0  0  0  0  0  0  0  0  0
  145.6191  131.2747  149.6320 H   0  0  0  0  0  0  0  0  0  0  0  0
  147.2548  131.8807  151.4070 H   0  0  0  0  0  0  0  0  0  0  0  0
  146.9818  133.2128  150.3106 H   0  0  0  0  0  0  0  0  0  0  0  0
  145.7035  132.8709  153.0658 H   0  0  0  0  0  0  0  0  0  0  0  0
  147.7081  134.8742  152.1336 H   0  0  0  0  0  0  0  0  0  0  0  0
  149.1517  135.4370  153.3552 H   0  0  0  0  0  0  0  0  0  0  0  0
  149.1838  133.2541  156.6934 H   0  0  0  0  0  0  0  0  0  0  0  0
  153.0503  135.6469  157.7572 H   0  0  0  0  0  0  0  0  0  0  0  0
  152.8194  136.9898  156.6518 H   0  0  0  0  0  0  0  0  0  0  0  0
  151.5371  139.1360  159.1405 H   0  0  0  0  0  0  0  0  0  0  0  0
  152.3338  138.9273  157.5946 H   0  0  0  0  0  0  0  0  0  0  0  0
  150.9907  136.7432  154.8628 H   0  0  0  0  0  0  0  0  0  0  0  0
  1  2  1  0  0  0  0
  1 22  1  0  0  0  0
  1 23  1  0  0  0  0
  1 24  1  0  0  0  0
  2  3  1  0  0  0  0
  2 25  1  0  0  0  0
  2 26  1  0  0  0  0
  3  8  1  0  0  0  0
  3  4  1  0  0  0  0
  3 27  1  0  0  0  0
  4  5  1  0  0  0  0
  4 28  1  0  0  0  0
  4 29  1  0  0  0  0
  5  6  1  0  0  0  0
  5 30  1  0  0  0  0
  5 31  1  0  0  0  0
  6  7  1  0  0  0  0
  6 32  1  0  0  0  0
  6 33  1  0  0  0  0
  7  8  1  0  0  0  0
  7 34  1  0  0  0  0
  7 35  1  0  0  0  0
  8  9  1  0  0  0  0
  8 36  1  0  0  0  0
  9 10  1  0  0  0  0
  9 37  1  0  0  0  0
 10 11  2  0  0  0  0
 10 12  1  0  0  0  0
 12 13  1  0  0  0  0
 12 38  1  0  0  0  0
 13 21  2  0  0  0  0
 13 14  1  0  0  0  0
 14 15  2  0  0  0  0
 14 39  1  0  0  0  0
 15 16  1  0  0  0  0
 16 17  1  0  0  0  0
 16 21  1  0  0  0  0
 17 18  1  0  0  0  0
 17 40  1  0  0  0  0
 17 41  1  0  0  0  0
 18 19  1  0  0  0  0
 18 20  2  0  0  0  0
 19 42  1  0  0  0  0
 19 43  1  0  0  0  0
 21 44  1  0  0  0  0
M  END
> <s_m_source_file>
AV-unprocessed.smi

> <i_m_source_file_index>
1531

> <i_lp_mmshare_version>
43012

> <i_f3d_flags>
0

> <s_epik_input>
W0NIM11bQ0gyXVtDQEBIXTFbQ0gyXVtDSDJdW0NIMl1bQ0gyXVtDQEhdMVtOSF1DKD1PKVtOSF1jMltjSF1ubihbY0hdMilbQ0gyXUMoPU8pW05IMl0=

> <s_epik_cmdline>
J2VwaWtfcHl0aG9uJywgJy1waCcsICc3LjAnLCAnLXRuJywgJzgnLCAnLW1hJywgJzIwMCcsICctbWV0YWxfYmluZGluZycsICctaW1hZScsICc8aW5maWxlLm1hZT4nLCAnLW9tYWUnLCAnPG91dGZpbGUubWFlPic=

> <r_lp_tautomer_probability>
1

> <r_epik_Ionization_Penalty>
4.83437e-05

> <r_epik_Ionization_Penalty_Charging>
0

> <r_epik_Ionization_Penalty_Neutral>
4.83437e-05

> <r_epik_State_Penalty>
-0

> <r_epik_Charging_Adjusted_Penalty>
0

> <i_epik_Tot_Q>
0

> <i_epik_Tot_abs_Q>
0

> <r_epik_Metal_State_Penalty>
-0

> <b_epik_Metal_Only>
0

> <s_lp_Force_Field>
OPLS_2005

> <r_lp_Energy>
14.6895

> <b_lp_Chiralities_Consistent>
1

> <s_lp_Variant>
AV-unprocessed.smi:1531-1

> <Gold.Version>
5.8.1

> <Gold.Id.Protein>
6NUR|6NUR_protein|mol2

> <Gold.PLP.Fitness>
39.3744

> <Gold.PLP.PLP>
-30.0290

> <Gold.PLP.part.hbond>
-4.0000

> <Gold.PLP.part.metal>
0.0000

> <Gold.PLP.part.buried>
-4.2416

> <Gold.PLP.part.nonpolar>
-21.9266

> <Gold.PLP.part.repulsive>
0.0967

> <Gold.PLP.ligand.clash>
0.0000

> <Gold.PLP.ligand.torsion>
0.2819

> <Gold.PLP.Chemscore.Hbond>
3.2906

> <Gold.PLP.Chemscore.CHOScore>
0.0000

> <Gold.PLP.Chemscore.Metal>
0.0000

> <Gold.Chemscore.Hbonds>
donor molecule, donor type, donor heavy atom, donor atom, acceptor molecule, acceptor atom, score
      L1  H     9    37       P1  7948  0.99
      L1  H    12    38       P1  7948  1.00
      P1  H  6896  6907       L1    20  1.00
      P1  H  6896  6909       L1    15  0.39

> <Gold.PLP.Chemscore.Internal.Correction>
0.0375

> <Gold.Rescore>
     Score         DG    S(hbond)    S(metal)    S(lipo)     H(rot)  DE(clash)    DE(int)     intcor
     15.03     -17.19       3.00        0.00      60.97       2.13       0.00       2.16       ----

> <Gold.Chemscore.Fitness>
15.0267

> <Gold.Chemscore.DG>
-17.1863

> <Gold.Chemscore.ZeroCoef>
-5.4800

> <Gold.Chemscore.Hbond>
3.0045

> <Gold.Chemscore.Metal>
0.0000

> <Gold.Chemscore.Lipo>
60.9658

> <Gold.Chemscore.Internal_Hbond>
0.0000

> <Gold.Chemscore.DEClash>
0.0015

> <Gold.Chemscore.DEInternal>
2.1582

> <Gold.Chemscore.Rot>
2.1335

> <Gold.Chemscore.Internal.Correction>
   9.000000E+99

> <Gold.Chemscore.Hbonds>
donor molecule, donor type, donor heavy atom, donor atom, acceptor molecule, acceptor atom, score
      L1  H     9    37       P1  7948  0.74
      L1  H    12    38       P1  7948  0.39
      P1  H  6896  6907       L1    20  0.98
      P1  H  6896  6909       L1    15  0.37

> <Gold.Chemscore.Hbond.Weighted>
-10.0351

> <Gold.Chemscore.Metal.Weighted>
-0.0000

> <Gold.Chemscore.Lipo.Weighted>
-7.1330

> <Gold.Chemscore.Internal_Hbond.Weighted>
0.0000

> <Gold.Chemscore.DEClash.Weighted>
0.0015

> <Gold.Chemscore.DEInternal.Weighted>
2.1582

> <Gold.Chemscore.Rot.Weighted>
5.4618

> <Gold.Chemscore.Internal.Correction.Weighted>
   9.000000E+99

> <Gold.Protein.RotatedTorsions>
[ 6907 6896 6895 6894 ] final   -1.20 input  -60.11 | X-H torsion
[ 7974 7965 7964 7962 ] final  -41.92 input  175.53 | X-H torsion
[ 8008 7997 7996 7995 ] final   18.90 input   59.86 | X-H torsion
[ 10167 10162 10161 10158 ] final  168.58 input  -65.29 | X-H torsion
[ 10718 10713 10712 10709 ] final   88.45 input   66.30 | X-H torsion
[ 10763 10752 10751 10750 ] final   68.72 input  -60.55 | X-H torsion
[ 11005 11000 10999 10996 ] final   59.38 input  -57.11 | X-H torsion

> <Gold.Protein.ActiveResidues>
 VAL166  LYS551  ARG553  GLY616  TRP617  ASP618  TYR619  PRO620  LYS621  CYS622 
 ASP623  PHE694  ASN695  SER759  ASP760  ASP761  ALA762  ILE779  LEU786  VAL792 
 PHE793  MET794  SER795  GLU796  ALA797  LYS798  CYS799  TRP800  GLU811  SER814 

> <Gold.Protein.RotatedAtoms>
  151.5499  135.1067  159.9946 H   0  0  0  0  0  0  0  0  0  0  0  0  # atno 6907 bound_to 6896
  152.4496  133.7599  159.6751 H   0  0  0  0  0  0  0  0  0  0  0  0  # atno 6908 bound_to 6896
  150.8421  133.7852  159.3081 H   0  0  0  0  0  0  0  0  0  0  0  0  # atno 6909 bound_to 6896
  146.0165  140.6902  142.9199 H   0  0  0  0  0  0  0  0  0  0  0  0  # atno 7974 bound_to 7965
  154.9128  140.3016  155.5257 H   0  0  0  0  0  0  0  0  0  0  0  0  # atno 8008 bound_to 7997
  156.3014  140.2386  156.4105 H   0  0  0  0  0  0  0  0  0  0  0  0  # atno 8009 bound_to 7997
  154.8408  140.0414  157.1529 H   0  0  0  0  0  0  0  0  0  0  0  0  # atno 8010 bound_to 7997
  139.4971  144.3799  151.9633 H   0  0  0  0  0  0  0  0  0  0  0  0  # atno 10167 bound_to 10162
  157.6949  131.0295  150.3276 H   0  0  0  0  0  0  0  0  0  0  0  0  # atno 10718 bound_to 10713
  153.0250  135.5237  154.7178 H   0  0  0  0  0  0  0  0  0  0  0  0  # atno 10763 bound_to 10752
  154.6242  135.2892  155.0294 H   0  0  0  0  0  0  0  0  0  0  0  0  # atno 10764 bound_to 10752
  154.1269  135.6599  153.4966 H   0  0  0  0  0  0  0  0  0  0  0  0  # atno 10765 bound_to 10752
  140.0308  134.6015  155.9510 H   0  0  0  0  0  0  0  0  0  0  0  0  # atno 11005 bound_to 11000
  144.6973  140.3490  143.7185 LP  0  0  0  0  0  0  0  0  0  0  0  0  # atno 17320 bound_to 7965
  145.7260  139.1723  143.2457 LP  0  0  0  0  0  0  0  0  0  0  0  0  # atno 17321 bound_to 7965
  140.3236  144.3399  150.6003 LP  0  0  0  0  0  0  0  0  0  0  0  0  # atno 17342 bound_to 10162
  140.5703  143.2181  151.7611 LP  0  0  0  0  0  0  0  0  0  0  0  0  # atno 17343 bound_to 10162
  156.3755  130.3871  149.7142 LP  0  0  0  0  0  0  0  0  0  0  0  0  # atno 17370 bound_to 10713
  156.4542  130.7921  151.2942 LP  0  0  0  0  0  0  0  0  0  0  0  0  # atno 17371 bound_to 10713
  141.1830  133.6550  156.5098 LP  0  0  0  0  0  0  0  0  0  0  0  0  # atno 17394 bound_to 11000
  140.4229  134.7171  157.4900 LP  0  0  0  0  0  0  0  0  0  0  0  0  # atno 17395 bound_to 11000

$$$$
