AV-unprocessed.smi:1433|AV-procd|sdf|5836|dock2
  -GOLD-   22720 5493D 1   1.00000     0.00000
 Structure written by MMmdl.
 44 45  0  0  0  0  0  0  0  0  1 V2000
  152.4297  139.0972  155.3750 C   0  0  0  0  0  0  0  0  0  0  0  0
  151.0730  138.9575  154.6765 C   0  0  1  0  0  0  0  0  0  0  0  0
  150.2051  137.8513  155.3060 C   0  0  0  0  0  0  0  0  0  0  0  0
  148.8737  137.7525  154.6981 N   0  0  0  0  0  0  0  0  0  0  0  0
  148.0414  136.6971  155.3217 C   0  0  2  0  0  0  0  0  0  0  0  0
  148.8417  135.4030  155.6235 C   0  0  0  0  0  0  0  0  0  0  0  0
  146.7875  136.3275  154.4819 C   0  0  0  0  0  0  0  0  0  0  0  0
  147.0946  135.3688  153.4278 N   0  0  0  0  0  0  0  0  0  0  0  0
  146.5869  134.1308  153.3394 C   0  0  0  0  0  0  0  0  0  0  0  0
  145.8318  133.6448  154.1807 O   0  0  0  0  0  0  0  0  0  0  0  0
  146.9931  133.3154  152.1104 C   0  0  0  0  0  0  0  0  0  0  0  0
  145.8390  132.9874  151.2907 N   0  0  0  0  0  0  0  0  0  0  0  0
  145.7904  132.2082  150.1535 C   0  0  0  0  0  0  0  0  0  0  0  0
  144.4899  132.1742  149.7393 C   0  0  0  0  0  0  0  0  0  0  0  0
  143.8078  132.9715  150.7004 C   0  0  0  0  0  0  0  0  0  0  0  0
  144.6174  133.4574  151.6275 N   0  0  0  0  0  0  0  0  0  0  0  0
  148.2503  139.0789  154.7609 C   0  0  0  0  0  0  0  0  0  0  0  0
  149.1228  140.1830  154.1337 C   0  0  1  0  0  0  0  0  0  0  0  0
  148.4918  141.5719  154.2782 C   0  0  0  0  0  0  0  0  0  0  0  0
  150.3899  140.2003  154.7785 O   0  0  0  0  0  0  0  0  0  0  0  0
  153.0003  138.1701  155.3139 H   0  0  0  0  0  0  0  0  0  0  0  0
  152.3074  139.3463  156.4295 H   0  0  0  0  0  0  0  0  0  0  0  0
  153.0255  139.8850  154.9135 H   0  0  0  0  0  0  0  0  0  0  0  0
  151.2450  138.7317  153.6225 H   0  0  0  0  0  0  0  0  0  0  0  0
  150.7485  136.9155  155.1887 H   0  0  0  0  0  0  0  0  0  0  0  0
  150.1080  138.0294  156.3783 H   0  0  0  0  0  0  0  0  0  0  0  0
  147.6807  137.0770  156.2790 H   0  0  0  0  0  0  0  0  0  0  0  0
  148.2181  134.6095  156.0341 H   0  0  0  0  0  0  0  0  0  0  0  0
  149.6194  135.5621  156.3692 H   0  0  0  0  0  0  0  0  0  0  0  0
  149.3136  135.0127  154.7212 H   0  0  0  0  0  0  0  0  0  0  0  0
  146.0181  135.8555  155.0906 H   0  0  0  0  0  0  0  0  0  0  0  0
  146.3512  137.2314  154.0534 H   0  0  0  0  0  0  0  0  0  0  0  0
  147.7083  135.6822  152.6894 H   0  0  0  0  0  0  0  0  0  0  0  0
  147.7178  133.8751  151.5167 H   0  0  0  0  0  0  0  0  0  0  0  0
  147.4776  132.3881  152.4190 H   0  0  0  0  0  0  0  0  0  0  0  0
  146.6758  131.7467  149.7410 H   0  0  0  0  0  0  0  0  0  0  0  0
  144.0874  131.6573  148.8807 H   0  0  0  0  0  0  0  0  0  0  0  0
  142.7558  133.2099  150.7517 H   0  0  0  0  0  0  0  0  0  0  0  0
  147.3041  139.0836  154.2241 H   0  0  0  0  0  0  0  0  0  0  0  0
  148.0287  139.3329  155.7985 H   0  0  0  0  0  0  0  0  0  0  0  0
  149.2677  139.9744  153.0722 H   0  0  0  0  0  0  0  0  0  0  0  0
  147.5185  141.6139  153.7888 H   0  0  0  0  0  0  0  0  0  0  0  0
  149.1242  142.3361  153.8253 H   0  0  0  0  0  0  0  0  0  0  0  0
  148.3514  141.8345  155.3272 H   0  0  0  0  0  0  0  0  0  0  0  0
  1  2  1  0  0  0  0
  1 21  1  0  0  0  0
  1 22  1  0  0  0  0
  1 23  1  0  0  0  0
  2 20  1  0  0  0  0
  2  3  1  0  0  0  0
  2 24  1  0  0  0  0
  3  4  1  0  0  0  0
  3 25  1  0  0  0  0
  3 26  1  0  0  0  0
  4  5  1  0  0  0  0
  4 17  1  0  0  0  0
  5  6  1  0  0  0  0
  5  7  1  0  0  0  0
  5 27  1  0  0  0  0
  6 28  1  0  0  0  0
  6 29  1  0  0  0  0
  6 30  1  0  0  0  0
  7  8  1  0  0  0  0
  7 31  1  0  0  0  0
  7 32  1  0  0  0  0
  8  9  1  0  0  0  0
  8 33  1  0  0  0  0
  9 10  2  0  0  0  0
  9 11  1  0  0  0  0
 11 12  1  0  0  0  0
 11 34  1  0  0  0  0
 11 35  1  0  0  0  0
 12 16  1  0  0  0  0
 12 13  1  0  0  0  0
 13 14  2  0  0  0  0
 13 36  1  0  0  0  0
 14 15  1  0  0  0  0
 14 37  1  0  0  0  0
 15 16  2  0  0  0  0
 15 38  1  0  0  0  0
 17 18  1  0  0  0  0
 17 39  1  0  0  0  0
 17 40  1  0  0  0  0
 18 19  1  0  0  0  0
 18 20  1  0  0  0  0
 18 41  1  0  0  0  0
 19 42  1  0  0  0  0
 19 43  1  0  0  0  0
 19 44  1  0  0  0  0
M  END
> <s_m_source_file>
AV-unprocessed.smi

> <i_m_source_file_index>
1433

> <i_lp_mmshare_version>
43012

> <i_f3d_flags>
0

> <s_epik_input>
W0NIM11bQ0BASF0xW0NIMl1OKFtDSDJdW0NASF0oTzEpW0NIM10pW0NASF0oW0NIM10pW0NIMl1bTkhdQyg9TylbQ0gyXW4yW2NIXVtjSF1bY0hdbjI=

> <s_epik_cmdline>
J2VwaWtfcHl0aG9uJywgJy1waCcsICc3LjAnLCAnLXRuJywgJzgnLCAnLW1hJywgJzIwMCcsICctbWV0YWxfYmluZGluZycsICctaW1hZScsICc8aW5maWxlLm1hZT4nLCAnLW9tYWUnLCAnPG91dGZpbGUubWFlPic=

> <r_lp_tautomer_probability>
1

> <r_epik_Ionization_Penalty>
0.196927

> <r_epik_Ionization_Penalty_Charging>
0

> <r_epik_Ionization_Penalty_Neutral>
0.196927

> <r_epik_State_Penalty>
0.186684

> <r_epik_Charging_Adjusted_Penalty>
0.186684

> <i_epik_Tot_Q>
0

> <i_epik_Tot_abs_Q>
0

> <r_epik_Metal_State_Penalty>
0.186682

> <b_epik_Metal_Only>
0

> <s_lp_Force_Field>
OPLS_2005

> <r_lp_Energy>
26.9477

> <b_lp_Chiralities_Consistent>
1

> <s_lp_Variant>
AV-unprocessed.smi:1433-2

> <Gold.Version>
5.8.1

> <Gold.Id.Protein>
6NUR|6NUR_protein|mol2

> <Gold.PLP.Fitness>
42.4891

> <Gold.PLP.PLP>
-33.4468

> <Gold.PLP.part.hbond>
-1.9532

> <Gold.PLP.part.metal>
0.0000

> <Gold.PLP.part.buried>
-4.4257

> <Gold.PLP.part.nonpolar>
-28.3744

> <Gold.PLP.part.repulsive>
0.4371

> <Gold.PLP.ligand.clash>
0.0000

> <Gold.PLP.ligand.torsion>
0.4497

> <Gold.PLP.Chemscore.Hbond>
1.3000

> <Gold.PLP.Chemscore.CHOScore>
2.0000

> <Gold.PLP.Chemscore.Metal>
0.0000

> <Gold.Chemscore.Hbonds>
donor molecule, donor type, donor heavy atom, donor atom, acceptor molecule, acceptor atom, score
      L1  H     8    33       P1  7948  1.00
      P1  H  7989  7998       L1    20  0.35
      L1  C    13    36       P1 10747  1.00
      L1  C    15    38       P1 10186  1.00

> <Gold.PLP.Chemscore.Internal.Correction>
0.0417

> <Gold.Rescore>
     Score         DG    S(hbond)    S(metal)    S(lipo)     H(rot)  DE(clash)    DE(int)     intcor
     11.84     -13.69       0.98        0.00      81.59       1.80       0.12       1.73       ----

> <Gold.Chemscore.Fitness>
11.8416

> <Gold.Chemscore.DG>
-13.6925

> <Gold.Chemscore.ZeroCoef>
-5.4800

> <Gold.Chemscore.Hbond>
0.9832

> <Gold.Chemscore.Metal>
0.0000

> <Gold.Chemscore.Lipo>
81.5930

> <Gold.Chemscore.Internal_Hbond>
0.0000

> <Gold.Chemscore.DEClash>
0.1217

> <Gold.Chemscore.DEInternal>
1.7292

> <Gold.Chemscore.Rot>
1.8038

> <Gold.Chemscore.Internal.Correction>
   9.000000E+99

> <Gold.Chemscore.Hbonds>
donor molecule, donor type, donor heavy atom, donor atom, acceptor molecule, acceptor atom, score
      L1  H     8    33       P1  7948  0.97

> <Gold.Chemscore.Hbond.Weighted>
-3.2839

> <Gold.Chemscore.Metal.Weighted>
-0.0000

> <Gold.Chemscore.Lipo.Weighted>
-9.5464

> <Gold.Chemscore.Internal_Hbond.Weighted>
0.0000

> <Gold.Chemscore.DEClash.Weighted>
0.1217

> <Gold.Chemscore.DEInternal.Weighted>
1.7292

> <Gold.Chemscore.Rot.Weighted>
4.6178

> <Gold.Chemscore.Internal.Correction.Weighted>
   9.000000E+99

> <Gold.Protein.RotatedTorsions>
[ 6907 6896 6895 6894 ] final  154.90 input  -60.11 | X-H torsion
[ 7974 7965 7964 7962 ] final -141.85 input  175.53 | X-H torsion
[ 8008 7997 7996 7995 ] final  125.50 input   59.86 | X-H torsion
[ 10167 10162 10161 10158 ] final   54.59 input  -65.29 | X-H torsion
[ 10718 10713 10712 10709 ] final  128.05 input   66.30 | X-H torsion
[ 10763 10752 10751 10750 ] final -173.55 input  -60.55 | X-H torsion
[ 11005 11000 10999 10996 ] final   81.49 input  -57.11 | X-H torsion

> <Gold.Protein.ActiveResidues>
 VAL166  LYS551  ARG553  GLY616  TRP617  ASP618  TYR619  PRO620  LYS621  CYS622 
 ASP623  PHE694  ASN695  SER759  ASP760  ASP761  ALA762  ILE779  LEU786  VAL792 
 PHE793  MET794  SER795  GLU796  ALA797  LYS798  CYS799  TRP800  GLU811  SER814 

> <Gold.Protein.RotatedAtoms>
  152.0518  133.4022  159.4380 H   0  0  0  0  0  0  0  0  0  0  0  0  # atno 6907 bound_to 6896
  150.6870  134.3299  159.4832 H   0  0  0  0  0  0  0  0  0  0  0  0  # atno 6908 bound_to 6896
  152.1110  134.9274  160.0617 H   0  0  0  0  0  0  0  0  0  0  0  0  # atno 6909 bound_to 6896
  144.8488  140.6030  143.5404 H   0  0  0  0  0  0  0  0  0  0  0  0  # atno 7974 bound_to 7965
  156.2836  140.2715  156.1960 H   0  0  0  0  0  0  0  0  0  0  0  0  # atno 8008 bound_to 7997
  155.0410  140.0386  157.2527 H   0  0  0  0  0  0  0  0  0  0  0  0  # atno 8009 bound_to 7997
  154.7275  140.2700  155.6491 H   0  0  0  0  0  0  0  0  0  0  0  0  # atno 8010 bound_to 7997
  140.2285  144.3712  150.6423 H   0  0  0  0  0  0  0  0  0  0  0  0  # atno 10167 bound_to 10162
  157.5279  131.1098  150.9055 H   0  0  0  0  0  0  0  0  0  0  0  0  # atno 10718 bound_to 10713
  154.6066  135.2860  155.0478 H   0  0  0  0  0  0  0  0  0  0  0  0  # atno 10763 bound_to 10752
  154.1723  135.6470  153.5016 H   0  0  0  0  0  0  0  0  0  0  0  0  # atno 10764 bound_to 10752
  153.0178  135.5404  154.6804 H   0  0  0  0  0  0  0  0  0  0  0  0  # atno 10765 bound_to 10752
  139.9096  134.8000  156.2048 H   0  0  0  0  0  0  0  0  0  0  0  0  # atno 11005 bound_to 11000
  145.4543  139.1520  143.3901 LP  0  0  0  0  0  0  0  0  0  0  0  0  # atno 17320 bound_to 7965
  146.2767  140.4670  142.8792 LP  0  0  0  0  0  0  0  0  0  0  0  0  # atno 17321 bound_to 7965
  140.6202  143.2175  151.6709 LP  0  0  0  0  0  0  0  0  0  0  0  0  # atno 17342 bound_to 10162
  139.5118  144.3496  152.0664 LP  0  0  0  0  0  0  0  0  0  0  0  0  # atno 17343 bound_to 10162
  156.9645  130.5468  149.5287 LP  0  0  0  0  0  0  0  0  0  0  0  0  # atno 17370 bound_to 10713
  156.0400  130.5484  150.8748 LP  0  0  0  0  0  0  0  0  0  0  0  0  # atno 17371 bound_to 10713
  141.0502  133.6892  156.1758 LP  0  0  0  0  0  0  0  0  0  0  0  0  # atno 17394 bound_to 11000
  140.6822  134.4755  157.5589 LP  0  0  0  0  0  0  0  0  0  0  0  0  # atno 17395 bound_to 11000

$$$$
