AV-unprocessed.smi:1940|AV-procd|sdf|7837|dock1
  -GOLD-   22720 9583D 1   1.00000     0.00000
 Structure written by MMmdl.
 49 51  0  0  0  0  0  0  0  0  1 V2000
  144.3453  137.1897  152.7533 C   0  0  0  0  0  0  0  0  0  0  0  0
  145.3528  136.0347  152.8649 C   0  0  2  0  0  0  0  0  0  0  0  0
  146.6785  136.5894  153.1337 N   0  0  0  0  0  0  0  0  0  0  0  0
  146.9773  137.4801  154.0905 C   0  0  0  0  0  0  0  0  0  0  0  0
  146.1457  137.9598  154.8605 O   0  0  0  0  0  0  0  0  0  0  0  0
  148.2868  137.7839  154.0762 N   0  0  0  0  0  0  0  0  0  0  0  0
  148.9949  138.6798  154.9223 C   0  0  0  0  0  0  0  0  0  0  0  0
  148.6115  138.9932  156.2482 C   0  0  0  0  0  0  0  0  0  0  0  0
  149.4035  139.8886  156.9918 C   0  0  0  0  0  0  0  0  0  0  0  0
  150.5571  140.4354  156.3937 C   0  0  0  0  0  0  0  0  0  0  0  0
  151.3425  141.3353  157.1278 N   0  0  0  0  0  0  0  0  0  0  0  0
  151.8632  140.7643  158.3674 C   0  0  0  0  0  0  0  0  0  0  0  0
  152.8920  141.7087  159.0131 C   0  0  0  0  0  0  0  0  0  0  0  0
  152.2984  143.1122  159.2168 C   0  0  0  0  0  0  0  0  0  0  0  0
  151.7340  143.6492  157.8912 C   0  0  0  0  0  0  0  0  0  0  0  0
  150.7333  142.6546  157.2775 C   0  0  0  0  0  0  0  0  0  0  0  0
  150.9401  140.1276  155.1320 N   0  0  0  0  0  0  0  0  0  0  0  0
  150.1761  139.2683  154.4246 C   0  0  0  0  0  0  0  0  0  0  0  0
  145.4076  135.1719  151.5884 C   0  0  2  0  0  0  0  0  0  0  0  0
  144.0899  134.4829  151.2279 C   0  0  0  0  0  0  0  0  0  0  0  0
  144.5701  133.3079  150.4079 C   0  0  0  0  0  0  0  0  0  0  0  0
  145.8365  132.9063  151.1566 C   0  0  0  0  0  0  0  0  0  0  0  0
  146.3382  134.1017  151.7492 O   0  0  0  0  0  0  0  0  0  0  0  0
  143.3301  136.8193  152.6105 H   0  0  0  0  0  0  0  0  0  0  0  0
  144.5822  137.8450  151.9145 H   0  0  0  0  0  0  0  0  0  0  0  0
  144.3434  137.7960  153.6599 H   0  0  0  0  0  0  0  0  0  0  0  0
  145.0355  135.3967  153.6917 H   0  0  0  0  0  0  0  0  0  0  0  0
  147.4313  136.2561  152.5499 H   0  0  0  0  0  0  0  0  0  0  0  0
  148.8303  137.3701  153.3330 H   0  0  0  0  0  0  0  0  0  0  0  0
  147.7396  138.5599  156.7127 H   0  0  0  0  0  0  0  0  0  0  0  0
  149.1298  140.1466  158.0045 H   0  0  0  0  0  0  0  0  0  0  0  0
  151.0388  140.5866  159.0597 H   0  0  0  0  0  0  0  0  0  0  0  0
  152.3238  139.7968  158.1633 H   0  0  0  0  0  0  0  0  0  0  0  0
  153.2270  141.3004  159.9668 H   0  0  0  0  0  0  0  0  0  0  0  0
  153.7755  141.7751  158.3766 H   0  0  0  0  0  0  0  0  0  0  0  0
  151.5038  143.0695  159.9627 H   0  0  0  0  0  0  0  0  0  0  0  0
  153.0578  143.7906  159.6064 H   0  0  0  0  0  0  0  0  0  0  0  0
  151.2523  144.6140  158.0514 H   0  0  0  0  0  0  0  0  0  0  0  0
  152.5516  143.8232  157.1905 H   0  0  0  0  0  0  0  0  0  0  0  0
  150.3965  143.0180  156.3057 H   0  0  0  0  0  0  0  0  0  0  0  0
  149.8509  142.5783  157.9145 H   0  0  0  0  0  0  0  0  0  0  0  0
  150.5173  139.0495  153.4232 H   0  0  0  0  0  0  0  0  0  0  0  0
  145.7386  135.7724  150.7390 H   0  0  0  0  0  0  0  0  0  0  0  0
  143.5817  134.1261  152.1251 H   0  0  0  0  0  0  0  0  0  0  0  0
  143.4048  135.1313  150.6810 H   0  0  0  0  0  0  0  0  0  0  0  0
  143.8399  132.5011  150.3418 H   0  0  0  0  0  0  0  0  0  0  0  0
  144.8160  133.6326  149.3960 H   0  0  0  0  0  0  0  0  0  0  0  0
  145.6005  132.1994  151.9529 H   0  0  0  0  0  0  0  0  0  0  0  0
  146.5762  132.4448  150.5023 H   0  0  0  0  0  0  0  0  0  0  0  0
  1  2  1  0  0  0  0
  1 24  1  0  0  0  0
  1 25  1  0  0  0  0
  1 26  1  0  0  0  0
  2  3  1  0  0  0  0
  2 19  1  0  0  0  0
  2 27  1  0  0  0  0
  3  4  1  0  0  0  0
  3 28  1  0  0  0  0
  4  5  2  0  0  0  0
  4  6  1  0  0  0  0
  6  7  1  0  0  0  0
  6 29  1  0  0  0  0
  7 18  1  0  0  0  0
  7  8  2  0  0  0  0
  8  9  1  0  0  0  0
  8 30  1  0  0  0  0
  9 10  2  0  0  0  0
  9 31  1  0  0  0  0
 10 11  1  0  0  0  0
 10 17  1  0  0  0  0
 11 16  1  0  0  0  0
 11 12  1  0  0  0  0
 12 13  1  0  0  0  0
 12 32  1  0  0  0  0
 12 33  1  0  0  0  0
 13 14  1  0  0  0  0
 13 34  1  0  0  0  0
 13 35  1  0  0  0  0
 14 15  1  0  0  0  0
 14 36  1  0  0  0  0
 14 37  1  0  0  0  0
 15 16  1  0  0  0  0
 15 38  1  0  0  0  0
 15 39  1  0  0  0  0
 16 40  1  0  0  0  0
 16 41  1  0  0  0  0
 17 18  2  0  0  0  0
 18 42  1  0  0  0  0
 19 23  1  0  0  0  0
 19 20  1  0  0  0  0
 19 43  1  0  0  0  0
 20 21  1  0  0  0  0
 20 44  1  0  0  0  0
 20 45  1  0  0  0  0
 21 22  1  0  0  0  0
 21 46  1  0  0  0  0
 21 47  1  0  0  0  0
 22 23  1  0  0  0  0
 22 48  1  0  0  0  0
 22 49  1  0  0  0  0
M  END
> <s_m_source_file>
AV-unprocessed.smi

> <i_m_source_file_index>
1940

> <i_lp_mmshare_version>
43012

> <i_f3d_flags>
0

> <s_epik_input>
TzFbQ0gyXVtDSDJdW0NIMl1bQ0BIXTFbQ0BIXShbQ0gzXSlbTkhdQyg9TylbTkhdYzJbY0hdW2NIXWMobltjSF0yKU4zW0NIMl1bQ0gyXVtDSDJdW0NIMl1bQ0gyXTM=

> <s_epik_cmdline>
J2VwaWtfcHl0aG9uJywgJy1waCcsICc3LjAnLCAnLXRuJywgJzgnLCAnLW1hJywgJzIwMCcsICctbWV0YWxfYmluZGluZycsICctaW1hZScsICc8aW5maWxlLm1hZT4nLCAnLW9tYWUnLCAnPG91dGZpbGUubWFlPic=

> <r_lp_tautomer_probability>
1

> <r_epik_Ionization_Penalty>
0.105688

> <r_epik_Ionization_Penalty_Charging>
0

> <r_epik_Ionization_Penalty_Neutral>
0.105688

> <r_epik_State_Penalty>
0.0895745

> <r_epik_Charging_Adjusted_Penalty>
0.0895745

> <i_epik_Tot_Q>
0

> <i_epik_Tot_abs_Q>
0

> <r_epik_Metal_State_Penalty>
0.0765749

> <b_epik_Metal_Only>
0

> <s_lp_Force_Field>
OPLS_2005

> <r_lp_Energy>
35.6484

> <b_lp_Chiralities_Consistent>
1

> <s_lp_Variant>
AV-unprocessed.smi:1940-1

> <Gold.Version>
5.8.1

> <Gold.Id.Protein>
6NUR|6NUR_protein|mol2

> <Gold.PLP.Fitness>
46.0027

> <Gold.PLP.PLP>
-36.0902

> <Gold.PLP.part.hbond>
-3.0000

> <Gold.PLP.part.metal>
0.0000

> <Gold.PLP.part.buried>
-5.5805

> <Gold.PLP.part.nonpolar>
-28.6820

> <Gold.PLP.part.repulsive>
0.3188

> <Gold.PLP.ligand.clash>
0.0000

> <Gold.PLP.ligand.torsion>
0.3765

> <Gold.PLP.Chemscore.Hbond>
2.4920

> <Gold.PLP.Chemscore.CHOScore>
1.0000

> <Gold.PLP.Chemscore.Metal>
0.0000

> <Gold.Chemscore.Hbonds>
donor molecule, donor type, donor heavy atom, donor atom, acceptor molecule, acceptor atom, score
      L1  H     3    28       P1  7948  1.00
      L1  H     6    29       P1  7948  1.00
      P1  H  7989  7998       L1    17  0.55
      L1  C    18    42       P1  7957  0.76

> <Gold.PLP.Chemscore.Internal.Correction>
0.1896

> <Gold.Rescore>
     Score         DG    S(hbond)    S(metal)    S(lipo)     H(rot)  DE(clash)    DE(int)     intcor
     17.36     -20.06       2.03        0.00      96.03       1.34       0.14       2.57       ----

> <Gold.Chemscore.Fitness>
17.3576

> <Gold.Chemscore.DG>
-20.0626

> <Gold.Chemscore.ZeroCoef>
-5.4800

> <Gold.Chemscore.Hbond>
2.0262

> <Gold.Chemscore.Metal>
0.0000

> <Gold.Chemscore.Lipo>
96.0252

> <Gold.Chemscore.Internal_Hbond>
0.0000

> <Gold.Chemscore.DEClash>
0.1355

> <Gold.Chemscore.DEInternal>
2.5695

> <Gold.Chemscore.Rot>
1.3359

> <Gold.Chemscore.Internal.Correction>
   9.000000E+99

> <Gold.Chemscore.Hbonds>
donor molecule, donor type, donor heavy atom, donor atom, acceptor molecule, acceptor atom, score
      L1  H     3    28       P1  7948  0.99
      L1  H     6    29       P1  7948  0.95
      P1  H  7989  7998       L1    17  0.03

> <Gold.Chemscore.Hbond.Weighted>
-6.7675

> <Gold.Chemscore.Metal.Weighted>
-0.0000

> <Gold.Chemscore.Lipo.Weighted>
-11.2350

> <Gold.Chemscore.Internal_Hbond.Weighted>
0.0000

> <Gold.Chemscore.DEClash.Weighted>
0.1355

> <Gold.Chemscore.DEInternal.Weighted>
2.5695

> <Gold.Chemscore.Rot.Weighted>
3.4199

> <Gold.Chemscore.Internal.Correction.Weighted>
   9.000000E+99

> <Gold.Protein.RotatedTorsions>
[ 6907 6896 6895 6894 ] final  152.34 input  -60.11 | X-H torsion
[ 7974 7965 7964 7962 ] final  -17.85 input  175.53 | X-H torsion
[ 8008 7997 7996 7995 ] final -136.73 input   59.86 | X-H torsion
[ 10167 10162 10161 10158 ] final -163.66 input  -65.29 | X-H torsion
[ 10718 10713 10712 10709 ] final -104.42 input   66.30 | X-H torsion
[ 10763 10752 10751 10750 ] final   74.29 input  -60.55 | X-H torsion
[ 11005 11000 10999 10996 ] final   75.24 input  -57.11 | X-H torsion

> <Gold.Protein.ActiveResidues>
 VAL166  LYS551  ARG553  GLY616  TRP617  ASP618  TYR619  PRO620  LYS621  CYS622 
 ASP623  PHE694  ASN695  SER759  ASP760  ASP761  ALA762  ILE779  LEU786  VAL792 
 PHE793  MET794  SER795  GLU796  ALA797  LYS798  CYS799  TRP800  GLU811  SER814 

> <Gold.Protein.RotatedAtoms>
  152.0881  133.4186  159.4531 H   0  0  0  0  0  0  0  0  0  0  0  0  # atno 6907 bound_to 6896
  150.6862  134.2903  159.4673 H   0  0  0  0  0  0  0  0  0  0  0  0  # atno 6908 bound_to 6896
  152.0752  134.9507  160.0625 H   0  0  0  0  0  0  0  0  0  0  0  0  # atno 6909 bound_to 6896
  146.1921  140.3838  142.8454 H   0  0  0  0  0  0  0  0  0  0  0  0  # atno 7974 bound_to 7965
  155.4001  140.0505  157.3037 H   0  0  0  0  0  0  0  0  0  0  0  0  # atno 8008 bound_to 7997
  154.4994  140.2151  155.9338 H   0  0  0  0  0  0  0  0  0  0  0  0  # atno 8009 bound_to 7997
  156.1448  140.3147  155.8558 H   0  0  0  0  0  0  0  0  0  0  0  0  # atno 8010 bound_to 7997
  139.6305  144.0449  152.2012 H   0  0  0  0  0  0  0  0  0  0  0  0  # atno 10167 bound_to 10162
  156.0304  130.5514  150.7394 H   0  0  0  0  0  0  0  0  0  0  0  0  # atno 10718 bound_to 10713
  153.0577  135.5031  154.8021 H   0  0  0  0  0  0  0  0  0  0  0  0  # atno 10763 bound_to 10752
  154.6834  135.2972  154.9584 H   0  0  0  0  0  0  0  0  0  0  0  0  # atno 10764 bound_to 10752
  154.0363  135.6723  153.4838 H   0  0  0  0  0  0  0  0  0  0  0  0  # atno 10765 bound_to 10752
  139.9353  134.7501  156.1247 H   0  0  0  0  0  0  0  0  0  0  0  0  # atno 11005 bound_to 11000
  144.8507  140.6996  143.6170 LP  0  0  0  0  0  0  0  0  0  0  0  0  # atno 17320 bound_to 7965
  145.3760  139.1647  143.4306 LP  0  0  0  0  0  0  0  0  0  0  0  0  # atno 17321 bound_to 7965
  140.0113  144.6222  150.7645 LP  0  0  0  0  0  0  0  0  0  0  0  0  # atno 17342 bound_to 10162
  140.7436  143.2849  151.3493 LP  0  0  0  0  0  0  0  0  0  0  0  0  # atno 17343 bound_to 10162
  157.4967  131.0915  151.0363 LP  0  0  0  0  0  0  0  0  0  0  0  0  # atno 17370 bound_to 10713
  157.0755  130.5881  149.5410 LP  0  0  0  0  0  0  0  0  0  0  0  0  # atno 17371 bound_to 10713
  141.0963  133.6694  156.2653 LP  0  0  0  0  0  0  0  0  0  0  0  0  # atno 17394 bound_to 11000
  140.6093  134.5475  157.5531 LP  0  0  0  0  0  0  0  0  0  0  0  0  # atno 17395 bound_to 11000

$$$$
