AV-unprocessed.smi:1487|AV-procd|sdf|6021|dock2
  -GOLD-   22720 6123D 1   1.00000     0.00000
 Structure written by MMmdl.
 49 51  0  0  0  0  0  0  0  0  3 V2000
  152.7231  142.4981  160.9941 C   0  0  0  0  0  0  0  0  0  0  0  0
  152.3278  141.9114  159.6495 C   0  0  0  0  0  0  0  0  0  0  0  0
  151.4223  142.6324  158.8395 C   0  0  0  0  0  0  0  0  0  0  0  0
  151.0786  142.0697  157.6160 C   0  0  0  0  0  0  0  0  0  0  0  0
  150.2253  142.5256  156.6095 N   0  3  0  0  0  0  0  0  0  0  0  0
  150.2033  141.6244  155.5893 C   0  0  0  0  0  0  0  0  0  0  0  0
  151.0348  140.6007  155.9265 N   0  0  0  0  0  0  0  0  0  0  0  0
  151.3534  139.3730  155.1833 C   0  0  0  0  0  0  0  0  0  0  0  0
  150.1335  138.4520  154.9784 C   0  0  2  0  0  0  0  0  0  0  0  0
  150.5223  137.4486  154.0620 O   0  0  0  0  0  0  0  0  0  0  0  0
  148.8899  139.1878  154.4295 C   0  0  0  0  0  0  0  0  0  0  0  0
  147.9370  138.2902  153.7261 N   0  3  2  0  0  0  0  0  0  0  0  0
  147.0360  139.0414  152.8131 C   0  0  0  0  0  0  0  0  0  0  0  0
  146.1576  138.0879  151.9861 C   0  0  0  0  0  0  0  0  0  0  0  0
  145.3492  137.1569  152.8982 C   0  0  0  0  0  0  0  0  0  0  0  0
  146.2954  136.4130  153.8520 C   0  0  2  0  0  0  0  0  0  0  0  0
  145.5350  135.6316  154.7486 O   0  0  0  0  0  0  0  0  0  0  0  0
  147.1696  137.4039  154.6428 C   0  0  0  0  0  0  0  0  0  0  0  0
  151.6004  140.8334  157.1870 C   0  0  0  0  0  0  0  0  0  0  0  0
  152.4945  140.1102  157.9743 C   0  0  0  0  0  0  0  0  0  0  0  0
  152.8572  140.6663  159.2220 C   0  0  0  0  0  0  0  0  0  0  0  0
  153.8306  139.8998  160.1013 C   0  0  0  0  0  0  0  0  0  0  0  0
  152.2433  143.4622  161.1651 H   0  0  0  0  0  0  0  0  0  0  0  0
  153.8015  142.6499  161.0449 H   0  0  0  0  0  0  0  0  0  0  0  0
  152.4281  141.8310  161.8043 H   0  0  0  0  0  0  0  0  0  0  0  0
  151.0138  143.5801  159.1595 H   0  0  0  0  0  0  0  0  0  0  0  0
  149.6258  141.7051  154.6792 H   0  0  0  0  0  0  0  0  0  0  0  0
  151.8151  139.6346  154.2312 H   0  0  0  0  0  0  0  0  0  0  0  0
  152.1210  138.8491  155.7549 H   0  0  0  0  0  0  0  0  0  0  0  0
  149.9082  137.9713  155.9298 H   0  0  0  0  0  0  0  0  0  0  0  0
  149.8044  137.2710  153.4740 H   0  0  0  0  0  0  0  0  0  0  0  0
  148.3559  139.7012  155.2298 H   0  0  0  0  0  0  0  0  0  0  0  0
  149.2311  139.9649  153.7437 H   0  0  0  0  0  0  0  0  0  0  0  0
  146.4108  139.7208  153.3948 H   0  0  0  0  0  0  0  0  0  0  0  0
  147.6268  139.6576  152.1339 H   0  0  0  0  0  0  0  0  0  0  0  0
  145.4840  138.6603  151.3475 H   0  0  0  0  0  0  0  0  0  0  0  0
  146.7861  137.4950  151.3202 H   0  0  0  0  0  0  0  0  0  0  0  0
  144.6253  137.7416  153.4678 H   0  0  0  0  0  0  0  0  0  0  0  0
  144.7773  136.4479  152.2983 H   0  0  0  0  0  0  0  0  0  0  0  0
  146.9343  135.7406  153.2776 H   0  0  0  0  0  0  0  0  0  0  0  0
  144.6790  135.4838  154.3758 H   0  0  0  0  0  0  0  0  0  0  0  0
  147.8476  136.8418  155.2836 H   0  0  0  0  0  0  0  0  0  0  0  0
  146.5487  138.0158  155.2997 H   0  0  0  0  0  0  0  0  0  0  0  0
  152.9005  139.1621  157.6546 H   0  0  0  0  0  0  0  0  0  0  0  0
  154.1339  138.9603  159.6384 H   0  0  0  0  0  0  0  0  0  0  0  0
  153.3740  139.6644  161.0629 H   0  0  0  0  0  0  0  0  0  0  0  0
  154.7304  140.4890  160.2797 H   0  0  0  0  0  0  0  0  0  0  0  0
  148.4943  137.6913  153.1338 H   0  0  0  0  0  0  0  0  0  0  0  0
  149.6906  143.3851  156.6194 H   0  0  0  0  0  0  0  0  0  0  0  0
  1  2  1  0  0  0  0
  1 23  1  0  0  0  0
  1 24  1  0  0  0  0
  1 25  1  0  0  0  0
  2 21  1  0  0  0  0
  2  3  2  0  0  0  0
  3  4  1  0  0  0  0
  3 26  1  0  0  0  0
  4 19  2  0  0  0  0
  4  5  1  0  0  0  0
  5  6  2  0  0  0  0
  5 49  1  0  0  0  0
  6  7  1  0  0  0  0
  6 27  1  0  0  0  0
  7  8  1  0  0  0  0
  7 19  1  0  0  0  0
  8  9  1  0  0  0  0
  8 28  1  0  0  0  0
  8 29  1  0  0  0  0
  9 10  1  0  0  0  0
  9 11  1  0  0  0  0
  9 30  1  0  0  0  0
 10 31  1  0  0  0  0
 11 12  1  0  0  0  0
 11 32  1  0  0  0  0
 11 33  1  0  0  0  0
 12 18  1  0  0  0  0
 12 13  1  0  0  0  0
 12 48  1  0  0  0  0
 13 14  1  0  0  0  0
 13 34  1  0  0  0  0
 13 35  1  0  0  0  0
 14 15  1  0  0  0  0
 14 36  1  0  0  0  0
 14 37  1  0  0  0  0
 15 16  1  0  0  0  0
 15 38  1  0  0  0  0
 15 39  1  0  0  0  0
 16 17  1  0  0  0  0
 16 18  1  0  0  0  0
 16 40  1  0  0  0  0
 17 41  1  0  0  0  0
 18 42  1  0  0  0  0
 18 43  1  0  0  0  0
 19 20  1  0  0  0  0
 20 21  2  0  0  0  0
 20 44  1  0  0  0  0
 21 22  1  0  0  0  0
 22 45  1  0  0  0  0
 22 46  1  0  0  0  0
 22 47  1  0  0  0  0
M  CHG  1   5   1
M  CHG  1  12   1
M  END
> <s_m_source_file>
AV-unprocessed.smi

> <i_m_source_file_index>
1487

> <i_lp_mmshare_version>
43012

> <i_f3d_flags>
0

> <s_epik_input>
W0NIM11jKFtjSF0xKWMoW0NIM10pW2NIXWMoYzEyKW4oW2NIXW4yKVtDSDJdW0NASF0oW09IXSlbQ0gyXU4zW0NIMl1bQ0gyXVtDSDJdW0NAQEhdKFtPSF0pW0NIMl0z

> <s_epik_cmdline>
J2VwaWtfcHl0aG9uJywgJy1waCcsICc3LjAnLCAnLXRuJywgJzgnLCAnLW1hJywgJzIwMCcsICctbWV0YWxfYmluZGluZycsICctaW1hZScsICc8aW5maWxlLm1hZT4nLCAnLW9tYWUnLCAnPG91dGZpbGUubWFlPic=

> <r_epik_Ionization_Penalty>
1.1857

> <r_epik_Ionization_Penalty_Charging>
1.1857

> <r_epik_Ionization_Penalty_Neutral>
1.75578e-06

> <r_epik_State_Penalty>
1.26953

> <r_epik_Charging_Adjusted_Penalty>
2.45524

> <i_epik_Tot_Q>
2

> <i_epik_Tot_abs_Q>
2

> <r_epik_Metal_State_Penalty>
5.28243

> <b_epik_Metal_Only>
0

> <s_lp_Force_Field>
OPLS_2005

> <r_lp_Energy>
34.3912

> <b_lp_Chiralities_Consistent>
1

> <s_lp_Variant>
AV-unprocessed.smi:1487-15

> <Gold.Version>
5.8.1

> <Gold.Id.Protein>
6NUR|6NUR_protein|mol2

> <Gold.PLP.Fitness>
56.0982

> <Gold.PLP.PLP>
-42.2026

> <Gold.PLP.part.hbond>
-4.0000

> <Gold.PLP.part.metal>
0.0000

> <Gold.PLP.part.buried>
-2.4746

> <Gold.PLP.part.nonpolar>
-35.7403

> <Gold.PLP.part.repulsive>
0.0765

> <Gold.PLP.ligand.clash>
0.0000

> <Gold.PLP.ligand.torsion>
0.4529

> <Gold.PLP.Chemscore.Hbond>
4.9100

> <Gold.PLP.Chemscore.CHOScore>
0.0000

> <Gold.PLP.Chemscore.Metal>
0.0000

> <Gold.Chemscore.Hbonds>
donor molecule, donor type, donor heavy atom, donor atom, acceptor molecule, acceptor atom, score
      L1  H     5    49       P1  8028  1.95
      L1  H    10    31       P1  7948  0.93
      L1  H    12    48       P1  7948  2.00

> <Gold.PLP.Chemscore.Internal.Correction>
0.0714

> <Gold.Rescore>
     Score         DG    S(hbond)    S(metal)    S(lipo)     H(rot)  DE(clash)    DE(int)     intcor
     17.79     -19.18       2.51        0.00     105.40       2.74       0.00       1.39       ----

> <Gold.Chemscore.Fitness>
17.7875

> <Gold.Chemscore.DG>
-19.1783

> <Gold.Chemscore.ZeroCoef>
-5.4800

> <Gold.Chemscore.Hbond>
2.5080

> <Gold.Chemscore.Metal>
0.0000

> <Gold.Chemscore.Lipo>
105.4020

> <Gold.Chemscore.Internal_Hbond>
0.0000

> <Gold.Chemscore.DEClash>
0.0048

> <Gold.Chemscore.DEInternal>
1.3860

> <Gold.Chemscore.Rot>
2.7384

> <Gold.Chemscore.Internal.Correction>
   9.000000E+99

> <Gold.Chemscore.Hbonds>
donor molecule, donor type, donor heavy atom, donor atom, acceptor molecule, acceptor atom, score
      L1  H     5    49       P1  8028  0.92
      L1  H    10    31       P1  7948  0.50
      L1  H    12    48       P1  7948  0.98

> <Gold.Chemscore.Hbond.Weighted>
-8.3766

> <Gold.Chemscore.Metal.Weighted>
-0.0000

> <Gold.Chemscore.Lipo.Weighted>
-12.3320

> <Gold.Chemscore.Internal_Hbond.Weighted>
0.0000

> <Gold.Chemscore.DEClash.Weighted>
0.0048

> <Gold.Chemscore.DEInternal.Weighted>
1.3860

> <Gold.Chemscore.Rot.Weighted>
7.0103

> <Gold.Chemscore.Internal.Correction.Weighted>
   9.000000E+99

> <Gold.Protein.RotatedTorsions>
[ 6907 6896 6895 6894 ] final   -9.66 input  -60.11 | X-H torsion
[ 7974 7965 7964 7962 ] final   69.09 input  175.53 | X-H torsion
[ 8008 7997 7996 7995 ] final -157.20 input   59.86 | X-H torsion
[ 10167 10162 10161 10158 ] final  -91.52 input  -65.29 | X-H torsion
[ 10718 10713 10712 10709 ] final  158.54 input   66.30 | X-H torsion
[ 10763 10752 10751 10750 ] final -120.60 input  -60.55 | X-H torsion
[ 11005 11000 10999 10996 ] final  -41.77 input  -57.11 | X-H torsion

> <Gold.Protein.ActiveResidues>
 VAL166  LYS551  ARG553  GLY616  TRP617  ASP618  TYR619  PRO620  LYS621  CYS622 
 ASP623  PHE694  ASN695  SER759  ASP760  ASP761  ALA762  ILE779  LEU786  VAL792 
 PHE793  MET794  SER795  GLU796  ALA797  LYS798  CYS799  TRP800  GLU811  SER814 

> <Gold.Protein.RotatedAtoms>
  151.4142  135.0989  159.9594 H   0  0  0  0  0  0  0  0  0  0  0  0  # atno 6907 bound_to 6896
  152.5010  133.8768  159.7337 H   0  0  0  0  0  0  0  0  0  0  0  0  # atno 6908 bound_to 6896
  150.9270  133.6755  159.2847 H   0  0  0  0  0  0  0  0  0  0  0  0  # atno 6909 bound_to 6896
  145.7947  139.2951  143.1190 H   0  0  0  0  0  0  0  0  0  0  0  0  # atno 7974 bound_to 7965
  155.7288  140.0799  157.2298 H   0  0  0  0  0  0  0  0  0  0  0  0  # atno 8008 bound_to 7997
  154.4035  140.1599  156.2539 H   0  0  0  0  0  0  0  0  0  0  0  0  # atno 8009 bound_to 7997
  155.9128  140.3403  155.6115 H   0  0  0  0  0  0  0  0  0  0  0  0  # atno 8010 bound_to 7997
  140.3440  143.2927  151.9803 H   0  0  0  0  0  0  0  0  0  0  0  0  # atno 10167 bound_to 10162
  157.1765  131.0622  151.2155 H   0  0  0  0  0  0  0  0  0  0  0  0  # atno 10718 bound_to 10713
  154.8648  135.4197  154.2485 H   0  0  0  0  0  0  0  0  0  0  0  0  # atno 10763 bound_to 10752
  153.3436  135.6995  153.6852 H   0  0  0  0  0  0  0  0  0  0  0  0  # atno 10764 bound_to 10752
  153.5820  135.3571  155.2851 H   0  0  0  0  0  0  0  0  0  0  0  0  # atno 10765 bound_to 10752
  141.0269  133.6837  156.2502 H   0  0  0  0  0  0  0  0  0  0  0  0  # atno 11005 bound_to 11000
  145.9940  140.8578  143.0052 LP  0  0  0  0  0  0  0  0  0  0  0  0  # atno 17320 bound_to 7965
  144.6777  140.2257  143.7361 LP  0  0  0  0  0  0  0  0  0  0  0  0  # atno 17321 bound_to 7965
  139.4836  144.6133  151.7394 LP  0  0  0  0  0  0  0  0  0  0  0  0  # atno 17342 bound_to 10162
  140.5282  144.0772  150.6044 LP  0  0  0  0  0  0  0  0  0  0  0  0  # atno 17343 bound_to 10162
  157.3994  130.7325  149.6756 LP  0  0  0  0  0  0  0  0  0  0  0  0  # atno 17370 bound_to 10713
  155.9730  130.4125  150.4034 LP  0  0  0  0  0  0  0  0  0  0  0  0  # atno 17371 bound_to 10713
  140.6476  134.5101  157.5575 LP  0  0  0  0  0  0  0  0  0  0  0  0  # atno 17394 bound_to 11000
  139.9182  134.8203  156.1298 LP  0  0  0  0  0  0  0  0  0  0  0  0  # atno 17395 bound_to 11000

$$$$
