AV-unprocessed.smi:1815|AV-procd|sdf|7355|dock9
  -GOLD-   22720 9 13D 1   1.00000     0.00000
 Structure written by MMmdl.
 40 41  0  0  0  0  0  0  0  0  2 V2000
  152.5702  138.7555  154.7249 C   0  0  0  0  0  0  0  0  0  0  0  0
  151.2176  138.1183  154.3880 C   0  0  2  0  0  0  0  0  0  0  0  0
  150.1597  139.1701  154.0049 C   0  0  0  0  0  0  0  0  0  0  0  0
  148.8476  138.5257  153.7596 N   0  3  2  0  0  0  0  0  0  0  0  0
  147.8146  139.4992  153.3259 C   0  0  0  0  0  0  0  0  0  0  0  0
  146.4789  138.8205  152.9654 C   0  0  0  0  0  0  0  0  0  0  0  0
  146.6875  137.4881  152.4098 N   0  0  0  0  0  0  0  0  0  0  0  0
  145.7166  136.5875  152.1991 C   0  0  0  0  0  0  0  0  0  0  0  0
  144.5325  136.7969  152.4648 O   0  0  0  0  0  0  0  0  0  0  0  0
  146.2078  135.4520  151.6730 N   0  0  0  0  0  0  0  0  0  0  0  0
  145.5021  134.2704  151.3242 C   0  0  0  0  0  0  0  0  0  0  0  0
  144.1694  134.1840  151.2402 N   0  0  0  0  0  0  0  0  0  0  0  0
  143.7490  132.9013  150.8790 C   0  0  0  0  0  0  0  0  0  0  0  0
  144.7824  132.0174  150.6919 C   0  0  0  0  0  0  0  0  0  0  0  0
  146.3338  132.7651  150.9615 S   0  0  0  0  0  0  0  0  0  0  0  0
  148.4456  137.7121  154.9333 C   0  0  0  0  0  0  0  0  0  0  0  0
  149.5505  136.7004  155.2928 C   0  0  2  0  0  0  0  0  0  0  0  0
  149.2087  135.8939  156.5504 C   0  0  0  0  0  0  0  0  0  0  0  0
  150.7656  137.4022  155.5320 O   0  0  0  0  0  0  0  0  0  0  0  0
  152.9680  139.3063  153.8722 H   0  0  0  0  0  0  0  0  0  0  0  0
  153.3017  137.9949  154.9986 H   0  0  0  0  0  0  0  0  0  0  0  0
  152.4830  139.4499  155.5611 H   0  0  0  0  0  0  0  0  0  0  0  0
  151.3602  137.4209  153.5606 H   0  0  0  0  0  0  0  0  0  0  0  0
  150.0574  139.9114  154.7994 H   0  0  0  0  0  0  0  0  0  0  0  0
  150.4816  139.7024  153.1089 H   0  0  0  0  0  0  0  0  0  0  0  0
  147.6688  140.2551  154.0992 H   0  0  0  0  0  0  0  0  0  0  0  0
  148.1837  140.0273  152.4454 H   0  0  0  0  0  0  0  0  0  0  0  0
  145.8308  138.7607  153.8415 H   0  0  0  0  0  0  0  0  0  0  0  0
  145.9389  139.4001  152.2176 H   0  0  0  0  0  0  0  0  0  0  0  0
  147.6341  137.2376  152.1628 H   0  0  0  0  0  0  0  0  0  0  0  0
  147.2025  135.4267  151.5044 H   0  0  0  0  0  0  0  0  0  0  0  0
  142.6919  132.7045  150.7776 H   0  0  0  0  0  0  0  0  0  0  0  0
  144.7248  130.9758  150.4125 H   0  0  0  0  0  0  0  0  0  0  0  0
  148.2469  138.3700  155.7812 H   0  0  0  0  0  0  0  0  0  0  0  0
  147.5223  137.1735  154.7232 H   0  0  0  0  0  0  0  0  0  0  0  0
  149.6952  136.0044  154.4645 H   0  0  0  0  0  0  0  0  0  0  0  0
  148.2856  135.3293  156.4162 H   0  0  0  0  0  0  0  0  0  0  0  0
  149.0799  136.5455  157.4152 H   0  0  0  0  0  0  0  0  0  0  0  0
  150.0013  135.1829  156.7846 H   0  0  0  0  0  0  0  0  0  0  0  0
  148.9856  137.8882  152.9883 H   0  0  0  0  0  0  0  0  0  0  0  0
  1  2  1  0  0  0  0
  1 20  1  0  0  0  0
  1 21  1  0  0  0  0
  1 22  1  0  0  0  0
  2 19  1  0  0  0  0
  2  3  1  0  0  0  0
  2 23  1  0  0  0  0
  3  4  1  0  0  0  0
  3 24  1  0  0  0  0
  3 25  1  0  0  0  0
  4  5  1  0  0  0  0
  4 16  1  0  0  0  0
  4 40  1  0  0  0  0
  5  6  1  0  0  0  0
  5 26  1  0  0  0  0
  5 27  1  0  0  0  0
  6  7  1  0  0  0  0
  6 28  1  0  0  0  0
  6 29  1  0  0  0  0
  7  8  1  0  0  0  0
  7 30  1  0  0  0  0
  8  9  2  0  0  0  0
  8 10  1  0  0  0  0
 10 11  1  0  0  0  0
 10 31  1  0  0  0  0
 11 15  1  0  0  0  0
 11 12  2  0  0  0  0
 12 13  1  0  0  0  0
 13 14  2  0  0  0  0
 13 32  1  0  0  0  0
 14 15  1  0  0  0  0
 14 33  1  0  0  0  0
 16 17  1  0  0  0  0
 16 34  1  0  0  0  0
 16 35  1  0  0  0  0
 17 18  1  0  0  0  0
 17 19  1  0  0  0  0
 17 36  1  0  0  0  0
 18 37  1  0  0  0  0
 18 38  1  0  0  0  0
 18 39  1  0  0  0  0
M  CHG  1   4   1
M  END
> <s_m_source_file>
AV-unprocessed.smi

> <i_m_source_file_index>
1815

> <i_lp_mmshare_version>
43012

> <i_f3d_flags>
0

> <s_epik_input>
W0NIM11bQ0BASF0xW0NIMl1OKFtDSDJdW0NASF0oTzEpW0NIM10pW0NIMl1bQ0gyXVtOSF1DKD1PKVtOSF1jMm5bY0hdW2NIXXMy

> <s_epik_cmdline>
J2VwaWtfcHl0aG9uJywgJy1waCcsICc3LjAnLCAnLXRuJywgJzgnLCAnLW1hJywgJzIwMCcsICctbWV0YWxfYmluZGluZycsICctaW1hZScsICc8aW5maWxlLm1hZT4nLCAnLW9tYWUnLCAnPG91dGZpbGUubWFlPic=

> <r_lp_tautomer_probability>
0.999

> <r_epik_Ionization_Penalty>
0.695838

> <r_epik_Ionization_Penalty_Charging>
0.695697

> <r_epik_Ionization_Penalty_Neutral>
0.000141198

> <r_epik_State_Penalty>
0.717972

> <r_epik_Charging_Adjusted_Penalty>
1.41367

> <i_epik_Tot_Q>
1

> <i_epik_Tot_abs_Q>
1

> <r_epik_Metal_State_Penalty>
0.756405

> <b_epik_Metal_Only>
0

> <s_lp_Force_Field>
OPLS_2005

> <r_lp_Energy>
12.0644

> <b_lp_Chiralities_Consistent>
1

> <s_lp_Variant>
AV-unprocessed.smi:1815-6

> <Gold.Version>
5.8.1

> <Gold.Id.Protein>
6NUR|6NUR_protein|mol2

> <Gold.PLP.Fitness>
45.2826

> <Gold.PLP.PLP>
-31.0357

> <Gold.PLP.part.hbond>
-3.5903

> <Gold.PLP.part.metal>
0.0000

> <Gold.PLP.part.buried>
-2.9282

> <Gold.PLP.part.nonpolar>
-26.2857

> <Gold.PLP.part.repulsive>
0.6553

> <Gold.PLP.ligand.clash>
0.0000

> <Gold.PLP.ligand.torsion>
0.2638

> <Gold.PLP.Chemscore.Hbond>
3.9440

> <Gold.PLP.Chemscore.CHOScore>
0.9770

> <Gold.PLP.Chemscore.Metal>
0.0000

> <Gold.Chemscore.Hbonds>
donor molecule, donor type, donor heavy atom, donor atom, acceptor molecule, acceptor atom, score
      L1  H     4    40       P1  7948  2.00
      L1  H     7    30       P1  7948  1.00
      L1  H    10    31       P1  7948  0.98
      L1  C    13    32       P1 10186  0.51

> <Gold.PLP.Chemscore.Internal.Correction>
0.0115

> <Gold.Rescore>
     Score         DG    S(hbond)    S(metal)    S(lipo)     H(rot)  DE(clash)    DE(int)     intcor
     17.42     -19.16       2.85        0.00      71.41       1.64       0.16       1.58       ----

> <Gold.Chemscore.Fitness>
17.4247

> <Gold.Chemscore.DG>
-19.1625

> <Gold.Chemscore.ZeroCoef>
-5.4800

> <Gold.Chemscore.Hbond>
2.8509

> <Gold.Chemscore.Metal>
0.0000

> <Gold.Chemscore.Lipo>
71.4092

> <Gold.Chemscore.Internal_Hbond>
0.0000

> <Gold.Chemscore.DEClash>
0.1600

> <Gold.Chemscore.DEInternal>
1.5778

> <Gold.Chemscore.Rot>
1.6385

> <Gold.Chemscore.Internal.Correction>
   9.000000E+99

> <Gold.Chemscore.Hbonds>
donor molecule, donor type, donor heavy atom, donor atom, acceptor molecule, acceptor atom, score
      L1  H     4    40       P1  7948  0.98
      L1  H     7    30       P1  7948  0.99
      L1  H    10    31       P1  7948  0.89

> <Gold.Chemscore.Hbond.Weighted>
-9.5221

> <Gold.Chemscore.Metal.Weighted>
-0.0000

> <Gold.Chemscore.Lipo.Weighted>
-8.3549

> <Gold.Chemscore.Internal_Hbond.Weighted>
0.0000

> <Gold.Chemscore.DEClash.Weighted>
0.1600

> <Gold.Chemscore.DEInternal.Weighted>
1.5778

> <Gold.Chemscore.Rot.Weighted>
4.1945

> <Gold.Chemscore.Internal.Correction.Weighted>
   9.000000E+99

> <Gold.Protein.RotatedTorsions>
[ 6907 6896 6895 6894 ] final -122.97 input  -60.11 | X-H torsion
[ 7974 7965 7964 7962 ] final  177.60 input  175.53 | X-H torsion
[ 8008 7997 7996 7995 ] final   24.98 input   59.86 | X-H torsion
[ 10167 10162 10161 10158 ] final  156.01 input  -65.29 | X-H torsion
[ 10718 10713 10712 10709 ] final   -1.67 input   66.30 | X-H torsion
[ 10763 10752 10751 10750 ] final  -76.18 input  -60.55 | X-H torsion
[ 11005 11000 10999 10996 ] final -124.62 input  -57.11 | X-H torsion

> <Gold.Protein.ActiveResidues>
 VAL166  LYS551  ARG553  GLY616  TRP617  ASP618  TYR619  PRO620  LYS621  CYS622 
 ASP623  PHE694  ASN695  SER759  ASP760  ASP761  ALA762  ILE779  LEU786  VAL792 
 PHE793  MET794  SER795  GLU796  ALA797  LYS798  CYS799  TRP800  GLU811  SER814 

> <Gold.Protein.RotatedAtoms>
  150.8626  133.7621  159.2987 H   0  0  0  0  0  0  0  0  0  0  0  0  # atno 6907 bound_to 6896
  151.5259  135.1066  159.9900 H   0  0  0  0  0  0  0  0  0  0  0  0  # atno 6908 bound_to 6896
  152.4637  133.7833  159.6918 H   0  0  0  0  0  0  0  0  0  0  0  0  # atno 6909 bound_to 6896
  144.7167  140.0271  143.6439 H   0  0  0  0  0  0  0  0  0  0  0  0  # atno 7974 bound_to 7965
  155.0046  140.3129  155.4854 H   0  0  0  0  0  0  0  0  0  0  0  0  # atno 8008 bound_to 7997
  156.2919  140.2225  156.5098 H   0  0  0  0  0  0  0  0  0  0  0  0  # atno 8009 bound_to 7997
  154.7588  140.0460  157.0944 H   0  0  0  0  0  0  0  0  0  0  0  0  # atno 8010 bound_to 7997
  139.4821  144.5047  151.8115 H   0  0  0  0  0  0  0  0  0  0  0  0  # atno 10167 bound_to 10162
  156.8022  130.5396  149.5720 H   0  0  0  0  0  0  0  0  0  0  0  0  # atno 10718 bound_to 10713
  154.4964  135.5806  153.6498 H   0  0  0  0  0  0  0  0  0  0  0  0  # atno 10763 bound_to 10752
  152.9871  135.6125  154.3059 H   0  0  0  0  0  0  0  0  0  0  0  0  # atno 10764 bound_to 10752
  154.2963  135.2847  155.2611 H   0  0  0  0  0  0  0  0  0  0  0  0  # atno 10765 bound_to 10752
  140.9827  134.0651  157.3747 H   0  0  0  0  0  0  0  0  0  0  0  0  # atno 11005 bound_to 11000
  146.0133  139.3188  143.0857 LP  0  0  0  0  0  0  0  0  0  0  0  0  # atno 17320 bound_to 7965
  145.8656  140.9450  143.0677 LP  0  0  0  0  0  0  0  0  0  0  0  0  # atno 17321 bound_to 7965
  140.4544  144.1810  150.5900 LP  0  0  0  0  0  0  0  0  0  0  0  0  # atno 17342 bound_to 10162
  140.4551  143.2471  151.9295 LP  0  0  0  0  0  0  0  0  0  0  0  0  # atno 17343 bound_to 10162
  156.1094  130.6029  151.0023 LP  0  0  0  0  0  0  0  0  0  0  0  0  # atno 17370 bound_to 10713
  157.6548  131.0891  150.7971 LP  0  0  0  0  0  0  0  0  0  0  0  0  # atno 17371 bound_to 10713
  139.8957  135.0142  156.7014 LP  0  0  0  0  0  0  0  0  0  0  0  0  # atno 17394 bound_to 11000
  140.7162  133.9180  155.8117 LP  0  0  0  0  0  0  0  0  0  0  0  0  # atno 17395 bound_to 11000

$$$$
