AV-unprocessed.smi:1018|AV-procd|sdf|4441|dock1
  -GOLD-   22720 2403D 1   1.00000     0.00000
 Structure written by MMmdl.
 52 53  0  0  0  0  0  0  0  0  1 V2000
  151.3894  144.9733  158.7273 C   0  0  0  0  0  0  0  0  0  0  0  0
  152.0484  143.6655  158.2772 C   0  0  2  0  0  0  0  0  0  0  0  0
  151.0784  142.7731  157.4794 C   0  0  0  0  0  0  0  0  0  0  0  0
  151.7138  141.5012  157.1645 N   0  0  0  0  0  0  0  0  0  0  0  0
  150.9360  140.6920  156.3257 C   0  0  0  0  0  0  0  0  0  0  0  0
  151.4555  139.5152  155.7396 C   0  0  0  0  0  0  0  0  0  0  0  0
  150.6164  138.7468  154.9110 C   0  0  0  0  0  0  0  0  0  0  0  0
  149.2929  139.1747  154.6848 C   0  0  0  0  0  0  0  0  0  0  0  0
  148.4648  138.3710  153.8556 N   0  0  0  0  0  0  0  0  0  0  0  0
  147.1226  138.3287  153.8040 C   0  0  0  0  0  0  0  0  0  0  0  0
  146.3616  139.0193  154.4810 O   0  0  0  0  0  0  0  0  0  0  0  0
  146.7035  137.4451  152.8872 N   0  0  0  0  0  0  0  0  0  0  0  0
  145.3078  137.1570  152.5528 C   0  0  0  0  0  0  0  0  0  0  0  0
  144.9789  135.6384  152.4762 C   0  0  0  0  0  0  0  0  0  0  0  0
  145.7512  134.9227  153.6044 C   0  0  0  0  0  0  0  0  0  0  0  0
  143.4644  135.4057  152.7081 C   0  0  0  0  0  0  0  0  0  0  0  0
  145.4610  135.0583  151.1210 C   0  0  0  0  0  0  0  0  0  0  0  0
  145.0709  135.6501  149.9871 N   0  0  0  0  0  0  0  0  0  0  0  0
  146.1946  134.0712  151.0986 O   0  0  0  0  0  0  0  0  0  0  0  0
  148.8642  140.3589  155.3325 C   0  0  0  0  0  0  0  0  0  0  0  0
  149.6634  141.0991  156.1303 N   0  0  0  0  0  0  0  0  0  0  0  0
  152.2232  140.8208  158.3480 C   0  0  0  0  0  0  0  0  0  0  0  0
  153.1751  141.7535  159.1206 C   0  0  2  0  0  0  0  0  0  0  0  0
  153.6680  141.1217  160.4265 C   0  0  0  0  0  0  0  0  0  0  0  0
  152.4846  142.9605  159.4381 O   0  0  0  0  0  0  0  0  0  0  0  0
  151.0471  145.5550  157.8710 H   0  0  0  0  0  0  0  0  0  0  0  0
  152.0916  145.5901  159.2886 H   0  0  0  0  0  0  0  0  0  0  0  0
  150.5284  144.7815  159.3680 H   0  0  0  0  0  0  0  0  0  0  0  0
  152.9159  143.9077  157.6605 H   0  0  0  0  0  0  0  0  0  0  0  0
  150.1710  142.5947  158.0581 H   0  0  0  0  0  0  0  0  0  0  0  0
  150.7803  143.2735  156.5571 H   0  0  0  0  0  0  0  0  0  0  0  0
  152.4725  139.2008  155.9219 H   0  0  0  0  0  0  0  0  0  0  0  0
  150.9889  137.8421  154.4533 H   0  0  0  0  0  0  0  0  0  0  0  0
  148.9523  137.8017  153.1794 H   0  0  0  0  0  0  0  0  0  0  0  0
  147.4033  136.9273  152.3758 H   0  0  0  0  0  0  0  0  0  0  0  0
  144.6923  137.6341  153.3166 H   0  0  0  0  0  0  0  0  0  0  0  0
  145.0324  137.6473  151.6173 H   0  0  0  0  0  0  0  0  0  0  0  0
  145.4405  135.2833  154.5856 H   0  0  0  0  0  0  0  0  0  0  0  0
  146.8272  135.0855  153.5276 H   0  0  0  0  0  0  0  0  0  0  0  0
  145.5808  133.8452  153.5859 H   0  0  0  0  0  0  0  0  0  0  0  0
  143.1410  135.8543  153.6479 H   0  0  0  0  0  0  0  0  0  0  0  0
  143.2236  134.3432  152.7615 H   0  0  0  0  0  0  0  0  0  0  0  0
  142.8517  135.8423  151.9188 H   0  0  0  0  0  0  0  0  0  0  0  0
  145.3797  135.2859  149.0975 H   0  0  0  0  0  0  0  0  0  0  0  0
  144.4715  136.4618  150.0254 H   0  0  0  0  0  0  0  0  0  0  0  0
  147.8550  140.7286  155.2408 H   0  0  0  0  0  0  0  0  0  0  0  0
  151.3941  140.5234  158.9913 H   0  0  0  0  0  0  0  0  0  0  0  0
  152.7464  139.9108  158.0513 H   0  0  0  0  0  0  0  0  0  0  0  0
  154.0419  141.9900  158.5006 H   0  0  0  0  0  0  0  0  0  0  0  0
  154.2127  140.1975  160.2332 H   0  0  0  0  0  0  0  0  0  0  0  0
  152.8356  140.8881  161.0906 H   0  0  0  0  0  0  0  0  0  0  0  0
  154.3384  141.7980  160.9575 H   0  0  0  0  0  0  0  0  0  0  0  0
  1  2  1  0  0  0  0
  1 26  1  0  0  0  0
  1 27  1  0  0  0  0
  1 28  1  0  0  0  0
  2 25  1  0  0  0  0
  2  3  1  0  0  0  0
  2 29  1  0  0  0  0
  3  4  1  0  0  0  0
  3 30  1  0  0  0  0
  3 31  1  0  0  0  0
  4  5  1  0  0  0  0
  4 22  1  0  0  0  0
  5 21  1  0  0  0  0
  5  6  2  0  0  0  0
  6  7  1  0  0  0  0
  6 32  1  0  0  0  0
  7  8  2  0  0  0  0
  7 33  1  0  0  0  0
  8  9  1  0  0  0  0
  8 20  1  0  0  0  0
  9 10  1  0  0  0  0
  9 34  1  0  0  0  0
 10 11  2  0  0  0  0
 10 12  1  0  0  0  0
 12 13  1  0  0  0  0
 12 35  1  0  0  0  0
 13 14  1  0  0  0  0
 13 36  1  0  0  0  0
 13 37  1  0  0  0  0
 14 15  1  0  0  0  0
 14 16  1  0  0  0  0
 14 17  1  0  0  0  0
 15 38  1  0  0  0  0
 15 39  1  0  0  0  0
 15 40  1  0  0  0  0
 16 41  1  0  0  0  0
 16 42  1  0  0  0  0
 16 43  1  0  0  0  0
 17 18  1  0  0  0  0
 17 19  2  0  0  0  0
 18 44  1  0  0  0  0
 18 45  1  0  0  0  0
 20 21  2  0  0  0  0
 20 46  1  0  0  0  0
 22 23  1  0  0  0  0
 22 47  1  0  0  0  0
 22 48  1  0  0  0  0
 23 24  1  0  0  0  0
 23 25  1  0  0  0  0
 23 49  1  0  0  0  0
 24 50  1  0  0  0  0
 24 51  1  0  0  0  0
 24 52  1  0  0  0  0
M  END
> <s_m_source_file>
AV-unprocessed.smi

> <i_m_source_file_index>
1018

> <i_lp_mmshare_version>
43012

> <i_f3d_flags>
0

> <s_epik_input>
W0NIM11bQ0BASF0xW0NIMl1OKFtDSDJdW0NASF0oTzEpW0NIM10pYzJbY0hdW2NIXWMoW2NIXW4yKVtOSF1DKD1PKVtOSF1bQ0gyXUMoW0NIM10pKFtDSDNdKUMoPU8pW05IMl0=

> <s_epik_cmdline>
J2VwaWtfcHl0aG9uJywgJy1waCcsICc3LjAnLCAnLXRuJywgJzgnLCAnLW1hJywgJzIwMCcsICctbWV0YWxfYmluZGluZycsICctaW1hZScsICc8aW5maWxlLm1hZT4nLCAnLW9tYWUnLCAnPG91dGZpbGUubWFlPic=

> <r_lp_tautomer_probability>
1

> <r_epik_Ionization_Penalty>
0.002562

> <r_epik_Ionization_Penalty_Charging>
0

> <r_epik_Ionization_Penalty_Neutral>
0.002562

> <r_epik_State_Penalty>
0.00175377

> <r_epik_Charging_Adjusted_Penalty>
0.00175377

> <i_epik_Tot_Q>
0

> <i_epik_Tot_abs_Q>
0

> <r_epik_Metal_State_Penalty>
-0

> <b_epik_Metal_Only>
0

> <s_lp_Force_Field>
OPLS_2005

> <r_lp_Energy>
23.1449

> <b_lp_Chiralities_Consistent>
1

> <s_lp_Variant>
AV-unprocessed.smi:1018-2

> <Gold.Version>
5.8.1

> <Gold.Id.Protein>
6NUR|6NUR_protein|mol2

> <Gold.PLP.Fitness>
55.3632

> <Gold.PLP.PLP>
-45.1749

> <Gold.PLP.part.hbond>
-4.7322

> <Gold.PLP.part.metal>
0.0000

> <Gold.PLP.part.buried>
-5.4755

> <Gold.PLP.part.nonpolar>
-36.7760

> <Gold.PLP.part.repulsive>
0.6518

> <Gold.PLP.ligand.clash>
0.0000

> <Gold.PLP.ligand.torsion>
0.7990

> <Gold.PLP.Chemscore.Hbond>
3.8794

> <Gold.PLP.Chemscore.CHOScore>
0.0000

> <Gold.PLP.Chemscore.Metal>
0.0000

> <Gold.Chemscore.Hbonds>
donor molecule, donor type, donor heavy atom, donor atom, acceptor molecule, acceptor atom, score
      L1  H     9    34       P1  7948  1.00
      L1  H    12    35       P1  7948  1.00
      L1  H    18    44       P1  7921  1.00
      L1  H    18    45       P1 10171  0.59

> <Gold.PLP.Chemscore.Internal.Correction>
0.1480

> <Gold.Rescore>
     Score         DG    S(hbond)    S(metal)    S(lipo)     H(rot)  DE(clash)    DE(int)     intcor
     22.94     -24.75       3.91        0.00      99.03       2.09       0.10       1.71       ----

> <Gold.Chemscore.Fitness>
22.9356

> <Gold.Chemscore.DG>
-24.7493

> <Gold.Chemscore.ZeroCoef>
-5.4800

> <Gold.Chemscore.Hbond>
3.9058

> <Gold.Chemscore.Metal>
0.0000

> <Gold.Chemscore.Lipo>
99.0288

> <Gold.Chemscore.Internal_Hbond>
0.0000

> <Gold.Chemscore.DEClash>
0.1045

> <Gold.Chemscore.DEInternal>
1.7092

> <Gold.Chemscore.Rot>
2.0947

> <Gold.Chemscore.Internal.Correction>
   9.000000E+99

> <Gold.Chemscore.Hbonds>
donor molecule, donor type, donor heavy atom, donor atom, acceptor molecule, acceptor atom, score
      L1  H     9    34       P1  7948  0.89
      L1  H    12    35       P1  7948  1.00
      L1  H    18    44       P1  7921  1.00
      L1  H    18    45       P1 10171  0.58

> <Gold.Chemscore.Hbond.Weighted>
-13.0453

> <Gold.Chemscore.Metal.Weighted>
-0.0000

> <Gold.Chemscore.Lipo.Weighted>
-11.5864

> <Gold.Chemscore.Internal_Hbond.Weighted>
0.0000

> <Gold.Chemscore.DEClash.Weighted>
0.1045

> <Gold.Chemscore.DEInternal.Weighted>
1.7092

> <Gold.Chemscore.Rot.Weighted>
5.3624

> <Gold.Chemscore.Internal.Correction.Weighted>
   9.000000E+99

> <Gold.Protein.RotatedTorsions>
[ 6907 6896 6895 6894 ] final  -19.44 input  -60.11 | X-H torsion
[ 7974 7965 7964 7962 ] final   67.30 input  175.53 | X-H torsion
[ 8008 7997 7996 7995 ] final  157.86 input   59.86 | X-H torsion
[ 10167 10162 10161 10158 ] final -141.97 input  -65.29 | X-H torsion
[ 10718 10713 10712 10709 ] final -127.38 input   66.30 | X-H torsion
[ 10763 10752 10751 10750 ] final  153.41 input  -60.55 | X-H torsion
[ 11005 11000 10999 10996 ] final -171.16 input  -57.11 | X-H torsion

> <Gold.Protein.ActiveResidues>
 VAL166  LYS551  ARG553  GLY616  TRP617  ASP618  TYR619  PRO620  LYS621  CYS622 
 ASP623  PHE694  ASN695  SER759  ASP760  ASP761  ALA762  ILE779  LEU786  VAL792 
 PHE793  MET794  SER795  GLU796  ALA797  LYS798  CYS799  TRP800  GLU811  SER814 

> <Gold.Protein.RotatedAtoms>
  151.2631  135.0660  159.9105 H   0  0  0  0  0  0  0  0  0  0  0  0  # atno 6907 bound_to 6896
  152.5363  134.0210  159.7992 H   0  0  0  0  0  0  0  0  0  0  0  0  # atno 6908 bound_to 6896
  151.0436  133.5635  159.2680 H   0  0  0  0  0  0  0  0  0  0  0  0  # atno 6909 bound_to 6896
  145.8163  139.3060  143.1069 H   0  0  0  0  0  0  0  0  0  0  0  0  # atno 7974 bound_to 7965
  156.2338  140.1874  156.7172 H   0  0  0  0  0  0  0  0  0  0  0  0  # atno 8008 bound_to 7997
  154.6070  140.0627  156.9471 H   0  0  0  0  0  0  0  0  0  0  0  0  # atno 8009 bound_to 7997
  155.2079  140.3297  155.4336 H   0  0  0  0  0  0  0  0  0  0  0  0  # atno 8010 bound_to 7997
  139.8133  143.7673  152.2664 H   0  0  0  0  0  0  0  0  0  0  0  0  # atno 10167 bound_to 10162
  156.1852  130.6758  151.0355 H   0  0  0  0  0  0  0  0  0  0  0  0  # atno 10718 bound_to 10713
  154.1358  135.2824  155.3173 H   0  0  0  0  0  0  0  0  0  0  0  0  # atno 10763 bound_to 10752
  154.6322  135.5431  153.7697 H   0  0  0  0  0  0  0  0  0  0  0  0  # atno 10764 bound_to 10752
  153.0266  135.6465  154.1507 H   0  0  0  0  0  0  0  0  0  0  0  0  # atno 10765 bound_to 10752
  140.5113  134.5799  157.5019 H   0  0  0  0  0  0  0  0  0  0  0  0  # atno 11005 bound_to 11000
  145.9723  140.8750  143.0156 LP  0  0  0  0  0  0  0  0  0  0  0  0  # atno 17320 bound_to 7965
  144.6752  140.1963  143.7391 LP  0  0  0  0  0  0  0  0  0  0  0  0  # atno 17321 bound_to 7965
  139.7828  144.7438  151.0063 LP  0  0  0  0  0  0  0  0  0  0  0  0  # atno 17342 bound_to 10162
  140.7817  143.4523  151.0395 LP  0  0  0  0  0  0  0  0  0  0  0  0  # atno 17343 bound_to 10162
  157.6894  131.0815  150.7151 LP  0  0  0  0  0  0  0  0  0  0  0  0  # atno 17370 bound_to 10713
  156.7208  130.4680  149.5523 LP  0  0  0  0  0  0  0  0  0  0  0  0  # atno 17371 bound_to 10713
  139.9657  134.7377  156.0143 LP  0  0  0  0  0  0  0  0  0  0  0  0  # atno 17394 bound_to 11000
  141.1384  133.6570  156.3659 LP  0  0  0  0  0  0  0  0  0  0  0  0  # atno 17395 bound_to 11000

$$$$
