AV-unprocessed.smi:1641|AV-procd|sdf|6561|dock1
  -GOLD-   22720 7243D 1   1.00000     0.00000
 Structure written by MMmdl.
 42 43  0  0  0  0  0  0  0  0  2 V2000
  137.7676  137.0539  154.0563 C   0  0  0  0  0  0  0  0  0  0  0  0
  139.2360  137.2362  154.2348 C   0  0  0  0  0  0  0  0  0  0  0  0
  139.9768  136.4395  155.0150 N   0  0  0  0  0  0  0  0  0  0  0  0
  141.3138  136.8112  155.0274 N   0  0  0  0  0  0  0  0  0  0  0  0
  141.5422  137.8811  154.2533 C   0  0  0  0  0  0  0  0  0  0  0  0
  142.8204  138.4778  154.0905 N   0  0  0  0  0  0  0  0  0  0  0  0
  143.9895  138.1007  154.6372 C   0  0  0  0  0  0  0  0  0  0  0  0
  144.1522  137.1274  155.3738 O   0  0  0  0  0  0  0  0  0  0  0  0
  144.9837  138.9281  154.2839 N   0  0  0  0  0  0  0  0  0  0  0  0
  146.3695  138.7914  154.7169 C   0  0  0  0  0  0  0  0  0  0  0  0
  147.2956  138.4162  153.5434 C   0  0  0  0  0  0  0  0  0  0  0  0
  148.5201  137.7100  153.9936 N   0  3  1  0  0  0  0  0  0  0  0  0
  149.6433  138.6387  154.2561 C   0  0  0  0  0  0  0  0  0  0  0  0
  150.9183  137.8542  154.6135 C   0  0  1  0  0  0  0  0  0  0  0  0
  152.0802  138.7840  154.9792 C   0  0  0  0  0  0  0  0  0  0  0  0
  150.6597  137.0139  155.7353 O   0  0  0  0  0  0  0  0  0  0  0  0
  149.5893  136.0861  155.5577 C   0  0  2  0  0  0  0  0  0  0  0  0
  149.9577  134.9480  154.5891 C   0  0  0  0  0  0  0  0  0  0  0  0
  148.2975  136.8309  155.1682 C   0  0  0  0  0  0  0  0  0  0  0  0
  140.1289  138.5234  153.4340 S   0  0  0  0  0  0  0  0  0  0  0  0
  137.4101  136.2064  154.6421 H   0  0  0  0  0  0  0  0  0  0  0  0
  137.5398  136.8736  153.0057 H   0  0  0  0  0  0  0  0  0  0  0  0
  137.2398  137.9505  154.3816 H   0  0  0  0  0  0  0  0  0  0  0  0
  142.8426  139.2962  153.5004 H   0  0  0  0  0  0  0  0  0  0  0  0
  144.7685  139.7012  153.6707 H   0  0  0  0  0  0  0  0  0  0  0  0
  146.6837  139.7191  155.1960 H   0  0  0  0  0  0  0  0  0  0  0  0
  146.4103  138.0173  155.4835 H   0  0  0  0  0  0  0  0  0  0  0  0
  146.7365  137.7675  152.8672 H   0  0  0  0  0  0  0  0  0  0  0  0
  147.5770  139.2960  152.9625 H   0  0  0  0  0  0  0  0  0  0  0  0
  149.8289  139.2522  153.3734 H   0  0  0  0  0  0  0  0  0  0  0  0
  149.3732  139.3173  155.0672 H   0  0  0  0  0  0  0  0  0  0  0  0
  151.2261  137.2479  153.7615 H   0  0  0  0  0  0  0  0  0  0  0  0
  152.3320  139.4444  154.1489 H   0  0  0  0  0  0  0  0  0  0  0  0
  152.9732  138.2111  155.2304 H   0  0  0  0  0  0  0  0  0  0  0  0
  151.8323  139.4072  155.8390 H   0  0  0  0  0  0  0  0  0  0  0  0
  149.4251  135.6271  156.5331 H   0  0  0  0  0  0  0  0  0  0  0  0
  149.1788  134.1853  154.5759 H   0  0  0  0  0  0  0  0  0  0  0  0
  150.8859  134.4638  154.8936 H   0  0  0  0  0  0  0  0  0  0  0  0
  150.0831  135.2984  153.5649 H   0  0  0  0  0  0  0  0  0  0  0  0
  147.9607  137.4402  156.0086 H   0  0  0  0  0  0  0  0  0  0  0  0
  147.5067  136.1079  154.9711 H   0  0  0  0  0  0  0  0  0  0  0  0
  148.8122  137.1186  153.2287 H   0  0  0  0  0  0  0  0  0  0  0  0
  1  2  1  0  0  0  0
  1 21  1  0  0  0  0
  1 22  1  0  0  0  0
  1 23  1  0  0  0  0
  2 20  1  0  0  0  0
  2  3  2  0  0  0  0
  3  4  1  0  0  0  0
  4  5  2  0  0  0  0
  5  6  1  0  0  0  0
  5 20  1  0  0  0  0
  6  7  1  0  0  0  0
  6 24  1  0  0  0  0
  7  8  2  0  0  0  0
  7  9  1  0  0  0  0
  9 10  1  0  0  0  0
  9 25  1  0  0  0  0
 10 11  1  0  0  0  0
 10 26  1  0  0  0  0
 10 27  1  0  0  0  0
 11 12  1  0  0  0  0
 11 28  1  0  0  0  0
 11 29  1  0  0  0  0
 12 19  1  0  0  0  0
 12 13  1  0  0  0  0
 12 42  1  0  0  0  0
 13 14  1  0  0  0  0
 13 30  1  0  0  0  0
 13 31  1  0  0  0  0
 14 15  1  0  0  0  0
 14 16  1  0  0  0  0
 14 32  1  0  0  0  0
 15 33  1  0  0  0  0
 15 34  1  0  0  0  0
 15 35  1  0  0  0  0
 16 17  1  0  0  0  0
 17 18  1  0  0  0  0
 17 19  1  0  0  0  0
 17 36  1  0  0  0  0
 18 37  1  0  0  0  0
 18 38  1  0  0  0  0
 18 39  1  0  0  0  0
 19 40  1  0  0  0  0
 19 41  1  0  0  0  0
M  CHG  1  12   1
M  END
> <s_m_source_file>
AV-unprocessed.smi

> <i_m_source_file_index>
1641

> <i_lp_mmshare_version>
43012

> <i_f3d_flags>
0

> <s_epik_input>
W0NIM11jMW5uYyhzMSlbTkhdQyg9TylbTkhdW0NIMl1bQ0gyXU4yW0NIMl1bQ0BASF0oW0NIM10pT1tDQEBIXShbQ0gzXSlbQ0gyXTI=

> <s_epik_cmdline>
J2VwaWtfcHl0aG9uJywgJy1waCcsICc3LjAnLCAnLXRuJywgJzgnLCAnLW1hJywgJzIwMCcsICctbWV0YWxfYmluZGluZycsICctaW1hZScsICc8aW5maWxlLm1hZT4nLCAnLW9tYWUnLCAnPG91dGZpbGUubWFlPic=

> <r_lp_tautomer_probability>
1

> <r_epik_Ionization_Penalty>
0.700114

> <r_epik_Ionization_Penalty_Charging>
0.695697

> <r_epik_Ionization_Penalty_Neutral>
0.00441638

> <r_epik_State_Penalty>
0.717972

> <r_epik_Charging_Adjusted_Penalty>
1.41367

> <i_epik_Tot_Q>
1

> <i_epik_Tot_abs_Q>
1

> <r_epik_Metal_State_Penalty>
1.06958

> <b_epik_Metal_Only>
0

> <s_lp_Force_Field>
OPLS_2005

> <r_lp_Energy>
15.7554

> <b_lp_Chiralities_Consistent>
1

> <s_lp_Variant>
AV-unprocessed.smi:1641-6

> <Gold.Version>
5.8.1

> <Gold.Id.Protein>
6NUR|6NUR_protein|mol2

> <Gold.PLP.Fitness>
41.7041

> <Gold.PLP.PLP>
-27.7275

> <Gold.PLP.part.hbond>
-4.0000

> <Gold.PLP.part.metal>
0.0000

> <Gold.PLP.part.buried>
-2.1862

> <Gold.PLP.part.nonpolar>
-21.0474

> <Gold.PLP.part.repulsive>
0.1327

> <Gold.PLP.ligand.clash>
0.0000

> <Gold.PLP.ligand.torsion>
0.5187

> <Gold.PLP.Chemscore.Hbond>
4.9920

> <Gold.PLP.Chemscore.CHOScore>
0.0000

> <Gold.PLP.Chemscore.Metal>
0.0000

> <Gold.Chemscore.Hbonds>
donor molecule, donor type, donor heavy atom, donor atom, acceptor molecule, acceptor atom, score
      L1  H     6    24       P1 10175  1.00
      L1  H     9    25       P1 10175  0.99
      L1  H    12    42       P1  7948  2.00
      P1  H 11000 11005       L1     3  1.00

> <Gold.PLP.Chemscore.Internal.Correction>
0.0379

> <Gold.Rescore>
     Score         DG    S(hbond)    S(metal)    S(lipo)     H(rot)  DE(clash)    DE(int)     intcor
     19.24     -21.16       3.74        0.00      62.94       1.64       0.06       1.85       ----

> <Gold.Chemscore.Fitness>
19.2431

> <Gold.Chemscore.DG>
-21.1585

> <Gold.Chemscore.ZeroCoef>
-5.4800

> <Gold.Chemscore.Hbond>
3.7434

> <Gold.Chemscore.Metal>
0.0000

> <Gold.Chemscore.Lipo>
62.9356

> <Gold.Chemscore.Internal_Hbond>
0.0000

> <Gold.Chemscore.DEClash>
0.0618

> <Gold.Chemscore.DEInternal>
1.8536

> <Gold.Chemscore.Rot>
1.6358

> <Gold.Chemscore.Internal.Correction>
   9.000000E+99

> <Gold.Chemscore.Hbonds>
donor molecule, donor type, donor heavy atom, donor atom, acceptor molecule, acceptor atom, score
      L1  H     6    24       P1 10175  0.98
      L1  H     9    25       P1 10175  0.93
      L1  H    12    42       P1  7948  0.99
      P1  H 11000 11005       L1     3  0.41

> <Gold.Chemscore.Hbond.Weighted>
-12.5029

> <Gold.Chemscore.Metal.Weighted>
-0.0000

> <Gold.Chemscore.Lipo.Weighted>
-7.3635

> <Gold.Chemscore.Internal_Hbond.Weighted>
0.0000

> <Gold.Chemscore.DEClash.Weighted>
0.0618

> <Gold.Chemscore.DEInternal.Weighted>
1.8536

> <Gold.Chemscore.Rot.Weighted>
4.1878

> <Gold.Chemscore.Internal.Correction.Weighted>
   9.000000E+99

> <Gold.Protein.RotatedTorsions>
[ 6907 6896 6895 6894 ] final  119.05 input  -60.11 | X-H torsion
[ 7974 7965 7964 7962 ] final   27.78 input  175.53 | X-H torsion
[ 8008 7997 7996 7995 ] final -114.87 input   59.86 | X-H torsion
[ 10167 10162 10161 10158 ] final   10.31 input  -65.29 | X-H torsion
[ 10718 10713 10712 10709 ] final  -74.54 input   66.30 | X-H torsion
[ 10763 10752 10751 10750 ] final  -46.65 input  -60.55 | X-H torsion
[ 11005 11000 10999 10996 ] final   87.18 input  -57.11 | X-H torsion

> <Gold.Protein.ActiveResidues>
 VAL166  LYS551  ARG553  GLY616  TRP617  ASP618  TYR619  PRO620  LYS621  CYS622 
 ASP623  PHE694  ASN695  SER759  ASP760  ASP761  ALA762  ILE779  LEU786  VAL792 
 PHE793  MET794  SER795  GLU796  ALA797  LYS798  CYS799  TRP800  GLU811  SER814 

> <Gold.Protein.RotatedAtoms>
  152.4500  133.7610  159.6746 H   0  0  0  0  0  0  0  0  0  0  0  0  # atno 6907 bound_to 6896
  150.8409  133.7927  159.3067 H   0  0  0  0  0  0  0  0  0  0  0  0  # atno 6908 bound_to 6896
  151.5552  135.1069  160.0011 H   0  0  0  0  0  0  0  0  0  0  0  0  # atno 6909 bound_to 6896
  146.1765  139.7145  142.8930 H   0  0  0  0  0  0  0  0  0  0  0  0  # atno 7974 bound_to 7965
  155.0431  140.0392  157.2516 H   0  0  0  0  0  0  0  0  0  0  0  0  # atno 8008 bound_to 7997
  154.7200  140.2710  155.6526 H   0  0  0  0  0  0  0  0  0  0  0  0  # atno 8009 bound_to 7997
  156.2814  140.2705  156.1869 H   0  0  0  0  0  0  0  0  0  0  0  0  # atno 8010 bound_to 7997
  140.6202  143.8221  150.7166 H   0  0  0  0  0  0  0  0  0  0  0  0  # atno 10167 bound_to 10162
  156.0239  130.4419  150.2908 H   0  0  0  0  0  0  0  0  0  0  0  0  # atno 10718 bound_to 10713
  154.0485  135.6634  153.4797 H   0  0  0  0  0  0  0  0  0  0  0  0  # atno 10763 bound_to 10752
  153.0473  135.5106  154.7774 H   0  0  0  0  0  0  0  0  0  0  0  0  # atno 10764 bound_to 10752
  154.6773  135.3039  154.9628 H   0  0  0  0  0  0  0  0  0  0  0  0  # atno 10765 bound_to 10752
  139.8926  134.8405  156.2823 H   0  0  0  0  0  0  0  0  0  0  0  0  # atno 11005 bound_to 11000
  145.4196  141.0405  143.2971 LP  0  0  0  0  0  0  0  0  0  0  0  0  # atno 17320 bound_to 7965
  144.8245  139.5734  143.6972 LP  0  0  0  0  0  0  0  0  0  0  0  0  # atno 17321 bound_to 7965
  140.1809  143.4115  152.1933 LP  0  0  0  0  0  0  0  0  0  0  0  0  # atno 17342 bound_to 10162
  139.5432  144.7275  151.4666 LP  0  0  0  0  0  0  0  0  0  0  0  0  # atno 17343 bound_to 10162
  157.1011  131.0196  151.3085 LP  0  0  0  0  0  0  0  0  0  0  0  0  # atno 17370 bound_to 10713
  157.4779  130.7747  149.7386 LP  0  0  0  0  0  0  0  0  0  0  0  0  # atno 17371 bound_to 10713
  141.0030  133.7140  156.0991 LP  0  0  0  0  0  0  0  0  0  0  0  0  # atno 17394 bound_to 11000
  140.7472  134.4085  157.5546 LP  0  0  0  0  0  0  0  0  0  0  0  0  # atno 17395 bound_to 11000

$$$$
