AV-unprocessed.smi:1033|AV-procd|sdf|4491|dock2
  -GOLD-   22720 2473D 1   1.00000     0.00000
 Structure written by MMmdl.
 56 58  0  0  0  0  0  0  0  0  2 V2000
  152.4039  140.5289  159.9481 C   0  0  0  0  0  0  0  0  0  0  0  0
  151.5520  140.6293  158.6948 C   0  0  0  0  0  0  0  0  0  0  0  0
  151.6511  139.6169  157.7141 C   0  0  0  0  0  0  0  0  0  0  0  0
  150.8762  139.6722  156.5351 C   0  0  0  0  0  0  0  0  0  0  0  0
  150.8181  138.8068  155.4563 N   0  0  0  0  0  0  0  0  0  0  0  0
  149.9155  139.4023  154.6827 C   0  0  0  0  0  0  0  0  0  0  0  0
  149.3875  140.5582  155.1289 N   0  0  0  0  0  0  0  0  0  0  0  0
  148.4034  141.3837  154.4530 C   0  0  0  0  0  0  0  0  0  0  0  0
  147.0396  140.6791  154.3162 C   0  0  1  0  0  0  0  0  0  0  0  0
  146.1236  141.6110  153.7776 O   0  0  0  0  0  0  0  0  0  0  0  0
  147.0774  139.4324  153.4046 C   0  0  0  0  0  0  0  0  0  0  0  0
  145.7702  138.7316  153.3405 N   0  3  0  0  0  0  0  0  0  0  0  0
  145.2406  138.3378  154.6742 C   0  0  0  0  0  0  0  0  0  0  0  0
  143.8620  137.6656  154.5202 C   0  0  0  0  0  0  0  0  0  0  0  0
  143.8894  136.4902  153.6494 N   0  0  0  0  0  0  0  0  0  0  0  0
  144.5950  135.3238  154.1964 C   0  0  0  0  0  0  0  0  0  0  0  0
  143.8817  134.5831  155.3497 C   0  0  2  0  0  0  0  0  0  0  0  0
  144.7286  133.4613  155.9753 C   0  0  0  0  0  0  0  0  0  0  0  0
  142.7259  133.9610  154.8272 O   0  0  0  0  0  0  0  0  0  0  0  0
  144.4082  136.8988  152.3438 C   0  0  0  0  0  0  0  0  0  0  0  0
  145.7989  137.5644  152.4211 C   0  0  0  0  0  0  0  0  0  0  0  0
  149.9917  140.7769  156.3628 C   0  0  0  0  0  0  0  0  0  0  0  0
  149.8840  141.7905  157.3317 C   0  0  0  0  0  0  0  0  0  0  0  0
  150.6654  141.7193  158.5039 C   0  0  0  0  0  0  0  0  0  0  0  0
  150.5410  142.8172  159.5457 C   0  0  0  0  0  0  0  0  0  0  0  0
  153.0576  139.6569  159.9170 H   0  0  0  0  0  0  0  0  0  0  0  0
  151.7722  140.4423  160.8324 H   0  0  0  0  0  0  0  0  0  0  0  0
  153.0325  141.4130  160.0562 H   0  0  0  0  0  0  0  0  0  0  0  0
  152.3258  138.7859  157.8600 H   0  0  0  0  0  0  0  0  0  0  0  0
  149.6258  138.9778  153.7325 H   0  0  0  0  0  0  0  0  0  0  0  0
  148.2950  142.3114  155.0168 H   0  0  0  0  0  0  0  0  0  0  0  0
  148.7936  141.6600  153.4725 H   0  0  0  0  0  0  0  0  0  0  0  0
  146.6939  140.4104  155.3138 H   0  0  0  0  0  0  0  0  0  0  0  0
  145.4678  141.1425  153.2833 H   0  0  0  0  0  0  0  0  0  0  0  0
  147.3799  139.7451  152.4038 H   0  0  0  0  0  0  0  0  0  0  0  0
  147.8327  138.7203  153.7387 H   0  0  0  0  0  0  0  0  0  0  0  0
  145.9437  137.6712  155.1754 H   0  0  0  0  0  0  0  0  0  0  0  0
  145.1343  139.2139  155.3125 H   0  0  0  0  0  0  0  0  0  0  0  0
  143.4473  137.4091  155.4934 H   0  0  0  0  0  0  0  0  0  0  0  0
  143.1662  138.3950  154.1029 H   0  0  0  0  0  0  0  0  0  0  0  0
  144.7214  134.6151  153.3761 H   0  0  0  0  0  0  0  0  0  0  0  0
  145.6087  135.5835  154.5008 H   0  0  0  0  0  0  0  0  0  0  0  0
  143.5572  135.2883  156.1160 H   0  0  0  0  0  0  0  0  0  0  0  0
  145.6436  133.8370  156.4291 H   0  0  0  0  0  0  0  0  0  0  0  0
  145.0161  132.7195  155.2293 H   0  0  0  0  0  0  0  0  0  0  0  0
  144.1724  132.9428  156.7572 H   0  0  0  0  0  0  0  0  0  0  0  0
  142.9883  133.1856  154.3544 H   0  0  0  0  0  0  0  0  0  0  0  0
  144.4454  136.0395  151.6731 H   0  0  0  0  0  0  0  0  0  0  0  0
  143.7078  137.5993  151.8869 H   0  0  0  0  0  0  0  0  0  0  0  0
  146.0923  137.8952  151.4242 H   0  0  0  0  0  0  0  0  0  0  0  0
  146.5565  136.8515  152.7493 H   0  0  0  0  0  0  0  0  0  0  0  0
  149.2056  142.6160  157.1753 H   0  0  0  0  0  0  0  0  0  0  0  0
  149.7905  143.5546  159.2598 H   0  0  0  0  0  0  0  0  0  0  0  0
  151.4918  143.3364  159.6685 H   0  0  0  0  0  0  0  0  0  0  0  0
  150.2474  142.3990  160.5088 H   0  0  0  0  0  0  0  0  0  0  0  0
  145.1119  139.3870  152.9431 H   0  0  0  0  0  0  0  0  0  0  0  0
  1  2  1  0  0  0  0
  1 26  1  0  0  0  0
  1 27  1  0  0  0  0
  1 28  1  0  0  0  0
  2 24  1  0  0  0  0
  2  3  2  0  0  0  0
  3  4  1  0  0  0  0
  3 29  1  0  0  0  0
  4 22  2  0  0  0  0
  4  5  1  0  0  0  0
  5  6  2  0  0  0  0
  6  7  1  0  0  0  0
  6 30  1  0  0  0  0
  7  8  1  0  0  0  0
  7 22  1  0  0  0  0
  8  9  1  0  0  0  0
  8 31  1  0  0  0  0
  8 32  1  0  0  0  0
  9 10  1  0  0  0  0
  9 11  1  0  0  0  0
  9 33  1  0  0  0  0
 10 34  1  0  0  0  0
 11 12  1  0  0  0  0
 11 35  1  0  0  0  0
 11 36  1  0  0  0  0
 12 21  1  0  0  0  0
 12 13  1  0  0  0  0
 12 56  1  0  0  0  0
 13 14  1  0  0  0  0
 13 37  1  0  0  0  0
 13 38  1  0  0  0  0
 14 15  1  0  0  0  0
 14 39  1  0  0  0  0
 14 40  1  0  0  0  0
 15 16  1  0  0  0  0
 15 20  1  0  0  0  0
 16 17  1  0  0  0  0
 16 41  1  0  0  0  0
 16 42  1  0  0  0  0
 17 18  1  0  0  0  0
 17 19  1  0  0  0  0
 17 43  1  0  0  0  0
 18 44  1  0  0  0  0
 18 45  1  0  0  0  0
 18 46  1  0  0  0  0
 19 47  1  0  0  0  0
 20 21  1  0  0  0  0
 20 48  1  0  0  0  0
 20 49  1  0  0  0  0
 21 50  1  0  0  0  0
 21 51  1  0  0  0  0
 22 23  1  0  0  0  0
 23 24  2  0  0  0  0
 23 52  1  0  0  0  0
 24 25  1  0  0  0  0
 25 53  1  0  0  0  0
 25 54  1  0  0  0  0
 25 55  1  0  0  0  0
M  CHG  1  12   1
M  END
> <s_m_source_file>
AV-unprocessed.smi

> <i_m_source_file_index>
1033

> <i_lp_mmshare_version>
43012

> <i_f3d_flags>
0

> <s_epik_input>
W0NIM11jKFtjSF0xKWMoW0NIM10pW2NIXWMoYzEyKW4oW2NIXW4yKVtDSDJdW0NASF0oW09IXSlbQ0gyXU4zW0NIMl1bQ0gyXU4oW0NIMl1bQ0gyXTMpW0NIMl1bQ0BIXShbQ0gzXSlbT0hd

> <s_epik_cmdline>
J2VwaWtfcHl0aG9uJywgJy1waCcsICc3LjAnLCAnLXRuJywgJzgnLCAnLW1hJywgJzIwMCcsICctbWV0YWxfYmluZGluZycsICctaW1hZScsICc8aW5maWxlLm1hZT4nLCAnLW9tYWUnLCAnPG91dGZpbGUubWFlPic=

> <r_epik_Ionization_Penalty>
0.131893

> <r_epik_Ionization_Penalty_Charging>
0.00208556

> <r_epik_Ionization_Penalty_Neutral>
0.129808

> <r_epik_State_Penalty>
0.452125

> <r_epik_Charging_Adjusted_Penalty>
0.454211

> <i_epik_Tot_Q>
1

> <i_epik_Tot_abs_Q>
1

> <r_epik_Metal_State_Penalty>
0.376389

> <b_epik_Metal_Only>
0

> <s_lp_Force_Field>
OPLS_2005

> <r_lp_Energy>
35.7629

> <b_lp_Chiralities_Consistent>
1

> <s_lp_Variant>
AV-unprocessed.smi:1033-2

> <Gold.Version>
5.8.1

> <Gold.Id.Protein>
6NUR|6NUR_protein|mol2

> <Gold.PLP.Fitness>
54.6926

> <Gold.PLP.PLP>
-38.5671

> <Gold.PLP.part.hbond>
-4.0000

> <Gold.PLP.part.metal>
0.0000

> <Gold.PLP.part.buried>
-3.1124

> <Gold.PLP.part.nonpolar>
-31.6262

> <Gold.PLP.part.repulsive>
0.1112

> <Gold.PLP.ligand.clash>
0.0000

> <Gold.PLP.ligand.torsion>
0.1854

> <Gold.PLP.Chemscore.Hbond>
4.5575

> <Gold.PLP.Chemscore.CHOScore>
0.8916

> <Gold.PLP.Chemscore.Metal>
0.0000

> <Gold.Chemscore.Hbonds>
donor molecule, donor type, donor heavy atom, donor atom, acceptor molecule, acceptor atom, score
      L1  H    10    34       P1 10175  0.94
      L1  H    12    56       P1 10175  2.00
      L1  H    19    47       P1 10957  0.47
      P1  H 11000 11005       L1    19  0.19
      L1  C     6    30       P1  7957  0.38

> <Gold.PLP.Chemscore.Internal.Correction>
0.1491

> <Gold.Rescore>
     Score         DG    S(hbond)    S(metal)    S(lipo)     H(rot)  DE(clash)    DE(int)     intcor
     18.26     -18.80       3.18        0.00      90.11       3.07       0.16       0.38       ----

> <Gold.Chemscore.Fitness>
18.2648

> <Gold.Chemscore.DG>
-18.8040

> <Gold.Chemscore.ZeroCoef>
-5.4800

> <Gold.Chemscore.Hbond>
3.1820

> <Gold.Chemscore.Metal>
0.0000

> <Gold.Chemscore.Lipo>
90.1086

> <Gold.Chemscore.Internal_Hbond>
0.0000

> <Gold.Chemscore.DEClash>
0.1636

> <Gold.Chemscore.DEInternal>
0.3756

> <Gold.Chemscore.Rot>
3.0650

> <Gold.Chemscore.Internal.Correction>
   9.000000E+99

> <Gold.Chemscore.Hbonds>
donor molecule, donor type, donor heavy atom, donor atom, acceptor molecule, acceptor atom, score
      L1  H    10    34       P1 10175  0.31
      L1  H    12    56       P1 10175  1.00
      L1  H    19    47       P1 10957  0.44
      P1  H 11000 11005       L1    19  0.14

> <Gold.Chemscore.Hbond.Weighted>
-10.6277

> <Gold.Chemscore.Metal.Weighted>
-0.0000

> <Gold.Chemscore.Lipo.Weighted>
-10.5427

> <Gold.Chemscore.Internal_Hbond.Weighted>
0.0000

> <Gold.Chemscore.DEClash.Weighted>
0.1636

> <Gold.Chemscore.DEInternal.Weighted>
0.3756

> <Gold.Chemscore.Rot.Weighted>
7.8465

> <Gold.Chemscore.Internal.Correction.Weighted>
   9.000000E+99

> <Gold.Protein.RotatedTorsions>
[ 6907 6896 6895 6894 ] final  -15.92 input  -60.11 | X-H torsion
[ 7974 7965 7964 7962 ] final   40.51 input  175.53 | X-H torsion
[ 8008 7997 7996 7995 ] final  -17.02 input   59.86 | X-H torsion
[ 10167 10162 10161 10158 ] final  -87.65 input  -65.29 | X-H torsion
[ 10718 10713 10712 10709 ] final -150.52 input   66.30 | X-H torsion
[ 10763 10752 10751 10750 ] final    4.21 input  -60.55 | X-H torsion
[ 11005 11000 10999 10996 ] final  -62.66 input  -57.11 | X-H torsion

> <Gold.Protein.ActiveResidues>
 VAL166  LYS551  ARG553  GLY616  TRP617  ASP618  TYR619  PRO620  LYS621  CYS622 
 ASP623  PHE694  ASN695  SER759  ASP760  ASP761  ALA762  ILE779  LEU786  VAL792 
 PHE793  MET794  SER795  GLU796  ALA797  LYS798  CYS799  TRP800  GLU811  SER814 

> <Gold.Protein.RotatedAtoms>
  151.3166  135.0808  159.9290 H   0  0  0  0  0  0  0  0  0  0  0  0  # atno 6907 bound_to 6896
  152.5266  133.9682  159.7759 H   0  0  0  0  0  0  0  0  0  0  0  0  # atno 6908 bound_to 6896
  150.9995  133.6018  159.2727 H   0  0  0  0  0  0  0  0  0  0  0  0  # atno 6909 bound_to 6896
  146.0898  139.5524  142.9483 H   0  0  0  0  0  0  0  0  0  0  0  0  # atno 7974 bound_to 7965
  154.5009  140.2154  155.9348 H   0  0  0  0  0  0  0  0  0  0  0  0  # atno 8008 bound_to 7997
  156.1433  140.3175  155.8497 H   0  0  0  0  0  0  0  0  0  0  0  0  # atno 8009 bound_to 7997
  155.4079  140.0488  157.3024 H   0  0  0  0  0  0  0  0  0  0  0  0  # atno 8010 bound_to 7997
  140.3824  143.2742  151.9367 H   0  0  0  0  0  0  0  0  0  0  0  0  # atno 10167 bound_to 10162
  156.4472  130.8150  151.2381 H   0  0  0  0  0  0  0  0  0  0  0  0  # atno 10718 bound_to 10713
  153.2740  135.6934  153.7452 H   0  0  0  0  0  0  0  0  0  0  0  0  # atno 10763 bound_to 10752
  153.6465  135.3384  155.3088 H   0  0  0  0  0  0  0  0  0  0  0  0  # atno 10764 bound_to 10752
  154.8473  135.4444  154.1771 H   0  0  0  0  0  0  0  0  0  0  0  0  # atno 10765 bound_to 10752
  141.1367  133.6642  156.5562 H   0  0  0  0  0  0  0  0  0  0  0  0  # atno 11005 bound_to 11000
  145.6060  141.0347  143.1992 LP  0  0  0  0  0  0  0  0  0  0  0  0  # atno 17320 bound_to 7965
  144.7352  139.7606  143.7332 LP  0  0  0  0  0  0  0  0  0  0  0  0  # atno 17321 bound_to 7965
  139.4794  144.5806  151.7939 LP  0  0  0  0  0  0  0  0  0  0  0  0  # atno 17342 bound_to 10162
  140.4924  144.1290  150.5953 LP  0  0  0  0  0  0  0  0  0  0  0  0  # atno 17343 bound_to 10162
  157.7504  131.0149  150.3484 LP  0  0  0  0  0  0  0  0  0  0  0  0  # atno 17370 bound_to 10713
  156.3855  130.3888  149.7069 LP  0  0  0  0  0  0  0  0  0  0  0  0  # atno 17371 bound_to 10713
  140.4025  134.7344  157.4788 LP  0  0  0  0  0  0  0  0  0  0  0  0  # atno 17394 bound_to 11000
  140.0486  134.6163  155.8890 LP  0  0  0  0  0  0  0  0  0  0  0  0  # atno 17395 bound_to 11000

$$$$
