AV-unprocessed.smi:877|AV-procd|sdf|4027|dock7
  -GOLD-   22720 1513D 1   1.00000     0.00000
 Structure written by MMmdl.
 43 45  0  0  0  0  0  0  0  0  1 V2000
  147.0823  127.7783  153.0119 C   0  0  0  0  0  0  0  0  0  0  0  0
  146.1149  128.4234  152.1968 O   0  0  0  0  0  0  0  0  0  0  0  0
  146.1615  129.7976  152.0992 C   0  0  0  0  0  0  0  0  0  0  0  0
  147.0651  130.6176  152.8210 C   0  0  0  0  0  0  0  0  0  0  0  0
  147.0448  132.0164  152.6589 C   0  0  0  0  0  0  0  0  0  0  0  0
  146.1242  132.6177  151.7771 C   0  0  0  0  0  0  0  0  0  0  0  0
  146.1014  134.1263  151.6018 C   0  0  0  0  0  0  0  0  0  0  0  0
  144.8899  134.7737  152.2142 C   0  0  0  0  0  0  0  0  0  0  0  0
  143.6887  134.1931  152.1741 N   0  0  0  0  0  0  0  0  0  0  0  0
  142.8855  135.1003  152.8355 C   0  0  0  0  0  0  0  0  0  0  0  0
  141.5039  135.0597  153.1304 C   0  0  0  0  0  0  0  0  0  0  0  0
  140.8921  136.1197  153.8310 C   0  0  0  0  0  0  0  0  0  0  0  0
  141.6512  137.2332  154.2451 C   0  0  0  0  0  0  0  0  0  0  0  0
  143.0287  137.2941  153.9592 C   0  0  0  0  0  0  0  0  0  0  0  0
  143.6350  136.2329  153.2600 C   0  0  0  0  0  0  0  0  0  0  0  0
  144.9355  135.9837  152.8302 N   0  0  0  0  0  0  0  0  0  0  0  0
  146.0809  136.8659  153.0156 C   0  0  0  0  0  0  0  0  0  0  0  0
  146.1238  138.0158  151.9895 C   0  0  2  0  0  0  0  0  0  0  0  0
  146.7038  137.5441  150.7881 O   0  0  0  0  0  0  0  0  0  0  0  0
  146.9525  139.2050  152.5028 C   0  0  0  0  0  0  0  0  0  0  0  0
  148.2532  138.7797  152.8493 O   0  0  0  0  0  0  0  0  0  0  0  0
  145.2224  131.8074  151.0586 C   0  0  0  0  0  0  0  0  0  0  0  0
  145.2445  130.4091  151.2201 C   0  0  0  0  0  0  0  0  0  0  0  0
  146.9178  126.7013  152.9811 H   0  0  0  0  0  0  0  0  0  0  0  0
  147.0017  128.0946  154.0528 H   0  0  0  0  0  0  0  0  0  0  0  0
  148.0951  127.9673  152.6534 H   0  0  0  0  0  0  0  0  0  0  0  0
  147.7858  130.1974  153.5059 H   0  0  0  0  0  0  0  0  0  0  0  0
  147.7423  132.6258  153.2150 H   0  0  0  0  0  0  0  0  0  0  0  0
  147.0199  134.5221  152.0312 H   0  0  0  0  0  0  0  0  0  0  0  0
  146.1256  134.3786  150.5413 H   0  0  0  0  0  0  0  0  0  0  0  0
  140.9141  134.2106  152.8180 H   0  0  0  0  0  0  0  0  0  0  0  0
  139.8356  136.0777  154.0522 H   0  0  0  0  0  0  0  0  0  0  0  0
  141.1758  138.0409  154.7823 H   0  0  0  0  0  0  0  0  0  0  0  0
  143.6120  138.1457  154.2771 H   0  0  0  0  0  0  0  0  0  0  0  0
  146.0622  137.2559  154.0335 H   0  0  0  0  0  0  0  0  0  0  0  0
  146.9921  136.2702  152.9476 H   0  0  0  0  0  0  0  0  0  0  0  0
  145.1068  138.3463  151.7774 H   0  0  0  0  0  0  0  0  0  0  0  0
  147.2746  136.8198  150.9954 H   0  0  0  0  0  0  0  0  0  0  0  0
  147.0515  139.9606  151.7227 H   0  0  0  0  0  0  0  0  0  0  0  0
  146.4745  139.6856  153.3574 H   0  0  0  0  0  0  0  0  0  0  0  0
  148.8646  139.1784  152.2485 H   0  0  0  0  0  0  0  0  0  0  0  0
  144.5136  132.2547  150.3776 H   0  0  0  0  0  0  0  0  0  0  0  0
  144.5501  129.7984  150.6620 H   0  0  0  0  0  0  0  0  0  0  0  0
  1  2  1  0  0  0  0
  1 24  1  0  0  0  0
  1 25  1  0  0  0  0
  1 26  1  0  0  0  0
  2  3  1  0  0  0  0
  3 23  1  0  0  0  0
  3  4  2  0  0  0  0
  4  5  1  0  0  0  0
  4 27  1  0  0  0  0
  5  6  2  0  0  0  0
  5 28  1  0  0  0  0
  6  7  1  0  0  0  0
  6 22  1  0  0  0  0
  7  8  1  0  0  0  0
  7 29  1  0  0  0  0
  7 30  1  0  0  0  0
  8 16  1  0  0  0  0
  8  9  2  0  0  0  0
  9 10  1  0  0  0  0
 10 15  2  0  0  0  0
 10 11  1  0  0  0  0
 11 12  2  0  0  0  0
 11 31  1  0  0  0  0
 12 13  1  0  0  0  0
 12 32  1  0  0  0  0
 13 14  2  0  0  0  0
 13 33  1  0  0  0  0
 14 15  1  0  0  0  0
 14 34  1  0  0  0  0
 15 16  1  0  0  0  0
 16 17  1  0  0  0  0
 17 18  1  0  0  0  0
 17 35  1  0  0  0  0
 17 36  1  0  0  0  0
 18 19  1  0  0  0  0
 18 20  1  0  0  0  0
 18 37  1  0  0  0  0
 19 38  1  0  0  0  0
 20 21  1  0  0  0  0
 20 39  1  0  0  0  0
 20 40  1  0  0  0  0
 21 41  1  0  0  0  0
 22 23  2  0  0  0  0
 22 42  1  0  0  0  0
 23 43  1  0  0  0  0
M  END
> <s_m_source_file>
AV-unprocessed.smi

> <i_m_source_file_index>
877

> <i_lp_mmshare_version>
43012

> <i_f3d_flags>
0

> <s_epik_input>
W0NIM11PYzFbY0hdW2NIXWMoW2NIXVtjSF0xKVtDSDJdYyhuMiluKFtDSDJdW0NASF0oW09IXSlbQ0gyXVtPSF0pYyhjMjMpW2NIXVtjSF1bY0hdW2NIXTM=

> <s_epik_cmdline>
J2VwaWtfcHl0aG9uJywgJy1waCcsICc3LjAnLCAnLXRuJywgJzgnLCAnLW1hJywgJzIwMCcsICctbWV0YWxfYmluZGluZycsICctaW1hZScsICc8aW5maWxlLm1hZT4nLCAnLW9tYWUnLCAnPG91dGZpbGUubWFlPic=

> <r_lp_tautomer_probability>
1

> <r_epik_Ionization_Penalty>
0.0616669

> <r_epik_Ionization_Penalty_Charging>
0

> <r_epik_Ionization_Penalty_Neutral>
0.0616669

> <r_epik_State_Penalty>
0.0535415

> <r_epik_Charging_Adjusted_Penalty>
0.0535415

> <i_epik_Tot_Q>
0

> <i_epik_Tot_abs_Q>
0

> <r_epik_Metal_State_Penalty>
5.60326e-05

> <b_epik_Metal_Only>
0

> <s_lp_Force_Field>
OPLS_2005

> <r_lp_Energy>
20.6154

> <b_lp_Chiralities_Consistent>
1

> <s_lp_Variant>
AV-unprocessed.smi:877-1

> <Gold.Version>
5.8.1

> <Gold.Id.Protein>
6NUR|6NUR_protein|mol2

> <Gold.PLP.Fitness>
46.3554

> <Gold.PLP.PLP>
-42.2740

> <Gold.PLP.part.hbond>
-4.8841

> <Gold.PLP.part.metal>
0.0000

> <Gold.PLP.part.buried>
-6.5442

> <Gold.PLP.part.nonpolar>
-31.6318

> <Gold.PLP.part.repulsive>
0.2440

> <Gold.PLP.ligand.clash>
0.0000

> <Gold.PLP.ligand.torsion>
0.9810

> <Gold.PLP.Chemscore.Hbond>
2.0000

> <Gold.PLP.Chemscore.CHOScore>
0.0000

> <Gold.PLP.Chemscore.Metal>
0.0000

> <Gold.Chemscore.Hbonds>
donor molecule, donor type, donor heavy atom, donor atom, acceptor molecule, acceptor atom, score
      L1  H    19    38       P1  7948  0.94
      L1  H    21    41       P1  7957  1.00

> <Gold.PLP.Chemscore.Internal.Correction>
0.0434

> <Gold.Rescore>
     Score         DG    S(hbond)    S(metal)    S(lipo)     H(rot)  DE(clash)    DE(int)     intcor
     15.26     -16.43       1.99        0.00     105.61       3.15       0.01       1.15       ----

> <Gold.Chemscore.Fitness>
15.2636

> <Gold.Chemscore.DG>
-16.4295

> <Gold.Chemscore.ZeroCoef>
-5.4800

> <Gold.Chemscore.Hbond>
1.9923

> <Gold.Chemscore.Metal>
0.0000

> <Gold.Chemscore.Lipo>
105.6072

> <Gold.Chemscore.Internal_Hbond>
0.0000

> <Gold.Chemscore.DEClash>
0.0137

> <Gold.Chemscore.DEInternal>
1.1522

> <Gold.Chemscore.Rot>
3.1488

> <Gold.Chemscore.Internal.Correction>
   9.000000E+99

> <Gold.Chemscore.Hbonds>
donor molecule, donor type, donor heavy atom, donor atom, acceptor molecule, acceptor atom, score
      L1  H    19    38       P1  7948  0.90
      L1  H    21    41       P1  7957  0.96

> <Gold.Chemscore.Hbond.Weighted>
-6.6543

> <Gold.Chemscore.Metal.Weighted>
-0.0000

> <Gold.Chemscore.Lipo.Weighted>
-12.3560

> <Gold.Chemscore.Internal_Hbond.Weighted>
0.0000

> <Gold.Chemscore.DEClash.Weighted>
0.0137

> <Gold.Chemscore.DEInternal.Weighted>
1.1522

> <Gold.Chemscore.Rot.Weighted>
8.0608

> <Gold.Chemscore.Internal.Correction.Weighted>
   9.000000E+99

> <Gold.Protein.RotatedTorsions>
[ 6907 6896 6895 6894 ] final  -18.32 input  -60.11 | X-H torsion
[ 7974 7965 7964 7962 ] final -158.52 input  175.53 | X-H torsion
[ 8008 7997 7996 7995 ] final   97.57 input   59.86 | X-H torsion
[ 10167 10162 10161 10158 ] final  -43.88 input  -65.29 | X-H torsion
[ 10718 10713 10712 10709 ] final -110.05 input   66.30 | X-H torsion
[ 10763 10752 10751 10750 ] final  -66.35 input  -60.55 | X-H torsion
[ 11005 11000 10999 10996 ] final   75.04 input  -57.11 | X-H torsion

> <Gold.Protein.ActiveResidues>
 VAL166  LYS551  ARG553  GLY616  TRP617  ASP618  TYR619  PRO620  LYS621  CYS622 
 ASP623  PHE694  ASN695  SER759  ASP760  ASP761  ALA762  ILE779  LEU786  VAL792 
 PHE793  MET794  SER795  GLU796  ALA797  LYS798  CYS799  TRP800  GLU811  SER814 

> <Gold.Protein.RotatedAtoms>
  151.2800  135.0711  159.9165 H   0  0  0  0  0  0  0  0  0  0  0  0  # atno 6907 bound_to 6896
  152.5335  134.0040  159.7918 H   0  0  0  0  0  0  0  0  0  0  0  0  # atno 6908 bound_to 6896
  151.0293  133.5754  159.2693 H   0  0  0  0  0  0  0  0  0  0  0  0  # atno 6909 bound_to 6896
  144.7502  140.3816  143.6054 H   0  0  0  0  0  0  0  0  0  0  0  0  # atno 7974 bound_to 7965
  156.0915  140.3256  155.7821 H   0  0  0  0  0  0  0  0  0  0  0  0  # atno 8008 bound_to 7997
  155.4989  140.0567  157.2959 H   0  0  0  0  0  0  0  0  0  0  0  0  # atno 8009 bound_to 7997
  154.4640  140.1980  156.0183 H   0  0  0  0  0  0  0  0  0  0  0  0  # atno 8010 bound_to 7997
  140.6917  143.2959  151.3416 H   0  0  0  0  0  0  0  0  0  0  0  0  # atno 10167 bound_to 10162
  156.0570  130.5795  150.8184 H   0  0  0  0  0  0  0  0  0  0  0  0  # atno 10718 bound_to 10713
  154.3584  135.6121  153.5678 H   0  0  0  0  0  0  0  0  0  0  0  0  # atno 10763 bound_to 10752
  152.9794  135.5809  154.4661 H   0  0  0  0  0  0  0  0  0  0  0  0  # atno 10764 bound_to 10752
  154.4395  135.2850  155.1835 H   0  0  0  0  0  0  0  0  0  0  0  0  # atno 10765 bound_to 10752
  139.9362  134.7484  156.1222 H   0  0  0  0  0  0  0  0  0  0  0  0  # atno 11005 bound_to 11000
  145.6972  139.1652  143.2613 LP  0  0  0  0  0  0  0  0  0  0  0  0  # atno 17320 bound_to 7965
  146.1441  140.7016  142.9353 LP  0  0  0  0  0  0  0  0  0  0  0  0  # atno 17321 bound_to 7965
  139.6328  144.0689  152.2490 LP  0  0  0  0  0  0  0  0  0  0  0  0  # atno 17342 bound_to 10162
  140.0169  144.6182  150.7600 LP  0  0  0  0  0  0  0  0  0  0  0  0  # atno 17343 bound_to 10162
  157.5548  131.0944  150.9644 LP  0  0  0  0  0  0  0  0  0  0  0  0  # atno 17370 bound_to 10713
  156.9896  130.5558  149.5302 LP  0  0  0  0  0  0  0  0  0  0  0  0  # atno 17371 bound_to 10713
  141.0977  133.6689  156.2682 LP  0  0  0  0  0  0  0  0  0  0  0  0  # atno 17394 bound_to 11000
  140.6070  134.5497  157.5527 LP  0  0  0  0  0  0  0  0  0  0  0  0  # atno 17395 bound_to 11000

$$$$
