AV-unprocessed.smi:2007|AV-procd|sdf|8133|dock3
  -GOLD-   2272010363D 1   1.00000     0.00000
 Structure written by MMmdl.
 36 37  0  0  0  0  0  0  0  0  1 V2000
  148.6595  135.5243  156.4316 C   0  0  0  0  0  0  0  0  0  0  0  0
  149.5057  134.9069  155.3102 C   0  0  2  0  0  0  0  0  0  0  0  0
  150.8034  135.7142  155.0852 C   0  0  0  0  0  0  0  0  0  0  0  0
  150.7149  137.1478  155.3663 N   0  0  0  0  0  0  0  0  0  0  0  0
  151.9920  137.8130  155.1360 C   0  0  0  0  0  0  0  0  0  0  0  0
  151.9169  139.3179  155.4473 C   0  0  0  0  0  0  0  0  0  0  0  0
  150.8891  139.9161  154.6644 O   0  0  0  0  0  0  0  0  0  0  0  0
  149.6140  139.3218  154.8857 C   0  0  0  0  0  0  0  0  0  0  0  0
  149.6842  137.8169  154.5748 C   0  0  0  0  0  0  0  0  0  0  0  0
  148.7119  134.8696  154.0828 N   0  0  0  0  0  0  0  0  0  0  0  0
  147.6254  134.1107  153.8741 C   0  0  0  0  0  0  0  0  0  0  0  0
  147.1377  133.3679  154.7264 O   0  0  0  0  0  0  0  0  0  0  0  0
  147.1548  134.2705  152.6249 N   0  0  0  0  0  0  0  0  0  0  0  0
  146.0677  133.6003  152.0051 C   0  0  0  0  0  0  0  0  0  0  0  0
  145.0671  134.2163  151.3645 N   0  0  0  0  0  0  0  0  0  0  0  0
  144.1298  133.3109  150.8613 C   0  0  0  0  0  0  0  0  0  0  0  0
  144.4352  131.9994  151.1288 C   0  0  0  0  0  0  0  0  0  0  0  0
  145.9203  131.8491  152.0298 S   0  0  0  0  0  0  0  0  0  0  0  0
  149.2115  135.5450  157.3716 H   0  0  0  0  0  0  0  0  0  0  0  0
  147.7485  134.9486  156.5989 H   0  0  0  0  0  0  0  0  0  0  0  0
  148.3686  136.5483  156.1944 H   0  0  0  0  0  0  0  0  0  0  0  0
  149.7515  133.8932  155.6278 H   0  0  0  0  0  0  0  0  0  0  0  0
  151.5777  135.2776  155.7179 H   0  0  0  0  0  0  0  0  0  0  0  0
  151.1464  135.5698  154.0595 H   0  0  0  0  0  0  0  0  0  0  0  0
  152.7643  137.3569  155.7565 H   0  0  0  0  0  0  0  0  0  0  0  0
  152.3012  137.6731  154.0991 H   0  0  0  0  0  0  0  0  0  0  0  0
  151.7189  139.4834  156.5076 H   0  0  0  0  0  0  0  0  0  0  0  0
  152.8669  139.8012  155.2189 H   0  0  0  0  0  0  0  0  0  0  0  0
  149.3007  139.4874  155.9180 H   0  0  0  0  0  0  0  0  0  0  0  0
  148.8778  139.8078  154.2455 H   0  0  0  0  0  0  0  0  0  0  0  0
  149.8845  137.6765  153.5116 H   0  0  0  0  0  0  0  0  0  0  0  0
  148.7070  137.3771  154.7680 H   0  0  0  0  0  0  0  0  0  0  0  0
  149.0349  135.4486  153.3219 H   0  0  0  0  0  0  0  0  0  0  0  0
  147.6465  134.9306  152.0410 H   0  0  0  0  0  0  0  0  0  0  0  0
  143.2723  133.6876  150.3236 H   0  0  0  0  0  0  0  0  0  0  0  0
  143.8777  131.1169  150.8524 H   0  0  0  0  0  0  0  0  0  0  0  0
  1  2  1  0  0  0  0
  1 19  1  0  0  0  0
  1 20  1  0  0  0  0
  1 21  1  0  0  0  0
  2  3  1  0  0  0  0
  2 10  1  0  0  0  0
  2 22  1  0  0  0  0
  3  4  1  0  0  0  0
  3 23  1  0  0  0  0
  3 24  1  0  0  0  0
  4  9  1  0  0  0  0
  4  5  1  0  0  0  0
  5  6  1  0  0  0  0
  5 25  1  0  0  0  0
  5 26  1  0  0  0  0
  6  7  1  0  0  0  0
  6 27  1  0  0  0  0
  6 28  1  0  0  0  0
  7  8  1  0  0  0  0
  8  9  1  0  0  0  0
  8 29  1  0  0  0  0
  8 30  1  0  0  0  0
  9 31  1  0  0  0  0
  9 32  1  0  0  0  0
 10 11  1  0  0  0  0
 10 33  1  0  0  0  0
 11 12  2  0  0  0  0
 11 13  1  0  0  0  0
 13 14  1  0  0  0  0
 13 34  1  0  0  0  0
 14 18  1  0  0  0  0
 14 15  2  0  0  0  0
 15 16  1  0  0  0  0
 16 17  2  0  0  0  0
 16 35  1  0  0  0  0
 17 18  1  0  0  0  0
 17 36  1  0  0  0  0
M  END
> <s_m_source_file>
AV-unprocessed.smi

> <i_m_source_file_index>
2007

> <i_lp_mmshare_version>
43012

> <i_f3d_flags>
0

> <s_epik_input>
W0NIMl0xW0NIMl1PW0NIMl1bQ0gyXU4xW0NIMl1bQ0BASF0oW0NIM10pW05IXUMoPU8pW05IXWMybltjSF1bY0hdczI=

> <s_epik_cmdline>
J2VwaWtfcHl0aG9uJywgJy1waCcsICc3LjAnLCAnLXRuJywgJzgnLCAnLW1hJywgJzIwMCcsICctbWV0YWxfYmluZGluZycsICctaW1hZScsICc8aW5maWxlLm1hZT4nLCAnLW9tYWUnLCAnPG91dGZpbGUubWFlPic=

> <r_lp_tautomer_probability>
0.999

> <r_epik_Ionization_Penalty>
0.219197

> <r_epik_Ionization_Penalty_Charging>
0

> <r_epik_Ionization_Penalty_Neutral>
0.219197

> <r_epik_State_Penalty>
0.209349

> <r_epik_Charging_Adjusted_Penalty>
0.209349

> <i_epik_Tot_Q>
0

> <i_epik_Tot_abs_Q>
0

> <r_epik_Metal_State_Penalty>
0.254604

> <b_epik_Metal_Only>
0

> <s_lp_Force_Field>
OPLS_2005

> <r_lp_Energy>
23.8142

> <b_lp_Chiralities_Consistent>
1

> <s_lp_Variant>
AV-unprocessed.smi:2007-1

> <Gold.Version>
5.8.1

> <Gold.Id.Protein>
6NUR|6NUR_protein|mol2

> <Gold.PLP.Fitness>
36.5619

> <Gold.PLP.PLP>
-26.3280

> <Gold.PLP.part.hbond>
-3.0000

> <Gold.PLP.part.metal>
0.0000

> <Gold.PLP.part.buried>
-3.3993

> <Gold.PLP.part.nonpolar>
-20.1250

> <Gold.PLP.part.repulsive>
0.3711

> <Gold.PLP.ligand.clash>
0.0000

> <Gold.PLP.ligand.torsion>
0.8863

> <Gold.PLP.Chemscore.Hbond>
2.9920

> <Gold.PLP.Chemscore.CHOScore>
1.0000

> <Gold.PLP.Chemscore.Metal>
0.0000

> <Gold.Chemscore.Hbonds>
donor molecule, donor type, donor heavy atom, donor atom, acceptor molecule, acceptor atom, score
      L1  H    10    33       P1  7948  1.00
      L1  H    13    34       P1  7948  1.00
      P1  H  7989  7998       L1     7  1.00
      L1  C    16    35       P1 10186  1.00

> <Gold.PLP.Chemscore.Internal.Correction>
0.0305

> <Gold.Rescore>
     Score         DG    S(hbond)    S(metal)    S(lipo)     H(rot)  DE(clash)    DE(int)     intcor
     16.70     -17.61       2.84        0.00      57.26       1.58       0.00       0.91       ----

> <Gold.Chemscore.Fitness>
16.6974

> <Gold.Chemscore.DG>
-17.6089

> <Gold.Chemscore.ZeroCoef>
-5.4800

> <Gold.Chemscore.Hbond>
2.8385

> <Gold.Chemscore.Metal>
0.0000

> <Gold.Chemscore.Lipo>
57.2623

> <Gold.Chemscore.Internal_Hbond>
0.0000

> <Gold.Chemscore.DEClash>
0.0000

> <Gold.Chemscore.DEInternal>
0.9115

> <Gold.Chemscore.Rot>
1.5825

> <Gold.Chemscore.Internal.Correction>
   9.000000E+99

> <Gold.Chemscore.Hbonds>
donor molecule, donor type, donor heavy atom, donor atom, acceptor molecule, acceptor atom, score
      L1  H    10    33       P1  7948  0.54
      L1  H    13    34       P1  7948  0.78
      P1  H  7989  7998       L1     7  0.60

> <Gold.Chemscore.Hbond.Weighted>
-9.4804

> <Gold.Chemscore.Metal.Weighted>
-0.0000

> <Gold.Chemscore.Lipo.Weighted>
-6.6997

> <Gold.Chemscore.Internal_Hbond.Weighted>
0.0000

> <Gold.Chemscore.DEClash.Weighted>
0.0000

> <Gold.Chemscore.DEInternal.Weighted>
0.9115

> <Gold.Chemscore.Rot.Weighted>
4.0512

> <Gold.Chemscore.Internal.Correction.Weighted>
   9.000000E+99

> <Gold.Protein.RotatedTorsions>
[ 6907 6896 6895 6894 ] final   85.57 input  -60.11 | X-H torsion
[ 7974 7965 7964 7962 ] final  -75.69 input  175.53 | X-H torsion
[ 8008 7997 7996 7995 ] final -129.11 input   59.86 | X-H torsion
[ 10167 10162 10161 10158 ] final   58.12 input  -65.29 | X-H torsion
[ 10718 10713 10712 10709 ] final   70.45 input   66.30 | X-H torsion
[ 10763 10752 10751 10750 ] final  -48.00 input  -60.55 | X-H torsion
[ 11005 11000 10999 10996 ] final   76.96 input  -57.11 | X-H torsion

> <Gold.Protein.ActiveResidues>
 VAL166  LYS551  ARG553  GLY616  TRP617  ASP618  TYR619  PRO620  LYS621  CYS622 
 ASP623  PHE694  ASN695  SER759  ASP760  ASP761  ALA762  ILE779  LEU786  VAL792 
 PHE793  MET794  SER795  GLU796  ALA797  LYS798  CYS799  TRP800  GLU811  SER814 

> <Gold.Protein.RotatedAtoms>
  152.5377  134.2566  159.8918 H   0  0  0  0  0  0  0  0  0  0  0  0  # atno 6907 bound_to 6896
  151.2527  133.4335  159.2620 H   0  0  0  0  0  0  0  0  0  0  0  0  # atno 6908 bound_to 6896
  151.0524  134.9696  159.8275 H   0  0  0  0  0  0  0  0  0  0  0  0  # atno 6909 bound_to 6896
  145.6227  140.9359  143.1129 H   0  0  0  0  0  0  0  0  0  0  0  0  # atno 7974 bound_to 7965
  155.2739  140.0441  157.3009 H   0  0  0  0  0  0  0  0  0  0  0  0  # atno 8008 bound_to 7997
  154.5637  140.2353  155.8265 H   0  0  0  0  0  0  0  0  0  0  0  0  # atno 8009 bound_to 7997
  156.2068  140.3010  155.9652 H   0  0  0  0  0  0  0  0  0  0  0  0  # atno 8010 bound_to 7997
  140.1906  144.4089  150.6573 H   0  0  0  0  0  0  0  0  0  0  0  0  # atno 10167 bound_to 10162
  157.6400  130.9478  150.0652 H   0  0  0  0  0  0  0  0  0  0  0  0  # atno 10718 bound_to 10713
  154.0707  135.6605  153.4824 H   0  0  0  0  0  0  0  0  0  0  0  0  # atno 10763 bound_to 10752
  153.0392  135.5156  154.7570 H   0  0  0  0  0  0  0  0  0  0  0  0  # atno 10764 bound_to 10752
  154.6634  135.3018  154.9804 H   0  0  0  0  0  0  0  0  0  0  0  0  # atno 10765 bound_to 10752
  139.9275  134.7644  156.1462 H   0  0  0  0  0  0  0  0  0  0  0  0  # atno 11005 bound_to 11000
  144.7224  139.7984  143.7377 LP  0  0  0  0  0  0  0  0  0  0  0  0  # atno 17320 bound_to 7965
  146.1418  139.4477  143.0104 LP  0  0  0  0  0  0  0  0  0  0  0  0  # atno 17321 bound_to 7965
  140.6458  143.2213  151.6189 LP  0  0  0  0  0  0  0  0  0  0  0  0  # atno 17342 bound_to 10162
  139.5257  144.3066  152.1029 LP  0  0  0  0  0  0  0  0  0  0  0  0  # atno 17343 bound_to 10162
  156.1673  130.3645  149.9215 LP  0  0  0  0  0  0  0  0  0  0  0  0  # atno 17370 bound_to 10713
  156.7199  130.9003  151.3617 LP  0  0  0  0  0  0  0  0  0  0  0  0  # atno 17371 bound_to 10713
  141.0842  133.6741  156.2401 LP  0  0  0  0  0  0  0  0  0  0  0  0  # atno 17394 bound_to 11000
  140.6295  134.5279  157.5558 LP  0  0  0  0  0  0  0  0  0  0  0  0  # atno 17395 bound_to 11000

$$$$
