AV-unprocessed.smi:941|AV-procd|sdf|4220|dock4
  -GOLD-   22720 2133D 1   1.00000     0.00000
 Structure written by MMmdl.
 18 18  0  0  0  0  0  0  0  0  2 V2000
  142.3947  132.5003  148.2876 N   0  3  0  0  0  0  0  0  0  0  0  0
  143.6915  132.6131  148.9768 C   0  0  0  0  0  0  0  0  0  0  0  0
  143.5433  132.4033  150.4896 C   0  0  0  0  0  0  0  0  0  0  0  0
  144.8143  132.6681  151.2247 C   0  0  0  0  0  0  0  0  0  0  0  0
  146.0076  132.1323  150.9813 N   0  0  0  0  0  0  0  0  0  0  0  0
  146.7744  132.7791  151.8998 C   0  0  0  0  0  0  0  0  0  0  0  0
  148.1483  132.5129  152.0162 N   0  0  0  0  0  0  0  0  0  0  0  0
  146.1473  133.6670  152.6599 N   0  0  0  0  0  0  0  0  0  0  0  0
  144.8234  133.6070  152.2011 O   0  0  0  0  0  0  0  0  0  0  0  0
  141.9714  131.6107  148.5112 H   0  0  0  0  0  0  0  0  0  0  0  0
  142.5352  132.5632  147.2893 H   0  0  0  0  0  0  0  0  0  0  0  0
  144.3760  131.8750  148.5570 H   0  0  0  0  0  0  0  0  0  0  0  0
  144.1129  133.5975  148.7709 H   0  0  0  0  0  0  0  0  0  0  0  0
  142.7686  133.0597  150.8881 H   0  0  0  0  0  0  0  0  0  0  0  0
  143.2272  131.3808  150.7003 H   0  0  0  0  0  0  0  0  0  0  0  0
  148.5886  131.8320  151.4142 H   0  0  0  0  0  0  0  0  0  0  0  0
  148.7150  133.0310  152.6720 H   0  0  0  0  0  0  0  0  0  0  0  0
  141.7847  133.2469  148.5896 H   0  0  0  0  0  0  0  0  0  0  0  0
  1  2  1  0  0  0  0
  1 10  1  0  0  0  0
  1 11  1  0  0  0  0
  1 18  1  0  0  0  0
  2  3  1  0  0  0  0
  2 12  1  0  0  0  0
  2 13  1  0  0  0  0
  3  4  1  0  0  0  0
  3 14  1  0  0  0  0
  3 15  1  0  0  0  0
  4  9  1  0  0  0  0
  4  5  2  0  0  0  0
  5  6  1  0  0  0  0
  6  7  1  0  0  0  0
  6  8  2  0  0  0  0
  7 16  1  0  0  0  0
  7 17  1  0  0  0  0
  8  9  1  0  0  0  0
M  CHG  1   1   1
M  END
> <s_m_source_file>
AV-unprocessed.smi

> <i_m_source_file_index>
941

> <i_lp_mmshare_version>
43012

> <i_f3d_flags>
0

> <s_epik_input>
W05IMl1bQ0gyXVtDSDJdYzFuYyhbTkgyXSlubzE=

> <s_epik_cmdline>
J2VwaWtfcHl0aG9uJywgJy1waCcsICc3LjAnLCAnLXRuJywgJzgnLCAnLW1hJywgJzIwMCcsICctbWV0YWxfYmluZGluZycsICctaW1hZScsICc8aW5maWxlLm1hZT4nLCAnLW9tYWUnLCAnPG91dGZpbGUubWFlPic=

> <r_epik_Ionization_Penalty>
0.00605592

> <r_epik_Ionization_Penalty_Charging>
0.00601069

> <r_epik_Ionization_Penalty_Neutral>
4.52271e-05

> <r_epik_State_Penalty>
0.00442499

> <r_epik_Charging_Adjusted_Penalty>
0.0104357

> <i_epik_Tot_Q>
1

> <i_epik_Tot_abs_Q>
1

> <r_epik_Metal_State_Penalty>
-0

> <b_epik_Metal_Only>
0

> <s_lp_Force_Field>
OPLS_2005

> <r_lp_Energy>
-1.60622

> <b_lp_Chiralities_Consistent>
1

> <s_lp_Variant>
AV-unprocessed.smi:941-1

> <Gold.Version>
5.8.1

> <Gold.Id.Protein>
6NUR|6NUR_protein|mol2

> <Gold.PLP.Fitness>
33.6235

> <Gold.PLP.PLP>
-18.7084

> <Gold.PLP.part.hbond>
-4.0000

> <Gold.PLP.part.metal>
0.0000

> <Gold.PLP.part.buried>
-4.4733

> <Gold.PLP.part.nonpolar>
-11.2587

> <Gold.PLP.part.repulsive>
0.5464

> <Gold.PLP.ligand.clash>
0.0000

> <Gold.PLP.ligand.torsion>
0.0354

> <Gold.PLP.Chemscore.Hbond>
4.9920

> <Gold.PLP.Chemscore.CHOScore>
0.0000

> <Gold.PLP.Chemscore.Metal>
0.0000

> <Gold.Chemscore.Hbonds>
donor molecule, donor type, donor heavy atom, donor atom, acceptor molecule, acceptor atom, score
      L1  H     1    10       P1 10952  1.00
      L1  H     1    11       P1 10195  0.91
      L1  H     1    18       P1 10186  2.00
      L1  H     7    16       P1 10747  1.00

> <Gold.PLP.Chemscore.Internal.Correction>
0.0099

> <Gold.Rescore>
     Score         DG    S(hbond)    S(metal)    S(lipo)     H(rot)  DE(clash)    DE(int)     intcor
     17.02     -17.14       3.93        0.00      24.26       1.67       0.03       0.09       ----

> <Gold.Chemscore.Fitness>
17.0162

> <Gold.Chemscore.DG>
-17.1430

> <Gold.Chemscore.ZeroCoef>
-5.4800

> <Gold.Chemscore.Hbond>
3.9258

> <Gold.Chemscore.Metal>
0.0000

> <Gold.Chemscore.Lipo>
24.2550

> <Gold.Chemscore.Internal_Hbond>
0.0000

> <Gold.Chemscore.DEClash>
0.0348

> <Gold.Chemscore.DEInternal>
0.0919

> <Gold.Chemscore.Rot>
1.6747

> <Gold.Chemscore.Internal.Correction>
   9.000000E+99

> <Gold.Chemscore.Hbonds>
donor molecule, donor type, donor heavy atom, donor atom, acceptor molecule, acceptor atom, score
      L1  H     1    10       P1 10952  0.95
      L1  H     1    11       P1 10195  0.86
      L1  H     1    18       P1 10186  1.00
      L1  H     7    16       P1 10747  0.93

> <Gold.Chemscore.Hbond.Weighted>
-13.1123

> <Gold.Chemscore.Metal.Weighted>
-0.0000

> <Gold.Chemscore.Lipo.Weighted>
-2.8378

> <Gold.Chemscore.Internal_Hbond.Weighted>
0.0000

> <Gold.Chemscore.DEClash.Weighted>
0.0348

> <Gold.Chemscore.DEInternal.Weighted>
0.0919

> <Gold.Chemscore.Rot.Weighted>
4.2872

> <Gold.Chemscore.Internal.Correction.Weighted>
   9.000000E+99

> <Gold.Protein.RotatedTorsions>
[ 6907 6896 6895 6894 ] final  -70.85 input  -60.11 | X-H torsion
[ 7974 7965 7964 7962 ] final  176.35 input  175.53 | X-H torsion
[ 8008 7997 7996 7995 ] final    1.95 input   59.86 | X-H torsion
[ 10167 10162 10161 10158 ] final   24.21 input  -65.29 | X-H torsion
[ 10718 10713 10712 10709 ] final  -90.14 input   66.30 | X-H torsion
[ 10763 10752 10751 10750 ] final  -27.70 input  -60.55 | X-H torsion
[ 11005 11000 10999 10996 ] final   25.25 input  -57.11 | X-H torsion

> <Gold.Protein.ActiveResidues>
 VAL166  LYS551  ARG553  GLY616  TRP617  ASP618  TYR619  PRO620  LYS621  CYS622 
 ASP623  PHE694  ASN695  SER759  ASP760  ASP761  ALA762  ILE779  LEU786  VAL792 
 PHE793  MET794  SER795  GLU796  ALA797  LYS798  CYS799  TRP800  GLU811  SER814 

> <Gold.Protein.RotatedAtoms>
  150.7239  134.5394  159.5739 H   0  0  0  0  0  0  0  0  0  0  0  0  # atno 6907 bound_to 6896
  152.2908  134.7721  160.0387 H   0  0  0  0  0  0  0  0  0  0  0  0  # atno 6908 bound_to 6896
  151.8335  133.3377  159.3657 H   0  0  0  0  0  0  0  0  0  0  0  0  # atno 6909 bound_to 6896
  144.7186  140.0083  143.6440 H   0  0  0  0  0  0  0  0  0  0  0  0  # atno 7974 bound_to 7965
  154.6858  140.2642  155.6862 H   0  0  0  0  0  0  0  0  0  0  0  0  # atno 8008 bound_to 7997
  156.2714  140.2801  156.1341 H   0  0  0  0  0  0  0  0  0  0  0  0  # atno 8009 bound_to 7997
  155.0967  140.0374  157.2675 H   0  0  0  0  0  0  0  0  0  0  0  0  # atno 8010 bound_to 7997
  140.5206  144.0008  150.6415 H   0  0  0  0  0  0  0  0  0  0  0  0  # atno 10167 bound_to 10162
  155.9986  130.4898  150.5277 H   0  0  0  0  0  0  0  0  0  0  0  0  # atno 10718 bound_to 10713
  153.7363  135.6935  153.4977 H   0  0  0  0  0  0  0  0  0  0  0  0  # atno 10763 bound_to 10752
  153.2100  135.4406  155.0367 H   0  0  0  0  0  0  0  0  0  0  0  0  # atno 10764 bound_to 10752
  154.8236  135.3434  154.6891 H   0  0  0  0  0  0  0  0  0  0  0  0  # atno 10765 bound_to 10752
  140.3498  134.2241  155.7681 H   0  0  0  0  0  0  0  0  0  0  0  0  # atno 11005 bound_to 11000
  146.0279  139.3308  143.0773 LP  0  0  0  0  0  0  0  0  0  0  0  0  # atno 17320 bound_to 7965
  145.8489  140.9540  143.0760 LP  0  0  0  0  0  0  0  0  0  0  0  0  # atno 17321 bound_to 7965
  140.3356  143.3051  152.0642 LP  0  0  0  0  0  0  0  0  0  0  0  0  # atno 17342 bound_to 10162
  139.4922  144.6478  151.6740 LP  0  0  0  0  0  0  0  0  0  0  0  0  # atno 17343 bound_to 10162
  157.3230  131.0685  151.1917 LP  0  0  0  0  0  0  0  0  0  0  0  0  # atno 17370 bound_to 10713
  157.2824  130.6756  149.6072 LP  0  0  0  0  0  0  0  0  0  0  0  0  # atno 17371 bound_to 10713
  141.2015  133.7961  157.0437 LP  0  0  0  0  0  0  0  0  0  0  0  0  # atno 17394 bound_to 11000
  140.0712  134.9701  157.1470 LP  0  0  0  0  0  0  0  0  0  0  0  0  # atno 17395 bound_to 11000

$$$$
