AV-unprocessed.smi:31|AV-procd|sdf|196|dock8
  -GOLD-   2262015463D 1   1.00000     0.00000
 Structure written by MMmdl.
 49 52  0  0  0  0  0  0  0  0  1 V2000
  151.5290  137.1840  159.7373 O   0  0  0  0  0  0  0  0  0  0  0  0
  151.0315  137.7701  158.7752 C   0  0  0  0  0  0  0  0  0  0  0  0
  151.8664  138.7669  157.9558 C   0  0  0  0  0  0  0  0  0  0  0  0
  152.2932  139.9559  158.7260 N   0  0  0  0  0  0  0  0  0  0  0  0
  153.1677  139.7804  159.8271 C   0  0  0  0  0  0  0  0  0  0  0  0
  153.5674  138.6619  160.1537 O   0  0  0  0  0  0  0  0  0  0  0  0
  153.5551  141.0015  160.5247 C   0  0  0  0  0  0  0  0  0  0  0  0
  154.3817  140.9299  161.5818 F   0  0  0  0  0  0  0  0  0  0  0  0
  153.0970  142.2058  160.1254 C   0  0  0  0  0  0  0  0  0  0  0  0
  152.2440  142.3625  159.0474 N   0  0  0  0  0  0  0  0  0  0  0  0
  151.7447  143.7224  158.6071 C   0  0  1  0  0  0  0  0  0  0  0  0
  150.2351  143.8592  158.8808 C   0  0  0  0  0  0  0  0  0  0  0  0
  150.1492  145.1782  159.6222 C   0  0  0  0  0  0  0  0  0  0  0  0
  151.4951  145.2265  160.3293 C   0  0  0  0  0  0  0  0  0  0  0  0
  152.3867  144.7261  159.3414 O   0  0  0  0  0  0  0  0  0  0  0  0
  151.8310  141.2286  158.3148 C   0  0  0  0  0  0  0  0  0  0  0  0
  151.0856  141.3486  157.3397 O   0  0  0  0  0  0  0  0  0  0  0  0
  149.7533  137.6373  158.3760 N   0  0  0  0  0  0  0  0  0  0  0  0
  148.7287  136.8049  158.9046 C   0  0  0  0  0  0  0  0  0  0  0  0
  147.8973  136.1478  157.9780 C   0  0  0  0  0  0  0  0  0  0  0  0
  146.8649  135.3028  158.4221 C   0  0  0  0  0  0  0  0  0  0  0  0
  146.6452  135.0910  159.7972 C   0  0  0  0  0  0  0  0  0  0  0  0
  147.5232  135.6989  160.7420 C   0  0  0  0  0  0  0  0  0  0  0  0
  148.5388  136.5650  160.2861 C   0  0  0  0  0  0  0  0  0  0  0  0
  147.4691  135.4805  162.1014 O   0  0  0  0  0  0  0  0  0  0  0  0
  147.0848  134.1759  162.5099 C   0  0  0  0  0  0  0  0  0  0  0  0
  145.5620  134.0359  162.5531 C   0  0  0  0  0  0  0  0  0  0  0  0
  144.8835  134.6531  161.3286 C   0  0  0  0  0  0  0  0  0  0  0  0
  145.5651  134.3041  160.1326 O   0  0  0  0  0  0  0  0  0  0  0  0
  152.7339  138.2484  157.5441 H   0  0  0  0  0  0  0  0  0  0  0  0
  151.2884  139.0505  157.0751 H   0  0  0  0  0  0  0  0  0  0  0  0
  153.4244  143.0699  160.6830 H   0  0  0  0  0  0  0  0  0  0  0  0
  152.0193  143.8132  157.5546 H   0  0  0  0  0  0  0  0  0  0  0  0
  149.6651  143.8473  157.9515 H   0  0  0  0  0  0  0  0  0  0  0  0
  149.8915  143.0428  159.5184 H   0  0  0  0  0  0  0  0  0  0  0  0
  150.0690  146.0040  158.9140 H   0  0  0  0  0  0  0  0  0  0  0  0
  149.3033  145.2300  160.3079 H   0  0  0  0  0  0  0  0  0  0  0  0
  151.7713  146.2319  160.6472 H   0  0  0  0  0  0  0  0  0  0  0  0
  151.4967  144.5744  161.2039 H   0  0  0  0  0  0  0  0  0  0  0  0
  149.4653  138.2477  157.6253 H   0  0  0  0  0  0  0  0  0  0  0  0
  148.0378  136.3012  156.9177 H   0  0  0  0  0  0  0  0  0  0  0  0
  146.2181  134.8296  157.6980 H   0  0  0  0  0  0  0  0  0  0  0  0
  149.1908  137.0072  161.0231 H   0  0  0  0  0  0  0  0  0  0  0  0
  147.5246  133.4248  161.8507 H   0  0  0  0  0  0  0  0  0  0  0  0
  147.4982  133.9846  163.5002 H   0  0  0  0  0  0  0  0  0  0  0  0
  145.3067  132.9786  162.6269 H   0  0  0  0  0  0  0  0  0  0  0  0
  145.1688  134.5113  163.4519 H   0  0  0  0  0  0  0  0  0  0  0  0
  143.8561  134.2954  161.2609 H   0  0  0  0  0  0  0  0  0  0  0  0
  144.8179  135.7382  161.4270 H   0  0  0  0  0  0  0  0  0  0  0  0
  1  2  2  0  0  0  0
  2  3  1  0  0  0  0
  2 18  1  0  0  0  0
  3  4  1  0  0  0  0
  3 30  1  0  0  0  0
  3 31  1  0  0  0  0
  4 16  1  0  0  0  0
  4  5  1  0  0  0  0
  5  6  2  0  0  0  0
  5  7  1  0  0  0  0
  7  8  1  0  0  0  0
  7  9  2  0  0  0  0
  9 10  1  0  0  0  0
  9 32  1  0  0  0  0
 10 11  1  0  0  0  0
 10 16  1  0  0  0  0
 11 15  1  0  0  0  0
 11 12  1  0  0  0  0
 11 33  1  0  0  0  0
 12 13  1  0  0  0  0
 12 34  1  0  0  0  0
 12 35  1  0  0  0  0
 13 14  1  0  0  0  0
 13 36  1  0  0  0  0
 13 37  1  0  0  0  0
 14 15  1  0  0  0  0
 14 38  1  0  0  0  0
 14 39  1  0  0  0  0
 16 17  2  0  0  0  0
 18 19  1  0  0  0  0
 18 40  1  0  0  0  0
 19 24  1  0  0  0  0
 19 20  2  0  0  0  0
 20 21  1  0  0  0  0
 20 41  1  0  0  0  0
 21 22  2  0  0  0  0
 21 42  1  0  0  0  0
 22 29  1  0  0  0  0
 22 23  1  0  0  0  0
 23 24  2  0  0  0  0
 23 25  1  0  0  0  0
 24 43  1  0  0  0  0
 25 26  1  0  0  0  0
 26 27  1  0  0  0  0
 26 44  1  0  0  0  0
 26 45  1  0  0  0  0
 27 28  1  0  0  0  0
 27 46  1  0  0  0  0
 27 47  1  0  0  0  0
 28 29  1  0  0  0  0
 28 48  1  0  0  0  0
 28 49  1  0  0  0  0
M  END
> <s_m_source_file>
AV-unprocessed.smi

> <i_m_source_file_index>
31

> <i_lp_mmshare_version>
43012

> <i_f3d_flags>
0

> <s_epik_input>
TzFbQ0gyXVtDSDJdW0NIMl1PYyhjMTIpW2NIXWMoW2NIXVtjSF0yKVtOSF1DKD1PKVtDSDJdbjNjKD1PKWMoRilbY0hdbihjMz1PKVtDQEBIXTRbQ0gyXVtDSDJdW0NIMl1PNA==

> <s_epik_cmdline>
J2VwaWtfcHl0aG9uJywgJy1waCcsICc3LjAnLCAnLXRuJywgJzgnLCAnLW1hJywgJzIwMCcsICctbWV0YWxfYmluZGluZycsICctaW1hZScsICc8aW5maWxlLm1hZT4nLCAnLW9tYWUnLCAnPG91dGZpbGUubWFlPic=

> <r_lp_tautomer_probability>
1

> <r_epik_Ionization_Penalty>
1.0483e-05

> <r_epik_Ionization_Penalty_Charging>
3.88729e-08

> <r_epik_Ionization_Penalty_Neutral>
1.04441e-05

> <r_epik_State_Penalty>
-0

> <r_epik_Charging_Adjusted_Penalty>
3.88729e-08

> <i_epik_Tot_Q>
0

> <i_epik_Tot_abs_Q>
0

> <r_epik_Metal_State_Penalty>
-0

> <b_epik_Metal_Only>
0

> <s_epik_Chemistry_Notes>
This compound contains an acetal/aminal-like group ( X-CH(R)-Y where X, Y are N, S, or O) that may be acid/base labile, releasing an aldehyde.

> <s_lp_Force_Field>
OPLS_2005

> <r_lp_Energy>
46.1803

> <b_lp_Chiralities_Consistent>
1

> <s_lp_Variant>
AV-unprocessed.smi:31-2

> <Gold.Version>
5.8.1

> <Gold.Id.Protein>
6NUR|6NUR_protein|mol2

> <Gold.PLP.Fitness>
53.5473

> <Gold.PLP.PLP>
-51.4842

> <Gold.PLP.part.hbond>
-1.0000

> <Gold.PLP.part.metal>
0.0000

> <Gold.PLP.part.buried>
-6.7707

> <Gold.PLP.part.nonpolar>
-44.2863

> <Gold.PLP.part.repulsive>
0.1731

> <Gold.PLP.ligand.clash>
0.0000

> <Gold.PLP.ligand.torsion>
0.4744

> <Gold.PLP.Chemscore.Hbond>
1.0000

> <Gold.PLP.Chemscore.CHOScore>
0.0000

> <Gold.PLP.Chemscore.Metal>
0.0000

> <Gold.Chemscore.Hbonds>
donor molecule, donor type, donor heavy atom, donor atom, acceptor molecule, acceptor atom, score
      P1  H  6896  6907       L1     1  0.96

> <Gold.PLP.Chemscore.Internal.Correction>
0.0120

> <Gold.Rescore>
     Score         DG    S(hbond)    S(metal)    S(lipo)     H(rot)  DE(clash)    DE(int)     intcor
     14.02     -16.32       0.99        0.00     100.22       1.64       0.11       2.18       ----

> <Gold.Chemscore.Fitness>
14.0231

> <Gold.Chemscore.DG>
-16.3197

> <Gold.Chemscore.ZeroCoef>
-5.4800

> <Gold.Chemscore.Hbond>
0.9939

> <Gold.Chemscore.Metal>
0.0000

> <Gold.Chemscore.Lipo>
100.2164

> <Gold.Chemscore.Internal_Hbond>
0.0000

> <Gold.Chemscore.DEClash>
0.1138

> <Gold.Chemscore.DEInternal>
2.1828

> <Gold.Chemscore.Rot>
1.6427

> <Gold.Chemscore.Internal.Correction>
   9.000000E+99

> <Gold.Chemscore.Hbonds>
donor molecule, donor type, donor heavy atom, donor atom, acceptor molecule, acceptor atom, score
      P1  H  6896  6907       L1     1  0.91

> <Gold.Chemscore.Hbond.Weighted>
-3.3197

> <Gold.Chemscore.Metal.Weighted>
-0.0000

> <Gold.Chemscore.Lipo.Weighted>
-11.7253

> <Gold.Chemscore.Internal_Hbond.Weighted>
0.0000

> <Gold.Chemscore.DEClash.Weighted>
0.1138

> <Gold.Chemscore.DEInternal.Weighted>
2.1828

> <Gold.Chemscore.Rot.Weighted>
4.2053

> <Gold.Chemscore.Internal.Correction.Weighted>
   9.000000E+99

> <Gold.Protein.RotatedTorsions>
[ 6907 6896 6895 6894 ] final    7.98 input  -60.11 | X-H torsion
[ 7974 7965 7964 7962 ] final  160.65 input  175.53 | X-H torsion
[ 8008 7997 7996 7995 ] final  133.83 input   59.86 | X-H torsion
[ 10167 10162 10161 10158 ] final  179.12 input  -65.29 | X-H torsion
[ 10718 10713 10712 10709 ] final -131.82 input   66.30 | X-H torsion
[ 10763 10752 10751 10750 ] final  168.85 input  -60.55 | X-H torsion
[ 11005 11000 10999 10996 ] final   49.93 input  -57.11 | X-H torsion

> <Gold.Protein.ActiveResidues>
 VAL166  LYS551  ARG553  GLY616  TRP617  ASP618  TYR619  PRO620  LYS621  CYS622 
 ASP623  PHE694  ASN695  SER759  ASP760  ASP761  ALA762  ILE779  LEU786  VAL792 
 PHE793  MET794  SER795  GLU796  ALA797  LYS798  CYS799  TRP800  GLU811  SER814 

> <Gold.Protein.RotatedAtoms>
  151.6987  135.0934  160.0246 H   0  0  0  0  0  0  0  0  0  0  0  0  # atno 6907 bound_to 6896
  152.3734  133.6445  159.6113 H   0  0  0  0  0  0  0  0  0  0  0  0  # atno 6908 bound_to 6896
  150.7690  133.9149  159.3422 H   0  0  0  0  0  0  0  0  0  0  0  0  # atno 6909 bound_to 6896
  144.7726  139.7787  143.6291 H   0  0  0  0  0  0  0  0  0  0  0  0  # atno 7974 bound_to 7965
  156.2995  140.2511  156.3317 H   0  0  0  0  0  0  0  0  0  0  0  0  # atno 8008 bound_to 7997
  154.9138  140.0402  157.1980 H   0  0  0  0  0  0  0  0  0  0  0  0  # atno 8009 bound_to 7997
  154.8379  140.2886  155.5683 H   0  0  0  0  0  0  0  0  0  0  0  0  # atno 8010 bound_to 7997
  139.5323  144.2598  152.0716 H   0  0  0  0  0  0  0  0  0  0  0  0  # atno 10167 bound_to 10162
  156.2283  130.7021  151.0831 H   0  0  0  0  0  0  0  0  0  0  0  0  # atno 10718 bound_to 10713
  154.3745  135.2753  155.2247 H   0  0  0  0  0  0  0  0  0  0  0  0  # atno 10763 bound_to 10752
  154.4380  135.5961  153.6114 H   0  0  0  0  0  0  0  0  0  0  0  0  # atno 10764 bound_to 10752
  152.9837  135.6012  154.3981 H   0  0  0  0  0  0  0  0  0  0  0  0  # atno 10765 bound_to 10752
  140.1061  134.5017  155.8719 H   0  0  0  0  0  0  0  0  0  0  0  0  # atno 11005 bound_to 11000
  146.1883  139.5110  142.9822 LP  0  0  0  0  0  0  0  0  0  0  0  0  # atno 17320 bound_to 7965
  145.6280  141.0310  143.1879 LP  0  0  0  0  0  0  0  0  0  0  0  0  # atno 17321 bound_to 7965
  140.2063  144.4607  150.6407 LP  0  0  0  0  0  0  0  0  0  0  0  0  # atno 17342 bound_to 10162
  140.6509  143.2224  151.6080 LP  0  0  0  0  0  0  0  0  0  0  0  0  # atno 17343 bound_to 10162
  157.7121  131.0729  150.6463 LP  0  0  0  0  0  0  0  0  0  0  0  0  # atno 17370 bound_to 10713
  156.6529  130.4490  149.5713 LP  0  0  0  0  0  0  0  0  0  0  0  0  # atno 17371 bound_to 10713
  141.2118  133.6711  156.6613 LP  0  0  0  0  0  0  0  0  0  0  0  0  # atno 17394 bound_to 11000
  140.3154  134.8051  157.4210 LP  0  0  0  0  0  0  0  0  0  0  0  0  # atno 17395 bound_to 11000

$$$$
