AV-unprocessed.smi:79|AV-procd|sdf|783|dock9
  -GOLD-   2262017143D 1   1.00000     0.00000
 Structure written by MMmdl.
 56 59  0  0  0  0  0  0  0  0  2 V2000
  146.1844  137.5114  153.4844 C   0  0  0  0  0  0  0  0  0  0  0  0
  146.6916  138.8503  152.9281 C   0  0  2  0  0  0  0  0  0  0  0  0
  147.5327  138.5809  151.8268 O   0  0  0  0  0  0  0  0  0  0  0  0
  147.4910  139.6705  153.9609 C   0  0  0  0  0  0  0  0  0  0  0  0
  148.5831  138.8894  154.5959 N   0  3  1  0  0  0  0  0  0  0  0  0
  149.9258  139.4494  154.2962 C   0  0  0  0  0  0  0  0  0  0  0  0
  151.0401  138.5583  154.8702 C   0  0  0  0  0  0  0  0  0  0  0  0
  150.8297  138.3269  156.2975 N   0  0  0  0  0  0  0  0  0  0  0  0
  151.4440  139.2139  157.1236 C   0  0  0  0  0  0  0  0  0  0  0  0
  152.2289  138.7682  158.1406 N   0  0  0  0  0  0  0  0  0  0  0  0
  152.8274  139.6349  158.9627 C   0  0  0  0  0  0  0  0  0  0  0  0
  152.7777  140.9679  158.9485 N   0  0  0  0  0  0  0  0  0  0  0  0
  151.9954  141.4229  157.9285 C   0  0  0  0  0  0  0  0  0  0  0  0
  151.2989  140.6225  156.9798 C   0  0  0  0  0  0  0  0  0  0  0  0
  150.6161  141.4375  156.0851 N   0  0  0  0  0  0  0  0  0  0  0  0
  150.8879  142.6496  156.4855 C   0  0  0  0  0  0  0  0  0  0  0  0
  151.7020  142.7336  157.5929 N   0  0  0  0  0  0  0  0  0  0  0  0
  152.1642  143.9492  158.2455 C   0  0  0  0  0  0  0  0  0  0  0  0
  151.5484  144.1814  159.6380 C   0  0  0  0  0  0  0  0  0  0  0  0
  152.1279  143.1354  160.6119 C   0  0  0  0  0  0  0  0  0  0  0  0
  151.5394  143.2059  161.8954 O   0  0  0  0  0  0  0  0  0  0  0  0
  151.5659  145.6397  160.1181 C   0  0  0  0  0  0  0  0  0  0  0  0
  150.1441  145.6359  160.3741 O   0  0  0  0  0  0  0  0  0  0  0  0
  150.0254  144.3730  159.6829 C   0  0  0  0  0  0  0  0  0  0  0  0
  149.5098  137.8029  156.6644 C   0  0  2  0  0  0  0  0  0  0  0  0
  149.3640  136.3235  156.2688 C   0  0  0  0  0  0  0  0  0  0  0  0
  148.3850  138.6715  156.0552 C   0  0  0  0  0  0  0  0  0  0  0  0
  145.4948  137.6643  154.3150 H   0  0  0  0  0  0  0  0  0  0  0  0
  147.0064  136.8914  153.8443 H   0  0  0  0  0  0  0  0  0  0  0  0
  145.6510  136.9461  152.7193 H   0  0  0  0  0  0  0  0  0  0  0  0
  145.8495  139.4269  152.5469 H   0  0  0  0  0  0  0  0  0  0  0  0
  147.8253  137.6833  151.8773 H   0  0  0  0  0  0  0  0  0  0  0  0
  147.9125  140.5409  153.4554 H   0  0  0  0  0  0  0  0  0  0  0  0
  146.8307  140.0607  154.7375 H   0  0  0  0  0  0  0  0  0  0  0  0
  150.0596  139.5401  153.2177 H   0  0  0  0  0  0  0  0  0  0  0  0
  149.9987  140.4557  154.7123 H   0  0  0  0  0  0  0  0  0  0  0  0
  151.0537  137.5973  154.3558 H   0  0  0  0  0  0  0  0  0  0  0  0
  152.0083  139.0178  154.6731 H   0  0  0  0  0  0  0  0  0  0  0  0
  153.4325  139.1987  159.7438 H   0  0  0  0  0  0  0  0  0  0  0  0
  150.4999  143.5205  155.9777 H   0  0  0  0  0  0  0  0  0  0  0  0
  153.2527  143.9160  158.3079 H   0  0  0  0  0  0  0  0  0  0  0  0
  151.9346  144.7844  157.5825 H   0  0  0  0  0  0  0  0  0  0  0  0
  151.9692  142.1225  160.2425 H   0  0  0  0  0  0  0  0  0  0  0  0
  153.2044  143.2664  160.7262 H   0  0  0  0  0  0  0  0  0  0  0  0
  152.1021  143.7170  162.4567 H   0  0  0  0  0  0  0  0  0  0  0  0
  152.1547  145.8120  161.0196 H   0  0  0  0  0  0  0  0  0  0  0  0
  151.8331  146.3592  159.3427 H   0  0  0  0  0  0  0  0  0  0  0  0
  149.5614  144.4974  158.7041 H   0  0  0  0  0  0  0  0  0  0  0  0
  149.4970  143.6209  160.2698 H   0  0  0  0  0  0  0  0  0  0  0  0
  149.4077  137.8306  157.7503 H   0  0  0  0  0  0  0  0  0  0  0  0
  148.4127  135.9206  156.6175 H   0  0  0  0  0  0  0  0  0  0  0  0
  150.1560  135.7214  156.7150 H   0  0  0  0  0  0  0  0  0  0  0  0
  149.4048  136.1797  155.1891 H   0  0  0  0  0  0  0  0  0  0  0  0
  148.3562  139.6420  156.5520 H   0  0  0  0  0  0  0  0  0  0  0  0
  147.4219  138.2014  156.2495 H   0  0  0  0  0  0  0  0  0  0  0  0
  148.5649  137.9769  154.1635 H   0  0  0  0  0  0  0  0  0  0  0  0
  1  2  1  0  0  0  0
  1 28  1  0  0  0  0
  1 29  1  0  0  0  0
  1 30  1  0  0  0  0
  2  3  1  0  0  0  0
  2  4  1  0  0  0  0
  2 31  1  0  0  0  0
  3 32  1  0  0  0  0
  4  5  1  0  0  0  0
  4 33  1  0  0  0  0
  4 34  1  0  0  0  0
  5 27  1  0  0  0  0
  5  6  1  0  0  0  0
  5 56  1  0  0  0  0
  6  7  1  0  0  0  0
  6 35  1  0  0  0  0
  6 36  1  0  0  0  0
  7  8  1  0  0  0  0
  7 37  1  0  0  0  0
  7 38  1  0  0  0  0
  8  9  1  0  0  0  0
  8 25  1  0  0  0  0
  9 14  1  0  0  0  0
  9 10  2  0  0  0  0
 10 11  1  0  0  0  0
 11 12  2  0  0  0  0
 11 39  1  0  0  0  0
 12 13  1  0  0  0  0
 13 17  1  0  0  0  0
 13 14  2  0  0  0  0
 14 15  1  0  0  0  0
 15 16  2  0  0  0  0
 16 17  1  0  0  0  0
 16 40  1  0  0  0  0
 17 18  1  0  0  0  0
 18 19  1  0  0  0  0
 18 41  1  0  0  0  0
 18 42  1  0  0  0  0
 19 24  1  0  0  0  0
 19 20  1  0  0  0  0
 19 22  1  0  0  0  0
 20 21  1  0  0  0  0
 20 43  1  0  0  0  0
 20 44  1  0  0  0  0
 21 45  1  0  0  0  0
 22 23  1  0  0  0  0
 22 46  1  0  0  0  0
 22 47  1  0  0  0  0
 23 24  1  0  0  0  0
 24 48  1  0  0  0  0
 24 49  1  0  0  0  0
 25 26  1  0  0  0  0
 25 27  1  0  0  0  0
 25 50  1  0  0  0  0
 26 51  1  0  0  0  0
 26 52  1  0  0  0  0
 26 53  1  0  0  0  0
 27 54  1  0  0  0  0
 27 55  1  0  0  0  0
M  CHG  1   5   1
M  END
> <s_m_source_file>
AV-unprocessed.smi

> <i_m_source_file_index>
79

> <i_lp_mmshare_version>
43012

> <i_f3d_flags>
0

> <s_epik_input>
W0NIM11bQ0BIXShbT0hdKVtDSDJdTjFbQ0gyXVtDSDJdTihbQ0BASF0oW0NIM10pW0NIMl0xKWMobltjSF1uMiljKGMyMyluW2NIXW4zW0NIMl1DNChbQ0gyXVtPSF0pW0NIMl1PW0NIMl00

> <s_epik_cmdline>
J2VwaWtfcHl0aG9uJywgJy1waCcsICc3LjAnLCAnLXRuJywgJzgnLCAnLW1hJywgJzIwMCcsICctbWV0YWxfYmluZGluZycsICctaW1hZScsICc8aW5maWxlLm1hZT4nLCAnLW9tYWUnLCAnPG91dGZpbGUubWFlPic=

> <r_lp_tautomer_probability>
1

> <r_epik_Ionization_Penalty>
0.00515943

> <r_epik_Ionization_Penalty_Charging>
0.00509693

> <r_epik_Ionization_Penalty_Neutral>
6.25007e-05

> <r_epik_State_Penalty>
-0

> <r_epik_Charging_Adjusted_Penalty>
0.00509693

> <i_epik_Tot_Q>
1

> <i_epik_Tot_abs_Q>
1

> <r_epik_Metal_State_Penalty>
-0

> <b_epik_Metal_Only>
0

> <s_lp_Force_Field>
OPLS_2005

> <r_lp_Energy>
51.2807

> <b_lp_Chiralities_Consistent>
1

> <s_lp_Variant>
AV-unprocessed.smi:79-7

> <Gold.Version>
5.8.1

> <Gold.Id.Protein>
6NUR|6NUR_protein|mol2

> <Gold.PLP.Fitness>
50.5391

> <Gold.PLP.PLP>
-44.6717

> <Gold.PLP.part.hbond>
-5.5730

> <Gold.PLP.part.metal>
0.0000

> <Gold.PLP.part.buried>
-6.1044

> <Gold.PLP.part.nonpolar>
-32.9706

> <Gold.PLP.part.repulsive>
0.7306

> <Gold.PLP.ligand.clash>
0.0000

> <Gold.PLP.ligand.torsion>
1.5364

> <Gold.PLP.Chemscore.Hbond>
1.6708

> <Gold.PLP.Chemscore.CHOScore>
1.0000

> <Gold.PLP.Chemscore.Metal>
0.0000

> <Gold.Chemscore.Hbonds>
donor molecule, donor type, donor heavy atom, donor atom, acceptor molecule, acceptor atom, score
      L1  H     3    32       P1  7948  1.00
      P1  H  6933  6945       L1    21  0.54
      L1  C    16    40       P1  8028  0.99

> <Gold.PLP.Chemscore.Internal.Correction>
0.9278

> <Gold.Rescore>
     Score         DG    S(hbond)    S(metal)    S(lipo)     H(rot)  DE(clash)    DE(int)     intcor
      7.59     -13.43       1.81        0.00      97.62       3.72       1.46       4.38       ----

> <Gold.Chemscore.Fitness>
7.5875

> <Gold.Chemscore.DG>
-13.4322

> <Gold.Chemscore.ZeroCoef>
-5.4800

> <Gold.Chemscore.Hbond>
1.8144

> <Gold.Chemscore.Metal>
0.0000

> <Gold.Chemscore.Lipo>
97.6220

> <Gold.Chemscore.Internal_Hbond>
0.0000

> <Gold.Chemscore.DEClash>
1.4608

> <Gold.Chemscore.DEInternal>
4.3839

> <Gold.Chemscore.Rot>
3.7226

> <Gold.Chemscore.Internal.Correction>
   9.000000E+99

> <Gold.Chemscore.Hbonds>
donor molecule, donor type, donor heavy atom, donor atom, acceptor molecule, acceptor atom, score
      L1  H     3    32       P1  7948  0.99
      P1  H  6933  6945       L1    21  0.48

> <Gold.Chemscore.Hbond.Weighted>
-6.0602

> <Gold.Chemscore.Metal.Weighted>
-0.0000

> <Gold.Chemscore.Lipo.Weighted>
-11.4218

> <Gold.Chemscore.Internal_Hbond.Weighted>
0.0000

> <Gold.Chemscore.DEClash.Weighted>
1.4608

> <Gold.Chemscore.DEInternal.Weighted>
4.3839

> <Gold.Chemscore.Rot.Weighted>
9.5298

> <Gold.Chemscore.Internal.Correction.Weighted>
   9.000000E+99

> <Gold.Protein.RotatedTorsions>
[ 6907 6896 6895 6894 ] final  -51.77 input  -60.11 | X-H torsion
[ 7974 7965 7964 7962 ] final  146.50 input  175.53 | X-H torsion
[ 8008 7997 7996 7995 ] final  165.74 input   59.86 | X-H torsion
[ 10167 10162 10161 10158 ] final   55.83 input  -65.29 | X-H torsion
[ 10718 10713 10712 10709 ] final  169.41 input   66.30 | X-H torsion
[ 10763 10752 10751 10750 ] final  149.85 input  -60.55 | X-H torsion
[ 11005 11000 10999 10996 ] final  137.95 input  -57.11 | X-H torsion

> <Gold.Protein.ActiveResidues>
 VAL166  LYS551  ARG553  GLY616  TRP617  ASP618  TYR619  PRO620  LYS621  CYS622 
 ASP623  PHE694  ASN695  SER759  ASP760  ASP761  ALA762  ILE779  LEU786  VAL792 
 PHE793  MET794  SER795  GLU796  ALA797  LYS798  CYS799  TRP800  GLU811  SER814 

> <Gold.Protein.RotatedAtoms>
  150.8580  134.7924  159.7060 H   0  0  0  0  0  0  0  0  0  0  0  0  # atno 6907 bound_to 6896
  152.4626  134.5147  159.9774 H   0  0  0  0  0  0  0  0  0  0  0  0  # atno 6908 bound_to 6896
  151.5256  133.3420  159.2944 H   0  0  0  0  0  0  0  0  0  0  0  0  # atno 6909 bound_to 6896
  144.8666  139.5913  143.5906 H   0  0  0  0  0  0  0  0  0  0  0  0  # atno 7974 bound_to 7965
  156.1776  140.1662  156.8334 H   0  0  0  0  0  0  0  0  0  0  0  0  # atno 8008 bound_to 7997
  154.5324  140.0754  156.8402 H   0  0  0  0  0  0  0  0  0  0  0  0  # atno 8009 bound_to 7997
  155.3380  140.3383  155.4241 H   0  0  0  0  0  0  0  0  0  0  0  0  # atno 8010 bound_to 7997
  140.2152  144.3847  150.6472 H   0  0  0  0  0  0  0  0  0  0  0  0  # atno 10167 bound_to 10162
  157.0230  131.0237  151.2768 H   0  0  0  0  0  0  0  0  0  0  0  0  # atno 10718 bound_to 10713
  154.0779  135.2861  155.3296 H   0  0  0  0  0  0  0  0  0  0  0  0  # atno 10763 bound_to 10752
  154.6703  135.5302  153.8133 H   0  0  0  0  0  0  0  0  0  0  0  0  # atno 10764 bound_to 10752
  153.0460  135.6556  154.0956 H   0  0  0  0  0  0  0  0  0  0  0  0  # atno 10765 bound_to 10752
  140.0149  134.9422  157.0355 H   0  0  0  0  0  0  0  0  0  0  0  0  # atno 11005 bound_to 11000
  146.2900  139.7112  142.9168 LP  0  0  0  0  0  0  0  0  0  0  0  0  # atno 17320 bound_to 7965
  145.4210  141.0406  143.2964 LP  0  0  0  0  0  0  0  0  0  0  0  0  # atno 17321 bound_to 7965
  140.6295  143.2185  151.6527 LP  0  0  0  0  0  0  0  0  0  0  0  0  # atno 17342 bound_to 10162
  139.5164  144.3346  152.0795 LP  0  0  0  0  0  0  0  0  0  0  0  0  # atno 17343 bound_to 10162
  157.5235  130.8013  149.7836 LP  0  0  0  0  0  0  0  0  0  0  0  0  # atno 17370 bound_to 10713
  156.0096  130.3839  150.2311 LP  0  0  0  0  0  0  0  0  0  0  0  0  # atno 17371 bound_to 10713
  140.4488  134.1604  155.7180 LP  0  0  0  0  0  0  0  0  0  0  0  0  # atno 17394 bound_to 11000
  141.1736  133.8559  157.1493 LP  0  0  0  0  0  0  0  0  0  0  0  0  # atno 17395 bound_to 11000

$$$$
