AV-unprocessed.smi:1395|AV-procd|sdf|5673|dock10
  -GOLD-   22720 5293D 1   1.00000     0.00000
 Structure written by MMmdl.
 42 43  0  0  0  0  0  0  0  0  3 V2000
  153.4657  138.6372  159.6299 C   0  0  0  0  0  0  0  0  0  0  0  0
  153.1474  140.1210  159.7162 C   0  0  0  0  0  0  0  0  0  0  0  0
  153.9234  140.9455  160.5586 C   0  0  0  0  0  0  0  0  0  0  0  0
  153.6270  142.3171  160.6381 C   0  0  0  0  0  0  0  0  0  0  0  0
  152.5601  142.8090  159.8670 C   0  0  0  0  0  0  0  0  0  0  0  0
  151.8137  142.0284  159.0592 N   0  0  0  0  0  0  0  0  0  0  0  0
  152.0855  140.7021  158.9721 C   0  0  0  0  0  0  0  0  0  0  0  0
  151.3446  139.8207  158.1352 N   0  0  0  0  0  0  0  0  0  0  0  0
  151.7260  139.2458  156.9809 C   0  0  0  0  0  0  0  0  0  0  0  0
  152.7950  139.4437  156.4031 O   0  0  0  0  0  0  0  0  0  0  0  0
  150.7809  138.4134  156.5199 N   0  0  0  0  0  0  0  0  0  0  0  0
  150.8727  137.6203  155.2939 C   0  0  2  0  0  0  0  0  0  0  0  0
  150.5827  138.4998  154.0654 C   0  0  0  0  0  0  0  0  0  0  0  0
  149.0998  138.9084  153.9855 C   0  0  0  0  0  0  0  0  0  0  0  0
  148.2057  137.7222  154.0053 N   0  3  2  0  0  0  0  0  0  0  0  0
  146.7812  138.0940  153.8146 C   0  0  0  0  0  0  0  0  0  0  0  0
  146.5768  138.7332  152.4372 C   0  0  0  0  0  0  0  0  0  0  0  0
  146.2645  140.0410  152.5173 N   0  5  0  0  0  0  0  0  0  0  0  0
  146.6899  138.0432  151.4263 O   0  0  0  0  0  0  0  0  0  0  0  0
  148.4331  136.8794  155.2107 C   0  0  0  0  0  0  0  0  0  0  0  0
  149.8995  136.4247  155.3033 C   0  0  0  0  0  0  0  0  0  0  0  0
  154.3222  138.3782  160.2531 H   0  0  0  0  0  0  0  0  0  0  0  0
  153.7013  138.3558  158.6033 H   0  0  0  0  0  0  0  0  0  0  0  0
  152.6144  138.0449  159.9666 H   0  0  0  0  0  0  0  0  0  0  0  0
  154.7373  140.5352  161.1383 H   0  0  0  0  0  0  0  0  0  0  0  0
  154.2020  142.9744  161.2734 H   0  0  0  0  0  0  0  0  0  0  0  0
  152.2986  143.8563  159.8978 H   0  0  0  0  0  0  0  0  0  0  0  0
  150.4216  139.5858  158.4688 H   0  0  0  0  0  0  0  0  0  0  0  0
  149.9315  138.3210  157.0574 H   0  0  0  0  0  0  0  0  0  0  0  0
  151.8947  137.2458  155.2134 H   0  0  0  0  0  0  0  0  0  0  0  0
  151.2162  139.3876  154.0770 H   0  0  0  0  0  0  0  0  0  0  0  0
  150.8490  137.9505  153.1613 H   0  0  0  0  0  0  0  0  0  0  0  0
  148.8422  139.5711  154.8131 H   0  0  0  0  0  0  0  0  0  0  0  0
  148.9370  139.4740  153.0674 H   0  0  0  0  0  0  0  0  0  0  0  0
  146.1352  137.2288  153.9793 H   0  0  0  0  0  0  0  0  0  0  0  0
  146.4902  138.8412  154.5542 H   0  0  0  0  0  0  0  0  0  0  0  0
  145.3386  140.3115  152.8696 H   0  0  0  0  0  0  0  0  0  0  0  0
  148.1519  137.4362  156.1058 H   0  0  0  0  0  0  0  0  0  0  0  0
  147.7947  135.9963  155.1801 H   0  0  0  0  0  0  0  0  0  0  0  0
  150.1233  135.7753  154.4559 H   0  0  0  0  0  0  0  0  0  0  0  0
  150.0443  135.8121  156.1938 H   0  0  0  0  0  0  0  0  0  0  0  0
  148.4547  137.1611  153.2031 H   0  0  0  0  0  0  0  0  0  0  0  0
  1  2  1  0  0  0  0
  1 22  1  0  0  0  0
  1 23  1  0  0  0  0
  1 24  1  0  0  0  0
  2  7  1  0  0  0  0
  2  3  2  0  0  0  0
  3  4  1  0  0  0  0
  3 25  1  0  0  0  0
  4  5  2  0  0  0  0
  4 26  1  0  0  0  0
  5  6  1  0  0  0  0
  5 27  1  0  0  0  0
  6  7  2  0  0  0  0
  7  8  1  0  0  0  0
  8  9  1  0  0  0  0
  8 28  1  0  0  0  0
  9 10  2  0  0  0  0
  9 11  1  0  0  0  0
 11 12  1  0  0  0  0
 11 29  1  0  0  0  0
 12 21  1  0  0  0  0
 12 13  1  0  0  0  0
 12 30  1  0  0  0  0
 13 14  1  0  0  0  0
 13 31  1  0  0  0  0
 13 32  1  0  0  0  0
 14 15  1  0  0  0  0
 14 33  1  0  0  0  0
 14 34  1  0  0  0  0
 15 16  1  0  0  0  0
 15 20  1  0  0  0  0
 15 42  1  0  0  0  0
 16 17  1  0  0  0  0
 16 35  1  0  0  0  0
 16 36  1  0  0  0  0
 17 18  1  0  0  0  0
 17 19  2  0  0  0  0
 18 37  1  0  0  0  0
 20 21  1  0  0  0  0
 20 38  1  0  0  0  0
 20 39  1  0  0  0  0
 21 40  1  0  0  0  0
 21 41  1  0  0  0  0
M  CHG  1  15   1
M  CHG  1  18  -1
M  END
> <s_m_source_file>
AV-unprocessed.smi

> <i_m_source_file_index>
1395

> <i_lp_mmshare_version>
43012

> <i_f3d_flags>
0

> <s_epik_input>
W0NIM11jMVtjSF1bY0hdW2NIXW5jMVtOSF1DKD1PKVtOSF1bQ0hdMltDSDJdW0NIMl1OKFtDSDJdW0NIMl0yKVtDSDJdQyg9TylbTkgyXQ==

> <s_epik_cmdline>
J2VwaWtfcHl0aG9uJywgJy1waCcsICc3LjAnLCAnLXRuJywgJzgnLCAnLW1hJywgJzIwMCcsICctbWV0YWxfYmluZGluZycsICctaW1hZScsICc8aW5maWxlLm1hZT4nLCAnLW9tYWUnLCAnPG91dGZpbGUubWFlPic=

> <r_epik_Ionization_Penalty>
5.72885

> <r_epik_Ionization_Penalty_Charging>
5.7288

> <r_epik_Ionization_Penalty_Neutral>
4.54304e-05

> <r_epik_State_Penalty>
6.54882

> <r_epik_Charging_Adjusted_Penalty>
12.2776

> <i_epik_Tot_Q>
0

> <i_epik_Tot_abs_Q>
2

> <r_epik_Metal_State_Penalty>
2.51297

> <b_epik_Metal_Only>
1

> <s_lp_Force_Field>
OPLS_2005

> <r_lp_Energy>
8.5501

> <b_lp_Chiralities_Consistent>
1

> <s_lp_Variant>
AV-unprocessed.smi:1395-5

> <Gold.Version>
5.8.1

> <Gold.Id.Protein>
6NUR|6NUR_protein|mol2

> <Gold.PLP.Fitness>
47.2428

> <Gold.PLP.PLP>
-34.3512

> <Gold.PLP.part.hbond>
-4.6329

> <Gold.PLP.part.metal>
0.0000

> <Gold.PLP.part.buried>
-4.5074

> <Gold.PLP.part.nonpolar>
-27.1957

> <Gold.PLP.part.repulsive>
1.9599

> <Gold.PLP.ligand.clash>
0.0000

> <Gold.PLP.ligand.torsion>
1.0541

> <Gold.PLP.Chemscore.Hbond>
4.9920

> <Gold.PLP.Chemscore.CHOScore>
0.0000

> <Gold.PLP.Chemscore.Metal>
0.0000

> <Gold.Chemscore.Hbonds>
donor molecule, donor type, donor heavy atom, donor atom, acceptor molecule, acceptor atom, score
      L1  H    15    42       P1  7948  2.00
      L1  H    18    37       P1 10175  0.90
      P1  H  7954  7966       L1    19  0.75
      P1  H  7997  8010       L1    10  1.00

> <Gold.PLP.Chemscore.Internal.Correction>
0.0237

> <Gold.Rescore>
     Score         DG    S(hbond)    S(metal)    S(lipo)     H(rot)  DE(clash)    DE(int)     intcor
     20.05     -22.42       3.90        0.00      75.74       1.93       1.42       0.96       ----

> <Gold.Chemscore.Fitness>
20.0521

> <Gold.Chemscore.DG>
-22.4246

> <Gold.Chemscore.ZeroCoef>
-5.4800

> <Gold.Chemscore.Hbond>
3.9026

> <Gold.Chemscore.Metal>
0.0000

> <Gold.Chemscore.Lipo>
75.7362

> <Gold.Chemscore.Internal_Hbond>
0.0000

> <Gold.Chemscore.DEClash>
1.4171

> <Gold.Chemscore.DEInternal>
0.9554

> <Gold.Chemscore.Rot>
1.9341

> <Gold.Chemscore.Internal.Correction>
   9.000000E+99

> <Gold.Chemscore.Hbonds>
donor molecule, donor type, donor heavy atom, donor atom, acceptor molecule, acceptor atom, score
      L1  H    15    42       P1  7948  1.00
      L1  H    18    37       P1 10175  0.83
      P1  H  7954  7966       L1    19  0.75
      P1  H  7997  8010       L1    10  1.00

> <Gold.Chemscore.Hbond.Weighted>
-13.0346

> <Gold.Chemscore.Metal.Weighted>
-0.0000

> <Gold.Chemscore.Lipo.Weighted>
-8.8611

> <Gold.Chemscore.Internal_Hbond.Weighted>
0.0000

> <Gold.Chemscore.DEClash.Weighted>
1.4171

> <Gold.Chemscore.DEInternal.Weighted>
0.9554

> <Gold.Chemscore.Rot.Weighted>
4.9512

> <Gold.Chemscore.Internal.Correction.Weighted>
   9.000000E+99

> <Gold.Protein.RotatedTorsions>
[ 6907 6896 6895 6894 ] final   41.23 input  -60.11 | X-H torsion
[ 7974 7965 7964 7962 ] final  -77.01 input  175.53 | X-H torsion
[ 8008 7997 7996 7995 ] final   81.50 input   59.86 | X-H torsion
[ 10167 10162 10161 10158 ] final   71.93 input  -65.29 | X-H torsion
[ 10718 10713 10712 10709 ] final   82.43 input   66.30 | X-H torsion
[ 10763 10752 10751 10750 ] final -102.53 input  -60.55 | X-H torsion
[ 11005 11000 10999 10996 ] final -179.36 input  -57.11 | X-H torsion

> <Gold.Protein.ActiveResidues>
 VAL166  LYS551  ARG553  GLY616  TRP617  ASP618  TYR619  PRO620  LYS621  CYS622 
 ASP623  PHE694  ASN695  SER759  ASP760  ASP761  ALA762  ILE779  LEU786  VAL792 
 PHE793  MET794  SER795  GLU796  ALA797  LYS798  CYS799  TRP800  GLU811  SER814 

> <Gold.Protein.RotatedAtoms>
  152.1926  134.8659  160.0515 H   0  0  0  0  0  0  0  0  0  0  0  0  # atno 6907 bound_to 6896
  151.9542  133.3670  159.4019 H   0  0  0  0  0  0  0  0  0  0  0  0  # atno 6908 bound_to 6896
  150.6938  134.4232  159.5258 H   0  0  0  0  0  0  0  0  0  0  0  0  # atno 6909 bound_to 6896
  145.6054  140.9399  143.1218 H   0  0  0  0  0  0  0  0  0  0  0  0  # atno 7974 bound_to 7965
  155.8979  140.3435  155.6004 H   0  0  0  0  0  0  0  0  0  0  0  0  # atno 8008 bound_to 7997
  155.7534  140.0823  157.2209 H   0  0  0  0  0  0  0  0  0  0  0  0  # atno 8009 bound_to 7997
  154.4040  140.1549  156.2737 H   0  0  0  0  0  0  0  0  0  0  0  0  # atno 8010 bound_to 7997
  140.0408  144.5391  150.7436 H   0  0  0  0  0  0  0  0  0  0  0  0  # atno 10167 bound_to 10162
  157.6857  131.0047  150.2374 H   0  0  0  0  0  0  0  0  0  0  0  0  # atno 10718 bound_to 10713
  154.7740  135.4857  153.9707 H   0  0  0  0  0  0  0  0  0  0  0  0  # atno 10763 bound_to 10752
  153.1405  135.6771  153.9042 H   0  0  0  0  0  0  0  0  0  0  0  0  # atno 10764 bound_to 10752
  153.8718  135.3142  155.3421 H   0  0  0  0  0  0  0  0  0  0  0  0  # atno 10765 bound_to 10752
  140.4195  134.6618  157.4657 H   0  0  0  0  0  0  0  0  0  0  0  0  # atno 11005 bound_to 11000
  144.7292  139.7778  143.7353 LP  0  0  0  0  0  0  0  0  0  0  0  0  # atno 17320 bound_to 7965
  146.1545  139.4638  143.0027 LP  0  0  0  0  0  0  0  0  0  0  0  0  # atno 17321 bound_to 7965
  140.7261  143.2638  151.4116 LP  0  0  0  0  0  0  0  0  0  0  0  0  # atno 17342 bound_to 10162
  139.6015  144.1286  152.2203 LP  0  0  0  0  0  0  0  0  0  0  0  0  # atno 17343 bound_to 10162
  156.2995  130.3756  149.7764 LP  0  0  0  0  0  0  0  0  0  0  0  0  # atno 17370 bound_to 10713
  156.5399  130.8295  151.3265 LP  0  0  0  0  0  0  0  0  0  0  0  0  # atno 17371 bound_to 10713
  140.0210  134.6547  155.9240 LP  0  0  0  0  0  0  0  0  0  0  0  0  # atno 17394 bound_to 11000
  141.1789  133.6544  156.4941 LP  0  0  0  0  0  0  0  0  0  0  0  0  # atno 17395 bound_to 11000

$$$$
