AV-unprocessed.smi:1673|AV-procd|sdf|6709|dock6
  -GOLD-   22720 7453D 1   1.00000     0.00000
 Structure written by MMmdl.
 39 40  0  0  0  0  0  0  0  0  1 V2000
  150.6097  136.2964  155.9024 C   0  0  0  0  0  0  0  0  0  0  0  0
  150.5943  134.7958  155.8081 C   0  0  0  0  0  0  0  0  0  0  0  0
  151.3940  134.0933  156.5970 N   0  0  0  0  0  0  0  0  0  0  0  0
  151.2247  132.7450  156.2459 O   0  0  0  0  0  0  0  0  0  0  0  0
  150.3139  132.6635  155.2413 C   0  0  0  0  0  0  0  0  0  0  0  0
  150.0102  131.3030  154.7109 C   0  0  0  0  0  0  0  0  0  0  0  0
  149.8665  133.9186  154.9514 C   0  0  0  0  0  0  0  0  0  0  0  0
  148.9268  134.2257  153.9360 N   0  0  0  0  0  0  0  0  0  0  0  0
  147.8571  133.4964  153.5843 C   0  0  0  0  0  0  0  0  0  0  0  0
  147.5569  132.4088  154.0758 O   0  0  0  0  0  0  0  0  0  0  0  0
  147.1583  134.0953  152.6089 N   0  0  0  0  0  0  0  0  0  0  0  0
  145.9439  133.5750  151.9815 C   0  0  2  0  0  0  0  0  0  0  0  0
  146.2167  132.1381  151.4948 C   0  0  0  0  0  0  0  0  0  0  0  0
  145.0009  131.5423  150.7703 C   0  0  0  0  0  0  0  0  0  0  0  0
  144.5629  132.4391  149.6049 C   0  0  0  0  0  0  0  0  0  0  0  0
  144.2731  133.8678  150.0885 C   0  0  0  0  0  0  0  0  0  0  0  0
  145.4852  134.4873  150.8140 C   0  0  1  0  0  0  0  0  0  0  0  0
  145.1635  135.9232  151.2666 C   0  0  0  0  0  0  0  0  0  0  0  0
  150.4293  136.7552  154.9303 H   0  0  0  0  0  0  0  0  0  0  0  0
  151.5723  136.6635  156.2597 H   0  0  0  0  0  0  0  0  0  0  0  0
  149.8438  136.6532  156.5911 H   0  0  0  0  0  0  0  0  0  0  0  0
  149.3509  131.3572  153.8445 H   0  0  0  0  0  0  0  0  0  0  0  0
  149.5202  130.6938  155.4703 H   0  0  0  0  0  0  0  0  0  0  0  0
  150.9251  130.7944  154.4067 H   0  0  0  0  0  0  0  0  0  0  0  0
  149.1340  135.0346  153.3690 H   0  0  0  0  0  0  0  0  0  0  0  0
  147.4909  134.9864  152.2714 H   0  0  0  0  0  0  0  0  0  0  0  0
  145.1366  133.5258  152.7149 H   0  0  0  0  0  0  0  0  0  0  0  0
  147.0747  132.1322  150.8208 H   0  0  0  0  0  0  0  0  0  0  0  0
  146.4842  131.5025  152.3398 H   0  0  0  0  0  0  0  0  0  0  0  0
  145.2388  130.5439  150.4023 H   0  0  0  0  0  0  0  0  0  0  0  0
  144.1757  131.4251  151.4739 H   0  0  0  0  0  0  0  0  0  0  0  0
  145.3442  132.4600  148.8440 H   0  0  0  0  0  0  0  0  0  0  0  0
  143.6766  132.0206  149.1272 H   0  0  0  0  0  0  0  0  0  0  0  0
  143.9909  134.4879  149.2371 H   0  0  0  0  0  0  0  0  0  0  0  0
  143.4116  133.8553  150.7578 H   0  0  0  0  0  0  0  0  0  0  0  0
  146.3021  134.5490  150.0931 H   0  0  0  0  0  0  0  0  0  0  0  0
  144.3809  135.9322  152.0258 H   0  0  0  0  0  0  0  0  0  0  0  0
  144.8199  136.5299  150.4283 H   0  0  0  0  0  0  0  0  0  0  0  0
  146.0386  136.4210  151.6842 H   0  0  0  0  0  0  0  0  0  0  0  0
  1  2  1  0  0  0  0
  1 19  1  0  0  0  0
  1 20  1  0  0  0  0
  1 21  1  0  0  0  0
  2  7  1  0  0  0  0
  2  3  2  0  0  0  0
  3  4  1  0  0  0  0
  4  5  1  0  0  0  0
  5  6  1  0  0  0  0
  5  7  2  0  0  0  0
  6 22  1  0  0  0  0
  6 23  1  0  0  0  0
  6 24  1  0  0  0  0
  7  8  1  0  0  0  0
  8  9  1  0  0  0  0
  8 25  1  0  0  0  0
  9 10  2  0  0  0  0
  9 11  1  0  0  0  0
 11 12  1  0  0  0  0
 11 26  1  0  0  0  0
 12 17  1  0  0  0  0
 12 13  1  0  0  0  0
 12 27  1  0  0  0  0
 13 14  1  0  0  0  0
 13 28  1  0  0  0  0
 13 29  1  0  0  0  0
 14 15  1  0  0  0  0
 14 30  1  0  0  0  0
 14 31  1  0  0  0  0
 15 16  1  0  0  0  0
 15 32  1  0  0  0  0
 15 33  1  0  0  0  0
 16 17  1  0  0  0  0
 16 34  1  0  0  0  0
 16 35  1  0  0  0  0
 17 18  1  0  0  0  0
 17 36  1  0  0  0  0
 18 37  1  0  0  0  0
 18 38  1  0  0  0  0
 18 39  1  0  0  0  0
M  END
> <s_m_source_file>
AV-unprocessed.smi

> <i_m_source_file_index>
1673

> <i_lp_mmshare_version>
43012

> <i_f3d_flags>
0

> <s_epik_input>
W0NIM11jMW5vYyhbQ0gzXSljMVtOSF1DKD1PKVtOSF1bQ0BASF0yW0NIMl1bQ0gyXVtDSDJdW0NIMl1bQ0BIXTJbQ0gzXQ==

> <s_epik_cmdline>
J2VwaWtfcHl0aG9uJywgJy1waCcsICc3LjAnLCAnLXRuJywgJzgnLCAnLW1hJywgJzIwMCcsICctbWV0YWxfYmluZGluZycsICctaW1hZScsICc8aW5maWxlLm1hZT4nLCAnLW9tYWUnLCAnPG91dGZpbGUubWFlPic=

> <r_lp_tautomer_probability>
1

> <r_epik_Ionization_Penalty>
4.01865e-05

> <r_epik_Ionization_Penalty_Charging>
0

> <r_epik_Ionization_Penalty_Neutral>
4.01865e-05

> <r_epik_State_Penalty>
-0

> <r_epik_Charging_Adjusted_Penalty>
0

> <i_epik_Tot_Q>
0

> <i_epik_Tot_abs_Q>
0

> <r_epik_Metal_State_Penalty>
-0

> <b_epik_Metal_Only>
0

> <s_lp_Force_Field>
OPLS_2005

> <r_lp_Energy>
12.0287

> <b_lp_Chiralities_Consistent>
1

> <s_lp_Variant>
AV-unprocessed.smi:1673-1

> <Gold.Version>
5.8.1

> <Gold.Id.Protein>
6NUR|6NUR_protein|mol2

> <Gold.PLP.Fitness>
38.8006

> <Gold.PLP.PLP>
-33.2640

> <Gold.PLP.part.hbond>
-2.2309

> <Gold.PLP.part.metal>
0.0000

> <Gold.PLP.part.buried>
-4.8594

> <Gold.PLP.part.nonpolar>
-26.4329

> <Gold.PLP.part.repulsive>
0.0540

> <Gold.PLP.ligand.clash>
0.0000

> <Gold.PLP.ligand.torsion>
0.2869

> <Gold.PLP.Chemscore.Hbond>
1.9500

> <Gold.PLP.Chemscore.CHOScore>
0.0000

> <Gold.PLP.Chemscore.Metal>
0.0000

> <Gold.Chemscore.Hbonds>
donor molecule, donor type, donor heavy atom, donor atom, acceptor molecule, acceptor atom, score
      L1  H     8    25       P1  7948  0.90
      L1  H    11    26       P1  7948  1.00

> <Gold.PLP.Chemscore.Internal.Correction>
0.2604

> <Gold.Rescore>
     Score         DG    S(hbond)    S(metal)    S(lipo)     H(rot)  DE(clash)    DE(int)     intcor
     12.76     -16.56       1.31        0.00      79.06       1.00       0.00       3.79       ----

> <Gold.Chemscore.Fitness>
12.7633

> <Gold.Chemscore.DG>
-16.5555

> <Gold.Chemscore.ZeroCoef>
-5.4800

> <Gold.Chemscore.Hbond>
1.3130

> <Gold.Chemscore.Metal>
0.0000

> <Gold.Chemscore.Lipo>
79.0595

> <Gold.Chemscore.Internal_Hbond>
0.0000

> <Gold.Chemscore.DEClash>
0.0029

> <Gold.Chemscore.DEInternal>
3.7892

> <Gold.Chemscore.Rot>
1.0000

> <Gold.Chemscore.Internal.Correction>
   9.000000E+99

> <Gold.Chemscore.Hbonds>
donor molecule, donor type, donor heavy atom, donor atom, acceptor molecule, acceptor atom, score
      L1  H     8    25       P1  7948  0.18
      L1  H    11    26       P1  7948  0.91

> <Gold.Chemscore.Hbond.Weighted>
-4.3855

> <Gold.Chemscore.Metal.Weighted>
-0.0000

> <Gold.Chemscore.Lipo.Weighted>
-9.2500

> <Gold.Chemscore.Internal_Hbond.Weighted>
0.0000

> <Gold.Chemscore.DEClash.Weighted>
0.0029

> <Gold.Chemscore.DEInternal.Weighted>
3.7892

> <Gold.Chemscore.Rot.Weighted>
2.5600

> <Gold.Chemscore.Internal.Correction.Weighted>
   9.000000E+99

> <Gold.Protein.RotatedTorsions>
[ 6907 6896 6895 6894 ] final -106.21 input  -60.11 | X-H torsion
[ 7974 7965 7964 7962 ] final  171.83 input  175.53 | X-H torsion
[ 8008 7997 7996 7995 ] final  119.18 input   59.86 | X-H torsion
[ 10167 10162 10161 10158 ] final -149.99 input  -65.29 | X-H torsion
[ 10718 10713 10712 10709 ] final   35.14 input   66.30 | X-H torsion
[ 10763 10752 10751 10750 ] final -166.11 input  -60.55 | X-H torsion
[ 11005 11000 10999 10996 ] final   65.30 input  -57.11 | X-H torsion

> <Gold.Protein.ActiveResidues>
 VAL166  LYS551  ARG553  GLY616  TRP617  ASP618  TYR619  PRO620  LYS621  CYS622 
 ASP623  PHE694  ASN695  SER759  ASP760  ASP761  ALA762  ILE779  LEU786  VAL792 
 PHE793  MET794  SER795  GLU796  ALA797  LYS798  CYS799  TRP800  GLU811  SER814 

> <Gold.Protein.RotatedAtoms>
  150.7377  134.0010  159.3637 H   0  0  0  0  0  0  0  0  0  0  0  0  # atno 6907 bound_to 6896
  151.7964  135.0719  160.0403 H   0  0  0  0  0  0  0  0  0  0  0  0  # atno 6908 bound_to 6896
  152.3172  133.5778  159.5756 H   0  0  0  0  0  0  0  0  0  0  0  0  # atno 6909 bound_to 6896
  144.7284  139.9408  143.6428 H   0  0  0  0  0  0  0  0  0  0  0  0  # atno 7974 bound_to 7965
  156.2583  140.2858  156.0951 H   0  0  0  0  0  0  0  0  0  0  0  0  # atno 8008 bound_to 7997
  155.1420  140.0396  157.2818 H   0  0  0  0  0  0  0  0  0  0  0  0  # atno 8009 bound_to 7997
  154.6522  140.2547  155.7207 H   0  0  0  0  0  0  0  0  0  0  0  0  # atno 8010 bound_to 7997
  139.7393  143.8686  152.2558 H   0  0  0  0  0  0  0  0  0  0  0  0  # atno 10167 bound_to 10162
  157.3190  130.7438  149.6773 H   0  0  0  0  0  0  0  0  0  0  0  0  # atno 10718 bound_to 10713
  154.6866  135.2963  154.9539 H   0  0  0  0  0  0  0  0  0  0  0  0  # atno 10763 bound_to 10752
  154.0516  135.6643  153.4805 H   0  0  0  0  0  0  0  0  0  0  0  0  # atno 10764 bound_to 10752
  153.0583  135.5131  154.7936 H   0  0  0  0  0  0  0  0  0  0  0  0  # atno 10765 bound_to 10752
  139.9903  134.6602  156.0102 H   0  0  0  0  0  0  0  0  0  0  0  0  # atno 11005 bound_to 11000
  146.0786  139.3773  143.0479 LP  0  0  0  0  0  0  0  0  0  0  0  0  # atno 17320 bound_to 7965
  145.7872  140.9830  143.1068 LP  0  0  0  0  0  0  0  0  0  0  0  0  # atno 17321 bound_to 7965
  139.8632  144.7106  150.9075 LP  0  0  0  0  0  0  0  0  0  0  0  0  # atno 17342 bound_to 10162
  140.7783  143.3800  151.1494 LP  0  0  0  0  0  0  0  0  0  0  0  0  # atno 17343 bound_to 10162
  155.9684  130.4229  150.4536 LP  0  0  0  0  0  0  0  0  0  0  0  0  # atno 17370 bound_to 10713
  157.2548  131.0554  151.2357 LP  0  0  0  0  0  0  0  0  0  0  0  0  # atno 17371 bound_to 10713
  141.1560  133.6543  156.4164 LP  0  0  0  0  0  0  0  0  0  0  0  0  # atno 17394 bound_to 11000
  140.4921  134.6566  157.5215 LP  0  0  0  0  0  0  0  0  0  0  0  0  # atno 17395 bound_to 11000

$$$$
