AV-unprocessed.smi:2620|AV-procd|sdf|10223|dock8
  -GOLD-   2272014233D 1   1.00000     0.00000
 Structure written by MMmdl.
 36 37  0  0  0  0  0  0  0  0  1 V2000
  151.4435  144.1184  159.1529 C   0  0  0  0  0  0  0  0  0  0  0  0
  150.6415  142.9740  159.3857 O   0  0  0  0  0  0  0  0  0  0  0  0
  149.9265  142.5677  158.2314 C   0  0  0  0  0  0  0  0  0  0  0  0
  150.9260  142.3035  157.0951 C   0  0  0  0  0  0  0  0  0  0  0  0
  150.4963  141.1788  156.2536 N   0  0  0  0  0  0  0  0  0  0  0  0
  149.2957  141.3442  155.5359 C   0  0  0  0  0  0  0  0  0  0  0  0
  148.7954  140.3784  154.7430 C   0  0  0  0  0  0  0  0  0  0  0  0
  147.5234  140.5885  154.0107 C   0  0  0  0  0  0  0  0  0  0  0  0
  147.0621  141.7193  153.8496 O   0  0  0  0  0  0  0  0  0  0  0  0
  146.8185  139.3986  153.4499 C   0  0  0  0  0  0  0  0  0  0  0  0
  146.9886  139.1167  152.0752 C   0  0  0  0  0  0  0  0  0  0  0  0
  146.3612  138.0023  151.4870 C   0  0  0  0  0  0  0  0  0  0  0  0
  145.5492  137.1598  152.2670 C   0  0  0  0  0  0  0  0  0  0  0  0
  145.3592  137.4378  153.6332 C   0  0  0  0  0  0  0  0  0  0  0  0
  145.9827  138.5530  154.2292 C   0  0  0  0  0  0  0  0  0  0  0  0
  145.7328  138.8003  155.5507 O   0  0  0  0  0  0  0  0  0  0  0  0
  149.5459  139.1429  154.6312 C   0  0  0  0  0  0  0  0  0  0  0  0
  150.6906  138.9754  155.3224 C   0  0  0  0  0  0  0  0  0  0  0  0
  151.4404  137.7666  155.2302 C   0  0  0  0  0  0  0  0  0  0  0  0
  152.0270  136.7721  155.1499 N   0  0  0  0  0  0  0  0  0  0  0  0
  151.2262  140.0233  156.2026 C   0  0  0  0  0  0  0  0  0  0  0  0
  152.2621  139.8792  156.8542 O   0  0  0  0  0  0  0  0  0  0  0  0
  151.9755  144.3850  160.0659 H   0  0  0  0  0  0  0  0  0  0  0  0
  150.8339  144.9727  158.8571 H   0  0  0  0  0  0  0  0  0  0  0  0
  152.1845  143.9307  158.3749 H   0  0  0  0  0  0  0  0  0  0  0  0
  149.3512  141.6662  158.4479 H   0  0  0  0  0  0  0  0  0  0  0  0
  149.2209  143.3469  157.9380 H   0  0  0  0  0  0  0  0  0  0  0  0
  151.0347  143.2043  156.4895 H   0  0  0  0  0  0  0  0  0  0  0  0
  151.9195  142.1201  157.5079 H   0  0  0  0  0  0  0  0  0  0  0  0
  148.8087  142.2975  155.6875 H   0  0  0  0  0  0  0  0  0  0  0  0
  147.6129  139.7503  151.4612 H   0  0  0  0  0  0  0  0  0  0  0  0
  146.5043  137.7938  150.4370 H   0  0  0  0  0  0  0  0  0  0  0  0
  145.0667  136.3049  151.8169 H   0  0  0  0  0  0  0  0  0  0  0  0
  144.7243  136.7931  154.2234 H   0  0  0  0  0  0  0  0  0  0  0  0
  144.8339  138.6387  155.7940 H   0  0  0  0  0  0  0  0  0  0  0  0
  149.1963  138.3463  153.9905 H   0  0  0  0  0  0  0  0  0  0  0  0
  1  2  1  0  0  0  0
  1 23  1  0  0  0  0
  1 24  1  0  0  0  0
  1 25  1  0  0  0  0
  2  3  1  0  0  0  0
  3  4  1  0  0  0  0
  3 26  1  0  0  0  0
  3 27  1  0  0  0  0
  4  5  1  0  0  0  0
  4 28  1  0  0  0  0
  4 29  1  0  0  0  0
  5 21  1  0  0  0  0
  5  6  1  0  0  0  0
  6  7  2  0  0  0  0
  6 30  1  0  0  0  0
  7  8  1  0  0  0  0
  7 17  1  0  0  0  0
  8  9  2  0  0  0  0
  8 10  1  0  0  0  0
 10 15  1  0  0  0  0
 10 11  2  0  0  0  0
 11 12  1  0  0  0  0
 11 31  1  0  0  0  0
 12 13  2  0  0  0  0
 12 32  1  0  0  0  0
 13 14  1  0  0  0  0
 13 33  1  0  0  0  0
 14 15  2  0  0  0  0
 14 34  1  0  0  0  0
 15 16  1  0  0  0  0
 16 35  1  0  0  0  0
 17 18  2  0  0  0  0
 17 36  1  0  0  0  0
 18 19  1  0  0  0  0
 18 21  1  0  0  0  0
 19 20  3  0  0  0  0
 21 22  2  0  0  0  0
M  END
> <s_m_source_file>
AV-unprocessed.smi

> <i_m_source_file_index>
2620

> <i_lp_mmshare_version>
43012

> <i_f3d_flags>
0

> <s_epik_input>
W0NIM11PW0NIMl1bQ0gyXW4xW2NIXWMoW2NIXWMoQyNOKWMxPU8pQyg9TyljMltjSF1bY0hdW2NIXVtjSF1jMltPSF0=

> <s_epik_cmdline>
J2VwaWtfcHl0aG9uJywgJy1waCcsICc3LjAnLCAnLXRuJywgJzgnLCAnLW1hJywgJzIwMCcsICctbWV0YWxfYmluZGluZycsICctaW1hZScsICc8aW5maWxlLm1hZT4nLCAnLW9tYWUnLCAnPG91dGZpbGUubWFlPic=

> <r_epik_Ionization_Penalty>
0.219503

> <r_epik_Ionization_Penalty_Charging>
5.62591e-11

> <r_epik_Ionization_Penalty_Neutral>
0.219503

> <r_epik_State_Penalty>
0.209817

> <r_epik_Charging_Adjusted_Penalty>
0.209817

> <i_epik_Tot_Q>
0

> <i_epik_Tot_abs_Q>
0

> <r_epik_Metal_State_Penalty>
0.209817

> <b_epik_Metal_Only>
0

> <s_lp_Force_Field>
OPLS_2005

> <r_lp_Energy>
23.6774

> <b_lp_Chiralities_Consistent>
1

> <s_lp_Variant>
AV-unprocessed.smi:2620-1

> <Gold.Version>
5.8.1

> <Gold.Id.Protein>
6NUR|6NUR_protein|mol2

> <Gold.PLP.Fitness>
47.8437

> <Gold.PLP.PLP>
-41.1875

> <Gold.PLP.part.hbond>
-1.5962

> <Gold.PLP.part.metal>
0.0000

> <Gold.PLP.part.buried>
0.1697

> <Gold.PLP.part.nonpolar>
-41.5659

> <Gold.PLP.part.repulsive>
0.3664

> <Gold.PLP.ligand.clash>
0.0000

> <Gold.PLP.ligand.torsion>
1.8531

> <Gold.PLP.Chemscore.Hbond>
1.8744

> <Gold.PLP.Chemscore.CHOScore>
1.0000

> <Gold.PLP.Chemscore.Metal>
0.0000

> <Gold.Chemscore.Hbonds>
donor molecule, donor type, donor heavy atom, donor atom, acceptor molecule, acceptor atom, score
      P1  H  7997  8009       L1    22  0.78
      P1  H 10752 10763       L1    20  0.85
      L1  C     6    30       P1  8028  1.00

> <Gold.PLP.Chemscore.Internal.Correction>
1.7393

> <Gold.Rescore>
     Score         DG    S(hbond)    S(metal)    S(lipo)     H(rot)  DE(clash)    DE(int)     intcor
     14.57     -16.96       1.87        0.00      88.09       1.98       0.28       2.11       ----

> <Gold.Chemscore.Fitness>
14.5673

> <Gold.Chemscore.DG>
-16.9604

> <Gold.Chemscore.ZeroCoef>
-5.4800

> <Gold.Chemscore.Hbond>
1.8718

> <Gold.Chemscore.Metal>
0.0000

> <Gold.Chemscore.Lipo>
88.0907

> <Gold.Chemscore.Internal_Hbond>
0.0000

> <Gold.Chemscore.DEClash>
0.2783

> <Gold.Chemscore.DEInternal>
2.1148

> <Gold.Chemscore.Rot>
1.9836

> <Gold.Chemscore.Internal.Correction>
   9.000000E+99

> <Gold.Chemscore.Hbonds>
donor molecule, donor type, donor heavy atom, donor atom, acceptor molecule, acceptor atom, score
      P1  H  7997  8009       L1    22  0.77
      P1  H 10752 10763       L1    20  0.85

> <Gold.Chemscore.Hbond.Weighted>
-6.2519

> <Gold.Chemscore.Metal.Weighted>
-0.0000

> <Gold.Chemscore.Lipo.Weighted>
-10.3066

> <Gold.Chemscore.Internal_Hbond.Weighted>
0.0000

> <Gold.Chemscore.DEClash.Weighted>
0.2783

> <Gold.Chemscore.DEInternal.Weighted>
2.1148

> <Gold.Chemscore.Rot.Weighted>
5.0780

> <Gold.Chemscore.Internal.Correction.Weighted>
   9.000000E+99

> <Gold.Protein.RotatedTorsions>
[ 6907 6896 6895 6894 ] final -129.29 input  -60.11 | X-H torsion
[ 7974 7965 7964 7962 ] final   93.57 input  175.53 | X-H torsion
[ 8008 7997 7996 7995 ] final -174.50 input   59.86 | X-H torsion
[ 10167 10162 10161 10158 ] final   24.51 input  -65.29 | X-H torsion
[ 10718 10713 10712 10709 ] final  -51.62 input   66.30 | X-H torsion
[ 10763 10752 10751 10750 ] final   44.97 input  -60.55 | X-H torsion
[ 11005 11000 10999 10996 ] final  134.23 input  -57.11 | X-H torsion

> <Gold.Protein.ActiveResidues>
 VAL166  LYS551  ARG553  GLY616  TRP617  ASP618  TYR619  PRO620  LYS621  CYS622 
 ASP623  PHE694  ASN695  SER759  ASP760  ASP761  ALA762  ILE779  LEU786  VAL792 
 PHE793  MET794  SER795  GLU796  ALA797  LYS798  CYS799  TRP800  GLU811  SER814 

> <Gold.Protein.RotatedAtoms>
  150.9271  133.6811  159.2818 H   0  0  0  0  0  0  0  0  0  0  0  0  # atno 6907 bound_to 6896
  151.4246  135.1001  159.9634 H   0  0  0  0  0  0  0  0  0  0  0  0  # atno 6908 bound_to 6896
  152.5008  133.8715  159.7356 H   0  0  0  0  0  0  0  0  0  0  0  0  # atno 6909 bound_to 6896
  145.4772  139.2279  143.2903 H   0  0  0  0  0  0  0  0  0  0  0  0  # atno 7974 bound_to 7965
  155.9708  140.1162  157.0814 H   0  0  0  0  0  0  0  0  0  0  0  0  # atno 8008 bound_to 7997
  154.4156  140.1163  156.5371 H   0  0  0  0  0  0  0  0  0  0  0  0  # atno 8009 bound_to 7997
  155.6599  140.3473  155.4781 H   0  0  0  0  0  0  0  0  0  0  0  0  # atno 8010 bound_to 7997
  140.5182  144.0046  150.6404 H   0  0  0  0  0  0  0  0  0  0  0  0  # atno 10167 bound_to 10162
  156.1694  130.4149  149.9670 H   0  0  0  0  0  0  0  0  0  0  0  0  # atno 10718 bound_to 10713
  152.9832  135.6054  154.3360 H   0  0  0  0  0  0  0  0  0  0  0  0  # atno 10763 bound_to 10752
  154.3060  135.2772  155.2590 H   0  0  0  0  0  0  0  0  0  0  0  0  # atno 10764 bound_to 10752
  154.4821  135.5914  153.6453 H   0  0  0  0  0  0  0  0  0  0  0  0  # atno 10765 bound_to 10752
  139.9902  134.9518  156.9837 H   0  0  0  0  0  0  0  0  0  0  0  0  # atno 11005 bound_to 11000
  146.2362  140.5555  142.8953 LP  0  0  0  0  0  0  0  0  0  0  0  0  # atno 17320 bound_to 7965
  144.7910  140.6032  143.6541 LP  0  0  0  0  0  0  0  0  0  0  0  0  # atno 17321 bound_to 7965
  140.3388  143.3032  152.0610 LP  0  0  0  0  0  0  0  0  0  0  0  0  # atno 17342 bound_to 10162
  139.4915  144.6457  151.6783 LP  0  0  0  0  0  0  0  0  0  0  0  0  # atno 17343 bound_to 10162
  156.7475  130.9103  151.3635 LP  0  0  0  0  0  0  0  0  0  0  0  0  # atno 17370 bound_to 10713
  157.6791  130.9123  150.0224 LP  0  0  0  0  0  0  0  0  0  0  0  0  # atno 17371 bound_to 10713
  140.4924  134.1180  155.7235 LP  0  0  0  0  0  0  0  0  0  0  0  0  # atno 17394 bound_to 11000
  141.1559  133.8883  157.1978 LP  0  0  0  0  0  0  0  0  0  0  0  0  # atno 17395 bound_to 11000

$$$$
