AV-unprocessed.smi:915|AV-procd|sdf|4154|dock8
  -GOLD-   22720 2 63D 1   1.00000     0.00000
 Structure written by MMmdl.
 34 35  0  0  0  0  0  0  0  0  1 V2000
  152.1307  139.4944  155.7510 C   0  0  0  0  0  0  0  0  0  0  0  0
  151.2868  140.7733  155.7854 C   0  0  0  0  0  0  0  0  0  0  0  0
  150.0359  140.6518  154.9692 C   0  0  0  0  0  0  0  0  0  0  0  0
  149.1287  141.6468  154.6984 C   0  0  0  0  0  0  0  0  0  0  0  0
  147.8059  141.0766  153.7162 S   0  0  0  0  0  0  0  0  0  0  0  0
  148.5486  139.4849  153.7092 C   0  0  0  0  0  0  0  0  0  0  0  0
  147.9629  138.3857  153.0282 N   0  0  0  0  0  0  0  0  0  0  0  0
  146.6675  138.0278  152.9892 C   0  0  0  0  0  0  0  0  0  0  0  0
  145.7494  138.6162  153.5611 O   0  0  0  0  0  0  0  0  0  0  0  0
  146.4900  136.9320  152.2366 N   0  0  0  0  0  0  0  0  0  0  0  0
  145.2106  136.2741  151.9876 C   0  0  0  0  0  0  0  0  0  0  0  0
  145.3589  135.0508  151.0647 C   0  0  2  0  0  0  0  0  0  0  0  0
  144.0458  134.3048  150.7827 C   0  0  0  0  0  0  0  0  0  0  0  0
  144.4225  132.8877  150.3512 C   0  0  0  0  0  0  0  0  0  0  0  0
  145.4846  132.4075  151.3401 C   0  0  0  0  0  0  0  0  0  0  0  0
  146.5191  133.8357  151.7521 S   0  0  0  0  0  0  0  0  0  0  0  0
  149.6933  139.4220  154.3987 N   0  0  0  0  0  0  0  0  0  0  0  0
  153.0312  139.6067  156.3548 H   0  0  0  0  0  0  0  0  0  0  0  0
  152.4403  139.2535  154.7337 H   0  0  0  0  0  0  0  0  0  0  0  0
  151.5712  138.6440  156.1418 H   0  0  0  0  0  0  0  0  0  0  0  0
  151.0366  141.0093  156.8202 H   0  0  0  0  0  0  0  0  0  0  0  0
  151.8869  141.6098  155.4255 H   0  0  0  0  0  0  0  0  0  0  0  0
  149.1578  142.6777  155.0184 H   0  0  0  0  0  0  0  0  0  0  0  0
  148.6057  137.8029  152.5129 H   0  0  0  0  0  0  0  0  0  0  0  0
  147.3025  136.5174  151.8042 H   0  0  0  0  0  0  0  0  0  0  0  0
  144.8143  135.9554  152.9521 H   0  0  0  0  0  0  0  0  0  0  0  0
  144.4813  136.9755  151.5785 H   0  0  0  0  0  0  0  0  0  0  0  0
  145.7828  135.3701  150.1118 H   0  0  0  0  0  0  0  0  0  0  0  0
  143.4438  134.2525  151.6911 H   0  0  0  0  0  0  0  0  0  0  0  0
  143.4460  134.8114  150.0260 H   0  0  0  0  0  0  0  0  0  0  0  0
  143.5581  132.2235  150.3301 H   0  0  0  0  0  0  0  0  0  0  0  0
  144.8409  132.9117  149.3441 H   0  0  0  0  0  0  0  0  0  0  0  0
  145.0094  132.0563  152.2565 H   0  0  0  0  0  0  0  0  0  0  0  0
  146.0830  131.5891  150.9392 H   0  0  0  0  0  0  0  0  0  0  0  0
  1  2  1  0  0  0  0
  1 18  1  0  0  0  0
  1 19  1  0  0  0  0
  1 20  1  0  0  0  0
  2  3  1  0  0  0  0
  2 21  1  0  0  0  0
  2 22  1  0  0  0  0
  3 17  1  0  0  0  0
  3  4  2  0  0  0  0
  4  5  1  0  0  0  0
  4 23  1  0  0  0  0
  5  6  1  0  0  0  0
  6  7  1  0  0  0  0
  6 17  2  0  0  0  0
  7  8  1  0  0  0  0
  7 24  1  0  0  0  0
  8  9  2  0  0  0  0
  8 10  1  0  0  0  0
 10 11  1  0  0  0  0
 10 25  1  0  0  0  0
 11 12  1  0  0  0  0
 11 26  1  0  0  0  0
 11 27  1  0  0  0  0
 12 16  1  0  0  0  0
 12 13  1  0  0  0  0
 12 28  1  0  0  0  0
 13 14  1  0  0  0  0
 13 29  1  0  0  0  0
 13 30  1  0  0  0  0
 14 15  1  0  0  0  0
 14 31  1  0  0  0  0
 14 32  1  0  0  0  0
 15 16  1  0  0  0  0
 15 33  1  0  0  0  0
 15 34  1  0  0  0  0
M  END
> <s_m_source_file>
AV-unprocessed.smi

> <i_m_source_file_index>
915

> <i_lp_mmshare_version>
43012

> <i_f3d_flags>
0

> <s_epik_input>
W0NIM11bQ0gyXWMxW2NIXXNjKG4xKVtOSF1DKD1PKVtOSF1bQ0gyXVtDQEBIXTJbQ0gyXVtDSDJdW0NIMl1TMg==

> <s_epik_cmdline>
J2VwaWtfcHl0aG9uJywgJy1waCcsICc3LjAnLCAnLXRuJywgJzgnLCAnLW1hJywgJzIwMCcsICctbWV0YWxfYmluZGluZycsICctaW1hZScsICc8aW5maWxlLm1hZT4nLCAnLW9tYWUnLCAnPG91dGZpbGUubWFlPic=

> <r_lp_tautomer_probability>
0.999

> <r_epik_Ionization_Penalty>
0.000460048

> <r_epik_Ionization_Penalty_Charging>
0

> <r_epik_Ionization_Penalty_Neutral>
0.000460048

> <r_epik_State_Penalty>
0.000177984

> <r_epik_Charging_Adjusted_Penalty>
0.000177984

> <i_epik_Tot_Q>
0

> <i_epik_Tot_abs_Q>
0

> <r_epik_Metal_State_Penalty>
0.00612978

> <b_epik_Metal_Only>
0

> <s_lp_Force_Field>
OPLS_2005

> <r_lp_Energy>
7.49707

> <b_lp_Chiralities_Consistent>
1

> <s_lp_Variant>
AV-unprocessed.smi:915-1

> <Gold.Version>
5.8.1

> <Gold.Id.Protein>
6NUR|6NUR_protein|mol2

> <Gold.PLP.Fitness>
40.5621

> <Gold.PLP.PLP>
-32.7505

> <Gold.PLP.part.hbond>
-3.0000

> <Gold.PLP.part.metal>
0.0000

> <Gold.PLP.part.buried>
-0.2693

> <Gold.PLP.part.nonpolar>
-31.3898

> <Gold.PLP.part.repulsive>
1.1928

> <Gold.PLP.ligand.clash>
0.0000

> <Gold.PLP.ligand.torsion>
0.3816

> <Gold.PLP.Chemscore.Hbond>
1.8560

> <Gold.PLP.Chemscore.CHOScore>
1.0000

> <Gold.PLP.Chemscore.Metal>
0.0000

> <Gold.Chemscore.Hbonds>
donor molecule, donor type, donor heavy atom, donor atom, acceptor molecule, acceptor atom, score
      L1  H     7    24       P1  7948  0.98
      L1  H    10    25       P1  7948  0.99
      L1  C     4    23       P1  8028  1.00

> <Gold.PLP.Chemscore.Internal.Correction>
0.0068

> <Gold.Rescore>
     Score         DG    S(hbond)    S(metal)    S(lipo)     H(rot)  DE(clash)    DE(int)     intcor
     16.32     -16.76       1.88        0.00      72.60       1.36       0.12       0.33       ----

> <Gold.Chemscore.Fitness>
16.3199

> <Gold.Chemscore.DG>
-16.7627

> <Gold.Chemscore.ZeroCoef>
-5.4800

> <Gold.Chemscore.Hbond>
1.8774

> <Gold.Chemscore.Metal>
0.0000

> <Gold.Chemscore.Lipo>
72.6025

> <Gold.Chemscore.Internal_Hbond>
0.0000

> <Gold.Chemscore.DEClash>
0.1155

> <Gold.Chemscore.DEInternal>
0.3273

> <Gold.Chemscore.Rot>
1.3603

> <Gold.Chemscore.Internal.Correction>
   9.000000E+99

> <Gold.Chemscore.Hbonds>
donor molecule, donor type, donor heavy atom, donor atom, acceptor molecule, acceptor atom, score
      L1  H     7    24       P1  7948  0.93
      L1  H    10    25       P1  7948  0.94

> <Gold.Chemscore.Hbond.Weighted>
-6.2707

> <Gold.Chemscore.Metal.Weighted>
-0.0000

> <Gold.Chemscore.Lipo.Weighted>
-8.4945

> <Gold.Chemscore.Internal_Hbond.Weighted>
0.0000

> <Gold.Chemscore.DEClash.Weighted>
0.1155

> <Gold.Chemscore.DEInternal.Weighted>
0.3273

> <Gold.Chemscore.Rot.Weighted>
3.4824

> <Gold.Chemscore.Internal.Correction.Weighted>
   9.000000E+99

> <Gold.Protein.RotatedTorsions>
[ 6907 6896 6895 6894 ] final   32.89 input  -60.11 | X-H torsion
[ 7974 7965 7964 7962 ] final   -2.39 input  175.53 | X-H torsion
[ 8008 7997 7996 7995 ] final   33.20 input   59.86 | X-H torsion
[ 10167 10162 10161 10158 ] final  -50.87 input  -65.29 | X-H torsion
[ 10718 10713 10712 10709 ] final  -59.53 input   66.30 | X-H torsion
[ 10763 10752 10751 10750 ] final  146.01 input  -60.55 | X-H torsion
[ 11005 11000 10999 10996 ] final   32.91 input  -57.11 | X-H torsion

> <Gold.Protein.ActiveResidues>
 VAL166  LYS551  ARG553  GLY616  TRP617  ASP618  TYR619  PRO620  LYS621  CYS622 
 ASP623  PHE694  ASN695  SER759  ASP760  ASP761  ALA762  ILE779  LEU786  VAL792 
 PHE793  MET794  SER795  GLU796  ALA797  LYS798  CYS799  TRP800  GLU811  SER814 

> <Gold.Protein.RotatedAtoms>
  152.0808  134.9472  160.0573 H   0  0  0  0  0  0  0  0  0  0  0  0  # atno 6907 bound_to 6896
  152.0761  133.4125  159.4489 H   0  0  0  0  0  0  0  0  0  0  0  0  # atno 6908 bound_to 6896
  150.6836  134.2955  159.4728 H   0  0  0  0  0  0  0  0  0  0  0  0  # atno 6909 bound_to 6896
  146.2405  140.1564  142.8333 H   0  0  0  0  0  0  0  0  0  0  0  0  # atno 7974 bound_to 7965
  155.1348  140.3260  155.4466 H   0  0  0  0  0  0  0  0  0  0  0  0  # atno 8008 bound_to 7997
  156.2623  140.2004  156.6415 H   0  0  0  0  0  0  0  0  0  0  0  0  # atno 8009 bound_to 7997
  154.6586  140.0550  157.0023 H   0  0  0  0  0  0  0  0  0  0  0  0  # atno 8010 bound_to 7997
  140.6616  143.2641  151.4421 H   0  0  0  0  0  0  0  0  0  0  0  0  # atno 10167 bound_to 10162
  156.1055  130.4181  150.0728 H   0  0  0  0  0  0  0  0  0  0  0  0  # atno 10718 bound_to 10713
  154.0148  135.2911  155.3388 H   0  0  0  0  0  0  0  0  0  0  0  0  # atno 10763 bound_to 10752
  154.7082  135.5160  153.8629 H   0  0  0  0  0  0  0  0  0  0  0  0  # atno 10764 bound_to 10752
  153.0707  135.6646  154.0376 H   0  0  0  0  0  0  0  0  0  0  0  0  # atno 10765 bound_to 10752
  140.2685  134.3109  155.7835 H   0  0  0  0  0  0  0  0  0  0  0  0  # atno 11005 bound_to 11000
  145.0125  140.8726  143.5215 LP  0  0  0  0  0  0  0  0  0  0  0  0  # atno 17320 bound_to 7965
  145.1600  139.2464  143.5396 LP  0  0  0  0  0  0  0  0  0  0  0  0  # atno 17321 bound_to 7965
  139.5852  144.1620  152.2020 LP  0  0  0  0  0  0  0  0  0  0  0  0  # atno 17342 bound_to 10162
  140.0957  144.5582  150.7023 LP  0  0  0  0  0  0  0  0  0  0  0  0  # atno 17343 bound_to 10162
  156.8705  130.9522  151.3609 LP  0  0  0  0  0  0  0  0  0  0  0  0  # atno 17370 bound_to 10713
  157.6231  130.8670  149.9142 LP  0  0  0  0  0  0  0  0  0  0  0  0  # atno 17371 bound_to 10713
  141.2181  133.7452  156.9298 LP  0  0  0  0  0  0  0  0  0  0  0  0  # atno 17394 bound_to 11000
  140.1396  134.9302  157.2448 LP  0  0  0  0  0  0  0  0  0  0  0  0  # atno 17395 bound_to 11000

$$$$
