AV-unprocessed.smi:2255|AV-procd|sdf|9125|dock6
  -GOLD-   2272012333D 1   1.00000     0.00000
 Structure written by MMmdl.
 46 47  0  0  0  0  0  0  0  0  1 V2000
  151.1340  145.2953  159.4524 C   0  0  0  0  0  0  0  0  0  0  0  0
  151.7462  143.9143  159.3484 C   0  0  0  0  0  0  0  0  0  0  0  0
  152.8655  143.5563  160.1250 C   0  0  0  0  0  0  0  0  0  0  0  0
  153.3888  142.2596  159.9750 C   0  0  0  0  0  0  0  0  0  0  0  0
  152.7767  141.3811  159.0603 C   0  0  0  0  0  0  0  0  0  0  0  0
  151.6554  141.8189  158.3201 C   0  0  0  0  0  0  0  0  0  0  0  0
  151.1159  140.8612  157.4210 N   0  0  0  0  0  0  0  0  0  0  0  0
  151.7226  139.7846  156.8906 C   0  0  0  0  0  0  0  0  0  0  0  0
  152.9005  139.4727  157.0675 O   0  0  0  0  0  0  0  0  0  0  0  0
  150.8736  139.0813  156.1267 N   0  0  0  0  0  0  0  0  0  0  0  0
  151.1909  137.8486  155.4078 C   0  0  0  0  0  0  0  0  0  0  0  0
  149.9523  136.9432  155.2386 C   0  0  0  0  0  0  0  0  0  0  0  0
  150.1923  135.4427  155.5019 C   0  0  0  0  0  0  0  0  0  0  0  0
  151.3471  135.0255  155.6017 O   0  0  0  0  0  0  0  0  0  0  0  0
  149.1239  134.6136  155.6037 N   0  0  0  0  0  0  0  0  0  0  0  0
  149.2938  133.1694  155.8078 C   0  0  0  0  0  0  0  0  0  0  0  0
  149.5811  132.4251  154.4875 C   0  0  0  0  0  0  0  0  0  0  0  0
  148.8636  132.9714  153.2333 C   0  0  0  0  0  0  0  0  0  0  0  0
  147.3981  133.4007  153.4452 C   0  0  0  0  0  0  0  0  0  0  0  0
  147.2436  134.8362  153.9906 C   0  0  0  0  0  0  0  0  0  0  0  0
  147.7202  135.0206  155.4432 C   0  0  0  0  0  0  0  0  0  0  0  0
  151.1580  143.0715  158.4726 N   0  0  0  0  0  0  0  0  0  0  0  0
  151.5710  145.8609  160.2756 H   0  0  0  0  0  0  0  0  0  0  0  0
  150.0593  145.2246  159.6223 H   0  0  0  0  0  0  0  0  0  0  0  0
  151.3006  145.8514  158.5293 H   0  0  0  0  0  0  0  0  0  0  0  0
  153.3137  144.2549  160.8164 H   0  0  0  0  0  0  0  0  0  0  0  0
  154.2467  141.9433  160.5497 H   0  0  0  0  0  0  0  0  0  0  0  0
  153.1676  140.3822  158.9317 H   0  0  0  0  0  0  0  0  0  0  0  0
  150.1507  141.0036  157.1642 H   0  0  0  0  0  0  0  0  0  0  0  0
  149.9266  139.4204  156.0411 H   0  0  0  0  0  0  0  0  0  0  0  0
  151.5624  138.1322  154.4230 H   0  0  0  0  0  0  0  0  0  0  0  0
  152.0019  137.2940  155.8835 H   0  0  0  0  0  0  0  0  0  0  0  0
  149.1637  137.3027  155.9001 H   0  0  0  0  0  0  0  0  0  0  0  0
  149.5841  137.0533  154.2186 H   0  0  0  0  0  0  0  0  0  0  0  0
  150.0864  132.9685  156.5308 H   0  0  0  0  0  0  0  0  0  0  0  0
  148.3983  132.7427  156.2603 H   0  0  0  0  0  0  0  0  0  0  0  0
  150.6547  132.4366  154.2963 H   0  0  0  0  0  0  0  0  0  0  0  0
  149.3206  131.3750  154.6234 H   0  0  0  0  0  0  0  0  0  0  0  0
  149.4278  133.8103  152.8239 H   0  0  0  0  0  0  0  0  0  0  0  0
  148.8987  132.1990  152.4644 H   0  0  0  0  0  0  0  0  0  0  0  0
  146.8914  133.3589  152.4804 H   0  0  0  0  0  0  0  0  0  0  0  0
  146.8781  132.6861  154.0841 H   0  0  0  0  0  0  0  0  0  0  0  0
  147.7688  135.5318  153.3354 H   0  0  0  0  0  0  0  0  0  0  0  0
  146.1919  135.1191  153.9370 H   0  0  0  0  0  0  0  0  0  0  0  0
  147.0801  134.4398  156.1083 H   0  0  0  0  0  0  0  0  0  0  0  0
  147.5568  136.0513  155.7544 H   0  0  0  0  0  0  0  0  0  0  0  0
  1  2  1  0  0  0  0
  1 23  1  0  0  0  0
  1 24  1  0  0  0  0
  1 25  1  0  0  0  0
  2 22  1  0  0  0  0
  2  3  2  0  0  0  0
  3  4  1  0  0  0  0
  3 26  1  0  0  0  0
  4  5  2  0  0  0  0
  4 27  1  0  0  0  0
  5  6  1  0  0  0  0
  5 28  1  0  0  0  0
  6  7  1  0  0  0  0
  6 22  2  0  0  0  0
  7  8  1  0  0  0  0
  7 29  1  0  0  0  0
  8  9  2  0  0  0  0
  8 10  1  0  0  0  0
 10 11  1  0  0  0  0
 10 30  1  0  0  0  0
 11 12  1  0  0  0  0
 11 31  1  0  0  0  0
 11 32  1  0  0  0  0
 12 13  1  0  0  0  0
 12 33  1  0  0  0  0
 12 34  1  0  0  0  0
 13 14  2  0  0  0  0
 13 15  1  0  0  0  0
 15 21  1  0  0  0  0
 15 16  1  0  0  0  0
 16 17  1  0  0  0  0
 16 35  1  0  0  0  0
 16 36  1  0  0  0  0
 17 18  1  0  0  0  0
 17 37  1  0  0  0  0
 17 38  1  0  0  0  0
 18 19  1  0  0  0  0
 18 39  1  0  0  0  0
 18 40  1  0  0  0  0
 19 20  1  0  0  0  0
 19 41  1  0  0  0  0
 19 42  1  0  0  0  0
 20 21  1  0  0  0  0
 20 43  1  0  0  0  0
 20 44  1  0  0  0  0
 21 45  1  0  0  0  0
 21 46  1  0  0  0  0
M  END
> <s_m_source_file>
AV-unprocessed.smi

> <i_m_source_file_index>
2255

> <i_lp_mmshare_version>
43012

> <i_f3d_flags>
0

> <s_epik_input>
W0NIM11jMVtjSF1bY0hdW2NIXWMobjEpW05IXUMoPU8pW05IXVtDSDJdW0NIMl1DKD1PKU4yW0NIMl1bQ0gyXVtDSDJdW0NIMl1bQ0gyXVtDSDJdMg==

> <s_epik_cmdline>
J2VwaWtfcHl0aG9uJywgJy1waCcsICc3LjAnLCAnLXRuJywgJzgnLCAnLW1hJywgJzIwMCcsICctbWV0YWxfYmluZGluZycsICctaW1hZScsICc8aW5maWxlLm1hZT4nLCAnLW9tYWUnLCAnPG91dGZpbGUubWFlPic=

> <r_lp_tautomer_probability>
1

> <r_epik_Ionization_Penalty>
7.16633e-05

> <r_epik_Ionization_Penalty_Charging>
0

> <r_epik_Ionization_Penalty_Neutral>
7.16633e-05

> <r_epik_State_Penalty>
-0

> <r_epik_Charging_Adjusted_Penalty>
0

> <i_epik_Tot_Q>
0

> <i_epik_Tot_abs_Q>
0

> <r_epik_Metal_State_Penalty>
-0

> <b_epik_Metal_Only>
0

> <s_lp_Force_Field>
OPLS_2005

> <r_lp_Energy>
24.0956

> <b_lp_Chiralities_Consistent>
1

> <s_lp_Variant>
AV-unprocessed.smi:2255-1

> <Gold.Version>
5.8.1

> <Gold.Id.Protein>
6NUR|6NUR_protein|mol2

> <Gold.PLP.Fitness>
41.3581

> <Gold.PLP.PLP>
-37.0104

> <Gold.PLP.part.hbond>
-2.0000

> <Gold.PLP.part.metal>
0.0000

> <Gold.PLP.part.buried>
-3.0226

> <Gold.PLP.part.nonpolar>
-32.6250

> <Gold.PLP.part.repulsive>
0.2544

> <Gold.PLP.ligand.clash>
0.0000

> <Gold.PLP.ligand.torsion>
0.7234

> <Gold.PLP.Chemscore.Hbond>
1.9280

> <Gold.PLP.Chemscore.CHOScore>
0.0000

> <Gold.PLP.Chemscore.Metal>
0.0000

> <Gold.Chemscore.Hbonds>
donor molecule, donor type, donor heavy atom, donor atom, acceptor molecule, acceptor atom, score
      P1  H  7997  8008       L1     9  1.00
      P1  H 10752 10764       L1    14  0.93

> <Gold.PLP.Chemscore.Internal.Correction>
0.0105

> <Gold.Rescore>
     Score         DG    S(hbond)    S(metal)    S(lipo)     H(rot)  DE(clash)    DE(int)     intcor
     16.64     -18.80       1.97        0.00      90.24       1.49       0.02       2.14       ----

> <Gold.Chemscore.Fitness>
16.6385

> <Gold.Chemscore.DG>
-18.8035

> <Gold.Chemscore.ZeroCoef>
-5.4800

> <Gold.Chemscore.Hbond>
1.9736

> <Gold.Chemscore.Metal>
0.0000

> <Gold.Chemscore.Lipo>
90.2371

> <Gold.Chemscore.Internal_Hbond>
0.0000

> <Gold.Chemscore.DEClash>
0.0241

> <Gold.Chemscore.DEInternal>
2.1409

> <Gold.Chemscore.Rot>
1.4946

> <Gold.Chemscore.Internal.Correction>
   9.000000E+99

> <Gold.Chemscore.Hbonds>
donor molecule, donor type, donor heavy atom, donor atom, acceptor molecule, acceptor atom, score
      P1  H  7997  8008       L1     9  1.00
      P1  H 10752 10764       L1    14  0.90

> <Gold.Chemscore.Hbond.Weighted>
-6.5918

> <Gold.Chemscore.Metal.Weighted>
-0.0000

> <Gold.Chemscore.Lipo.Weighted>
-10.5577

> <Gold.Chemscore.Internal_Hbond.Weighted>
0.0000

> <Gold.Chemscore.DEClash.Weighted>
0.0241

> <Gold.Chemscore.DEInternal.Weighted>
2.1409

> <Gold.Chemscore.Rot.Weighted>
3.8261

> <Gold.Chemscore.Internal.Correction.Weighted>
   9.000000E+99

> <Gold.Protein.RotatedTorsions>
[ 6907 6896 6895 6894 ] final  109.34 input  -60.11 | X-H torsion
[ 7974 7965 7964 7962 ] final  -22.06 input  175.53 | X-H torsion
[ 8008 7997 7996 7995 ] final  -65.05 input   59.86 | X-H torsion
[ 10167 10162 10161 10158 ] final  -68.89 input  -65.29 | X-H torsion
[ 10718 10713 10712 10709 ] final  139.80 input   66.30 | X-H torsion
[ 10763 10752 10751 10750 ] final  -41.78 input  -60.55 | X-H torsion
[ 11005 11000 10999 10996 ] final   12.96 input  -57.11 | X-H torsion

> <Gold.Protein.ActiveResidues>
 VAL166  LYS551  ARG553  GLY616  TRP617  ASP618  TYR619  PRO620  LYS621  CYS622 
 ASP623  PHE694  ASN695  SER759  ASP760  ASP761  ALA762  ILE779  LEU786  VAL792 
 PHE793  MET794  SER795  GLU796  ALA797  LYS798  CYS799  TRP800  GLU811  SER814 

> <Gold.Protein.RotatedAtoms>
  152.5071  133.8958  159.7416 H   0  0  0  0  0  0  0  0  0  0  0  0  # atno 6907 bound_to 6896
  150.9386  133.6675  159.2802 H   0  0  0  0  0  0  0  0  0  0  0  0  # atno 6908 bound_to 6896
  151.3994  135.0973  159.9604 H   0  0  0  0  0  0  0  0  0  0  0  0  # atno 6909 bound_to 6896
  146.1697  140.4427  142.8537 H   0  0  0  0  0  0  0  0  0  0  0  0  # atno 7974 bound_to 7965
  154.4648  140.0941  156.6991 H   0  0  0  0  0  0  0  0  0  0  0  0  # atno 8008 bound_to 7997
  155.4889  140.3470  155.4333 H   0  0  0  0  0  0  0  0  0  0  0  0  # atno 8009 bound_to 7997
  156.0937  140.1404  156.9548 H   0  0  0  0  0  0  0  0  0  0  0  0  # atno 8010 bound_to 7997
  140.5473  143.2312  151.6978 H   0  0  0  0  0  0  0  0  0  0  0  0  # atno 10167 bound_to 10162
  157.4103  131.1027  151.0461 H   0  0  0  0  0  0  0  0  0  0  0  0  # atno 10718 bound_to 10713
  153.9681  135.6731  153.4746 H   0  0  0  0  0  0  0  0  0  0  0  0  # atno 10763 bound_to 10752
  153.0806  135.4925  154.8491 H   0  0  0  0  0  0  0  0  0  0  0  0  # atno 10764 bound_to 10752
  154.7234  135.3122  154.8970 H   0  0  0  0  0  0  0  0  0  0  0  0  # atno 10765 bound_to 10752
  140.4861  134.0887  155.7761 H   0  0  0  0  0  0  0  0  0  0  0  0  # atno 11005 bound_to 11000
  144.8145  140.6444  143.6393 LP  0  0  0  0  0  0  0  0  0  0  0  0  # atno 17320 bound_to 7965
  145.4372  139.1540  143.3990 LP  0  0  0  0  0  0  0  0  0  0  0  0  # atno 17321 bound_to 7965
  139.5012  144.3874  152.0314 LP  0  0  0  0  0  0  0  0  0  0  0  0  # atno 17342 bound_to 10162
  140.2988  144.3670  150.6066 LP  0  0  0  0  0  0  0  0  0  0  0  0  # atno 17343 bound_to 10162
  157.1428  130.6150  149.5560 LP  0  0  0  0  0  0  0  0  0  0  0  0  # atno 17370 bound_to 10713
  155.9849  130.4876  150.7004 LP  0  0  0  0  0  0  0  0  0  0  0  0  # atno 17371 bound_to 10713
  141.1507  133.8973  157.2104 LP  0  0  0  0  0  0  0  0  0  0  0  0  # atno 17394 bound_to 11000
  139.9797  135.0102  156.9719 LP  0  0  0  0  0  0  0  0  0  0  0  0  # atno 17395 bound_to 11000

$$$$
