AV-unprocessed.smi:3056|AV-procd|sdf|11652|dock2
  -GOLD-   2272017 53D 1   1.00000     0.00000
 Structure written by MMmdl.
 48 49  0  0  0  0  0  0  0  0  2 V2000
  144.6815  144.5528  156.3172 C   0  0  0  0  0  0  0  0  0  0  0  0
  145.7492  143.7597  157.0143 C   0  0  0  0  0  0  0  0  0  0  0  0
  145.9872  143.6544  158.4138 C   0  0  0  0  0  0  0  0  0  0  0  0
  147.0160  142.8743  158.7029 N   0  0  0  0  0  0  0  0  0  0  0  0
  147.4703  142.4512  157.5037 N   0  0  0  0  0  0  0  0  0  0  0  0
  148.6275  141.5673  157.4391 C   0  0  1  0  0  0  0  0  0  0  0  0
  148.8948  141.1675  155.9765 C   0  0  0  0  0  0  0  0  0  0  0  0
  149.8658  142.1905  158.1370 C   0  0  1  0  0  0  0  0  0  0  0  0
  151.1738  141.4362  157.8359 C   0  0  0  0  0  0  0  0  0  0  0  0
  150.0330  143.6051  157.7347 N   0  3  0  0  0  0  0  0  0  0  0  0
  151.2794  144.2474  158.2067 C   0  0  0  0  0  0  0  0  0  0  0  0
  151.1463  144.8164  159.6272 C   0  0  0  0  0  0  0  0  0  0  0  0
  150.2882  145.6739  159.8442 O   0  0  0  0  0  0  0  0  0  0  0  0
  151.9753  144.3613  160.5971 N   0  0  0  0  0  0  0  0  0  0  0  0
  151.9554  144.7602  162.0082 C   0  0  0  0  0  0  0  0  0  0  0  0
  151.6170  143.5231  162.8586 C   0  0  0  0  0  0  0  0  0  0  0  0
  152.5673  142.4913  162.6057 O   0  0  0  0  0  0  0  0  0  0  0  0
  152.6207  142.0937  161.2368 C   0  0  2  0  0  0  0  0  0  0  0  0
  153.6517  140.9676  161.1040 C   0  0  0  0  0  0  0  0  0  0  0  0
  152.9797  143.3180  160.3707 C   0  0  0  0  0  0  0  0  0  0  0  0
  146.7226  142.9731  156.4670 C   0  0  0  0  0  0  0  0  0  0  0  0
  143.8385  144.7637  156.9756 H   0  0  0  0  0  0  0  0  0  0  0  0
  144.2857  144.0232  155.4503 H   0  0  0  0  0  0  0  0  0  0  0  0
  145.0605  145.5115  155.9633 H   0  0  0  0  0  0  0  0  0  0  0  0
  145.4466  144.1216  159.2238 H   0  0  0  0  0  0  0  0  0  0  0  0
  148.3658  140.6552  157.9796 H   0  0  0  0  0  0  0  0  0  0  0  0
  149.6565  140.3911  155.9071 H   0  0  0  0  0  0  0  0  0  0  0  0
  149.2304  142.0182  155.3827 H   0  0  0  0  0  0  0  0  0  0  0  0
  147.9922  140.7724  155.5089 H   0  0  0  0  0  0  0  0  0  0  0  0
  149.7145  142.1421  159.2169 H   0  0  0  0  0  0  0  0  0  0  0  0
  151.1515  140.4147  158.2161 H   0  0  0  0  0  0  0  0  0  0  0  0
  152.0263  141.9302  158.3034 H   0  0  0  0  0  0  0  0  0  0  0  0
  151.3651  141.3884  156.7632 H   0  0  0  0  0  0  0  0  0  0  0  0
  150.0296  143.6487  156.7255 H   0  0  0  0  0  0  0  0  0  0  0  0
  152.0862  143.5143  158.1869 H   0  0  0  0  0  0  0  0  0  0  0  0
  151.5394  145.0556  157.5214 H   0  0  0  0  0  0  0  0  0  0  0  0
  152.9380  145.1452  162.2846 H   0  0  0  0  0  0  0  0  0  0  0  0
  151.2496  145.5577  162.2337 H   0  0  0  0  0  0  0  0  0  0  0  0
  151.6443  143.7744  163.9190 H   0  0  0  0  0  0  0  0  0  0  0  0
  150.6096  143.1651  162.6404 H   0  0  0  0  0  0  0  0  0  0  0  0
  151.6433  141.7080  160.9414 H   0  0  0  0  0  0  0  0  0  0  0  0
  153.7169  140.6142  160.0747 H   0  0  0  0  0  0  0  0  0  0  0  0
  153.3822  140.1169  161.7303 H   0  0  0  0  0  0  0  0  0  0  0  0
  154.6441  141.3028  161.4063 H   0  0  0  0  0  0  0  0  0  0  0  0
  153.0526  143.0205  159.3236 H   0  0  0  0  0  0  0  0  0  0  0  0
  153.9640  143.7014  160.6442 H   0  0  0  0  0  0  0  0  0  0  0  0
  146.9439  142.7463  155.4344 H   0  0  0  0  0  0  0  0  0  0  0  0
  149.2434  144.1353  158.0750 H   0  0  0  0  0  0  0  0  0  0  0  0
  1  2  1  0  0  0  0
  1 22  1  0  0  0  0
  1 23  1  0  0  0  0
  1 24  1  0  0  0  0
  2 21  2  0  0  0  0
  2  3  1  0  0  0  0
  3  4  2  0  0  0  0
  3 25  1  0  0  0  0
  4  5  1  0  0  0  0
  5  6  1  0  0  0  0
  5 21  1  0  0  0  0
  6  7  1  0  0  0  0
  6  8  1  0  0  0  0
  6 26  1  0  0  0  0
  7 27  1  0  0  0  0
  7 28  1  0  0  0  0
  7 29  1  0  0  0  0
  8  9  1  0  0  0  0
  8 10  1  0  0  0  0
  8 30  1  0  0  0  0
  9 31  1  0  0  0  0
  9 32  1  0  0  0  0
  9 33  1  0  0  0  0
 10 11  1  0  0  0  0
 10 34  1  0  0  0  0
 10 48  1  0  0  0  0
 11 12  1  0  0  0  0
 11 35  1  0  0  0  0
 11 36  1  0  0  0  0
 12 13  2  0  0  0  0
 12 14  1  0  0  0  0
 14 20  1  0  0  0  0
 14 15  1  0  0  0  0
 15 16  1  0  0  0  0
 15 37  1  0  0  0  0
 15 38  1  0  0  0  0
 16 17  1  0  0  0  0
 16 39  1  0  0  0  0
 16 40  1  0  0  0  0
 17 18  1  0  0  0  0
 18 19  1  0  0  0  0
 18 20  1  0  0  0  0
 18 41  1  0  0  0  0
 19 42  1  0  0  0  0
 19 43  1  0  0  0  0
 19 44  1  0  0  0  0
 20 45  1  0  0  0  0
 20 46  1  0  0  0  0
 21 47  1  0  0  0  0
M  CHG  1  10   1
M  END
> <s_m_source_file>
AV-unprocessed.smi

> <i_m_source_file_index>
3056

> <i_lp_mmshare_version>
43012

> <i_f3d_flags>
0

> <s_epik_input>
W0NIM11jMVtjSF1ubihbY0hdMSlbQ0BIXShbQ0gzXSlbQ0BIXShbQ0gzXSlbTkhdW0NIMl1DKD1PKU4yW0NIMl1bQ0gyXU9bQ0BASF0oW0NIM10pW0NIMl0y

> <s_epik_cmdline>
J2VwaWtfcHl0aG9uJywgJy1waCcsICc3LjAnLCAnLXRuJywgJzgnLCAnLW1hJywgJzIwMCcsICctbWV0YWxfYmluZGluZycsICctaW1hZScsICc8aW5maWxlLm1hZT4nLCAnLW9tYWUnLCAnPG91dGZpbGUubWFlPic=

> <r_lp_tautomer_probability>
1

> <r_epik_Ionization_Penalty>
0.233715

> <r_epik_Ionization_Penalty_Charging>
0.233698

> <r_epik_Ionization_Penalty_Neutral>
1.68157e-05

> <r_epik_State_Penalty>
0.225221

> <r_epik_Charging_Adjusted_Penalty>
0.458919

> <i_epik_Tot_Q>
1

> <i_epik_Tot_abs_Q>
1

> <r_epik_Metal_State_Penalty>
0.225535

> <b_epik_Metal_Only>
0

> <s_lp_Force_Field>
OPLS_2005

> <r_lp_Energy>
28.8948

> <b_lp_Chiralities_Consistent>
1

> <s_lp_Variant>
AV-unprocessed.smi:3056-8

> <Gold.Version>
5.8.1

> <Gold.Id.Protein>
6NUR|6NUR_protein|mol2

> <Gold.PLP.Fitness>
48.8879

> <Gold.PLP.PLP>
-41.9494

> <Gold.PLP.part.hbond>
-2.9556

> <Gold.PLP.part.metal>
0.0000

> <Gold.PLP.part.buried>
-6.5794

> <Gold.PLP.part.nonpolar>
-33.8005

> <Gold.PLP.part.repulsive>
0.3309

> <Gold.PLP.ligand.clash>
0.0000

> <Gold.PLP.ligand.torsion>
0.4551

> <Gold.PLP.Chemscore.Hbond>
2.5824

> <Gold.PLP.Chemscore.CHOScore>
0.0000

> <Gold.PLP.Chemscore.Metal>
0.0000

> <Gold.Chemscore.Hbonds>
donor molecule, donor type, donor heavy atom, donor atom, acceptor molecule, acceptor atom, score
      L1  H    10    34       P1  8028  1.02
      L1  H    10    48       P1  8029  0.11
      L1  C    21    47       P1  8028  0.04

> <Gold.PLP.Chemscore.Internal.Correction>
0.1016

> <Gold.Rescore>
     Score         DG    S(hbond)    S(metal)    S(lipo)     H(rot)  DE(clash)    DE(int)     intcor
     14.18     -16.16       1.30        0.00      92.09       1.74       1.26       0.73       ----

> <Gold.Chemscore.Fitness>
14.1789

> <Gold.Chemscore.DG>
-16.1644

> <Gold.Chemscore.ZeroCoef>
-5.4800

> <Gold.Chemscore.Hbond>
1.3030

> <Gold.Chemscore.Metal>
0.0000

> <Gold.Chemscore.Lipo>
92.0928

> <Gold.Chemscore.Internal_Hbond>
0.0000

> <Gold.Chemscore.DEClash>
1.2554

> <Gold.Chemscore.DEInternal>
0.7301

> <Gold.Chemscore.Rot>
1.7354

> <Gold.Chemscore.Internal.Correction>
   9.000000E+99

> <Gold.Chemscore.Hbonds>
donor molecule, donor type, donor heavy atom, donor atom, acceptor molecule, acceptor atom, score
      L1  H    10    34       P1  8028  0.50
      L1  H    10    48       P1  8029  0.01

> <Gold.Chemscore.Hbond.Weighted>
-4.3522

> <Gold.Chemscore.Metal.Weighted>
-0.0000

> <Gold.Chemscore.Lipo.Weighted>
-10.7749

> <Gold.Chemscore.Internal_Hbond.Weighted>
0.0000

> <Gold.Chemscore.DEClash.Weighted>
1.2554

> <Gold.Chemscore.DEInternal.Weighted>
0.7301

> <Gold.Chemscore.Rot.Weighted>
4.4426

> <Gold.Chemscore.Internal.Correction.Weighted>
   9.000000E+99

> <Gold.Protein.RotatedTorsions>
[ 6907 6896 6895 6894 ] final   -8.32 input  -60.11 | X-H torsion
[ 7974 7965 7964 7962 ] final  -15.65 input  175.53 | X-H torsion
[ 8008 7997 7996 7995 ] final -143.77 input   59.86 | X-H torsion
[ 10167 10162 10161 10158 ] final  119.89 input  -65.29 | X-H torsion
[ 10718 10713 10712 10709 ] final   43.43 input   66.30 | X-H torsion
[ 10763 10752 10751 10750 ] final   41.52 input  -60.55 | X-H torsion
[ 11005 11000 10999 10996 ] final -129.90 input  -57.11 | X-H torsion

> <Gold.Protein.ActiveResidues>
 VAL166  LYS551  ARG553  GLY616  TRP617  ASP618  TYR619  PRO620  LYS621  CYS622 
 ASP623  PHE694  ASN695  SER759  ASP760  ASP761  ALA762  ILE779  LEU786  VAL792 
 PHE793  MET794  SER795  GLU796  ALA797  LYS798  CYS799  TRP800  GLU811  SER814 

> <Gold.Protein.RotatedAtoms>
  151.4356  135.1014  159.9654 H   0  0  0  0  0  0  0  0  0  0  0  0  # atno 6907 bound_to 6896
  152.4941  133.8577  159.7244 H   0  0  0  0  0  0  0  0  0  0  0  0  # atno 6908 bound_to 6896
  150.9124  133.6922  159.2879 H   0  0  0  0  0  0  0  0  0  0  0  0  # atno 6909 bound_to 6896
  146.2022  140.3523  142.8419 H   0  0  0  0  0  0  0  0  0  0  0  0  # atno 7974 bound_to 7965
  155.5160  140.0587  157.2915 H   0  0  0  0  0  0  0  0  0  0  0  0  # atno 8008 bound_to 7997
  154.4535  140.1961  156.0396 H   0  0  0  0  0  0  0  0  0  0  0  0  # atno 8009 bound_to 7997
  156.0752  140.3254  155.7628 H   0  0  0  0  0  0  0  0  0  0  0  0  # atno 8010 bound_to 7997
  139.6017  144.7058  151.3047 H   0  0  0  0  0  0  0  0  0  0  0  0  # atno 10167 bound_to 10162
  157.4159  130.7941  149.7471 H   0  0  0  0  0  0  0  0  0  0  0  0  # atno 10718 bound_to 10713
  152.9906  135.6159  154.2801 H   0  0  0  0  0  0  0  0  0  0  0  0  # atno 10763 bound_to 10752
  154.2531  135.2784  155.2810 H   0  0  0  0  0  0  0  0  0  0  0  0  # atno 10764 bound_to 10752
  154.5271  135.5798  153.6785 H   0  0  0  0  0  0  0  0  0  0  0  0  # atno 10765 bound_to 10752
  140.9392  134.1216  157.4166 H   0  0  0  0  0  0  0  0  0  0  0  0  # atno 11005 bound_to 11000
  144.8710  140.7273  143.6047 LP  0  0  0  0  0  0  0  0  0  0  0  0  # atno 17320 bound_to 7965
  145.3443  139.1723  143.4469 LP  0  0  0  0  0  0  0  0  0  0  0  0  # atno 17321 bound_to 7965
  140.7254  143.7017  150.7839 LP  0  0  0  0  0  0  0  0  0  0  0  0  # atno 17342 bound_to 10162
  140.0595  143.5169  152.2634 LP  0  0  0  0  0  0  0  0  0  0  0  0  # atno 17343 bound_to 10162
  155.9865  130.3974  150.3210 LP  0  0  0  0  0  0  0  0  0  0  0  0  # atno 17370 bound_to 10713
  157.1353  131.0282  151.2951 LP  0  0  0  0  0  0  0  0  0  0  0  0  # atno 17371 bound_to 10713
  139.8816  135.0031  156.6166 LP  0  0  0  0  0  0  0  0  0  0  0  0  # atno 17394 bound_to 11000
  140.7757  133.8701  155.8527 LP  0  0  0  0  0  0  0  0  0  0  0  0  # atno 17395 bound_to 11000

$$$$
