AV-unprocessed.smi:1683|AV-procd|sdf|6749|dock8
  -GOLD-   22720 7503D 1   1.00000     0.00000
 Structure written by MMmdl.
 37 38  0  0  0  0  0  0  0  0  2 V2000
  144.4251  136.5730  151.8872 O   0  0  0  0  0  0  0  0  0  0  0  0
  145.6332  136.3628  151.7787 C   0  0  0  0  0  0  0  0  0  0  0  0
  146.5685  137.3003  151.9877 N   0  0  0  0  0  0  0  0  0  0  0  0
  146.2968  138.6887  152.3457 C   0  0  0  0  0  0  0  0  0  0  0  0
  146.9774  139.0977  153.6667 C   0  0  2  0  0  0  0  0  0  0  0  0
  146.8391  140.5810  154.0021 C   0  0  0  0  0  0  0  0  0  0  0  0
  148.0122  140.8732  154.9471 C   0  0  0  0  0  0  0  0  0  0  0  0
  148.9654  139.7447  154.8122 N   0  3  2  0  0  0  0  0  0  0  0  0
  150.3962  140.1250  154.7226 C   0  0  0  0  0  0  0  0  0  0  0  0
  151.3412  138.9508  155.0324 C   0  0  0  0  0  0  0  0  0  0  0  0
  152.5709  139.4231  155.2309 F   0  0  0  0  0  0  0  0  0  0  0  0
  150.9577  138.2969  156.1283 F   0  0  0  0  0  0  0  0  0  0  0  0
  151.3695  138.1042  154.0033 F   0  0  0  0  0  0  0  0  0  0  0  0
  148.4932  138.9015  153.6957 C   0  0  0  0  0  0  0  0  0  0  0  0
  146.1862  135.1848  151.4463 N   0  0  0  0  0  0  0  0  0  0  0  0
  145.5138  133.9724  151.1485 C   0  0  0  0  0  0  0  0  0  0  0  0
  146.1521  132.7140  150.9772 C   0  0  0  0  0  0  0  0  0  0  0  0
  145.2740  131.7593  150.7057 N   0  0  0  0  0  0  0  0  0  0  0  0
  144.0812  132.3961  150.7009 N   0  0  0  0  0  0  0  0  0  0  0  0
  144.1786  133.7444  150.9652 C   0  0  0  0  0  0  0  0  0  0  0  0
  143.2192  131.9025  150.5172 H   0  0  0  0  0  0  0  0  0  0  0  0
  147.5370  137.0399  151.8707 H   0  0  0  0  0  0  0  0  0  0  0  0
  146.6496  139.3209  151.5303 H   0  0  0  0  0  0  0  0  0  0  0  0
  145.2189  138.8465  152.4123 H   0  0  0  0  0  0  0  0  0  0  0  0
  146.5426  138.5272  154.4894 H   0  0  0  0  0  0  0  0  0  0  0  0
  146.9452  141.1808  153.0967 H   0  0  0  0  0  0  0  0  0  0  0  0
  145.8725  140.8215  154.4463 H   0  0  0  0  0  0  0  0  0  0  0  0
  148.4674  141.8328  154.6982 H   0  0  0  0  0  0  0  0  0  0  0  0
  147.6765  140.9247  155.9834 H   0  0  0  0  0  0  0  0  0  0  0  0
  150.5961  140.4641  153.7049 H   0  0  0  0  0  0  0  0  0  0  0  0
  150.6017  140.9741  155.3763 H   0  0  0  0  0  0  0  0  0  0  0  0
  148.7786  137.8583  153.8360 H   0  0  0  0  0  0  0  0  0  0  0  0
  148.9327  139.2503  152.7593 H   0  0  0  0  0  0  0  0  0  0  0  0
  147.1938  135.1511  151.3952 H   0  0  0  0  0  0  0  0  0  0  0  0
  147.2017  132.4666  151.0396 H   0  0  0  0  0  0  0  0  0  0  0  0
  143.3144  134.3913  150.9954 H   0  0  0  0  0  0  0  0  0  0  0  0
  148.8590  139.1822  155.6446 H   0  0  0  0  0  0  0  0  0  0  0  0
  1  2  2  0  0  0  0
  2  3  1  0  0  0  0
  2 15  1  0  0  0  0
  3  4  1  0  0  0  0
  3 22  1  0  0  0  0
  4  5  1  0  0  0  0
  4 23  1  0  0  0  0
  4 24  1  0  0  0  0
  5 14  1  0  0  0  0
  5  6  1  0  0  0  0
  5 25  1  0  0  0  0
  6  7  1  0  0  0  0
  6 26  1  0  0  0  0
  6 27  1  0  0  0  0
  7  8  1  0  0  0  0
  7 28  1  0  0  0  0
  7 29  1  0  0  0  0
  8  9  1  0  0  0  0
  8 14  1  0  0  0  0
  8 37  1  0  0  0  0
  9 10  1  0  0  0  0
  9 30  1  0  0  0  0
  9 31  1  0  0  0  0
 10 11  1  0  0  0  0
 10 12  1  0  0  0  0
 10 13  1  0  0  0  0
 14 32  1  0  0  0  0
 14 33  1  0  0  0  0
 15 16  1  0  0  0  0
 15 34  1  0  0  0  0
 16 20  2  0  0  0  0
 16 17  1  0  0  0  0
 17 18  2  0  0  0  0
 17 35  1  0  0  0  0
 18 19  1  0  0  0  0
 19 21  1  0  0  0  0
 19 20  1  0  0  0  0
 20 36  1  0  0  0  0
M  CHG  1   8   1
M  END
> <s_m_source_file>
AV-unprocessed.smi

> <i_m_source_file_index>
1683

> <i_lp_mmshare_version>
43012

> <i_f3d_flags>
0

> <s_epik_input>
W2NIXTFbbkhdbltjSF1jMVtOSF1DKD1PKVtOSF1bQ0gyXVtDQEBIXTJbQ0gyXVtDSDJdTihbQ0gyXTIpW0NIMl1DKEYpKEYpRg==

> <s_epik_cmdline>
J2VwaWtfcHl0aG9uJywgJy1waCcsICc3LjAnLCAnLXRuJywgJzgnLCAnLW1hJywgJzIwMCcsICctbWV0YWxfYmluZGluZycsICctaW1hZScsICc8aW5maWxlLm1hZT4nLCAnLW9tYWUnLCAnPG91dGZpbGUubWFlPic=

> <r_lp_tautomer_probability>
0.5

> <r_epik_Ionization_Penalty>
0.641865

> <r_epik_Ionization_Penalty_Charging>
0.64182

> <r_epik_Ionization_Penalty_Neutral>
4.50685e-05

> <r_epik_State_Penalty>
0.65957

> <r_epik_Charging_Adjusted_Penalty>
1.30139

> <i_epik_Tot_Q>
1

> <i_epik_Tot_abs_Q>
1

> <r_epik_Metal_State_Penalty>
0.659571

> <b_epik_Metal_Only>
0

> <s_lp_Force_Field>
OPLS_2005

> <r_lp_Energy>
30.3314

> <b_lp_Chiralities_Consistent>
1

> <s_lp_Variant>
AV-unprocessed.smi:1683-3

> <Gold.Version>
5.8.1

> <Gold.Id.Protein>
6NUR|6NUR_protein|mol2

> <Gold.PLP.Fitness>
40.7464

> <Gold.PLP.PLP>
-30.1280

> <Gold.PLP.part.hbond>
-2.0000

> <Gold.PLP.part.metal>
0.0000

> <Gold.PLP.part.buried>
-2.8841

> <Gold.PLP.part.nonpolar>
-28.2119

> <Gold.PLP.part.repulsive>
2.6564

> <Gold.PLP.ligand.clash>
0.0000

> <Gold.PLP.ligand.torsion>
0.3032

> <Gold.PLP.Chemscore.Hbond>
1.8580

> <Gold.PLP.Chemscore.CHOScore>
1.7272

> <Gold.PLP.Chemscore.Metal>
0.0000

> <Gold.Chemscore.Hbonds>
donor molecule, donor type, donor heavy atom, donor atom, acceptor molecule, acceptor atom, score
      L1  H     3    22       P1  7948  1.00
      L1  H    15    34       P1  7948  0.82
      L1  C    17    35       P1 10747  1.00
      L1  C    20    36       P1 10186  0.54

> <Gold.PLP.Chemscore.Internal.Correction>
0.4691

> <Gold.Rescore>
     Score         DG    S(hbond)    S(metal)    S(lipo)     H(rot)  DE(clash)    DE(int)     intcor
     12.13     -13.95       1.85        0.00      59.09       1.81       0.29       1.53       ----

> <Gold.Chemscore.Fitness>
12.1300

> <Gold.Chemscore.DG>
-13.9473

> <Gold.Chemscore.ZeroCoef>
-5.4800

> <Gold.Chemscore.Hbond>
1.8537

> <Gold.Chemscore.Metal>
0.0000

> <Gold.Chemscore.Lipo>
59.0931

> <Gold.Chemscore.Internal_Hbond>
0.0000

> <Gold.Chemscore.DEClash>
0.2882

> <Gold.Chemscore.DEInternal>
1.5291

> <Gold.Chemscore.Rot>
1.8116

> <Gold.Chemscore.Internal.Correction>
   9.000000E+99

> <Gold.Chemscore.Hbonds>
donor molecule, donor type, donor heavy atom, donor atom, acceptor molecule, acceptor atom, score
      L1  H     3    22       P1  7948  0.99
      L1  H    15    34       P1  7948  0.64

> <Gold.Chemscore.Hbond.Weighted>
-6.1912

> <Gold.Chemscore.Metal.Weighted>
-0.0000

> <Gold.Chemscore.Lipo.Weighted>
-6.9139

> <Gold.Chemscore.Internal_Hbond.Weighted>
0.0000

> <Gold.Chemscore.DEClash.Weighted>
0.2882

> <Gold.Chemscore.DEInternal.Weighted>
1.5291

> <Gold.Chemscore.Rot.Weighted>
4.6378

> <Gold.Chemscore.Internal.Correction.Weighted>
   9.000000E+99

> <Gold.Protein.RotatedTorsions>
[ 6907 6896 6895 6894 ] final   53.43 input  -60.11 | X-H torsion
[ 7974 7965 7964 7962 ] final -132.79 input  175.53 | X-H torsion
[ 8008 7997 7996 7995 ] final -145.06 input   59.86 | X-H torsion
[ 10167 10162 10161 10158 ] final   97.68 input  -65.29 | X-H torsion
[ 10718 10713 10712 10709 ] final -172.39 input   66.30 | X-H torsion
[ 10763 10752 10751 10750 ] final   93.21 input  -60.55 | X-H torsion
[ 11005 11000 10999 10996 ] final   86.19 input  -57.11 | X-H torsion

> <Gold.Protein.ActiveResidues>
 VAL166  LYS551  ARG553  GLY616  TRP617  ASP618  TYR619  PRO620  LYS621  CYS622 
 ASP623  PHE694  ASN695  SER759  ASP760  ASP761  ALA762  ILE779  LEU786  VAL792 
 PHE793  MET794  SER795  GLU796  ALA797  LYS798  CYS799  TRP800  GLU811  SER814 

> <Gold.Protein.RotatedAtoms>
  152.3336  134.7228  160.0282 H   0  0  0  0  0  0  0  0  0  0  0  0  # atno 6907 bound_to 6896
  151.7636  133.3330  159.3433 H   0  0  0  0  0  0  0  0  0  0  0  0  # atno 6908 bound_to 6896
  150.7437  134.6015  159.6083 H   0  0  0  0  0  0  0  0  0  0  0  0  # atno 6909 bound_to 6896
  144.9253  140.7063  143.4940 H   0  0  0  0  0  0  0  0  0  0  0  0  # atno 7974 bound_to 7965
  155.5370  140.0604  157.2877 H   0  0  0  0  0  0  0  0  0  0  0  0  # atno 8008 bound_to 7997
  154.4465  140.1926  156.0596 H   0  0  0  0  0  0  0  0  0  0  0  0  # atno 8009 bound_to 7997
  156.0612  140.3272  155.7467 H   0  0  0  0  0  0  0  0  0  0  0  0  # atno 8010 bound_to 7997
  139.7779  144.6899  151.0064 H   0  0  0  0  0  0  0  0  0  0  0  0  # atno 10167 bound_to 10162
  156.7549  130.9392  151.3116 H   0  0  0  0  0  0  0  0  0  0  0  0  # atno 10718 bound_to 10713
  153.2277  135.4334  155.0560 H   0  0  0  0  0  0  0  0  0  0  0  0  # atno 10763 bound_to 10752
  154.8281  135.3372  154.6833 H   0  0  0  0  0  0  0  0  0  0  0  0  # atno 10764 bound_to 10752
  153.7262  135.7014  153.5056 H   0  0  0  0  0  0  0  0  0  0  0  0  # atno 10765 bound_to 10752
  139.8951  134.8338  156.2686 H   0  0  0  0  0  0  0  0  0  0  0  0  # atno 11005 bound_to 11000
  145.3230  139.1782  143.4578 LP  0  0  0  0  0  0  0  0  0  0  0  0  # atno 17320 bound_to 7965
  146.3223  140.3250  142.8636 LP  0  0  0  0  0  0  0  0  0  0  0  0  # atno 17321 bound_to 7965
  140.7817  143.4516  151.0405 LP  0  0  0  0  0  0  0  0  0  0  0  0  # atno 17342 bound_to 10162
  139.8197  143.7837  152.3176 LP  0  0  0  0  0  0  0  0  0  0  0  0  # atno 17343 bound_to 10162
  157.6760  130.9095  150.0153 LP  0  0  0  0  0  0  0  0  0  0  0  0  # atno 17370 bound_to 10713
  156.1377  130.3642  149.9631 LP  0  0  0  0  0  0  0  0  0  0  0  0  # atno 17371 bound_to 10713
  141.0115  133.7092  156.1120 LP  0  0  0  0  0  0  0  0  0  0  0  0  # atno 17394 bound_to 11000
  140.7360  134.4202  157.5560 LP  0  0  0  0  0  0  0  0  0  0  0  0  # atno 17395 bound_to 11000

$$$$
