AV-unprocessed.smi:961|AV-procd|sdf|4274|dock8
  -GOLD-   22720 2183D 1   1.00000     0.00000
 Structure written by MMmdl.
 37 38  0  0  0  0  0  0  0  0  1 V2000
  152.8056  144.6418  157.8825 C   0  0  0  0  0  0  0  0  0  0  0  0
  151.9441  144.3740  159.1324 C   0  0  0  0  0  0  0  0  0  0  0  0
  151.9902  145.5943  160.0731 C   0  0  0  0  0  0  0  0  0  0  0  0
  150.4829  144.1834  158.6717 C   0  0  0  0  0  0  0  0  0  0  0  0
  152.4541  143.1438  159.8564 C   0  0  0  0  0  0  0  0  0  0  0  0
  152.9189  143.0512  161.1487 C   0  0  0  0  0  0  0  0  0  0  0  0
  153.4084  141.4318  161.5628 S   0  0  0  0  0  0  0  0  0  0  0  0
  152.9465  140.9145  159.9489 C   0  0  0  0  0  0  0  0  0  0  0  0
  153.1125  139.5153  159.4607 C   0  0  0  0  0  0  0  0  0  0  0  0
  151.8251  138.9603  158.8306 C   0  0  0  0  0  0  0  0  0  0  0  0
  151.9023  138.9444  157.3745 N   0  0  0  0  0  0  0  0  0  0  0  0
  151.0853  139.6199  156.5522 C   0  0  0  0  0  0  0  0  0  0  0  0
  150.1682  140.3358  156.9572 O   0  0  0  0  0  0  0  0  0  0  0  0
  151.3907  139.4292  155.1025 C   0  0  0  0  0  0  0  0  0  0  0  0
  151.1862  138.0454  154.5199 C   0  0  0  0  0  0  0  0  0  0  0  0
  152.5838  138.5675  154.7411 C   0  0  0  0  0  0  0  0  0  0  0  0
  152.4871  141.9115  159.1894 N   0  0  0  0  0  0  0  0  0  0  0  0
  152.4507  145.5151  157.3342 H   0  0  0  0  0  0  0  0  0  0  0  0
  152.7849  143.7928  157.1981 H   0  0  0  0  0  0  0  0  0  0  0  0
  153.8481  144.8265  158.1440 H   0  0  0  0  0  0  0  0  0  0  0  0
  153.0077  145.8130  160.3988 H   0  0  0  0  0  0  0  0  0  0  0  0
  151.3884  145.4276  160.9672 H   0  0  0  0  0  0  0  0  0  0  0  0
  151.6087  146.4901  159.5817 H   0  0  0  0  0  0  0  0  0  0  0  0
  150.1128  145.0672  158.1508 H   0  0  0  0  0  0  0  0  0  0  0  0
  149.8165  144.0043  159.5166 H   0  0  0  0  0  0  0  0  0  0  0  0
  150.3849  143.3404  157.9866 H   0  0  0  0  0  0  0  0  0  0  0  0
  153.0073  143.8350  161.8860 H   0  0  0  0  0  0  0  0  0  0  0  0
  153.9286  139.4997  158.7375 H   0  0  0  0  0  0  0  0  0  0  0  0
  153.4243  138.8865  160.2960 H   0  0  0  0  0  0  0  0  0  0  0  0
  151.6558  137.9389  159.1722 H   0  0  0  0  0  0  0  0  0  0  0  0
  150.9601  139.5430  159.1523 H   0  0  0  0  0  0  0  0  0  0  0  0
  152.6302  138.3790  156.9620 H   0  0  0  0  0  0  0  0  0  0  0  0
  151.1795  140.2718  154.4454 H   0  0  0  0  0  0  0  0  0  0  0  0
  150.8396  137.2499  155.1777 H   0  0  0  0  0  0  0  0  0  0  0  0
  150.8159  137.9905  153.4984 H   0  0  0  0  0  0  0  0  0  0  0  0
  153.1618  138.8666  153.8691 H   0  0  0  0  0  0  0  0  0  0  0  0
  153.1643  138.1169  155.5445 H   0  0  0  0  0  0  0  0  0  0  0  0
  1  2  1  0  0  0  0
  1 18  1  0  0  0  0
  1 19  1  0  0  0  0
  1 20  1  0  0  0  0
  2  3  1  0  0  0  0
  2  4  1  0  0  0  0
  2  5  1  0  0  0  0
  3 21  1  0  0  0  0
  3 22  1  0  0  0  0
  3 23  1  0  0  0  0
  4 24  1  0  0  0  0
  4 25  1  0  0  0  0
  4 26  1  0  0  0  0
  5 17  1  0  0  0  0
  5  6  2  0  0  0  0
  6  7  1  0  0  0  0
  6 27  1  0  0  0  0
  7  8  1  0  0  0  0
  8  9  1  0  0  0  0
  8 17  2  0  0  0  0
  9 10  1  0  0  0  0
  9 28  1  0  0  0  0
  9 29  1  0  0  0  0
 10 11  1  0  0  0  0
 10 30  1  0  0  0  0
 10 31  1  0  0  0  0
 11 12  1  0  0  0  0
 11 32  1  0  0  0  0
 12 13  2  0  0  0  0
 12 14  1  0  0  0  0
 14 16  1  0  0  0  0
 14 15  1  0  0  0  0
 14 33  1  0  0  0  0
 15 16  1  0  0  0  0
 15 34  1  0  0  0  0
 15 35  1  0  0  0  0
 16 36  1  0  0  0  0
 16 37  1  0  0  0  0
M  END
> <s_m_source_file>
AV-unprocessed.smi

> <i_m_source_file_index>
961

> <i_lp_mmshare_version>
43012

> <i_f3d_flags>
0

> <s_epik_input>
W0NIM11DKFtDSDNdKShbQ0gzXSljMVtjSF1zYyhuMSlbQ0gyXVtDSDJdW05IXUMoPU8pW0NIXTJbQ0gyXVtDSDJdMg==

> <s_epik_cmdline>
J2VwaWtfcHl0aG9uJywgJy1waCcsICc3LjAnLCAnLXRuJywgJzgnLCAnLW1hJywgJzIwMCcsICctbWV0YWxfYmluZGluZycsICctaW1hZScsICc8aW5maWxlLm1hZT4nLCAnLW9tYWUnLCAnPG91dGZpbGUubWFlPic=

> <r_epik_Ionization_Penalty>
0.000842111

> <r_epik_Ionization_Penalty_Charging>
0

> <r_epik_Ionization_Penalty_Neutral>
0.000842111

> <r_epik_State_Penalty>
0.000542609

> <r_epik_Charging_Adjusted_Penalty>
0.000542609

> <i_epik_Tot_Q>
0

> <i_epik_Tot_abs_Q>
0

> <r_epik_Metal_State_Penalty>
-0

> <b_epik_Metal_Only>
0

> <s_lp_Force_Field>
OPLS_2005

> <r_lp_Energy>
-3.24501

> <b_lp_Chiralities_Consistent>
1

> <s_lp_Variant>
AV-unprocessed.smi:961-1

> <Gold.Version>
5.8.1

> <Gold.Id.Protein>
6NUR|6NUR_protein|mol2

> <Gold.PLP.Fitness>
44.4185

> <Gold.PLP.PLP>
-45.2971

> <Gold.PLP.part.hbond>
0.0000

> <Gold.PLP.part.metal>
0.0000

> <Gold.PLP.part.buried>
-4.5219

> <Gold.PLP.part.nonpolar>
-40.1941

> <Gold.PLP.part.repulsive>
0.0833

> <Gold.PLP.ligand.clash>
0.1425

> <Gold.PLP.ligand.torsion>
0.4178

> <Gold.PLP.Chemscore.Hbond>
0.0000

> <Gold.PLP.Chemscore.CHOScore>
0.0000

> <Gold.PLP.Chemscore.Metal>
0.0000

> <Gold.PLP.Chemscore.Internal.Correction>
0.0994

> <Gold.Rescore>
     Score         DG    S(hbond)    S(metal)    S(lipo)     H(rot)  DE(clash)    DE(int)     intcor
     16.38     -16.82       0.00        0.00     130.52       1.54       0.01       0.43       ----

> <Gold.Chemscore.Fitness>
16.3792

> <Gold.Chemscore.DG>
-16.8171

> <Gold.Chemscore.ZeroCoef>
-5.4800

> <Gold.Chemscore.Hbond>
0.0000

> <Gold.Chemscore.Metal>
0.0000

> <Gold.Chemscore.Lipo>
130.5161

> <Gold.Chemscore.Internal_Hbond>
0.0000

> <Gold.Chemscore.DEClash>
0.0079

> <Gold.Chemscore.DEInternal>
0.4300

> <Gold.Chemscore.Rot>
1.5364

> <Gold.Chemscore.Internal.Correction>
   9.000000E+99

> <Gold.Chemscore.Hbond.Weighted>
-0.0000

> <Gold.Chemscore.Metal.Weighted>
-0.0000

> <Gold.Chemscore.Lipo.Weighted>
-15.2704

> <Gold.Chemscore.Internal_Hbond.Weighted>
0.0000

> <Gold.Chemscore.DEClash.Weighted>
0.0079

> <Gold.Chemscore.DEInternal.Weighted>
0.4300

> <Gold.Chemscore.Rot.Weighted>
3.9332

> <Gold.Chemscore.Internal.Correction.Weighted>
   9.000000E+99

> <Gold.Protein.RotatedTorsions>
[ 6907 6896 6895 6894 ] final  144.27 input  -60.11 | X-H torsion
[ 7974 7965 7964 7962 ] final -112.52 input  175.53 | X-H torsion
[ 8008 7997 7996 7995 ] final -164.97 input   59.86 | X-H torsion
[ 10167 10162 10161 10158 ] final  -47.31 input  -65.29 | X-H torsion
[ 10718 10713 10712 10709 ] final   50.60 input   66.30 | X-H torsion
[ 10763 10752 10751 10750 ] final  -21.15 input  -60.55 | X-H torsion
[ 11005 11000 10999 10996 ] final  103.64 input  -57.11 | X-H torsion

> <Gold.Protein.ActiveResidues>
 VAL166  LYS551  ARG553  GLY616  TRP617  ASP618  TYR619  PRO620  LYS621  CYS622 
 ASP623  PHE694  ASN695  SER759  ASP760  ASP761  ALA762  ILE779  LEU786  VAL792 
 PHE793  MET794  SER795  GLU796  ALA797  LYS798  CYS799  TRP800  GLU811  SER814 

> <Gold.Protein.RotatedAtoms>
  152.1958  133.4805  159.5031 H   0  0  0  0  0  0  0  0  0  0  0  0  # atno 6907 bound_to 6896
  150.6960  134.1654  159.4201 H   0  0  0  0  0  0  0  0  0  0  0  0  # atno 6908 bound_to 6896
  151.9570  135.0142  160.0596 H   0  0  0  0  0  0  0  0  0  0  0  0  # atno 6909 bound_to 6896
  145.1430  140.8788  143.3691 H   0  0  0  0  0  0  0  0  0  0  0  0  # atno 7974 bound_to 7965
  155.8432  140.0951  157.1721 H   0  0  0  0  0  0  0  0  0  0  0  0  # atno 8008 bound_to 7997
  154.3982  140.1397  156.3815 H   0  0  0  0  0  0  0  0  0  0  0  0  # atno 8009 bound_to 7997
  155.8042  140.3452  155.5422 H   0  0  0  0  0  0  0  0  0  0  0  0  # atno 8010 bound_to 7997
  140.6780  143.2790  151.3909 H   0  0  0  0  0  0  0  0  0  0  0  0  # atno 10167 bound_to 10162
  157.4900  130.8370  149.8192 H   0  0  0  0  0  0  0  0  0  0  0  0  # atno 10718 bound_to 10713
  153.6316  135.6989  153.5273 H   0  0  0  0  0  0  0  0  0  0  0  0  # atno 10763 bound_to 10752
  153.2855  135.4173  155.1118 H   0  0  0  0  0  0  0  0  0  0  0  0  # atno 10764 bound_to 10752
  154.8520  135.3612  154.5859 H   0  0  0  0  0  0  0  0  0  0  0  0  # atno 10765 bound_to 10752
  139.8785  134.9270  156.5240 H   0  0  0  0  0  0  0  0  0  0  0  0  # atno 11005 bound_to 11000
  145.0512  139.3180  143.5928 LP  0  0  0  0  0  0  0  0  0  0  0  0  # atno 17320 bound_to 7965
  146.3503  139.9920  142.8684 LP  0  0  0  0  0  0  0  0  0  0  0  0  # atno 17321 bound_to 7965
  139.6084  144.1148  152.2273 LP  0  0  0  0  0  0  0  0  0  0  0  0  # atno 17342 bound_to 10162
  140.0555  144.5899  150.7303 LP  0  0  0  0  0  0  0  0  0  0  0  0  # atno 17343 bound_to 10162
  156.0168  130.3810  150.2085 LP  0  0  0  0  0  0  0  0  0  0  0  0  # atno 17370 bound_to 10713
  157.0274  130.9997  151.3322 LP  0  0  0  0  0  0  0  0  0  0  0  0  # atno 17371 bound_to 10713
  140.8430  133.8191  155.9093 LP  0  0  0  0  0  0  0  0  0  0  0  0  # atno 17394 bound_to 11000
  140.9219  134.2131  157.4921 LP  0  0  0  0  0  0  0  0  0  0  0  0  # atno 17395 bound_to 11000

$$$$
