AV-unprocessed.smi:3086|AV-procd|sdf|11765|dock9
  -GOLD-   2272017143D 1   1.00000     0.00000
 Structure written by MMmdl.
 30 31  0  0  0  0  0  0  0  0  2 V2000
  153.0141  138.2551  154.5703 C   0  0  0  0  0  0  0  0  0  0  0  0
  152.2101  139.3009  155.2642 C   0  0  0  0  0  0  0  0  0  0  0  0
  152.5489  139.8115  156.4828 N   0  0  0  0  0  0  0  0  0  0  0  0
  151.5602  140.6815  156.6578 C   0  0  0  0  0  0  0  0  0  0  0  0
  151.4304  141.5738  157.8494 C   0  0  0  0  0  0  0  0  0  0  0  0
  150.6805  140.6846  155.6444 N   0  0  0  0  0  0  0  0  0  0  0  0
  149.4975  141.5073  155.4134 C   0  0  1  0  0  0  0  0  0  0  0  0
  148.7869  141.0915  154.1113 C   0  0  0  0  0  0  0  0  0  0  0  0
  147.5381  141.9567  153.8819 C   0  0  0  0  0  0  0  0  0  0  0  0
  146.6046  141.9121  155.1034 C   0  0  0  0  0  0  0  0  0  0  0  0
  147.3268  142.3135  156.3305 N   0  3  0  0  0  0  0  0  0  0  0  0
  148.5109  141.4699  156.6033 C   0  0  0  0  0  0  0  0  0  0  0  0
  151.1071  139.7984  154.7111 N   0  0  0  0  0  0  0  0  0  0  0  0
  153.9208  138.0289  155.1324 H   0  0  0  0  0  0  0  0  0  0  0  0
  153.3019  138.5971  153.5758 H   0  0  0  0  0  0  0  0  0  0  0  0
  152.4339  137.3377  154.4684 H   0  0  0  0  0  0  0  0  0  0  0  0
  152.3194  141.5031  158.4770 H   0  0  0  0  0  0  0  0  0  0  0  0
  150.5630  141.2833  158.4424 H   0  0  0  0  0  0  0  0  0  0  0  0
  151.3134  142.6110  157.5348 H   0  0  0  0  0  0  0  0  0  0  0  0
  149.8338  142.5390  155.3024 H   0  0  0  0  0  0  0  0  0  0  0  0
  149.4657  141.1871  153.2628 H   0  0  0  0  0  0  0  0  0  0  0  0
  148.4984  140.0404  154.1619 H   0  0  0  0  0  0  0  0  0  0  0  0
  147.8380  142.9871  153.6864 H   0  0  0  0  0  0  0  0  0  0  0  0
  147.0070  141.6157  152.9928 H   0  0  0  0  0  0  0  0  0  0  0  0
  145.7550  142.5791  154.9552 H   0  0  0  0  0  0  0  0  0  0  0  0
  146.2022  140.9070  155.2362 H   0  0  0  0  0  0  0  0  0  0  0  0
  147.6309  143.2710  156.2266 H   0  0  0  0  0  0  0  0  0  0  0  0
  148.1699  140.4528  156.8021 H   0  0  0  0  0  0  0  0  0  0  0  0
  148.9968  141.8272  157.5118 H   0  0  0  0  0  0  0  0  0  0  0  0
  146.6950  142.2554  157.1167 H   0  0  0  0  0  0  0  0  0  0  0  0
  1  2  1  0  0  0  0
  1 14  1  0  0  0  0
  1 15  1  0  0  0  0
  1 16  1  0  0  0  0
  2 13  2  0  0  0  0
  2  3  1  0  0  0  0
  3  4  2  0  0  0  0
  4  5  1  0  0  0  0
  4  6  1  0  0  0  0
  5 17  1  0  0  0  0
  5 18  1  0  0  0  0
  5 19  1  0  0  0  0
  6  7  1  0  0  0  0
  6 13  1  0  0  0  0
  7 12  1  0  0  0  0
  7  8  1  0  0  0  0
  7 20  1  0  0  0  0
  8  9  1  0  0  0  0
  8 21  1  0  0  0  0
  8 22  1  0  0  0  0
  9 10  1  0  0  0  0
  9 23  1  0  0  0  0
  9 24  1  0  0  0  0
 10 11  1  0  0  0  0
 10 25  1  0  0  0  0
 10 26  1  0  0  0  0
 11 12  1  0  0  0  0
 11 27  1  0  0  0  0
 11 30  1  0  0  0  0
 12 28  1  0  0  0  0
 12 29  1  0  0  0  0
M  CHG  1  11   1
M  END
> <s_m_source_file>
AV-unprocessed.smi

> <i_m_source_file_index>
3086

> <i_lp_mmshare_version>
43012

> <i_f3d_flags>
0

> <s_epik_input>
W0NIM11jMW5jKFtDSDNdKW4objEpW0NAQEhdMltDSDJdW0NIMl1bQ0gyXVtOSF1bQ0gyXTI=

> <s_epik_cmdline>
J2VwaWtfcHl0aG9uJywgJy1waCcsICc3LjAnLCAnLXRuJywgJzgnLCAnLW1hJywgJzIwMCcsICctbWV0YWxfYmluZGluZycsICctaW1hZScsICc8aW5maWxlLm1hZT4nLCAnLW9tYWUnLCAnPG91dGZpbGUubWFlPic=

> <r_lp_tautomer_probability>
1

> <r_epik_Ionization_Penalty>
0.000522417

> <r_epik_Ionization_Penalty_Charging>
0.000474443

> <r_epik_Ionization_Penalty_Neutral>
4.79736e-05

> <r_epik_State_Penalty>
-0

> <r_epik_Charging_Adjusted_Penalty>
0.000474443

> <i_epik_Tot_Q>
1

> <i_epik_Tot_abs_Q>
1

> <r_epik_Metal_State_Penalty>
-0

> <b_epik_Metal_Only>
0

> <s_lp_Force_Field>
OPLS_2005

> <r_lp_Energy>
16.4369

> <b_lp_Chiralities_Consistent>
1

> <s_lp_Variant>
AV-unprocessed.smi:3086-2

> <Gold.Version>
5.8.1

> <Gold.Id.Protein>
6NUR|6NUR_protein|mol2

> <Gold.PLP.Fitness>
38.1048

> <Gold.PLP.PLP>
-28.3566

> <Gold.PLP.part.hbond>
-3.0000

> <Gold.PLP.part.metal>
0.0000

> <Gold.PLP.part.buried>
-1.5160

> <Gold.PLP.part.nonpolar>
-23.4227

> <Gold.PLP.part.repulsive>
0.0811

> <Gold.PLP.ligand.clash>
0.0000

> <Gold.PLP.ligand.torsion>
0.0965

> <Gold.PLP.Chemscore.Hbond>
3.3000

> <Gold.PLP.Chemscore.CHOScore>
0.0000

> <Gold.PLP.Chemscore.Metal>
0.0000

> <Gold.Chemscore.Hbonds>
donor molecule, donor type, donor heavy atom, donor atom, acceptor molecule, acceptor atom, score
      L1  H    11    27       P1  8028  1.20
      P1  H  7989  7998       L1    13  1.00
      P1  H  7997  8009       L1     3  1.00

> <Gold.PLP.Chemscore.Internal.Correction>
0.0412

> <Gold.Rescore>
     Score         DG    S(hbond)    S(metal)    S(lipo)     H(rot)  DE(clash)    DE(int)     intcor
     11.79     -11.94       1.08        0.00      46.30       1.00       0.08       0.07       ----

> <Gold.Chemscore.Fitness>
11.7882

> <Gold.Chemscore.DG>
-11.9355

> <Gold.Chemscore.ZeroCoef>
-5.4800

> <Gold.Chemscore.Hbond>
1.0773

> <Gold.Chemscore.Metal>
0.0000

> <Gold.Chemscore.Lipo>
46.3032

> <Gold.Chemscore.Internal_Hbond>
0.0000

> <Gold.Chemscore.DEClash>
0.0780

> <Gold.Chemscore.DEInternal>
0.0693

> <Gold.Chemscore.Rot>
1.0000

> <Gold.Chemscore.Internal.Correction>
   9.000000E+99

> <Gold.Chemscore.Hbonds>
donor molecule, donor type, donor heavy atom, donor atom, acceptor molecule, acceptor atom, score
      L1  H    11    27       P1  8028  0.04
      P1  H  7989  7998       L1    13  0.17
      P1  H  7997  8009       L1     3  0.40

> <Gold.Chemscore.Hbond.Weighted>
-3.5981

> <Gold.Chemscore.Metal.Weighted>
-0.0000

> <Gold.Chemscore.Lipo.Weighted>
-5.4175

> <Gold.Chemscore.Internal_Hbond.Weighted>
0.0000

> <Gold.Chemscore.DEClash.Weighted>
0.0780

> <Gold.Chemscore.DEInternal.Weighted>
0.0693

> <Gold.Chemscore.Rot.Weighted>
2.5600

> <Gold.Chemscore.Internal.Correction.Weighted>
   9.000000E+99

> <Gold.Protein.RotatedTorsions>
[ 6907 6896 6895 6894 ] final -148.59 input  -60.11 | X-H torsion
[ 7974 7965 7964 7962 ] final -100.08 input  175.53 | X-H torsion
[ 8008 7997 7996 7995 ] final -159.27 input   59.86 | X-H torsion
[ 10167 10162 10161 10158 ] final -152.86 input  -65.29 | X-H torsion
[ 10718 10713 10712 10709 ] final  -29.51 input   66.30 | X-H torsion
[ 10763 10752 10751 10750 ] final  -41.85 input  -60.55 | X-H torsion
[ 11005 11000 10999 10996 ] final -141.23 input  -57.11 | X-H torsion

> <Gold.Protein.ActiveResidues>
 VAL166  LYS551  ARG553  GLY616  TRP617  ASP618  TYR619  PRO620  LYS621  CYS622 
 ASP623  PHE694  ASN695  SER759  ASP760  ASP761  ALA762  ILE779  LEU786  VAL792 
 PHE793  MET794  SER795  GLU796  ALA797  LYS798  CYS799  TRP800  GLU811  SER814 

> <Gold.Protein.RotatedAtoms>
  151.1721  133.4778  159.2593 H   0  0  0  0  0  0  0  0  0  0  0  0  # atno 6907 bound_to 6896
  151.1346  135.0148  159.8608 H   0  0  0  0  0  0  0  0  0  0  0  0  # atno 6908 bound_to 6896
  152.5461  134.1620  159.8615 H   0  0  0  0  0  0  0  0  0  0  0  0  # atno 6909 bound_to 6896
  145.2992  140.9373  143.2833 H   0  0  0  0  0  0  0  0  0  0  0  0  # atno 7974 bound_to 7965
  155.7600  140.0838  157.2160 H   0  0  0  0  0  0  0  0  0  0  0  0  # atno 8008 bound_to 7997
  154.4004  140.1544  156.2878 H   0  0  0  0  0  0  0  0  0  0  0  0  # atno 8009 bound_to 7997
  155.8849  140.3418  155.5917 H   0  0  0  0  0  0  0  0  0  0  0  0  # atno 8010 bound_to 7997
  139.7145  143.9055  152.2481 H   0  0  0  0  0  0  0  0  0  0  0  0  # atno 10167 bound_to 10162
  156.4115  130.4409  149.7248 H   0  0  0  0  0  0  0  0  0  0  0  0  # atno 10718 bound_to 10713
  153.9693  135.6730  153.4746 H   0  0  0  0  0  0  0  0  0  0  0  0  # atno 10763 bound_to 10752
  153.0800  135.4928  154.8481 H   0  0  0  0  0  0  0  0  0  0  0  0  # atno 10764 bound_to 10752
  154.7228  135.3121  154.8980 H   0  0  0  0  0  0  0  0  0  0  0  0  # atno 10765 bound_to 10752
  140.8345  134.2477  157.4841 H   0  0  0  0  0  0  0  0  0  0  0  0  # atno 11005 bound_to 11000
  144.9108  139.4531  143.6588 LP  0  0  0  0  0  0  0  0  0  0  0  0  # atno 17320 bound_to 7965
  146.3158  139.7915  142.8984 LP  0  0  0  0  0  0  0  0  0  0  0  0  # atno 17321 bound_to 7965
  139.8933  144.6953  150.8746 LP  0  0  0  0  0  0  0  0  0  0  0  0  # atno 17342 bound_to 10162
  140.7741  143.3569  151.1903 LP  0  0  0  0  0  0  0  0  0  0  0  0  # atno 17343 bound_to 10162
  156.4225  130.7776  151.2793 LP  0  0  0  0  0  0  0  0  0  0  0  0  # atno 17370 bound_to 10713
  157.7507  131.0178  150.3602 LP  0  0  0  0  0  0  0  0  0  0  0  0  # atno 17371 bound_to 10713
  139.8704  134.9603  156.4360 LP  0  0  0  0  0  0  0  0  0  0  0  0  # atno 17394 bound_to 11000
  140.8962  133.7812  155.9628 LP  0  0  0  0  0  0  0  0  0  0  0  0  # atno 17395 bound_to 11000

$$$$
