AV-unprocessed.smi:873|AV-procd|sdf|4016|dock2
  -GOLD-   22720 1503D 1   1.00000     0.00000
 Structure written by MMmdl.
 45 48  0  0  0  0  0  0  0  0  1 V2000
  149.2701  135.0101  156.1103 O   0  0  0  0  0  0  0  0  0  0  0  0
  149.1946  135.3083  154.9190 C   0  0  0  0  0  0  0  0  0  0  0  0
  149.5687  136.4825  154.3825 N   0  0  0  0  0  0  0  0  0  0  0  0
  150.1703  137.6037  155.0162 C   0  0  0  0  0  0  0  0  0  0  0  0
  150.5641  138.8028  154.3710 C   0  0  0  0  0  0  0  0  0  0  0  0
  151.1156  139.8284  155.0557 N   0  0  0  0  0  0  0  0  0  0  0  0
  151.2626  139.6696  156.3738 C   0  0  0  0  0  0  0  0  0  0  0  0
  151.9082  140.7964  157.1191 C   0  0  0  0  0  0  0  0  0  0  0  0
  152.3244  140.6322  158.5669 C   0  0  0  0  0  0  0  0  0  0  0  0
  151.1642  141.5233  158.2211 C   0  0  0  0  0  0  0  0  0  0  0  0
  150.9374  138.5875  157.0859 N   0  0  0  0  0  0  0  0  0  0  0  0
  150.3854  137.5574  156.4097 C   0  0  0  0  0  0  0  0  0  0  0  0
  148.7065  134.4848  153.9807 N   0  0  0  0  0  0  0  0  0  0  0  0
  148.2082  133.1337  154.2211 C   0  0  0  0  0  0  0  0  0  0  0  0
  149.0776  132.0880  153.5000 C   0  0  0  0  0  0  0  0  0  0  0  0
  148.4670  130.6810  153.6250 C   0  0  0  0  0  0  0  0  0  0  0  0
  147.1125  130.6651  153.0719 N   0  0  0  0  0  0  0  0  0  0  0  0
  146.5815  129.3152  153.1687 C   0  0  0  0  0  0  0  0  0  0  0  0
  146.9897  128.3236  152.1031 C   0  0  0  0  0  0  0  0  0  0  0  0
  145.5857  128.8780  152.1186 C   0  0  0  0  0  0  0  0  0  0  0  0
  146.2520  131.5664  153.8381 C   0  0  0  0  0  0  0  0  0  0  0  0
  146.7604  133.0141  153.7201 C   0  0  0  0  0  0  0  0  0  0  0  0
  149.3890  136.5930  153.3953 H   0  0  0  0  0  0  0  0  0  0  0  0
  150.4382  138.9724  153.3138 H   0  0  0  0  0  0  0  0  0  0  0  0
  152.5535  141.3834  156.4683 H   0  0  0  0  0  0  0  0  0  0  0  0
  152.0996  139.6867  159.0567 H   0  0  0  0  0  0  0  0  0  0  0  0
  153.2498  141.1107  158.8803 H   0  0  0  0  0  0  0  0  0  0  0  0
  151.3125  142.5980  158.3001 H   0  0  0  0  0  0  0  0  0  0  0  0
  150.1686  141.1699  158.4822 H   0  0  0  0  0  0  0  0  0  0  0  0
  150.1140  136.6870  156.9889 H   0  0  0  0  0  0  0  0  0  0  0  0
  148.6797  134.8143  153.0270 H   0  0  0  0  0  0  0  0  0  0  0  0
  148.2189  132.9300  155.2937 H   0  0  0  0  0  0  0  0  0  0  0  0
  149.1764  132.3473  152.4447 H   0  0  0  0  0  0  0  0  0  0  0  0
  150.0868  132.0865  153.9134 H   0  0  0  0  0  0  0  0  0  0  0  0
  149.0885  129.9664  153.0841 H   0  0  0  0  0  0  0  0  0  0  0  0
  148.4518  130.3661  154.6700 H   0  0  0  0  0  0  0  0  0  0  0  0
  146.4245  128.8905  154.1591 H   0  0  0  0  0  0  0  0  0  0  0  0
  147.6554  128.6672  151.3134 H   0  0  0  0  0  0  0  0  0  0  0  0
  147.1245  127.2878  152.4077 H   0  0  0  0  0  0  0  0  0  0  0  0
  144.7850  128.2122  152.4343 H   0  0  0  0  0  0  0  0  0  0  0  0
  145.3195  129.5899  151.3392 H   0  0  0  0  0  0  0  0  0  0  0  0
  145.2322  131.5081  153.4557 H   0  0  0  0  0  0  0  0  0  0  0  0
  146.2197  131.2593  154.8849 H   0  0  0  0  0  0  0  0  0  0  0  0
  146.1114  133.6800  154.2895 H   0  0  0  0  0  0  0  0  0  0  0  0
  146.6962  133.3346  152.6789 H   0  0  0  0  0  0  0  0  0  0  0  0
  1  2  2  0  0  0  0
  2  3  1  0  0  0  0
  2 13  1  0  0  0  0
  3  4  1  0  0  0  0
  3 23  1  0  0  0  0
  4 12  1  0  0  0  0
  4  5  2  0  0  0  0
  5  6  1  0  0  0  0
  5 24  1  0  0  0  0
  6  7  2  0  0  0  0
  7  8  1  0  0  0  0
  7 11  1  0  0  0  0
  8 10  1  0  0  0  0
  8  9  1  0  0  0  0
  8 25  1  0  0  0  0
  9 10  1  0  0  0  0
  9 26  1  0  0  0  0
  9 27  1  0  0  0  0
 10 28  1  0  0  0  0
 10 29  1  0  0  0  0
 11 12  2  0  0  0  0
 12 30  1  0  0  0  0
 13 14  1  0  0  0  0
 13 31  1  0  0  0  0
 14 22  1  0  0  0  0
 14 15  1  0  0  0  0
 14 32  1  0  0  0  0
 15 16  1  0  0  0  0
 15 33  1  0  0  0  0
 15 34  1  0  0  0  0
 16 17  1  0  0  0  0
 16 35  1  0  0  0  0
 16 36  1  0  0  0  0
 17 18  1  0  0  0  0
 17 21  1  0  0  0  0
 18 20  1  0  0  0  0
 18 19  1  0  0  0  0
 18 37  1  0  0  0  0
 19 20  1  0  0  0  0
 19 38  1  0  0  0  0
 19 39  1  0  0  0  0
 20 40  1  0  0  0  0
 20 41  1  0  0  0  0
 21 22  1  0  0  0  0
 21 42  1  0  0  0  0
 21 43  1  0  0  0  0
 22 44  1  0  0  0  0
 22 45  1  0  0  0  0
M  END
> <s_m_source_file>
AV-unprocessed.smi

> <i_m_source_file_index>
873

> <i_lp_mmshare_version>
43012

> <i_f3d_flags>
0

> <s_epik_input>
W0NIMl0xW0NIMl1bQ0hdMU4oW0NIMl1bQ0gyXTIpW0NIMl1bQ0gyXVtDSF0yW05IXUMoPU8pW05IXWMzW2NIXW5jKG5bY0hdMylbQ0hdNFtDSDJdW0NIMl00

> <s_epik_cmdline>
J2VwaWtfcHl0aG9uJywgJy1waCcsICc3LjAnLCAnLXRuJywgJzgnLCAnLW1hJywgJzIwMCcsICctbWV0YWxfYmluZGluZycsICctaW1hZScsICc8aW5maWxlLm1hZT4nLCAnLW9tYWUnLCAnPG91dGZpbGUubWFlPic=

> <r_lp_tautomer_probability>
1

> <r_epik_Ionization_Penalty>
0.990889

> <r_epik_Ionization_Penalty_Charging>
0

> <r_epik_Ionization_Penalty_Neutral>
0.990889

> <r_epik_State_Penalty>
1.03856

> <r_epik_Charging_Adjusted_Penalty>
1.03856

> <i_epik_Tot_Q>
0

> <i_epik_Tot_abs_Q>
0

> <r_epik_Metal_State_Penalty>
1.03856

> <b_epik_Metal_Only>
0

> <s_lp_Force_Field>
OPLS_2005

> <r_lp_Energy>
20.0784

> <b_lp_Chiralities_Consistent>
1

> <s_lp_Variant>
AV-unprocessed.smi:873-3

> <Gold.Version>
5.8.1

> <Gold.Id.Protein>
6NUR|6NUR_protein|mol2

> <Gold.PLP.Fitness>
44.8762

> <Gold.PLP.PLP>
-33.5244

> <Gold.PLP.part.hbond>
-3.0305

> <Gold.PLP.part.metal>
0.0000

> <Gold.PLP.part.buried>
-5.1709

> <Gold.PLP.part.nonpolar>
-25.1131

> <Gold.PLP.part.repulsive>
0.2225

> <Gold.PLP.ligand.clash>
0.0000

> <Gold.PLP.ligand.torsion>
0.6814

> <Gold.PLP.Chemscore.Hbond>
2.8100

> <Gold.PLP.Chemscore.CHOScore>
1.0000

> <Gold.PLP.Chemscore.Metal>
0.0000

> <Gold.Chemscore.Hbonds>
donor molecule, donor type, donor heavy atom, donor atom, acceptor molecule, acceptor atom, score
      L1  H     3    23       P1  7948  1.00
      L1  H    13    31       P1  7948  0.96
      P1  H  7989  7998       L1     6  0.80
      L1  C     5    24       P1  7957  1.00

> <Gold.PLP.Chemscore.Internal.Correction>
1.2845

> <Gold.Rescore>
     Score         DG    S(hbond)    S(metal)    S(lipo)     H(rot)  DE(clash)    DE(int)     intcor
     16.46     -18.63       2.12        0.00      81.02       1.33       0.09       2.08       ----

> <Gold.Chemscore.Fitness>
16.4570

> <Gold.Chemscore.DG>
-18.6303

> <Gold.Chemscore.ZeroCoef>
-5.4800

> <Gold.Chemscore.Hbond>
2.1193

> <Gold.Chemscore.Metal>
0.0000

> <Gold.Chemscore.Lipo>
81.0203

> <Gold.Chemscore.Internal_Hbond>
0.0000

> <Gold.Chemscore.DEClash>
0.0937

> <Gold.Chemscore.DEInternal>
2.0797

> <Gold.Chemscore.Rot>
1.3310

> <Gold.Chemscore.Internal.Correction>
   9.000000E+99

> <Gold.Chemscore.Hbonds>
donor molecule, donor type, donor heavy atom, donor atom, acceptor molecule, acceptor atom, score
      L1  H     3    23       P1  7948  0.84
      L1  H    13    31       P1  7948  0.28
      P1  H  7989  7998       L1     6  0.12

> <Gold.Chemscore.Hbond.Weighted>
-7.0784

> <Gold.Chemscore.Metal.Weighted>
-0.0000

> <Gold.Chemscore.Lipo.Weighted>
-9.4794

> <Gold.Chemscore.Internal_Hbond.Weighted>
0.0000

> <Gold.Chemscore.DEClash.Weighted>
0.0937

> <Gold.Chemscore.DEInternal.Weighted>
2.0797

> <Gold.Chemscore.Rot.Weighted>
3.4075

> <Gold.Chemscore.Internal.Correction.Weighted>
   9.000000E+99

> <Gold.Protein.RotatedTorsions>
[ 6907 6896 6895 6894 ] final  -37.03 input  -60.11 | X-H torsion
[ 7974 7965 7964 7962 ] final  -72.87 input  175.53 | X-H torsion
[ 8008 7997 7996 7995 ] final   43.26 input   59.86 | X-H torsion
[ 10167 10162 10161 10158 ] final  -91.32 input  -65.29 | X-H torsion
[ 10718 10713 10712 10709 ] final   51.83 input   66.30 | X-H torsion
[ 10763 10752 10751 10750 ] final   86.99 input  -60.55 | X-H torsion
[ 11005 11000 10999 10996 ] final  171.22 input  -57.11 | X-H torsion

> <Gold.Protein.ActiveResidues>
 VAL166  LYS551  ARG553  GLY616  TRP617  ASP618  TYR619  PRO620  LYS621  CYS622 
 ASP623  PHE694  ASN695  SER759  ASP760  ASP761  ALA762  ILE779  LEU786  VAL792 
 PHE793  MET794  SER795  GLU796  ALA797  LYS798  CYS799  TRP800  GLU811  SER814 

> <Gold.Protein.RotatedAtoms>
  151.0197  134.9460  159.8052 H   0  0  0  0  0  0  0  0  0  0  0  0  # atno 6907 bound_to 6896
  152.5322  134.2920  159.9056 H   0  0  0  0  0  0  0  0  0  0  0  0  # atno 6908 bound_to 6896
  151.2927  133.4116  159.2668 H   0  0  0  0  0  0  0  0  0  0  0  0  # atno 6909 bound_to 6896
  145.6595  140.9257  143.0941 H   0  0  0  0  0  0  0  0  0  0  0  0  # atno 7974 bound_to 7965
  155.2998  140.3384  155.4248 H   0  0  0  0  0  0  0  0  0  0  0  0  # atno 8008 bound_to 7997
  156.2006  140.1731  156.7945 H   0  0  0  0  0  0  0  0  0  0  0  0  # atno 8009 bound_to 7997
  154.5555  140.0697  156.8720 H   0  0  0  0  0  0  0  0  0  0  0  0  # atno 8010 bound_to 7997
  140.3461  143.2916  151.9780 H   0  0  0  0  0  0  0  0  0  0  0  0  # atno 10167 bound_to 10162
  157.5018  130.8442  149.8325 H   0  0  0  0  0  0  0  0  0  0  0  0  # atno 10718 bound_to 10713
  153.1624  135.4560  154.9790 H   0  0  0  0  0  0  0  0  0  0  0  0  # atno 10763 bound_to 10752
  154.7907  135.3219  154.7785 H   0  0  0  0  0  0  0  0  0  0  0  0  # atno 10764 bound_to 10752
  153.8273  135.6941  153.4873 H   0  0  0  0  0  0  0  0  0  0  0  0  # atno 10765 bound_to 10752
  140.3167  134.7472  157.4033 H   0  0  0  0  0  0  0  0  0  0  0  0  # atno 11005 bound_to 11000
  144.7094  139.8431  143.7419 LP  0  0  0  0  0  0  0  0  0  0  0  0  # atno 17320 bound_to 7965
  146.1137  139.4145  143.0272 LP  0  0  0  0  0  0  0  0  0  0  0  0  # atno 17321 bound_to 7965
  139.4833  144.6116  151.7423 LP  0  0  0  0  0  0  0  0  0  0  0  0  # atno 17342 bound_to 10162
  140.5263  144.0800  150.6039 LP  0  0  0  0  0  0  0  0  0  0  0  0  # atno 17343 bound_to 10162
  156.0233  130.3788  150.1896 LP  0  0  0  0  0  0  0  0  0  0  0  0  # atno 17370 bound_to 10713
  157.0085  130.9944  151.3372 LP  0  0  0  0  0  0  0  0  0  0  0  0  # atno 17371 bound_to 10713
  140.0977  134.5514  155.8382 LP  0  0  0  0  0  0  0  0  0  0  0  0  # atno 17394 bound_to 11000
  141.2096  133.6685  156.6450 LP  0  0  0  0  0  0  0  0  0  0  0  0  # atno 17395 bound_to 11000

$$$$
