AV-unprocessed.smi:33|AV-procd|sdf|214|dock8
  -GOLD-   2262015523D 1   1.00000     0.00000
 Structure written by MMmdl.
 67 72  0  0  0  0  0  0  0  0  1 V2000
  152.7283  139.7357  158.0206 O   0  0  0  0  0  0  0  0  0  0  0  0
  152.0847  140.6702  157.5391 C   0  0  0  0  0  0  0  0  0  0  0  0
  151.4150  140.5934  156.3765 O   0  0  0  0  0  0  0  0  0  0  0  0
  151.6650  139.5365  155.4655 C   0  0  0  0  0  0  0  0  0  0  0  0
  150.4831  138.5677  155.5558 C   0  0  1  0  0  0  0  0  0  0  0  0
  149.7861  138.7428  156.7846 O   0  0  0  0  0  0  0  0  0  0  0  0
  148.4920  138.2354  156.6622 C   0  0  2  0  0  0  0  0  0  0  0  0
  148.3596  136.9686  157.4611 N   0  0  0  0  0  0  0  0  0  0  0  0
  149.3930  136.2286  157.9931 C   0  0  0  0  0  0  0  0  0  0  0  0
  149.0416  135.1551  158.6463 N   0  0  0  0  0  0  0  0  0  0  0  0
  147.6573  135.1486  158.5540 C   0  0  0  0  0  0  0  0  0  0  0  0
  146.6452  134.2755  159.0327 C   0  0  0  0  0  0  0  0  0  0  0  0
  146.9222  133.1597  159.7427 N   0  0  0  0  0  0  0  0  0  0  0  0
  146.0290  132.8529  160.8684 C   0  0  0  0  0  0  0  0  0  0  0  0
  145.9112  131.6877  161.2526 O   0  0  0  0  0  0  0  0  0  0  0  0
  145.2311  133.9424  161.5258 C   0  0  0  0  0  0  0  0  0  0  0  0
  145.8190  135.2035  161.7667 C   0  0  0  0  0  0  0  0  0  0  0  0
  145.0688  136.2325  162.3683 C   0  0  0  0  0  0  0  0  0  0  0  0
  143.7216  136.0133  162.7140 C   0  0  0  0  0  0  0  0  0  0  0  0
  143.1215  134.7673  162.4504 C   0  0  0  0  0  0  0  0  0  0  0  0
  143.8714  133.7373  161.8511 C   0  0  0  0  0  0  0  0  0  0  0  0
  148.0786  132.3612  159.3119 C   0  0  0  0  0  0  0  0  0  0  0  0
  148.4831  132.4549  158.1514 O   0  0  0  0  0  0  0  0  0  0  0  0
  148.7368  131.3960  160.2566 C   0  0  0  0  0  0  0  0  0  0  0  0
  149.4873  130.3130  159.7484 C   0  0  0  0  0  0  0  0  0  0  0  0
  150.1164  129.4101  160.6274 C   0  0  0  0  0  0  0  0  0  0  0  0
  150.0153  129.5953  162.0193 C   0  0  0  0  0  0  0  0  0  0  0  0
  149.2934  130.6897  162.5324 C   0  0  0  0  0  0  0  0  0  0  0  0
  148.6628  131.5925  161.6542 C   0  0  0  0  0  0  0  0  0  0  0  0
  145.3511  134.5789  158.7602 N   0  0  0  0  0  0  0  0  0  0  0  0
  145.0678  135.6725  158.0483 C   0  0  0  0  0  0  0  0  0  0  0  0
  145.9082  136.5720  157.5324 N   0  0  0  0  0  0  0  0  0  0  0  0
  147.2120  136.2780  157.8126 C   0  0  0  0  0  0  0  0  0  0  0  0
  148.2154  138.0315  155.1542 C   0  0  2  0  0  0  0  0  0  0  0  0
  148.1866  136.6762  154.7399 O   0  0  0  0  0  0  0  0  0  0  0  0
  149.3865  138.7595  154.5125 C   0  0  1  0  0  0  0  0  0  0  0  0
  149.0905  140.0536  154.3734 F   0  0  0  0  0  0  0  0  0  0  0  0
  151.9631  142.0102  158.1828 C   0  0  0  0  0  0  0  0  0  0  0  0
  151.2853  143.0492  157.5037 C   0  0  0  0  0  0  0  0  0  0  0  0
  151.1546  144.3230  158.0906 C   0  0  0  0  0  0  0  0  0  0  0  0
  151.6986  144.5730  159.3641 C   0  0  0  0  0  0  0  0  0  0  0  0
  152.3733  143.5470  160.0511 C   0  0  0  0  0  0  0  0  0  0  0  0
  152.5053  142.2731  159.4655 C   0  0  0  0  0  0  0  0  0  0  0  0
  151.7784  139.9160  154.4491 H   0  0  0  0  0  0  0  0  0  0  0  0
  152.5916  139.0324  155.7426 H   0  0  0  0  0  0  0  0  0  0  0  0
  150.8479  137.5430  155.4785 H   0  0  0  0  0  0  0  0  0  0  0  0
  147.7918  138.9245  157.1356 H   0  0  0  0  0  0  0  0  0  0  0  0
  150.4284  136.5158  157.8806 H   0  0  0  0  0  0  0  0  0  0  0  0
  146.8521  135.3825  161.5050 H   0  0  0  0  0  0  0  0  0  0  0  0
  145.5268  137.1909  162.5635 H   0  0  0  0  0  0  0  0  0  0  0  0
  143.1467  136.8028  163.1748 H   0  0  0  0  0  0  0  0  0  0  0  0
  142.0857  134.6013  162.7065 H   0  0  0  0  0  0  0  0  0  0  0  0
  143.3996  132.7863  161.6485 H   0  0  0  0  0  0  0  0  0  0  0  0
  149.5712  130.1608  158.6819 H   0  0  0  0  0  0  0  0  0  0  0  0
  150.6771  128.5757  160.2329 H   0  0  0  0  0  0  0  0  0  0  0  0
  150.4970  128.9019  162.6928 H   0  0  0  0  0  0  0  0  0  0  0  0
  149.2232  130.8372  163.6000 H   0  0  0  0  0  0  0  0  0  0  0  0
  148.1142  132.4307  162.0593 H   0  0  0  0  0  0  0  0  0  0  0  0
  144.0188  135.8532  157.8656 H   0  0  0  0  0  0  0  0  0  0  0  0
  147.2607  138.4895  154.8926 H   0  0  0  0  0  0  0  0  0  0  0  0
  148.4488  136.6338  153.8331 H   0  0  0  0  0  0  0  0  0  0  0  0
  149.6553  138.3795  153.5258 H   0  0  0  0  0  0  0  0  0  0  0  0
  150.8589  142.8805  156.5253 H   0  0  0  0  0  0  0  0  0  0  0  0
  150.6356  145.1092  157.5624 H   0  0  0  0  0  0  0  0  0  0  0  0
  151.5970  145.5495  159.8138 H   0  0  0  0  0  0  0  0  0  0  0  0
  152.7893  143.7352  161.0300 H   0  0  0  0  0  0  0  0  0  0  0  0
  153.0249  141.5070  160.0216 H   0  0  0  0  0  0  0  0  0  0  0  0
  1  2  2  0  0  0  0
  2  3  1  0  0  0  0
  2 38  1  0  0  0  0
  3  4  1  0  0  0  0
  4  5  1  0  0  0  0
  4 44  1  0  0  0  0
  4 45  1  0  0  0  0
  5 36  1  0  0  0  0
  5  6  1  0  0  0  0
  5 46  1  0  0  0  0
  6  7  1  0  0  0  0
  7  8  1  0  0  0  0
  7 34  1  0  0  0  0
  7 47  1  0  0  0  0
  8 33  1  0  0  0  0
  8  9  1  0  0  0  0
  9 10  2  0  0  0  0
  9 48  1  0  0  0  0
 10 11  1  0  0  0  0
 11 33  2  0  0  0  0
 11 12  1  0  0  0  0
 12 13  1  0  0  0  0
 12 30  2  0  0  0  0
 13 14  1  0  0  0  0
 13 22  1  0  0  0  0
 14 15  2  0  0  0  0
 14 16  1  0  0  0  0
 16 21  1  0  0  0  0
 16 17  2  0  0  0  0
 17 18  1  0  0  0  0
 17 49  1  0  0  0  0
 18 19  2  0  0  0  0
 18 50  1  0  0  0  0
 19 20  1  0  0  0  0
 19 51  1  0  0  0  0
 20 21  2  0  0  0  0
 20 52  1  0  0  0  0
 21 53  1  0  0  0  0
 22 23  2  0  0  0  0
 22 24  1  0  0  0  0
 24 29  1  0  0  0  0
 24 25  2  0  0  0  0
 25 26  1  0  0  0  0
 25 54  1  0  0  0  0
 26 27  2  0  0  0  0
 26 55  1  0  0  0  0
 27 28  1  0  0  0  0
 27 56  1  0  0  0  0
 28 29  2  0  0  0  0
 28 57  1  0  0  0  0
 29 58  1  0  0  0  0
 30 31  1  0  0  0  0
 31 32  2  0  0  0  0
 31 59  1  0  0  0  0
 32 33  1  0  0  0  0
 34 35  1  0  0  0  0
 34 36  1  0  0  0  0
 34 60  1  0  0  0  0
 35 61  1  0  0  0  0
 36 37  1  0  0  0  0
 36 62  1  0  0  0  0
 38 43  1  0  0  0  0
 38 39  2  0  0  0  0
 39 40  1  0  0  0  0
 39 63  1  0  0  0  0
 40 41  2  0  0  0  0
 40 64  1  0  0  0  0
 41 42  1  0  0  0  0
 41 65  1  0  0  0  0
 42 43  2  0  0  0  0
 42 66  1  0  0  0  0
 43 67  1  0  0  0  0
M  END
> <s_m_source_file>
AV-unprocessed.smi

> <i_m_source_file_index>
33

> <i_lp_mmshare_version>
43012

> <i_f3d_flags>
0

> <s_epik_input>
W2NIXTFbY0hdW2NIXVtjSF1bY0hdYzFDKD1PKU9bQ0gyXVtDQEBIXTJPW0NASF0oW0NAQEhdKFtPSF0pW0NAQEhdMkYpbihbY0hdbjMpYyhjMzQpbltjSF1uYzROKEMoPU8pYzVbY0hdW2NIXVtjSF1bY0hdW2NIXTUpQyg9TyljNltjSF1bY0hdW2NIXVtjSF1bY0hdNg==

> <s_epik_cmdline>
J2VwaWtfcHl0aG9uJywgJy1waCcsICc3LjAnLCAnLXRuJywgJzgnLCAnLW1hJywgJzIwMCcsICctbWV0YWxfYmluZGluZycsICctaW1hZScsICc8aW5maWxlLm1hZT4nLCAnLW9tYWUnLCAnPG91dGZpbGUubWFlPic=

> <r_lp_tautomer_probability>
1

> <r_epik_Ionization_Penalty>
0.00067664

> <r_epik_Ionization_Penalty_Charging>
0

> <r_epik_Ionization_Penalty_Neutral>
0.00067664

> <r_epik_State_Penalty>
0.000428095

> <r_epik_Charging_Adjusted_Penalty>
0.000428095

> <i_epik_Tot_Q>
0

> <i_epik_Tot_abs_Q>
0

> <r_epik_Metal_State_Penalty>
-0

> <b_epik_Metal_Only>
0

> <s_epik_Chemistry_Notes>
This compound has an ester and may undergo hydrolysis at high or low pH. This compound contains an acetal/aminal-like group ( X-CH(R)-Y where X, Y are N, S, or O) that may be acid/base labile, releasing an aldehyde.

> <s_lp_Force_Field>
OPLS_2005

> <r_lp_Energy>
71.2242

> <b_lp_Chiralities_Consistent>
1

> <s_lp_Variant>
AV-unprocessed.smi:33-16

> <Gold.Version>
5.8.1

> <Gold.Id.Protein>
6NUR|6NUR_protein|mol2

> <Gold.PLP.Fitness>
61.5985

> <Gold.PLP.PLP>
-55.8507

> <Gold.PLP.part.hbond>
-2.8647

> <Gold.PLP.part.metal>
0.0000

> <Gold.PLP.part.buried>
-8.3665

> <Gold.PLP.part.nonpolar>
-43.7971

> <Gold.PLP.part.repulsive>
0.0500

> <Gold.PLP.ligand.clash>
0.0397

> <Gold.PLP.ligand.torsion>
3.3359

> <Gold.PLP.Chemscore.Hbond>
2.7388

> <Gold.PLP.Chemscore.CHOScore>
0.0000

> <Gold.PLP.Chemscore.Metal>
0.0000

> <Gold.Chemscore.Hbonds>
donor molecule, donor type, donor heavy atom, donor atom, acceptor molecule, acceptor atom, score
      L1  H    35    61       P1  7948  0.91
      P1  H  6896  6909       L1    10  1.00
      P1  H  7997  8009       L1     1  0.75

> <Gold.PLP.Chemscore.Internal.Correction>
4.2431

> <Gold.Rescore>
     Score         DG    S(hbond)    S(metal)    S(lipo)     H(rot)  DE(clash)    DE(int)     intcor
     12.12     -24.67       2.48        0.00     148.55       2.52       0.29      12.26       ----

> <Gold.Chemscore.Fitness>
12.1193

> <Gold.Chemscore.DG>
-24.6706

> <Gold.Chemscore.ZeroCoef>
-5.4800

> <Gold.Chemscore.Hbond>
2.4772

> <Gold.Chemscore.Metal>
0.0000

> <Gold.Chemscore.Lipo>
148.5478

> <Gold.Chemscore.Internal_Hbond>
0.0000

> <Gold.Chemscore.DEClash>
0.2928

> <Gold.Chemscore.DEInternal>
12.2585

> <Gold.Chemscore.Rot>
2.5247

> <Gold.Chemscore.Internal.Correction>
   9.000000E+99

> <Gold.Chemscore.Hbonds>
donor molecule, donor type, donor heavy atom, donor atom, acceptor molecule, acceptor atom, score
      L1  H    35    61       P1  7948  0.87
      P1  H  6896  6909       L1    10  0.69
      P1  H  7997  8009       L1     1  0.18

> <Gold.Chemscore.Hbond.Weighted>
-8.2737

> <Gold.Chemscore.Metal.Weighted>
-0.0000

> <Gold.Chemscore.Lipo.Weighted>
-17.3801

> <Gold.Chemscore.Internal_Hbond.Weighted>
0.0000

> <Gold.Chemscore.DEClash.Weighted>
0.2928

> <Gold.Chemscore.DEInternal.Weighted>
12.2585

> <Gold.Chemscore.Rot.Weighted>
6.4633

> <Gold.Chemscore.Internal.Correction.Weighted>
   9.000000E+99

> <Gold.Protein.RotatedTorsions>
[ 6907 6896 6895 6894 ] final   34.37 input  -60.11 | X-H torsion
[ 7974 7965 7964 7962 ] final   70.46 input  175.53 | X-H torsion
[ 8008 7997 7996 7995 ] final  153.13 input   59.86 | X-H torsion
[ 10167 10162 10161 10158 ] final  -11.37 input  -65.29 | X-H torsion
[ 10718 10713 10712 10709 ] final  -34.60 input   66.30 | X-H torsion
[ 10763 10752 10751 10750 ] final  -58.40 input  -60.55 | X-H torsion
[ 11005 11000 10999 10996 ] final  146.84 input  -57.11 | X-H torsion

> <Gold.Protein.ActiveResidues>
 VAL166  LYS551  ARG553  GLY616  TRP617  ASP618  TYR619  PRO620  LYS621  CYS622 
 ASP623  PHE694  ASN695  SER759  ASP760  ASP761  ALA762  ILE779  LEU786  VAL792 
 PHE793  MET794  SER795  GLU796  ALA797  LYS798  CYS799  TRP800  GLU811  SER814 

> <Gold.Protein.RotatedAtoms>
  152.1014  134.9339  160.0569 H   0  0  0  0  0  0  0  0  0  0  0  0  # atno 6907 bound_to 6896
  152.0552  133.4032  159.4402 H   0  0  0  0  0  0  0  0  0  0  0  0  # atno 6908 bound_to 6896
  150.6839  134.3183  159.4819 H   0  0  0  0  0  0  0  0  0  0  0  0  # atno 6909 bound_to 6896
  145.7778  139.2873  143.1283 H   0  0  0  0  0  0  0  0  0  0  0  0  # atno 7974 bound_to 7965
  156.2596  140.2002  156.6442 H   0  0  0  0  0  0  0  0  0  0  0  0  # atno 8008 bound_to 7997
  154.6586  140.0563  157.0062 H   0  0  0  0  0  0  0  0  0  0  0  0  # atno 8009 bound_to 7997
  155.1310  140.3233  155.4477 H   0  0  0  0  0  0  0  0  0  0  0  0  # atno 8010 bound_to 7997
  140.7137  143.5647  150.9157 H   0  0  0  0  0  0  0  0  0  0  0  0  # atno 10167 bound_to 10162
  156.3487  130.4305  149.7723 H   0  0  0  0  0  0  0  0  0  0  0  0  # atno 10718 bound_to 10713
  154.2375  135.6349  153.5196 H   0  0  0  0  0  0  0  0  0  0  0  0  # atno 10763 bound_to 10752
  152.9936  135.5534  154.5946 H   0  0  0  0  0  0  0  0  0  0  0  0  # atno 10764 bound_to 10752
  154.5444  135.2897  155.1041 H   0  0  0  0  0  0  0  0  0  0  0  0  # atno 10765 bound_to 10752
  140.0826  134.9088  157.1525 H   0  0  0  0  0  0  0  0  0  0  0  0  # atno 11005 bound_to 11000
  146.0104  140.8440  142.9973 LP  0  0  0  0  0  0  0  0  0  0  0  0  # atno 17320 bound_to 7965
  144.6801  140.2482  143.7335 LP  0  0  0  0  0  0  0  0  0  0  0  0  # atno 17321 bound_to 7965
  139.9373  143.6423  152.3062 LP  0  0  0  0  0  0  0  0  0  0  0  0  # atno 17342 bound_to 10162
  139.6895  144.7648  151.1463 LP  0  0  0  0  0  0  0  0  0  0  0  0  # atno 17343 bound_to 10162
  156.4932  130.8095  151.3103 LP  0  0  0  0  0  0  0  0  0  0  0  0  # atno 17370 bound_to 10713
  157.7458  130.9968  150.2794 LP  0  0  0  0  0  0  0  0  0  0  0  0  # atno 17371 bound_to 10713
  140.3466  134.2645  155.7204 LP  0  0  0  0  0  0  0  0  0  0  0  0  # atno 17394 bound_to 11000
  141.2052  133.7867  157.0247 LP  0  0  0  0  0  0  0  0  0  0  0  0  # atno 17395 bound_to 11000

$$$$
