AV-unprocessed.smi:1212|AV-procd|sdf|5083|dock4
  -GOLD-   22720 4133D 1   1.00000     0.00000
 Structure written by MMmdl.
 38 39  0  0  0  0  0  0  0  0  2 V2000
  144.1127  143.8765  155.2477 C   0  0  0  0  0  0  0  0  0  0  0  0
  145.3634  143.1021  155.0098 C   0  0  0  0  0  0  0  0  0  0  0  0
  145.7865  142.1446  155.8387 N   0  0  0  0  0  0  0  0  0  0  0  0
  146.9717  141.5664  155.4076 N   0  0  0  0  0  0  0  0  0  0  0  0
  147.4230  142.0869  154.2576 C   0  0  0  0  0  0  0  0  0  0  0  0
  148.5571  141.6670  153.6728 N   0  5  0  0  0  0  0  0  0  0  0  0
  149.5897  141.2360  154.4330 C   0  0  0  0  0  0  0  0  0  0  0  0
  150.1789  140.1582  154.3208 O   0  0  0  0  0  0  0  0  0  0  0  0
  149.9661  142.1082  155.3794 N   0  0  0  0  0  0  0  0  0  0  0  0
  151.0469  141.9110  156.3387 C   0  0  0  0  0  0  0  0  0  0  0  0
  150.5477  142.0493  157.7887 C   0  0  0  0  0  0  0  0  0  0  0  0
  151.6107  142.5348  158.6758 N   0  0  0  0  0  0  0  0  0  0  0  0
  152.1077  143.8918  158.3998 C   0  0  0  0  0  0  0  0  0  0  0  0
  151.6983  144.9320  159.4675 C   0  0  0  0  0  0  0  0  0  0  0  0
  151.5385  144.4024  160.9066 C   0  0  0  0  0  0  0  0  0  0  0  0
  152.7360  143.5885  161.4410 C   0  0  0  0  0  0  0  0  0  0  0  0
  153.1922  142.3819  160.5851 C   0  0  0  0  0  0  0  0  0  0  0  0
  152.0946  141.7796  159.6921 C   0  0  0  0  0  0  0  0  0  0  0  0
  151.6969  140.6388  159.9301 O   0  0  0  0  0  0  0  0  0  0  0  0
  146.4008  143.3750  153.6200 S   0  0  0  0  0  0  0  0  0  0  0  0
  143.2570  143.2021  155.2865 H   0  0  0  0  0  0  0  0  0  0  0  0
  143.9532  144.5969  154.4452 H   0  0  0  0  0  0  0  0  0  0  0  0
  144.1800  144.4154  156.1930 H   0  0  0  0  0  0  0  0  0  0  0  0
  149.4576  142.9786  155.4369 H   0  0  0  0  0  0  0  0  0  0  0  0
  151.4647  140.9171  156.1769 H   0  0  0  0  0  0  0  0  0  0  0  0
  151.8525  142.6205  156.1409 H   0  0  0  0  0  0  0  0  0  0  0  0
  149.6934  142.7263  157.8311 H   0  0  0  0  0  0  0  0  0  0  0  0
  150.1667  141.0906  158.1449 H   0  0  0  0  0  0  0  0  0  0  0  0
  153.1937  143.8634  158.3101 H   0  0  0  0  0  0  0  0  0  0  0  0
  151.7749  144.2357  157.4193 H   0  0  0  0  0  0  0  0  0  0  0  0
  152.4193  145.7500  159.4558 H   0  0  0  0  0  0  0  0  0  0  0  0
  150.7473  145.3757  159.1705 H   0  0  0  0  0  0  0  0  0  0  0  0
  151.3605  145.2467  161.5732 H   0  0  0  0  0  0  0  0  0  0  0  0
  150.6324  143.7980  160.9706 H   0  0  0  0  0  0  0  0  0  0  0  0
  153.5859  144.2582  161.5762 H   0  0  0  0  0  0  0  0  0  0  0  0
  152.4847  143.2321  162.4405 H   0  0  0  0  0  0  0  0  0  0  0  0
  154.0384  142.6653  159.9594 H   0  0  0  0  0  0  0  0  0  0  0  0
  153.5819  141.6044  161.2437 H   0  0  0  0  0  0  0  0  0  0  0  0
  1  2  1  0  0  0  0
  1 21  1  0  0  0  0
  1 22  1  0  0  0  0
  1 23  1  0  0  0  0
  2 20  1  0  0  0  0
  2  3  2  0  0  0  0
  3  4  1  0  0  0  0
  4  5  2  0  0  0  0
  5  6  1  0  0  0  0
  5 20  1  0  0  0  0
  6  7  1  0  0  0  0
  7  8  2  0  0  0  0
  7  9  1  0  0  0  0
  9 10  1  0  0  0  0
  9 24  1  0  0  0  0
 10 11  1  0  0  0  0
 10 25  1  0  0  0  0
 10 26  1  0  0  0  0
 11 12  1  0  0  0  0
 11 27  1  0  0  0  0
 11 28  1  0  0  0  0
 12 18  1  0  0  0  0
 12 13  1  0  0  0  0
 13 14  1  0  0  0  0
 13 29  1  0  0  0  0
 13 30  1  0  0  0  0
 14 15  1  0  0  0  0
 14 31  1  0  0  0  0
 14 32  1  0  0  0  0
 15 16  1  0  0  0  0
 15 33  1  0  0  0  0
 15 34  1  0  0  0  0
 16 17  1  0  0  0  0
 16 35  1  0  0  0  0
 16 36  1  0  0  0  0
 17 18  1  0  0  0  0
 17 37  1  0  0  0  0
 17 38  1  0  0  0  0
 18 19  2  0  0  0  0
M  CHG  1   6  -1
M  END
> <s_m_source_file>
AV-unprocessed.smi

> <i_m_source_file_index>
1212

> <i_lp_mmshare_version>
43012

> <i_f3d_flags>
0

> <s_epik_input>
W0NIM11jMW5uYyhzMSlbTkhdQyg9TylbTkhdW0NIMl1bQ0gyXU4yW0NIMl1bQ0gyXVtDSDJdW0NIMl1bQ0gyXUMyPU8=

> <s_epik_cmdline>
J2VwaWtfcHl0aG9uJywgJy1waCcsICc3LjAnLCAnLXRuJywgJzgnLCAnLW1hJywgJzIwMCcsICctbWV0YWxfYmluZGluZycsICctaW1hZScsICc8aW5maWxlLm1hZT4nLCAnLW9tYWUnLCAnPG91dGZpbGUubWFlPic=

> <r_lp_tautomer_probability>
1

> <r_epik_Ionization_Penalty>
3.37178

> <r_epik_Ionization_Penalty_Charging>
3.23409

> <r_epik_Ionization_Penalty_Neutral>
0.137695

> <r_epik_State_Penalty>
3.23156

> <r_epik_Charging_Adjusted_Penalty>
6.46564

> <i_epik_Tot_Q>
-1

> <i_epik_Tot_abs_Q>
1

> <r_epik_Metal_State_Penalty>
0.474775

> <b_epik_Metal_Only>
1

> <s_lp_Force_Field>
OPLS_2005

> <r_lp_Energy>
19.6793

> <b_lp_Chiralities_Consistent>
1

> <s_lp_Variant>
AV-unprocessed.smi:1212-2

> <Gold.Version>
5.8.1

> <Gold.Id.Protein>
6NUR|6NUR_protein|mol2

> <Gold.PLP.Fitness>
47.8600

> <Gold.PLP.PLP>
-43.0974

> <Gold.PLP.part.hbond>
-3.0000

> <Gold.PLP.part.metal>
0.0000

> <Gold.PLP.part.buried>
-4.1801

> <Gold.PLP.part.nonpolar>
-35.5739

> <Gold.PLP.part.repulsive>
0.6365

> <Gold.PLP.ligand.clash>
0.0000

> <Gold.PLP.ligand.torsion>
0.9036

> <Gold.PLP.Chemscore.Hbond>
2.1739

> <Gold.PLP.Chemscore.CHOScore>
0.0000

> <Gold.PLP.Chemscore.Metal>
0.0000

> <Gold.Chemscore.Hbonds>
donor molecule, donor type, donor heavy atom, donor atom, acceptor molecule, acceptor atom, score
      L1  H     9    24       P1  8028  1.00
      P1  H  7989  7998       L1     8  0.70
      P1  H  8011  8017       L1     6  0.37

> <Gold.PLP.Chemscore.Internal.Correction>
0.0481

> <Gold.Rescore>
     Score         DG    S(hbond)    S(metal)    S(lipo)     H(rot)  DE(clash)    DE(int)     intcor
     14.45     -16.22       1.39        0.00      87.65       1.63       0.78       0.99       ----

> <Gold.Chemscore.Fitness>
14.4510

> <Gold.Chemscore.DG>
-16.2248

> <Gold.Chemscore.ZeroCoef>
-5.4800

> <Gold.Chemscore.Hbond>
1.3926

> <Gold.Chemscore.Metal>
0.0000

> <Gold.Chemscore.Lipo>
87.6469

> <Gold.Chemscore.Internal_Hbond>
0.0000

> <Gold.Chemscore.DEClash>
0.7810

> <Gold.Chemscore.DEInternal>
0.9929

> <Gold.Chemscore.Rot>
1.6255

> <Gold.Chemscore.Internal.Correction>
   9.000000E+99

> <Gold.Chemscore.Hbonds>
donor molecule, donor type, donor heavy atom, donor atom, acceptor molecule, acceptor atom, score
      L1  H     9    24       P1  8028  1.00
      P1  H  7989  7998       L1     8  0.07
      P1  H  8011  8017       L1     6  0.03

> <Gold.Chemscore.Hbond.Weighted>
-4.6514

> <Gold.Chemscore.Metal.Weighted>
-0.0000

> <Gold.Chemscore.Lipo.Weighted>
-10.2547

> <Gold.Chemscore.Internal_Hbond.Weighted>
0.0000

> <Gold.Chemscore.DEClash.Weighted>
0.7810

> <Gold.Chemscore.DEInternal.Weighted>
0.9929

> <Gold.Chemscore.Rot.Weighted>
4.1613

> <Gold.Chemscore.Internal.Correction.Weighted>
   9.000000E+99

> <Gold.Protein.RotatedTorsions>
[ 6907 6896 6895 6894 ] final  -94.80 input  -60.11 | X-H torsion
[ 7974 7965 7964 7962 ] final  -30.60 input  175.53 | X-H torsion
[ 8008 7997 7996 7995 ] final   58.02 input   59.86 | X-H torsion
[ 10167 10162 10161 10158 ] final   61.82 input  -65.29 | X-H torsion
[ 10718 10713 10712 10709 ] final  129.48 input   66.30 | X-H torsion
[ 10763 10752 10751 10750 ] final  140.97 input  -60.55 | X-H torsion
[ 11005 11000 10999 10996 ] final  -20.95 input  -57.11 | X-H torsion

> <Gold.Protein.ActiveResidues>
 VAL166  LYS551  ARG553  GLY616  TRP617  ASP618  TYR619  PRO620  LYS621  CYS622 
 ASP623  PHE694  ASN695  SER759  ASP760  ASP761  ALA762  ILE779  LEU786  VAL792 
 PHE793  MET794  SER795  GLU796  ALA797  LYS798  CYS799  TRP800  GLU811  SER814 

> <Gold.Protein.RotatedAtoms>
  150.6949  134.1756  159.4228 H   0  0  0  0  0  0  0  0  0  0  0  0  # atno 6907 bound_to 6896
  151.9732  135.0064  160.0563 H   0  0  0  0  0  0  0  0  0  0  0  0  # atno 6908 bound_to 6896
  152.1822  133.4680  159.5001 H   0  0  0  0  0  0  0  0  0  0  0  0  # atno 6909 bound_to 6896
  146.1131  140.5561  142.8769 H   0  0  0  0  0  0  0  0  0  0  0  0  # atno 7974 bound_to 7965
  155.5432  140.3485  155.4451 H   0  0  0  0  0  0  0  0  0  0  0  0  # atno 8008 bound_to 7997
  156.0636  140.1346  156.9938 H   0  0  0  0  0  0  0  0  0  0  0  0  # atno 8009 bound_to 7997
  154.4492  140.0980  156.6538 H   0  0  0  0  0  0  0  0  0  0  0  0  # atno 8010 bound_to 7997
  140.1506  144.4466  150.6761 H   0  0  0  0  0  0  0  0  0  0  0  0  # atno 10167 bound_to 10162
  157.5150  131.1097  150.9237 H   0  0  0  0  0  0  0  0  0  0  0  0  # atno 10718 bound_to 10713
  153.9315  135.2989  155.3445 H   0  0  0  0  0  0  0  0  0  0  0  0  # atno 10763 bound_to 10752
  154.7524  135.4974  153.9316 H   0  0  0  0  0  0  0  0  0  0  0  0  # atno 10764 bound_to 10752
  153.1089  135.6754  153.9641 H   0  0  0  0  0  0  0  0  0  0  0  0  # atno 10765 bound_to 10752
  140.8514  133.7854  155.9970 H   0  0  0  0  0  0  0  0  0  0  0  0  # atno 11005 bound_to 11000
  144.7529  140.5235  143.6789 LP  0  0  0  0  0  0  0  0  0  0  0  0  # atno 17320 bound_to 7965
  145.5623  139.1480  143.3334 LP  0  0  0  0  0  0  0  0  0  0  0  0  # atno 17321 bound_to 7965
  140.6705  143.2284  151.5637 LP  0  0  0  0  0  0  0  0  0  0  0  0  # atno 17342 bound_to 10162
  139.5428  144.2602  152.1383 LP  0  0  0  0  0  0  0  0  0  0  0  0  # atno 17343 bound_to 10162
  156.9866  130.5547  149.5300 LP  0  0  0  0  0  0  0  0  0  0  0  0  # atno 17370 bound_to 10713
  156.0314  130.5405  150.8544 LP  0  0  0  0  0  0  0  0  0  0  0  0  # atno 17371 bound_to 10713
  140.8786  134.2639  157.5155 LP  0  0  0  0  0  0  0  0  0  0  0  0  # atno 17394 bound_to 11000
  139.8704  134.9603  156.4361 LP  0  0  0  0  0  0  0  0  0  0  0  0  # atno 17395 bound_to 11000

$$$$
