AV-unprocessed.smi:1701|AV-procd|sdf|6836|dock4
  -GOLD-   22720 8 13D 1   1.00000     0.00000
 Structure written by MMmdl.
 54 56  0  0  0  0  0  0  0  0  2 V2000
  152.1149  143.8509  158.2916 C   0  0  0  0  0  0  0  0  0  0  0  0
  151.2906  143.0671  157.2602 C   0  0  0  0  0  0  0  0  0  0  0  0
  151.3955  141.6169  157.4236 N   0  0  0  0  0  0  0  0  0  0  0  0
  152.0324  141.0809  158.6294 C   0  0  0  0  0  0  0  0  0  0  0  0
  152.1079  139.5463  158.6400 C   0  0  0  0  0  0  0  0  0  0  0  0
  150.7523  140.7398  156.5148 C   0  0  0  0  0  0  0  0  0  0  0  0
  151.4811  139.9758  155.5684 C   0  0  0  0  0  0  0  0  0  0  0  0
  150.7922  139.1180  154.6898 C   0  0  0  0  0  0  0  0  0  0  0  0
  149.3830  139.0437  154.7674 C   0  0  0  0  0  0  0  0  0  0  0  0
  148.5740  138.2056  153.9538 N   0  0  0  0  0  0  0  0  0  0  0  0
  147.3312  137.7418  154.1907 C   0  0  0  0  0  0  0  0  0  0  0  0
  146.6878  137.9495  155.2166 O   0  0  0  0  0  0  0  0  0  0  0  0
  146.8310  136.9789  153.2025 N   0  0  0  0  0  0  0  0  0  0  0  0
  145.5224  136.3261  153.1427 C   0  0  1  0  0  0  0  0  0  0  0  0
  144.3481  137.2382  153.5359 C   0  0  0  0  0  0  0  0  0  0  0  0
  143.2115  136.8923  152.5538 C   0  0  0  0  0  0  0  0  0  0  0  0
  143.6916  135.7595  151.7299 N   0  3  2  0  0  0  0  0  0  0  0  0
  143.2035  134.4489  152.2407 C   0  0  0  0  0  0  0  0  0  0  0  0
  143.8840  133.2662  151.5398 C   0  0  0  0  0  0  0  0  0  0  0  0
  145.4023  133.3504  151.7154 C   0  0  0  0  0  0  0  0  0  0  0  0
  145.9106  134.6790  151.1447 C   0  0  0  0  0  0  0  0  0  0  0  0
  145.1668  135.9092  151.7118 C   0  0  2  0  0  0  0  0  0  0  0  0
  148.7445  139.8285  155.7461 C   0  0  0  0  0  0  0  0  0  0  0  0
  149.4014  140.6513  156.5890 N   0  0  0  0  0  0  0  0  0  0  0  0
  151.9625  144.9230  158.1670 H   0  0  0  0  0  0  0  0  0  0  0  0
  153.1811  143.6592  158.1781 H   0  0  0  0  0  0  0  0  0  0  0  0
  151.8330  143.5934  159.3127 H   0  0  0  0  0  0  0  0  0  0  0  0
  150.2465  143.3785  157.2862 H   0  0  0  0  0  0  0  0  0  0  0  0
  151.6363  143.3294  156.2599 H   0  0  0  0  0  0  0  0  0  0  0  0
  153.0285  141.5078  158.7488 H   0  0  0  0  0  0  0  0  0  0  0  0
  151.4693  141.4110  159.5027 H   0  0  0  0  0  0  0  0  0  0  0  0
  152.5797  139.1940  159.5573 H   0  0  0  0  0  0  0  0  0  0  0  0
  152.6949  139.1675  157.8033 H   0  0  0  0  0  0  0  0  0  0  0  0
  151.1192  139.0929  158.5853 H   0  0  0  0  0  0  0  0  0  0  0  0
  152.5558  140.0302  155.4902 H   0  0  0  0  0  0  0  0  0  0  0  0
  151.3615  138.5300  153.9873 H   0  0  0  0  0  0  0  0  0  0  0  0
  149.0109  137.8817  153.1035 H   0  0  0  0  0  0  0  0  0  0  0  0
  147.4411  136.8150  152.4145 H   0  0  0  0  0  0  0  0  0  0  0  0
  145.5222  135.4409  153.7810 H   0  0  0  0  0  0  0  0  0  0  0  0
  144.0513  137.0656  154.5710 H   0  0  0  0  0  0  0  0  0  0  0  0
  144.6104  138.2932  153.4428 H   0  0  0  0  0  0  0  0  0  0  0  0
  142.2722  136.6725  153.0634 H   0  0  0  0  0  0  0  0  0  0  0  0
  143.0290  137.7413  151.8939 H   0  0  0  0  0  0  0  0  0  0  0  0
  143.3776  134.3801  153.3158 H   0  0  0  0  0  0  0  0  0  0  0  0
  142.1239  134.3924  152.0969 H   0  0  0  0  0  0  0  0  0  0  0  0
  143.5133  132.3272  151.9522 H   0  0  0  0  0  0  0  0  0  0  0  0
  143.6292  133.2631  150.4791 H   0  0  0  0  0  0  0  0  0  0  0  0
  145.6632  133.2669  152.7710 H   0  0  0  0  0  0  0  0  0  0  0  0
  145.8870  132.5156  151.2085 H   0  0  0  0  0  0  0  0  0  0  0  0
  146.9835  134.7752  151.3143 H   0  0  0  0  0  0  0  0  0  0  0  0
  145.7796  134.6613  150.0620 H   0  0  0  0  0  0  0  0  0  0  0  0
  145.3838  136.7541  151.0546 H   0  0  0  0  0  0  0  0  0  0  0  0
  147.6704  139.7999  155.8573 H   0  0  0  0  0  0  0  0  0  0  0  0
  143.3440  135.8606  150.7867 H   0  0  0  0  0  0  0  0  0  0  0  0
  1  2  1  0  0  0  0
  1 25  1  0  0  0  0
  1 26  1  0  0  0  0
  1 27  1  0  0  0  0
  2  3  1  0  0  0  0
  2 28  1  0  0  0  0
  2 29  1  0  0  0  0
  3  4  1  0  0  0  0
  3  6  1  0  0  0  0
  4  5  1  0  0  0  0
  4 30  1  0  0  0  0
  4 31  1  0  0  0  0
  5 32  1  0  0  0  0
  5 33  1  0  0  0  0
  5 34  1  0  0  0  0
  6 24  1  0  0  0  0
  6  7  2  0  0  0  0
  7  8  1  0  0  0  0
  7 35  1  0  0  0  0
  8  9  2  0  0  0  0
  8 36  1  0  0  0  0
  9 10  1  0  0  0  0
  9 23  1  0  0  0  0
 10 11  1  0  0  0  0
 10 37  1  0  0  0  0
 11 12  2  0  0  0  0
 11 13  1  0  0  0  0
 13 14  1  0  0  0  0
 13 38  1  0  0  0  0
 14 22  1  0  0  0  0
 14 15  1  0  0  0  0
 14 39  1  0  0  0  0
 15 16  1  0  0  0  0
 15 40  1  0  0  0  0
 15 41  1  0  0  0  0
 16 17  1  0  0  0  0
 16 42  1  0  0  0  0
 16 43  1  0  0  0  0
 17 22  1  0  0  0  0
 17 18  1  0  0  0  0
 17 54  1  0  0  0  0
 18 19  1  0  0  0  0
 18 44  1  0  0  0  0
 18 45  1  0  0  0  0
 19 20  1  0  0  0  0
 19 46  1  0  0  0  0
 19 47  1  0  0  0  0
 20 21  1  0  0  0  0
 20 48  1  0  0  0  0
 20 49  1  0  0  0  0
 21 22  1  0  0  0  0
 21 50  1  0  0  0  0
 21 51  1  0  0  0  0
 22 52  1  0  0  0  0
 23 24  2  0  0  0  0
 23 53  1  0  0  0  0
M  CHG  1  17   1
M  END
> <s_m_source_file>
AV-unprocessed.smi

> <i_m_source_file_index>
1701

> <i_lp_mmshare_version>
43012

> <i_f3d_flags>
0

> <s_epik_input>
W0NIM11bQ0gyXU4oW0NIMl1bQ0gzXSljMVtjSF1bY0hdYyhbY0hdbjEpW05IXUMoPU8pW05IXVtDQEhdKFtDSDJdW0NIMl0yKVtDQEBIXShOMjMpW0NIMl1bQ0gyXVtDSDJdW0NIMl0z

> <s_epik_cmdline>
J2VwaWtfcHl0aG9uJywgJy1waCcsICc3LjAnLCAnLXRuJywgJzgnLCAnLW1hJywgJzIwMCcsICctbWV0YWxfYmluZGluZycsICctaW1hZScsICc8aW5maWxlLm1hZT4nLCAnLW9tYWUnLCAnPG91dGZpbGUubWFlPic=

> <r_lp_tautomer_probability>
1

> <r_epik_Ionization_Penalty>
0.56662

> <r_epik_Ionization_Penalty_Charging>
0.000974069

> <r_epik_Ionization_Penalty_Neutral>
0.565646

> <r_epik_State_Penalty>
2.0247

> <r_epik_Charging_Adjusted_Penalty>
2.02568

> <i_epik_Tot_Q>
1

> <i_epik_Tot_abs_Q>
1

> <r_epik_Metal_State_Penalty>
1.51504

> <b_epik_Metal_Only>
0

> <s_lp_Force_Field>
OPLS_2005

> <r_lp_Energy>
57.4509

> <b_lp_Chiralities_Consistent>
1

> <s_lp_Variant>
AV-unprocessed.smi:1701-16

> <Gold.Version>
5.8.1

> <Gold.Id.Protein>
6NUR|6NUR_protein|mol2

> <Gold.PLP.Fitness>
41.5644

> <Gold.PLP.PLP>
-39.6313

> <Gold.PLP.part.hbond>
-2.0000

> <Gold.PLP.part.metal>
0.0000

> <Gold.PLP.part.buried>
-6.0757

> <Gold.PLP.part.nonpolar>
-33.0413

> <Gold.PLP.part.repulsive>
0.1106

> <Gold.PLP.ligand.clash>
0.0000

> <Gold.PLP.ligand.torsion>
1.7971

> <Gold.PLP.Chemscore.Hbond>
1.8009

> <Gold.PLP.Chemscore.CHOScore>
0.0000

> <Gold.PLP.Chemscore.Metal>
0.0000

> <Gold.Chemscore.Hbonds>
donor molecule, donor type, donor heavy atom, donor atom, acceptor molecule, acceptor atom, score
      L1  H    10    37       P1  7948  0.78
      L1  H    13    38       P1  7948  0.96

> <Gold.PLP.Chemscore.Internal.Correction>
0.1248

> <Gold.Rescore>
     Score         DG    S(hbond)    S(metal)    S(lipo)     H(rot)  DE(clash)    DE(int)     intcor
     15.70     -18.83       1.74        0.00      92.40       1.28       0.10       3.03       ----

> <Gold.Chemscore.Fitness>
15.7045

> <Gold.Chemscore.DG>
-18.8317

> <Gold.Chemscore.ZeroCoef>
-5.4800

> <Gold.Chemscore.Hbond>
1.7448

> <Gold.Chemscore.Metal>
0.0000

> <Gold.Chemscore.Lipo>
92.3987

> <Gold.Chemscore.Internal_Hbond>
0.0000

> <Gold.Chemscore.DEClash>
0.0997

> <Gold.Chemscore.DEInternal>
3.0276

> <Gold.Chemscore.Rot>
1.2838

> <Gold.Chemscore.Internal.Correction>
   9.000000E+99

> <Gold.Chemscore.Hbonds>
donor molecule, donor type, donor heavy atom, donor atom, acceptor molecule, acceptor atom, score
      L1  H    10    37       P1  7948  0.73
      L1  H    13    38       P1  7948  0.92

> <Gold.Chemscore.Hbond.Weighted>
-5.8276

> <Gold.Chemscore.Metal.Weighted>
-0.0000

> <Gold.Chemscore.Lipo.Weighted>
-10.8106

> <Gold.Chemscore.Internal_Hbond.Weighted>
0.0000

> <Gold.Chemscore.DEClash.Weighted>
0.0997

> <Gold.Chemscore.DEInternal.Weighted>
3.0276

> <Gold.Chemscore.Rot.Weighted>
3.2865

> <Gold.Chemscore.Internal.Correction.Weighted>
   9.000000E+99

> <Gold.Protein.RotatedTorsions>
[ 6907 6896 6895 6894 ] final  129.64 input  -60.11 | X-H torsion
[ 7974 7965 7964 7962 ] final  106.69 input  175.53 | X-H torsion
[ 8008 7997 7996 7995 ] final  138.13 input   59.86 | X-H torsion
[ 10167 10162 10161 10158 ] final  123.64 input  -65.29 | X-H torsion
[ 10718 10713 10712 10709 ] final  124.44 input   66.30 | X-H torsion
[ 10763 10752 10751 10750 ] final -179.43 input  -60.55 | X-H torsion
[ 11005 11000 10999 10996 ] final  159.51 input  -57.11 | X-H torsion

> <Gold.Protein.ActiveResidues>
 VAL166  LYS551  ARG553  GLY616  TRP617  ASP618  TYR619  PRO620  LYS621  CYS622 
 ASP623  PHE694  ASN695  SER759  ASP760  ASP761  ALA762  ILE779  LEU786  VAL792 
 PHE793  MET794  SER795  GLU796  ALA797  LYS798  CYS799  TRP800  GLU811  SER814 

> <Gold.Protein.RotatedAtoms>
  152.3604  133.6290  159.6010 H   0  0  0  0  0  0  0  0  0  0  0  0  # atno 6907 bound_to 6896
  150.7597  133.9432  159.3471 H   0  0  0  0  0  0  0  0  0  0  0  0  # atno 6908 bound_to 6896
  151.7271  135.0883  160.0345 H   0  0  0  0  0  0  0  0  0  0  0  0  # atno 6909 bound_to 6896
  145.3033  139.2563  143.3802 H   0  0  0  0  0  0  0  0  0  0  0  0  # atno 7974 bound_to 7965
  156.2999  140.2401  156.4024 H   0  0  0  0  0  0  0  0  0  0  0  0  # atno 8008 bound_to 7997
  154.8515  140.0424  157.1627 H   0  0  0  0  0  0  0  0  0  0  0  0  # atno 8009 bound_to 7997
  154.8993  140.2974  155.5330 H   0  0  0  0  0  0  0  0  0  0  0  0  # atno 8010 bound_to 7997
  139.5787  144.6976  151.3584 H   0  0  0  0  0  0  0  0  0  0  0  0  # atno 10167 bound_to 10162
  157.5585  131.1091  150.8580 H   0  0  0  0  0  0  0  0  0  0  0  0  # atno 10718 bound_to 10713
  154.5351  135.2802  155.1145 H   0  0  0  0  0  0  0  0  0  0  0  0  # atno 10763 bound_to 10752
  154.2650  135.6314  153.5292 H   0  0  0  0  0  0  0  0  0  0  0  0  # atno 10764 bound_to 10752
  152.9966  135.5614  154.5876 H   0  0  0  0  0  0  0  0  0  0  0  0  # atno 10765 bound_to 10752
  140.1968  134.8367  157.2974 H   0  0  0  0  0  0  0  0  0  0  0  0  # atno 11005 bound_to 11000
  146.3144  140.3552  142.8660 LP  0  0  0  0  0  0  0  0  0  0  0  0  # atno 17320 bound_to 7965
  144.9076  140.7718  143.5828 LP  0  0  0  0  0  0  0  0  0  0  0  0  # atno 17321 bound_to 7965
  140.7068  143.7493  150.7496 LP  0  0  0  0  0  0  0  0  0  0  0  0  # atno 17342 bound_to 10162
  140.1020  143.4779  152.2419 LP  0  0  0  0  0  0  0  0  0  0  0  0  # atno 17343 bound_to 10162
  156.9084  130.5272  149.5281 LP  0  0  0  0  0  0  0  0  0  0  0  0  # atno 17370 bound_to 10713
  156.0640  130.5687  150.9252 LP  0  0  0  0  0  0  0  0  0  0  0  0  # atno 17371 bound_to 10713
  140.2098  134.4153  155.7619 LP  0  0  0  0  0  0  0  0  0  0  0  0  # atno 17394 bound_to 11000
  141.2227  133.7112  156.8319 LP  0  0  0  0  0  0  0  0  0  0  0  0  # atno 17395 bound_to 11000

$$$$
