AV-unprocessed.smi:556|AV-procd|sdf|2912|dock1
  -GOLD-   2262023403D 1   1.00000     0.00000
 Structure written by MMmdl.
 38 39  0  0  0  0  0  0  0  0  1 V2000
  146.6716  141.5662  155.8861 C   0  0  0  0  0  0  0  0  0  0  0  0
  148.1566  141.7125  155.5131 C   0  0  2  0  0  0  0  0  0  0  0  0
  148.4547  141.3663  154.0386 C   0  0  0  0  0  0  0  0  0  0  0  0
  148.4152  139.9644  153.8188 O   0  0  0  0  0  0  0  0  0  0  0  0
  149.3833  139.2843  154.6021 C   0  0  0  0  0  0  0  0  0  0  0  0
  149.0590  139.4886  156.0880 C   0  0  0  0  0  0  0  0  0  0  0  0
  149.0152  140.9215  156.4247 N   0  0  0  0  0  0  0  0  0  0  0  0
  149.7051  141.4139  157.4872 C   0  0  0  0  0  0  0  0  0  0  0  0
  150.2431  140.7013  158.3362 O   0  0  0  0  0  0  0  0  0  0  0  0
  149.7193  142.7539  157.5794 N   0  0  0  0  0  0  0  0  0  0  0  0
  150.3713  143.5065  158.6418 C   0  0  0  0  0  0  0  0  0  0  0  0
  151.8968  143.4071  158.5134 C   0  0  0  0  0  0  0  0  0  0  0  0
  152.5363  143.0190  159.8170 C   0  0  0  0  0  0  0  0  0  0  0  0
  153.4115  141.9239  160.0682 C   0  0  0  0  0  0  0  0  0  0  0  0
  153.8025  141.8558  161.3303 N   0  0  0  0  0  0  0  0  0  0  0  0
  153.1941  142.9014  161.9267 N   0  0  0  0  0  0  0  0  0  0  0  0
  153.4040  143.1371  163.3389 C   0  0  0  0  0  0  0  0  0  0  0  0
  152.4229  143.6204  161.0388 C   0  0  0  0  0  0  0  0  0  0  0  0
  146.0477  142.2033  155.2586 H   0  0  0  0  0  0  0  0  0  0  0  0
  146.4958  141.8538  156.9230 H   0  0  0  0  0  0  0  0  0  0  0  0
  146.3230  140.5409  155.7599 H   0  0  0  0  0  0  0  0  0  0  0  0
  148.3856  142.7758  155.5895 H   0  0  0  0  0  0  0  0  0  0  0  0
  147.7321  141.8494  153.3806 H   0  0  0  0  0  0  0  0  0  0  0  0
  149.4360  141.7481  153.7515 H   0  0  0  0  0  0  0  0  0  0  0  0
  149.3539  138.2231  154.3545 H   0  0  0  0  0  0  0  0  0  0  0  0
  150.3877  139.6397  154.3655 H   0  0  0  0  0  0  0  0  0  0  0  0
  148.0909  139.0436  156.3196 H   0  0  0  0  0  0  0  0  0  0  0  0
  149.7878  138.9335  156.6798 H   0  0  0  0  0  0  0  0  0  0  0  0
  149.2444  143.2854  156.8644 H   0  0  0  0  0  0  0  0  0  0  0  0
  150.0587  144.5508  158.5932 H   0  0  0  0  0  0  0  0  0  0  0  0
  150.0481  143.1152  159.6078 H   0  0  0  0  0  0  0  0  0  0  0  0
  152.1470  142.6817  157.7382 H   0  0  0  0  0  0  0  0  0  0  0  0
  152.2912  144.3621  158.1635 H   0  0  0  0  0  0  0  0  0  0  0  0
  153.7712  141.1797  159.3730 H   0  0  0  0  0  0  0  0  0  0  0  0
  152.9035  144.0567  163.6434 H   0  0  0  0  0  0  0  0  0  0  0  0
  154.4711  143.2307  163.5438 H   0  0  0  0  0  0  0  0  0  0  0  0
  152.9996  142.3048  163.9157 H   0  0  0  0  0  0  0  0  0  0  0  0
  151.8628  144.4914  161.3460 H   0  0  0  0  0  0  0  0  0  0  0  0
  1  2  1  0  0  0  0
  1 19  1  0  0  0  0
  1 20  1  0  0  0  0
  1 21  1  0  0  0  0
  2  7  1  0  0  0  0
  2  3  1  0  0  0  0
  2 22  1  0  0  0  0
  3  4  1  0  0  0  0
  3 23  1  0  0  0  0
  3 24  1  0  0  0  0
  4  5  1  0  0  0  0
  5  6  1  0  0  0  0
  5 25  1  0  0  0  0
  5 26  1  0  0  0  0
  6  7  1  0  0  0  0
  6 27  1  0  0  0  0
  6 28  1  0  0  0  0
  7  8  1  0  0  0  0
  8  9  2  0  0  0  0
  8 10  1  0  0  0  0
 10 11  1  0  0  0  0
 10 29  1  0  0  0  0
 11 12  1  0  0  0  0
 11 30  1  0  0  0  0
 11 31  1  0  0  0  0
 12 13  1  0  0  0  0
 12 32  1  0  0  0  0
 12 33  1  0  0  0  0
 13 18  2  0  0  0  0
 13 14  1  0  0  0  0
 14 15  2  0  0  0  0
 14 34  1  0  0  0  0
 15 16  1  0  0  0  0
 16 17  1  0  0  0  0
 16 18  1  0  0  0  0
 17 35  1  0  0  0  0
 17 36  1  0  0  0  0
 17 37  1  0  0  0  0
 18 38  1  0  0  0  0
M  END
> <s_m_source_file>
AV-unprocessed.smi

> <i_m_source_file_index>
556

> <i_lp_mmshare_version>
43012

> <i_f3d_flags>
0

> <s_epik_input>
W0NIM11bQ0BASF0xW0NIMl1PW0NIMl1bQ0gyXU4xQyg9TylbTkhdW0NIMl1bQ0gyXWMyW2NIXW5uKFtDSDNdKVtjSF0y

> <s_epik_cmdline>
J2VwaWtfcHl0aG9uJywgJy1waCcsICc3LjAnLCAnLXRuJywgJzgnLCAnLW1hJywgJzIwMCcsICctbWV0YWxfYmluZGluZycsICctaW1hZScsICc8aW5maWxlLm1hZT4nLCAnLW9tYWUnLCAnPG91dGZpbGUubWFlPic=

> <r_lp_tautomer_probability>
1

> <r_epik_Ionization_Penalty>
0.000536334

> <r_epik_Ionization_Penalty_Charging>
0

> <r_epik_Ionization_Penalty_Neutral>
0.000536334

> <r_epik_State_Penalty>
-0

> <r_epik_Charging_Adjusted_Penalty>
0

> <i_epik_Tot_Q>
0

> <i_epik_Tot_abs_Q>
0

> <r_epik_Metal_State_Penalty>
-0

> <b_epik_Metal_Only>
0

> <s_lp_Force_Field>
OPLS_2005

> <r_lp_Energy>
29.3296

> <b_lp_Chiralities_Consistent>
1

> <s_lp_Variant>
AV-unprocessed.smi:556-1

> <Gold.Version>
5.8.1

> <Gold.Id.Protein>
6NUR|6NUR_protein|mol2

> <Gold.PLP.Fitness>
38.4578

> <Gold.PLP.PLP>
-36.3753

> <Gold.PLP.part.hbond>
-1.0000

> <Gold.PLP.part.metal>
0.0000

> <Gold.PLP.part.buried>
-4.8027

> <Gold.PLP.part.nonpolar>
-31.2746

> <Gold.PLP.part.repulsive>
1.4184

> <Gold.PLP.ligand.clash>
0.0000

> <Gold.PLP.ligand.torsion>
0.4656

> <Gold.PLP.Chemscore.Hbond>
1.0000

> <Gold.PLP.Chemscore.CHOScore>
0.0000

> <Gold.PLP.Chemscore.Metal>
0.0000

> <Gold.Chemscore.Hbonds>
donor molecule, donor type, donor heavy atom, donor atom, acceptor molecule, acceptor atom, score
      L1  H    10    29       P1  8028  1.00

> <Gold.PLP.Chemscore.Internal.Correction>
0.0137

> <Gold.Rescore>
     Score         DG    S(hbond)    S(metal)    S(lipo)     H(rot)  DE(clash)    DE(int)     intcor
     14.63     -15.17       0.98        0.00      85.60       1.40       0.10       0.43       ----

> <Gold.Chemscore.Fitness>
14.6333

> <Gold.Chemscore.DG>
-15.1692

> <Gold.Chemscore.ZeroCoef>
-5.4800

> <Gold.Chemscore.Hbond>
0.9757

> <Gold.Chemscore.Metal>
0.0000

> <Gold.Chemscore.Lipo>
85.5951

> <Gold.Chemscore.Internal_Hbond>
0.0000

> <Gold.Chemscore.DEClash>
0.1024

> <Gold.Chemscore.DEInternal>
0.4335

> <Gold.Chemscore.Rot>
1.4001

> <Gold.Chemscore.Internal.Correction>
   9.000000E+99

> <Gold.Chemscore.Hbonds>
donor molecule, donor type, donor heavy atom, donor atom, acceptor molecule, acceptor atom, score
      L1  H    10    29       P1  8028  0.95

> <Gold.Chemscore.Hbond.Weighted>
-3.2588

> <Gold.Chemscore.Metal.Weighted>
-0.0000

> <Gold.Chemscore.Lipo.Weighted>
-10.0146

> <Gold.Chemscore.Internal_Hbond.Weighted>
0.0000

> <Gold.Chemscore.DEClash.Weighted>
0.1024

> <Gold.Chemscore.DEInternal.Weighted>
0.4335

> <Gold.Chemscore.Rot.Weighted>
3.5842

> <Gold.Chemscore.Internal.Correction.Weighted>
   9.000000E+99

> <Gold.Protein.RotatedTorsions>
[ 6907 6896 6895 6894 ] final   29.88 input  -60.11 | X-H torsion
[ 7974 7965 7964 7962 ] final  -44.56 input  175.53 | X-H torsion
[ 8008 7997 7996 7995 ] final -120.73 input   59.86 | X-H torsion
[ 10167 10162 10161 10158 ] final -153.07 input  -65.29 | X-H torsion
[ 10718 10713 10712 10709 ] final  123.91 input   66.30 | X-H torsion
[ 10763 10752 10751 10750 ] final -141.94 input  -60.55 | X-H torsion
[ 11005 11000 10999 10996 ] final  137.01 input  -57.11 | X-H torsion

> <Gold.Protein.ActiveResidues>
 VAL166  LYS551  ARG553  GLY616  TRP617  ASP618  TYR619  PRO620  LYS621  CYS622 
 ASP623  PHE694  ASN695  SER759  ASP760  ASP761  ALA762  ILE779  LEU786  VAL792 
 PHE793  MET794  SER795  GLU796  ALA797  LYS798  CYS799  TRP800  GLU811  SER814 

> <Gold.Protein.RotatedAtoms>
  152.0379  134.9729  160.0573 H   0  0  0  0  0  0  0  0  0  0  0  0  # atno 6907 bound_to 6896
  152.1179  133.4332  159.4670 H   0  0  0  0  0  0  0  0  0  0  0  0  # atno 6908 bound_to 6896
  150.6847  134.2488  159.4546 H   0  0  0  0  0  0  0  0  0  0  0  0  # atno 6909 bound_to 6896
  145.9908  140.7183  142.9318 H   0  0  0  0  0  0  0  0  0  0  0  0  # atno 7974 bound_to 7965
  155.1365  140.0401  157.2788 H   0  0  0  0  0  0  0  0  0  0  0  0  # atno 8008 bound_to 7997
  154.6504  140.2568  155.7194 H   0  0  0  0  0  0  0  0  0  0  0  0  # atno 8009 bound_to 7997
  156.2574  140.2837  156.0935 H   0  0  0  0  0  0  0  0  0  0  0  0  # atno 8010 bound_to 7997
  139.7127  143.9082  152.2474 H   0  0  0  0  0  0  0  0  0  0  0  0  # atno 10167 bound_to 10162
  157.5627  131.1088  150.8510 H   0  0  0  0  0  0  0  0  0  0  0  0  # atno 10718 bound_to 10713
  154.8527  135.3510  154.5949 H   0  0  0  0  0  0  0  0  0  0  0  0  # atno 10763 bound_to 10752
  153.6558  135.6992  153.5198 H   0  0  0  0  0  0  0  0  0  0  0  0  # atno 10764 bound_to 10752
  153.2857  135.4250  155.1078 H   0  0  0  0  0  0  0  0  0  0  0  0  # atno 10765 bound_to 10752
  140.0085  134.9449  157.0227 H   0  0  0  0  0  0  0  0  0  0  0  0  # atno 11005 bound_to 11000
  144.6888  140.3066  143.7255 LP  0  0  0  0  0  0  0  0  0  0  0  0  # atno 17320 bound_to 7965
  145.7633  139.1832  143.2254 LP  0  0  0  0  0  0  0  0  0  0  0  0  # atno 17321 bound_to 7965
  139.8956  144.6941  150.8722 LP  0  0  0  0  0  0  0  0  0  0  0  0  # atno 17342 bound_to 10162
  140.7737  143.3553  151.1934 LP  0  0  0  0  0  0  0  0  0  0  0  0  # atno 17343 bound_to 10162
  156.9003  130.5244  149.5283 LP  0  0  0  0  0  0  0  0  0  0  0  0  # atno 17370 bound_to 10713
  156.0678  130.5717  150.9323 LP  0  0  0  0  0  0  0  0  0  0  0  0  # atno 17371 bound_to 10713
  140.4597  134.1496  155.7190 LP  0  0  0  0  0  0  0  0  0  0  0  0  # atno 17394 bound_to 11000
  141.1694  133.8639  157.1617 LP  0  0  0  0  0  0  0  0  0  0  0  0  # atno 17395 bound_to 11000

$$$$
