AV-unprocessed.smi:1252|AV-procd|sdf|5264|dock3
  -GOLD-   22720 4373D 1   1.00000     0.00000
 Structure written by MMmdl.
 43 44  0  0  0  0  0  0  0  0  1 V2000
  149.5522  137.0467  159.4589 C   0  0  0  0  0  0  0  0  0  0  0  0
  148.1049  136.5290  159.5352 C   0  0  2  0  0  0  0  0  0  0  0  0
  147.1135  137.4693  158.8343 C   0  0  0  0  0  0  0  0  0  0  0  0
  146.2213  138.0266  159.4752 O   0  0  0  0  0  0  0  0  0  0  0  0
  147.2869  137.6352  157.5138 N   0  0  0  0  0  0  0  0  0  0  0  0
  146.4852  138.4947  156.6436 C   0  0  0  0  0  0  0  0  0  0  0  0
  147.1935  139.8369  156.2892 C   0  0  0  0  0  0  0  0  0  0  0  0
  146.4402  140.4427  155.0805 C   0  0  0  0  0  0  0  0  0  0  0  0
  146.9651  140.7923  157.4881 C   0  0  0  0  0  0  0  0  0  0  0  0
  148.6484  139.6415  156.0315 N   0  0  0  0  0  0  0  0  0  0  0  0
  148.9636  138.8687  154.8240 C   0  0  0  0  0  0  0  0  0  0  0  0
  150.4718  138.5994  154.6871 C   0  0  0  0  0  0  0  0  0  0  0  0
  151.1804  139.8327  154.6874 O   0  0  0  0  0  0  0  0  0  0  0  0
  150.9502  140.5893  155.8697 C   0  0  0  0  0  0  0  0  0  0  0  0
  149.4458  140.8737  156.0193 C   0  0  0  0  0  0  0  0  0  0  0  0
  147.7042  136.3033  160.9171 N   0  0  0  0  0  0  0  0  0  0  0  0
  146.8369  135.4375  161.4507 C   0  0  0  0  0  0  0  0  0  0  0  0
  146.7187  135.5375  162.7672 N   0  0  0  0  0  0  0  0  0  0  0  0
  147.5970  136.5580  162.9973 C   0  0  0  0  0  0  0  0  0  0  0  0
  148.2107  137.0553  161.9235 N   0  0  0  0  0  0  0  0  0  0  0  0
  149.8527  137.2280  158.4261 H   0  0  0  0  0  0  0  0  0  0  0  0
  150.2461  136.3178  159.8786 H   0  0  0  0  0  0  0  0  0  0  0  0
  149.6800  137.9786  160.0112 H   0  0  0  0  0  0  0  0  0  0  0  0
  148.0745  135.5694  159.0148 H   0  0  0  0  0  0  0  0  0  0  0  0
  148.0498  137.1400  157.0754 H   0  0  0  0  0  0  0  0  0  0  0  0
  146.2581  137.9271  155.7417 H   0  0  0  0  0  0  0  0  0  0  0  0
  145.5091  138.6859  157.0938 H   0  0  0  0  0  0  0  0  0  0  0  0
  145.3828  140.5817  155.3093 H   0  0  0  0  0  0  0  0  0  0  0  0
  146.4889  139.8008  154.2011 H   0  0  0  0  0  0  0  0  0  0  0  0
  146.8304  141.4206  154.7993 H   0  0  0  0  0  0  0  0  0  0  0  0
  145.9211  140.7958  157.8040 H   0  0  0  0  0  0  0  0  0  0  0  0
  147.2109  141.8260  157.2454 H   0  0  0  0  0  0  0  0  0  0  0  0
  147.5657  140.5063  158.3522 H   0  0  0  0  0  0  0  0  0  0  0  0
  148.4551  137.9064  154.8329 H   0  0  0  0  0  0  0  0  0  0  0  0
  148.6206  139.4001  153.9361 H   0  0  0  0  0  0  0  0  0  0  0  0
  150.8268  137.9662  155.5018 H   0  0  0  0  0  0  0  0  0  0  0  0
  150.6785  138.0704  153.7567 H   0  0  0  0  0  0  0  0  0  0  0  0
  151.3286  140.0469  156.7374 H   0  0  0  0  0  0  0  0  0  0  0  0
  151.5075  141.5241  155.8087 H   0  0  0  0  0  0  0  0  0  0  0  0
  149.1285  141.5207  155.2016 H   0  0  0  0  0  0  0  0  0  0  0  0
  149.3072  141.4361  156.9407 H   0  0  0  0  0  0  0  0  0  0  0  0
  146.2802  134.7217  160.8635 H   0  0  0  0  0  0  0  0  0  0  0  0
  147.7880  136.9481  163.9862 H   0  0  0  0  0  0  0  0  0  0  0  0
  1  2  1  0  0  0  0
  1 21  1  0  0  0  0
  1 22  1  0  0  0  0
  1 23  1  0  0  0  0
  2  3  1  0  0  0  0
  2 16  1  0  0  0  0
  2 24  1  0  0  0  0
  3  4  2  0  0  0  0
  3  5  1  0  0  0  0
  5  6  1  0  0  0  0
  5 25  1  0  0  0  0
  6  7  1  0  0  0  0
  6 26  1  0  0  0  0
  6 27  1  0  0  0  0
  7  8  1  0  0  0  0
  7  9  1  0  0  0  0
  7 10  1  0  0  0  0
  8 28  1  0  0  0  0
  8 29  1  0  0  0  0
  8 30  1  0  0  0  0
  9 31  1  0  0  0  0
  9 32  1  0  0  0  0
  9 33  1  0  0  0  0
 10 15  1  0  0  0  0
 10 11  1  0  0  0  0
 11 12  1  0  0  0  0
 11 34  1  0  0  0  0
 11 35  1  0  0  0  0
 12 13  1  0  0  0  0
 12 36  1  0  0  0  0
 12 37  1  0  0  0  0
 13 14  1  0  0  0  0
 14 15  1  0  0  0  0
 14 38  1  0  0  0  0
 14 39  1  0  0  0  0
 15 40  1  0  0  0  0
 15 41  1  0  0  0  0
 16 20  1  0  0  0  0
 16 17  1  0  0  0  0
 17 18  2  0  0  0  0
 17 42  1  0  0  0  0
 18 19  1  0  0  0  0
 19 20  2  0  0  0  0
 19 43  1  0  0  0  0
M  END
> <s_m_source_file>
AV-unprocessed.smi

> <i_m_source_file_index>
1252

> <i_lp_mmshare_version>
43012

> <i_f3d_flags>
0

> <s_epik_input>
bjFbY0hdbltjSF1uMVtDQEhdKFtDSDNdKUMoPU8pW05IXVtDSDJdQyhbQ0gzXSkoW0NIM10pTjJbQ0gyXVtDSDJdT1tDSDJdW0NIMl0y

> <s_epik_cmdline>
J2VwaWtfcHl0aG9uJywgJy1waCcsICc3LjAnLCAnLXRuJywgJzgnLCAnLW1hJywgJzIwMCcsICctbWV0YWxfYmluZGluZycsICctaW1hZScsICc8aW5maWxlLm1hZT4nLCAnLW9tYWUnLCAnPG91dGZpbGUubWFlPic=

> <r_lp_tautomer_probability>
1

> <r_epik_Ionization_Penalty>
0.211373

> <r_epik_Ionization_Penalty_Charging>
0

> <r_epik_Ionization_Penalty_Neutral>
0.211373

> <r_epik_State_Penalty>
0.201459

> <r_epik_Charging_Adjusted_Penalty>
0.201459

> <i_epik_Tot_Q>
0

> <i_epik_Tot_abs_Q>
0

> <r_epik_Metal_State_Penalty>
0.201458

> <b_epik_Metal_Only>
0

> <s_lp_Force_Field>
OPLS_2005

> <r_lp_Energy>
48.0219

> <b_lp_Chiralities_Consistent>
1

> <s_lp_Variant>
AV-unprocessed.smi:1252-1

> <Gold.Version>
5.8.1

> <Gold.Id.Protein>
6NUR|6NUR_protein|mol2

> <Gold.PLP.Fitness>
33.7139

> <Gold.PLP.PLP>
-27.8076

> <Gold.PLP.part.hbond>
-3.1551

> <Gold.PLP.part.metal>
0.0000

> <Gold.PLP.part.buried>
-6.5343

> <Gold.PLP.part.nonpolar>
-19.9221

> <Gold.PLP.part.repulsive>
0.1094

> <Gold.PLP.ligand.clash>
0.0000

> <Gold.PLP.ligand.torsion>
1.3384

> <Gold.PLP.Chemscore.Hbond>
2.8160

> <Gold.PLP.Chemscore.CHOScore>
0.0000

> <Gold.PLP.Chemscore.Metal>
0.0000

> <Gold.Chemscore.Hbonds>
donor molecule, donor type, donor heavy atom, donor atom, acceptor molecule, acceptor atom, score
      P1  H  6931  6943       L1    20  0.80
      P1  H  6934  6947       L1     4  0.75
      P1  H  7989  7998       L1    13  1.00

> <Gold.PLP.Chemscore.Internal.Correction>
0.1351

> <Gold.Rescore>
     Score         DG    S(hbond)    S(metal)    S(lipo)     H(rot)  DE(clash)    DE(int)     intcor
     10.58     -11.77       2.57        0.00      35.35       2.52       0.00       1.19       ----

> <Gold.Chemscore.Fitness>
10.5809

> <Gold.Chemscore.DG>
-11.7718

> <Gold.Chemscore.ZeroCoef>
-5.4800

> <Gold.Chemscore.Hbond>
2.5732

> <Gold.Chemscore.Metal>
0.0000

> <Gold.Chemscore.Lipo>
35.3538

> <Gold.Chemscore.Internal_Hbond>
0.0000

> <Gold.Chemscore.DEClash>
0.0009

> <Gold.Chemscore.DEInternal>
1.1900

> <Gold.Chemscore.Rot>
2.5153

> <Gold.Chemscore.Internal.Correction>
   9.000000E+99

> <Gold.Chemscore.Hbonds>
donor molecule, donor type, donor heavy atom, donor atom, acceptor molecule, acceptor atom, score
      P1  H  6931  6943       L1    20  0.78
      P1  H  6934  6947       L1     4  0.36
      P1  H  7989  7998       L1    13  0.65

> <Gold.Chemscore.Hbond.Weighted>
-8.5946

> <Gold.Chemscore.Metal.Weighted>
-0.0000

> <Gold.Chemscore.Lipo.Weighted>
-4.1364

> <Gold.Chemscore.Internal_Hbond.Weighted>
0.0000

> <Gold.Chemscore.DEClash.Weighted>
0.0009

> <Gold.Chemscore.DEInternal.Weighted>
1.1900

> <Gold.Chemscore.Rot.Weighted>
6.4392

> <Gold.Chemscore.Internal.Correction.Weighted>
   9.000000E+99

> <Gold.Protein.RotatedTorsions>
[ 6907 6896 6895 6894 ] final  159.37 input  -60.11 | X-H torsion
[ 7974 7965 7964 7962 ] final  110.92 input  175.53 | X-H torsion
[ 8008 7997 7996 7995 ] final -113.76 input   59.86 | X-H torsion
[ 10167 10162 10161 10158 ] final -112.68 input  -65.29 | X-H torsion
[ 10718 10713 10712 10709 ] final  -20.01 input   66.30 | X-H torsion
[ 10763 10752 10751 10750 ] final  100.27 input  -60.55 | X-H torsion
[ 11005 11000 10999 10996 ] final  -49.34 input  -57.11 | X-H torsion

> <Gold.Protein.ActiveResidues>
 VAL166  LYS551  ARG553  GLY616  TRP617  ASP618  TYR619  PRO620  LYS621  CYS622 
 ASP623  PHE694  ASN695  SER759  ASP760  ASP761  ALA762  ILE779  LEU786  VAL792 
 PHE793  MET794  SER795  GLU796  ALA797  LYS798  CYS799  TRP800  GLU811  SER814 

> <Gold.Protein.RotatedAtoms>
  151.9866  133.3776  159.4127 H   0  0  0  0  0  0  0  0  0  0  0  0  # atno 6907 bound_to 6896
  150.6927  134.3982  159.5116 H   0  0  0  0  0  0  0  0  0  0  0  0  # atno 6908 bound_to 6896
  152.1709  134.8835  160.0585 H   0  0  0  0  0  0  0  0  0  0  0  0  # atno 6909 bound_to 6896
  145.2488  139.2748  143.4078 H   0  0  0  0  0  0  0  0  0  0  0  0  # atno 7974 bound_to 7965
  155.0257  140.0393  157.2455 H   0  0  0  0  0  0  0  0  0  0  0  0  # atno 8008 bound_to 7997
  154.7339  140.2736  155.6408 H   0  0  0  0  0  0  0  0  0  0  0  0  # atno 8009 bound_to 7997
  156.2848  140.2678  156.2047 H   0  0  0  0  0  0  0  0  0  0  0  0  # atno 8010 bound_to 7997
  140.1200  143.4451  152.1697 H   0  0  0  0  0  0  0  0  0  0  0  0  # atno 10167 bound_to 10162
  156.5377  130.4670  149.6514 H   0  0  0  0  0  0  0  0  0  0  0  0  # atno 10718 bound_to 10713
  153.3118  135.4085  155.1342 H   0  0  0  0  0  0  0  0  0  0  0  0  # atno 10763 bound_to 10752
  154.8578  135.3566  154.5713 H   0  0  0  0  0  0  0  0  0  0  0  0  # atno 10764 bound_to 10752
  153.6143  135.7067  153.5393 H   0  0  0  0  0  0  0  0  0  0  0  0  # atno 10765 bound_to 10752
  141.0753  133.6667  156.3571 H   0  0  0  0  0  0  0  0  0  0  0  0  # atno 11005 bound_to 11000
  146.3308  140.2873  142.8613 LP  0  0  0  0  0  0  0  0  0  0  0  0  # atno 17320 bound_to 7965
  144.9521  140.8189  143.5565 LP  0  0  0  0  0  0  0  0  0  0  0  0  # atno 17321 bound_to 7965
  139.5573  144.7382  151.4256 LP  0  0  0  0  0  0  0  0  0  0  0  0  # atno 17342 bound_to 10162
  140.6877  143.7935  150.7210 LP  0  0  0  0  0  0  0  0  0  0  0  0  # atno 17343 bound_to 10162
  156.3000  130.7172  151.2041 LP  0  0  0  0  0  0  0  0  0  0  0  0  # atno 17370 bound_to 10713
  157.7411  131.0509  150.5122 LP  0  0  0  0  0  0  0  0  0  0  0  0  # atno 17371 bound_to 10713
  140.5586  134.5956  157.5427 LP  0  0  0  0  0  0  0  0  0  0  0  0  # atno 17394 bound_to 11000
  139.9565  134.7525  156.0329 LP  0  0  0  0  0  0  0  0  0  0  0  0  # atno 17395 bound_to 11000

$$$$
