AV-unprocessed.smi:372|AV-procd|sdf|2448|dock1
  -GOLD-   2262022383D 1   1.00000     0.00000
 Structure written by MMmdl.
 22 23  0  0  0  0  0  0  0  0  2 V2000
  150.3486  139.4702  158.6655 C   0  0  0  0  0  0  0  0  0  0  0  0
  151.1467  140.2515  157.6013 C   0  0  2  0  0  0  0  0  0  0  0  0
  151.5316  141.6523  158.1247 C   0  0  0  0  0  0  0  0  0  0  0  0
  152.3330  141.8328  159.2809 C   0  0  0  0  0  0  0  0  0  0  0  0
  152.6576  143.1396  159.6919 C   0  0  0  0  0  0  0  0  0  0  0  0
  152.1810  144.2281  158.9393 C   0  0  0  0  0  0  0  0  0  0  0  0
  151.3982  143.9573  157.8018 C   0  0  0  0  0  0  0  0  0  0  0  0
  151.0827  142.7084  157.4003 N   0  0  0  0  0  0  0  0  0  0  0  0
  150.3733  140.2809  156.3635 N   0  5  0  0  0  0  0  0  0  0  0  0
  151.0826  139.6826  155.3791 C   0  0  0  0  0  0  0  0  0  0  0  0
  150.7634  139.5411  154.2010 O   0  0  0  0  0  0  0  0  0  0  0  0
  152.2433  139.2213  155.8506 N   0  0  0  0  0  0  0  0  0  0  0  0
  152.3800  139.4681  157.1494 C   0  0  0  0  0  0  0  0  0  0  0  0
  153.3140  139.1141  157.8693 O   0  0  0  0  0  0  0  0  0  0  0  0
  150.9161  139.3564  159.5898 H   0  0  0  0  0  0  0  0  0  0  0  0
  150.0858  138.4688  158.3210 H   0  0  0  0  0  0  0  0  0  0  0  0
  149.4200  139.9853  158.9142 H   0  0  0  0  0  0  0  0  0  0  0  0
  152.7026  140.9953  159.8532 H   0  0  0  0  0  0  0  0  0  0  0  0
  153.2645  143.3032  160.5700 H   0  0  0  0  0  0  0  0  0  0  0  0
  152.4108  145.2436  159.2252 H   0  0  0  0  0  0  0  0  0  0  0  0
  151.0152  144.7657  157.1967 H   0  0  0  0  0  0  0  0  0  0  0  0
  152.9211  138.7231  155.2937 H   0  0  0  0  0  0  0  0  0  0  0  0
  1  2  1  0  0  0  0
  1 15  1  0  0  0  0
  1 16  1  0  0  0  0
  1 17  1  0  0  0  0
  2 13  1  0  0  0  0
  2  3  1  0  0  0  0
  2  9  1  0  0  0  0
  3  8  1  0  0  0  0
  3  4  2  0  0  0  0
  4  5  1  0  0  0  0
  4 18  1  0  0  0  0
  5  6  2  0  0  0  0
  5 19  1  0  0  0  0
  6  7  1  0  0  0  0
  6 20  1  0  0  0  0
  7  8  2  0  0  0  0
  7 21  1  0  0  0  0
  9 10  1  0  0  0  0
 10 11  2  0  0  0  0
 10 12  1  0  0  0  0
 12 13  1  0  0  0  0
 12 22  1  0  0  0  0
 13 14  2  0  0  0  0
M  CHG  1   9  -1
M  END
> <s_m_source_file>
AV-unprocessed.smi

> <i_m_source_file_index>
372

> <i_lp_mmshare_version>
43012

> <i_f3d_flags>
0

> <s_epik_input>
Tz1DMVtOSF1DKD1PKVtOSF1bQ0BAXTEoW0NIM10pYzJbY0hdW2NIXVtjSF1bY0hdbjI=

> <s_epik_cmdline>
J2VwaWtfcHl0aG9uJywgJy1waCcsICc3LjAnLCAnLXRuJywgJzgnLCAnLW1hJywgJzIwMCcsICctbWV0YWxfYmluZGluZycsICctaW1hZScsICc8aW5maWxlLm1hZT4nLCAnLW9tYWUnLCAnPG91dGZpbGUubWFlPic=

> <r_lp_tautomer_probability>
1

> <r_epik_Ionization_Penalty>
4.88994

> <r_epik_Ionization_Penalty_Charging>
4.8337

> <r_epik_Ionization_Penalty_Neutral>
0.0562367

> <r_epik_State_Penalty>
4.86848

> <r_epik_Charging_Adjusted_Penalty>
9.70218

> <i_epik_Tot_Q>
-1

> <i_epik_Tot_abs_Q>
1

> <r_epik_Metal_State_Penalty>
1.42536

> <b_epik_Metal_Only>
1

> <s_lp_Force_Field>
OPLS_2005

> <r_lp_Energy>
15.0122

> <b_lp_Chiralities_Consistent>
1

> <s_lp_Variant>
AV-unprocessed.smi:372-6

> <Gold.Version>
5.8.1

> <Gold.Id.Protein>
6NUR|6NUR_protein|mol2

> <Gold.PLP.Fitness>
33.7827

> <Gold.PLP.PLP>
-24.7905

> <Gold.PLP.part.hbond>
-2.0000

> <Gold.PLP.part.metal>
0.0000

> <Gold.PLP.part.buried>
-1.6610

> <Gold.PLP.part.nonpolar>
-22.0895

> <Gold.PLP.part.repulsive>
0.4585

> <Gold.PLP.ligand.clash>
0.0000

> <Gold.PLP.ligand.torsion>
0.0301

> <Gold.PLP.Chemscore.Hbond>
2.0000

> <Gold.PLP.Chemscore.CHOScore>
0.9996

> <Gold.PLP.Chemscore.Metal>
0.0000

> <Gold.Chemscore.Hbonds>
donor molecule, donor type, donor heavy atom, donor atom, acceptor molecule, acceptor atom, score
      P1  H  7989  7998       L1    11  1.00
      P1  H  7997  8008       L1    14  1.00
      L1  C     7    21       P1  8028  0.84

> <Gold.PLP.Chemscore.Internal.Correction>
0.0536

> <Gold.Rescore>
     Score         DG    S(hbond)    S(metal)    S(lipo)     H(rot)  DE(clash)    DE(int)     intcor
     13.80     -13.83       0.93        0.00      66.76       1.00       0.00       0.03       ----

> <Gold.Chemscore.Fitness>
13.7991

> <Gold.Chemscore.DG>
-13.8284

> <Gold.Chemscore.ZeroCoef>
-5.4800

> <Gold.Chemscore.Hbond>
0.9275

> <Gold.Chemscore.Metal>
0.0000

> <Gold.Chemscore.Lipo>
66.7566

> <Gold.Chemscore.Internal_Hbond>
0.0000

> <Gold.Chemscore.DEClash>
0.0000

> <Gold.Chemscore.DEInternal>
0.0293

> <Gold.Chemscore.Rot>
1.0000

> <Gold.Chemscore.Internal.Correction>
   9.000000E+99

> <Gold.Chemscore.Hbonds>
donor molecule, donor type, donor heavy atom, donor atom, acceptor molecule, acceptor atom, score
      P1  H  7989  7998       L1    11  0.30
      P1  H  7997  8008       L1    14  0.43

> <Gold.Chemscore.Hbond.Weighted>
-3.0979

> <Gold.Chemscore.Metal.Weighted>
-0.0000

> <Gold.Chemscore.Lipo.Weighted>
-7.8105

> <Gold.Chemscore.Internal_Hbond.Weighted>
0.0000

> <Gold.Chemscore.DEClash.Weighted>
0.0000

> <Gold.Chemscore.DEInternal.Weighted>
0.0293

> <Gold.Chemscore.Rot.Weighted>
2.5600

> <Gold.Chemscore.Internal.Correction.Weighted>
   9.000000E+99

> <Gold.Protein.RotatedTorsions>
[ 6907 6896 6895 6894 ] final  -52.93 input  -60.11 | X-H torsion
[ 7974 7965 7964 7962 ] final   -8.62 input  175.53 | X-H torsion
[ 8008 7997 7996 7995 ] final -101.17 input   59.86 | X-H torsion
[ 10167 10162 10161 10158 ] final -175.38 input  -65.29 | X-H torsion
[ 10718 10713 10712 10709 ] final   67.53 input   66.30 | X-H torsion
[ 10763 10752 10751 10750 ] final   57.47 input  -60.55 | X-H torsion
[ 11005 11000 10999 10996 ] final  -76.61 input  -57.11 | X-H torsion

> <Gold.Protein.ActiveResidues>
 VAL166  LYS551  ARG553  GLY616  TRP617  ASP618  TYR619  PRO620  LYS621  CYS622 
 ASP623  PHE694  ASN695  SER759  ASP760  ASP761  ALA762  ILE779  LEU786  VAL792 
 PHE793  MET794  SER795  GLU796  ALA797  LYS798  CYS799  TRP800  GLU811  SER814 

> <Gold.Protein.RotatedAtoms>
  150.8473  134.7786  159.6979 H   0  0  0  0  0  0  0  0  0  0  0  0  # atno 6907 bound_to 6896
  152.4546  134.5316  159.9822 H   0  0  0  0  0  0  0  0  0  0  0  0  # atno 6908 bound_to 6896
  151.5443  133.3389  159.2977 H   0  0  0  0  0  0  0  0  0  0  0  0  # atno 6909 bound_to 6896
  146.2275  140.2495  142.8347 H   0  0  0  0  0  0  0  0  0  0  0  0  # atno 7974 bound_to 7965
  154.8388  140.0436  157.1527 H   0  0  0  0  0  0  0  0  0  0  0  0  # atno 8008 bound_to 7997
  154.9069  140.3008  155.5266 H   0  0  0  0  0  0  0  0  0  0  0  0  # atno 8009 bound_to 7997
  156.2991  140.2365  156.4104 H   0  0  0  0  0  0  0  0  0  0  0  0  # atno 8010 bound_to 7997
  139.5584  144.1931  152.1198 H   0  0  0  0  0  0  0  0  0  0  0  0  # atno 10167 bound_to 10162
  157.6236  130.9326  150.0255 H   0  0  0  0  0  0  0  0  0  0  0  0  # atno 10718 bound_to 10713
  152.9850  135.5640  154.5395 H   0  0  0  0  0  0  0  0  0  0  0  0  # atno 10763 bound_to 10752
  154.4852  135.2790  155.1541 H   0  0  0  0  0  0  0  0  0  0  0  0  # atno 10764 bound_to 10752
  154.3033  135.6303  153.5487 H   0  0  0  0  0  0  0  0  0  0  0  0  # atno 10765 bound_to 10752
  141.1655  133.6990  156.7694 H   0  0  0  0  0  0  0  0  0  0  0  0  # atno 11005 bound_to 11000
  144.9422  140.8091  143.5623 LP  0  0  0  0  0  0  0  0  0  0  0  0  # atno 17320 bound_to 7965
  145.2448  139.2057  143.4973 LP  0  0  0  0  0  0  0  0  0  0  0  0  # atno 17321 bound_to 7965
  140.1440  144.5176  150.6727 LP  0  0  0  0  0  0  0  0  0  0  0  0  # atno 17342 bound_to 10162
  140.6860  143.2350  151.5258 LP  0  0  0  0  0  0  0  0  0  0  0  0  # atno 17343 bound_to 10162
  156.1395  130.3642  149.9605 LP  0  0  0  0  0  0  0  0  0  0  0  0  # atno 17370 bound_to 10713
  156.7649  130.9164  151.3642 LP  0  0  0  0  0  0  0  0  0  0  0  0  # atno 17371 bound_to 10713
  140.2475  134.8566  157.3634 LP  0  0  0  0  0  0  0  0  0  0  0  0  # atno 17394 bound_to 11000
  140.1735  134.4579  155.7816 LP  0  0  0  0  0  0  0  0  0  0  0  0  # atno 17395 bound_to 11000

$$$$
