AV-unprocessed.smi:2351|AV-procd|sdf|9376|dock7
  -GOLD-   2272013 03D 1   1.00000     0.00000
 Structure written by MMmdl.
 47 49  0  0  0  0  0  0  0  0  2 V2000
  152.7926  139.5131  156.1701 O   0  0  0  0  0  0  0  0  0  0  0  0
  151.7147  140.0256  156.4691 C   0  0  0  0  0  0  0  0  0  0  0  0
  151.4597  140.7084  157.5984 N   0  0  0  0  0  0  0  0  0  0  0  0
  152.3236  140.9774  158.6958 C   0  0  0  0  0  0  0  0  0  0  0  0
  153.2732  140.0607  159.2092 C   0  0  0  0  0  0  0  0  0  0  0  0
  154.0779  140.4602  160.2952 C   0  0  0  0  0  0  0  0  0  0  0  0
  153.9985  141.6776  160.8727 N   0  0  0  0  0  0  0  0  0  0  0  0
  153.1013  142.5533  160.3726 C   0  0  0  0  0  0  0  0  0  0  0  0
  152.2497  142.2552  159.2899 C   0  0  0  0  0  0  0  0  0  0  0  0
  151.3731  143.1826  158.8339 F   0  0  0  0  0  0  0  0  0  0  0  0
  150.6230  139.9482  155.6938 N   0  0  0  0  0  0  0  0  0  0  0  0
  150.5493  139.2686  154.4002 C   0  0  2  0  0  0  0  0  0  0  0  0
  149.0850  138.9852  154.0238 C   0  0  0  0  0  0  0  0  0  0  0  0
  148.4678  137.8761  154.8959 C   0  0  0  0  0  0  0  0  0  0  0  0
  149.2743  136.6292  154.8404 N   0  3  2  0  0  0  0  0  0  0  0  0
  148.6219  135.5088  155.5656 C   0  0  0  0  0  0  0  0  0  0  0  0
  149.4858  134.2324  155.5969 C   0  0  2  0  0  0  0  0  0  0  0  0
  149.6291  133.5367  154.2570 C   0  0  0  0  0  0  0  0  0  0  0  0
  150.0577  132.1316  154.6701 C   0  0  0  0  0  0  0  0  0  0  0  0
  149.4768  131.9068  155.9517 O   0  0  0  0  0  0  0  0  0  0  0  0
  148.8849  133.1068  156.4383 C   0  0  0  0  0  0  0  0  0  0  0  0
  150.6796  136.8683  155.2642 C   0  0  0  0  0  0  0  0  0  0  0  0
  151.3456  137.9483  154.3939 C   0  0  0  0  0  0  0  0  0  0  0  0
  150.5072  141.0185  157.7227 H   0  0  0  0  0  0  0  0  0  0  0  0
  153.4105  139.0751  158.7931 H   0  0  0  0  0  0  0  0  0  0  0  0
  154.8104  139.7826  160.7084 H   0  0  0  0  0  0  0  0  0  0  0  0
  153.0611  143.5219  160.8489 H   0  0  0  0  0  0  0  0  0  0  0  0
  149.7818  140.4028  156.0179 H   0  0  0  0  0  0  0  0  0  0  0  0
  150.9698  139.9387  153.6481 H   0  0  0  0  0  0  0  0  0  0  0  0
  148.4904  139.8966  154.0987 H   0  0  0  0  0  0  0  0  0  0  0  0
  149.0384  138.6802  152.9774 H   0  0  0  0  0  0  0  0  0  0  0  0
  148.3817  138.2094  155.9312 H   0  0  0  0  0  0  0  0  0  0  0  0
  147.4549  137.6744  154.5452 H   0  0  0  0  0  0  0  0  0  0  0  0
  148.3727  135.8254  156.5795 H   0  0  0  0  0  0  0  0  0  0  0  0
  147.6745  135.2687  155.0807 H   0  0  0  0  0  0  0  0  0  0  0  0
  150.4789  134.4480  155.9919 H   0  0  0  0  0  0  0  0  0  0  0  0
  148.6682  133.4973  153.7419 H   0  0  0  0  0  0  0  0  0  0  0  0
  150.3499  134.0204  153.5971 H   0  0  0  0  0  0  0  0  0  0  0  0
  149.7437  131.3741  153.9515 H   0  0  0  0  0  0  0  0  0  0  0  0
  151.1426  132.0769  154.7679 H   0  0  0  0  0  0  0  0  0  0  0  0
  149.0685  133.2374  157.5051 H   0  0  0  0  0  0  0  0  0  0  0  0
  147.8062  133.0413  156.2874 H   0  0  0  0  0  0  0  0  0  0  0  0
  150.7018  137.1619  156.3145 H   0  0  0  0  0  0  0  0  0  0  0  0
  151.2624  135.9519  155.1833 H   0  0  0  0  0  0  0  0  0  0  0  0
  151.4184  137.5818  153.3690 H   0  0  0  0  0  0  0  0  0  0  0  0
  152.3718  138.1127  154.7238 H   0  0  0  0  0  0  0  0  0  0  0  0
  149.3033  136.3583  153.8677 H   0  0  0  0  0  0  0  0  0  0  0  0
  1  2  2  0  0  0  0
  2  3  1  0  0  0  0
  2 11  1  0  0  0  0
  3  4  1  0  0  0  0
  3 24  1  0  0  0  0
  4  9  1  0  0  0  0
  4  5  2  0  0  0  0
  5  6  1  0  0  0  0
  5 25  1  0  0  0  0
  6  7  2  0  0  0  0
  6 26  1  0  0  0  0
  7  8  1  0  0  0  0
  8  9  2  0  0  0  0
  8 27  1  0  0  0  0
  9 10  1  0  0  0  0
 11 12  1  0  0  0  0
 11 28  1  0  0  0  0
 12 23  1  0  0  0  0
 12 13  1  0  0  0  0
 12 29  1  0  0  0  0
 13 14  1  0  0  0  0
 13 30  1  0  0  0  0
 13 31  1  0  0  0  0
 14 15  1  0  0  0  0
 14 32  1  0  0  0  0
 14 33  1  0  0  0  0
 15 16  1  0  0  0  0
 15 22  1  0  0  0  0
 15 47  1  0  0  0  0
 16 17  1  0  0  0  0
 16 34  1  0  0  0  0
 16 35  1  0  0  0  0
 17 21  1  0  0  0  0
 17 18  1  0  0  0  0
 17 36  1  0  0  0  0
 18 19  1  0  0  0  0
 18 37  1  0  0  0  0
 18 38  1  0  0  0  0
 19 20  1  0  0  0  0
 19 39  1  0  0  0  0
 19 40  1  0  0  0  0
 20 21  1  0  0  0  0
 21 41  1  0  0  0  0
 21 42  1  0  0  0  0
 22 23  1  0  0  0  0
 22 43  1  0  0  0  0
 22 44  1  0  0  0  0
 23 45  1  0  0  0  0
 23 46  1  0  0  0  0
M  CHG  1  15   1
M  END
> <s_m_source_file>
AV-unprocessed.smi

> <i_m_source_file_index>
2351

> <i_lp_mmshare_version>
43012

> <i_f3d_flags>
0

> <s_epik_input>
RmMxW2NIXW5bY0hdW2NIXWMxW05IXUMoPU8pW05IXVtDSF0yW0NIMl1bQ0gyXU4oW0NIMl1bQ0gyXTIpW0NIMl1bQ0BASF0zW0NIMl1bQ0gyXU9bQ0gyXTM=

> <s_epik_cmdline>
J2VwaWtfcHl0aG9uJywgJy1waCcsICc3LjAnLCAnLXRuJywgJzgnLCAnLW1hJywgJzIwMCcsICctbWV0YWxfYmluZGluZycsICctaW1hZScsICc8aW5maWxlLm1hZT4nLCAnLW9tYWUnLCAnPG91dGZpbGUubWFlPic=

> <r_epik_Ionization_Penalty>
0.0102464

> <r_epik_Ionization_Penalty_Charging>
0.00747775

> <r_epik_Ionization_Penalty_Neutral>
0.00276864

> <r_epik_State_Penalty>
0.00558817

> <r_epik_Charging_Adjusted_Penalty>
0.0130659

> <i_epik_Tot_Q>
1

> <i_epik_Tot_abs_Q>
1

> <r_epik_Metal_State_Penalty>
-0

> <b_epik_Metal_Only>
0

> <s_lp_Force_Field>
OPLS_2005

> <r_lp_Energy>
39.3269

> <b_lp_Chiralities_Consistent>
1

> <s_lp_Variant>
AV-unprocessed.smi:2351-3

> <Gold.Version>
5.8.1

> <Gold.Id.Protein>
6NUR|6NUR_protein|mol2

> <Gold.PLP.Fitness>
46.3823

> <Gold.PLP.PLP>
-38.6180

> <Gold.PLP.part.hbond>
-2.0000

> <Gold.PLP.part.metal>
0.0000

> <Gold.PLP.part.buried>
-4.6992

> <Gold.PLP.part.nonpolar>
-31.7635

> <Gold.PLP.part.repulsive>
0.1607

> <Gold.PLP.ligand.clash>
0.0000

> <Gold.PLP.ligand.torsion>
0.6311

> <Gold.PLP.Chemscore.Hbond>
3.0000

> <Gold.PLP.Chemscore.CHOScore>
0.0000

> <Gold.PLP.Chemscore.Metal>
0.0000

> <Gold.Chemscore.Hbonds>
donor molecule, donor type, donor heavy atom, donor atom, acceptor molecule, acceptor atom, score
      L1  H    15    47       P1  7948  2.00
      P1  H  7997  8010       L1     1  1.00

> <Gold.PLP.Chemscore.Internal.Correction>
0.0264

> <Gold.Rescore>
     Score         DG    S(hbond)    S(metal)    S(lipo)     H(rot)  DE(clash)    DE(int)     intcor
     17.66     -19.77       1.96        0.00      97.96       1.45       0.12       1.99       ----

> <Gold.Chemscore.Fitness>
17.6583

> <Gold.Chemscore.DG>
-19.7666

> <Gold.Chemscore.ZeroCoef>
-5.4800

> <Gold.Chemscore.Hbond>
1.9561

> <Gold.Chemscore.Metal>
0.0000

> <Gold.Chemscore.Lipo>
97.9584

> <Gold.Chemscore.Internal_Hbond>
0.0000

> <Gold.Chemscore.DEClash>
0.1213

> <Gold.Chemscore.DEInternal>
1.9870

> <Gold.Chemscore.Rot>
1.4483

> <Gold.Chemscore.Internal.Correction>
   9.000000E+99

> <Gold.Chemscore.Hbonds>
donor molecule, donor type, donor heavy atom, donor atom, acceptor molecule, acceptor atom, score
      L1  H    15    47       P1  7948  0.86
      P1  H  7997  8010       L1     1  1.00

> <Gold.Chemscore.Hbond.Weighted>
-6.5332

> <Gold.Chemscore.Metal.Weighted>
-0.0000

> <Gold.Chemscore.Lipo.Weighted>
-11.4611

> <Gold.Chemscore.Internal_Hbond.Weighted>
0.0000

> <Gold.Chemscore.DEClash.Weighted>
0.1213

> <Gold.Chemscore.DEInternal.Weighted>
1.9870

> <Gold.Chemscore.Rot.Weighted>
3.7077

> <Gold.Chemscore.Internal.Correction.Weighted>
   9.000000E+99

> <Gold.Protein.RotatedTorsions>
[ 6907 6896 6895 6894 ] final   23.39 input  -60.11 | X-H torsion
[ 7974 7965 7964 7962 ] final -141.74 input  175.53 | X-H torsion
[ 8008 7997 7996 7995 ] final   83.24 input   59.86 | X-H torsion
[ 10167 10162 10161 10158 ] final  163.19 input  -65.29 | X-H torsion
[ 10718 10713 10712 10709 ] final  118.56 input   66.30 | X-H torsion
[ 10763 10752 10751 10750 ] final  173.45 input  -60.55 | X-H torsion
[ 11005 11000 10999 10996 ] final  137.59 input  -57.11 | X-H torsion

> <Gold.Protein.ActiveResidues>
 VAL166  LYS551  ARG553  GLY616  TRP617  ASP618  TYR619  PRO620  LYS621  CYS622 
 ASP623  PHE694  ASN695  SER759  ASP760  ASP761  ALA762  ILE779  LEU786  VAL792 
 PHE793  MET794  SER795  GLU796  ALA797  LYS798  CYS799  TRP800  GLU811  SER814 

> <Gold.Protein.RotatedAtoms>
  151.9416  135.0210  160.0535 H   0  0  0  0  0  0  0  0  0  0  0  0  # atno 6907 bound_to 6896
  152.2031  133.4851  159.5077 H   0  0  0  0  0  0  0  0  0  0  0  0  # atno 6908 bound_to 6896
  150.6959  134.1481  159.4173 H   0  0  0  0  0  0  0  0  0  0  0  0  # atno 6909 bound_to 6896
  144.8496  140.6043  143.5399 H   0  0  0  0  0  0  0  0  0  0  0  0  # atno 7974 bound_to 7965
  155.9212  140.3421  155.6175 H   0  0  0  0  0  0  0  0  0  0  0  0  # atno 8008 bound_to 7997
  155.7270  140.0790  157.2324 H   0  0  0  0  0  0  0  0  0  0  0  0  # atno 8009 bound_to 7997
  154.4070  140.1595  156.2454 H   0  0  0  0  0  0  0  0  0  0  0  0  # atno 8010 bound_to 7997
  139.4870  144.4362  151.9009 H   0  0  0  0  0  0  0  0  0  0  0  0  # atno 10167 bound_to 10162
  157.6022  131.1049  150.7774 H   0  0  0  0  0  0  0  0  0  0  0  0  # atno 10718 bound_to 10713
  154.4403  135.2762  155.1852 H   0  0  0  0  0  0  0  0  0  0  0  0  # atno 10763 bound_to 10752
  154.3721  135.6106  153.5749 H   0  0  0  0  0  0  0  0  0  0  0  0  # atno 10764 bound_to 10752
  152.9840  135.5860  154.4729 H   0  0  0  0  0  0  0  0  0  0  0  0  # atno 10765 bound_to 10752
  140.0125  134.9433  157.0307 H   0  0  0  0  0  0  0  0  0  0  0  0  # atno 11005 bound_to 11000
  145.4527  139.1522  143.3910 LP  0  0  0  0  0  0  0  0  0  0  0  0  # atno 17320 bound_to 7965
  146.2774  140.4653  142.8790 LP  0  0  0  0  0  0  0  0  0  0  0  0  # atno 17321 bound_to 7965
  140.3812  144.2734  150.5908 LP  0  0  0  0  0  0  0  0  0  0  0  0  # atno 17342 bound_to 10162
  140.5231  143.2261  151.8357 LP  0  0  0  0  0  0  0  0  0  0  0  0  # atno 17343 bound_to 10162
  156.8170  130.4971  149.5348 LP  0  0  0  0  0  0  0  0  0  0  0  0  # atno 17370 bound_to 10713
  156.1098  130.6031  151.0029 LP  0  0  0  0  0  0  0  0  0  0  0  0  # atno 17371 bound_to 10713
  140.4530  134.1563  155.7183 LP  0  0  0  0  0  0  0  0  0  0  0  0  # atno 17394 bound_to 11000
  141.1720  133.8589  157.1540 LP  0  0  0  0  0  0  0  0  0  0  0  0  # atno 17395 bound_to 11000

$$$$
