AV-unprocessed.smi:908|AV-procd|sdf|4114|dock4
  -GOLD-   22720 2 13D 1   1.00000     0.00000
 Structure written by MMmdl.
 38 38  0  0  0  0  0  0  0  0  1 V2000
  145.8367  136.6272  152.3176 C   0  0  0  0  0  0  0  0  0  0  0  0
  146.6252  137.7454  153.0072 C   0  0  0  0  0  0  0  0  0  0  0  0
  146.9835  138.8904  152.0462 C   0  0  0  0  0  0  0  0  0  0  0  0
  147.8505  139.8733  152.6856 N   0  0  0  0  0  0  0  0  0  0  0  0
  147.6847  140.3573  153.9258 C   0  0  0  0  0  0  0  0  0  0  0  0
  146.7497  140.0311  154.6588 O   0  0  0  0  0  0  0  0  0  0  0  0
  148.7263  141.3802  154.3946 C   0  0  0  0  0  0  0  0  0  0  0  0
  149.4880  140.9170  155.5510 N   0  0  0  0  0  0  0  0  0  0  0  0
  150.6125  140.1840  155.4953 C   0  0  0  0  0  0  0  0  0  0  0  0
  151.1341  139.8293  154.4385 O   0  0  0  0  0  0  0  0  0  0  0  0
  151.2367  139.7675  156.8310 C   0  0  0  0  0  0  0  0  0  0  0  0
  151.5704  140.9154  157.6627 N   0  0  0  0  0  0  0  0  0  0  0  0
  151.2097  142.1555  157.2432 N   0  0  0  0  0  0  0  0  0  0  0  0
  151.6305  142.9840  158.1867 C   0  0  0  0  0  0  0  0  0  0  0  0
  151.3923  144.4598  158.0514 C   0  0  0  0  0  0  0  0  0  0  0  0
  152.2719  142.2658  159.2290 C   0  0  0  0  0  0  0  0  0  0  0  0
  152.9683  142.9332  160.6609 Cl  0  0  0  0  0  0  0  0  0  0  0  0
  152.2299  140.9477  158.8823 C   0  0  0  0  0  0  0  0  0  0  0  0
  152.7404  139.7265  159.5768 C   0  0  0  0  0  0  0  0  0  0  0  0
  145.5998  135.8285  153.0208 H   0  0  0  0  0  0  0  0  0  0  0  0
  146.4072  136.1906  151.4975 H   0  0  0  0  0  0  0  0  0  0  0  0
  144.8969  137.0020  151.9110 H   0  0  0  0  0  0  0  0  0  0  0  0
  146.0387  138.1314  153.8420 H   0  0  0  0  0  0  0  0  0  0  0  0
  147.5370  137.3291  153.4375 H   0  0  0  0  0  0  0  0  0  0  0  0
  147.5077  138.4941  151.1762 H   0  0  0  0  0  0  0  0  0  0  0  0
  146.0795  139.3733  151.6706 H   0  0  0  0  0  0  0  0  0  0  0  0
  148.6420  140.1999  152.1503 H   0  0  0  0  0  0  0  0  0  0  0  0
  149.4025  141.6345  153.5762 H   0  0  0  0  0  0  0  0  0  0  0  0
  148.2094  142.2994  154.6709 H   0  0  0  0  0  0  0  0  0  0  0  0
  149.1234  141.1573  156.4611 H   0  0  0  0  0  0  0  0  0  0  0  0
  150.5463  139.1164  157.3675 H   0  0  0  0  0  0  0  0  0  0  0  0
  152.1426  139.1860  156.6523 H   0  0  0  0  0  0  0  0  0  0  0  0
  152.0673  145.0294  158.6899 H   0  0  0  0  0  0  0  0  0  0  0  0
  150.3716  144.7173  158.3341 H   0  0  0  0  0  0  0  0  0  0  0  0
  151.5494  144.7942  157.0255 H   0  0  0  0  0  0  0  0  0  0  0  0
  153.2192  139.9826  160.5218 H   0  0  0  0  0  0  0  0  0  0  0  0
  153.4759  139.2087  158.9609 H   0  0  0  0  0  0  0  0  0  0  0  0
  151.9284  139.0324  159.7926 H   0  0  0  0  0  0  0  0  0  0  0  0
  1  2  1  0  0  0  0
  1 20  1  0  0  0  0
  1 21  1  0  0  0  0
  1 22  1  0  0  0  0
  2  3  1  0  0  0  0
  2 23  1  0  0  0  0
  2 24  1  0  0  0  0
  3  4  1  0  0  0  0
  3 25  1  0  0  0  0
  3 26  1  0  0  0  0
  4  5  1  0  0  0  0
  4 27  1  0  0  0  0
  5  6  2  0  0  0  0
  5  7  1  0  0  0  0
  7  8  1  0  0  0  0
  7 28  1  0  0  0  0
  7 29  1  0  0  0  0
  8  9  1  0  0  0  0
  8 30  1  0  0  0  0
  9 10  2  0  0  0  0
  9 11  1  0  0  0  0
 11 12  1  0  0  0  0
 11 31  1  0  0  0  0
 11 32  1  0  0  0  0
 12 18  1  0  0  0  0
 12 13  1  0  0  0  0
 13 14  2  0  0  0  0
 14 15  1  0  0  0  0
 14 16  1  0  0  0  0
 15 33  1  0  0  0  0
 15 34  1  0  0  0  0
 15 35  1  0  0  0  0
 16 17  1  0  0  0  0
 16 18  2  0  0  0  0
 18 19  1  0  0  0  0
 19 36  1  0  0  0  0
 19 37  1  0  0  0  0
 19 38  1  0  0  0  0
M  END
> <s_m_source_file>
AV-unprocessed.smi

> <i_m_source_file_index>
908

> <i_lp_mmshare_version>
43012

> <i_f3d_flags>
0

> <s_epik_input>
W0NIM11bQ0gyXVtDSDJdW05IXUMoPU8pW0NIMl1bTkhdQyg9TylbQ0gyXW4xbmMoW0NIM10pYyhDbCljMVtDSDNd

> <s_epik_cmdline>
J2VwaWtfcHl0aG9uJywgJy1waCcsICc3LjAnLCAnLXRuJywgJzgnLCAnLW1hJywgJzIwMCcsICctbWV0YWxfYmluZGluZycsICctaW1hZScsICc8aW5maWxlLm1hZT4nLCAnLW9tYWUnLCAnPG91dGZpbGUubWFlPic=

> <r_lp_tautomer_probability>
1

> <r_epik_Ionization_Penalty>
3.40177e-06

> <r_epik_Ionization_Penalty_Charging>
0

> <r_epik_Ionization_Penalty_Neutral>
3.40177e-06

> <r_epik_State_Penalty>
-0

> <r_epik_Charging_Adjusted_Penalty>
0

> <i_epik_Tot_Q>
0

> <i_epik_Tot_abs_Q>
0

> <r_epik_Metal_State_Penalty>
-0

> <b_epik_Metal_Only>
0

> <s_lp_Force_Field>
OPLS_2005

> <r_lp_Energy>
0.427377

> <b_lp_Chiralities_Consistent>
1

> <s_lp_Variant>
AV-unprocessed.smi:908-1

> <Gold.Version>
5.8.1

> <Gold.Id.Protein>
6NUR|6NUR_protein|mol2

> <Gold.PLP.Fitness>
43.1251

> <Gold.PLP.PLP>
-37.8095

> <Gold.PLP.part.hbond>
-1.7611

> <Gold.PLP.part.metal>
0.0000

> <Gold.PLP.part.buried>
-4.5474

> <Gold.PLP.part.nonpolar>
-32.2260

> <Gold.PLP.part.repulsive>
0.4641

> <Gold.PLP.ligand.clash>
0.0000

> <Gold.PLP.ligand.torsion>
0.3410

> <Gold.PLP.Chemscore.Hbond>
1.9750

> <Gold.PLP.Chemscore.CHOScore>
0.0000

> <Gold.PLP.Chemscore.Metal>
0.0000

> <Gold.Chemscore.Hbonds>
donor molecule, donor type, donor heavy atom, donor atom, acceptor molecule, acceptor atom, score
      L1  H     4    27       P1  7957  0.63
      P1  H  7989  7998       L1    10  0.89

> <Gold.PLP.Chemscore.Internal.Correction>
0.0725

> <Gold.Rescore>
     Score         DG    S(hbond)    S(metal)    S(lipo)     H(rot)  DE(clash)    DE(int)     intcor
     13.80     -17.03       1.91        0.00      90.68       2.13       0.01       3.22       ----

> <Gold.Chemscore.Fitness>
13.7991

> <Gold.Chemscore.DG>
-17.0323

> <Gold.Chemscore.ZeroCoef>
-5.4800

> <Gold.Chemscore.Hbond>
1.9148

> <Gold.Chemscore.Metal>
0.0000

> <Gold.Chemscore.Lipo>
90.6751

> <Gold.Chemscore.Internal_Hbond>
0.0000

> <Gold.Chemscore.DEClash>
0.0115

> <Gold.Chemscore.DEInternal>
3.2216

> <Gold.Chemscore.Rot>
2.1297

> <Gold.Chemscore.Internal.Correction>
   9.000000E+99

> <Gold.Chemscore.Hbonds>
donor molecule, donor type, donor heavy atom, donor atom, acceptor molecule, acceptor atom, score
      L1  H     4    27       P1  7957  0.60
      P1  H  7989  7998       L1    10  0.84

> <Gold.Chemscore.Hbond.Weighted>
-6.3953

> <Gold.Chemscore.Metal.Weighted>
-0.0000

> <Gold.Chemscore.Lipo.Weighted>
-10.6090

> <Gold.Chemscore.Internal_Hbond.Weighted>
0.0000

> <Gold.Chemscore.DEClash.Weighted>
0.0115

> <Gold.Chemscore.DEInternal.Weighted>
3.2216

> <Gold.Chemscore.Rot.Weighted>
5.4520

> <Gold.Chemscore.Internal.Correction.Weighted>
   9.000000E+99

> <Gold.Protein.RotatedTorsions>
[ 6907 6896 6895 6894 ] final  175.14 input  -60.11 | X-H torsion
[ 7974 7965 7964 7962 ] final   55.45 input  175.53 | X-H torsion
[ 8008 7997 7996 7995 ] final   99.14 input   59.86 | X-H torsion
[ 10167 10162 10161 10158 ] final -122.10 input  -65.29 | X-H torsion
[ 10718 10713 10712 10709 ] final  116.06 input   66.30 | X-H torsion
[ 10763 10752 10751 10750 ] final -176.99 input  -60.55 | X-H torsion
[ 11005 11000 10999 10996 ] final   24.58 input  -57.11 | X-H torsion

> <Gold.Protein.ActiveResidues>
 VAL166  LYS551  ARG553  GLY616  TRP617  ASP618  TYR619  PRO620  LYS621  CYS622 
 ASP623  PHE694  ASN695  SER759  ASP760  ASP761  ALA762  ILE779  LEU786  VAL792 
 PHE793  MET794  SER795  GLU796  ALA797  LYS798  CYS799  TRP800  GLU811  SER814 

> <Gold.Protein.RotatedAtoms>
  151.7410  133.3322  159.3365 H   0  0  0  0  0  0  0  0  0  0  0  0  # atno 6907 bound_to 6896
  150.7573  134.6278  159.6180 H   0  0  0  0  0  0  0  0  0  0  0  0  # atno 6908 bound_to 6896
  152.3531  134.6980  160.0282 H   0  0  0  0  0  0  0  0  0  0  0  0  # atno 6909 bound_to 6896
  145.9503  139.3966  143.0310 H   0  0  0  0  0  0  0  0  0  0  0  0  # atno 7974 bound_to 7965
  156.1075  140.3233  155.8026 H   0  0  0  0  0  0  0  0  0  0  0  0  # atno 8008 bound_to 7997
  155.4730  140.0548  157.2994 H   0  0  0  0  0  0  0  0  0  0  0  0  # atno 8009 bound_to 7997
  154.4737  140.2023  155.9944 H   0  0  0  0  0  0  0  0  0  0  0  0  # atno 8010 bound_to 7997
  140.0179  143.5374  152.2234 H   0  0  0  0  0  0  0  0  0  0  0  0  # atno 10167 bound_to 10162
  157.6184  131.1020  150.7418 H   0  0  0  0  0  0  0  0  0  0  0  0  # atno 10718 bound_to 10713
  154.5656  135.2823  155.0877 H   0  0  0  0  0  0  0  0  0  0  0  0  # atno 10763 bound_to 10752
  154.2269  135.6381  153.5166 H   0  0  0  0  0  0  0  0  0  0  0  0  # atno 10764 bound_to 10752
  153.0042  135.5528  154.6264 H   0  0  0  0  0  0  0  0  0  0  0  0  # atno 10765 bound_to 10752
  140.3571  134.2165  155.7675 H   0  0  0  0  0  0  0  0  0  0  0  0  # atno 11005 bound_to 11000
  145.8180  140.9693  143.0913 LP  0  0  0  0  0  0  0  0  0  0  0  0  # atno 17320 bound_to 7965
  144.6794  140.0006  143.7484 LP  0  0  0  0  0  0  0  0  0  0  0  0  # atno 17321 bound_to 7965
  139.6160  144.7619  151.2846 LP  0  0  0  0  0  0  0  0  0  0  0  0  # atno 17342 bound_to 10162
  140.7354  143.6736  150.8060 LP  0  0  0  0  0  0  0  0  0  0  0  0  # atno 17343 bound_to 10162
  156.7781  130.4850  149.5406 LP  0  0  0  0  0  0  0  0  0  0  0  0  # atno 17370 bound_to 10713
  156.1317  130.6182  151.0343 LP  0  0  0  0  0  0  0  0  0  0  0  0  # atno 17371 bound_to 10713
  141.1995  133.8010  157.0533 LP  0  0  0  0  0  0  0  0  0  0  0  0  # atno 17394 bound_to 11000
  140.0656  134.9731  157.1380 LP  0  0  0  0  0  0  0  0  0  0  0  0  # atno 17395 bound_to 11000

$$$$
