AV-unprocessed.smi:332|AV-procd|sdf|2354|dock9
  -GOLD-   2262022263D 1   1.00000     0.00000
 Structure written by MMmdl.
 42 44  0  0  0  0  0  0  0  0  1 V2000
  151.8833  141.4212  157.5362 C   0  0  0  0  0  0  0  0  0  0  0  0
  150.6147  142.2736  157.6933 C   0  0  2  0  0  0  0  0  0  0  0  0
  149.8624  142.2250  156.4403 N   0  0  0  0  0  0  0  0  0  0  0  0
  149.6612  141.1390  155.6773 C   0  0  0  0  0  0  0  0  0  0  0  0
  150.0871  140.0193  155.9638 O   0  0  0  0  0  0  0  0  0  0  0  0
  148.8274  141.3623  154.4076 C   0  0  0  0  0  0  0  0  0  0  0  0
  147.4103  141.6536  154.6816 N   0  0  0  0  0  0  0  0  0  0  0  0
  146.9117  142.8924  154.2314 C   0  0  0  0  0  0  0  0  0  0  0  0
  145.6354  143.2586  154.4298 C   0  0  0  0  0  0  0  0  0  0  0  0
  144.7633  142.3433  155.1269 C   0  0  0  0  0  0  0  0  0  0  0  0
  145.2310  141.1575  155.5652 C   0  0  0  0  0  0  0  0  0  0  0  0
  146.6258  140.7539  155.3519 C   0  0  0  0  0  0  0  0  0  0  0  0
  147.0615  139.6732  155.7502 O   0  0  0  0  0  0  0  0  0  0  0  0
  150.9313  143.7449  158.0574 C   0  0  1  0  0  0  0  0  0  0  0  0
  150.0804  144.3339  159.2071 C   0  0  0  0  0  0  0  0  0  0  0  0
  151.1352  144.9721  160.1294 C   0  0  1  0  0  0  0  0  0  0  0  0
  151.8834  143.8563  160.8816 C   0  0  0  0  0  0  0  0  0  0  0  0
  152.7625  143.2384  159.7793 C   0  0  0  0  0  0  0  0  0  0  0  0
  152.3735  144.0567  158.5305 C   0  0  2  0  0  0  0  0  0  0  0  0
  152.1898  145.4450  159.1360 C   0  0  0  0  0  0  0  0  0  0  0  0
  152.4451  141.3689  158.4687 H   0  0  0  0  0  0  0  0  0  0  0  0
  152.5447  141.8283  156.7707 H   0  0  0  0  0  0  0  0  0  0  0  0
  151.6344  140.3982  157.2517 H   0  0  0  0  0  0  0  0  0  0  0  0
  150.0170  141.8283  158.4889 H   0  0  0  0  0  0  0  0  0  0  0  0
  149.4641  143.0972  156.1235 H   0  0  0  0  0  0  0  0  0  0  0  0
  149.2824  142.1770  153.8427 H   0  0  0  0  0  0  0  0  0  0  0  0
  148.9112  140.4864  153.7614 H   0  0  0  0  0  0  0  0  0  0  0  0
  147.6296  143.5218  153.7255 H   0  0  0  0  0  0  0  0  0  0  0  0
  145.2721  144.2140  154.0806 H   0  0  0  0  0  0  0  0  0  0  0  0
  143.7313  142.6113  155.2992 H   0  0  0  0  0  0  0  0  0  0  0  0
  144.5642  140.4864  156.0864 H   0  0  0  0  0  0  0  0  0  0  0  0
  150.7486  144.3484  157.1659 H   0  0  0  0  0  0  0  0  0  0  0  0
  149.3876  145.0838  158.8235 H   0  0  0  0  0  0  0  0  0  0  0  0
  149.4925  143.5826  159.7355 H   0  0  0  0  0  0  0  0  0  0  0  0
  150.7342  145.7470  160.7832 H   0  0  0  0  0  0  0  0  0  0  0  0
  152.5022  144.2694  161.6793 H   0  0  0  0  0  0  0  0  0  0  0  0
  151.2036  143.1293  161.3277 H   0  0  0  0  0  0  0  0  0  0  0  0
  153.8175  143.3858  160.0141 H   0  0  0  0  0  0  0  0  0  0  0  0
  152.6071  142.1666  159.6641 H   0  0  0  0  0  0  0  0  0  0  0  0
  153.1141  144.0114  157.7317 H   0  0  0  0  0  0  0  0  0  0  0  0
  151.8149  146.1847  158.4261 H   0  0  0  0  0  0  0  0  0  0  0  0
  153.0910  145.8338  159.6140 H   0  0  0  0  0  0  0  0  0  0  0  0
  1  2  1  0  0  0  0
  1 21  1  0  0  0  0
  1 22  1  0  0  0  0
  1 23  1  0  0  0  0
  2  3  1  0  0  0  0
  2 14  1  0  0  0  0
  2 24  1  0  0  0  0
  3  4  1  0  0  0  0
  3 25  1  0  0  0  0
  4  5  2  0  0  0  0
  4  6  1  0  0  0  0
  6  7  1  0  0  0  0
  6 26  1  0  0  0  0
  6 27  1  0  0  0  0
  7 12  1  0  0  0  0
  7  8  1  0  0  0  0
  8  9  2  0  0  0  0
  8 28  1  0  0  0  0
  9 10  1  0  0  0  0
  9 29  1  0  0  0  0
 10 11  2  0  0  0  0
 10 30  1  0  0  0  0
 11 12  1  0  0  0  0
 11 31  1  0  0  0  0
 12 13  2  0  0  0  0
 14 19  1  0  0  0  0
 14 15  1  0  0  0  0
 14 32  1  0  0  0  0
 15 16  1  0  0  0  0
 15 33  1  0  0  0  0
 15 34  1  0  0  0  0
 16 20  1  0  0  0  0
 16 17  1  0  0  0  0
 16 35  1  0  0  0  0
 17 18  1  0  0  0  0
 17 36  1  0  0  0  0
 17 37  1  0  0  0  0
 18 19  1  0  0  0  0
 18 38  1  0  0  0  0
 18 39  1  0  0  0  0
 19 20  1  0  0  0  0
 19 40  1  0  0  0  0
 20 41  1  0  0  0  0
 20 42  1  0  0  0  0
M  END
> <s_m_source_file>
AV-unprocessed.smi

> <i_m_source_file_index>
332

> <i_lp_mmshare_version>
43012

> <i_f3d_flags>
0

> <s_epik_input>
W0NIMl0xW0NIMl1bQ0BIXShbQ0gyXTIpW0NAQEhdKFtDSDJdW0NAQEhdMTIpW0NASF0oW0NIM10pW05IXUMoPU8pW0NIMl1uM1tjSF1bY0hdW2NIXVtjSF1jMz1P

> <s_epik_cmdline>
J2VwaWtfcHl0aG9uJywgJy1waCcsICc3LjAnLCAnLXRuJywgJzgnLCAnLW1hJywgJzIwMCcsICctbWV0YWxfYmluZGluZycsICctaW1hZScsICc8aW5maWxlLm1hZT4nLCAnLW9tYWUnLCAnPG91dGZpbGUubWFlPic=

> <r_lp_tautomer_probability>
1

> <r_epik_Ionization_Penalty>
4.05802e-07

> <r_epik_Ionization_Penalty_Charging>
3.84175e-07

> <r_epik_Ionization_Penalty_Neutral>
2.16269e-08

> <r_epik_State_Penalty>
-0

> <r_epik_Charging_Adjusted_Penalty>
3.84175e-07

> <i_epik_Tot_Q>
0

> <i_epik_Tot_abs_Q>
0

> <r_epik_Metal_State_Penalty>
-0

> <b_epik_Metal_Only>
0

> <s_lp_Force_Field>
OPLS_2005

> <r_lp_Energy>
60.6012

> <b_lp_Chiralities_Consistent>
1

> <s_lp_Variant>
AV-unprocessed.smi:332-3

> <Gold.Version>
5.8.1

> <Gold.Id.Protein>
6NUR|6NUR_protein|mol2

> <Gold.PLP.Fitness>
45.6384

> <Gold.PLP.PLP>
-44.3908

> <Gold.PLP.part.hbond>
-1.0000

> <Gold.PLP.part.metal>
0.0000

> <Gold.PLP.part.buried>
-4.5661

> <Gold.PLP.part.nonpolar>
-38.7506

> <Gold.PLP.part.repulsive>
0.0837

> <Gold.PLP.ligand.clash>
0.0000

> <Gold.PLP.ligand.torsion>
1.6057

> <Gold.PLP.Chemscore.Hbond>
1.0000

> <Gold.PLP.Chemscore.CHOScore>
0.4815

> <Gold.PLP.Chemscore.Metal>
0.0000

> <Gold.Chemscore.Hbonds>
donor molecule, donor type, donor heavy atom, donor atom, acceptor molecule, acceptor atom, score
      L1  H     3    25       P1  8028  1.00
      L1  C     8    28       P1  8028  0.48

> <Gold.PLP.Chemscore.Internal.Correction>
0.0146

> <Gold.Rescore>
     Score         DG    S(hbond)    S(metal)    S(lipo)     H(rot)  DE(clash)    DE(int)     intcor
     14.05     -18.97       0.97        0.00     121.40       1.54       0.55       4.37       ----

> <Gold.Chemscore.Fitness>
14.0512

> <Gold.Chemscore.DG>
-18.9658

> <Gold.Chemscore.ZeroCoef>
-5.4800

> <Gold.Chemscore.Hbond>
0.9654

> <Gold.Chemscore.Metal>
0.0000

> <Gold.Chemscore.Lipo>
121.3954

> <Gold.Chemscore.Internal_Hbond>
0.0000

> <Gold.Chemscore.DEClash>
0.5485

> <Gold.Chemscore.DEInternal>
4.3662

> <Gold.Chemscore.Rot>
1.5398

> <Gold.Chemscore.Internal.Correction>
   9.000000E+99

> <Gold.Chemscore.Hbonds>
donor molecule, donor type, donor heavy atom, donor atom, acceptor molecule, acceptor atom, score
      L1  H     3    25       P1  8028  1.00

> <Gold.Chemscore.Hbond.Weighted>
-3.2245

> <Gold.Chemscore.Metal.Weighted>
-0.0000

> <Gold.Chemscore.Lipo.Weighted>
-14.2033

> <Gold.Chemscore.Internal_Hbond.Weighted>
0.0000

> <Gold.Chemscore.DEClash.Weighted>
0.5485

> <Gold.Chemscore.DEInternal.Weighted>
4.3662

> <Gold.Chemscore.Rot.Weighted>
3.9419

> <Gold.Chemscore.Internal.Correction.Weighted>
   9.000000E+99

> <Gold.Protein.RotatedTorsions>
[ 6907 6896 6895 6894 ] final  -42.10 input  -60.11 | X-H torsion
[ 7974 7965 7964 7962 ] final   86.92 input  175.53 | X-H torsion
[ 8008 7997 7996 7995 ] final  155.91 input   59.86 | X-H torsion
[ 10167 10162 10161 10158 ] final -159.14 input  -65.29 | X-H torsion
[ 10718 10713 10712 10709 ] final  -26.24 input   66.30 | X-H torsion
[ 10763 10752 10751 10750 ] final  -12.40 input  -60.55 | X-H torsion
[ 11005 11000 10999 10996 ] final  158.32 input  -57.11 | X-H torsion

> <Gold.Protein.ActiveResidues>
 VAL166  LYS551  ARG553  GLY616  TRP617  ASP618  TYR619  PRO620  LYS621  CYS622 
 ASP623  PHE694  ASN695  SER759  ASP760  ASP761  ALA762  ILE779  LEU786  VAL792 
 PHE793  MET794  SER795  GLU796  ALA797  LYS798  CYS799  TRP800  GLU811  SER814 

> <Gold.Protein.RotatedAtoms>
  150.9591  134.8981  159.7718 H   0  0  0  0  0  0  0  0  0  0  0  0  # atno 6907 bound_to 6896
  152.5149  134.3699  159.9324 H   0  0  0  0  0  0  0  0  0  0  0  0  # atno 6908 bound_to 6896
  151.3711  133.3814  159.2734 H   0  0  0  0  0  0  0  0  0  0  0  0  # atno 6909 bound_to 6896
  145.5659  139.2308  143.2433 H   0  0  0  0  0  0  0  0  0  0  0  0  # atno 7974 bound_to 7965
  156.2452  140.1926  156.6874 H   0  0  0  0  0  0  0  0  0  0  0  0  # atno 8008 bound_to 7997
  154.6276  140.0600  156.9719 H   0  0  0  0  0  0  0  0  0  0  0  0  # atno 8009 bound_to 7997
  155.1761  140.3272  155.4386 H   0  0  0  0  0  0  0  0  0  0  0  0  # atno 8010 bound_to 7997
  139.6638  143.9865  152.2242 H   0  0  0  0  0  0  0  0  0  0  0  0  # atno 10167 bound_to 10162
  156.4539  130.4489  149.6972 H   0  0  0  0  0  0  0  0  0  0  0  0  # atno 10718 bound_to 10713
  153.4980  135.7017  153.5847 H   0  0  0  0  0  0  0  0  0  0  0  0  # atno 10763 bound_to 10752
  153.3991  135.3876  155.1976 H   0  0  0  0  0  0  0  0  0  0  0  0  # atno 10764 bound_to 10752
  154.8712  135.3877  154.4447 H   0  0  0  0  0  0  0  0  0  0  0  0  # atno 10765 bound_to 10752
  140.1854  134.8446  157.2851 H   0  0  0  0  0  0  0  0  0  0  0  0  # atno 11005 bound_to 11000
  146.1819  140.6484  142.9185 LP  0  0  0  0  0  0  0  0  0  0  0  0  # atno 17320 bound_to 7965
  144.7461  140.5070  143.6835 LP  0  0  0  0  0  0  0  0  0  0  0  0  # atno 17321 bound_to 7965
  139.9611  144.6557  150.8078 LP  0  0  0  0  0  0  0  0  0  0  0  0  # atno 17342 bound_to 10162
  140.7591  143.3121  151.2819 LP  0  0  0  0  0  0  0  0  0  0  0  0  # atno 17343 bound_to 10162
  156.3788  130.7568  151.2559 LP  0  0  0  0  0  0  0  0  0  0  0  0  # atno 17370 bound_to 10713
  157.7501  131.0302  150.4125 LP  0  0  0  0  0  0  0  0  0  0  0  0  # atno 17371 bound_to 10713
  140.2220  134.4012  155.7561 LP  0  0  0  0  0  0  0  0  0  0  0  0  # atno 17394 bound_to 11000
  141.2224  133.7170  156.8505 LP  0  0  0  0  0  0  0  0  0  0  0  0  # atno 17395 bound_to 11000

$$$$
