AV-unprocessed.smi:1941|AV-procd|sdf|7846|dock6
  -GOLD-   22720 9593D 1   1.00000     0.00000
 Structure written by MMmdl.
 40 41  0  0  0  0  0  0  0  0  1 V2000
  145.9479  130.2911  151.7662 C   0  0  0  0  0  0  0  0  0  0  0  0
  145.2433  131.6031  151.7250 C   0  0  0  0  0  0  0  0  0  0  0  0
  145.4887  132.5990  152.5796 N   0  0  0  0  0  0  0  0  0  0  0  0
  144.6828  133.7177  152.3474 C   0  0  0  0  0  0  0  0  0  0  0  0
  144.7959  134.9188  153.2407 C   0  0  0  0  0  0  0  0  0  0  0  0
  145.1664  136.2147  152.4927 C   0  0  0  0  0  0  0  0  0  0  0  0
  146.5267  136.6596  152.7883 N   0  0  0  0  0  0  0  0  0  0  0  0
  146.8641  137.5597  153.7234 C   0  0  0  0  0  0  0  0  0  0  0  0
  146.0600  138.1072  154.4780 O   0  0  0  0  0  0  0  0  0  0  0  0
  148.1818  137.8061  153.7200 N   0  0  0  0  0  0  0  0  0  0  0  0
  148.8620  138.7877  154.5618 C   0  0  1  0  0  0  0  0  0  0  0  0
  148.6481  138.4037  156.0342 C   0  0  0  0  0  0  0  0  0  0  0  0
  150.3565  138.8530  154.1830 C   0  0  2  0  0  0  0  0  0  0  0  0
  151.1483  137.5812  154.4918 C   0  0  0  0  0  0  0  0  0  0  0  0
  152.5574  138.1156  154.6011 C   0  0  0  0  0  0  0  0  0  0  0  0
  152.3286  139.4485  155.3050 C   0  0  0  0  0  0  0  0  0  0  0  0
  151.0237  139.8746  154.9232 O   0  0  0  0  0  0  0  0  0  0  0  0
  143.8331  133.5607  151.2804 C   0  0  0  0  0  0  0  0  0  0  0  0
  144.0042  131.9940  150.5395 S   0  0  0  0  0  0  0  0  0  0  0  0
  146.4305  130.1467  152.7332 H   0  0  0  0  0  0  0  0  0  0  0  0
  146.7073  130.2518  150.9852 H   0  0  0  0  0  0  0  0  0  0  0  0
  145.2367  129.4802  151.6076 H   0  0  0  0  0  0  0  0  0  0  0  0
  143.8554  135.0724  153.7713 H   0  0  0  0  0  0  0  0  0  0  0  0
  145.5407  134.7318  154.0151 H   0  0  0  0  0  0  0  0  0  0  0  0
  145.0310  136.0785  151.4183 H   0  0  0  0  0  0  0  0  0  0  0  0
  144.4816  137.0110  152.7845 H   0  0  0  0  0  0  0  0  0  0  0  0
  147.2637  136.2712  152.2182 H   0  0  0  0  0  0  0  0  0  0  0  0
  148.7547  137.3059  153.0567 H   0  0  0  0  0  0  0  0  0  0  0  0
  148.4182  139.7735  154.4102 H   0  0  0  0  0  0  0  0  0  0  0  0
  149.0859  139.1423  156.7057 H   0  0  0  0  0  0  0  0  0  0  0  0
  149.0989  137.4373  156.2628 H   0  0  0  0  0  0  0  0  0  0  0  0
  147.5858  138.3411  156.2721 H   0  0  0  0  0  0  0  0  0  0  0  0
  150.4664  139.0909  153.1235 H   0  0  0  0  0  0  0  0  0  0  0  0
  150.8370  137.1546  155.4465 H   0  0  0  0  0  0  0  0  0  0  0  0
  151.0432  136.8156  153.7229 H   0  0  0  0  0  0  0  0  0  0  0  0
  153.2295  137.4534  155.1477 H   0  0  0  0  0  0  0  0  0  0  0  0
  152.9726  138.2816  153.6061 H   0  0  0  0  0  0  0  0  0  0  0  0
  152.3450  139.3187  156.3876 H   0  0  0  0  0  0  0  0  0  0  0  0
  153.0826  140.1904  155.0416 H   0  0  0  0  0  0  0  0  0  0  0  0
  143.1103  134.2644  150.8950 H   0  0  0  0  0  0  0  0  0  0  0  0
  1  2  1  0  0  0  0
  1 20  1  0  0  0  0
  1 21  1  0  0  0  0
  1 22  1  0  0  0  0
  2 19  1  0  0  0  0
  2  3  2  0  0  0  0
  3  4  1  0  0  0  0
  4  5  1  0  0  0  0
  4 18  2  0  0  0  0
  5  6  1  0  0  0  0
  5 23  1  0  0  0  0
  5 24  1  0  0  0  0
  6  7  1  0  0  0  0
  6 25  1  0  0  0  0
  6 26  1  0  0  0  0
  7  8  1  0  0  0  0
  7 27  1  0  0  0  0
  8  9  2  0  0  0  0
  8 10  1  0  0  0  0
 10 11  1  0  0  0  0
 10 28  1  0  0  0  0
 11 12  1  0  0  0  0
 11 13  1  0  0  0  0
 11 29  1  0  0  0  0
 12 30  1  0  0  0  0
 12 31  1  0  0  0  0
 12 32  1  0  0  0  0
 13 17  1  0  0  0  0
 13 14  1  0  0  0  0
 13 33  1  0  0  0  0
 14 15  1  0  0  0  0
 14 34  1  0  0  0  0
 14 35  1  0  0  0  0
 15 16  1  0  0  0  0
 15 36  1  0  0  0  0
 15 37  1  0  0  0  0
 16 17  1  0  0  0  0
 16 38  1  0  0  0  0
 16 39  1  0  0  0  0
 18 19  1  0  0  0  0
 18 40  1  0  0  0  0
M  END
> <s_m_source_file>
AV-unprocessed.smi

> <i_m_source_file_index>
1941

> <i_lp_mmshare_version>
43012

> <i_f3d_flags>
0

> <s_epik_input>
W0NIM11jMW5jKFtjSF1zMSlbQ0gyXVtDSDJdW05IXUMoPU8pW05IXVtDQEhdKFtDSDNdKVtDQEBIXTJbQ0gyXVtDSDJdW0NIMl1PMg==

> <s_epik_cmdline>
J2VwaWtfcHl0aG9uJywgJy1waCcsICc3LjAnLCAnLXRuJywgJzgnLCAnLW1hJywgJzIwMCcsICctbWV0YWxfYmluZGluZycsICctaW1hZScsICc8aW5maWxlLm1hZT4nLCAnLW9tYWUnLCAnPG91dGZpbGUubWFlPic=

> <r_epik_Ionization_Penalty>
0.00195486

> <r_epik_Ionization_Penalty_Charging>
0

> <r_epik_Ionization_Penalty_Neutral>
0.00195486

> <r_epik_State_Penalty>
0.00129472

> <r_epik_Charging_Adjusted_Penalty>
0.00129472

> <i_epik_Tot_Q>
0

> <i_epik_Tot_abs_Q>
0

> <r_epik_Metal_State_Penalty>
-0

> <b_epik_Metal_Only>
0

> <s_lp_Force_Field>
OPLS_2005

> <r_lp_Energy>
10.9889

> <b_lp_Chiralities_Consistent>
1

> <s_lp_Variant>
AV-unprocessed.smi:1941-2

> <Gold.Version>
5.8.1

> <Gold.Id.Protein>
6NUR|6NUR_protein|mol2

> <Gold.PLP.Fitness>
42.0036

> <Gold.PLP.PLP>
-32.0756

> <Gold.PLP.part.hbond>
-2.9145

> <Gold.PLP.part.metal>
0.0000

> <Gold.PLP.part.buried>
-3.2139

> <Gold.PLP.part.nonpolar>
-26.4882

> <Gold.PLP.part.repulsive>
0.3611

> <Gold.PLP.ligand.clash>
0.0000

> <Gold.PLP.ligand.torsion>
0.5604

> <Gold.PLP.Chemscore.Hbond>
2.6725

> <Gold.PLP.Chemscore.CHOScore>
1.0000

> <Gold.PLP.Chemscore.Metal>
0.0000

> <Gold.Chemscore.Hbonds>
donor molecule, donor type, donor heavy atom, donor atom, acceptor molecule, acceptor atom, score
      L1  H     7    27       P1  7948  0.98
      L1  H    10    28       P1  7948  1.00
      P1  H  7989  7998       L1    17  0.63
      L1  C    18    40       P1 10186  1.00

> <Gold.PLP.Chemscore.Internal.Correction>
0.0314

> <Gold.Rescore>
     Score         DG    S(hbond)    S(metal)    S(lipo)     H(rot)  DE(clash)    DE(int)     intcor
     16.85     -17.50       1.92        0.00      84.90       1.69       0.02       0.64       ----

> <Gold.Chemscore.Fitness>
16.8506

> <Gold.Chemscore.DG>
-17.5026

> <Gold.Chemscore.ZeroCoef>
-5.4800

> <Gold.Chemscore.Hbond>
1.9227

> <Gold.Chemscore.Metal>
0.0000

> <Gold.Chemscore.Lipo>
84.8967

> <Gold.Chemscore.Internal_Hbond>
0.0000

> <Gold.Chemscore.DEClash>
0.0154

> <Gold.Chemscore.DEInternal>
0.6365

> <Gold.Chemscore.Rot>
1.6923

> <Gold.Chemscore.Internal.Correction>
   9.000000E+99

> <Gold.Chemscore.Hbonds>
donor molecule, donor type, donor heavy atom, donor atom, acceptor molecule, acceptor atom, score
      L1  H     7    27       P1  7948  0.92
      L1  H    10    28       P1  7948  0.96
      P1  H  7989  7998       L1    17  0.01

> <Gold.Chemscore.Hbond.Weighted>
-6.4219

> <Gold.Chemscore.Metal.Weighted>
-0.0000

> <Gold.Chemscore.Lipo.Weighted>
-9.9329

> <Gold.Chemscore.Internal_Hbond.Weighted>
0.0000

> <Gold.Chemscore.DEClash.Weighted>
0.0154

> <Gold.Chemscore.DEInternal.Weighted>
0.6365

> <Gold.Chemscore.Rot.Weighted>
4.3323

> <Gold.Chemscore.Internal.Correction.Weighted>
   9.000000E+99

> <Gold.Protein.RotatedTorsions>
[ 6907 6896 6895 6894 ] final  103.60 input  -60.11 | X-H torsion
[ 7974 7965 7964 7962 ] final -108.96 input  175.53 | X-H torsion
[ 8008 7997 7996 7995 ] final  -82.68 input   59.86 | X-H torsion
[ 10167 10162 10161 10158 ] final   96.08 input  -65.29 | X-H torsion
[ 10718 10713 10712 10709 ] final -141.90 input   66.30 | X-H torsion
[ 10763 10752 10751 10750 ] final   63.15 input  -60.55 | X-H torsion
[ 11005 11000 10999 10996 ] final   11.94 input  -57.11 | X-H torsion

> <Gold.Protein.ActiveResidues>
 VAL166  LYS551  ARG553  GLY616  TRP617  ASP618  TYR619  PRO620  LYS621  CYS622 
 ASP623  PHE694  ASN695  SER759  ASP760  ASP761  ALA762  ILE779  LEU786  VAL792 
 PHE793  MET794  SER795  GLU796  ALA797  LYS798  CYS799  TRP800  GLU811  SER814 

> <Gold.Protein.RotatedAtoms>
  152.5290  133.9801  159.7802 H   0  0  0  0  0  0  0  0  0  0  0  0  # atno 6907 bound_to 6896
  151.0056  133.6006  159.2696 H   0  0  0  0  0  0  0  0  0  0  0  0  # atno 6908 bound_to 6896
  151.3099  135.0798  159.9322 H   0  0  0  0  0  0  0  0  0  0  0  0  # atno 6909 bound_to 6896
  145.1865  140.8995  143.3450 H   0  0  0  0  0  0  0  0  0  0  0  0  # atno 7974 bound_to 7965
  154.6111  140.0629  156.9495 H   0  0  0  0  0  0  0  0  0  0  0  0  # atno 8008 bound_to 7997
  155.1971  140.3312  155.4331 H   0  0  0  0  0  0  0  0  0  0  0  0  # atno 8009 bound_to 7997
  156.2377  140.1871  156.7057 H   0  0  0  0  0  0  0  0  0  0  0  0  # atno 8010 bound_to 7997
  139.7928  144.6845  150.9869 H   0  0  0  0  0  0  0  0  0  0  0  0  # atno 10167 bound_to 10162
  156.3395  130.7629  151.1763 H   0  0  0  0  0  0  0  0  0  0  0  0  # atno 10718 bound_to 10713
  153.0007  135.5439  154.6306 H   0  0  0  0  0  0  0  0  0  0  0  0  # atno 10763 bound_to 10752
  154.5584  135.2832  155.0945 H   0  0  0  0  0  0  0  0  0  0  0  0  # atno 10764 bound_to 10752
  154.2157  135.6459  153.5181 H   0  0  0  0  0  0  0  0  0  0  0  0  # atno 10765 bound_to 10752
  140.4976  134.0778  155.7786 H   0  0  0  0  0  0  0  0  0  0  0  0  # atno 11005 bound_to 11000
  145.0084  139.3532  143.6132 LP  0  0  0  0  0  0  0  0  0  0  0  0  # atno 17320 bound_to 7965
  146.3444  139.9337  142.8750 LP  0  0  0  0  0  0  0  0  0  0  0  0  # atno 17321 bound_to 7965
  140.7820  143.4363  151.0618 LP  0  0  0  0  0  0  0  0  0  0  0  0  # atno 17342 bound_to 10162
  139.8039  143.8045  152.3165 LP  0  0  0  0  0  0  0  0  0  0  0  0  # atno 17343 bound_to 10162
  157.7444  131.0458  150.4864 LP  0  0  0  0  0  0  0  0  0  0  0  0  # atno 17370 bound_to 10713
  156.5042  130.4124  149.6336 LP  0  0  0  0  0  0  0  0  0  0  0  0  # atno 17371 bound_to 10713
  141.1452  133.9068  157.2232 LP  0  0  0  0  0  0  0  0  0  0  0  0  # atno 17394 bound_to 11000
  139.9732  135.0122  156.9565 LP  0  0  0  0  0  0  0  0  0  0  0  0  # atno 17395 bound_to 11000

$$$$
