AV-unprocessed.smi:1774|AV-procd|sdf|7168|dock10
  -GOLD-   22720 8403D 1   1.00000     0.00000
 Structure written by MMmdl.
 46 47  0  0  0  0  0  0  0  0  2 V2000
  150.8778  145.1958  158.2230 C   0  0  0  0  0  0  0  0  0  0  0  0
  151.6223  143.9472  158.6674 C   0  0  0  0  0  0  0  0  0  0  0  0
  152.4616  144.0105  159.8001 C   0  0  0  0  0  0  0  0  0  0  0  0
  153.1499  142.8556  160.2091 C   0  0  0  0  0  0  0  0  0  0  0  0
  152.9692  141.6786  159.4628 C   0  0  0  0  0  0  0  0  0  0  0  0
  152.1688  141.6087  158.3795 N   0  0  0  0  0  0  0  0  0  0  0  0
  151.4962  142.7144  157.9722 C   0  0  0  0  0  0  0  0  0  0  0  0
  150.6354  142.7145  156.8382 N   0  0  0  0  0  0  0  0  0  0  0  0
  150.2821  141.6787  156.0568 C   0  0  0  0  0  0  0  0  0  0  0  0
  150.6593  140.5150  156.1974 O   0  0  0  0  0  0  0  0  0  0  0  0
  149.4493  142.0675  155.0803 N   0  0  0  0  0  0  0  0  0  0  0  0
  148.8766  141.1793  154.0756 C   0  0  0  0  0  0  0  0  0  0  0  0
  147.6522  140.4212  154.6225 C   0  0  0  0  0  0  0  0  0  0  0  0
  146.5273  141.3323  154.9472 N   0  3  1  0  0  0  0  0  0  0  0  0
  146.6344  141.9006  156.3119 C   0  0  0  0  0  0  0  0  0  0  0  0
  145.4201  142.7914  156.6418 C   0  0  2  0  0  0  0  0  0  0  0  0
  144.1294  141.9972  156.9118 C   0  0  0  0  0  0  0  0  0  0  0  0
  145.2433  143.7793  155.6265 O   0  0  0  0  0  0  0  0  0  0  0  0
  145.1047  143.2629  154.3052 C   0  0  1  0  0  0  0  0  0  0  0  0
  144.9300  144.4503  153.3519 C   0  0  0  0  0  0  0  0  0  0  0  0
  146.3414  142.4168  153.9532 C   0  0  0  0  0  0  0  0  0  0  0  0
  151.0606  146.0297  158.9014 H   0  0  0  0  0  0  0  0  0  0  0  0
  149.8030  145.0135  158.2006 H   0  0  0  0  0  0  0  0  0  0  0  0
  151.2000  145.4968  157.2256 H   0  0  0  0  0  0  0  0  0  0  0  0
  152.5792  144.9317  160.3517 H   0  0  0  0  0  0  0  0  0  0  0  0
  153.7991  142.8715  161.0721 H   0  0  0  0  0  0  0  0  0  0  0  0
  153.4799  140.7689  159.7426 H   0  0  0  0  0  0  0  0  0  0  0  0
  150.2373  143.6109  156.6007 H   0  0  0  0  0  0  0  0  0  0  0  0
  149.1866  143.0415  155.0352 H   0  0  0  0  0  0  0  0  0  0  0  0
  148.6243  141.7601  153.1880 H   0  0  0  0  0  0  0  0  0  0  0  0
  149.6469  140.4697  153.7725 H   0  0  0  0  0  0  0  0  0  0  0  0
  147.3302  139.7095  153.8606 H   0  0  0  0  0  0  0  0  0  0  0  0
  147.9111  139.8317  155.5035 H   0  0  0  0  0  0  0  0  0  0  0  0
  146.7183  141.1008  157.0490 H   0  0  0  0  0  0  0  0  0  0  0  0
  147.5512  142.4888  156.3792 H   0  0  0  0  0  0  0  0  0  0  0  0
  145.6493  143.3383  157.5568 H   0  0  0  0  0  0  0  0  0  0  0  0
  144.2470  141.3541  157.7845 H   0  0  0  0  0  0  0  0  0  0  0  0
  143.8531  141.3574  156.0742 H   0  0  0  0  0  0  0  0  0  0  0  0
  143.2939  142.6691  157.1094 H   0  0  0  0  0  0  0  0  0  0  0  0
  144.2080  142.6459  154.2420 H   0  0  0  0  0  0  0  0  0  0  0  0
  144.8065  144.1132  152.3222 H   0  0  0  0  0  0  0  0  0  0  0  0
  145.7937  145.1149  153.3850 H   0  0  0  0  0  0  0  0  0  0  0  0
  144.0494  145.0362  153.6169 H   0  0  0  0  0  0  0  0  0  0  0  0
  147.2338  143.0447  153.9279 H   0  0  0  0  0  0  0  0  0  0  0  0
  146.2186  142.0000  152.9540 H   0  0  0  0  0  0  0  0  0  0  0  0
  145.6878  140.7707  154.9385 H   0  0  0  0  0  0  0  0  0  0  0  0
  1  2  1  0  0  0  0
  1 22  1  0  0  0  0
  1 23  1  0  0  0  0
  1 24  1  0  0  0  0
  2  7  1  0  0  0  0
  2  3  2  0  0  0  0
  3  4  1  0  0  0  0
  3 25  1  0  0  0  0
  4  5  2  0  0  0  0
  4 26  1  0  0  0  0
  5  6  1  0  0  0  0
  5 27  1  0  0  0  0
  6  7  2  0  0  0  0
  7  8  1  0  0  0  0
  8  9  1  0  0  0  0
  8 28  1  0  0  0  0
  9 10  2  0  0  0  0
  9 11  1  0  0  0  0
 11 12  1  0  0  0  0
 11 29  1  0  0  0  0
 12 13  1  0  0  0  0
 12 30  1  0  0  0  0
 12 31  1  0  0  0  0
 13 14  1  0  0  0  0
 13 32  1  0  0  0  0
 13 33  1  0  0  0  0
 14 21  1  0  0  0  0
 14 15  1  0  0  0  0
 14 46  1  0  0  0  0
 15 16  1  0  0  0  0
 15 34  1  0  0  0  0
 15 35  1  0  0  0  0
 16 17  1  0  0  0  0
 16 18  1  0  0  0  0
 16 36  1  0  0  0  0
 17 37  1  0  0  0  0
 17 38  1  0  0  0  0
 17 39  1  0  0  0  0
 18 19  1  0  0  0  0
 19 20  1  0  0  0  0
 19 21  1  0  0  0  0
 19 40  1  0  0  0  0
 20 41  1  0  0  0  0
 20 42  1  0  0  0  0
 20 43  1  0  0  0  0
 21 44  1  0  0  0  0
 21 45  1  0  0  0  0
M  CHG  1  14   1
M  END
> <s_m_source_file>
AV-unprocessed.smi

> <i_m_source_file_index>
1774

> <i_lp_mmshare_version>
43012

> <i_f3d_flags>
0

> <s_epik_input>
W0NIM11jMVtjSF1bY0hdW2NIXW5jMVtOSF1DKD1PKVtOSF1bQ0gyXVtDSDJdTjJbQ0gyXVtDQEBIXShbQ0gzXSlPW0NAQEhdKFtDSDNdKVtDSDJdMg==

> <s_epik_cmdline>
J2VwaWtfcHl0aG9uJywgJy1waCcsICc3LjAnLCAnLXRuJywgJzgnLCAnLW1hJywgJzIwMCcsICctbWV0YWxfYmluZGluZycsICctaW1hZScsICc8aW5maWxlLm1hZT4nLCAnLW9tYWUnLCAnPG91dGZpbGUubWFlPic=

> <r_epik_Ionization_Penalty>
0.602573

> <r_epik_Ionization_Penalty_Charging>
0.602531

> <r_epik_Ionization_Penalty_Neutral>
4.21996e-05

> <r_epik_State_Penalty>
0.617039

> <r_epik_Charging_Adjusted_Penalty>
1.21957

> <i_epik_Tot_Q>
1

> <i_epik_Tot_abs_Q>
1

> <r_epik_Metal_State_Penalty>
0.617042

> <b_epik_Metal_Only>
0

> <s_lp_Force_Field>
OPLS_2005

> <r_lp_Energy>
18.8628

> <b_lp_Chiralities_Consistent>
1

> <s_lp_Variant>
AV-unprocessed.smi:1774-5

> <Gold.Version>
5.8.1

> <Gold.Id.Protein>
6NUR|6NUR_protein|mol2

> <Gold.PLP.Fitness>
46.0786

> <Gold.PLP.PLP>
-41.2822

> <Gold.PLP.part.hbond>
-2.0000

> <Gold.PLP.part.metal>
0.0000

> <Gold.PLP.part.buried>
-5.1512

> <Gold.PLP.part.nonpolar>
-34.1914

> <Gold.PLP.part.repulsive>
0.4311

> <Gold.PLP.ligand.clash>
0.0000

> <Gold.PLP.ligand.torsion>
0.3987

> <Gold.PLP.Chemscore.Hbond>
1.8613

> <Gold.PLP.Chemscore.CHOScore>
0.0000

> <Gold.PLP.Chemscore.Metal>
0.0000

> <Gold.Chemscore.Hbonds>
donor molecule, donor type, donor heavy atom, donor atom, acceptor molecule, acceptor atom, score
      L1  H     8    28       P1  8028  1.00
      L1  H    11    29       P1  8028  1.00

> <Gold.PLP.Chemscore.Internal.Correction>
0.0102

> <Gold.Rescore>
     Score         DG    S(hbond)    S(metal)    S(lipo)     H(rot)  DE(clash)    DE(int)     intcor
     17.45     -19.74       1.92        0.00      99.84       1.49       0.51       1.77       ----

> <Gold.Chemscore.Fitness>
17.4507

> <Gold.Chemscore.DG>
-19.7387

> <Gold.Chemscore.ZeroCoef>
-5.4800

> <Gold.Chemscore.Hbond>
1.9170

> <Gold.Chemscore.Metal>
0.0000

> <Gold.Chemscore.Lipo>
99.8449

> <Gold.Chemscore.Internal_Hbond>
0.0000

> <Gold.Chemscore.DEClash>
0.5147

> <Gold.Chemscore.DEInternal>
1.7733

> <Gold.Chemscore.Rot>
1.4946

> <Gold.Chemscore.Internal.Correction>
   9.000000E+99

> <Gold.Chemscore.Hbonds>
donor molecule, donor type, donor heavy atom, donor atom, acceptor molecule, acceptor atom, score
      L1  H     8    28       P1  8028  0.94
      L1  H    11    29       P1  8028  0.99

> <Gold.Chemscore.Hbond.Weighted>
-6.4029

> <Gold.Chemscore.Metal.Weighted>
-0.0000

> <Gold.Chemscore.Lipo.Weighted>
-11.6818

> <Gold.Chemscore.Internal_Hbond.Weighted>
0.0000

> <Gold.Chemscore.DEClash.Weighted>
0.5147

> <Gold.Chemscore.DEInternal.Weighted>
1.7733

> <Gold.Chemscore.Rot.Weighted>
3.8261

> <Gold.Chemscore.Internal.Correction.Weighted>
   9.000000E+99

> <Gold.Protein.RotatedTorsions>
[ 6907 6896 6895 6894 ] final   51.81 input  -60.11 | X-H torsion
[ 7974 7965 7964 7962 ] final  -38.18 input  175.53 | X-H torsion
[ 8008 7997 7996 7995 ] final   54.21 input   59.86 | X-H torsion
[ 10167 10162 10161 10158 ] final -166.75 input  -65.29 | X-H torsion
[ 10718 10713 10712 10709 ] final  130.77 input   66.30 | X-H torsion
[ 10763 10752 10751 10750 ] final  -25.17 input  -60.55 | X-H torsion
[ 11005 11000 10999 10996 ] final  155.54 input  -57.11 | X-H torsion

> <Gold.Protein.ActiveResidues>
 VAL166  LYS551  ARG553  GLY616  TRP617  ASP618  TYR619  PRO620  LYS621  CYS622 
 ASP623  PHE694  ASN695  SER759  ASP760  ASP761  ALA762  ILE779  LEU786  VAL792 
 PHE793  MET794  SER795  GLU796  ALA797  LYS798  CYS799  TRP800  GLU811  SER814 

> <Gold.Protein.RotatedAtoms>
  152.3167  134.7431  160.0323 H   0  0  0  0  0  0  0  0  0  0  0  0  # atno 6907 bound_to 6896
  151.7894  133.3352  159.3502 H   0  0  0  0  0  0  0  0  0  0  0  0  # atno 6908 bound_to 6896
  150.7348  134.5788  159.5972 H   0  0  0  0  0  0  0  0  0  0  0  0  # atno 6909 bound_to 6896
  146.0509  140.6482  142.9042 H   0  0  0  0  0  0  0  0  0  0  0  0  # atno 7974 bound_to 7965
  155.4810  140.3468  155.4340 H   0  0  0  0  0  0  0  0  0  0  0  0  # atno 8008 bound_to 7997
  156.1039  140.1442  156.9459 H   0  0  0  0  0  0  0  0  0  0  0  0  # atno 8009 bound_to 7997
  154.4711  140.0900  156.7125 H   0  0  0  0  0  0  0  0  0  0  0  0  # atno 8010 bound_to 7997
  139.6094  144.0845  152.1827 H   0  0  0  0  0  0  0  0  0  0  0  0  # atno 10167 bound_to 10162
  157.5030  131.1095  150.9400 H   0  0  0  0  0  0  0  0  0  0  0  0  # atno 10718 bound_to 10713
  153.6956  135.6959  153.5077 H   0  0  0  0  0  0  0  0  0  0  0  0  # atno 10763 bound_to 10752
  153.2380  135.4315  155.0667 H   0  0  0  0  0  0  0  0  0  0  0  0  # atno 10764 bound_to 10752
  154.8360  135.3501  154.6497 H   0  0  0  0  0  0  0  0  0  0  0  0  # atno 10765 bound_to 10752
  140.1591  134.8622  157.2551 H   0  0  0  0  0  0  0  0  0  0  0  0  # atno 11005 bound_to 11000
  144.7122  140.4081  143.7071 LP  0  0  0  0  0  0  0  0  0  0  0  0  # atno 17320 bound_to 7965
  145.6725  139.1602  143.2746 LP  0  0  0  0  0  0  0  0  0  0  0  0  # atno 17321 bound_to 7965
  140.0460  144.5970  150.7373 LP  0  0  0  0  0  0  0  0  0  0  0  0  # atno 17342 bound_to 10162
  140.7308  143.2688  151.3957 LP  0  0  0  0  0  0  0  0  0  0  0  0  # atno 17343 bound_to 10162
  157.0064  130.5620  149.5316 LP  0  0  0  0  0  0  0  0  0  0  0  0  # atno 17370 bound_to 10713
  156.0241  130.5335  150.8358 LP  0  0  0  0  0  0  0  0  0  0  0  0  # atno 17371 bound_to 10713
  140.2512  134.3681  155.7441 LP  0  0  0  0  0  0  0  0  0  0  0  0  # atno 17394 bound_to 11000
  141.2207  133.7317  156.8938 LP  0  0  0  0  0  0  0  0  0  0  0  0  # atno 17395 bound_to 11000

$$$$
