AV-unprocessed.smi:1708|AV-procd|sdf|6889|dock2
  -GOLD-   22720 8 93D 1   1.00000     0.00000
 Structure written by MMmdl.
 36 38  0  0  0  0  0  0  0  0  1 V2000
  153.8156  140.1447  160.1724 C   0  0  0  0  0  0  0  0  0  0  0  0
  152.9700  141.0619  159.4182 N   0  0  0  0  0  0  0  0  0  0  0  0
  152.4501  140.8644  158.1846 C   0  0  0  0  0  0  0  0  0  0  0  0
  152.6043  139.8639  157.4843 O   0  0  0  0  0  0  0  0  0  0  0  0
  151.7127  141.9528  157.8601 N   0  0  0  0  0  0  0  0  0  0  0  0
  150.9429  142.1374  156.6288 C   0  0  0  0  0  0  0  0  0  0  0  0
  150.0856  140.9015  156.2799 C   0  0  2  0  0  0  0  0  0  0  0  0
  150.5559  140.3617  155.0620 O   0  0  0  0  0  0  0  0  0  0  0  0
  148.5949  141.2118  156.2384 C   0  0  0  0  0  0  0  0  0  0  0  0
  147.7609  140.8758  157.3274 C   0  0  0  0  0  0  0  0  0  0  0  0
  146.3783  141.1368  157.2695 C   0  0  0  0  0  0  0  0  0  0  0  0
  145.8213  141.7344  156.1226 C   0  0  0  0  0  0  0  0  0  0  0  0
  146.6478  142.0713  155.0337 C   0  0  0  0  0  0  0  0  0  0  0  0
  146.1125  142.6416  153.9286 F   0  0  0  0  0  0  0  0  0  0  0  0
  148.0307  141.8119  155.0919 C   0  0  0  0  0  0  0  0  0  0  0  0
  151.7558  142.8697  158.9227 C   0  0  0  0  0  0  0  0  0  0  0  0
  151.1516  144.1286  159.0905 C   0  0  0  0  0  0  0  0  0  0  0  0
  151.3870  144.8020  160.3119 C   0  0  0  0  0  0  0  0  0  0  0  0
  152.2010  144.2203  161.3183 C   0  0  0  0  0  0  0  0  0  0  0  0
  152.7961  142.9516  161.1247 C   0  0  0  0  0  0  0  0  0  0  0  0
  152.5452  142.3052  159.9024 C   0  0  0  0  0  0  0  0  0  0  0  0
  154.1009  139.2717  159.5839 H   0  0  0  0  0  0  0  0  0  0  0  0
  153.2907  139.7960  161.0619 H   0  0  0  0  0  0  0  0  0  0  0  0
  154.7294  140.6479  160.4894 H   0  0  0  0  0  0  0  0  0  0  0  0
  150.3066  143.0171  156.7276 H   0  0  0  0  0  0  0  0  0  0  0  0
  151.6283  142.3586  155.8090 H   0  0  0  0  0  0  0  0  0  0  0  0
  150.2529  140.1356  157.0384 H   0  0  0  0  0  0  0  0  0  0  0  0
  150.9603  139.5266  155.2413 H   0  0  0  0  0  0  0  0  0  0  0  0
  148.1779  140.4070  158.2066 H   0  0  0  0  0  0  0  0  0  0  0  0
  145.7444  140.8750  158.1037 H   0  0  0  0  0  0  0  0  0  0  0  0
  144.7606  141.9324  156.0778 H   0  0  0  0  0  0  0  0  0  0  0  0
  148.6558  142.0650  154.2480 H   0  0  0  0  0  0  0  0  0  0  0  0
  150.5282  144.5672  158.3260 H   0  0  0  0  0  0  0  0  0  0  0  0
  150.9398  145.7704  160.4810 H   0  0  0  0  0  0  0  0  0  0  0  0
  152.3666  144.7513  162.2439 H   0  0  0  0  0  0  0  0  0  0  0  0
  153.4143  142.5002  161.8864 H   0  0  0  0  0  0  0  0  0  0  0  0
  1  2  1  0  0  0  0
  1 22  1  0  0  0  0
  1 23  1  0  0  0  0
  1 24  1  0  0  0  0
  2 21  1  0  0  0  0
  2  3  1  0  0  0  0
  3  4  2  0  0  0  0
  3  5  1  0  0  0  0
  5  6  1  0  0  0  0
  5 16  1  0  0  0  0
  6  7  1  0  0  0  0
  6 25  1  0  0  0  0
  6 26  1  0  0  0  0
  7  8  1  0  0  0  0
  7  9  1  0  0  0  0
  7 27  1  0  0  0  0
  8 28  1  0  0  0  0
  9 15  1  0  0  0  0
  9 10  2  0  0  0  0
 10 11  1  0  0  0  0
 10 29  1  0  0  0  0
 11 12  2  0  0  0  0
 11 30  1  0  0  0  0
 12 13  1  0  0  0  0
 12 31  1  0  0  0  0
 13 14  1  0  0  0  0
 13 15  2  0  0  0  0
 15 32  1  0  0  0  0
 16 21  2  0  0  0  0
 16 17  1  0  0  0  0
 17 18  2  0  0  0  0
 17 33  1  0  0  0  0
 18 19  1  0  0  0  0
 18 34  1  0  0  0  0
 19 20  2  0  0  0  0
 19 35  1  0  0  0  0
 20 21  1  0  0  0  0
 20 36  1  0  0  0  0
M  END
> <s_m_source_file>
AV-unprocessed.smi

> <i_m_source_file_index>
1708

> <i_lp_mmshare_version>
43012

> <i_f3d_flags>
0

> <s_epik_input>
W2NIXTFbY0hdW2NIXVtjSF1jKGMxMiluKFtDSDNdKWMoPU8pbjJbQ0gyXVtDQEhdKFtPSF0pYzNbY0hdW2NIXVtjSF1jKEYpW2NIXTM=

> <s_epik_cmdline>
J2VwaWtfcHl0aG9uJywgJy1waCcsICc3LjAnLCAnLXRuJywgJzgnLCAnLW1hJywgJzIwMCcsICctbWV0YWxfYmluZGluZycsICctaW1hZScsICc8aW5maWxlLm1hZT4nLCAnLW9tYWUnLCAnPG91dGZpbGUubWFlPic=

> <r_lp_tautomer_probability>
1

> <r_epik_Ionization_Penalty>
3.53466e-06

> <r_epik_Ionization_Penalty_Charging>
2.57375e-09

> <r_epik_Ionization_Penalty_Neutral>
3.53208e-06

> <r_epik_State_Penalty>
-0

> <r_epik_Charging_Adjusted_Penalty>
2.57375e-09

> <i_epik_Tot_Q>
0

> <i_epik_Tot_abs_Q>
0

> <r_epik_Metal_State_Penalty>
-0

> <b_epik_Metal_Only>
0

> <s_lp_Force_Field>
OPLS_2005

> <r_lp_Energy>
39.7129

> <b_lp_Chiralities_Consistent>
1

> <s_lp_Variant>
AV-unprocessed.smi:1708-1

> <Gold.Version>
5.8.1

> <Gold.Id.Protein>
6NUR|6NUR_protein|mol2

> <Gold.PLP.Fitness>
49.9611

> <Gold.PLP.PLP>
-46.6928

> <Gold.PLP.part.hbond>
-2.0000

> <Gold.PLP.part.metal>
0.0000

> <Gold.PLP.part.buried>
-6.4429

> <Gold.PLP.part.nonpolar>
-37.5659

> <Gold.PLP.part.repulsive>
0.0000

> <Gold.PLP.ligand.clash>
0.0000

> <Gold.PLP.ligand.torsion>
1.3841

> <Gold.PLP.Chemscore.Hbond>
2.0000

> <Gold.PLP.Chemscore.CHOScore>
0.0000

> <Gold.PLP.Chemscore.Metal>
0.0000

> <Gold.Chemscore.Hbonds>
donor molecule, donor type, donor heavy atom, donor atom, acceptor molecule, acceptor atom, score
      P1  H  7989  7998       L1     8  0.95
      P1  H  7997  8010       L1     4  1.00

> <Gold.PLP.Chemscore.Internal.Correction>
0.0366

> <Gold.Rescore>
     Score         DG    S(hbond)    S(metal)    S(lipo)     H(rot)  DE(clash)    DE(int)     intcor
     17.79     -19.82       1.89        0.00     109.00       1.85       0.81       1.23       ----

> <Gold.Chemscore.Fitness>
17.7910

> <Gold.Chemscore.DG>
-19.8242

> <Gold.Chemscore.ZeroCoef>
-5.4800

> <Gold.Chemscore.Hbond>
1.8918

> <Gold.Chemscore.Metal>
0.0000

> <Gold.Chemscore.Lipo>
108.9956

> <Gold.Chemscore.Internal_Hbond>
0.0000

> <Gold.Chemscore.DEClash>
0.8055

> <Gold.Chemscore.DEInternal>
1.2277

> <Gold.Chemscore.Rot>
1.8465

> <Gold.Chemscore.Internal.Correction>
   9.000000E+99

> <Gold.Chemscore.Hbonds>
donor molecule, donor type, donor heavy atom, donor atom, acceptor molecule, acceptor atom, score
      P1  H  7989  7998       L1     8  0.21
      P1  H  7997  8010       L1     4  0.49

> <Gold.Chemscore.Hbond.Weighted>
-6.3187

> <Gold.Chemscore.Metal.Weighted>
-0.0000

> <Gold.Chemscore.Lipo.Weighted>
-12.7525

> <Gold.Chemscore.Internal_Hbond.Weighted>
0.0000

> <Gold.Chemscore.DEClash.Weighted>
0.8055

> <Gold.Chemscore.DEInternal.Weighted>
1.2277

> <Gold.Chemscore.Rot.Weighted>
4.7270

> <Gold.Chemscore.Internal.Correction.Weighted>
   9.000000E+99

> <Gold.Protein.RotatedTorsions>
[ 6907 6896 6895 6894 ] final   10.68 input  -60.11 | X-H torsion
[ 7974 7965 7964 7962 ] final   78.68 input  175.53 | X-H torsion
[ 8008 7997 7996 7995 ] final   58.42 input   59.86 | X-H torsion
[ 10167 10162 10161 10158 ] final   11.50 input  -65.29 | X-H torsion
[ 10718 10713 10712 10709 ] final -131.93 input   66.30 | X-H torsion
[ 10763 10752 10751 10750 ] final  167.19 input  -60.55 | X-H torsion
[ 11005 11000 10999 10996 ] final  -48.88 input  -57.11 | X-H torsion

> <Gold.Protein.ActiveResidues>
 VAL166  LYS551  ARG553  GLY616  TRP617  ASP618  TYR619  PRO620  LYS621  CYS622 
 ASP623  PHE694  ASN695  SER759  ASP760  ASP761  ALA762  ILE779  LEU786  VAL792 
 PHE793  MET794  SER795  GLU796  ALA797  LYS798  CYS799  TRP800  GLU811  SER814 

> <Gold.Protein.RotatedAtoms>
  151.7422  135.0852  160.0317 H   0  0  0  0  0  0  0  0  0  0  0  0  # atno 6907 bound_to 6896
  152.3472  133.6132  159.5927 H   0  0  0  0  0  0  0  0  0  0  0  0  # atno 6908 bound_to 6896
  150.7516  133.9547  159.3538 H   0  0  0  0  0  0  0  0  0  0  0  0  # atno 6909 bound_to 6896
  145.6739  139.2504  143.1852 H   0  0  0  0  0  0  0  0  0  0  0  0  # atno 7974 bound_to 7965
  155.5498  140.3486  155.4466 H   0  0  0  0  0  0  0  0  0  0  0  0  # atno 8008 bound_to 7997
  156.0591  140.1336  156.9988 H   0  0  0  0  0  0  0  0  0  0  0  0  # atno 8009 bound_to 7997
  154.4471  140.0989  156.6475 H   0  0  0  0  0  0  0  0  0  0  0  0  # atno 8010 bound_to 7997
  140.6128  143.8372  150.7084 H   0  0  0  0  0  0  0  0  0  0  0  0  # atno 10167 bound_to 10162
  156.2294  130.7028  151.0842 H   0  0  0  0  0  0  0  0  0  0  0  0  # atno 10718 bound_to 10713
  154.3502  135.2753  155.2376 H   0  0  0  0  0  0  0  0  0  0  0  0  # atno 10763 bound_to 10752
  154.4609  135.5907  153.6258 H   0  0  0  0  0  0  0  0  0  0  0  0  # atno 10764 bound_to 10752
  152.9850  135.6065  154.3711 H   0  0  0  0  0  0  0  0  0  0  0  0  # atno 10765 bound_to 10752
  141.0727  133.6674  156.3505 H   0  0  0  0  0  0  0  0  0  0  0  0  # atno 11005 bound_to 11000
  146.1021  140.7531  142.9544 LP  0  0  0  0  0  0  0  0  0  0  0  0  # atno 17320 bound_to 7965
  144.7048  140.3805  143.7127 LP  0  0  0  0  0  0  0  0  0  0  0  0  # atno 17321 bound_to 7965
  140.1944  143.4010  152.1839 LP  0  0  0  0  0  0  0  0  0  0  0  0  # atno 17342 bound_to 10162
  139.5374  144.7224  151.4846 LP  0  0  0  0  0  0  0  0  0  0  0  0  # atno 17343 bound_to 10162
  157.7126  131.0726  150.6446 LP  0  0  0  0  0  0  0  0  0  0  0  0  # atno 17370 bound_to 10713
  156.6513  130.4486  149.5718 LP  0  0  0  0  0  0  0  0  0  0  0  0  # atno 17371 bound_to 10713
  140.5640  134.5906  157.5441 LP  0  0  0  0  0  0  0  0  0  0  0  0  # atno 17394 bound_to 11000
  139.9539  134.7568  156.0385 LP  0  0  0  0  0  0  0  0  0  0  0  0  # atno 17395 bound_to 11000

$$$$
