AV-unprocessed.smi:35|AV-procd|sdf|258|dock10
  -GOLD-   2262016 23D 1   1.00000     0.00000
 Structure written by MMmdl.
 29 30  0  0  0  0  0  0  0  0  1 V2000
  150.0000  136.1441  158.3980 O   0  0  0  0  0  0  0  0  0  0  0  0
  149.8245  136.9010  157.4457 C   0  0  0  0  0  0  0  0  0  0  0  0
  150.1238  138.2607  157.5600 N   0  0  0  0  0  0  0  0  0  0  0  0
  149.9615  139.2141  156.5533 C   0  0  0  0  0  0  0  0  0  0  0  0
  150.2867  140.3827  156.7583 O   0  0  0  0  0  0  0  0  0  0  0  0
  149.4220  138.7767  155.3211 N   0  0  0  0  0  0  0  0  0  0  0  0
  149.2607  139.7970  154.2052 C   0  0  1  0  0  0  0  0  0  0  0  0
  148.7174  139.1883  153.0733 O   0  0  0  0  0  0  0  0  0  0  0  0
  147.3036  139.3298  153.0898 C   0  0  2  0  0  0  0  0  0  0  0  0
  146.7515  139.1038  151.6738 C   0  0  0  0  0  0  0  0  0  0  0  0
  147.1407  137.8363  151.1889 O   0  0  0  0  0  0  0  0  0  0  0  0
  147.1068  140.7451  153.6392 C   0  0  1  0  0  0  0  0  0  0  0  0
  145.8772  140.8309  154.3317 O   0  0  0  0  0  0  0  0  0  0  0  0
  148.2807  140.9275  154.6024 C   0  0  2  0  0  0  0  0  0  0  0  0
  148.8618  142.2046  154.4277 O   0  0  0  0  0  0  0  0  0  0  0  0
  149.1493  137.4227  155.1504 C   0  0  0  0  0  0  0  0  0  0  0  0
  149.3197  136.5090  156.1350 C   0  0  0  0  0  0  0  0  0  0  0  0
  148.8682  134.6320  155.6889 Br  0  0  0  0  0  0  0  0  0  0  0  0
  150.4948  138.5795  158.4432 H   0  0  0  0  0  0  0  0  0  0  0  0
  150.2779  140.1313  153.9910 H   0  0  0  0  0  0  0  0  0  0  0  0
  146.8891  138.5923  153.7795 H   0  0  0  0  0  0  0  0  0  0  0  0
  145.6644  139.1846  151.6577 H   0  0  0  0  0  0  0  0  0  0  0  0
  147.1410  139.8637  150.9960 H   0  0  0  0  0  0  0  0  0  0  0  0
  147.6991  137.4268  151.8323 H   0  0  0  0  0  0  0  0  0  0  0  0
  147.1407  141.4766  152.8301 H   0  0  0  0  0  0  0  0  0  0  0  0
  145.1767  140.8326  153.6967 H   0  0  0  0  0  0  0  0  0  0  0  0
  147.9647  140.8103  155.6403 H   0  0  0  0  0  0  0  0  0  0  0  0
  148.5122  142.7864  155.0849 H   0  0  0  0  0  0  0  0  0  0  0  0
  148.7926  137.0525  154.2015 H   0  0  0  0  0  0  0  0  0  0  0  0
  1  2  2  0  0  0  0
  2 17  1  0  0  0  0
  2  3  1  0  0  0  0
  3 19  1  0  0  0  0
  3  4  1  0  0  0  0
  4  5  2  0  0  0  0
  4  6  1  0  0  0  0
  6  7  1  0  0  0  0
  6 16  1  0  0  0  0
  7 14  1  0  0  0  0
  7  8  1  0  0  0  0
  7 20  1  0  0  0  0
  8  9  1  0  0  0  0
  9 10  1  0  0  0  0
  9 12  1  0  0  0  0
  9 21  1  0  0  0  0
 10 11  1  0  0  0  0
 10 22  1  0  0  0  0
 10 23  1  0  0  0  0
 11 24  1  0  0  0  0
 12 13  1  0  0  0  0
 12 14  1  0  0  0  0
 12 25  1  0  0  0  0
 13 26  1  0  0  0  0
 14 15  1  0  0  0  0
 14 27  1  0  0  0  0
 15 28  1  0  0  0  0
 16 17  2  0  0  0  0
 16 29  1  0  0  0  0
 17 18  1  0  0  0  0
M  END
> <s_m_source_file>
AV-unprocessed.smi

> <i_m_source_file_index>
35

> <i_lp_mmshare_version>
43012

> <i_f3d_flags>
0

> <s_epik_input>
Tz1jMVtuSF1jKD1PKW4oW2NIXWMxQnIpW0NAQEhdMk9bQ0BASF0oW0NIMl1bT0hdKVtDQEBIXShbT0hdKVtDQEhdMltPSF0=

> <s_epik_cmdline>
J2VwaWtfcHl0aG9uJywgJy1waCcsICc3LjAnLCAnLXRuJywgJzgnLCAnLW1hJywgJzIwMCcsICctbWV0YWxfYmluZGluZycsICctaW1hZScsICc8aW5maWxlLm1hZT4nLCAnLW9tYWUnLCAnPG91dGZpbGUubWFlPic=

> <r_lp_tautomer_probability>
0.999537

> <r_epik_Ionization_Penalty>
0.10812

> <r_epik_Ionization_Penalty_Charging>
0.108119

> <r_epik_Ionization_Penalty_Neutral>
4.93006e-07

> <r_epik_State_Penalty>
0.0979238

> <r_epik_Charging_Adjusted_Penalty>
0.206043

> <i_epik_Tot_Q>
0

> <i_epik_Tot_abs_Q>
0

> <r_epik_Metal_State_Penalty>
3.07911

> <b_epik_Metal_Only>
0

> <s_epik_Chemistry_Notes>
This compound contains an acetal/aminal-like group ( X-CH(R)-Y where X, Y are N, S, or O) that may be acid/base labile, releasing an aldehyde.

> <s_lp_Force_Field>
OPLS_2005

> <r_lp_Energy>
26.4636

> <b_lp_Chiralities_Consistent>
1

> <s_lp_Variant>
AV-unprocessed.smi:35-12

> <Gold.Version>
5.8.1

> <Gold.Id.Protein>
6NUR|6NUR_protein|mol2

> <Gold.PLP.Fitness>
35.6552

> <Gold.PLP.PLP>
-18.6774

> <Gold.PLP.part.hbond>
-5.8273

> <Gold.PLP.part.metal>
0.0000

> <Gold.PLP.part.buried>
-1.8246

> <Gold.PLP.part.nonpolar>
-16.5053

> <Gold.PLP.part.repulsive>
5.6136

> <Gold.PLP.ligand.clash>
0.0000

> <Gold.PLP.ligand.torsion>
0.0353

> <Gold.PLP.Chemscore.Hbond>
4.6720

> <Gold.PLP.Chemscore.CHOScore>
1.0000

> <Gold.PLP.Chemscore.Metal>
0.0000

> <Gold.Chemscore.Hbonds>
donor molecule, donor type, donor heavy atom, donor atom, acceptor molecule, acceptor atom, score
      L1  H    11    24       P1  7948  0.72
      L1  H    13    26       P1 10175  1.00
      L1  H    15    28       P1  8028  0.70
      P1  H  6896  6907       L1     1  1.00
      P1  H  7954  7966       L1    11  1.00
      P1  H  8011  8017       L1    15  0.10
      L1  C    16    29       P1  7948  1.00

> <Gold.PLP.Chemscore.Internal.Correction>
0.0326

> <Gold.Rescore>
     Score         DG    S(hbond)    S(metal)    S(lipo)     H(rot)  DE(clash)    DE(int)     intcor
     10.15     -13.27       3.79        0.00      38.80       3.67       2.05       1.07       ----

> <Gold.Chemscore.Fitness>
10.1510

> <Gold.Chemscore.DG>
-13.2731

> <Gold.Chemscore.ZeroCoef>
-5.4800

> <Gold.Chemscore.Hbond>
3.7870

> <Gold.Chemscore.Metal>
0.0000

> <Gold.Chemscore.Lipo>
38.8024

> <Gold.Chemscore.Internal_Hbond>
0.0000

> <Gold.Chemscore.DEClash>
2.0511

> <Gold.Chemscore.DEInternal>
1.0710

> <Gold.Chemscore.Rot>
3.6701

> <Gold.Chemscore.Internal.Correction>
   9.000000E+99

> <Gold.Chemscore.Hbonds>
donor molecule, donor type, donor heavy atom, donor atom, acceptor molecule, acceptor atom, score
      L1  H    11    24       P1  7948  0.72
      L1  H    13    26       P1 10175  0.90
      L1  H    15    28       P1  8028  0.65
      P1  H  6896  6907       L1     1  0.93
      P1  H  7954  7966       L1    11  0.23
      P1  H  8011  8017       L1    15  0.08

> <Gold.Chemscore.Hbond.Weighted>
-12.6486

> <Gold.Chemscore.Metal.Weighted>
-0.0000

> <Gold.Chemscore.Lipo.Weighted>
-4.5399

> <Gold.Chemscore.Internal_Hbond.Weighted>
0.0000

> <Gold.Chemscore.DEClash.Weighted>
2.0511

> <Gold.Chemscore.DEInternal.Weighted>
1.0710

> <Gold.Chemscore.Rot.Weighted>
9.3955

> <Gold.Chemscore.Internal.Correction.Weighted>
   9.000000E+99

> <Gold.Protein.RotatedTorsions>
[ 6907 6896 6895 6894 ] final  -51.74 input  -60.11 | X-H torsion
[ 7974 7965 7964 7962 ] final   89.82 input  175.53 | X-H torsion
[ 8008 7997 7996 7995 ] final   89.45 input   59.86 | X-H torsion
[ 10167 10162 10161 10158 ] final  -81.36 input  -65.29 | X-H torsion
[ 10718 10713 10712 10709 ] final   53.12 input   66.30 | X-H torsion
[ 10763 10752 10751 10750 ] final   42.01 input  -60.55 | X-H torsion
[ 11005 11000 10999 10996 ] final  -26.16 input  -57.11 | X-H torsion

> <Gold.Protein.ActiveResidues>
 VAL166  LYS551  ARG553  GLY616  TRP617  ASP618  TYR619  PRO620  LYS621  CYS622 
 ASP623  PHE694  ASN695  SER759  ASP760  ASP761  ALA762  ILE779  LEU786  VAL792 
 PHE793  MET794  SER795  GLU796  ALA797  LYS798  CYS799  TRP800  GLU811  SER814 

> <Gold.Protein.RotatedAtoms>
  150.8582  134.7927  159.7062 H   0  0  0  0  0  0  0  0  0  0  0  0  # atno 6907 bound_to 6896
  152.4627  134.5143  159.9773 H   0  0  0  0  0  0  0  0  0  0  0  0  # atno 6908 bound_to 6896
  151.5251  133.3421  159.2944 H   0  0  0  0  0  0  0  0  0  0  0  0  # atno 6909 bound_to 6896
  145.5273  139.2281  143.2638 H   0  0  0  0  0  0  0  0  0  0  0  0  # atno 7974 bound_to 7965
  156.0001  140.3360  155.6837 H   0  0  0  0  0  0  0  0  0  0  0  0  # atno 8008 bound_to 7997
  155.6302  140.0684  157.2669 H   0  0  0  0  0  0  0  0  0  0  0  0  # atno 8009 bound_to 7997
  154.4246  140.1761  156.1451 H   0  0  0  0  0  0  0  0  0  0  0  0  # atno 8010 bound_to 7997
  140.4419  143.2512  151.8613 H   0  0  0  0  0  0  0  0  0  0  0  0  # atno 10167 bound_to 10162
  157.5138  130.8518  149.8469 H   0  0  0  0  0  0  0  0  0  0  0  0  # atno 10718 bound_to 10713
  152.9893  135.6144  154.2880 H   0  0  0  0  0  0  0  0  0  0  0  0  # atno 10763 bound_to 10752
  154.2606  135.2782  155.2781 H   0  0  0  0  0  0  0  0  0  0  0  0  # atno 10764 bound_to 10752
  154.5208  135.5815  153.6737 H   0  0  0  0  0  0  0  0  0  0  0  0  # atno 10765 bound_to 10752
  140.9004  133.7528  156.0536 H   0  0  0  0  0  0  0  0  0  0  0  0  # atno 11005 bound_to 11000
  146.2067  140.6088  142.9078 LP  0  0  0  0  0  0  0  0  0  0  0  0  # atno 17320 bound_to 7965
  144.7644  140.5497  143.6713 LP  0  0  0  0  0  0  0  0  0  0  0  0  # atno 17321 bound_to 7965
  139.4790  144.5219  151.8790 LP  0  0  0  0  0  0  0  0  0  0  0  0  # atno 17342 bound_to 10162
  140.4308  144.2118  150.5888 LP  0  0  0  0  0  0  0  0  0  0  0  0  # atno 17343 bound_to 10162
  156.0306  130.3765  150.1697 LP  0  0  0  0  0  0  0  0  0  0  0  0  # atno 17370 bound_to 10713
  156.9886  130.9886  151.3420 LP  0  0  0  0  0  0  0  0  0  0  0  0  # atno 17371 bound_to 10713
  140.8237  134.3259  157.5373 LP  0  0  0  0  0  0  0  0  0  0  0  0  # atno 17394 bound_to 11000
  139.8741  134.9324  156.3553 LP  0  0  0  0  0  0  0  0  0  0  0  0  # atno 17395 bound_to 11000

$$$$
