AV-unprocessed.smi:1120|AV-procd|sdf|4819|dock8
  -GOLD-   22720 3373D 1   1.00000     0.00000
 Structure written by MMmdl.
 48 49  0  0  0  0  0  0  0  0  1 V2000
  149.1914  130.6628  154.4447 C   0  0  0  0  0  0  0  0  0  0  0  0
  148.4811  131.9300  154.9410 C   0  0  2  0  0  0  0  0  0  0  0  0
  147.9223  132.7575  153.7695 C   0  0  0  0  0  0  0  0  0  0  0  0
  147.1895  134.0191  154.2564 C   0  0  0  0  0  0  0  0  0  0  0  0
  148.0551  134.8801  155.1963 C   0  0  2  0  0  0  0  0  0  0  0  0
  149.0728  135.6173  154.4415 N   0  0  0  0  0  0  0  0  0  0  0  0
  150.0772  136.8249  155.1589 S   0  0  0  0  0  0  0  0  0  0  0  0
  149.7118  136.8849  156.5821 O   0  0  0  0  0  0  0  0  0  0  0  0
  151.4677  136.5569  154.7587 O   0  0  0  0  0  0  0  0  0  0  0  0
  149.4755  138.3804  154.3573 C   0  0  0  0  0  0  0  0  0  0  0  0
  150.2417  139.6008  154.8670 C   0  0  0  0  0  0  0  0  0  0  0  0
  151.4723  139.5964  154.8791 O   0  0  0  0  0  0  0  0  0  0  0  0
  149.5025  140.6367  155.2931 N   0  0  0  0  0  0  0  0  0  0  0  0
  150.0380  141.8880  155.8169 C   0  0  0  0  0  0  0  0  0  0  0  0
  149.6809  142.0811  157.2999 C   0  0  0  0  0  0  0  0  0  0  0  0
  150.8591  142.5763  158.1168 C   0  0  0  0  0  0  0  0  0  0  0  0
  151.5480  143.7516  157.7490 C   0  0  0  0  0  0  0  0  0  0  0  0
  152.6365  144.1670  158.5405 C   0  0  0  0  0  0  0  0  0  0  0  0
  152.9932  143.3946  159.6629 C   0  0  0  0  0  0  0  0  0  0  0  0
  152.2422  142.2359  159.9443 C   0  0  0  0  0  0  0  0  0  0  0  0
  151.1968  141.8288  159.1920 N   0  0  0  0  0  0  0  0  0  0  0  0
  148.7056  134.0576  156.3245 C   0  0  0  0  0  0  0  0  0  0  0  0
  149.4157  132.7971  155.8036 C   0  0  0  0  0  0  0  0  0  0  0  0
  150.0476  130.9079  153.8157 H   0  0  0  0  0  0  0  0  0  0  0  0
  148.5163  130.0380  153.8597 H   0  0  0  0  0  0  0  0  0  0  0  0
  149.5530  130.0629  155.2804 H   0  0  0  0  0  0  0  0  0  0  0  0
  147.6422  131.6141  155.5629 H   0  0  0  0  0  0  0  0  0  0  0  0
  148.7346  133.0449  153.1006 H   0  0  0  0  0  0  0  0  0  0  0  0
  147.2388  132.1493  153.1761 H   0  0  0  0  0  0  0  0  0  0  0  0
  146.8457  134.6074  153.4048 H   0  0  0  0  0  0  0  0  0  0  0  0
  146.2902  133.7136  154.7923 H   0  0  0  0  0  0  0  0  0  0  0  0
  147.4031  135.6183  155.6626 H   0  0  0  0  0  0  0  0  0  0  0  0
  148.9849  135.6403  153.4256 H   0  0  0  0  0  0  0  0  0  0  0  0
  149.5494  138.2739  153.2748 H   0  0  0  0  0  0  0  0  0  0  0  0
  148.4208  138.4981  154.6068 H   0  0  0  0  0  0  0  0  0  0  0  0
  148.4970  140.5542  155.2510 H   0  0  0  0  0  0  0  0  0  0  0  0
  151.1213  141.8671  155.6946 H   0  0  0  0  0  0  0  0  0  0  0  0
  149.6752  142.7295  155.2240 H   0  0  0  0  0  0  0  0  0  0  0  0
  148.8544  142.7859  157.4011 H   0  0  0  0  0  0  0  0  0  0  0  0
  149.3336  141.1396  157.7255 H   0  0  0  0  0  0  0  0  0  0  0  0
  151.2512  144.3221  156.8812 H   0  0  0  0  0  0  0  0  0  0  0  0
  153.1876  145.0616  158.2910 H   0  0  0  0  0  0  0  0  0  0  0  0
  153.8221  143.6827  160.2924 H   0  0  0  0  0  0  0  0  0  0  0  0
  152.4874  141.6196  160.7966 H   0  0  0  0  0  0  0  0  0  0  0  0
  149.3993  134.6756  156.8958 H   0  0  0  0  0  0  0  0  0  0  0  0
  147.9292  133.7503  157.0258 H   0  0  0  0  0  0  0  0  0  0  0  0
  149.7883  132.2168  156.6484 H   0  0  0  0  0  0  0  0  0  0  0  0
  150.2912  133.0866  155.2212 H   0  0  0  0  0  0  0  0  0  0  0  0
  1  2  1  0  0  0  0
  1 24  1  0  0  0  0
  1 25  1  0  0  0  0
  1 26  1  0  0  0  0
  2 23  1  0  0  0  0
  2  3  1  0  0  0  0
  2 27  1  0  0  0  0
  3  4  1  0  0  0  0
  3 28  1  0  0  0  0
  3 29  1  0  0  0  0
  4  5  1  0  0  0  0
  4 30  1  0  0  0  0
  4 31  1  0  0  0  0
  5  6  1  0  0  0  0
  5 22  1  0  0  0  0
  5 32  1  0  0  0  0
  6  7  1  0  0  0  0
  6 33  1  0  0  0  0
  7  8  2  0  0  0  0
  7  9  2  0  0  0  0
  7 10  1  0  0  0  0
 10 11  1  0  0  0  0
 10 34  1  0  0  0  0
 10 35  1  0  0  0  0
 11 12  2  0  0  0  0
 11 13  1  0  0  0  0
 13 14  1  0  0  0  0
 13 36  1  0  0  0  0
 14 15  1  0  0  0  0
 14 37  1  0  0  0  0
 14 38  1  0  0  0  0
 15 16  1  0  0  0  0
 15 39  1  0  0  0  0
 15 40  1  0  0  0  0
 16 21  1  0  0  0  0
 16 17  2  0  0  0  0
 17 18  1  0  0  0  0
 17 41  1  0  0  0  0
 18 19  2  0  0  0  0
 18 42  1  0  0  0  0
 19 20  1  0  0  0  0
 19 43  1  0  0  0  0
 20 21  2  0  0  0  0
 20 44  1  0  0  0  0
 22 23  1  0  0  0  0
 22 45  1  0  0  0  0
 22 46  1  0  0  0  0
 23 47  1  0  0  0  0
 23 48  1  0  0  0  0
M  END
> <s_m_source_file>
AV-unprocessed.smi

> <i_m_source_file_index>
1120

> <i_lp_mmshare_version>
43012

> <i_f3d_flags>
0

> <s_epik_input>
W0NIM11bQ0BASF0xW0NIMl1bQ0gyXVtDQEhdKFtDSDJdW0NIMl0xKVtOSF1TKD1PKSg9TylbQ0gyXUMoPU8pW05IXVtDSDJdW0NIMl1jMltjSF1bY0hdW2NIXVtjSF1uMg==

> <s_epik_cmdline>
J2VwaWtfcHl0aG9uJywgJy1waCcsICc3LjAnLCAnLXRuJywgJzgnLCAnLW1hJywgJzIwMCcsICctbWV0YWxfYmluZGluZycsICctaW1hZScsICc8aW5maWxlLm1hZT4nLCAnLW9tYWUnLCAnPG91dGZpbGUubWFlPic=

> <r_epik_Ionization_Penalty>
0.0216068

> <r_epik_Ionization_Penalty_Charging>
0

> <r_epik_Ionization_Penalty_Neutral>
0.0216068

> <r_epik_State_Penalty>
0.01735

> <r_epik_Charging_Adjusted_Penalty>
0.01735

> <i_epik_Tot_Q>
0

> <i_epik_Tot_abs_Q>
0

> <r_epik_Metal_State_Penalty>
0.0535325

> <b_epik_Metal_Only>
0

> <s_lp_Force_Field>
OPLS_2005

> <r_lp_Energy>
6.87343

> <b_lp_Chiralities_Consistent>
1

> <s_lp_Variant>
AV-unprocessed.smi:1120-2

> <Gold.Version>
5.8.1

> <Gold.Id.Protein>
6NUR|6NUR_protein|mol2

> <Gold.PLP.Fitness>
51.3268

> <Gold.PLP.PLP>
-43.3933

> <Gold.PLP.part.hbond>
-2.8535

> <Gold.PLP.part.metal>
0.0000

> <Gold.PLP.part.buried>
-4.0947

> <Gold.PLP.part.nonpolar>
-37.0363

> <Gold.PLP.part.repulsive>
0.3519

> <Gold.PLP.ligand.clash>
0.0000

> <Gold.PLP.ligand.torsion>
1.0414

> <Gold.PLP.Chemscore.Hbond>
2.9500

> <Gold.PLP.Chemscore.CHOScore>
0.0000

> <Gold.PLP.Chemscore.Metal>
0.0000

> <Gold.Chemscore.Hbonds>
donor molecule, donor type, donor heavy atom, donor atom, acceptor molecule, acceptor atom, score
      L1  H     6    33       P1  7948  1.00
      P1  H  7989  7998       L1    12  0.75
      P1  H 10752 10765       L1     9  1.00

> <Gold.PLP.Chemscore.Internal.Correction>
1.1664

> <Gold.Rescore>
     Score         DG    S(hbond)    S(metal)    S(lipo)     H(rot)  DE(clash)    DE(int)     intcor
     19.94     -22.42       2.86        0.00     105.13       1.92       0.40       2.09       ----

> <Gold.Chemscore.Fitness>
19.9390

> <Gold.Chemscore.DG>
-22.4221

> <Gold.Chemscore.ZeroCoef>
-5.4800

> <Gold.Chemscore.Hbond>
2.8646

> <Gold.Chemscore.Metal>
0.0000

> <Gold.Chemscore.Lipo>
105.1286

> <Gold.Chemscore.Internal_Hbond>
0.0000

> <Gold.Chemscore.DEClash>
0.3962

> <Gold.Chemscore.DEInternal>
2.0869

> <Gold.Chemscore.Rot>
1.9241

> <Gold.Chemscore.Internal.Correction>
   9.000000E+99

> <Gold.Chemscore.Hbonds>
donor molecule, donor type, donor heavy atom, donor atom, acceptor molecule, acceptor atom, score
      L1  H     6    33       P1  7948  0.82
      P1  H  7989  7998       L1    12  0.09
      P1  H 10752 10765       L1     9  1.00

> <Gold.Chemscore.Hbond.Weighted>
-9.5677

> <Gold.Chemscore.Metal.Weighted>
-0.0000

> <Gold.Chemscore.Lipo.Weighted>
-12.3000

> <Gold.Chemscore.Internal_Hbond.Weighted>
0.0000

> <Gold.Chemscore.DEClash.Weighted>
0.3962

> <Gold.Chemscore.DEInternal.Weighted>
2.0869

> <Gold.Chemscore.Rot.Weighted>
4.9256

> <Gold.Chemscore.Internal.Correction.Weighted>
   9.000000E+99

> <Gold.Protein.RotatedTorsions>
[ 6907 6896 6895 6894 ] final  146.09 input  -60.11 | X-H torsion
[ 7974 7965 7964 7962 ] final -127.19 input  175.53 | X-H torsion
[ 8008 7997 7996 7995 ] final   96.72 input   59.86 | X-H torsion
[ 10167 10162 10161 10158 ] final -117.28 input  -65.29 | X-H torsion
[ 10718 10713 10712 10709 ] final  -83.50 input   66.30 | X-H torsion
[ 10763 10752 10751 10750 ] final  165.59 input  -60.55 | X-H torsion
[ 11005 11000 10999 10996 ] final -138.40 input  -57.11 | X-H torsion

> <Gold.Protein.ActiveResidues>
 VAL166  LYS551  ARG553  GLY616  TRP617  ASP618  TYR619  PRO620  LYS621  CYS622 
 ASP623  PHE694  ASN695  SER759  ASP760  ASP761  ALA762  ILE779  LEU786  VAL792 
 PHE793  MET794  SER795  GLU796  ALA797  LYS798  CYS799  TRP800  GLU811  SER814 

> <Gold.Protein.RotatedAtoms>
  152.1724  133.4652  159.4915 H   0  0  0  0  0  0  0  0  0  0  0  0  # atno 6907 bound_to 6896
  150.6922  134.1936  159.4304 H   0  0  0  0  0  0  0  0  0  0  0  0  # atno 6908 bound_to 6896
  151.9844  135.0011  160.0609 H   0  0  0  0  0  0  0  0  0  0  0  0  # atno 6909 bound_to 6896
  144.9796  140.7627  143.4620 H   0  0  0  0  0  0  0  0  0  0  0  0  # atno 7974 bound_to 7965
  156.0826  140.3268  155.7712 H   0  0  0  0  0  0  0  0  0  0  0  0  # atno 8008 bound_to 7997
  155.5129  140.0578  157.2938 H   0  0  0  0  0  0  0  0  0  0  0  0  # atno 8009 bound_to 7997
  154.4590  140.1957  156.0313 H   0  0  0  0  0  0  0  0  0  0  0  0  # atno 8010 bound_to 7997
  140.0701  143.4885  152.1984 H   0  0  0  0  0  0  0  0  0  0  0  0  # atno 10167 bound_to 10162
  156.0017  130.4668  150.4267 H   0  0  0  0  0  0  0  0  0  0  0  0  # atno 10718 bound_to 10713
  154.3263  135.2755  155.2494 H   0  0  0  0  0  0  0  0  0  0  0  0  # atno 10763 bound_to 10752
  154.4826  135.5854  153.6404 H   0  0  0  0  0  0  0  0  0  0  0  0  # atno 10764 bound_to 10752
  152.9871  135.6115  154.3451 H   0  0  0  0  0  0  0  0  0  0  0  0  # atno 10765 bound_to 10752
  140.8619  134.2158  157.4702 H   0  0  0  0  0  0  0  0  0  0  0  0  # atno 11005 bound_to 11000
  145.2440  139.2060  143.4977 LP  0  0  0  0  0  0  0  0  0  0  0  0  # atno 17320 bound_to 7965
  146.3404  140.2341  142.8594 LP  0  0  0  0  0  0  0  0  0  0  0  0  # atno 17321 bound_to 7965
  139.5841  144.7523  151.3565 LP  0  0  0  0  0  0  0  0  0  0  0  0  # atno 17342 bound_to 10162
  140.7130  143.7342  150.7601 LP  0  0  0  0  0  0  0  0  0  0  0  0  # atno 17343 bound_to 10162
  157.2319  131.0506  151.2487 LP  0  0  0  0  0  0  0  0  0  0  0  0  # atno 17370 bound_to 10713
  157.3702  130.7177  149.6560 LP  0  0  0  0  0  0  0  0  0  0  0  0  # atno 17371 bound_to 10713
  139.8707  134.9734  156.4807 LP  0  0  0  0  0  0  0  0  0  0  0  0  # atno 17394 bound_to 11000
  140.8672  133.8015  155.9327 LP  0  0  0  0  0  0  0  0  0  0  0  0  # atno 17395 bound_to 11000

$$$$
