AV-unprocessed.smi:807|AV-procd|sdf|3803|dock10
  -GOLD-   22720 1243D 1   1.00000     0.00000
 Structure written by MMmdl.
 35 37  0  0  0  0  0  0  0  0  1 V2000
  148.9378  141.0684  154.1469 C   0  0  0  0  0  0  0  0  0  0  0  0
  149.3000  140.3526  155.3596 N   0  0  0  0  0  0  0  0  0  0  0  0
  150.2593  139.3306  155.3266 C   0  0  0  0  0  0  0  0  0  0  0  0
  150.3708  138.5423  154.2325 N   0  0  0  0  0  0  0  0  0  0  0  0
  151.3032  137.5805  154.2464 C   0  0  0  0  0  0  0  0  0  0  0  0
  152.1781  137.2642  155.2140 N   0  0  0  0  0  0  0  0  0  0  0  0
  152.0743  138.0385  156.3029 C   0  0  0  0  0  0  0  0  0  0  0  0
  152.8440  137.9378  157.4492 N   0  0  0  0  0  0  0  0  0  0  0  0
  152.3405  138.9152  158.1997 C   0  0  0  0  0  0  0  0  0  0  0  0
  151.3332  139.6427  157.6784 N   0  0  0  0  0  0  0  0  0  0  0  0
  150.6364  140.7451  158.3176 C   0  0  0  0  0  0  0  0  0  0  0  0
  150.9967  142.1091  157.6929 C   0  0  1  0  0  0  0  0  0  0  0  0
  150.0456  142.4804  156.7137 O   0  0  0  0  0  0  0  0  0  0  0  0
  151.2211  143.1870  158.7507 C   0  0  0  0  0  0  0  0  0  0  0  0
  150.5094  144.4016  158.6263 C   0  0  0  0  0  0  0  0  0  0  0  0
  150.6770  145.4350  159.5669 C   0  0  0  0  0  0  0  0  0  0  0  0
  151.5640  145.2659  160.6445 C   0  0  0  0  0  0  0  0  0  0  0  0
  152.2831  144.0641  160.7768 C   0  0  0  0  0  0  0  0  0  0  0  0
  152.1205  143.0245  159.8386 C   0  0  0  0  0  0  0  0  0  0  0  0
  153.0478  141.5815  160.0620 Cl  0  0  0  0  0  0  0  0  0  0  0  0
  151.1231  139.0963  156.4148 C   0  0  0  0  0  0  0  0  0  0  0  0
  148.1845  141.8234  154.3714 H   0  0  0  0  0  0  0  0  0  0  0  0
  148.5255  140.3853  153.4034 H   0  0  0  0  0  0  0  0  0  0  0  0
  149.8067  141.5697  153.7190 H   0  0  0  0  0  0  0  0  0  0  0  0
  148.8449  140.5926  156.2285 H   0  0  0  0  0  0  0  0  0  0  0  0
  151.3584  136.9750  153.3539 H   0  0  0  0  0  0  0  0  0  0  0  0
  152.7242  139.1122  159.1901 H   0  0  0  0  0  0  0  0  0  0  0  0
  149.5644  140.5575  158.2581 H   0  0  0  0  0  0  0  0  0  0  0  0
  150.8877  140.7364  159.3785 H   0  0  0  0  0  0  0  0  0  0  0  0
  151.9315  141.9876  157.1448 H   0  0  0  0  0  0  0  0  0  0  0  0
  149.8787  143.4071  156.7937 H   0  0  0  0  0  0  0  0  0  0  0  0
  149.8261  144.5496  157.8027 H   0  0  0  0  0  0  0  0  0  0  0  0
  150.1254  146.3575  159.4607 H   0  0  0  0  0  0  0  0  0  0  0  0
  151.6947  146.0575  161.3678 H   0  0  0  0  0  0  0  0  0  0  0  0
  152.9659  143.9397  161.6043 H   0  0  0  0  0  0  0  0  0  0  0  0
  1  2  1  0  0  0  0
  1 22  1  0  0  0  0
  1 23  1  0  0  0  0
  1 24  1  0  0  0  0
  2  3  1  0  0  0  0
  2 25  1  0  0  0  0
  3 21  1  0  0  0  0
  3  4  2  0  0  0  0
  4  5  1  0  0  0  0
  5  6  2  0  0  0  0
  5 26  1  0  0  0  0
  6  7  1  0  0  0  0
  7 21  2  0  0  0  0
  7  8  1  0  0  0  0
  8  9  2  0  0  0  0
  9 10  1  0  0  0  0
  9 27  1  0  0  0  0
 10 11  1  0  0  0  0
 10 21  1  0  0  0  0
 11 12  1  0  0  0  0
 11 28  1  0  0  0  0
 11 29  1  0  0  0  0
 12 13  1  0  0  0  0
 12 14  1  0  0  0  0
 12 30  1  0  0  0  0
 13 31  1  0  0  0  0
 14 19  1  0  0  0  0
 14 15  2  0  0  0  0
 15 16  1  0  0  0  0
 15 32  1  0  0  0  0
 16 17  2  0  0  0  0
 16 33  1  0  0  0  0
 17 18  1  0  0  0  0
 17 34  1  0  0  0  0
 18 19  2  0  0  0  0
 18 35  1  0  0  0  0
 19 20  1  0  0  0  0
M  END
> <s_m_source_file>
AV-unprocessed.smi

> <i_m_source_file_index>
807

> <i_lp_mmshare_version>
43012

> <i_f3d_flags>
0

> <s_epik_input>
bjFbY0hdbmMoW05IXVtDSDNdKWMoYzEyKW4oW2NIXW4yKVtDSDJdW0NASF0oW09IXSljM1tjSF1bY0hdW2NIXVtjSF1jM0Ns

> <s_epik_cmdline>
J2VwaWtfcHl0aG9uJywgJy1waCcsICc3LjAnLCAnLXRuJywgJzgnLCAnLW1hJywgJzIwMCcsICctbWV0YWxfYmluZGluZycsICctaW1hZScsICc8aW5maWxlLm1hZT4nLCAnLW9tYWUnLCAnPG91dGZpbGUubWFlPic=

> <r_lp_tautomer_probability>
1

> <r_epik_Ionization_Penalty>
0.00695285

> <r_epik_Ionization_Penalty_Charging>
0

> <r_epik_Ionization_Penalty_Neutral>
0.00695285

> <r_epik_State_Penalty>
-0

> <r_epik_Charging_Adjusted_Penalty>
0

> <i_epik_Tot_Q>
0

> <i_epik_Tot_abs_Q>
0

> <r_epik_Metal_State_Penalty>
-0

> <b_epik_Metal_Only>
0

> <s_lp_Force_Field>
OPLS_2005

> <r_lp_Energy>
12.6911

> <b_lp_Chiralities_Consistent>
1

> <s_lp_Variant>
AV-unprocessed.smi:807-2

> <Gold.Version>
5.8.1

> <Gold.Id.Protein>
6NUR|6NUR_protein|mol2

> <Gold.PLP.Fitness>
45.5913

> <Gold.PLP.PLP>
-39.9510

> <Gold.PLP.part.hbond>
-2.0000

> <Gold.PLP.part.metal>
0.0000

> <Gold.PLP.part.buried>
-3.8731

> <Gold.PLP.part.nonpolar>
-35.2533

> <Gold.PLP.part.repulsive>
0.3790

> <Gold.PLP.ligand.clash>
0.0000

> <Gold.PLP.ligand.torsion>
0.9555

> <Gold.PLP.Chemscore.Hbond>
1.4981

> <Gold.PLP.Chemscore.CHOScore>
1.0000

> <Gold.PLP.Chemscore.Metal>
0.0000

> <Gold.Chemscore.Hbonds>
donor molecule, donor type, donor heavy atom, donor atom, acceptor molecule, acceptor atom, score
      L1  H    13    31       P1  8028  0.67
      P1  H 10752 10765       L1     6  0.82
      L1  C     5    26       P1  7949  1.00

> <Gold.PLP.Chemscore.Internal.Correction>
0.0570

> <Gold.Rescore>
     Score         DG    S(hbond)    S(metal)    S(lipo)     H(rot)  DE(clash)    DE(int)     intcor
     14.73     -17.35       1.85        0.00      99.24       2.31       0.12       2.49       ----

> <Gold.Chemscore.Fitness>
14.7328

> <Gold.Chemscore.DG>
-17.3467

> <Gold.Chemscore.ZeroCoef>
-5.4800

> <Gold.Chemscore.Hbond>
1.8482

> <Gold.Chemscore.Metal>
0.0000

> <Gold.Chemscore.Lipo>
99.2401

> <Gold.Chemscore.Internal_Hbond>
0.0000

> <Gold.Chemscore.DEClash>
0.1244

> <Gold.Chemscore.DEInternal>
2.4894

> <Gold.Chemscore.Rot>
2.3115

> <Gold.Chemscore.Internal.Correction>
   9.000000E+99

> <Gold.Chemscore.Hbonds>
donor molecule, donor type, donor heavy atom, donor atom, acceptor molecule, acceptor atom, score
      L1  H    13    31       P1  8028  0.66
      P1  H 10752 10765       L1     6  0.49

> <Gold.Chemscore.Hbond.Weighted>
-6.1730

> <Gold.Chemscore.Metal.Weighted>
-0.0000

> <Gold.Chemscore.Lipo.Weighted>
-11.6111

> <Gold.Chemscore.Internal_Hbond.Weighted>
0.0000

> <Gold.Chemscore.DEClash.Weighted>
0.1244

> <Gold.Chemscore.DEInternal.Weighted>
2.4894

> <Gold.Chemscore.Rot.Weighted>
5.9174

> <Gold.Chemscore.Internal.Correction.Weighted>
   9.000000E+99

> <Gold.Protein.RotatedTorsions>
[ 6907 6896 6895 6894 ] final  -51.67 input  -60.11 | X-H torsion
[ 7974 7965 7964 7962 ] final  172.04 input  175.53 | X-H torsion
[ 8008 7997 7996 7995 ] final  -49.23 input   59.86 | X-H torsion
[ 10167 10162 10161 10158 ] final    3.65 input  -65.29 | X-H torsion
[ 10718 10713 10712 10709 ] final -171.05 input   66.30 | X-H torsion
[ 10763 10752 10751 10750 ] final -173.04 input  -60.55 | X-H torsion
[ 11005 11000 10999 10996 ] final  122.17 input  -57.11 | X-H torsion

> <Gold.Protein.ActiveResidues>
 VAL166  LYS551  ARG553  GLY616  TRP617  ASP618  TYR619  PRO620  LYS621  CYS622 
 ASP623  PHE694  ASN695  SER759  ASP760  ASP761  ALA762  ILE779  LEU786  VAL792 
 PHE793  MET794  SER795  GLU796  ALA797  LYS798  CYS799  TRP800  GLU811  SER814 

> <Gold.Protein.RotatedAtoms>
  150.8590  134.7937  159.7067 H   0  0  0  0  0  0  0  0  0  0  0  0  # atno 6907 bound_to 6896
  152.4633  134.5131  159.9770 H   0  0  0  0  0  0  0  0  0  0  0  0  # atno 6908 bound_to 6896
  151.5239  133.3423  159.2942 H   0  0  0  0  0  0  0  0  0  0  0  0  # atno 6909 bound_to 6896
  144.7278  139.9440  143.6429 H   0  0  0  0  0  0  0  0  0  0  0  0  # atno 7974 bound_to 7965
  154.4041  140.1302  156.4468 H   0  0  0  0  0  0  0  0  0  0  0  0  # atno 8008 bound_to 7997
  155.7405  140.3490  155.5082 H   0  0  0  0  0  0  0  0  0  0  0  0  # atno 8009 bound_to 7997
  155.9043  140.1025  157.1317 H   0  0  0  0  0  0  0  0  0  0  0  0  # atno 8010 bound_to 7997
  140.6575  143.7389  150.7679 H   0  0  0  0  0  0  0  0  0  0  0  0  # atno 10167 bound_to 10162
  156.7352  130.9321  151.3107 H   0  0  0  0  0  0  0  0  0  0  0  0  # atno 10718 bound_to 10713
  154.6124  135.2866  155.0418 H   0  0  0  0  0  0  0  0  0  0  0  0  # atno 10763 bound_to 10752
  154.1643  135.6483  153.4997 H   0  0  0  0  0  0  0  0  0  0  0  0  # atno 10764 bound_to 10752
  153.0200  135.5385  154.6882 H   0  0  0  0  0  0  0  0  0  0  0  0  # atno 10765 bound_to 10752
  139.9257  134.9640  156.8068 H   0  0  0  0  0  0  0  0  0  0  0  0  # atno 11005 bound_to 11000
  146.0763  139.3751  143.0492 LP  0  0  0  0  0  0  0  0  0  0  0  0  # atno 17320 bound_to 7965
  145.7901  140.9818  143.1053 LP  0  0  0  0  0  0  0  0  0  0  0  0  # atno 17321 bound_to 7965
  140.1052  143.4750  152.2402 LP  0  0  0  0  0  0  0  0  0  0  0  0  # atno 17342 bound_to 10162
  139.5801  144.7506  151.3662 LP  0  0  0  0  0  0  0  0  0  0  0  0  # atno 17343 bound_to 10162
  157.6842  130.9169  150.0343 LP  0  0  0  0  0  0  0  0  0  0  0  0  # atno 17370 bound_to 10713
  156.1502  130.3642  149.9450 LP  0  0  0  0  0  0  0  0  0  0  0  0  # atno 17371 bound_to 10713
  140.6344  133.9876  155.7677 LP  0  0  0  0  0  0  0  0  0  0  0  0  # atno 17394 bound_to 11000
  141.0812  134.0059  157.3383 LP  0  0  0  0  0  0  0  0  0  0  0  0  # atno 17395 bound_to 11000

$$$$
