AV-unprocessed.smi:2560|AV-procd|sdf|10038|dock3
  -GOLD-   2272014 83D 1   1.00000     0.00000
 Structure written by MMmdl.
 31 32  0  0  0  0  0  0  0  0  1 V2000
  146.1594  137.7228  153.0037 C   0  0  0  0  0  0  0  0  0  0  0  0
  146.8737  139.2708  152.3842 S   0  0  0  0  0  0  0  0  0  0  0  0
  148.1966  139.6661  153.4812 C   0  0  0  0  0  0  0  0  0  0  0  0
  149.1691  138.7714  153.7340 N   0  0  0  0  0  0  0  0  0  0  0  0
  150.2690  139.4633  154.8159 S   0  0  0  0  0  0  0  0  0  0  0  0
  149.3426  140.9344  154.8649 C   0  0  0  0  0  0  0  0  0  0  0  0
  149.7268  142.0564  155.6555 N   0  0  0  0  0  0  0  0  0  0  0  0
  150.7368  142.2174  156.5376 C   0  0  0  0  0  0  0  0  0  0  0  0
  151.5222  141.3023  156.7780 O   0  0  0  0  0  0  0  0  0  0  0  0
  150.8230  143.4229  157.1240 N   0  0  0  0  0  0  0  0  0  0  0  0
  151.8269  143.8349  158.0974 C   0  0  2  0  0  0  0  0  0  0  0  0
  152.0496  142.7007  159.0859 C   0  0  0  0  0  0  0  0  0  0  0  0
  152.1269  142.8706  160.4168 C   0  0  0  0  0  0  0  0  0  0  0  0
  152.0186  144.2232  161.0947 C   0  0  0  0  0  0  0  0  0  0  0  0
  152.1922  145.3830  160.0989 C   0  0  0  0  0  0  0  0  0  0  0  0
  151.4001  145.1429  158.8047 C   0  0  0  0  0  0  0  0  0  0  0  0
  148.2626  140.8647  154.0869 N   0  0  0  0  0  0  0  0  0  0  0  0
  145.3294  137.4114  152.3700 H   0  0  0  0  0  0  0  0  0  0  0  0
  145.7880  137.8541  154.0203 H   0  0  0  0  0  0  0  0  0  0  0  0
  146.9084  136.9306  153.0067 H   0  0  0  0  0  0  0  0  0  0  0  0
  149.1436  142.8717  155.5344 H   0  0  0  0  0  0  0  0  0  0  0  0
  150.1342  144.1153  156.8658 H   0  0  0  0  0  0  0  0  0  0  0  0
  152.7778  143.9909  157.5854 H   0  0  0  0  0  0  0  0  0  0  0  0
  152.1436  141.7069  158.6727 H   0  0  0  0  0  0  0  0  0  0  0  0
  152.2624  142.0136  161.0599 H   0  0  0  0  0  0  0  0  0  0  0  0
  151.0434  144.2826  161.5788 H   0  0  0  0  0  0  0  0  0  0  0  0
  152.7702  144.2934  161.8813 H   0  0  0  0  0  0  0  0  0  0  0  0
  151.8850  146.3205  160.5630 H   0  0  0  0  0  0  0  0  0  0  0  0
  153.2491  145.4934  159.8524 H   0  0  0  0  0  0  0  0  0  0  0  0
  151.5213  145.9907  158.1296 H   0  0  0  0  0  0  0  0  0  0  0  0
  150.3383  145.0986  159.0523 H   0  0  0  0  0  0  0  0  0  0  0  0
  1  2  1  0  0  0  0
  1 18  1  0  0  0  0
  1 19  1  0  0  0  0
  1 20  1  0  0  0  0
  2  3  1  0  0  0  0
  3 17  1  0  0  0  0
  3  4  2  0  0  0  0
  4  5  1  0  0  0  0
  5  6  1  0  0  0  0
  6  7  1  0  0  0  0
  6 17  2  0  0  0  0
  7  8  1  0  0  0  0
  7 21  1  0  0  0  0
  8  9  2  0  0  0  0
  8 10  1  0  0  0  0
 10 11  1  0  0  0  0
 10 22  1  0  0  0  0
 11 16  1  0  0  0  0
 11 12  1  0  0  0  0
 11 23  1  0  0  0  0
 12 13  2  0  0  0  0
 12 24  1  0  0  0  0
 13 14  1  0  0  0  0
 13 25  1  0  0  0  0
 14 15  1  0  0  0  0
 14 26  1  0  0  0  0
 14 27  1  0  0  0  0
 15 16  1  0  0  0  0
 15 28  1  0  0  0  0
 15 29  1  0  0  0  0
 16 30  1  0  0  0  0
 16 31  1  0  0  0  0
M  END
> <s_m_source_file>
AV-unprocessed.smi

> <i_m_source_file_index>
2560

> <i_lp_mmshare_version>
43012

> <i_f3d_flags>
0

> <s_epik_input>
W0NIM11TYzFuc2MobjEpW05IXUMoPU8pW05IXVtDQEBIXTJbQ0hdPVtDSF1bQ0gyXVtDSDJdW0NIMl0y

> <s_epik_cmdline>
J2VwaWtfcHl0aG9uJywgJy1waCcsICc3LjAnLCAnLXRuJywgJzgnLCAnLW1hJywgJzIwMCcsICctbWV0YWxfYmluZGluZycsICctaW1hZScsICc8aW5maWxlLm1hZT4nLCAnLW9tYWUnLCAnPG91dGZpbGUubWFlPic=

> <r_lp_tautomer_probability>
1

> <r_epik_Ionization_Penalty>
2.65559e-05

> <r_epik_Ionization_Penalty_Charging>
0

> <r_epik_Ionization_Penalty_Neutral>
2.65559e-05

> <r_epik_State_Penalty>
-0

> <r_epik_Charging_Adjusted_Penalty>
0

> <i_epik_Tot_Q>
0

> <i_epik_Tot_abs_Q>
0

> <r_epik_Metal_State_Penalty>
-0

> <b_epik_Metal_Only>
0

> <s_lp_Force_Field>
OPLS_2005

> <r_lp_Energy>
8.21818

> <b_lp_Chiralities_Consistent>
1

> <s_lp_Variant>
AV-unprocessed.smi:2560-1

> <Gold.Version>
5.8.1

> <Gold.Id.Protein>
6NUR|6NUR_protein|mol2

> <Gold.PLP.Fitness>
42.0979

> <Gold.PLP.PLP>
-36.7963

> <Gold.PLP.part.hbond>
-2.0000

> <Gold.PLP.part.metal>
0.0000

> <Gold.PLP.part.buried>
-2.8180

> <Gold.PLP.part.nonpolar>
-32.8372

> <Gold.PLP.part.repulsive>
1.4151

> <Gold.PLP.ligand.clash>
0.0157

> <Gold.PLP.ligand.torsion>
0.2486

> <Gold.PLP.Chemscore.Hbond>
1.9360

> <Gold.PLP.Chemscore.CHOScore>
0.0000

> <Gold.PLP.Chemscore.Metal>
0.0000

> <Gold.Chemscore.Hbonds>
donor molecule, donor type, donor heavy atom, donor atom, acceptor molecule, acceptor atom, score
      L1  H     7    21       P1  8028  1.00
      L1  H    10    22       P1  8028  1.00

> <Gold.PLP.Chemscore.Internal.Correction>
0.0065

> <Gold.Rescore>
     Score         DG    S(hbond)    S(metal)    S(lipo)     H(rot)  DE(clash)    DE(int)     intcor
     16.00     -19.20       1.92        0.00      89.95       1.25       0.41       2.79       ----

> <Gold.Chemscore.Fitness>
15.9958

> <Gold.Chemscore.DG>
-19.1988

> <Gold.Chemscore.ZeroCoef>
-5.4800

> <Gold.Chemscore.Hbond>
1.9164

> <Gold.Chemscore.Metal>
0.0000

> <Gold.Chemscore.Lipo>
89.9519

> <Gold.Chemscore.Internal_Hbond>
0.0000

> <Gold.Chemscore.DEClash>
0.4082

> <Gold.Chemscore.DEInternal>
2.7949

> <Gold.Chemscore.Rot>
1.2524

> <Gold.Chemscore.Internal.Correction>
   9.000000E+99

> <Gold.Chemscore.Hbonds>
donor molecule, donor type, donor heavy atom, donor atom, acceptor molecule, acceptor atom, score
      L1  H     7    21       P1  8028  0.95
      L1  H    10    22       P1  8028  0.91

> <Gold.Chemscore.Hbond.Weighted>
-6.4006

> <Gold.Chemscore.Metal.Weighted>
-0.0000

> <Gold.Chemscore.Lipo.Weighted>
-10.5244

> <Gold.Chemscore.Internal_Hbond.Weighted>
0.0000

> <Gold.Chemscore.DEClash.Weighted>
0.4082

> <Gold.Chemscore.DEInternal.Weighted>
2.7949

> <Gold.Chemscore.Rot.Weighted>
3.2062

> <Gold.Chemscore.Internal.Correction.Weighted>
   9.000000E+99

> <Gold.Protein.RotatedTorsions>
[ 6907 6896 6895 6894 ] final  -24.90 input  -60.11 | X-H torsion
[ 7974 7965 7964 7962 ] final  -62.46 input  175.53 | X-H torsion
[ 8008 7997 7996 7995 ] final   59.59 input   59.86 | X-H torsion
[ 10167 10162 10161 10158 ] final  -44.72 input  -65.29 | X-H torsion
[ 10718 10713 10712 10709 ] final   77.70 input   66.30 | X-H torsion
[ 10763 10752 10751 10750 ] final   -9.50 input  -60.55 | X-H torsion
[ 11005 11000 10999 10996 ] final -158.60 input  -57.11 | X-H torsion

> <Gold.Protein.ActiveResidues>
 VAL166  LYS551  ARG553  GLY616  TRP617  ASP618  TYR619  PRO620  LYS621  CYS622 
 ASP623  PHE694  ASN695  SER759  ASP760  ASP761  ALA762  ILE779  LEU786  VAL792 
 PHE793  MET794  SER795  GLU796  ALA797  LYS798  CYS799  TRP800  GLU811  SER814 

> <Gold.Protein.RotatedAtoms>
  151.1829  135.0369  159.8799 H   0  0  0  0  0  0  0  0  0  0  0  0  # atno 6907 bound_to 6896
  152.5444  134.1043  159.8341 H   0  0  0  0  0  0  0  0  0  0  0  0  # atno 6908 bound_to 6896
  151.1162  133.5090  159.2636 H   0  0  0  0  0  0  0  0  0  0  0  0  # atno 6909 bound_to 6896
  145.7910  140.8709  143.0280 H   0  0  0  0  0  0  0  0  0  0  0  0  # atno 7974 bound_to 7965
  155.5686  140.3489  155.4509 H   0  0  0  0  0  0  0  0  0  0  0  0  # atno 8008 bound_to 7997
  156.0461  140.1307  157.0128 H   0  0  0  0  0  0  0  0  0  0  0  0  # atno 8009 bound_to 7997
  154.4413  140.1014  156.6293 H   0  0  0  0  0  0  0  0  0  0  0  0  # atno 8010 bound_to 7997
  140.6886  143.2916  151.3535 H   0  0  0  0  0  0  0  0  0  0  0  0  # atno 10167 bound_to 10162
  157.6719  130.9834  150.1679 H   0  0  0  0  0  0  0  0  0  0  0  0  # atno 10718 bound_to 10713
  153.4556  135.7015  153.6082 H   0  0  0  0  0  0  0  0  0  0  0  0  # atno 10763 bound_to 10752
  153.4398  135.3783  155.2221 H   0  0  0  0  0  0  0  0  0  0  0  0  # atno 10764 bound_to 10752
  154.8728  135.3971  154.3975 H   0  0  0  0  0  0  0  0  0  0  0  0  # atno 10765 bound_to 10752
  140.6518  134.4442  157.5235 H   0  0  0  0  0  0  0  0  0  0  0  0  # atno 11005 bound_to 11000
  144.6782  140.0124  143.7484 LP  0  0  0  0  0  0  0  0  0  0  0  0  # atno 17320 bound_to 7965
  145.9976  139.3065  143.0947 LP  0  0  0  0  0  0  0  0  0  0  0  0  # atno 17321 bound_to 7965
  139.6267  144.0800  152.2440 LP  0  0  0  0  0  0  0  0  0  0  0  0  # atno 17342 bound_to 10162
  140.0262  144.6115  150.7525 LP  0  0  0  0  0  0  0  0  0  0  0  0  # atno 17343 bound_to 10162
  156.2440  130.3694  149.8305 LP  0  0  0  0  0  0  0  0  0  0  0  0  # atno 17370 bound_to 10713
  156.6097  130.8581  151.3451 LP  0  0  0  0  0  0  0  0  0  0  0  0  # atno 17371 bound_to 10713
  139.9043  134.8484  156.1768 LP  0  0  0  0  0  0  0  0  0  0  0  0  # atno 17394 bound_to 11000
  141.0531  133.6879  156.1809 LP  0  0  0  0  0  0  0  0  0  0  0  0  # atno 17395 bound_to 11000

$$$$
