AV-unprocessed.smi:1824|AV-procd|sdf|7397|dock1
  -GOLD-   22720 9 63D 1   1.00000     0.00000
 Structure written by MMmdl.
 44 46  0  0  0  0  0  0  0  0  1 V2000
  151.6266  134.6601  153.8369 C   0  0  0  0  0  0  0  0  0  0  0  0
  151.2299  135.8183  154.7584 C   0  0  1  0  0  0  0  0  0  0  0  0
  150.9681  137.1176  153.9757 C   0  0  0  0  0  0  0  0  0  0  0  0
  150.5098  138.1947  154.8441 N   0  0  0  0  0  0  0  0  0  0  0  0
  150.3119  139.4318  154.0888 C   0  0  0  0  0  0  0  0  0  0  0  0
  149.6938  140.5982  154.8895 C   0  0  2  0  0  0  0  0  0  0  0  0
  148.8499  141.3507  154.0379 O   0  0  0  0  0  0  0  0  0  0  0  0
  150.7721  141.5366  155.4665 C   0  0  0  0  0  0  0  0  0  0  0  0
  151.4089  140.9901  156.6519 N   0  0  0  0  0  0  0  0  0  0  0  0
  151.8902  139.7427  156.8169 C   0  0  0  0  0  0  0  0  0  0  0  0
  152.4374  139.4516  157.9937 N   0  0  0  0  0  0  0  0  0  0  0  0
  152.2946  140.6495  158.6725 C   0  0  0  0  0  0  0  0  0  0  0  0
  152.6754  141.0116  159.9843 C   0  0  0  0  0  0  0  0  0  0  0  0
  152.4229  142.3121  160.4689 C   0  0  0  0  0  0  0  0  0  0  0  0
  152.7939  142.6424  161.7289 F   0  0  0  0  0  0  0  0  0  0  0  0
  151.7870  143.2689  159.6497 C   0  0  0  0  0  0  0  0  0  0  0  0
  151.5483  144.5153  160.1226 F   0  0  0  0  0  0  0  0  0  0  0  0
  151.3991  142.9313  158.3389 C   0  0  0  0  0  0  0  0  0  0  0  0
  151.6529  141.6327  157.8605 C   0  0  0  0  0  0  0  0  0  0  0  0
  149.3000  137.7616  155.5396 C   0  0  0  0  0  0  0  0  0  0  0  0
  149.4978  136.4438  156.3152 C   0  0  2  0  0  0  0  0  0  0  0  0
  150.3273  136.6135  157.5994 C   0  0  0  0  0  0  0  0  0  0  0  0
  150.0457  135.4405  155.4584 O   0  0  0  0  0  0  0  0  0  0  0  0
  152.5369  134.8922  153.2838 H   0  0  0  0  0  0  0  0  0  0  0  0
  150.8405  134.4449  153.1127 H   0  0  0  0  0  0  0  0  0  0  0  0
  151.8090  133.7510  154.4106 H   0  0  0  0  0  0  0  0  0  0  0  0
  152.0375  135.9795  155.4729 H   0  0  0  0  0  0  0  0  0  0  0  0
  151.8845  137.4184  153.4665 H   0  0  0  0  0  0  0  0  0  0  0  0
  150.2264  136.9317  153.1971 H   0  0  0  0  0  0  0  0  0  0  0  0
  151.2923  139.7605  153.7410 H   0  0  0  0  0  0  0  0  0  0  0  0
  149.7353  139.2403  153.1824 H   0  0  0  0  0  0  0  0  0  0  0  0
  149.0968  140.2043  155.7133 H   0  0  0  0  0  0  0  0  0  0  0  0
  147.9775  140.9910  154.0845 H   0  0  0  0  0  0  0  0  0  0  0  0
  151.5487  141.7206  154.7230 H   0  0  0  0  0  0  0  0  0  0  0  0
  150.3416  142.5081  155.7148 H   0  0  0  0  0  0  0  0  0  0  0  0
  151.8384  139.0071  156.0272 H   0  0  0  0  0  0  0  0  0  0  0  0
  153.1633  140.2877  160.6199 H   0  0  0  0  0  0  0  0  0  0  0  0
  150.9139  143.6619  157.7088 H   0  0  0  0  0  0  0  0  0  0  0  0
  148.9629  138.5313  156.2333 H   0  0  0  0  0  0  0  0  0  0  0  0
  148.4956  137.6270  154.8148 H   0  0  0  0  0  0  0  0  0  0  0  0
  148.5144  136.0831  156.6181 H   0  0  0  0  0  0  0  0  0  0  0  0
  149.8363  137.3000  158.2894 H   0  0  0  0  0  0  0  0  0  0  0  0
  151.3207  137.0127  157.3964 H   0  0  0  0  0  0  0  0  0  0  0  0
  150.4485  135.6597  158.1130 H   0  0  0  0  0  0  0  0  0  0  0  0
  1  2  1  0  0  0  0
  1 24  1  0  0  0  0
  1 25  1  0  0  0  0
  1 26  1  0  0  0  0
  2 23  1  0  0  0  0
  2  3  1  0  0  0  0
  2 27  1  0  0  0  0
  3  4  1  0  0  0  0
  3 28  1  0  0  0  0
  3 29  1  0  0  0  0
  4  5  1  0  0  0  0
  4 20  1  0  0  0  0
  5  6  1  0  0  0  0
  5 30  1  0  0  0  0
  5 31  1  0  0  0  0
  6  7  1  0  0  0  0
  6  8  1  0  0  0  0
  6 32  1  0  0  0  0
  7 33  1  0  0  0  0
  8  9  1  0  0  0  0
  8 34  1  0  0  0  0
  8 35  1  0  0  0  0
  9 19  1  0  0  0  0
  9 10  1  0  0  0  0
 10 11  2  0  0  0  0
 10 36  1  0  0  0  0
 11 12  1  0  0  0  0
 12 19  2  0  0  0  0
 12 13  1  0  0  0  0
 13 14  2  0  0  0  0
 13 37  1  0  0  0  0
 14 15  1  0  0  0  0
 14 16  1  0  0  0  0
 16 17  1  0  0  0  0
 16 18  2  0  0  0  0
 18 19  1  0  0  0  0
 18 38  1  0  0  0  0
 20 21  1  0  0  0  0
 20 39  1  0  0  0  0
 20 40  1  0  0  0  0
 21 22  1  0  0  0  0
 21 23  1  0  0  0  0
 21 41  1  0  0  0  0
 22 42  1  0  0  0  0
 22 43  1  0  0  0  0
 22 44  1  0  0  0  0
M  END
> <s_m_source_file>
AV-unprocessed.smi

> <i_m_source_file_index>
1824

> <i_lp_mmshare_version>
43012

> <i_f3d_flags>
0

> <s_epik_input>
W0NIM11bQ0BASF0xW0NIMl1OKFtDSDJdW0NASF0oTzEpW0NIM10pW0NIMl1bQ0BIXShbT0hdKVtDSDJdbihbY0hdbjIpYyhjMjMpW2NIXWMoRiljKEYpW2NIXTM=

> <s_epik_cmdline>
J2VwaWtfcHl0aG9uJywgJy1waCcsICc3LjAnLCAnLXRuJywgJzgnLCAnLW1hJywgJzIwMCcsICctbWV0YWxfYmluZGluZycsICctaW1hZScsICc8aW5maWxlLm1hZT4nLCAnLW9tYWUnLCAnPG91dGZpbGUubWFlPic=

> <r_epik_Ionization_Penalty>
0.273778

> <r_epik_Ionization_Penalty_Charging>
0

> <r_epik_Ionization_Penalty_Neutral>
0.273778

> <r_epik_State_Penalty>
0.246794

> <r_epik_Charging_Adjusted_Penalty>
0.246794

> <i_epik_Tot_Q>
0

> <i_epik_Tot_abs_Q>
0

> <r_epik_Metal_State_Penalty>
0.238234

> <b_epik_Metal_Only>
0

> <s_lp_Force_Field>
OPLS_2005

> <r_lp_Energy>
30.6075

> <b_lp_Chiralities_Consistent>
1

> <s_lp_Variant>
AV-unprocessed.smi:1824-5

> <Gold.Version>
5.8.1

> <Gold.Id.Protein>
6NUR|6NUR_protein|mol2

> <Gold.PLP.Fitness>
44.3416

> <Gold.PLP.PLP>
-43.4054

> <Gold.PLP.part.hbond>
-3.0000

> <Gold.PLP.part.metal>
0.0000

> <Gold.PLP.part.buried>
-3.6369

> <Gold.PLP.part.nonpolar>
-35.7437

> <Gold.PLP.part.repulsive>
0.0633

> <Gold.PLP.ligand.clash>
0.0000

> <Gold.PLP.ligand.torsion>
0.7959

> <Gold.PLP.Chemscore.Hbond>
0.8160

> <Gold.PLP.Chemscore.CHOScore>
0.0000

> <Gold.PLP.Chemscore.Metal>
0.0000

> <Gold.Chemscore.Hbonds>
donor molecule, donor type, donor heavy atom, donor atom, acceptor molecule, acceptor atom, score
      P1  H  8011  8017       L1     7  0.38

> <Gold.PLP.Chemscore.Internal.Correction>
0.0801

> <Gold.Rescore>
     Score         DG    S(hbond)    S(metal)    S(lipo)     H(rot)  DE(clash)    DE(int)     intcor
      9.74     -14.41       0.91        0.00      99.79       2.26       2.93       1.74       ----

> <Gold.Chemscore.Fitness>
9.7435

> <Gold.Chemscore.DG>
-14.4135

> <Gold.Chemscore.ZeroCoef>
-5.4800

> <Gold.Chemscore.Hbond>
0.9127

> <Gold.Chemscore.Metal>
0.0000

> <Gold.Chemscore.Lipo>
99.7910

> <Gold.Chemscore.Internal_Hbond>
0.0000

> <Gold.Chemscore.DEClash>
2.9340

> <Gold.Chemscore.DEInternal>
1.7360

> <Gold.Chemscore.Rot>
2.2619

> <Gold.Chemscore.Internal.Correction>
   9.000000E+99

> <Gold.Chemscore.Hbonds>
donor molecule, donor type, donor heavy atom, donor atom, acceptor molecule, acceptor atom, score
      P1  H  8011  8017       L1     7  0.37

> <Gold.Chemscore.Hbond.Weighted>
-3.0484

> <Gold.Chemscore.Metal.Weighted>
-0.0000

> <Gold.Chemscore.Lipo.Weighted>
-11.6755

> <Gold.Chemscore.Internal_Hbond.Weighted>
0.0000

> <Gold.Chemscore.DEClash.Weighted>
2.9340

> <Gold.Chemscore.DEInternal.Weighted>
1.7360

> <Gold.Chemscore.Rot.Weighted>
5.7904

> <Gold.Chemscore.Internal.Correction.Weighted>
   9.000000E+99

> <Gold.Protein.RotatedTorsions>
[ 6907 6896 6895 6894 ] final  -29.38 input  -60.11 | X-H torsion
[ 7974 7965 7964 7962 ] final  116.71 input  175.53 | X-H torsion
[ 8008 7997 7996 7995 ] final  -56.98 input   59.86 | X-H torsion
[ 10167 10162 10161 10158 ] final -146.92 input  -65.29 | X-H torsion
[ 10718 10713 10712 10709 ] final   39.39 input   66.30 | X-H torsion
[ 10763 10752 10751 10750 ] final  128.49 input  -60.55 | X-H torsion
[ 11005 11000 10999 10996 ] final  162.14 input  -57.11 | X-H torsion

> <Gold.Protein.ActiveResidues>
 VAL166  LYS551  ARG553  GLY616  TRP617  ASP618  TYR619  PRO620  LYS621  CYS622 
 ASP623  PHE694  ASN695  SER759  ASP760  ASP761  ALA762  ILE779  LEU786  VAL792 
 PHE793  MET794  SER795  GLU796  ALA797  LYS798  CYS799  TRP800  GLU811  SER814 

> <Gold.Protein.RotatedAtoms>
  151.1200  135.0074  159.8533 H   0  0  0  0  0  0  0  0  0  0  0  0  # atno 6907 bound_to 6896
  152.5447  134.1733  159.8616 H   0  0  0  0  0  0  0  0  0  0  0  0  # atno 6908 bound_to 6896
  151.1791  133.4691  159.2627 H   0  0  0  0  0  0  0  0  0  0  0  0  # atno 6909 bound_to 6896
  145.1762  139.3074  143.4442 H   0  0  0  0  0  0  0  0  0  0  0  0  # atno 7974 bound_to 7965
  154.4250  140.1117  156.5724 H   0  0  0  0  0  0  0  0  0  0  0  0  # atno 8008 bound_to 7997
  155.6198  140.3495  155.4629 H   0  0  0  0  0  0  0  0  0  0  0  0  # atno 8009 bound_to 7997
  156.0033  140.1203  157.0516 H   0  0  0  0  0  0  0  0  0  0  0  0  # atno 8010 bound_to 7997
  139.7669  143.8294  152.2617 H   0  0  0  0  0  0  0  0  0  0  0  0  # atno 10167 bound_to 10162
  157.3700  130.7696  149.7112 H   0  0  0  0  0  0  0  0  0  0  0  0  # atno 10718 bound_to 10713
  153.7264  135.3245  155.3277 H   0  0  0  0  0  0  0  0  0  0  0  0  # atno 10763 bound_to 10752
  154.8340  135.4511  154.1166 H   0  0  0  0  0  0  0  0  0  0  0  0  # atno 10764 bound_to 10752
  153.2301  135.6959  153.7981 H   0  0  0  0  0  0  0  0  0  0  0  0  # atno 10765 bound_to 10752
  140.2228  134.8183  157.3238 H   0  0  0  0  0  0  0  0  0  0  0  0  # atno 11005 bound_to 11000
  146.3460  140.1926  142.8589 LP  0  0  0  0  0  0  0  0  0  0  0  0  # atno 17320 bound_to 7965
  145.0182  140.8771  143.5183 LP  0  0  0  0  0  0  0  0  0  0  0  0  # atno 17321 bound_to 7965
  139.8317  144.7250  150.9442 LP  0  0  0  0  0  0  0  0  0  0  0  0  # atno 17342 bound_to 10162
  140.7811  143.4064  151.1065 LP  0  0  0  0  0  0  0  0  0  0  0  0  # atno 17343 bound_to 10162
  155.9753  130.4090  150.3855 LP  0  0  0  0  0  0  0  0  0  0  0  0  # atno 17370 bound_to 10713
  157.1945  131.0423  151.2683 LP  0  0  0  0  0  0  0  0  0  0  0  0  # atno 17371 bound_to 10713
  140.1832  134.4464  155.7759 LP  0  0  0  0  0  0  0  0  0  0  0  0  # atno 17394 bound_to 11000
  141.2222  133.6993  156.7903 LP  0  0  0  0  0  0  0  0  0  0  0  0  # atno 17395 bound_to 11000

$$$$
