AV-unprocessed.smi:3164|AV-procd|sdf|12083|dock5
  -GOLD-   2272017513D 1   1.00000     0.00000
 Structure written by MMmdl.
 39 40  0  0  0  0  0  0  0  0  2 V2000
  148.8450  136.4872  155.9847 C   0  0  0  0  0  0  0  0  0  0  0  0
  149.7629  137.6163  156.0133 N   0  0  0  0  0  0  0  0  0  0  0  0
  150.9401  137.3721  155.1906 C   0  0  0  0  0  0  0  0  0  0  0  0
  151.9034  138.5709  155.2092 C   0  0  0  0  0  0  0  0  0  0  0  0
  151.2098  139.7467  154.8004 O   0  0  0  0  0  0  0  0  0  0  0  0
  150.0839  140.0481  155.6228 C   0  0  1  0  0  0  0  0  0  0  0  0
  149.4316  141.3335  155.0957 C   0  0  0  0  0  0  0  0  0  0  0  0
  148.6753  142.0182  156.1620 N   0  3  0  0  0  0  0  0  0  0  0  0
  149.4047  142.1372  157.4408 C   0  0  0  0  0  0  0  0  0  0  0  0
  150.8654  142.5617  157.2207 C   0  0  0  0  0  0  0  0  0  0  0  0
  151.5481  143.0193  158.4978 C   0  0  0  0  0  0  0  0  0  0  0  0
  151.2073  144.2507  159.0977 C   0  0  0  0  0  0  0  0  0  0  0  0
  151.8783  144.6312  160.2764 C   0  0  0  0  0  0  0  0  0  0  0  0
  152.8596  143.7711  160.8054 C   0  0  0  0  0  0  0  0  0  0  0  0
  153.1274  142.5636  160.1303 C   0  0  0  0  0  0  0  0  0  0  0  0
  152.4907  142.1903  158.9991 N   0  0  0  0  0  0  0  0  0  0  0  0
  149.1143  138.8494  155.5869 C   0  0  0  0  0  0  0  0  0  0  0  0
  149.3386  135.5789  156.3323 H   0  0  0  0  0  0  0  0  0  0  0  0
  148.4730  136.3061  154.9753 H   0  0  0  0  0  0  0  0  0  0  0  0
  147.9886  136.6684  156.6350 H   0  0  0  0  0  0  0  0  0  0  0  0
  151.4607  136.4809  155.5436 H   0  0  0  0  0  0  0  0  0  0  0  0
  150.6377  137.1696  154.1619 H   0  0  0  0  0  0  0  0  0  0  0  0
  152.3221  138.7151  156.2064 H   0  0  0  0  0  0  0  0  0  0  0  0
  152.7400  138.3965  154.5326 H   0  0  0  0  0  0  0  0  0  0  0  0
  150.4197  140.2094  156.6492 H   0  0  0  0  0  0  0  0  0  0  0  0
  150.1885  142.0063  154.6903 H   0  0  0  0  0  0  0  0  0  0  0  0
  148.7462  141.0906  154.2826 H   0  0  0  0  0  0  0  0  0  0  0  0
  148.4402  142.9476  155.8431 H   0  0  0  0  0  0  0  0  0  0  0  0
  148.9016  142.8707  158.0718 H   0  0  0  0  0  0  0  0  0  0  0  0
  149.3675  141.1830  157.9682 H   0  0  0  0  0  0  0  0  0  0  0  0
  151.4296  141.7380  156.7813 H   0  0  0  0  0  0  0  0  0  0  0  0
  150.9039  143.3748  156.4944 H   0  0  0  0  0  0  0  0  0  0  0  0
  150.4498  144.8904  158.6689 H   0  0  0  0  0  0  0  0  0  0  0  0
  151.6446  145.5653  160.7655 H   0  0  0  0  0  0  0  0  0  0  0  0
  153.3933  144.0289  161.7084 H   0  0  0  0  0  0  0  0  0  0  0  0
  153.8733  141.8804  160.5082 H   0  0  0  0  0  0  0  0  0  0  0  0
  148.7228  138.7289  154.5753 H   0  0  0  0  0  0  0  0  0  0  0  0
  148.2575  139.0545  156.2301 H   0  0  0  0  0  0  0  0  0  0  0  0
  147.8191  141.5068  156.3238 H   0  0  0  0  0  0  0  0  0  0  0  0
  1  2  1  0  0  0  0
  1 18  1  0  0  0  0
  1 19  1  0  0  0  0
  1 20  1  0  0  0  0
  2 17  1  0  0  0  0
  2  3  1  0  0  0  0
  3  4  1  0  0  0  0
  3 21  1  0  0  0  0
  3 22  1  0  0  0  0
  4  5  1  0  0  0  0
  4 23  1  0  0  0  0
  4 24  1  0  0  0  0
  5  6  1  0  0  0  0
  6  7  1  0  0  0  0
  6 17  1  0  0  0  0
  6 25  1  0  0  0  0
  7  8  1  0  0  0  0
  7 26  1  0  0  0  0
  7 27  1  0  0  0  0
  8  9  1  0  0  0  0
  8 28  1  0  0  0  0
  8 39  1  0  0  0  0
  9 10  1  0  0  0  0
  9 29  1  0  0  0  0
  9 30  1  0  0  0  0
 10 11  1  0  0  0  0
 10 31  1  0  0  0  0
 10 32  1  0  0  0  0
 11 16  1  0  0  0  0
 11 12  2  0  0  0  0
 12 13  1  0  0  0  0
 12 33  1  0  0  0  0
 13 14  2  0  0  0  0
 13 34  1  0  0  0  0
 14 15  1  0  0  0  0
 14 35  1  0  0  0  0
 15 16  2  0  0  0  0
 15 36  1  0  0  0  0
 17 37  1  0  0  0  0
 17 38  1  0  0  0  0
M  CHG  1   8   1
M  END
> <s_m_source_file>
AV-unprocessed.smi

> <i_m_source_file_index>
3164

> <i_lp_mmshare_version>
43012

> <i_f3d_flags>
0

> <s_epik_input>
W0NIM11OMVtDSDJdW0NIMl1PW0NASF0oW0NIMl0xKVtDSDJdW05IXVtDSDJdW0NIMl1jMltjSF1bY0hdW2NIXVtjSF1uMg==

> <s_epik_cmdline>
J2VwaWtfcHl0aG9uJywgJy1waCcsICc3LjAnLCAnLXRuJywgJzgnLCAnLW1hJywgJzIwMCcsICctbWV0YWxfYmluZGluZycsICctaW1hZScsICc8aW5maWxlLm1hZT4nLCAnLW9tYWUnLCAnPG91dGZpbGUubWFlPic=

> <r_epik_Ionization_Penalty>
0.584284

> <r_epik_Ionization_Penalty_Charging>
0.00270218

> <r_epik_Ionization_Penalty_Neutral>
0.581582

> <r_epik_State_Penalty>
0.593163

> <r_epik_Charging_Adjusted_Penalty>
0.595865

> <i_epik_Tot_Q>
1

> <i_epik_Tot_abs_Q>
1

> <r_epik_Metal_State_Penalty>
0.593163

> <b_epik_Metal_Only>
0

> <s_lp_Force_Field>
OPLS_2005

> <r_lp_Energy>
22.7337

> <b_lp_Chiralities_Consistent>
1

> <s_lp_Variant>
AV-unprocessed.smi:3164-5

> <Gold.Version>
5.8.1

> <Gold.Id.Protein>
6NUR|6NUR_protein|mol2

> <Gold.PLP.Fitness>
43.9224

> <Gold.PLP.PLP>
-35.9666

> <Gold.PLP.part.hbond>
-1.8432

> <Gold.PLP.part.metal>
0.0000

> <Gold.PLP.part.buried>
-5.6831

> <Gold.PLP.part.nonpolar>
-29.3966

> <Gold.PLP.part.repulsive>
0.1991

> <Gold.PLP.ligand.clash>
0.0000

> <Gold.PLP.ligand.torsion>
0.5469

> <Gold.PLP.Chemscore.Hbond>
3.0000

> <Gold.PLP.Chemscore.CHOScore>
0.0000

> <Gold.PLP.Chemscore.Metal>
0.0000

> <Gold.Chemscore.Hbonds>
donor molecule, donor type, donor heavy atom, donor atom, acceptor molecule, acceptor atom, score
      L1  H     8    28       P1  8028  2.00
      P1  H  7989  7998       L1     5  1.00

> <Gold.PLP.Chemscore.Internal.Correction>
0.0497

> <Gold.Rescore>
     Score         DG    S(hbond)    S(metal)    S(lipo)     H(rot)  DE(clash)    DE(int)     intcor
     19.51     -19.63       1.90        0.00     101.01       1.57       0.01       0.11       ----

> <Gold.Chemscore.Fitness>
19.5145

> <Gold.Chemscore.DG>
-19.6314

> <Gold.Chemscore.ZeroCoef>
-5.4800

> <Gold.Chemscore.Hbond>
1.9039

> <Gold.Chemscore.Metal>
0.0000

> <Gold.Chemscore.Lipo>
101.0101

> <Gold.Chemscore.Internal_Hbond>
0.0000

> <Gold.Chemscore.DEClash>
0.0115

> <Gold.Chemscore.DEInternal>
0.1054

> <Gold.Chemscore.Rot>
1.5726

> <Gold.Chemscore.Internal.Correction>
   9.000000E+99

> <Gold.Chemscore.Hbonds>
donor molecule, donor type, donor heavy atom, donor atom, acceptor molecule, acceptor atom, score
      L1  H     8    28       P1  8028  0.93
      P1  H  7989  7998       L1     5  0.97

> <Gold.Chemscore.Hbond.Weighted>
-6.3591

> <Gold.Chemscore.Metal.Weighted>
-0.0000

> <Gold.Chemscore.Lipo.Weighted>
-11.8182

> <Gold.Chemscore.Internal_Hbond.Weighted>
0.0000

> <Gold.Chemscore.DEClash.Weighted>
0.0115

> <Gold.Chemscore.DEInternal.Weighted>
0.1054

> <Gold.Chemscore.Rot.Weighted>
4.0259

> <Gold.Chemscore.Internal.Correction.Weighted>
   9.000000E+99

> <Gold.Protein.RotatedTorsions>
[ 6907 6896 6895 6894 ] final  -16.81 input  -60.11 | X-H torsion
[ 7974 7965 7964 7962 ] final -132.15 input  175.53 | X-H torsion
[ 8008 7997 7996 7995 ] final  -96.79 input   59.86 | X-H torsion
[ 10167 10162 10161 10158 ] final   91.94 input  -65.29 | X-H torsion
[ 10718 10713 10712 10709 ] final  -93.35 input   66.30 | X-H torsion
[ 10763 10752 10751 10750 ] final -176.11 input  -60.55 | X-H torsion
[ 11005 11000 10999 10996 ] final  130.26 input  -57.11 | X-H torsion

> <Gold.Protein.ActiveResidues>
 VAL166  LYS551  ARG553  GLY616  TRP617  ASP618  TYR619  PRO620  LYS621  CYS622 
 ASP623  PHE694  ASN695  SER759  ASP760  ASP761  ALA762  ILE779  LEU786  VAL792 
 PHE793  MET794  SER795  GLU796  ALA797  LYS798  CYS799  TRP800  GLU811  SER814 

> <Gold.Protein.RotatedAtoms>
  151.3029  135.0773  159.9244 H   0  0  0  0  0  0  0  0  0  0  0  0  # atno 6907 bound_to 6896
  152.5294  133.9815  159.7819 H   0  0  0  0  0  0  0  0  0  0  0  0  # atno 6908 bound_to 6896
  151.0105  133.5918  159.2713 H   0  0  0  0  0  0  0  0  0  0  0  0  # atno 6909 bound_to 6896
  144.9313  140.7131  143.4904 H   0  0  0  0  0  0  0  0  0  0  0  0  # atno 7974 bound_to 7965
  154.7791  140.0468  157.1113 H   0  0  0  0  0  0  0  0  0  0  0  0  # atno 8008 bound_to 7997
  154.9726  140.3091  155.4961 H   0  0  0  0  0  0  0  0  0  0  0  0  # atno 8009 bound_to 7997
  156.2933  140.2250  156.4820 H   0  0  0  0  0  0  0  0  0  0  0  0  # atno 8010 bound_to 7997
  139.8325  144.6680  150.9382 H   0  0  0  0  0  0  0  0  0  0  0  0  # atno 10167 bound_to 10162
  156.0012  130.5023  150.5763 H   0  0  0  0  0  0  0  0  0  0  0  0  # atno 10718 bound_to 10713
  154.5763  135.2832  155.0777 H   0  0  0  0  0  0  0  0  0  0  0  0  # atno 10763 bound_to 10752
  154.2130  135.6404  153.5125 H   0  0  0  0  0  0  0  0  0  0  0  0  # atno 10764 bound_to 10752
  153.0073  135.5496  154.6403 H   0  0  0  0  0  0  0  0  0  0  0  0  # atno 10765 bound_to 10752
  139.9662  134.9590  156.9267 H   0  0  0  0  0  0  0  0  0  0  0  0  # atno 11005 bound_to 11000
  145.3138  139.1810  143.4624 LP  0  0  0  0  0  0  0  0  0  0  0  0  # atno 17320 bound_to 7965
  146.3248  140.3146  142.8629 LP  0  0  0  0  0  0  0  0  0  0  0  0  # atno 17321 bound_to 7965
  140.7805  143.3987  151.1185 LP  0  0  0  0  0  0  0  0  0  0  0  0  # atno 17342 bound_to 10162
  139.7640  143.8593  152.3106 LP  0  0  0  0  0  0  0  0  0  0  0  0  # atno 17343 bound_to 10162
  157.3650  131.0756  151.1605 LP  0  0  0  0  0  0  0  0  0  0  0  0  # atno 17370 bound_to 10713
  157.2377  130.6555  149.5876 LP  0  0  0  0  0  0  0  0  0  0  0  0  # atno 17371 bound_to 10713
  140.5392  134.0736  155.7337 LP  0  0  0  0  0  0  0  0  0  0  0  0  # atno 17394 bound_to 11000
  141.1341  133.9252  157.2472 LP  0  0  0  0  0  0  0  0  0  0  0  0  # atno 17395 bound_to 11000

$$$$
