AV-unprocessed.smi:1131|AV-procd|sdf|4850|dock9
  -GOLD-   22720 3423D 1   1.00000     0.00000
 Structure written by MMmdl.
 33 34  0  0  0  0  0  0  0  0  1 V2000
  145.4489  138.2308  154.2005 O   0  0  0  0  0  0  0  0  0  0  0  0
  146.3055  137.7545  153.4541 C   0  0  0  0  0  0  0  0  0  0  0  0
  145.9595  136.6168  152.4825 C   0  0  0  0  0  0  0  0  0  0  0  0
  144.6053  136.0797  152.6809 N   0  0  0  0  0  0  0  0  0  0  0  0
  143.4937  136.8560  152.3845 C   0  0  0  0  0  0  0  0  0  0  0  0
  142.2196  136.4301  152.5548 C   0  0  0  0  0  0  0  0  0  0  0  0
  141.9509  135.0939  153.0754 C   0  0  0  0  0  0  0  0  0  0  0  0
  140.8338  134.6174  153.2636 O   0  0  0  0  0  0  0  0  0  0  0  0
  143.0946  134.3447  153.3645 N   0  0  0  0  0  0  0  0  0  0  0  0
  144.4102  134.7779  153.1922 C   0  0  0  0  0  0  0  0  0  0  0  0
  145.3483  134.0366  153.4831 O   0  0  0  0  0  0  0  0  0  0  0  0
  147.5716  138.1962  153.4164 N   0  0  0  0  0  0  0  0  0  0  0  0
  148.1099  139.2719  154.2421 C   0  0  0  0  0  0  0  0  0  0  0  0
  149.6471  139.3461  154.1685 C   0  0  2  0  0  0  0  0  0  0  0  0
  150.3595  138.0266  154.3918 C   0  0  0  0  0  0  0  0  0  0  0  0
  151.7702  138.4886  154.7424 C   0  0  0  0  0  0  0  0  0  0  0  0
  151.6160  139.7413  155.4034 O   0  0  0  0  0  0  0  0  0  0  0  0
  150.2788  140.2114  155.2584 C   0  0  0  0  0  0  0  0  0  0  0  0
  142.9579  133.4139  153.7307 H   0  0  0  0  0  0  0  0  0  0  0  0
  146.0705  136.9945  151.4647 H   0  0  0  0  0  0  0  0  0  0  0  0
  146.6979  135.8175  152.5745 H   0  0  0  0  0  0  0  0  0  0  0  0
  143.6450  137.8549  152.0005 H   0  0  0  0  0  0  0  0  0  0  0  0
  141.3947  137.0822  152.3061 H   0  0  0  0  0  0  0  0  0  0  0  0
  148.2097  137.7532  152.7715 H   0  0  0  0  0  0  0  0  0  0  0  0
  147.6705  140.2250  153.9424 H   0  0  0  0  0  0  0  0  0  0  0  0
  147.7917  139.0975  155.2703 H   0  0  0  0  0  0  0  0  0  0  0  0
  149.9498  139.7441  153.1984 H   0  0  0  0  0  0  0  0  0  0  0  0
  149.9195  137.4936  155.2358 H   0  0  0  0  0  0  0  0  0  0  0  0
  150.3342  137.3706  153.5213 H   0  0  0  0  0  0  0  0  0  0  0  0
  152.3010  137.7701  155.3672 H   0  0  0  0  0  0  0  0  0  0  0  0
  152.3550  138.6455  153.8353 H   0  0  0  0  0  0  0  0  0  0  0  0
  150.2553  141.2734  155.0132 H   0  0  0  0  0  0  0  0  0  0  0  0
  149.7635  140.0740  156.2100 H   0  0  0  0  0  0  0  0  0  0  0  0
  1  2  2  0  0  0  0
  2  3  1  0  0  0  0
  2 12  1  0  0  0  0
  3  4  1  0  0  0  0
  3 20  1  0  0  0  0
  3 21  1  0  0  0  0
  4 10  1  0  0  0  0
  4  5  1  0  0  0  0
  5  6  2  0  0  0  0
  5 22  1  0  0  0  0
  6  7  1  0  0  0  0
  6 23  1  0  0  0  0
  7  8  2  0  0  0  0
  7  9  1  0  0  0  0
  9 19  1  0  0  0  0
  9 10  1  0  0  0  0
 10 11  2  0  0  0  0
 12 13  1  0  0  0  0
 12 24  1  0  0  0  0
 13 14  1  0  0  0  0
 13 25  1  0  0  0  0
 13 26  1  0  0  0  0
 14 18  1  0  0  0  0
 14 15  1  0  0  0  0
 14 27  1  0  0  0  0
 15 16  1  0  0  0  0
 15 28  1  0  0  0  0
 15 29  1  0  0  0  0
 16 17  1  0  0  0  0
 16 30  1  0  0  0  0
 16 31  1  0  0  0  0
 17 18  1  0  0  0  0
 18 32  1  0  0  0  0
 18 33  1  0  0  0  0
M  END
> <s_m_source_file>
AV-unprocessed.smi

> <i_m_source_file_index>
1131

> <i_lp_mmshare_version>
43012

> <i_f3d_flags>
0

> <s_epik_input>
W0NIMl0xT1tDSDJdW0NIMl1bQ0BIXTFbQ0gyXVtOSF1DKD1PKVtDSDJdbjJbY0hdW2NIXWMoPU8pW25IXWMyPU8=

> <s_epik_cmdline>
J2VwaWtfcHl0aG9uJywgJy1waCcsICc3LjAnLCAnLXRuJywgJzgnLCAnLW1hJywgJzIwMCcsICctbWV0YWxfYmluZGluZycsICctaW1hZScsICc8aW5maWxlLm1hZT4nLCAnLW9tYWUnLCAnPG91dGZpbGUubWFlPic=

> <r_lp_tautomer_probability>
0.999537

> <r_epik_Ionization_Penalty>
0.00329016

> <r_epik_Ionization_Penalty_Charging>
0.00329014

> <r_epik_Ionization_Penalty_Neutral>
1.87063e-08

> <r_epik_State_Penalty>
0.00232461

> <r_epik_Charging_Adjusted_Penalty>
0.00561475

> <i_epik_Tot_Q>
0

> <i_epik_Tot_abs_Q>
0

> <r_epik_Metal_State_Penalty>
0.365289

> <b_epik_Metal_Only>
0

> <s_lp_Force_Field>
OPLS_2005

> <r_lp_Energy>
17.5195

> <b_lp_Chiralities_Consistent>
1

> <s_lp_Variant>
AV-unprocessed.smi:1131-1

> <Gold.Version>
5.8.1

> <Gold.Id.Protein>
6NUR|6NUR_protein|mol2

> <Gold.PLP.Fitness>
41.9108

> <Gold.PLP.PLP>
-27.4417

> <Gold.PLP.part.hbond>
-4.9819

> <Gold.PLP.part.metal>
0.0000

> <Gold.PLP.part.buried>
-3.5069

> <Gold.PLP.part.nonpolar>
-19.2447

> <Gold.PLP.part.repulsive>
0.4380

> <Gold.PLP.ligand.clash>
0.0000

> <Gold.PLP.ligand.torsion>
0.2556

> <Gold.PLP.Chemscore.Hbond>
3.0000

> <Gold.PLP.Chemscore.CHOScore>
1.9903

> <Gold.PLP.Chemscore.Metal>
0.0000

> <Gold.Chemscore.Hbonds>
donor molecule, donor type, donor heavy atom, donor atom, acceptor molecule, acceptor atom, score
      L1  H     9    19       P1 10957  1.00
      L1  H    12    24       P1  7948  1.00
      L1  C     5    22       P1 10171  1.00
      L1  C     5    22       P1 10175  0.79

> <Gold.PLP.Chemscore.Internal.Correction>
0.0096

> <Gold.Rescore>
     Score         DG    S(hbond)    S(metal)    S(lipo)     H(rot)  DE(clash)    DE(int)     intcor
     13.94     -15.50       2.96        0.00      47.04       2.09       0.04       1.53       ----

> <Gold.Chemscore.Fitness>
13.9407

> <Gold.Chemscore.DG>
-15.5029

> <Gold.Chemscore.ZeroCoef>
-5.4800

> <Gold.Chemscore.Hbond>
2.9565

> <Gold.Chemscore.Metal>
0.0000

> <Gold.Chemscore.Lipo>
47.0377

> <Gold.Chemscore.Internal_Hbond>
0.0000

> <Gold.Chemscore.DEClash>
0.0358

> <Gold.Chemscore.DEInternal>
1.5264

> <Gold.Chemscore.Rot>
2.0919

> <Gold.Chemscore.Internal.Correction>
   9.000000E+99

> <Gold.Chemscore.Hbonds>
donor molecule, donor type, donor heavy atom, donor atom, acceptor molecule, acceptor atom, score
      L1  H     9    19       P1 10957  0.98
      L1  H    12    24       P1  7948  0.98
      P1  H 11000 11005       L1     8  0.01

> <Gold.Chemscore.Hbond.Weighted>
-9.8748

> <Gold.Chemscore.Metal.Weighted>
-0.0000

> <Gold.Chemscore.Lipo.Weighted>
-5.5034

> <Gold.Chemscore.Internal_Hbond.Weighted>
0.0000

> <Gold.Chemscore.DEClash.Weighted>
0.0358

> <Gold.Chemscore.DEInternal.Weighted>
1.5264

> <Gold.Chemscore.Rot.Weighted>
5.3552

> <Gold.Chemscore.Internal.Correction.Weighted>
   9.000000E+99

> <Gold.Protein.RotatedTorsions>
[ 6907 6896 6895 6894 ] final -132.28 input  -60.11 | X-H torsion
[ 7974 7965 7964 7962 ] final  141.46 input  175.53 | X-H torsion
[ 8008 7997 7996 7995 ] final  139.03 input   59.86 | X-H torsion
[ 10167 10162 10161 10158 ] final    6.39 input  -65.29 | X-H torsion
[ 10718 10713 10712 10709 ] final -113.36 input   66.30 | X-H torsion
[ 10763 10752 10751 10750 ] final  -42.46 input  -60.55 | X-H torsion
[ 11005 11000 10999 10996 ] final   21.70 input  -57.11 | X-H torsion

> <Gold.Protein.ActiveResidues>
 VAL166  LYS551  ARG553  GLY616  TRP617  ASP618  TYR619  PRO620  LYS621  CYS622 
 ASP623  PHE694  ASN695  SER759  ASP760  ASP761  ALA762  ILE779  LEU786  VAL792 
 PHE793  MET794  SER795  GLU796  ALA797  LYS798  CYS799  TRP800  GLU811  SER814 

> <Gold.Protein.RotatedAtoms>
  150.9606  133.6449  159.2754 H   0  0  0  0  0  0  0  0  0  0  0  0  # atno 6907 bound_to 6896
  151.3773  135.0932  159.9494 H   0  0  0  0  0  0  0  0  0  0  0  0  # atno 6908 bound_to 6896
  152.5146  133.9148  159.7560 H   0  0  0  0  0  0  0  0  0  0  0  0  # atno 6909 bound_to 6896
  144.9095  139.5313  143.5715 H   0  0  0  0  0  0  0  0  0  0  0  0  # atno 7974 bound_to 7965
  156.2993  140.2378  156.4170 H   0  0  0  0  0  0  0  0  0  0  0  0  # atno 8008 bound_to 7997
  154.8389  140.0429  157.1548 H   0  0  0  0  0  0  0  0  0  0  0  0  # atno 8009 bound_to 7997
  154.9124  140.2992  155.5263 H   0  0  0  0  0  0  0  0  0  0  0  0  # atno 8010 bound_to 7997
  140.6430  143.7729  150.7456 H   0  0  0  0  0  0  0  0  0  0  0  0  # atno 10167 bound_to 10162
  156.0762  130.5969  150.8632 H   0  0  0  0  0  0  0  0  0  0  0  0  # atno 10718 bound_to 10713
  153.9795  135.6718  153.4749 H   0  0  0  0  0  0  0  0  0  0  0  0  # atno 10763 bound_to 10752
  153.0755  135.4951  154.8392 H   0  0  0  0  0  0  0  0  0  0  0  0  # atno 10764 bound_to 10752
  154.7173  135.3109  154.9065 H   0  0  0  0  0  0  0  0  0  0  0  0  # atno 10765 bound_to 10752
  140.3887  134.1843  155.7663 H   0  0  0  0  0  0  0  0  0  0  0  0  # atno 11005 bound_to 11000
  146.3151  139.7889  142.8990 LP  0  0  0  0  0  0  0  0  0  0  0  0  # atno 17320 bound_to 7965
  145.3479  141.0301  143.3355 LP  0  0  0  0  0  0  0  0  0  0  0  0  # atno 17321 bound_to 7965
  140.1364  143.4480  152.2221 LP  0  0  0  0  0  0  0  0  0  0  0  0  # atno 17342 bound_to 10162
  139.5639  144.7423  151.4076 LP  0  0  0  0  0  0  0  0  0  0  0  0  # atno 17343 bound_to 10162
  157.5858  131.0945  150.9199 LP  0  0  0  0  0  0  0  0  0  0  0  0  # atno 17370 bound_to 10713
  156.9385  130.5376  149.5280 LP  0  0  0  0  0  0  0  0  0  0  0  0  # atno 17371 bound_to 10713
  141.1898  133.8230  157.0941 LP  0  0  0  0  0  0  0  0  0  0  0  0  # atno 17394 bound_to 11000
  140.0423  134.9848  157.0985 LP  0  0  0  0  0  0  0  0  0  0  0  0  # atno 17395 bound_to 11000

$$$$
