AV-unprocessed.smi:91|AV-procd|sdf|836|dock8
  -GOLD-   2262017263D 1   1.00000     0.00000
 Structure written by MMmdl.
 60 63  0  0  0  0  0  0  0  0  1 V2000
  145.6319  142.9518  159.2578 C   0  0  0  0  0  0  0  0  0  0  0  0
  146.9337  142.3977  159.1856 O   0  0  0  0  0  0  0  0  0  0  0  0
  147.3874  142.2469  157.8503 C   0  0  0  0  0  0  0  0  0  0  0  0
  148.8593  141.8146  157.8588 C   0  0  1  0  0  0  0  0  0  0  0  0
  149.1551  140.7450  156.7934 C   0  0  0  0  0  0  0  0  0  0  0  0
  150.5879  140.4749  156.7333 N   0  0  0  0  0  0  0  0  0  0  0  0
  150.9523  139.3116  156.1328 C   0  0  0  0  0  0  0  0  0  0  0  0
  151.6986  139.4069  155.0008 N   0  0  0  0  0  0  0  0  0  0  0  0
  152.0940  138.3097  154.3503 C   0  0  0  0  0  0  0  0  0  0  0  0
  151.8617  137.0323  154.6533 N   0  0  0  0  0  0  0  0  0  0  0  0
  151.1148  136.9236  155.7882 C   0  0  0  0  0  0  0  0  0  0  0  0
  150.6178  137.9973  156.5834 C   0  0  0  0  0  0  0  0  0  0  0  0
  149.9072  137.4803  157.6629 N   0  0  0  0  0  0  0  0  0  0  0  0
  149.9754  136.1865  157.5114 C   0  0  0  0  0  0  0  0  0  0  0  0
  150.6910  135.7660  156.4152 N   0  0  0  0  0  0  0  0  0  0  0  0
  150.9412  134.3934  156.0125 C   0  0  0  0  0  0  0  0  0  0  0  0
  149.6445  133.5939  155.7307 C   0  0  1  0  0  0  0  0  0  0  0  0
  148.9713  133.9941  154.3950 C   0  0  0  0  0  0  0  0  0  0  0  0
  148.7683  135.3904  154.3167 O   0  0  0  0  0  0  0  0  0  0  0  0
  149.8866  132.0672  155.8361 C   0  0  2  0  0  0  0  0  0  0  0  0
  151.2896  131.6125  155.4739 C   0  0  0  0  0  0  0  0  0  0  0  0
  151.0887  130.1234  155.2160 C   0  0  0  0  0  0  0  0  0  0  0  0
  149.7714  129.9983  154.6918 O   0  0  0  0  0  0  0  0  0  0  0  0
  149.0624  131.2221  154.8591 C   0  0  0  0  0  0  0  0  0  0  0  0
  151.3958  141.6703  156.5242 C   0  0  0  0  0  0  0  0  0  0  0  0
  151.0725  142.7562  157.5741 C   0  0  0  0  0  0  0  0  0  0  0  0
  151.6174  142.3879  158.9705 C   0  0  0  0  0  0  0  0  0  0  0  0
  151.6795  144.0976  157.1347 C   0  0  0  0  0  0  0  0  0  0  0  0
  149.6575  142.9725  157.6107 O   0  0  0  0  0  0  0  0  0  0  0  0
  145.3331  143.0501  160.3014 H   0  0  0  0  0  0  0  0  0  0  0  0
  144.9033  142.3124  158.7579 H   0  0  0  0  0  0  0  0  0  0  0  0
  145.5987  143.9428  158.8033 H   0  0  0  0  0  0  0  0  0  0  0  0
  146.7780  141.5177  157.3137 H   0  0  0  0  0  0  0  0  0  0  0  0
  147.2890  143.2006  157.3291 H   0  0  0  0  0  0  0  0  0  0  0  0
  149.0888  141.4237  158.8500 H   0  0  0  0  0  0  0  0  0  0  0  0
  148.5838  139.8446  157.0204 H   0  0  0  0  0  0  0  0  0  0  0  0
  148.8252  141.0895  155.8125 H   0  0  0  0  0  0  0  0  0  0  0  0
  152.6822  138.4802  153.4609 H   0  0  0  0  0  0  0  0  0  0  0  0
  149.5137  135.4993  158.2055 H   0  0  0  0  0  0  0  0  0  0  0  0
  151.5773  134.4048  155.1266 H   0  0  0  0  0  0  0  0  0  0  0  0
  151.5228  133.9179  156.8026 H   0  0  0  0  0  0  0  0  0  0  0  0
  148.9353  133.8586  156.5165 H   0  0  0  0  0  0  0  0  0  0  0  0
  149.5768  133.6803  153.5451 H   0  0  0  0  0  0  0  0  0  0  0  0
  148.0108  133.4929  154.2747 H   0  0  0  0  0  0  0  0  0  0  0  0
  148.6487  135.6259  153.4094 H   0  0  0  0  0  0  0  0  0  0  0  0
  149.6672  131.7315  156.8512 H   0  0  0  0  0  0  0  0  0  0  0  0
  151.6286  132.1081  154.5628 H   0  0  0  0  0  0  0  0  0  0  0  0
  152.0212  131.8021  156.2596 H   0  0  0  0  0  0  0  0  0  0  0  0
  151.8324  129.7139  154.5321 H   0  0  0  0  0  0  0  0  0  0  0  0
  151.1440  129.5650  156.1511 H   0  0  0  0  0  0  0  0  0  0  0  0
  148.0488  131.0398  155.2168 H   0  0  0  0  0  0  0  0  0  0  0  0
  148.9931  131.7115  153.8866 H   0  0  0  0  0  0  0  0  0  0  0  0
  152.4574  141.4242  156.5695 H   0  0  0  0  0  0  0  0  0  0  0  0
  151.1920  142.0524  155.5229 H   0  0  0  0  0  0  0  0  0  0  0  0
  152.7074  142.3512  158.9655 H   0  0  0  0  0  0  0  0  0  0  0  0
  151.2718  141.4119  159.3095 H   0  0  0  0  0  0  0  0  0  0  0  0
  151.3161  143.1236  159.7166 H   0  0  0  0  0  0  0  0  0  0  0  0
  152.7655  144.0358  157.0573 H   0  0  0  0  0  0  0  0  0  0  0  0
  151.4416  144.8899  157.8452 H   0  0  0  0  0  0  0  0  0  0  0  0
  151.2958  144.4049  156.1612 H   0  0  0  0  0  0  0  0  0  0  0  0
  1  2  1  0  0  0  0
  1 30  1  0  0  0  0
  1 31  1  0  0  0  0
  1 32  1  0  0  0  0
  2  3  1  0  0  0  0
  3  4  1  0  0  0  0
  3 33  1  0  0  0  0
  3 34  1  0  0  0  0
  4 29  1  0  0  0  0
  4  5  1  0  0  0  0
  4 35  1  0  0  0  0
  5  6  1  0  0  0  0
  5 36  1  0  0  0  0
  5 37  1  0  0  0  0
  6  7  1  0  0  0  0
  6 25  1  0  0  0  0
  7 12  1  0  0  0  0
  7  8  2  0  0  0  0
  8  9  1  0  0  0  0
  9 10  2  0  0  0  0
  9 38  1  0  0  0  0
 10 11  1  0  0  0  0
 11 15  1  0  0  0  0
 11 12  2  0  0  0  0
 12 13  1  0  0  0  0
 13 14  2  0  0  0  0
 14 15  1  0  0  0  0
 14 39  1  0  0  0  0
 15 16  1  0  0  0  0
 16 17  1  0  0  0  0
 16 40  1  0  0  0  0
 16 41  1  0  0  0  0
 17 18  1  0  0  0  0
 17 20  1  0  0  0  0
 17 42  1  0  0  0  0
 18 19  1  0  0  0  0
 18 43  1  0  0  0  0
 18 44  1  0  0  0  0
 19 45  1  0  0  0  0
 20 24  1  0  0  0  0
 20 21  1  0  0  0  0
 20 46  1  0  0  0  0
 21 22  1  0  0  0  0
 21 47  1  0  0  0  0
 21 48  1  0  0  0  0
 22 23  1  0  0  0  0
 22 49  1  0  0  0  0
 22 50  1  0  0  0  0
 23 24  1  0  0  0  0
 24 51  1  0  0  0  0
 24 52  1  0  0  0  0
 25 26  1  0  0  0  0
 25 53  1  0  0  0  0
 25 54  1  0  0  0  0
 26 27  1  0  0  0  0
 26 28  1  0  0  0  0
 26 29  1  0  0  0  0
 27 55  1  0  0  0  0
 27 56  1  0  0  0  0
 27 57  1  0  0  0  0
 28 58  1  0  0  0  0
 28 59  1  0  0  0  0
 28 60  1  0  0  0  0
M  END
> <s_m_source_file>
AV-unprocessed.smi

> <i_m_source_file_index>
91

> <i_lp_mmshare_version>
43012

> <i_f3d_flags>
0

> <s_epik_input>
W0NIM11PW0NIMl1bQ0BASF0oTzEpW0NIMl1OKFtDSDJdQzEoW0NIM10pW0NIM10pYyhuW2NIXW4yKWMoYzIzKW5bY0hdbjNbQ0gyXVtDQEhdKFtDSDJdW09IXSlbQ0BASF00W0NIMl1bQ0gyXU9bQ0gyXTQ=

> <s_epik_cmdline>
J2VwaWtfcHl0aG9uJywgJy1waCcsICc3LjAnLCAnLXRuJywgJzgnLCAnLW1hJywgJzIwMCcsICctbWV0YWxfYmluZGluZycsICctaW1hZScsICc8aW5maWxlLm1hZT4nLCAnLW9tYWUnLCAnPG91dGZpbGUubWFlPic=

> <r_lp_tautomer_probability>
1

> <r_epik_Ionization_Penalty>
8.63591e-05

> <r_epik_Ionization_Penalty_Charging>
0

> <r_epik_Ionization_Penalty_Neutral>
8.63591e-05

> <r_epik_State_Penalty>
-0

> <r_epik_Charging_Adjusted_Penalty>
0

> <i_epik_Tot_Q>
0

> <i_epik_Tot_abs_Q>
0

> <r_epik_Metal_State_Penalty>
-0

> <b_epik_Metal_Only>
0

> <s_lp_Force_Field>
OPLS_2005

> <r_lp_Energy>
46.7978

> <b_lp_Chiralities_Consistent>
1

> <s_lp_Variant>
AV-unprocessed.smi:91-4

> <Gold.Version>
5.8.1

> <Gold.Id.Protein>
6NUR|6NUR_protein|mol2

> <Gold.PLP.Fitness>
44.6627

> <Gold.PLP.PLP>
-37.2265

> <Gold.PLP.part.hbond>
-3.8631

> <Gold.PLP.part.metal>
0.0000

> <Gold.PLP.part.buried>
-7.5702

> <Gold.PLP.part.nonpolar>
-27.1561

> <Gold.PLP.part.repulsive>
2.3186

> <Gold.PLP.ligand.clash>
0.0000

> <Gold.PLP.ligand.torsion>
2.0817

> <Gold.PLP.Chemscore.Hbond>
3.6765

> <Gold.PLP.Chemscore.CHOScore>
0.0000

> <Gold.PLP.Chemscore.Metal>
0.0000

> <Gold.Chemscore.Hbonds>
donor molecule, donor type, donor heavy atom, donor atom, acceptor molecule, acceptor atom, score
      L1  H    19    45       P1  7948  1.00
      P1  H  6934  6946       L1     2  0.55
      P1  H  7989  7998       L1     8  0.86
      P1  H 10752 10763       L1    10  0.99

> <Gold.PLP.Chemscore.Internal.Correction>
0.5700

> <Gold.Rescore>
     Score         DG    S(hbond)    S(metal)    S(lipo)     H(rot)  DE(clash)    DE(int)     intcor
     13.87     -16.20       2.75        0.00      79.48       3.03       0.08       2.26       ----

> <Gold.Chemscore.Fitness>
13.8678

> <Gold.Chemscore.DG>
-16.2028

> <Gold.Chemscore.ZeroCoef>
-5.4800

> <Gold.Chemscore.Hbond>
2.7473

> <Gold.Chemscore.Metal>
0.0000

> <Gold.Chemscore.Lipo>
79.4832

> <Gold.Chemscore.Internal_Hbond>
0.0000

> <Gold.Chemscore.DEClash>
0.0775

> <Gold.Chemscore.DEInternal>
2.2575

> <Gold.Chemscore.Rot>
3.0284

> <Gold.Chemscore.Internal.Correction>
   9.000000E+99

> <Gold.Chemscore.Hbonds>
donor molecule, donor type, donor heavy atom, donor atom, acceptor molecule, acceptor atom, score
      L1  H    19    45       P1  7948  0.98
      P1  H  6934  6946       L1     2  0.24
      P1  H  7989  7998       L1     8  0.33
      P1  H 10752 10763       L1    10  0.61

> <Gold.Chemscore.Hbond.Weighted>
-9.1761

> <Gold.Chemscore.Metal.Weighted>
-0.0000

> <Gold.Chemscore.Lipo.Weighted>
-9.2995

> <Gold.Chemscore.Internal_Hbond.Weighted>
0.0000

> <Gold.Chemscore.DEClash.Weighted>
0.0775

> <Gold.Chemscore.DEInternal.Weighted>
2.2575

> <Gold.Chemscore.Rot.Weighted>
7.7528

> <Gold.Chemscore.Internal.Correction.Weighted>
   9.000000E+99

> <Gold.Protein.RotatedTorsions>
[ 6907 6896 6895 6894 ] final  157.80 input  -60.11 | X-H torsion
[ 7974 7965 7964 7962 ] final   94.60 input  175.53 | X-H torsion
[ 8008 7997 7996 7995 ] final  -43.62 input   59.86 | X-H torsion
[ 10167 10162 10161 10158 ] final   82.47 input  -65.29 | X-H torsion
[ 10718 10713 10712 10709 ] final   18.31 input   66.30 | X-H torsion
[ 10763 10752 10751 10750 ] final   59.61 input  -60.55 | X-H torsion
[ 11005 11000 10999 10996 ] final   40.23 input  -57.11 | X-H torsion

> <Gold.Protein.ActiveResidues>
 VAL166  LYS551  ARG553  GLY616  TRP617  ASP618  TYR619  PRO620  LYS621  CYS622 
 ASP623  PHE694  ASN695  SER759  ASP760  ASP761  ALA762  ILE779  LEU786  VAL792 
 PHE793  MET794  SER795  GLU796  ALA797  LYS798  CYS799  TRP800  GLU811  SER814 

> <Gold.Protein.RotatedAtoms>
  152.0098  133.3857  159.4215 H   0  0  0  0  0  0  0  0  0  0  0  0  # atno 6907 bound_to 6896
  150.6900  134.3742  159.5015 H   0  0  0  0  0  0  0  0  0  0  0  0  # atno 6908 bound_to 6896
  152.1501  134.8994  160.0599 H   0  0  0  0  0  0  0  0  0  0  0  0  # atno 6909 bound_to 6896
  145.4634  139.2285  143.2975 H   0  0  0  0  0  0  0  0  0  0  0  0  # atno 7974 bound_to 7965
  154.3997  140.1443  156.3548 H   0  0  0  0  0  0  0  0  0  0  0  0  # atno 8008 bound_to 7997
  155.8235  140.3468  155.5508 H   0  0  0  0  0  0  0  0  0  0  0  0  # atno 8009 bound_to 7997
  155.8263  140.0905  157.1810 H   0  0  0  0  0  0  0  0  0  0  0  0  # atno 8010 bound_to 7997
  139.9284  144.6168  150.8369 H   0  0  0  0  0  0  0  0  0  0  0  0  # atno 10167 bound_to 10162
  157.0945  130.6442  149.5857 H   0  0  0  0  0  0  0  0  0  0  0  0  # atno 10718 bound_to 10713
  152.9899  135.5565  154.5742 H   0  0  0  0  0  0  0  0  0  0  0  0  # atno 10763 bound_to 10752
  154.5136  135.2803  155.1324 H   0  0  0  0  0  0  0  0  0  0  0  0  # atno 10764 bound_to 10752
  154.2706  135.6364  153.5361 H   0  0  0  0  0  0  0  0  0  0  0  0  # atno 10765 bound_to 10752
  140.1950  134.3940  155.8126 H   0  0  0  0  0  0  0  0  0  0  0  0  # atno 11005 bound_to 11000
  146.2438  140.5406  142.8923 LP  0  0  0  0  0  0  0  0  0  0  0  0  # atno 17320 bound_to 7965
  144.7989  140.6175  143.6492 LP  0  0  0  0  0  0  0  0  0  0  0  0  # atno 17321 bound_to 7965
  140.7644  143.3247  151.2542 LP  0  0  0  0  0  0  0  0  0  0  0  0  # atno 17342 bound_to 10162
  139.6803  143.9867  152.2804 LP  0  0  0  0  0  0  0  0  0  0  0  0  # atno 17343 bound_to 10162
  155.9889  130.4935  150.7192 LP  0  0  0  0  0  0  0  0  0  0  0  0  # atno 17370 bound_to 10713
  157.4693  131.0891  151.0660 LP  0  0  0  0  0  0  0  0  0  0  0  0  # atno 17371 bound_to 10713
  141.2227  133.7065  156.8161 LP  0  0  0  0  0  0  0  0  0  0  0  0  # atno 17394 bound_to 11000
  140.2117  134.8823  157.3281 LP  0  0  0  0  0  0  0  0  0  0  0  0  # atno 17395 bound_to 11000

$$$$
