AV-unprocessed.smi:254|AV-procd|sdf|1946|dock1
  -GOLD-   2262021 73D 1   1.00000     0.00000
 Structure written by MMmdl.
 50 53  0  0  0  0  0  0  0  0  1 V2000
  149.2336  132.6767  157.5885 O   0  0  0  0  0  0  0  0  0  0  0  0
  149.2440  133.6466  156.8321 C   0  0  0  0  0  0  0  0  0  0  0  0
  149.9074  134.9654  157.1848 C   0  0  0  0  0  0  0  0  0  0  0  0
  149.6510  135.7473  155.9813 N   0  0  0  0  0  0  0  0  0  0  0  0
  150.1119  137.0127  155.8053 C   0  0  0  0  0  0  0  0  0  0  0  0
  149.9856  137.5745  154.5744 N   0  0  0  0  0  0  0  0  0  0  0  0
  150.4236  138.8150  154.3448 C   0  0  0  0  0  0  0  0  0  0  0  0
  151.0097  139.6613  155.1919 N   0  0  0  0  0  0  0  0  0  0  0  0
  151.1394  139.1101  156.4321 C   0  0  0  0  0  0  0  0  0  0  0  0
  150.7264  137.8030  156.8225 C   0  0  0  0  0  0  0  0  0  0  0  0
  151.0387  137.6011  158.1625 N   0  0  0  0  0  0  0  0  0  0  0  0
  151.6001  138.7167  158.5384 C   0  0  0  0  0  0  0  0  0  0  0  0
  151.6873  139.6866  157.5661 N   0  0  0  0  0  0  0  0  0  0  0  0
  152.2612  141.0179  157.7053 C   0  0  0  0  0  0  0  0  0  0  0  0
  152.3861  141.5135  159.1724 C   0  0  1  0  0  0  0  0  0  0  0  0
  153.8398  141.4379  159.6959 C   0  0  0  0  0  0  0  0  0  0  0  0
  153.8680  141.1051  161.0678 O   0  0  0  0  0  0  0  0  0  0  0  0
  151.7892  142.9321  159.3700 C   0  0  2  0  0  0  0  0  0  0  0  0
  152.3911  144.0125  158.4868 C   0  0  0  0  0  0  0  0  0  0  0  0
  151.9888  145.2927  159.2117 C   0  0  0  0  0  0  0  0  0  0  0  0
  151.9224  144.9526  160.5917 O   0  0  0  0  0  0  0  0  0  0  0  0
  152.0511  143.5442  160.7508 C   0  0  0  0  0  0  0  0  0  0  0  0
  148.9237  134.9934  154.9697 C   0  0  0  0  0  0  0  0  0  0  0  0
  148.7015  133.7078  155.6108 N   0  0  0  0  0  0  0  0  0  0  0  0
  147.9928  132.6367  154.9140 C   0  0  0  0  0  0  0  0  0  0  0  0
  148.8281  132.0234  153.7762 C   0  0  0  0  0  0  0  0  0  0  0  0
  148.1979  130.9469  153.3081 F   0  0  0  0  0  0  0  0  0  0  0  0
  148.9880  132.8878  152.7743 F   0  0  0  0  0  0  0  0  0  0  0  0
  150.0252  131.6510  154.2292 F   0  0  0  0  0  0  0  0  0  0  0  0
  149.4414  135.4135  158.0630 H   0  0  0  0  0  0  0  0  0  0  0  0
  150.9753  134.8283  157.3591 H   0  0  0  0  0  0  0  0  0  0  0  0
  150.2835  139.1818  153.3386 H   0  0  0  0  0  0  0  0  0  0  0  0
  151.9638  138.8607  159.5447 H   0  0  0  0  0  0  0  0  0  0  0  0
  153.2345  141.0217  157.2146 H   0  0  0  0  0  0  0  0  0  0  0  0
  151.6493  141.7129  157.1295 H   0  0  0  0  0  0  0  0  0  0  0  0
  151.7920  140.8326  159.7841 H   0  0  0  0  0  0  0  0  0  0  0  0
  154.4313  140.7167  159.1317 H   0  0  0  0  0  0  0  0  0  0  0  0
  154.3401  142.4003  159.5966 H   0  0  0  0  0  0  0  0  0  0  0  0
  153.1357  140.5363  161.2531 H   0  0  0  0  0  0  0  0  0  0  0  0
  150.7138  142.9118  159.1892 H   0  0  0  0  0  0  0  0  0  0  0  0
  153.4784  143.9235  158.4624 H   0  0  0  0  0  0  0  0  0  0  0  0
  152.0231  143.9887  157.4609 H   0  0  0  0  0  0  0  0  0  0  0  0
  152.6897  146.1086  159.0343 H   0  0  0  0  0  0  0  0  0  0  0  0
  150.9997  145.6188  158.8882 H   0  0  0  0  0  0  0  0  0  0  0  0
  151.3677  143.1769  161.5156 H   0  0  0  0  0  0  0  0  0  0  0  0
  153.0687  143.3299  161.0807 H   0  0  0  0  0  0  0  0  0  0  0  0
  147.9733  135.4707  154.7269 H   0  0  0  0  0  0  0  0  0  0  0  0
  149.5174  134.8731  154.0623 H   0  0  0  0  0  0  0  0  0  0  0  0
  147.7291  131.8608  155.6339 H   0  0  0  0  0  0  0  0  0  0  0  0
  147.0494  133.0193  154.5211 H   0  0  0  0  0  0  0  0  0  0  0  0
  1  2  2  0  0  0  0
  2 24  1  0  0  0  0
  2  3  1  0  0  0  0
  3  4  1  0  0  0  0
  3 30  1  0  0  0  0
  3 31  1  0  0  0  0
  4  5  1  0  0  0  0
  4 23  1  0  0  0  0
  5 10  1  0  0  0  0
  5  6  2  0  0  0  0
  6  7  1  0  0  0  0
  7  8  2  0  0  0  0
  7 32  1  0  0  0  0
  8  9  1  0  0  0  0
  9 13  1  0  0  0  0
  9 10  2  0  0  0  0
 10 11  1  0  0  0  0
 11 12  2  0  0  0  0
 12 13  1  0  0  0  0
 12 33  1  0  0  0  0
 13 14  1  0  0  0  0
 14 15  1  0  0  0  0
 14 34  1  0  0  0  0
 14 35  1  0  0  0  0
 15 16  1  0  0  0  0
 15 18  1  0  0  0  0
 15 36  1  0  0  0  0
 16 17  1  0  0  0  0
 16 37  1  0  0  0  0
 16 38  1  0  0  0  0
 17 39  1  0  0  0  0
 18 22  1  0  0  0  0
 18 19  1  0  0  0  0
 18 40  1  0  0  0  0
 19 20  1  0  0  0  0
 19 41  1  0  0  0  0
 19 42  1  0  0  0  0
 20 21  1  0  0  0  0
 20 43  1  0  0  0  0
 20 44  1  0  0  0  0
 21 22  1  0  0  0  0
 22 45  1  0  0  0  0
 22 46  1  0  0  0  0
 23 24  1  0  0  0  0
 23 47  1  0  0  0  0
 23 48  1  0  0  0  0
 24 25  1  0  0  0  0
 25 26  1  0  0  0  0
 25 49  1  0  0  0  0
 25 50  1  0  0  0  0
 26 27  1  0  0  0  0
 26 28  1  0  0  0  0
 26 29  1  0  0  0  0
M  END
> <s_m_source_file>
AV-unprocessed.smi

> <i_m_source_file_index>
254

> <i_lp_mmshare_version>
43012

> <i_f3d_flags>
0

> <s_epik_input>
RkMoRikoRilbQ0gyXU4xW0NIMl1OKFtDSDJdQzE9TyljKG5bY0hdbjIpYyhjMjMpbltjSF1uM1tDSDJdW0NASF0oW0NIMl1bT0hdKVtDQEBIXTRbQ0gyXVtDSDJdT1tDSDJdNA==

> <s_epik_cmdline>
J2VwaWtfcHl0aG9uJywgJy1waCcsICc3LjAnLCAnLXRuJywgJzgnLCAnLW1hJywgJzIwMCcsICctbWV0YWxfYmluZGluZycsICctaW1hZScsICc8aW5maWxlLm1hZT4nLCAnLW9tYWUnLCAnPG91dGZpbGUubWFlPic=

> <r_lp_tautomer_probability>
1

> <r_epik_Ionization_Penalty>
0.000292924

> <r_epik_Ionization_Penalty_Charging>
0

> <r_epik_Ionization_Penalty_Neutral>
0.000292924

> <r_epik_State_Penalty>
-0

> <r_epik_Charging_Adjusted_Penalty>
0

> <i_epik_Tot_Q>
0

> <i_epik_Tot_abs_Q>
0

> <r_epik_Metal_State_Penalty>
-0

> <b_epik_Metal_Only>
0

> <s_epik_Chemistry_Notes>
This compound contains an acetal/aminal-like group ( X-CH(R)-Y where X, Y are N, S, or O) that may be acid/base labile, releasing an aldehyde.

> <s_lp_Force_Field>
OPLS_2005

> <r_lp_Energy>
38.5559

> <b_lp_Chiralities_Consistent>
1

> <s_lp_Variant>
AV-unprocessed.smi:254-2

> <Gold.Version>
5.8.1

> <Gold.Id.Protein>
6NUR|6NUR_protein|mol2

> <Gold.PLP.Fitness>
44.7863

> <Gold.PLP.PLP>
-43.7187

> <Gold.PLP.part.hbond>
-0.6724

> <Gold.PLP.part.metal>
0.0000

> <Gold.PLP.part.buried>
-7.5338

> <Gold.PLP.part.nonpolar>
-36.0134

> <Gold.PLP.part.repulsive>
0.4131

> <Gold.PLP.ligand.clash>
0.0000

> <Gold.PLP.ligand.torsion>
1.6296

> <Gold.PLP.Chemscore.Hbond>
0.2559

> <Gold.PLP.Chemscore.CHOScore>
1.0000

> <Gold.PLP.Chemscore.Metal>
0.0000

> <Gold.Chemscore.Hbonds>
donor molecule, donor type, donor heavy atom, donor atom, acceptor molecule, acceptor atom, score
      P1  H  7989  7998       L1     8  0.29
      L1  C     7    32       P1  7957  1.00

> <Gold.PLP.Chemscore.Internal.Correction>
0.5591

> <Gold.Rescore>
     Score         DG    S(hbond)    S(metal)    S(lipo)     H(rot)  DE(clash)    DE(int)     intcor
      5.08      -7.89       0.01        0.00      92.58       3.30       0.12       2.69       ----

> <Gold.Chemscore.Fitness>
5.0831

> <Gold.Chemscore.DG>
-7.8943

> <Gold.Chemscore.ZeroCoef>
-5.4800

> <Gold.Chemscore.Hbond>
0.0072

> <Gold.Chemscore.Metal>
0.0000

> <Gold.Chemscore.Lipo>
92.5786

> <Gold.Chemscore.Internal_Hbond>
0.0000

> <Gold.Chemscore.DEClash>
0.1226

> <Gold.Chemscore.DEInternal>
2.6886

> <Gold.Chemscore.Rot>
3.2974

> <Gold.Chemscore.Internal.Correction>
   9.000000E+99

> <Gold.Chemscore.Hbonds>
donor molecule, donor type, donor heavy atom, donor atom, acceptor molecule, acceptor atom, score
      P1  H  7989  7998       L1     8  0.01

> <Gold.Chemscore.Hbond.Weighted>
-0.0240

> <Gold.Chemscore.Metal.Weighted>
-0.0000

> <Gold.Chemscore.Lipo.Weighted>
-10.8317

> <Gold.Chemscore.Internal_Hbond.Weighted>
0.0000

> <Gold.Chemscore.DEClash.Weighted>
0.1226

> <Gold.Chemscore.DEInternal.Weighted>
2.6886

> <Gold.Chemscore.Rot.Weighted>
8.4414

> <Gold.Chemscore.Internal.Correction.Weighted>
   9.000000E+99

> <Gold.Protein.RotatedTorsions>
[ 6907 6896 6895 6894 ] final -119.56 input  -60.11 | X-H torsion
[ 7974 7965 7964 7962 ] final    1.30 input  175.53 | X-H torsion
[ 8008 7997 7996 7995 ] final -158.13 input   59.86 | X-H torsion
[ 10167 10162 10161 10158 ] final   54.25 input  -65.29 | X-H torsion
[ 10718 10713 10712 10709 ] final  133.81 input   66.30 | X-H torsion
[ 10763 10752 10751 10750 ] final  -96.24 input  -60.55 | X-H torsion
[ 11005 11000 10999 10996 ] final -129.79 input  -57.11 | X-H torsion

> <Gold.Protein.ActiveResidues>
 VAL166  LYS551  ARG553  GLY616  TRP617  ASP618  TYR619  PRO620  LYS621  CYS622 
 ASP623  PHE694  ASN695  SER759  ASP760  ASP761  ALA762  ILE779  LEU786  VAL792 
 PHE793  MET794  SER795  GLU796  ALA797  LYS798  CYS799  TRP800  GLU811  SER814 

> <Gold.Protein.RotatedAtoms>
  150.8316  133.8082  159.3096 H   0  0  0  0  0  0  0  0  0  0  0  0  # atno 6907 bound_to 6896
  151.5810  135.1057  160.0027 H   0  0  0  0  0  0  0  0  0  0  0  0  # atno 6908 bound_to 6896
  152.4394  133.7379  159.6681 H   0  0  0  0  0  0  0  0  0  0  0  0  # atno 6909 bound_to 6896
  146.2439  140.1008  142.8348 H   0  0  0  0  0  0  0  0  0  0  0  0  # atno 7974 bound_to 7965
  155.7429  140.0816  157.2237 H   0  0  0  0  0  0  0  0  0  0  0  0  # atno 8008 bound_to 7997
  154.4020  140.1574  156.2692 H   0  0  0  0  0  0  0  0  0  0  0  0  # atno 8009 bound_to 7997
  155.9003  140.3410  155.6024 H   0  0  0  0  0  0  0  0  0  0  0  0  # atno 8010 bound_to 7997
  140.2321  144.3675  150.6410 H   0  0  0  0  0  0  0  0  0  0  0  0  # atno 10167 bound_to 10162
  157.4736  131.1081  150.9772 H   0  0  0  0  0  0  0  0  0  0  0  0  # atno 10718 bound_to 10713
  154.7222  135.5091  153.8829 H   0  0  0  0  0  0  0  0  0  0  0  0  # atno 10763 bound_to 10752
  153.0872  135.6649  153.9934 H   0  0  0  0  0  0  0  0  0  0  0  0  # atno 10764 bound_to 10752
  153.9754  135.3034  155.3403 H   0  0  0  0  0  0  0  0  0  0  0  0  # atno 10765 bound_to 10752
  140.9401  134.1204  157.4158 H   0  0  0  0  0  0  0  0  0  0  0  0  # atno 11005 bound_to 11000
  145.0570  140.9060  143.4961 LP  0  0  0  0  0  0  0  0  0  0  0  0  # atno 17320 bound_to 7965
  145.1116  139.2753  143.5634 LP  0  0  0  0  0  0  0  0  0  0  0  0  # atno 17321 bound_to 7965
  140.6177  143.2173  151.6758 LP  0  0  0  0  0  0  0  0  0  0  0  0  # atno 17342 bound_to 10162
  139.5106  144.3536  152.0629 LP  0  0  0  0  0  0  0  0  0  0  0  0  # atno 17343 bound_to 10162
  157.0528  130.5794  149.5373 LP  0  0  0  0  0  0  0  0  0  0  0  0  # atno 17370 bound_to 10713
  156.0085  130.5175  150.7912 LP  0  0  0  0  0  0  0  0  0  0  0  0  # atno 17371 bound_to 10713
  139.8818  135.0034  156.6183 LP  0  0  0  0  0  0  0  0  0  0  0  0  # atno 17394 bound_to 11000
  140.7746  133.8710  155.8518 LP  0  0  0  0  0  0  0  0  0  0  0  0  # atno 17395 bound_to 11000

$$$$
