AV-unprocessed.smi:1648|AV-procd|sdf|6631|dock3
  -GOLD-   22720 7333D 1   1.00000     0.00000
 Structure written by MMmdl.
 41 41  0  0  0  0  0  0  0  0  1 V2000
  152.1055  138.0342  154.1282 C   0  0  0  0  0  0  0  0  0  0  0  0
  151.6039  139.0222  155.1834 C   0  0  0  0  0  0  0  0  0  0  0  0
  151.0998  140.0838  154.8245 O   0  0  0  0  0  0  0  0  0  0  0  0
  151.7268  138.7137  156.4863 N   0  0  0  0  0  0  0  0  0  0  0  0
  151.3116  139.5197  157.6381 C   0  0  2  0  0  0  0  0  0  0  0  0
  152.5696  140.0030  158.3849 C   0  0  0  0  0  0  0  0  0  0  0  0
  153.6782  139.5401  158.1115 O   0  0  0  0  0  0  0  0  0  0  0  0
  152.3717  140.9249  159.3401 N   0  0  0  0  0  0  0  0  0  0  0  0
  153.4104  141.5155  160.1783 C   0  0  2  0  0  0  0  0  0  0  0  0
  154.1643  140.4103  160.9413 C   0  0  0  0  0  0  0  0  0  0  0  0
  152.7677  142.5656  161.1060 C   0  0  0  0  0  0  0  0  0  0  0  0
  152.3099  143.7428  160.3918 N   0  0  0  0  0  0  0  0  0  0  0  0
  152.4425  144.0017  159.0340 C   0  0  0  0  0  0  0  0  0  0  0  0
  151.8611  145.2290  158.8090 C   0  0  0  0  0  0  0  0  0  0  0  0
  151.3631  145.7382  160.0058 N   0  0  0  0  0  0  0  0  0  0  0  0
  151.6632  144.8024  160.8971 C   0  0  0  0  0  0  0  0  0  0  0  0
  150.4441  138.6344  158.5815 C   0  0  0  0  0  0  0  0  0  0  0  0
  151.2305  137.4179  159.1096 C   0  0  0  0  0  0  0  0  0  0  0  0
  149.1397  138.1411  157.9204 C   0  0  0  0  0  0  0  0  0  0  0  0
  151.6003  137.0732  154.2227 H   0  0  0  0  0  0  0  0  0  0  0  0
  153.1800  137.8782  154.2243 H   0  0  0  0  0  0  0  0  0  0  0  0
  151.9118  138.4150  153.1249 H   0  0  0  0  0  0  0  0  0  0  0  0
  152.1701  137.8331  156.7043 H   0  0  0  0  0  0  0  0  0  0  0  0
  150.7189  140.3745  157.3076 H   0  0  0  0  0  0  0  0  0  0  0  0
  151.4261  141.2407  159.5001 H   0  0  0  0  0  0  0  0  0  0  0  0
  154.1249  142.0339  159.5356 H   0  0  0  0  0  0  0  0  0  0  0  0
  154.9890  140.8182  161.5259 H   0  0  0  0  0  0  0  0  0  0  0  0
  154.5903  139.6773  160.2557 H   0  0  0  0  0  0  0  0  0  0  0  0
  153.5011  139.8792  161.6250 H   0  0  0  0  0  0  0  0  0  0  0  0
  151.9128  142.1344  161.6289 H   0  0  0  0  0  0  0  0  0  0  0  0
  153.4774  142.8799  161.8731 H   0  0  0  0  0  0  0  0  0  0  0  0
  152.9283  143.3114  158.3601 H   0  0  0  0  0  0  0  0  0  0  0  0
  151.7624  145.7794  157.8851 H   0  0  0  0  0  0  0  0  0  0  0  0
  151.4098  144.8921  161.9434 H   0  0  0  0  0  0  0  0  0  0  0  0
  150.1593  139.2300  159.4508 H   0  0  0  0  0  0  0  0  0  0  0  0
  151.5829  136.7900  158.2907 H   0  0  0  0  0  0  0  0  0  0  0  0
  150.6086  136.7988  159.7568 H   0  0  0  0  0  0  0  0  0  0  0  0
  152.0984  137.7157  159.6978 H   0  0  0  0  0  0  0  0  0  0  0  0
  149.3467  137.5858  157.0051 H   0  0  0  0  0  0  0  0  0  0  0  0
  148.4685  138.9624  157.6687 H   0  0  0  0  0  0  0  0  0  0  0  0
  148.5869  137.4805  158.5889 H   0  0  0  0  0  0  0  0  0  0  0  0
  1  2  1  0  0  0  0
  1 20  1  0  0  0  0
  1 21  1  0  0  0  0
  1 22  1  0  0  0  0
  2  3  2  0  0  0  0
  2  4  1  0  0  0  0
  4  5  1  0  0  0  0
  4 23  1  0  0  0  0
  5  6  1  0  0  0  0
  5 17  1  0  0  0  0
  5 24  1  0  0  0  0
  6  7  2  0  0  0  0
  6  8  1  0  0  0  0
  8  9  1  0  0  0  0
  8 25  1  0  0  0  0
  9 10  1  0  0  0  0
  9 11  1  0  0  0  0
  9 26  1  0  0  0  0
 10 27  1  0  0  0  0
 10 28  1  0  0  0  0
 10 29  1  0  0  0  0
 11 12  1  0  0  0  0
 11 30  1  0  0  0  0
 11 31  1  0  0  0  0
 12 16  1  0  0  0  0
 12 13  1  0  0  0  0
 13 14  2  0  0  0  0
 13 32  1  0  0  0  0
 14 15  1  0  0  0  0
 14 33  1  0  0  0  0
 15 16  2  0  0  0  0
 16 34  1  0  0  0  0
 17 18  1  0  0  0  0
 17 19  1  0  0  0  0
 17 35  1  0  0  0  0
 18 36  1  0  0  0  0
 18 37  1  0  0  0  0
 18 38  1  0  0  0  0
 19 39  1  0  0  0  0
 19 40  1  0  0  0  0
 19 41  1  0  0  0  0
M  END
> <s_m_source_file>
AV-unprocessed.smi

> <i_m_source_file_index>
1648

> <i_lp_mmshare_version>
43012

> <i_f3d_flags>
0

> <s_epik_input>
W0NIM11DKD1PKVtOSF1bQ0BASF0oW0NIXShbQ0gzXSlbQ0gzXSlDKD1PKVtOSF1bQ0BIXShbQ0gzXSlbQ0gyXW4xW2NIXVtjSF1uW2NIXTE=

> <s_epik_cmdline>
J2VwaWtfcHl0aG9uJywgJy1waCcsICc3LjAnLCAnLXRuJywgJzgnLCAnLW1hJywgJzIwMCcsICctbWV0YWxfYmluZGluZycsICctaW1hZScsICc8aW5maWxlLm1hZT4nLCAnLW9tYWUnLCAnPG91dGZpbGUubWFlPic=

> <r_lp_tautomer_probability>
1

> <r_epik_Ionization_Penalty>
0.628885

> <r_epik_Ionization_Penalty_Charging>
0.628884

> <r_epik_Ionization_Penalty_Neutral>
4.35155e-07

> <r_epik_State_Penalty>
0.64556

> <r_epik_Charging_Adjusted_Penalty>
1.27444

> <i_epik_Tot_Q>
0

> <i_epik_Tot_abs_Q>
0

> <r_epik_Metal_State_Penalty>
0.30874

> <b_epik_Metal_Only>
0

> <s_lp_Force_Field>
OPLS_2005

> <r_lp_Energy>
10.0668

> <b_lp_Chiralities_Consistent>
1

> <s_lp_Variant>
AV-unprocessed.smi:1648-5

> <Gold.Version>
5.8.1

> <Gold.Id.Protein>
6NUR|6NUR_protein|mol2

> <Gold.PLP.Fitness>
49.2859

> <Gold.PLP.PLP>
-43.9545

> <Gold.PLP.part.hbond>
-3.0934

> <Gold.PLP.part.metal>
0.0000

> <Gold.PLP.part.buried>
-7.4438

> <Gold.PLP.part.nonpolar>
-34.3065

> <Gold.PLP.part.repulsive>
0.4569

> <Gold.PLP.ligand.clash>
0.0000

> <Gold.PLP.ligand.torsion>
0.3738

> <Gold.PLP.Chemscore.Hbond>
2.0000

> <Gold.PLP.Chemscore.CHOScore>
0.0000

> <Gold.PLP.Chemscore.Metal>
0.0000

> <Gold.Chemscore.Hbonds>
donor molecule, donor type, donor heavy atom, donor atom, acceptor molecule, acceptor atom, score
      P1  H  7989  7998       L1     3  1.00
      P1  H  7997  8010       L1     7  0.98

> <Gold.PLP.Chemscore.Internal.Correction>
0.0791

> <Gold.Rescore>
     Score         DG    S(hbond)    S(metal)    S(lipo)     H(rot)  DE(clash)    DE(int)     intcor
     13.32     -15.03       1.99        0.00      80.03       2.52       0.04       1.67       ----

> <Gold.Chemscore.Fitness>
13.3211

> <Gold.Chemscore.DG>
-15.0344

> <Gold.Chemscore.ZeroCoef>
-5.4800

> <Gold.Chemscore.Hbond>
1.9899

> <Gold.Chemscore.Metal>
0.0000

> <Gold.Chemscore.Lipo>
80.0288

> <Gold.Chemscore.Internal_Hbond>
0.0000

> <Gold.Chemscore.DEClash>
0.0419

> <Gold.Chemscore.DEInternal>
1.6715

> <Gold.Chemscore.Rot>
2.5216

> <Gold.Chemscore.Internal.Correction>
   9.000000E+99

> <Gold.Chemscore.Hbonds>
donor molecule, donor type, donor heavy atom, donor atom, acceptor molecule, acceptor atom, score
      P1  H  7989  7998       L1     3  0.98
      P1  H  7997  8010       L1     7  0.92

> <Gold.Chemscore.Hbond.Weighted>
-6.6464

> <Gold.Chemscore.Metal.Weighted>
-0.0000

> <Gold.Chemscore.Lipo.Weighted>
-9.3634

> <Gold.Chemscore.Internal_Hbond.Weighted>
0.0000

> <Gold.Chemscore.DEClash.Weighted>
0.0419

> <Gold.Chemscore.DEInternal.Weighted>
1.6715

> <Gold.Chemscore.Rot.Weighted>
6.4553

> <Gold.Chemscore.Internal.Correction.Weighted>
   9.000000E+99

> <Gold.Protein.RotatedTorsions>
[ 6907 6896 6895 6894 ] final  -15.45 input  -60.11 | X-H torsion
[ 7974 7965 7964 7962 ] final   12.34 input  175.53 | X-H torsion
[ 8008 7997 7996 7995 ] final   18.13 input   59.86 | X-H torsion
[ 10167 10162 10161 10158 ] final -147.54 input  -65.29 | X-H torsion
[ 10718 10713 10712 10709 ] final  -31.21 input   66.30 | X-H torsion
[ 10763 10752 10751 10750 ] final   78.23 input  -60.55 | X-H torsion
[ 11005 11000 10999 10996 ] final   60.58 input  -57.11 | X-H torsion

> <Gold.Protein.ActiveResidues>
 VAL166  LYS551  ARG553  GLY616  TRP617  ASP618  TYR619  PRO620  LYS621  CYS622 
 ASP623  PHE694  ASN695  SER759  ASP760  ASP761  ALA762  ILE779  LEU786  VAL792 
 PHE793  MET794  SER795  GLU796  ALA797  LYS798  CYS799  TRP800  GLU811  SER814 

> <Gold.Protein.RotatedAtoms>
  151.3237  135.0825  159.9314 H   0  0  0  0  0  0  0  0  0  0  0  0  # atno 6907 bound_to 6896
  152.5251  133.9613  159.7728 H   0  0  0  0  0  0  0  0  0  0  0  0  # atno 6908 bound_to 6896
  150.9938  133.6070  159.2734 H   0  0  0  0  0  0  0  0  0  0  0  0  # atno 6909 bound_to 6896
  146.2353  139.9352  142.8491 H   0  0  0  0  0  0  0  0  0  0  0  0  # atno 7974 bound_to 7965
  154.9014  140.3001  155.5315 H   0  0  0  0  0  0  0  0  0  0  0  0  # atno 8008 bound_to 7997
  156.3018  140.2406  156.3978 H   0  0  0  0  0  0  0  0  0  0  0  0  # atno 8009 bound_to 7997
  154.8517  140.0409  157.1597 H   0  0  0  0  0  0  0  0  0  0  0  0  # atno 8010 bound_to 7997
  139.7613  143.8373  152.2607 H   0  0  0  0  0  0  0  0  0  0  0  0  # atno 10167 bound_to 10162
  156.3902  130.4371  149.7401 H   0  0  0  0  0  0  0  0  0  0  0  0  # atno 10718 bound_to 10713
  153.0859  135.4884  154.8595 H   0  0  0  0  0  0  0  0  0  0  0  0  # atno 10763 bound_to 10752
  154.7209  135.3039  154.9051 H   0  0  0  0  0  0  0  0  0  0  0  0  # atno 10764 bound_to 10752
  153.9715  135.6800  153.4800 H   0  0  0  0  0  0  0  0  0  0  0  0  # atno 10765 bound_to 10752
  140.0222  134.6136  155.9624 H   0  0  0  0  0  0  0  0  0  0  0  0  # atno 11005 bound_to 11000
  145.2006  140.9852  143.4158 LP  0  0  0  0  0  0  0  0  0  0  0  0  # atno 17320 bound_to 7965
  144.9777  139.3815  143.6277 LP  0  0  0  0  0  0  0  0  0  0  0  0  # atno 17321 bound_to 7965
  139.8380  144.7223  150.9367 LP  0  0  0  0  0  0  0  0  0  0  0  0  # atno 17342 bound_to 10162
  140.7807  143.4009  151.1150 LP  0  0  0  0  0  0  0  0  0  0  0  0  # atno 17343 bound_to 10162
  156.4457  130.7882  151.2904 LP  0  0  0  0  0  0  0  0  0  0  0  0  # atno 17370 bound_to 10713
  157.7498  131.0111  150.3332 LP  0  0  0  0  0  0  0  0  0  0  0  0  # atno 17371 bound_to 10713
  141.1780  133.6542  156.4907 LP  0  0  0  0  0  0  0  0  0  0  0  0  # atno 17394 bound_to 11000
  140.4368  134.7052  157.4971 LP  0  0  0  0  0  0  0  0  0  0  0  0  # atno 17395 bound_to 11000

$$$$
