AV-unprocessed.smi:1419|AV-procd|sdf|5774|dock10
  -GOLD-   22720 5423D 1   1.00000     0.00000
 Structure written by MMmdl.
 42 43  0  0  0  0  0  0  0  0  2 V2000
  151.2613  139.9274  155.1568 C   0  0  0  0  0  0  0  0  0  0  0  0
  150.2852  140.8428  155.9074 C   0  0  2  0  0  0  0  0  0  0  0  0
  149.4035  141.6479  154.9276 C   0  0  0  0  0  0  0  0  0  0  0  0
  148.3174  140.8515  154.3458 N   0  0  0  0  0  0  0  0  0  0  0  0
  148.1998  139.4849  154.3388 C   0  0  0  0  0  0  0  0  0  0  0  0
  147.0402  139.1961  153.6666 C   0  0  0  0  0  0  0  0  0  0  0  0
  146.4963  140.3976  153.2984 N   0  3  0  0  0  0  0  0  0  0  0  0
  147.2718  141.4031  153.7170 C   0  0  0  0  0  0  0  0  0  0  0  0
  151.0462  141.7410  156.7745 N   0  0  0  0  0  0  0  0  0  0  0  0
  151.9762  141.3705  157.6725 C   0  0  0  0  0  0  0  0  0  0  0  0
  152.3467  140.2016  157.7900 O   0  0  0  0  0  0  0  0  0  0  0  0
  152.4637  142.3826  158.4309 N   0  0  0  0  0  0  0  0  0  0  0  0
  151.9262  143.7472  158.5129 C   0  0  0  0  0  0  0  0  0  0  0  0
  151.1329  143.8650  159.8299 C   0  0  2  0  0  0  0  0  0  0  0  0
  150.5619  145.2710  160.0406 C   0  0  0  0  0  0  0  0  0  0  0  0
  151.9996  143.5657  160.9244 O   0  0  0  0  0  0  0  0  0  0  0  0
  152.5963  142.2700  160.8570 C   0  0  2  0  0  0  0  0  0  0  0  0
  153.4867  142.0866  162.0901 C   0  0  0  0  0  0  0  0  0  0  0  0
  153.3903  142.1496  159.5402 C   0  0  0  0  0  0  0  0  0  0  0  0
  150.7271  139.2306  154.5100 H   0  0  0  0  0  0  0  0  0  0  0  0
  151.8589  139.3365  155.8517 H   0  0  0  0  0  0  0  0  0  0  0  0
  151.9465  140.5019  154.5324 H   0  0  0  0  0  0  0  0  0  0  0  0
  149.6435  140.1994  156.5121 H   0  0  0  0  0  0  0  0  0  0  0  0
  148.9598  142.5103  155.4271 H   0  0  0  0  0  0  0  0  0  0  0  0
  150.0036  142.0345  154.1026 H   0  0  0  0  0  0  0  0  0  0  0  0
  148.9349  138.8362  154.7926 H   0  0  0  0  0  0  0  0  0  0  0  0
  146.5742  138.2512  153.4282 H   0  0  0  0  0  0  0  0  0  0  0  0
  147.0950  142.4530  153.5643 H   0  0  0  0  0  0  0  0  0  0  0  0
  150.8148  142.7225  156.7216 H   0  0  0  0  0  0  0  0  0  0  0  0
  152.7519  144.4605  158.5052 H   0  0  0  0  0  0  0  0  0  0  0  0
  151.2952  144.0244  157.6684 H   0  0  0  0  0  0  0  0  0  0  0  0
  150.3076  143.1508  159.8267 H   0  0  0  0  0  0  0  0  0  0  0  0
  149.8775  145.5417  159.2363 H   0  0  0  0  0  0  0  0  0  0  0  0
  151.3553  146.0184  160.0716 H   0  0  0  0  0  0  0  0  0  0  0  0
  150.0112  145.3316  160.9795 H   0  0  0  0  0  0  0  0  0  0  0  0
  151.8076  141.5156  160.8811 H   0  0  0  0  0  0  0  0  0  0  0  0
  153.9526  141.1010  162.0949 H   0  0  0  0  0  0  0  0  0  0  0  0
  152.9059  142.1838  163.0076 H   0  0  0  0  0  0  0  0  0  0  0  0
  154.2811  142.8329  162.1180 H   0  0  0  0  0  0  0  0  0  0  0  0
  153.8809  141.1768  159.4793 H   0  0  0  0  0  0  0  0  0  0  0  0
  154.1911  142.8898  159.5092 H   0  0  0  0  0  0  0  0  0  0  0  0
  145.6339  140.5118  152.7809 H   0  0  0  0  0  0  0  0  0  0  0  0
  1  2  1  0  0  0  0
  1 20  1  0  0  0  0
  1 21  1  0  0  0  0
  1 22  1  0  0  0  0
  2  3  1  0  0  0  0
  2  9  1  0  0  0  0
  2 23  1  0  0  0  0
  3  4  1  0  0  0  0
  3 24  1  0  0  0  0
  3 25  1  0  0  0  0
  4  8  1  0  0  0  0
  4  5  1  0  0  0  0
  5  6  2  0  0  0  0
  5 26  1  0  0  0  0
  6  7  1  0  0  0  0
  6 27  1  0  0  0  0
  7  8  2  0  0  0  0
  7 42  1  0  0  0  0
  8 28  1  0  0  0  0
  9 10  1  0  0  0  0
  9 29  1  0  0  0  0
 10 11  2  0  0  0  0
 10 12  1  0  0  0  0
 12 19  1  0  0  0  0
 12 13  1  0  0  0  0
 13 14  1  0  0  0  0
 13 30  1  0  0  0  0
 13 31  1  0  0  0  0
 14 15  1  0  0  0  0
 14 16  1  0  0  0  0
 14 32  1  0  0  0  0
 15 33  1  0  0  0  0
 15 34  1  0  0  0  0
 15 35  1  0  0  0  0
 16 17  1  0  0  0  0
 17 18  1  0  0  0  0
 17 19  1  0  0  0  0
 17 36  1  0  0  0  0
 18 37  1  0  0  0  0
 18 38  1  0  0  0  0
 18 39  1  0  0  0  0
 19 40  1  0  0  0  0
 19 41  1  0  0  0  0
M  CHG  1   7   1
M  END
> <s_m_source_file>
AV-unprocessed.smi

> <i_m_source_file_index>
1419

> <i_lp_mmshare_version>
43012

> <i_f3d_flags>
0

> <s_epik_input>
W2NIXTFuW2NIXVtjSF1uMVtDSDJdW0NAQEhdKFtDSDNdKVtOSF1DKD1PKU4yW0NIMl1bQ0BASF0oW0NIM10pT1tDQEBIXShbQ0gzXSlbQ0gyXTI=

> <s_epik_cmdline>
J2VwaWtfcHl0aG9uJywgJy1waCcsICc3LjAnLCAnLXRuJywgJzgnLCAnLW1hJywgJzIwMCcsICctbWV0YWxfYmluZGluZycsICctaW1hZScsICc8aW5maWxlLm1hZT4nLCAnLW9tYWUnLCAnPG91dGZpbGUubWFlPic=

> <r_lp_tautomer_probability>
1

> <r_epik_Ionization_Penalty>
0.253607

> <r_epik_Ionization_Penalty_Charging>
0

> <r_epik_Ionization_Penalty_Neutral>
0.253607

> <r_epik_State_Penalty>
0.245018

> <r_epik_Charging_Adjusted_Penalty>
0.245018

> <i_epik_Tot_Q>
1

> <i_epik_Tot_abs_Q>
1

> <r_epik_Metal_State_Penalty>
0.535379

> <b_epik_Metal_Only>
0

> <s_lp_Force_Field>
OPLS_2005

> <r_lp_Energy>
29.0063

> <b_lp_Chiralities_Consistent>
1

> <s_lp_Variant>
AV-unprocessed.smi:1419-1

> <Gold.Version>
5.8.1

> <Gold.Id.Protein>
6NUR|6NUR_protein|mol2

> <Gold.PLP.Fitness>
47.2645

> <Gold.PLP.PLP>
-41.3196

> <Gold.PLP.part.hbond>
-1.2471

> <Gold.PLP.part.metal>
0.0000

> <Gold.PLP.part.buried>
-4.5226

> <Gold.PLP.part.nonpolar>
-35.5397

> <Gold.PLP.part.repulsive>
0.2022

> <Gold.PLP.ligand.clash>
0.0000

> <Gold.PLP.ligand.torsion>
0.4271

> <Gold.PLP.Chemscore.Hbond>
2.2437

> <Gold.PLP.Chemscore.CHOScore>
0.0000

> <Gold.PLP.Chemscore.Metal>
0.0000

> <Gold.Chemscore.Hbonds>
donor molecule, donor type, donor heavy atom, donor atom, acceptor molecule, acceptor atom, score
      L1  H     7    42       P1 10175  2.00
      P1  H  7997  8009       L1    11  0.29

> <Gold.PLP.Chemscore.Internal.Correction>
0.0679

> <Gold.Rescore>
     Score         DG    S(hbond)    S(metal)    S(lipo)     H(rot)  DE(clash)    DE(int)     intcor
     13.47     -15.35       0.99        0.00      91.63       1.63       0.23       1.65       ----

> <Gold.Chemscore.Fitness>
13.4686

> <Gold.Chemscore.DG>
-15.3499

> <Gold.Chemscore.ZeroCoef>
-5.4800

> <Gold.Chemscore.Hbond>
0.9927

> <Gold.Chemscore.Metal>
0.0000

> <Gold.Chemscore.Lipo>
91.6254

> <Gold.Chemscore.Internal_Hbond>
0.0000

> <Gold.Chemscore.DEClash>
0.2286

> <Gold.Chemscore.DEInternal>
1.6526

> <Gold.Chemscore.Rot>
1.6273

> <Gold.Chemscore.Internal.Correction>
   9.000000E+99

> <Gold.Chemscore.Hbonds>
donor molecule, donor type, donor heavy atom, donor atom, acceptor molecule, acceptor atom, score
      L1  H     7    42       P1 10175  0.68
      P1  H  7997  8009       L1    11  0.16

> <Gold.Chemscore.Hbond.Weighted>
-3.3155

> <Gold.Chemscore.Metal.Weighted>
-0.0000

> <Gold.Chemscore.Lipo.Weighted>
-10.7202

> <Gold.Chemscore.Internal_Hbond.Weighted>
0.0000

> <Gold.Chemscore.DEClash.Weighted>
0.2286

> <Gold.Chemscore.DEInternal.Weighted>
1.6526

> <Gold.Chemscore.Rot.Weighted>
4.1658

> <Gold.Chemscore.Internal.Correction.Weighted>
   9.000000E+99

> <Gold.Protein.RotatedTorsions>
[ 6907 6896 6895 6894 ] final  -53.89 input  -60.11 | X-H torsion
[ 7974 7965 7964 7962 ] final  -24.57 input  175.53 | X-H torsion
[ 8008 7997 7996 7995 ] final  173.53 input   59.86 | X-H torsion
[ 10167 10162 10161 10158 ] final   95.44 input  -65.29 | X-H torsion
[ 10718 10713 10712 10709 ] final  -29.39 input   66.30 | X-H torsion
[ 10763 10752 10751 10750 ] final  123.09 input  -60.55 | X-H torsion
[ 11005 11000 10999 10996 ] final   52.84 input  -57.11 | X-H torsion

> <Gold.Protein.ActiveResidues>
 VAL166  LYS551  ARG553  GLY616  TRP617  ASP618  TYR619  PRO620  LYS621  CYS622 
 ASP623  PHE694  ASN695  SER759  ASP760  ASP761  ALA762  ILE779  LEU786  VAL792 
 PHE793  MET794  SER795  GLU796  ALA797  LYS798  CYS799  TRP800  GLU811  SER814 

> <Gold.Protein.RotatedAtoms>
  150.8386  134.7669  159.6913 H   0  0  0  0  0  0  0  0  0  0  0  0  # atno 6907 bound_to 6896
  152.4478  134.5455  159.9861 H   0  0  0  0  0  0  0  0  0  0  0  0  # atno 6908 bound_to 6896
  151.5600  133.3367  159.3005 H   0  0  0  0  0  0  0  0  0  0  0  0  # atno 6909 bound_to 6896
  146.1546  140.4770  142.8597 H   0  0  0  0  0  0  0  0  0  0  0  0  # atno 7974 bound_to 7965
  156.1066  140.1457  156.9396 H   0  0  0  0  0  0  0  0  0  0  0  0  # atno 8008 bound_to 7997
  154.4738  140.0901  156.7255 H   0  0  0  0  0  0  0  0  0  0  0  0  # atno 8009 bound_to 7997
  155.4669  140.3440  155.4322 H   0  0  0  0  0  0  0  0  0  0  0  0  # atno 8010 bound_to 7997
  139.7988  144.6822  150.9792 H   0  0  0  0  0  0  0  0  0  0  0  0  # atno 10167 bound_to 10162
  156.4131  130.4412  149.7238 H   0  0  0  0  0  0  0  0  0  0  0  0  # atno 10718 bound_to 10713
  153.6401  135.3381  155.3068 H   0  0  0  0  0  0  0  0  0  0  0  0  # atno 10763 bound_to 10752
  154.8561  135.4316  154.2014 H   0  0  0  0  0  0  0  0  0  0  0  0  # atno 10764 bound_to 10752
  153.2931  135.7018  153.7348 H   0  0  0  0  0  0  0  0  0  0  0  0  # atno 10765 bound_to 10752
  140.0816  134.5331  155.8941 H   0  0  0  0  0  0  0  0  0  0  0  0  # atno 11005 bound_to 11000
  144.7947  140.6099  143.6518 LP  0  0  0  0  0  0  0  0  0  0  0  0  # atno 17320 bound_to 7965
  145.4740  139.1501  143.3798 LP  0  0  0  0  0  0  0  0  0  0  0  0  # atno 17321 bound_to 7965
  140.7820  143.4303  151.0705 LP  0  0  0  0  0  0  0  0  0  0  0  0  # atno 17342 bound_to 10162
  139.7976  143.8129  152.3159 LP  0  0  0  0  0  0  0  0  0  0  0  0  # atno 17343 bound_to 10162
  156.4208  130.7768  151.2785 LP  0  0  0  0  0  0  0  0  0  0  0  0  # atno 17370 bound_to 10713
  157.7507  131.0183  150.3621 LP  0  0  0  0  0  0  0  0  0  0  0  0  # atno 17371 bound_to 10713
  141.2048  133.6642  156.6145 LP  0  0  0  0  0  0  0  0  0  0  0  0  # atno 17394 bound_to 11000
  140.3480  134.7793  157.4446 LP  0  0  0  0  0  0  0  0  0  0  0  0  # atno 17395 bound_to 11000

$$$$
