AV-unprocessed.smi:670|AV-procd|sdf|3268|dock5
  -GOLD-   22720 0223D 1   1.00000     0.00000
 Structure written by MMmdl.
 44 45  0  0  0  0  0  0  0  0  2 V2000
  145.9332  135.1437  151.4506 C   0  0  0  0  0  0  0  0  0  0  0  0
  145.7743  133.7122  151.9875 C   0  0  1  0  0  0  0  0  0  0  0  0
  145.0739  132.8134  150.9478 C   0  0  0  0  0  0  0  0  0  0  0  0
  144.9059  131.3740  151.4583 C   0  0  0  0  0  0  0  0  0  0  0  0
  146.2588  130.7735  151.8636 C   0  0  0  0  0  0  0  0  0  0  0  0
  146.9567  131.6565  152.9064 C   0  0  0  0  0  0  0  0  0  0  0  0
  147.1322  133.1052  152.4065 C   0  0  2  0  0  0  0  0  0  0  0  0
  147.6582  133.8852  153.4710 O   0  0  0  0  0  0  0  0  0  0  0  0
  149.0247  133.6321  153.7649 C   0  0  0  0  0  0  0  0  0  0  0  0
  149.4497  134.5371  154.9249 C   0  0  0  0  0  0  0  0  0  0  0  0
  149.8445  135.8396  154.4045 N   0  0  0  0  0  0  0  0  0  0  0  0
  150.8599  136.6007  154.8429 C   0  0  0  0  0  0  0  0  0  0  0  0
  151.6270  136.2467  155.7381 O   0  0  0  0  0  0  0  0  0  0  0  0
  151.0456  137.9841  154.1951 C   0  0  0  0  0  0  0  0  0  0  0  0
  151.0490  139.1120  155.1424 N   0  0  0  0  0  0  0  0  0  0  0  0
  152.0597  139.0042  156.1909 N   0  5  0  0  0  0  0  0  0  0  0  0
  152.1671  139.9978  157.1125 C   0  0  0  0  0  0  0  0  0  0  0  0
  153.0059  139.9864  158.0100 O   0  0  0  0  0  0  0  0  0  0  0  0
  151.2437  141.1167  157.0236 C   0  0  0  0  0  0  0  0  0  0  0  0
  150.3169  141.1877  156.0480 C   0  0  0  0  0  0  0  0  0  0  0  0
  150.1842  140.1599  155.0228 C   0  0  0  0  0  0  0  0  0  0  0  0
  149.3580  140.2329  154.1133 O   0  0  0  0  0  0  0  0  0  0  0  0
  146.5761  135.1676  150.5701 H   0  0  0  0  0  0  0  0  0  0  0  0
  146.3721  135.8020  152.2008 H   0  0  0  0  0  0  0  0  0  0  0  0
  144.9681  135.5663  151.1702 H   0  0  0  0  0  0  0  0  0  0  0  0
  145.1366  133.7584  152.8719 H   0  0  0  0  0  0  0  0  0  0  0  0
  144.0958  133.2256  150.6969 H   0  0  0  0  0  0  0  0  0  0  0  0
  145.6504  132.8031  150.0218 H   0  0  0  0  0  0  0  0  0  0  0  0
  144.2304  131.3649  152.3147 H   0  0  0  0  0  0  0  0  0  0  0  0
  144.4404  130.7569  150.6895 H   0  0  0  0  0  0  0  0  0  0  0  0
  146.1166  129.7692  152.2635 H   0  0  0  0  0  0  0  0  0  0  0  0
  146.8956  130.6716  150.9840 H   0  0  0  0  0  0  0  0  0  0  0  0
  146.3652  131.6672  153.8221 H   0  0  0  0  0  0  0  0  0  0  0  0
  147.9182  131.2159  153.1688 H   0  0  0  0  0  0  0  0  0  0  0  0
  147.8067  133.1267  151.5478 H   0  0  0  0  0  0  0  0  0  0  0  0
  149.1970  132.5896  154.0358 H   0  0  0  0  0  0  0  0  0  0  0  0
  149.6242  133.8368  152.8773 H   0  0  0  0  0  0  0  0  0  0  0  0
  148.6256  134.6279  155.6340 H   0  0  0  0  0  0  0  0  0  0  0  0
  150.2885  134.0975  155.4653 H   0  0  0  0  0  0  0  0  0  0  0  0
  149.2820  136.2138  153.6527 H   0  0  0  0  0  0  0  0  0  0  0  0
  151.9712  137.9800  153.6171 H   0  0  0  0  0  0  0  0  0  0  0  0
  150.2495  138.1182  153.4609 H   0  0  0  0  0  0  0  0  0  0  0  0
  151.3032  141.9091  157.7548 H   0  0  0  0  0  0  0  0  0  0  0  0
  149.6540  142.0394  156.0184 H   0  0  0  0  0  0  0  0  0  0  0  0
  1  2  1  0  0  0  0
  1 23  1  0  0  0  0
  1 24  1  0  0  0  0
  1 25  1  0  0  0  0
  2  7  1  0  0  0  0
  2  3  1  0  0  0  0
  2 26  1  0  0  0  0
  3  4  1  0  0  0  0
  3 27  1  0  0  0  0
  3 28  1  0  0  0  0
  4  5  1  0  0  0  0
  4 29  1  0  0  0  0
  4 30  1  0  0  0  0
  5  6  1  0  0  0  0
  5 31  1  0  0  0  0
  5 32  1  0  0  0  0
  6  7  1  0  0  0  0
  6 33  1  0  0  0  0
  6 34  1  0  0  0  0
  7  8  1  0  0  0  0
  7 35  1  0  0  0  0
  8  9  1  0  0  0  0
  9 10  1  0  0  0  0
  9 36  1  0  0  0  0
  9 37  1  0  0  0  0
 10 11  1  0  0  0  0
 10 38  1  0  0  0  0
 10 39  1  0  0  0  0
 11 12  1  0  0  0  0
 11 40  1  0  0  0  0
 12 13  2  0  0  0  0
 12 14  1  0  0  0  0
 14 41  1  0  0  0  0
 14 42  1  0  0  0  0
 14 15  1  0  0  0  0
 15 16  1  0  0  0  0
 15 21  1  0  0  0  0
 16 17  1  0  0  0  0
 17 18  2  0  0  0  0
 17 19  1  0  0  0  0
 19 43  1  0  0  0  0
 19 20  2  0  0  0  0
 20 44  1  0  0  0  0
 20 21  1  0  0  0  0
 21 22  2  0  0  0  0
M  CHG  1  16  -1
M  END
> <s_m_source_file>
AV-unprocessed.smi

> <i_m_source_file_index>
670

> <i_lp_mmshare_version>
43012

> <i_f3d_flags>
0

> <s_epik_input>
W0NIM11bQ0BASF0xW0NIMl1bQ0gyXVtDSDJdW0NIMl1bQ0BIXTFPW0NIMl1bQ0gyXVtOSF1DKD1PKVtDSDJdbjJbbkhdYyg9TylbY0hdW2NIXWMyPU8=

> <s_epik_cmdline>
J2VwaWtfcHl0aG9uJywgJy1waCcsICc3LjAnLCAnLXRuJywgJzgnLCAnLW1hJywgJzIwMCcsICctbWV0YWxfYmluZGluZycsICctaW1hZScsICc8aW5maWxlLm1hZT4nLCAnLW9tYWUnLCAnPG91dGZpbGUubWFlPic=

> <r_lp_tautomer_probability>
1

> <r_epik_Ionization_Penalty>
0.0975638

> <r_epik_Ionization_Penalty_Charging>
0.0975637

> <r_epik_Ionization_Penalty_Neutral>
2.78599e-08

> <r_epik_State_Penalty>
0.0343507

> <r_epik_Charging_Adjusted_Penalty>
0.131914

> <i_epik_Tot_Q>
-1

> <i_epik_Tot_abs_Q>
1

> <r_epik_Metal_State_Penalty>
0.0343507

> <b_epik_Metal_Only>
0

> <s_lp_Force_Field>
OPLS_2005

> <r_lp_Energy>
24.2447

> <b_lp_Chiralities_Consistent>
1

> <s_lp_Variant>
AV-unprocessed.smi:670-4

> <Gold.Version>
5.8.1

> <Gold.Id.Protein>
6NUR|6NUR_protein|mol2

> <Gold.PLP.Fitness>
47.2853

> <Gold.PLP.PLP>
-39.2547

> <Gold.PLP.part.hbond>
-3.7664

> <Gold.PLP.part.metal>
0.0000

> <Gold.PLP.part.buried>
-2.4454

> <Gold.PLP.part.nonpolar>
-32.9451

> <Gold.PLP.part.repulsive>
1.4903

> <Gold.PLP.ligand.clash>
0.0000

> <Gold.PLP.ligand.torsion>
0.4102

> <Gold.PLP.Chemscore.Hbond>
2.9280

> <Gold.PLP.Chemscore.CHOScore>
0.0000

> <Gold.PLP.Chemscore.Metal>
0.0000

> <Gold.Chemscore.Hbonds>
donor molecule, donor type, donor heavy atom, donor atom, acceptor molecule, acceptor atom, score
      L1  H    11    40       P1  7948  0.90
      P1  H  7997  8010       L1    18  0.95
      P1  H 10752 10763       L1    13  1.00

> <Gold.PLP.Chemscore.Internal.Correction>
0.0669

> <Gold.Rescore>
     Score         DG    S(hbond)    S(metal)    S(lipo)     H(rot)  DE(clash)    DE(int)     intcor
     14.96     -16.88       2.53        0.00      78.71       2.45       0.18       1.74       ----

> <Gold.Chemscore.Fitness>
14.9554

> <Gold.Chemscore.DG>
-16.8759

> <Gold.Chemscore.ZeroCoef>
-5.4800

> <Gold.Chemscore.Hbond>
2.5317

> <Gold.Chemscore.Metal>
0.0000

> <Gold.Chemscore.Lipo>
78.7138

> <Gold.Chemscore.Internal_Hbond>
0.0000

> <Gold.Chemscore.DEClash>
0.1759

> <Gold.Chemscore.DEInternal>
1.7446

> <Gold.Chemscore.Rot>
2.4490

> <Gold.Chemscore.Internal.Correction>
   9.000000E+99

> <Gold.Chemscore.Hbonds>
donor molecule, donor type, donor heavy atom, donor atom, acceptor molecule, acceptor atom, score
      L1  H    11    40       P1  7948  0.75
      P1  H  7997  8010       L1    18  0.21
      P1  H 10752 10763       L1    13  0.50

> <Gold.Chemscore.Hbond.Weighted>
-8.4558

> <Gold.Chemscore.Metal.Weighted>
-0.0000

> <Gold.Chemscore.Lipo.Weighted>
-9.2095

> <Gold.Chemscore.Internal_Hbond.Weighted>
0.0000

> <Gold.Chemscore.DEClash.Weighted>
0.1759

> <Gold.Chemscore.DEInternal.Weighted>
1.7446

> <Gold.Chemscore.Rot.Weighted>
6.2694

> <Gold.Chemscore.Internal.Correction.Weighted>
   9.000000E+99

> <Gold.Protein.RotatedTorsions>
[ 6907 6896 6895 6894 ] final  137.35 input  -60.11 | X-H torsion
[ 7974 7965 7964 7962 ] final -127.92 input  175.53 | X-H torsion
[ 8008 7997 7996 7995 ] final   37.72 input   59.86 | X-H torsion
[ 10167 10162 10161 10158 ] final  143.29 input  -65.29 | X-H torsion
[ 10718 10713 10712 10709 ] final  -18.98 input   66.30 | X-H torsion
[ 10763 10752 10751 10750 ] final   77.32 input  -60.55 | X-H torsion
[ 11005 11000 10999 10996 ] final  160.70 input  -57.11 | X-H torsion

> <Gold.Protein.ActiveResidues>
 VAL166  LYS551  ARG553  GLY616  TRP617  ASP618  TYR619  PRO620  LYS621  CYS622 
 ASP623  PHE694  ASN695  SER759  ASP760  ASP761  ALA762  ILE779  LEU786  VAL792 
 PHE793  MET794  SER795  GLU796  ALA797  LYS798  CYS799  TRP800  GLU811  SER814 

> <Gold.Protein.RotatedAtoms>
  152.2790  133.5453  159.5485 H   0  0  0  0  0  0  0  0  0  0  0  0  # atno 6907 bound_to 6896
  150.7188  134.0590  159.3833 H   0  0  0  0  0  0  0  0  0  0  0  0  # atno 6908 bound_to 6896
  151.8502  135.0560  160.0509 H   0  0  0  0  0  0  0  0  0  0  0  0  # atno 6909 bound_to 6896
  144.9722  140.7557  143.4663 H   0  0  0  0  0  0  0  0  0  0  0  0  # atno 7974 bound_to 7965
  155.2084  140.3321  155.4332 H   0  0  0  0  0  0  0  0  0  0  0  0  # atno 8008 bound_to 7997
  156.2380  140.1881  156.7116 H   0  0  0  0  0  0  0  0  0  0  0  0  # atno 8009 bound_to 7997
  154.6094  140.0611  156.9460 H   0  0  0  0  0  0  0  0  0  0  0  0  # atno 8010 bound_to 7997
  139.4973  144.6050  151.6399 H   0  0  0  0  0  0  0  0  0  0  0  0  # atno 10167 bound_to 10162
  156.5521  130.4704  149.6447 H   0  0  0  0  0  0  0  0  0  0  0  0  # atno 10718 bound_to 10713
  153.0790  135.4918  154.8464 H   0  0  0  0  0  0  0  0  0  0  0  0  # atno 10763 bound_to 10752
  154.7126  135.3023  154.9176 H   0  0  0  0  0  0  0  0  0  0  0  0  # atno 10764 bound_to 10752
  153.9865  135.6783  153.4805 H   0  0  0  0  0  0  0  0  0  0  0  0  # atno 10765 bound_to 10752
  140.2085  134.8285  157.3095 H   0  0  0  0  0  0  0  0  0  0  0  0  # atno 11005 bound_to 11000
  145.2542  139.2019  143.4926 LP  0  0  0  0  0  0  0  0  0  0  0  0  # atno 17320 bound_to 7965
  146.3385  140.2461  142.8597 LP  0  0  0  0  0  0  0  0  0  0  0  0  # atno 17321 bound_to 7965
  140.5709  144.0110  150.6216 LP  0  0  0  0  0  0  0  0  0  0  0  0  # atno 17342 bound_to 10162
  140.3227  143.3127  152.0767 LP  0  0  0  0  0  0  0  0  0  0  0  0  # atno 17343 bound_to 10162
  156.2875  130.7106  151.1946 LP  0  0  0  0  0  0  0  0  0  0  0  0  # atno 17370 bound_to 10713
  157.7385  131.0539  150.5288 LP  0  0  0  0  0  0  0  0  0  0  0  0  # atno 17371 bound_to 10713
  140.1977  134.4293  155.7680 LP  0  0  0  0  0  0  0  0  0  0  0  0  # atno 17394 bound_to 11000
  141.2226  133.7057  156.8132 LP  0  0  0  0  0  0  0  0  0  0  0  0  # atno 17395 bound_to 11000

$$$$
