AV-unprocessed.smi:243|AV-procd|sdf|1854|dock6
  -GOLD-   2262020483D 1   1.00000     0.00000
 Structure written by MMmdl.
 58 61  0  0  0  0  0  0  0  0  2 V2000
  149.9017  141.9900  157.6007 C   0  0  0  0  0  0  0  0  0  0  0  0
  148.3956  142.0131  157.3028 C   0  0  0  0  0  0  0  0  0  0  0  0
  148.1009  142.1584  155.8518 N   0  3  2  0  0  0  0  0  0  0  0  0
  146.6491  142.2319  155.5481 C   0  0  0  0  0  0  0  0  0  0  0  0
  145.9724  140.8575  155.6745 C   0  0  0  0  0  0  0  0  0  0  0  0
  146.6585  139.8145  154.7679 C   0  0  2  0  0  0  0  0  0  0  0  0
  146.0191  138.4956  154.8806 N   0  0  0  0  0  0  0  0  0  0  0  0
  145.2943  138.1263  156.0945 C   0  0  0  0  0  0  0  0  0  0  0  0
  145.7651  137.7625  153.7611 C   0  0  0  0  0  0  0  0  0  0  0  0
  146.3475  138.1185  152.5844 N   0  0  0  0  0  0  0  0  0  0  0  0
  146.1082  137.4252  151.4680 C   0  0  0  0  0  0  0  0  0  0  0  0
  145.3333  136.3530  151.3033 N   0  0  0  0  0  0  0  0  0  0  0  0
  144.7537  135.9772  152.4785 C   0  0  0  0  0  0  0  0  0  0  0  0
  144.9101  136.6201  153.7404 C   0  0  0  0  0  0  0  0  0  0  0  0
  144.1673  135.9444  154.7027 N   0  0  0  0  0  0  0  0  0  0  0  0
  143.5983  134.9705  154.0475 C   0  0  0  0  0  0  0  0  0  0  0  0
  143.9041  134.9083  152.7072 N   0  0  0  0  0  0  0  0  0  0  0  0
  143.4177  133.9305  151.7454 C   0  0  0  0  0  0  0  0  0  0  0  0
  144.3604  133.7237  150.5358 C   0  0  2  0  0  0  0  0  0  0  0  0
  144.1423  134.7591  149.5933 O   0  0  0  0  0  0  0  0  0  0  0  0
  144.1392  132.3872  149.8384 C   0  0  0  0  0  0  0  0  0  0  0  0
  145.5129  132.0777  149.2595 C   0  0  0  0  0  0  0  0  0  0  0  0
  146.3912  132.5058  150.2861 O   0  0  0  0  0  0  0  0  0  0  0  0
  145.8639  133.6878  150.8819 C   0  0  0  0  0  0  0  0  0  0  0  0
  148.1814  139.7609  155.0487 C   0  0  1  0  0  0  0  0  0  0  0  0
  148.9127  138.8196  154.0754 C   0  0  0  0  0  0  0  0  0  0  0  0
  148.7910  141.1798  154.9682 C   0  0  0  0  0  0  0  0  0  0  0  0
  150.0779  141.9931  158.6767 H   0  0  0  0  0  0  0  0  0  0  0  0
  150.4005  142.8648  157.1830 H   0  0  0  0  0  0  0  0  0  0  0  0
  150.3859  141.1000  157.2000 H   0  0  0  0  0  0  0  0  0  0  0  0
  147.9138  141.1265  157.7144 H   0  0  0  0  0  0  0  0  0  0  0  0
  147.9685  142.8645  157.8341 H   0  0  0  0  0  0  0  0  0  0  0  0
  146.1621  142.9600  156.1976 H   0  0  0  0  0  0  0  0  0  0  0  0
  146.5264  142.6044  154.5302 H   0  0  0  0  0  0  0  0  0  0  0  0
  145.9922  140.5362  156.7158 H   0  0  0  0  0  0  0  0  0  0  0  0
  144.9194  140.9491  155.4072 H   0  0  0  0  0  0  0  0  0  0  0  0
  146.5620  140.1601  153.7378 H   0  0  0  0  0  0  0  0  0  0  0  0
  144.3083  137.7232  155.8602 H   0  0  0  0  0  0  0  0  0  0  0  0
  145.1463  138.9817  156.7524 H   0  0  0  0  0  0  0  0  0  0  0  0
  145.8525  137.3735  156.6515 H   0  0  0  0  0  0  0  0  0  0  0  0
  146.6097  137.7796  150.5795 H   0  0  0  0  0  0  0  0  0  0  0  0
  142.9384  134.2646  154.5305 H   0  0  0  0  0  0  0  0  0  0  0  0
  143.2693  132.9860  152.2705 H   0  0  0  0  0  0  0  0  0  0  0  0
  142.4311  134.2470  151.4037 H   0  0  0  0  0  0  0  0  0  0  0  0
  144.9034  134.8246  149.0372 H   0  0  0  0  0  0  0  0  0  0  0  0
  143.8805  131.6180  150.5673 H   0  0  0  0  0  0  0  0  0  0  0  0
  143.3499  132.4088  149.0856 H   0  0  0  0  0  0  0  0  0  0  0  0
  145.6471  131.0206  149.0292 H   0  0  0  0  0  0  0  0  0  0  0  0
  145.6968  132.6565  148.3530 H   0  0  0  0  0  0  0  0  0  0  0  0
  146.3954  134.5656  150.5104 H   0  0  0  0  0  0  0  0  0  0  0  0
  146.0411  133.6287  151.9552 H   0  0  0  0  0  0  0  0  0  0  0  0
  148.3490  139.3774  156.0547 H   0  0  0  0  0  0  0  0  0  0  0  0
  148.7744  139.1337  153.0404 H   0  0  0  0  0  0  0  0  0  0  0  0
  148.5531  137.7940  154.1615 H   0  0  0  0  0  0  0  0  0  0  0  0
  149.9838  138.8033  154.2776 H   0  0  0  0  0  0  0  0  0  0  0  0
  148.7142  141.5466  153.9435 H   0  0  0  0  0  0  0  0  0  0  0  0
  149.8574  141.1510  155.1895 H   0  0  0  0  0  0  0  0  0  0  0  0
  148.4705  143.0650  155.6034 H   0  0  0  0  0  0  0  0  0  0  0  0
  1  2  1  0  0  0  0
  1 28  1  0  0  0  0
  1 29  1  0  0  0  0
  1 30  1  0  0  0  0
  2  3  1  0  0  0  0
  2 31  1  0  0  0  0
  2 32  1  0  0  0  0
  3 27  1  0  0  0  0
  3  4  1  0  0  0  0
  3 58  1  0  0  0  0
  4  5  1  0  0  0  0
  4 33  1  0  0  0  0
  4 34  1  0  0  0  0
  5  6  1  0  0  0  0
  5 35  1  0  0  0  0
  5 36  1  0  0  0  0
  6  7  1  0  0  0  0
  6 25  1  0  0  0  0
  6 37  1  0  0  0  0
  7  8  1  0  0  0  0
  7  9  1  0  0  0  0
  8 38  1  0  0  0  0
  8 39  1  0  0  0  0
  8 40  1  0  0  0  0
  9 14  1  0  0  0  0
  9 10  2  0  0  0  0
 10 11  1  0  0  0  0
 11 12  2  0  0  0  0
 11 41  1  0  0  0  0
 12 13  1  0  0  0  0
 13 17  1  0  0  0  0
 13 14  2  0  0  0  0
 14 15  1  0  0  0  0
 15 16  2  0  0  0  0
 16 17  1  0  0  0  0
 16 42  1  0  0  0  0
 17 18  1  0  0  0  0
 18 19  1  0  0  0  0
 18 43  1  0  0  0  0
 18 44  1  0  0  0  0
 19 24  1  0  0  0  0
 19 20  1  0  0  0  0
 19 21  1  0  0  0  0
 20 45  1  0  0  0  0
 21 22  1  0  0  0  0
 21 46  1  0  0  0  0
 21 47  1  0  0  0  0
 22 23  1  0  0  0  0
 22 48  1  0  0  0  0
 22 49  1  0  0  0  0
 23 24  1  0  0  0  0
 24 50  1  0  0  0  0
 24 51  1  0  0  0  0
 25 26  1  0  0  0  0
 25 27  1  0  0  0  0
 25 52  1  0  0  0  0
 26 53  1  0  0  0  0
 26 54  1  0  0  0  0
 26 55  1  0  0  0  0
 27 56  1  0  0  0  0
 27 57  1  0  0  0  0
M  CHG  1   3   1
M  END
> <s_m_source_file>
AV-unprocessed.smi

> <i_m_source_file_index>
243

> <i_lp_mmshare_version>
43012

> <i_f3d_flags>
0

> <s_epik_input>
W0NIM11bQ0gyXU4xW0NIMl1bQ0gyXVtDQEhdKFtDQEBIXShbQ0gzXSlbQ0gyXTEpTihbQ0gzXSljKG5bY0hdbjIpYyhjMjMpbltjSF1uM1tDSDJdW0NAQF00KFtPSF0pW0NIMl1bQ0gyXU9bQ0gyXTQ=

> <s_epik_cmdline>
J2VwaWtfcHl0aG9uJywgJy1waCcsICc3LjAnLCAnLXRuJywgJzgnLCAnLW1hJywgJzIwMCcsICctbWV0YWxfYmluZGluZycsICctaW1hZScsICc8aW5maWxlLm1hZT4nLCAnLW9tYWUnLCAnPG91dGZpbGUubWFlPic=

> <r_lp_tautomer_probability>
1

> <r_epik_Ionization_Penalty>
0.00253099

> <r_epik_Ionization_Penalty_Charging>
0.00137877

> <r_epik_Ionization_Penalty_Neutral>
0.00115221

> <r_epik_State_Penalty>
-0

> <r_epik_Charging_Adjusted_Penalty>
0.00137877

> <i_epik_Tot_Q>
1

> <i_epik_Tot_abs_Q>
1

> <r_epik_Metal_State_Penalty>
-0

> <b_epik_Metal_Only>
0

> <s_lp_Force_Field>
OPLS_2005

> <r_lp_Energy>
46.0239

> <b_lp_Chiralities_Consistent>
1

> <s_lp_Variant>
AV-unprocessed.smi:243-7

> <Gold.Version>
5.8.1

> <Gold.Id.Protein>
6NUR|6NUR_protein|mol2

> <Gold.PLP.Fitness>
43.9408

> <Gold.PLP.PLP>
-34.0376

> <Gold.PLP.part.hbond>
-2.5513

> <Gold.PLP.part.metal>
0.0000

> <Gold.PLP.part.buried>
-4.7996

> <Gold.PLP.part.nonpolar>
-28.3059

> <Gold.PLP.part.repulsive>
1.7716

> <Gold.PLP.ligand.clash>
0.0009

> <Gold.PLP.ligand.torsion>
1.2949

> <Gold.PLP.Chemscore.Hbond>
3.0000

> <Gold.PLP.Chemscore.CHOScore>
1.0000

> <Gold.PLP.Chemscore.Metal>
0.0000

> <Gold.Chemscore.Hbonds>
donor molecule, donor type, donor heavy atom, donor atom, acceptor molecule, acceptor atom, score
      L1  H     3    58       P1  8028  2.00
      L1  H    20    45       P1  7921  1.00
      L1  C    16    42       P1 10957  1.00

> <Gold.PLP.Chemscore.Internal.Correction>
0.4939

> <Gold.Rescore>
     Score         DG    S(hbond)    S(metal)    S(lipo)     H(rot)  DE(clash)    DE(int)     intcor
     10.64     -14.95       1.95        0.00      74.34       2.24       0.81       3.50       ----

> <Gold.Chemscore.Fitness>
10.6405

> <Gold.Chemscore.DG>
-14.9531

> <Gold.Chemscore.ZeroCoef>
-5.4800

> <Gold.Chemscore.Hbond>
1.9474

> <Gold.Chemscore.Metal>
0.0000

> <Gold.Chemscore.Lipo>
74.3399

> <Gold.Chemscore.Internal_Hbond>
0.0000

> <Gold.Chemscore.DEClash>
0.8146

> <Gold.Chemscore.DEInternal>
3.4980

> <Gold.Chemscore.Rot>
2.2379

> <Gold.Chemscore.Internal.Correction>
   9.000000E+99

> <Gold.Chemscore.Hbonds>
donor molecule, donor type, donor heavy atom, donor atom, acceptor molecule, acceptor atom, score
      L1  H     3    58       P1  8028  0.99
      L1  H    20    45       P1  7921  1.00

> <Gold.Chemscore.Hbond.Weighted>
-6.5044

> <Gold.Chemscore.Metal.Weighted>
-0.0000

> <Gold.Chemscore.Lipo.Weighted>
-8.6978

> <Gold.Chemscore.Internal_Hbond.Weighted>
0.0000

> <Gold.Chemscore.DEClash.Weighted>
0.8146

> <Gold.Chemscore.DEInternal.Weighted>
3.4980

> <Gold.Chemscore.Rot.Weighted>
5.7291

> <Gold.Chemscore.Internal.Correction.Weighted>
   9.000000E+99

> <Gold.Protein.RotatedTorsions>
[ 6907 6896 6895 6894 ] final -121.92 input  -60.11 | X-H torsion
[ 7974 7965 7964 7962 ] final   63.90 input  175.53 | X-H torsion
[ 8008 7997 7996 7995 ] final  133.54 input   59.86 | X-H torsion
[ 10167 10162 10161 10158 ] final  -54.60 input  -65.29 | X-H torsion
[ 10718 10713 10712 10709 ] final  -59.14 input   66.30 | X-H torsion
[ 10763 10752 10751 10750 ] final -113.52 input  -60.55 | X-H torsion
[ 11005 11000 10999 10996 ] final -104.44 input  -57.11 | X-H torsion

> <Gold.Protein.ActiveResidues>
 VAL166  LYS551  ARG553  GLY616  TRP617  ASP618  TYR619  PRO620  LYS621  CYS622 
 ASP623  PHE694  ASN695  SER759  ASP760  ASP761  ALA762  ILE779  LEU786  VAL792 
 PHE793  MET794  SER795  GLU796  ALA797  LYS798  CYS799  TRP800  GLU811  SER814 

> <Gold.Protein.RotatedAtoms>
  150.8528  133.7761  159.3019 H   0  0  0  0  0  0  0  0  0  0  0  0  # atno 6907 bound_to 6896
  151.5427  135.1066  159.9940 H   0  0  0  0  0  0  0  0  0  0  0  0  # atno 6908 bound_to 6896
  152.4566  133.7693  159.6846 H   0  0  0  0  0  0  0  0  0  0  0  0  # atno 6909 bound_to 6896
  145.8564  139.3287  143.0845 H   0  0  0  0  0  0  0  0  0  0  0  0  # atno 7974 bound_to 7965
  156.2993  140.2519  156.3270 H   0  0  0  0  0  0  0  0  0  0  0  0  # atno 8008 bound_to 7997
  154.9181  140.0401  157.2002 H   0  0  0  0  0  0  0  0  0  0  0  0  # atno 8009 bound_to 7997
  154.8338  140.2880  155.5709 H   0  0  0  0  0  0  0  0  0  0  0  0  # atno 8010 bound_to 7997
  140.6421  143.2514  151.4960 H   0  0  0  0  0  0  0  0  0  0  0  0  # atno 10167 bound_to 10162
  156.1083  130.4178  150.0674 H   0  0  0  0  0  0  0  0  0  0  0  0  # atno 10718 bound_to 10713
  154.8400  135.4451  154.1362 H   0  0  0  0  0  0  0  0  0  0  0  0  # atno 10763 bound_to 10752
  153.2559  135.6931  153.7635 H   0  0  0  0  0  0  0  0  0  0  0  0  # atno 10764 bound_to 10752
  153.6930  135.3384  155.3182 H   0  0  0  0  0  0  0  0  0  0  0  0  # atno 10765 bound_to 10752
  141.1100  133.8723  157.1611 H   0  0  0  0  0  0  0  0  0  0  0  0  # atno 11005 bound_to 11000
  145.9298  140.9056  143.0362 LP  0  0  0  0  0  0  0  0  0  0  0  0  # atno 17320 bound_to 7965
  144.6727  140.1403  143.7437 LP  0  0  0  0  0  0  0  0  0  0  0  0  # atno 17321 bound_to 7965
  139.5631  144.2109  152.1722 LP  0  0  0  0  0  0  0  0  0  0  0  0  # atno 17342 bound_to 10162
  140.1382  144.5226  150.6760 LP  0  0  0  0  0  0  0  0  0  0  0  0  # atno 17343 bound_to 10162
  156.8644  130.9503  151.3615 LP  0  0  0  0  0  0  0  0  0  0  0  0  # atno 17370 bound_to 10713
  157.6262  130.8693  149.9194 LP  0  0  0  0  0  0  0  0  0  0  0  0  # atno 17371 bound_to 10713
  139.9989  135.0035  157.0146 LP  0  0  0  0  0  0  0  0  0  0  0  0  # atno 17394 bound_to 11000
  140.4800  134.1299  155.7215 LP  0  0  0  0  0  0  0  0  0  0  0  0  # atno 17395 bound_to 11000

$$$$
