AV-unprocessed.smi:3019|AV-procd|sdf|11492|dock3
  -GOLD-   2272016433D 1   1.00000     0.00000
 Structure written by MMmdl.
 30 31  0  0  0  0  0  0  0  0  1 V2000
  153.5546  141.6666  160.6693 C   0  0  0  0  0  0  0  0  0  0  0  0
  152.9777  143.0663  160.4106 C   0  0  0  0  0  0  0  0  0  0  0  0
  152.2047  143.6275  161.6130 C   0  0  0  0  0  0  0  0  0  0  0  0
  152.1563  143.1031  159.1586 C   0  0  0  0  0  0  0  0  0  0  0  0
  151.4282  144.1731  158.8410 N   0  0  0  0  0  0  0  0  0  0  0  0
  150.8663  143.7948  157.6738 N   0  0  0  0  0  0  0  0  0  0  0  0
  151.2703  142.5605  157.3664 C   0  0  0  0  0  0  0  0  0  0  0  0
  150.8267  141.8667  156.1174 C   0  0  1  0  0  0  0  0  0  0  0  0
  151.5147  140.5003  155.9303 C   0  0  0  0  0  0  0  0  0  0  0  0
  150.9832  139.8232  154.7483 N   0  0  0  0  0  0  0  0  0  0  0  0
  149.5277  139.7027  154.8190 C   0  0  0  0  0  0  0  0  0  0  0  0
  148.8857  141.0841  155.0397 C   0  0  0  0  0  0  0  0  0  0  0  0
  149.4183  141.6749  156.2203 O   0  0  0  0  0  0  0  0  0  0  0  0
  152.1014  142.0597  158.2754 N   0  0  0  0  0  0  0  0  0  0  0  0
  150.2395  144.3853  157.1460 H   0  0  0  0  0  0  0  0  0  0  0  0
  154.1538  141.3280  159.8234 H   0  0  0  0  0  0  0  0  0  0  0  0
  152.7627  140.9345  160.8306 H   0  0  0  0  0  0  0  0  0  0  0  0
  154.1951  141.6625  161.5515 H   0  0  0  0  0  0  0  0  0  0  0  0
  153.8319  143.7281  160.2576 H   0  0  0  0  0  0  0  0  0  0  0  0
  151.8681  144.6467  161.4211 H   0  0  0  0  0  0  0  0  0  0  0  0
  152.8292  143.6484  162.5064 H   0  0  0  0  0  0  0  0  0  0  0  0
  151.3252  143.0231  161.8370 H   0  0  0  0  0  0  0  0  0  0  0  0
  151.0425  142.5160  155.2663 H   0  0  0  0  0  0  0  0  0  0  0  0
  152.5926  140.6321  155.8337 H   0  0  0  0  0  0  0  0  0  0  0  0
  151.3520  139.8812  156.8136 H   0  0  0  0  0  0  0  0  0  0  0  0
  151.3967  138.8993  154.6716 H   0  0  0  0  0  0  0  0  0  0  0  0
  149.1437  139.2531  153.9033 H   0  0  0  0  0  0  0  0  0  0  0  0
  149.2496  139.0364  155.6367 H   0  0  0  0  0  0  0  0  0  0  0  0
  149.0557  141.7363  154.1816 H   0  0  0  0  0  0  0  0  0  0  0  0
  147.8064  140.9816  155.1524 H   0  0  0  0  0  0  0  0  0  0  0  0
  1  2  1  0  0  0  0
  1 16  1  0  0  0  0
  1 17  1  0  0  0  0
  1 18  1  0  0  0  0
  2  3  1  0  0  0  0
  2  4  1  0  0  0  0
  2 19  1  0  0  0  0
  3 20  1  0  0  0  0
  3 21  1  0  0  0  0
  3 22  1  0  0  0  0
  4 14  1  0  0  0  0
  4  5  2  0  0  0  0
  5  6  1  0  0  0  0
  6 15  1  0  0  0  0
  6  7  1  0  0  0  0
  7  8  1  0  0  0  0
  7 14  2  0  0  0  0
  8 13  1  0  0  0  0
  8  9  1  0  0  0  0
  8 23  1  0  0  0  0
  9 10  1  0  0  0  0
  9 24  1  0  0  0  0
  9 25  1  0  0  0  0
 10 11  1  0  0  0  0
 10 26  1  0  0  0  0
 11 12  1  0  0  0  0
 11 27  1  0  0  0  0
 11 28  1  0  0  0  0
 12 13  1  0  0  0  0
 12 29  1  0  0  0  0
 12 30  1  0  0  0  0
M  END
> <s_m_source_file>
AV-unprocessed.smi

> <i_m_source_file_index>
3019

> <i_lp_mmshare_version>
43012

> <i_f3d_flags>
0

> <s_epik_input>
W0NIM11bQ0hdKFtDSDNdKWMxbltuSF1jKG4xKVtDQEBIXTJbQ0gyXVtOSF1bQ0gyXVtDSDJdTzI=

> <s_epik_cmdline>
J2VwaWtfcHl0aG9uJywgJy1waCcsICc3LjAnLCAnLXRuJywgJzgnLCAnLW1hJywgJzIwMCcsICctbWV0YWxfYmluZGluZycsICctaW1hZScsICc8aW5maWxlLm1hZT4nLCAnLW9tYWUnLCAnPG91dGZpbGUubWFlPic=

> <r_epik_Ionization_Penalty>
0.981987

> <r_epik_Ionization_Penalty_Charging>
0

> <r_epik_Ionization_Penalty_Neutral>
0.981987

> <r_epik_State_Penalty>
2.09479

> <r_epik_Charging_Adjusted_Penalty>
2.09479

> <i_epik_Tot_Q>
0

> <i_epik_Tot_abs_Q>
0

> <r_epik_Metal_State_Penalty>
2.40362

> <b_epik_Metal_Only>
0

> <s_lp_Force_Field>
OPLS_2005

> <r_lp_Energy>
8.95245

> <b_lp_Chiralities_Consistent>
1

> <s_lp_Variant>
AV-unprocessed.smi:3019-8

> <Gold.Version>
5.8.1

> <Gold.Id.Protein>
6NUR|6NUR_protein|mol2

> <Gold.PLP.Fitness>
37.8800

> <Gold.PLP.PLP>
-32.4497

> <Gold.PLP.part.hbond>
-2.0000

> <Gold.PLP.part.metal>
0.0000

> <Gold.PLP.part.buried>
-5.4467

> <Gold.PLP.part.nonpolar>
-24.5051

> <Gold.PLP.part.repulsive>
0.2922

> <Gold.PLP.ligand.clash>
0.0000

> <Gold.PLP.ligand.torsion>
0.3145

> <Gold.PLP.Chemscore.Hbond>
2.0000

> <Gold.PLP.Chemscore.CHOScore>
0.0000

> <Gold.PLP.Chemscore.Metal>
0.0000

> <Gold.Chemscore.Hbonds>
donor molecule, donor type, donor heavy atom, donor atom, acceptor molecule, acceptor atom, score
      L1  H     6    15       P1  8028  1.00
      P1  H  7989  7998       L1    10  1.00

> <Gold.PLP.Chemscore.Internal.Correction>
0.0592

> <Gold.Rescore>
     Score         DG    S(hbond)    S(metal)    S(lipo)     H(rot)  DE(clash)    DE(int)     intcor
     12.98     -13.09       1.04        0.00      62.86       1.26       0.01       0.09       ----

> <Gold.Chemscore.Fitness>
12.9813

> <Gold.Chemscore.DG>
-13.0885

> <Gold.Chemscore.ZeroCoef>
-5.4800

> <Gold.Chemscore.Hbond>
1.0415

> <Gold.Chemscore.Metal>
0.0000

> <Gold.Chemscore.Lipo>
62.8628

> <Gold.Chemscore.Internal_Hbond>
0.0000

> <Gold.Chemscore.DEClash>
0.0141

> <Gold.Chemscore.DEInternal>
0.0931

> <Gold.Chemscore.Rot>
1.2598

> <Gold.Chemscore.Internal.Correction>
   9.000000E+99

> <Gold.Chemscore.Hbonds>
donor molecule, donor type, donor heavy atom, donor atom, acceptor molecule, acceptor atom, score
      L1  H     6    15       P1  8028  0.69
      P1  H  7989  7998       L1    10  0.17

> <Gold.Chemscore.Hbond.Weighted>
-3.4787

> <Gold.Chemscore.Metal.Weighted>
-0.0000

> <Gold.Chemscore.Lipo.Weighted>
-7.3550

> <Gold.Chemscore.Internal_Hbond.Weighted>
0.0000

> <Gold.Chemscore.DEClash.Weighted>
0.0141

> <Gold.Chemscore.DEInternal.Weighted>
0.0931

> <Gold.Chemscore.Rot.Weighted>
3.2251

> <Gold.Chemscore.Internal.Correction.Weighted>
   9.000000E+99

> <Gold.Protein.RotatedTorsions>
[ 6907 6896 6895 6894 ] final   78.20 input  -60.11 | X-H torsion
[ 7974 7965 7964 7962 ] final   84.47 input  175.53 | X-H torsion
[ 8008 7997 7996 7995 ] final -144.92 input   59.86 | X-H torsion
[ 10167 10162 10161 10158 ] final  116.21 input  -65.29 | X-H torsion
[ 10718 10713 10712 10709 ] final  -69.79 input   66.30 | X-H torsion
[ 10763 10752 10751 10750 ] final  160.81 input  -60.55 | X-H torsion
[ 11005 11000 10999 10996 ] final  -77.73 input  -57.11 | X-H torsion

> <Gold.Protein.ActiveResidues>
 VAL166  LYS551  ARG553  GLY616  TRP617  ASP618  TYR619  PRO620  LYS621  CYS622 
 ASP623  PHE694  ASN695  SER759  ASP760  ASP761  ALA762  ILE779  LEU786  VAL792 
 PHE793  MET794  SER795  GLU796  ALA797  LYS798  CYS799  TRP800  GLU811  SER814 

> <Gold.Protein.RotatedAtoms>
  152.5150  134.3700  159.9314 H   0  0  0  0  0  0  0  0  0  0  0  0  # atno 6907 bound_to 6896
  151.3654  133.3868  159.2702 H   0  0  0  0  0  0  0  0  0  0  0  0  # atno 6908 bound_to 6896
  150.9619  134.9025  159.7794 H   0  0  0  0  0  0  0  0  0  0  0  0  # atno 6909 bound_to 6896
  145.5983  139.2348  143.2260 H   0  0  0  0  0  0  0  0  0  0  0  0  # atno 7974 bound_to 7965
  155.5347  140.0603  157.2882 H   0  0  0  0  0  0  0  0  0  0  0  0  # atno 8008 bound_to 7997
  154.4472  140.1929  156.0574 H   0  0  0  0  0  0  0  0  0  0  0  0  # atno 8009 bound_to 7997
  156.0627  140.3270  155.7485 H   0  0  0  0  0  0  0  0  0  0  0  0  # atno 8010 bound_to 7997
  139.6263  144.7109  151.2527 H   0  0  0  0  0  0  0  0  0  0  0  0  # atno 10167 bound_to 10162
  156.0438  130.4319  150.2199 H   0  0  0  0  0  0  0  0  0  0  0  0  # atno 10718 bound_to 10713
  154.2532  135.2771  155.2808 H   0  0  0  0  0  0  0  0  0  0  0  0  # atno 10763 bound_to 10752
  154.5447  135.5692  153.6873 H   0  0  0  0  0  0  0  0  0  0  0  0  # atno 10764 bound_to 10752
  152.9976  135.6259  154.2680 H   0  0  0  0  0  0  0  0  0  0  0  0  # atno 10765 bound_to 10752
  141.1662  133.7034  156.7865 H   0  0  0  0  0  0  0  0  0  0  0  0  # atno 11005 bound_to 11000
  146.1595  140.6809  142.9284 LP  0  0  0  0  0  0  0  0  0  0  0  0  # atno 17320 bound_to 7965
  144.7321  140.4701  143.6930 LP  0  0  0  0  0  0  0  0  0  0  0  0  # atno 17321 bound_to 7965
  140.7413  143.6562  150.8204 LP  0  0  0  0  0  0  0  0  0  0  0  0  # atno 17342 bound_to 10162
  140.0180  143.5572  152.2812 LP  0  0  0  0  0  0  0  0  0  0  0  0  # atno 17343 bound_to 10162
  157.0292  131.0002  151.3317 LP  0  0  0  0  0  0  0  0  0  0  0  0  # atno 17370 bound_to 10713
  157.5290  130.8046  149.7895 LP  0  0  0  0  0  0  0  0  0  0  0  0  # atno 17371 bound_to 10713
  140.2356  134.8652  157.3522 LP  0  0  0  0  0  0  0  0  0  0  0  0  # atno 17394 bound_to 11000
  140.1847  134.4446  155.7751 LP  0  0  0  0  0  0  0  0  0  0  0  0  # atno 17395 bound_to 11000

$$$$
