AV-unprocessed.smi:661|AV-procd|sdf|3240|dock2
  -GOLD-   22720 0183D 1   1.00000     0.00000
 Structure written by MMmdl.
 31 32  0  0  0  0  0  0  0  0  2 V2000
  148.5832  140.7073  154.6557 C   0  0  0  0  0  0  0  0  0  0  0  0
  149.2065  141.3516  155.8255 N   0  3  0  0  0  0  0  0  0  0  0  0
  150.5336  140.8053  156.1689 C   0  0  0  0  0  0  0  0  0  0  0  0
  151.0077  141.7150  157.2635 C   0  0  0  0  0  0  0  0  0  0  0  0
  151.0050  143.0403  157.1128 N   0  0  0  0  0  0  0  0  0  0  0  0
  151.4862  143.4880  158.3274 C   0  0  0  0  0  0  0  0  0  0  0  0
  151.7155  144.8012  158.7958 C   0  0  0  0  0  0  0  0  0  0  0  0
  152.2150  145.0176  160.0967 C   0  0  0  0  0  0  0  0  0  0  0  0
  152.4906  143.9264  160.9458 C   0  0  0  0  0  0  0  0  0  0  0  0
  152.2696  142.6096  160.4982 C   0  0  0  0  0  0  0  0  0  0  0  0
  151.7724  142.3983  159.1979 C   0  0  0  0  0  0  0  0  0  0  0  0
  151.4513  141.2594  158.4639 N   0  0  0  0  0  0  0  0  0  0  0  0
  151.5770  139.8844  158.9259 C   0  0  0  0  0  0  0  0  0  0  0  0
  152.4359  139.0378  157.9761 C   0  0  0  0  0  0  0  0  0  0  0  0
  153.7794  139.0527  158.4048 O   0  0  0  0  0  0  0  0  0  0  0  0
  147.6132  141.1613  154.4529 H   0  0  0  0  0  0  0  0  0  0  0  0
  148.4308  139.6427  154.8367 H   0  0  0  0  0  0  0  0  0  0  0  0
  149.2085  140.8250  153.7701 H   0  0  0  0  0  0  0  0  0  0  0  0
  149.3102  142.3388  155.6370 H   0  0  0  0  0  0  0  0  0  0  0  0
  150.4657  139.7671  156.4895 H   0  0  0  0  0  0  0  0  0  0  0  0
  151.2103  140.8610  155.3153 H   0  0  0  0  0  0  0  0  0  0  0  0
  151.5067  145.6445  158.1544 H   0  0  0  0  0  0  0  0  0  0  0  0
  152.3866  146.0254  160.4454 H   0  0  0  0  0  0  0  0  0  0  0  0
  152.8721  144.1009  161.9413 H   0  0  0  0  0  0  0  0  0  0  0  0
  152.4804  141.7744  161.1493 H   0  0  0  0  0  0  0  0  0  0  0  0
  151.9821  139.8772  159.9375 H   0  0  0  0  0  0  0  0  0  0  0  0
  150.5783  139.4531  159.0041 H   0  0  0  0  0  0  0  0  0  0  0  0
  152.0837  138.0059  157.9555 H   0  0  0  0  0  0  0  0  0  0  0  0
  152.3878  139.4203  156.9569 H   0  0  0  0  0  0  0  0  0  0  0  0
  153.9262  138.3145  158.9761 H   0  0  0  0  0  0  0  0  0  0  0  0
  148.5961  141.2380  156.6220 H   0  0  0  0  0  0  0  0  0  0  0  0
  1  2  1  0  0  0  0
  1 16  1  0  0  0  0
  1 17  1  0  0  0  0
  1 18  1  0  0  0  0
  2  3  1  0  0  0  0
  2 19  1  0  0  0  0
  2 31  1  0  0  0  0
  3  4  1  0  0  0  0
  3 20  1  0  0  0  0
  3 21  1  0  0  0  0
  4 12  1  0  0  0  0
  4  5  2  0  0  0  0
  5  6  1  0  0  0  0
  6 11  2  0  0  0  0
  6  7  1  0  0  0  0
  7  8  2  0  0  0  0
  7 22  1  0  0  0  0
  8  9  1  0  0  0  0
  8 23  1  0  0  0  0
  9 10  2  0  0  0  0
  9 24  1  0  0  0  0
 10 11  1  0  0  0  0
 10 25  1  0  0  0  0
 11 12  1  0  0  0  0
 12 13  1  0  0  0  0
 13 14  1  0  0  0  0
 13 26  1  0  0  0  0
 13 27  1  0  0  0  0
 14 15  1  0  0  0  0
 14 28  1  0  0  0  0
 14 29  1  0  0  0  0
 15 30  1  0  0  0  0
M  CHG  1   2   1
M  END
> <s_m_source_file>
AV-unprocessed.smi

> <i_m_source_file_index>
661

> <i_lp_mmshare_version>
43012

> <i_f3d_flags>
0

> <s_epik_input>
W0NIM11bTkhdW0NIMl1jKG4xKW4oW0NIMl1bQ0gyXVtPSF0pYyhjMTIpW2NIXVtjSF1bY0hdW2NIXTI=

> <s_epik_cmdline>
J2VwaWtfcHl0aG9uJywgJy1waCcsICc3LjAnLCAnLXRuJywgJzgnLCAnLW1hJywgJzIwMCcsICctbWV0YWxfYmluZGluZycsICctaW1hZScsICc8aW5maWxlLm1hZT4nLCAnLW9tYWUnLCAnPG91dGZpbGUubWFlPic=

> <r_epik_Ionization_Penalty>
0.0286345

> <r_epik_Ionization_Penalty_Charging>
0.0274522

> <r_epik_Ionization_Penalty_Neutral>
0.00118227

> <r_epik_State_Penalty>
0.0285474

> <r_epik_Charging_Adjusted_Penalty>
0.0559996

> <i_epik_Tot_Q>
1

> <i_epik_Tot_abs_Q>
1

> <r_epik_Metal_State_Penalty>
0.0289981

> <b_epik_Metal_Only>
0

> <s_lp_Force_Field>
OPLS_2005

> <r_lp_Energy>
8.55155

> <b_lp_Chiralities_Consistent>
1

> <s_lp_Variant>
AV-unprocessed.smi:661-1

> <Gold.Version>
5.8.1

> <Gold.Id.Protein>
6NUR|6NUR_protein|mol2

> <Gold.PLP.Fitness>
43.4458

> <Gold.PLP.PLP>
-35.0601

> <Gold.PLP.part.hbond>
-1.9659

> <Gold.PLP.part.metal>
0.0000

> <Gold.PLP.part.buried>
-5.5753

> <Gold.PLP.part.nonpolar>
-29.7551

> <Gold.PLP.part.repulsive>
1.6957

> <Gold.PLP.ligand.clash>
0.0000

> <Gold.PLP.ligand.torsion>
0.3096

> <Gold.PLP.Chemscore.Hbond>
3.0000

> <Gold.PLP.Chemscore.CHOScore>
0.0000

> <Gold.PLP.Chemscore.Metal>
0.0000

> <Gold.Chemscore.Hbonds>
donor molecule, donor type, donor heavy atom, donor atom, acceptor molecule, acceptor atom, score
      L1  H     2    19       P1  8028  0.06
      P1  H  7997  8010       L1    15  0.82

> <Gold.PLP.Chemscore.Internal.Correction>
0.0050

> <Gold.Rescore>
     Score         DG    S(hbond)    S(metal)    S(lipo)     H(rot)  DE(clash)    DE(int)     intcor
     15.69     -16.22       1.88        0.00      90.88       2.41       0.23       0.30       ----

> <Gold.Chemscore.Fitness>
15.6921

> <Gold.Chemscore.DG>
-16.2198

> <Gold.Chemscore.ZeroCoef>
-5.4800

> <Gold.Chemscore.Hbond>
1.8787

> <Gold.Chemscore.Metal>
0.0000

> <Gold.Chemscore.Lipo>
90.8796

> <Gold.Chemscore.Internal_Hbond>
0.0000

> <Gold.Chemscore.DEClash>
0.2282

> <Gold.Chemscore.DEInternal>
0.2995

> <Gold.Chemscore.Rot>
2.4094

> <Gold.Chemscore.Internal.Correction>
   9.000000E+99

> <Gold.Chemscore.Hbonds>
donor molecule, donor type, donor heavy atom, donor atom, acceptor molecule, acceptor atom, score
      L1  H     2    19       P1  8028  0.09
      P1  H  7997  8010       L1    15  0.13

> <Gold.Chemscore.Hbond.Weighted>
-6.2750

> <Gold.Chemscore.Metal.Weighted>
-0.0000

> <Gold.Chemscore.Lipo.Weighted>
-10.6329

> <Gold.Chemscore.Internal_Hbond.Weighted>
0.0000

> <Gold.Chemscore.DEClash.Weighted>
0.2282

> <Gold.Chemscore.DEInternal.Weighted>
0.2995

> <Gold.Chemscore.Rot.Weighted>
6.1681

> <Gold.Chemscore.Internal.Correction.Weighted>
   9.000000E+99

> <Gold.Protein.RotatedTorsions>
[ 6907 6896 6895 6894 ] final  164.86 input  -60.11 | X-H torsion
[ 7974 7965 7964 7962 ] final    0.01 input  175.53 | X-H torsion
[ 8008 7997 7996 7995 ] final   45.69 input   59.86 | X-H torsion
[ 10167 10162 10161 10158 ] final  153.54 input  -65.29 | X-H torsion
[ 10718 10713 10712 10709 ] final  152.08 input   66.30 | X-H torsion
[ 10763 10752 10751 10750 ] final  -89.65 input  -60.55 | X-H torsion
[ 11005 11000 10999 10996 ] final  129.08 input  -57.11 | X-H torsion

> <Gold.Protein.ActiveResidues>
 VAL166  LYS551  ARG553  GLY616  TRP617  ASP618  TYR619  PRO620  LYS621  CYS622 
 ASP623  PHE694  ASN695  SER759  ASP760  ASP761  ALA762  ILE779  LEU786  VAL792 
 PHE793  MET794  SER795  GLU796  ALA797  LYS798  CYS799  TRP800  GLU811  SER814 

> <Gold.Protein.RotatedAtoms>
  151.9033  133.3543  159.3837 H   0  0  0  0  0  0  0  0  0  0  0  0  # atno 6907 bound_to 6896
  150.7075  134.4806  159.5478 H   0  0  0  0  0  0  0  0  0  0  0  0  # atno 6908 bound_to 6896
  152.2399  134.8239  160.0512 H   0  0  0  0  0  0  0  0  0  0  0  0  # atno 6909 bound_to 6896
  146.2431  140.1202  142.8341 H   0  0  0  0  0  0  0  0  0  0  0  0  # atno 7974 bound_to 7965
  155.3401  140.3407  155.4239 H   0  0  0  0  0  0  0  0  0  0  0  0  # atno 8008 bound_to 7997
  156.1818  140.1666  156.8296 H   0  0  0  0  0  0  0  0  0  0  0  0  # atno 8009 bound_to 7997
  154.5342  140.0739  156.8381 H   0  0  0  0  0  0  0  0  0  0  0  0  # atno 8010 bound_to 7997
  139.4827  144.5264  151.7793 H   0  0  0  0  0  0  0  0  0  0  0  0  # atno 10167 bound_to 10162
  157.2624  131.0800  151.1657 H   0  0  0  0  0  0  0  0  0  0  0  0  # atno 10718 bound_to 10713
  154.6575  135.5333  153.7977 H   0  0  0  0  0  0  0  0  0  0  0  0  # atno 10763 bound_to 10752
  153.0422  135.6497  154.0922 H   0  0  0  0  0  0  0  0  0  0  0  0  # atno 10764 bound_to 10752
  154.0834  135.2945  155.3266 H   0  0  0  0  0  0  0  0  0  0  0  0  # atno 10765 bound_to 10752
  139.9596  134.9605  156.9096 H   0  0  0  0  0  0  0  0  0  0  0  0  # atno 11005 bound_to 11000
  145.0412  140.8947  143.5051 LP  0  0  0  0  0  0  0  0  0  0  0  0  # atno 17320 bound_to 7965
  145.1283  139.2648  143.5552 LP  0  0  0  0  0  0  0  0  0  0  0  0  # atno 17321 bound_to 7965
  140.4785  144.1484  150.5928 LP  0  0  0  0  0  0  0  0  0  0  0  0  # atno 17342 bound_to 10162
  140.4304  143.2571  151.9602 LP  0  0  0  0  0  0  0  0  0  0  0  0  # atno 17343 bound_to 10162
  157.3161  130.6914  149.6243 LP  0  0  0  0  0  0  0  0  0  0  0  0  # atno 17370 bound_to 10713
  155.9664  130.4349  150.5069 LP  0  0  0  0  0  0  0  0  0  0  0  0  # atno 17371 bound_to 10713
  140.5531  134.0608  155.7375 LP  0  0  0  0  0  0  0  0  0  0  0  0  # atno 17394 bound_to 11000
  141.1271  133.9364  157.2612 LP  0  0  0  0  0  0  0  0  0  0  0  0  # atno 17395 bound_to 11000

$$$$
