AV-unprocessed.smi:290|AV-procd|sdf|2242|dock7
  -GOLD-   2262022123D 1   1.00000     0.00000
 Structure written by MMmdl.
 59 62  0  0  0  0  0  0  0  0  2 V2000
  151.1032  140.7014  157.4148 C   0  0  0  0  0  0  0  0  0  0  0  0
  151.4059  140.2939  155.9641 C   0  0  1  0  0  0  0  0  0  0  0  0
  152.5418  139.4336  155.9866 O   0  0  0  0  0  0  0  0  0  0  0  0
  152.4497  138.5260  154.9033 C   0  0  0  0  0  0  0  0  0  0  0  0
  150.9703  138.1728  154.8992 C   0  0  0  0  0  0  0  0  0  0  0  0
  150.2964  139.5073  155.2090 C   0  0  2  0  0  0  0  0  0  0  0  0
  150.0632  140.1703  153.9779 O   0  0  0  0  0  0  0  0  0  0  0  0
  148.9362  139.3623  155.9410 C   0  0  0  0  0  0  0  0  0  0  0  0
  148.0745  138.3370  155.3717 N   0  0  0  0  0  0  0  0  0  0  0  0
  147.6641  137.1754  155.9843 C   0  0  0  0  0  0  0  0  0  0  0  0
  146.8850  136.4141  155.2663 N   0  0  0  0  0  0  0  0  0  0  0  0
  146.7320  137.1075  154.0707 C   0  0  0  0  0  0  0  0  0  0  0  0
  146.0211  136.8654  152.8587 C   0  0  0  0  0  0  0  0  0  0  0  0
  145.2435  135.7755  152.6309 N   0  0  0  0  0  0  0  0  0  0  0  0
  143.9445  135.5973  153.2479 C   0  0  0  0  0  0  0  0  0  0  0  0
  143.3048  134.5046  152.4030 C   0  0  0  0  0  0  0  0  0  0  0  0
  144.4826  133.5827  152.0342 C   0  0  1  0  0  0  0  0  0  0  0  0
  144.2530  132.8172  150.7688 N   0  3  2  0  0  0  0  0  0  0  0  0
  145.3733  131.8847  150.4754 C   0  0  0  0  0  0  0  0  0  0  0  0
  143.9194  133.6713  149.5924 C   0  0  0  0  0  0  0  0  0  0  0  0
  143.7933  132.8832  148.2748 C   0  0  0  0  0  0  0  0  0  0  0  0
  143.6502  133.7739  147.1884 O   0  0  0  0  0  0  0  0  0  0  0  0
  145.7108  134.5374  152.0137 C   0  0  2  0  0  0  0  0  0  0  0  0
  146.9036  133.9429  152.7961 C   0  0  0  0  0  0  0  0  0  0  0  0
  146.1404  137.7902  151.8706 N   0  0  0  0  0  0  0  0  0  0  0  0
  146.8800  138.8873  152.0547 C   0  0  0  0  0  0  0  0  0  0  0  0
  147.5800  139.2495  153.1307 N   0  0  0  0  0  0  0  0  0  0  0  0
  147.4812  138.3182  154.1214 C   0  0  0  0  0  0  0  0  0  0  0  0
  144.6062  132.8656  152.8483 H   0  0  0  0  0  0  0  0  0  0  0  0
  145.9900  134.7608  150.9842 H   0  0  0  0  0  0  0  0  0  0  0  0
  150.2416  141.3668  157.4709 H   0  0  0  0  0  0  0  0  0  0  0  0
  151.9514  141.2308  157.8494 H   0  0  0  0  0  0  0  0  0  0  0  0
  150.9068  139.8319  158.0426 H   0  0  0  0  0  0  0  0  0  0  0  0
  151.6821  141.1907  155.4062 H   0  0  0  0  0  0  0  0  0  0  0  0
  152.7404  139.0234  153.9768 H   0  0  0  0  0  0  0  0  0  0  0  0
  153.0925  137.6576  155.0489 H   0  0  0  0  0  0  0  0  0  0  0  0
  150.6399  137.7157  153.9654 H   0  0  0  0  0  0  0  0  0  0  0  0
  150.7794  137.4611  155.7035 H   0  0  0  0  0  0  0  0  0  0  0  0
  149.1563  140.0523  153.7397 H   0  0  0  0  0  0  0  0  0  0  0  0
  149.0936  139.1067  156.9891 H   0  0  0  0  0  0  0  0  0  0  0  0
  148.3947  140.3092  155.9325 H   0  0  0  0  0  0  0  0  0  0  0  0
  147.9651  136.9069  156.9866 H   0  0  0  0  0  0  0  0  0  0  0  0
  144.0716  135.2757  154.2824 H   0  0  0  0  0  0  0  0  0  0  0  0
  143.3507  136.5120  153.2349 H   0  0  0  0  0  0  0  0  0  0  0  0
  142.5041  133.9902  152.9353 H   0  0  0  0  0  0  0  0  0  0  0  0
  142.8797  134.9519  151.5028 H   0  0  0  0  0  0  0  0  0  0  0  0
  146.2937  132.4345  150.2741 H   0  0  0  0  0  0  0  0  0  0  0  0
  145.1619  131.2518  149.6155 H   0  0  0  0  0  0  0  0  0  0  0  0
  145.5629  131.2026  151.3034 H   0  0  0  0  0  0  0  0  0  0  0  0
  142.9660  134.1743  149.7362 H   0  0  0  0  0  0  0  0  0  0  0  0
  144.6691  134.4576  149.4927 H   0  0  0  0  0  0  0  0  0  0  0  0
  144.6993  132.2981  148.1143 H   0  0  0  0  0  0  0  0  0  0  0  0
  142.9694  132.1712  148.2833 H   0  0  0  0  0  0  0  0  0  0  0  0
  142.8130  133.6172  146.7772 H   0  0  0  0  0  0  0  0  0  0  0  0
  147.2073  132.9725  152.4068 H   0  0  0  0  0  0  0  0  0  0  0  0
  146.6518  133.8034  153.8481 H   0  0  0  0  0  0  0  0  0  0  0  0
  147.7794  134.5893  152.7561 H   0  0  0  0  0  0  0  0  0  0  0  0
  146.9141  139.5739  151.2216 H   0  0  0  0  0  0  0  0  0  0  0  0
  143.4353  132.2474  150.9347 H   0  0  0  0  0  0  0  0  0  0  0  0
  1  2  1  0  0  0  0
  1 31  1  0  0  0  0
  1 32  1  0  0  0  0
  1 33  1  0  0  0  0
  2  6  1  0  0  0  0
  2  3  1  0  0  0  0
  2 34  1  0  0  0  0
  3  4  1  0  0  0  0
  4  5  1  0  0  0  0
  4 35  1  0  0  0  0
  4 36  1  0  0  0  0
  5  6  1  0  0  0  0
  5 37  1  0  0  0  0
  5 38  1  0  0  0  0
  6  7  1  0  0  0  0
  6  8  1  0  0  0  0
  7 39  1  0  0  0  0
  8  9  1  0  0  0  0
  8 40  1  0  0  0  0
  8 41  1  0  0  0  0
  9 28  1  0  0  0  0
  9 10  1  0  0  0  0
 10 11  2  0  0  0  0
 10 42  1  0  0  0  0
 11 12  1  0  0  0  0
 12 28  2  0  0  0  0
 12 13  1  0  0  0  0
 13 14  1  0  0  0  0
 13 25  2  0  0  0  0
 14 23  1  0  0  0  0
 14 15  1  0  0  0  0
 15 16  1  0  0  0  0
 15 43  1  0  0  0  0
 15 44  1  0  0  0  0
 16 17  1  0  0  0  0
 16 45  1  0  0  0  0
 16 46  1  0  0  0  0
 17 29  1  0  0  0  0
 17 18  1  0  0  0  0
 17 23  1  0  0  0  0
 18 19  1  0  0  0  0
 18 20  1  0  0  0  0
 18 59  1  0  0  0  0
 19 47  1  0  0  0  0
 19 48  1  0  0  0  0
 19 49  1  0  0  0  0
 20 21  1  0  0  0  0
 20 50  1  0  0  0  0
 20 51  1  0  0  0  0
 21 22  1  0  0  0  0
 21 52  1  0  0  0  0
 21 53  1  0  0  0  0
 22 54  1  0  0  0  0
 23 30  1  0  0  0  0
 23 24  1  0  0  0  0
 24 55  1  0  0  0  0
 24 56  1  0  0  0  0
 24 57  1  0  0  0  0
 25 26  1  0  0  0  0
 26 27  2  0  0  0  0
 26 58  1  0  0  0  0
 27 28  1  0  0  0  0
M  CHG  1  18   1
M  END
> <s_m_source_file>
AV-unprocessed.smi

> <i_m_source_file_index>
290

> <i_lp_mmshare_version>
43012

> <i_f3d_flags>
0

> <s_epik_input>
W0NIMl0xW0NIMl1PW0NAQEhdKFtDSDNdKVtDQEBdMShbT0hdKVtDSDJdbihbY0hdbjIpYyhjMjMpbltjSF1uYzNONFtDSDJdW0NIMl1bQ0BIXShbQ0BIXTRbQ0gzXSlOKFtDSDNdKVtDSDJdW0NIMl1bT0hd

> <s_epik_cmdline>
J2VwaWtfcHl0aG9uJywgJy1waCcsICc3LjAnLCAnLXRuJywgJzgnLCAnLW1hJywgJzIwMCcsICctbWV0YWxfYmluZGluZycsICctaW1hZScsICc8aW5maWxlLm1hZT4nLCAnLW9tYWUnLCAnPG91dGZpbGUubWFlPic=

> <r_lp_tautomer_probability>
1

> <r_epik_Ionization_Penalty>
0.0036983

> <r_epik_Ionization_Penalty_Charging>
0.0032725

> <r_epik_Ionization_Penalty_Neutral>
0.000425798

> <r_epik_State_Penalty>
-0

> <r_epik_Charging_Adjusted_Penalty>
0.0032725

> <i_epik_Tot_Q>
1

> <i_epik_Tot_abs_Q>
1

> <r_epik_Metal_State_Penalty>
-0

> <b_epik_Metal_Only>
0

> <s_lp_Force_Field>
OPLS_2005

> <r_lp_Energy>
64.6527

> <b_lp_Chiralities_Consistent>
1

> <s_lp_Variant>
AV-unprocessed.smi:290-28

> <Gold.Version>
5.8.1

> <Gold.Id.Protein>
6NUR|6NUR_protein|mol2

> <Gold.PLP.Fitness>
53.4272

> <Gold.PLP.PLP>
-45.0074

> <Gold.PLP.part.hbond>
-6.4178

> <Gold.PLP.part.metal>
0.0000

> <Gold.PLP.part.buried>
-4.3876

> <Gold.PLP.part.nonpolar>
-35.5330

> <Gold.PLP.part.repulsive>
2.0986

> <Gold.PLP.ligand.clash>
0.0000

> <Gold.PLP.ligand.torsion>
1.7104

> <Gold.PLP.Chemscore.Hbond>
3.7680

> <Gold.PLP.Chemscore.CHOScore>
0.1215

> <Gold.PLP.Chemscore.Metal>
0.0000

> <Gold.Chemscore.Hbonds>
donor molecule, donor type, donor heavy atom, donor atom, acceptor molecule, acceptor atom, score
      L1  H    22    54       P1 10195  1.00
      P1  H  7918  7932       L1    22  1.00
      P1  H  7989  7998       L1     7  0.86
      P1  H  7997  8009       L1     3  1.00
      L1  C    26    58       P1  7957  0.25

> <Gold.PLP.Chemscore.Internal.Correction>
0.1722

> <Gold.Rescore>
     Score         DG    S(hbond)    S(metal)    S(lipo)     H(rot)  DE(clash)    DE(int)     intcor
     12.91     -16.69       2.82        0.00      88.77       3.35       0.56       3.22       ----

> <Gold.Chemscore.Fitness>
12.9142

> <Gold.Chemscore.DG>
-16.6895

> <Gold.Chemscore.ZeroCoef>
-5.4800

> <Gold.Chemscore.Hbond>
2.8155

> <Gold.Chemscore.Metal>
0.0000

> <Gold.Chemscore.Lipo>
88.7732

> <Gold.Chemscore.Internal_Hbond>
0.0000

> <Gold.Chemscore.DEClash>
0.5584

> <Gold.Chemscore.DEInternal>
3.2170

> <Gold.Chemscore.Rot>
3.3518

> <Gold.Chemscore.Internal.Correction>
   9.000000E+99

> <Gold.Chemscore.Hbonds>
donor molecule, donor type, donor heavy atom, donor atom, acceptor molecule, acceptor atom, score
      L1  H    22    54       P1 10195  0.98
      P1  H  7918  7932       L1    22  0.29
      P1  H  7989  7998       L1     7  0.51
      P1  H  7997  8009       L1     3  0.83

> <Gold.Chemscore.Hbond.Weighted>
-9.4036

> <Gold.Chemscore.Metal.Weighted>
-0.0000

> <Gold.Chemscore.Lipo.Weighted>
-10.3865

> <Gold.Chemscore.Internal_Hbond.Weighted>
0.0000

> <Gold.Chemscore.DEClash.Weighted>
0.5584

> <Gold.Chemscore.DEInternal.Weighted>
3.2170

> <Gold.Chemscore.Rot.Weighted>
8.5806

> <Gold.Chemscore.Internal.Correction.Weighted>
   9.000000E+99

> <Gold.Protein.RotatedTorsions>
[ 6907 6896 6895 6894 ] final   76.27 input  -60.11 | X-H torsion
[ 7974 7965 7964 7962 ] final   83.89 input  175.53 | X-H torsion
[ 8008 7997 7996 7995 ] final -155.68 input   59.86 | X-H torsion
[ 10167 10162 10161 10158 ] final   77.14 input  -65.29 | X-H torsion
[ 10718 10713 10712 10709 ] final   83.63 input   66.30 | X-H torsion
[ 10763 10752 10751 10750 ] final  -44.64 input  -60.55 | X-H torsion
[ 11005 11000 10999 10996 ] final    1.31 input  -57.11 | X-H torsion

> <Gold.Protein.ActiveResidues>
 VAL166  LYS551  ARG553  GLY616  TRP617  ASP618  TYR619  PRO620  LYS621  CYS622 
 ASP623  PHE694  ASN695  SER759  ASP760  ASP761  ALA762  ILE779  LEU786  VAL792 
 PHE793  MET794  SER795  GLU796  ALA797  LYS798  CYS799  TRP800  GLU811  SER814 

> <Gold.Protein.RotatedAtoms>
  152.5065  134.3994  159.9411 H   0  0  0  0  0  0  0  0  0  0  0  0  # atno 6907 bound_to 6896
  151.3958  133.3767  159.2734 H   0  0  0  0  0  0  0  0  0  0  0  0  # atno 6908 bound_to 6896
  150.9399  134.8829  159.7664 H   0  0  0  0  0  0  0  0  0  0  0  0  # atno 6909 bound_to 6896
  145.6060  139.2360  143.2219 H   0  0  0  0  0  0  0  0  0  0  0  0  # atno 7974 bound_to 7965
  155.7056  140.0772  157.2392 H   0  0  0  0  0  0  0  0  0  0  0  0  # atno 8008 bound_to 7997
  154.4066  140.1639  156.2292 H   0  0  0  0  0  0  0  0  0  0  0  0  # atno 8009 bound_to 7997
  155.9329  140.3390  155.6266 H   0  0  0  0  0  0  0  0  0  0  0  0  # atno 8010 bound_to 7997
  139.9847  144.5801  150.7870 H   0  0  0  0  0  0  0  0  0  0  0  0  # atno 10167 bound_to 10162
  157.6883  131.0099  150.2553 H   0  0  0  0  0  0  0  0  0  0  0  0  # atno 10718 bound_to 10713
  154.0153  135.6676  153.4768 H   0  0  0  0  0  0  0  0  0  0  0  0  # atno 10763 bound_to 10752
  153.0603  135.5032  154.8074 H   0  0  0  0  0  0  0  0  0  0  0  0  # atno 10764 bound_to 10752
  154.6970  135.3072  154.9361 H   0  0  0  0  0  0  0  0  0  0  0  0  # atno 10765 bound_to 10752
  140.6169  133.9697  155.8205 H   0  0  0  0  0  0  0  0  0  0  0  0  # atno 11005 bound_to 11000
  146.1540  140.6884  142.9308 LP  0  0  0  0  0  0  0  0  0  0  0  0  # atno 17320 bound_to 7965
  144.7290  140.4613  143.6952 LP  0  0  0  0  0  0  0  0  0  0  0  0  # atno 17321 bound_to 7965
  140.7476  143.2910  151.3332 LP  0  0  0  0  0  0  0  0  0  0  0  0  # atno 17342 bound_to 10162
  139.6384  144.0586  152.2534 LP  0  0  0  0  0  0  0  0  0  0  0  0  # atno 17343 bound_to 10162
  156.3142  130.3776  149.7634 LP  0  0  0  0  0  0  0  0  0  0  0  0  # atno 17370 bound_to 10713
  156.5225  130.8221  151.3208 LP  0  0  0  0  0  0  0  0  0  0  0  0  # atno 17371 bound_to 10713
  141.0769  134.0121  157.3444 LP  0  0  0  0  0  0  0  0  0  0  0  0  # atno 17394 bound_to 11000
  139.9169  135.0197  156.7916 LP  0  0  0  0  0  0  0  0  0  0  0  0  # atno 17395 bound_to 11000

$$$$
