AV-unprocessed.smi:3269|AV-procd|sdf|12511|dock3
  -GOLD-   2272018423D 1   1.00000     0.00000
 Structure written by MMmdl.
 39 40  0  0  0  0  0  0  0  0  1 V2000
  153.0112  138.2998  155.0794 C   0  0  0  0  0  0  0  0  0  0  0  0
  151.9853  139.2669  155.5974 C   0  0  0  0  0  0  0  0  0  0  0  0
  151.3262  140.0340  154.7450 N   0  0  0  0  0  0  0  0  0  0  0  0
  150.4910  140.7623  155.5124 N   0  0  0  0  0  0  0  0  0  0  0  0
  149.5978  141.7166  154.8847 C   0  0  0  0  0  0  0  0  0  0  0  0
  150.6267  140.4591  156.8531 C   0  0  0  0  0  0  0  0  0  0  0  0
  149.8035  141.1288  157.9061 C   0  0  0  0  0  0  0  0  0  0  0  0
  151.5897  139.4892  156.9490 C   0  0  0  0  0  0  0  0  0  0  0  0
  152.1138  138.7936  158.1802 C   0  0  0  0  0  0  0  0  0  0  0  0
  153.0559  139.7373  158.9262 C   0  0  0  0  0  0  0  0  0  0  0  0
  154.2645  139.5055  158.9571 O   0  0  0  0  0  0  0  0  0  0  0  0
  152.4837  140.7773  159.5510 N   0  0  0  0  0  0  0  0  0  0  0  0
  153.1715  141.7032  160.4410 C   0  0  0  0  0  0  0  0  0  0  0  0
  152.7260  143.1496  160.1719 C   0  0  1  0  0  0  0  0  0  0  0  0
  153.1289  143.6836  158.7992 C   0  0  0  0  0  0  0  0  0  0  0  0
  152.0819  144.7497  158.5097 C   0  0  0  0  0  0  0  0  0  0  0  0
  150.9898  144.4990  159.5542 C   0  0  0  0  0  0  0  0  0  0  0  0
  151.3106  143.2402  160.1269 O   0  0  0  0  0  0  0  0  0  0  0  0
  152.8369  137.2991  155.4752 H   0  0  0  0  0  0  0  0  0  0  0  0
  154.0155  138.6034  155.3748 H   0  0  0  0  0  0  0  0  0  0  0  0
  152.9915  138.2317  153.9910 H   0  0  0  0  0  0  0  0  0  0  0  0
  149.8014  142.7169  155.2677 H   0  0  0  0  0  0  0  0  0  0  0  0
  148.5641  141.4517  155.1082 H   0  0  0  0  0  0  0  0  0  0  0  0
  149.7349  141.7194  153.8023 H   0  0  0  0  0  0  0  0  0  0  0  0
  150.1471  140.8647  158.9058 H   0  0  0  0  0  0  0  0  0  0  0  0
  148.7577  140.8330  157.8230 H   0  0  0  0  0  0  0  0  0  0  0  0
  149.8583  142.2134  157.8130 H   0  0  0  0  0  0  0  0  0  0  0  0
  151.3046  138.5043  158.8515 H   0  0  0  0  0  0  0  0  0  0  0  0
  152.6373  137.8710  157.9260 H   0  0  0  0  0  0  0  0  0  0  0  0
  151.4837  140.8879  159.4670 H   0  0  0  0  0  0  0  0  0  0  0  0
  152.9849  141.4339  161.4819 H   0  0  0  0  0  0  0  0  0  0  0  0
  154.2453  141.6028  160.2806 H   0  0  0  0  0  0  0  0  0  0  0  0
  153.1004  143.8192  160.9492 H   0  0  0  0  0  0  0  0  0  0  0  0
  154.1474  144.0730  158.7841 H   0  0  0  0  0  0  0  0  0  0  0  0
  153.0602  142.8929  158.0506 H   0  0  0  0  0  0  0  0  0  0  0  0
  152.4912  145.7551  158.6143 H   0  0  0  0  0  0  0  0  0  0  0  0
  151.6975  144.6474  157.4944 H   0  0  0  0  0  0  0  0  0  0  0  0
  151.0197  145.2632  160.3325 H   0  0  0  0  0  0  0  0  0  0  0  0
  149.9888  144.4919  159.1226 H   0  0  0  0  0  0  0  0  0  0  0  0
  1  2  1  0  0  0  0
  1 19  1  0  0  0  0
  1 20  1  0  0  0  0
  1 21  1  0  0  0  0
  2  8  1  0  0  0  0
  2  3  2  0  0  0  0
  3  4  1  0  0  0  0
  4  5  1  0  0  0  0
  4  6  1  0  0  0  0
  5 22  1  0  0  0  0
  5 23  1  0  0  0  0
  5 24  1  0  0  0  0
  6  7  1  0  0  0  0
  6  8  2  0  0  0  0
  7 25  1  0  0  0  0
  7 26  1  0  0  0  0
  7 27  1  0  0  0  0
  8  9  1  0  0  0  0
  9 10  1  0  0  0  0
  9 28  1  0  0  0  0
  9 29  1  0  0  0  0
 10 11  2  0  0  0  0
 10 12  1  0  0  0  0
 12 13  1  0  0  0  0
 12 30  1  0  0  0  0
 13 14  1  0  0  0  0
 13 31  1  0  0  0  0
 13 32  1  0  0  0  0
 14 18  1  0  0  0  0
 14 15  1  0  0  0  0
 14 33  1  0  0  0  0
 15 16  1  0  0  0  0
 15 34  1  0  0  0  0
 15 35  1  0  0  0  0
 16 17  1  0  0  0  0
 16 36  1  0  0  0  0
 16 37  1  0  0  0  0
 17 18  1  0  0  0  0
 17 38  1  0  0  0  0
 17 39  1  0  0  0  0
M  END
> <s_m_source_file>
AV-unprocessed.smi

> <i_m_source_file_index>
3269

> <i_lp_mmshare_version>
43012

> <i_f3d_flags>
0

> <s_epik_input>
W0NIM11jMW5uKFtDSDNdKWMoW0NIM10pYzFbQ0gyXUMoPU8pW05IXVtDSDJdW0NAQEhdMltDSDJdW0NIMl1bQ0gyXU8y

> <s_epik_cmdline>
J2VwaWtfcHl0aG9uJywgJy1waCcsICc3LjAnLCAnLXRuJywgJzgnLCAnLW1hJywgJzIwMCcsICctbWV0YWxfYmluZGluZycsICctaW1hZScsICc8aW5maWxlLm1hZT4nLCAnLW9tYWUnLCAnPG91dGZpbGUubWFlPic=

> <r_lp_tautomer_probability>
1

> <r_epik_Ionization_Penalty>
0.00306713

> <r_epik_Ionization_Penalty_Charging>
0

> <r_epik_Ionization_Penalty_Neutral>
0.00306713

> <r_epik_State_Penalty>
0.00215672

> <r_epik_Charging_Adjusted_Penalty>
0.00215672

> <i_epik_Tot_Q>
0

> <i_epik_Tot_abs_Q>
0

> <r_epik_Metal_State_Penalty>
-0

> <b_epik_Metal_Only>
0

> <s_lp_Force_Field>
OPLS_2005

> <r_lp_Energy>
10.8306

> <b_lp_Chiralities_Consistent>
1

> <s_lp_Variant>
AV-unprocessed.smi:3269-2

> <Gold.Version>
5.8.1

> <Gold.Id.Protein>
6NUR|6NUR_protein|mol2

> <Gold.PLP.Fitness>
47.3686

> <Gold.PLP.PLP>
-42.2887

> <Gold.PLP.part.hbond>
-2.7367

> <Gold.PLP.part.metal>
0.0000

> <Gold.PLP.part.buried>
-4.3136

> <Gold.PLP.part.nonpolar>
-35.6280

> <Gold.PLP.part.repulsive>
0.2569

> <Gold.PLP.ligand.clash>
0.0000

> <Gold.PLP.ligand.torsion>
0.4683

> <Gold.PLP.Chemscore.Hbond>
2.0000

> <Gold.PLP.Chemscore.CHOScore>
0.0000

> <Gold.PLP.Chemscore.Metal>
0.0000

> <Gold.Chemscore.Hbonds>
donor molecule, donor type, donor heavy atom, donor atom, acceptor molecule, acceptor atom, score
      P1  H  7989  7998       L1     3  0.99
      P1  H  7997  8008       L1    11  1.00

> <Gold.PLP.Chemscore.Internal.Correction>
0.0164

> <Gold.Rescore>
     Score         DG    S(hbond)    S(metal)    S(lipo)     H(rot)  DE(clash)    DE(int)     intcor
     19.45     -20.00       1.90        0.00     102.67       1.50       0.05       0.51       ----

> <Gold.Chemscore.Fitness>
19.4509

> <Gold.Chemscore.DG>
-20.0033

> <Gold.Chemscore.ZeroCoef>
-5.4800

> <Gold.Chemscore.Hbond>
1.9005

> <Gold.Chemscore.Metal>
0.0000

> <Gold.Chemscore.Lipo>
102.6725

> <Gold.Chemscore.Internal_Hbond>
0.0000

> <Gold.Chemscore.DEClash>
0.0464

> <Gold.Chemscore.DEInternal>
0.5060

> <Gold.Chemscore.Rot>
1.4989

> <Gold.Chemscore.Internal.Correction>
   9.000000E+99

> <Gold.Chemscore.Hbonds>
donor molecule, donor type, donor heavy atom, donor atom, acceptor molecule, acceptor atom, score
      P1  H  7989  7998       L1     3  0.56
      P1  H  7997  8008       L1    11  0.34

> <Gold.Chemscore.Hbond.Weighted>
-6.3477

> <Gold.Chemscore.Metal.Weighted>
-0.0000

> <Gold.Chemscore.Lipo.Weighted>
-12.0127

> <Gold.Chemscore.Internal_Hbond.Weighted>
0.0000

> <Gold.Chemscore.DEClash.Weighted>
0.0464

> <Gold.Chemscore.DEInternal.Weighted>
0.5060

> <Gold.Chemscore.Rot.Weighted>
3.8371

> <Gold.Chemscore.Internal.Correction.Weighted>
   9.000000E+99

> <Gold.Protein.RotatedTorsions>
[ 6907 6896 6895 6894 ] final  160.19 input  -60.11 | X-H torsion
[ 7974 7965 7964 7962 ] final  -18.70 input  175.53 | X-H torsion
[ 8008 7997 7996 7995 ] final -100.61 input   59.86 | X-H torsion
[ 10167 10162 10161 10158 ] final   52.24 input  -65.29 | X-H torsion
[ 10718 10713 10712 10709 ] final -129.45 input   66.30 | X-H torsion
[ 10763 10752 10751 10750 ] final  -24.18 input  -60.55 | X-H torsion
[ 11005 11000 10999 10996 ] final  116.04 input  -57.11 | X-H torsion

> <Gold.Protein.ActiveResidues>
 VAL166  LYS551  ARG553  GLY616  TRP617  ASP618  TYR619  PRO620  LYS621  CYS622 
 ASP623  PHE694  ASN695  SER759  ASP760  ASP761  ALA762  ILE779  LEU786  VAL792 
 PHE793  MET794  SER795  GLU796  ALA797  LYS798  CYS799  TRP800  GLU811  SER814 

> <Gold.Protein.RotatedAtoms>
  151.9744  133.3736  159.4083 H   0  0  0  0  0  0  0  0  0  0  0  0  # atno 6907 bound_to 6896
  150.6944  134.4106  159.5169 H   0  0  0  0  0  0  0  0  0  0  0  0  # atno 6908 bound_to 6896
  152.1815  134.8750  160.0576 H   0  0  0  0  0  0  0  0  0  0  0  0  # atno 6909 bound_to 6896
  146.1879  140.3958  142.8469 H   0  0  0  0  0  0  0  0  0  0  0  0  # atno 7974 bound_to 7965
  154.8311  140.0440  157.1477 H   0  0  0  0  0  0  0  0  0  0  0  0  # atno 8008 bound_to 7997
  154.9152  140.3019  155.5225 H   0  0  0  0  0  0  0  0  0  0  0  0  # atno 8009 bound_to 7997
  156.2987  140.2351  156.4195 H   0  0  0  0  0  0  0  0  0  0  0  0  # atno 8010 bound_to 7997
  140.2535  144.3453  150.6340 H   0  0  0  0  0  0  0  0  0  0  0  0  # atno 10167 bound_to 10162
  156.2048  130.6880  151.0581 H   0  0  0  0  0  0  0  0  0  0  0  0  # atno 10718 bound_to 10713
  153.6797  135.6967  153.5122 H   0  0  0  0  0  0  0  0  0  0  0  0  # atno 10763 bound_to 10752
  153.2494  135.4280  155.0781 H   0  0  0  0  0  0  0  0  0  0  0  0  # atno 10764 bound_to 10752
  154.8403  135.3527  154.6340 H   0  0  0  0  0  0  0  0  0  0  0  0  # atno 10765 bound_to 10752
  139.9029  134.9592  156.7138 H   0  0  0  0  0  0  0  0  0  0  0  0  # atno 11005 bound_to 11000
  144.8431  140.6888  143.6216 LP  0  0  0  0  0  0  0  0  0  0  0  0  # atno 17320 bound_to 7965
  145.3883  139.1622  143.4243 LP  0  0  0  0  0  0  0  0  0  0  0  0  # atno 17321 bound_to 7965
  140.6022  143.2167  151.7050 LP  0  0  0  0  0  0  0  0  0  0  0  0  # atno 17342 bound_to 10162
  139.5039  144.3775  152.0409 LP  0  0  0  0  0  0  0  0  0  0  0  0  # atno 17343 bound_to 10162
  157.7006  131.0777  150.6832 LP  0  0  0  0  0  0  0  0  0  0  0  0  # atno 17370 bound_to 10713
  156.6891  130.4589  149.5605 LP  0  0  0  0  0  0  0  0  0  0  0  0  # atno 17371 bound_to 10713
  140.7055  133.9269  155.8051 LP  0  0  0  0  0  0  0  0  0  0  0  0  # atno 17394 bound_to 11000
  141.0340  134.0716  157.3981 LP  0  0  0  0  0  0  0  0  0  0  0  0  # atno 17395 bound_to 11000

$$$$
