AV-unprocessed.smi:2192|AV-procd|sdf|8896|dock5
  -GOLD-   2272012103D 1   1.00000     0.00000
 Structure written by MMmdl.
 42 44  0  0  0  0  0  0  0  0  1 V2000
  154.5147  139.7504  161.2273 C   0  0  0  0  0  0  0  0  0  0  0  0
  153.6262  140.7647  160.6294 N   0  0  0  0  0  0  0  0  0  0  0  0
  153.1329  140.5326  159.3722 C   0  0  0  0  0  0  0  0  0  0  0  0
  153.3711  139.5335  158.6924 O   0  0  0  0  0  0  0  0  0  0  0  0
  152.2662  141.6022  158.8701 C   0  0  0  0  0  0  0  0  0  0  0  0
  151.9769  142.7156  159.5852 C   0  0  0  0  0  0  0  0  0  0  0  0
  151.1338  143.5664  158.8792 N   0  0  0  0  0  0  0  0  0  0  0  0
  150.9553  142.8971  157.7393 C   0  0  0  0  0  0  0  0  0  0  0  0
  151.6006  141.7157  157.6515 N   0  0  0  0  0  0  0  0  0  0  0  0
  151.5776  140.7977  156.5237 C   0  0  0  0  0  0  0  0  0  0  0  0
  150.3954  139.8097  156.5875 C   0  0  2  0  0  0  0  0  0  0  0  0
  150.4157  138.9624  155.4552 O   0  0  0  0  0  0  0  0  0  0  0  0
  149.0379  140.5248  156.6380 C   0  0  0  0  0  0  0  0  0  0  0  0
  148.6873  140.9337  155.3224 O   0  0  0  0  0  0  0  0  0  0  0  0
  147.6247  141.7973  155.1672 C   0  0  0  0  0  0  0  0  0  0  0  0
  147.3423  142.2335  153.8560 C   0  0  0  0  0  0  0  0  0  0  0  0
  146.2741  143.1158  153.6037 C   0  0  0  0  0  0  0  0  0  0  0  0
  145.4750  143.5745  154.6670 C   0  0  0  0  0  0  0  0  0  0  0  0
  144.4479  144.4235  154.4271 F   0  0  0  0  0  0  0  0  0  0  0  0
  145.7463  143.1489  155.9808 C   0  0  0  0  0  0  0  0  0  0  0  0
  146.8138  142.2650  156.2327 C   0  0  0  0  0  0  0  0  0  0  0  0
  152.5380  142.8569  160.8785 N   0  0  0  0  0  0  0  0  0  0  0  0
  152.2026  144.0742  161.6234 C   0  0  0  0  0  0  0  0  0  0  0  0
  153.3600  141.8857  161.3983 C   0  0  0  0  0  0  0  0  0  0  0  0
  153.8490  142.0113  162.5243 O   0  0  0  0  0  0  0  0  0  0  0  0
  154.7019  138.8768  160.6020 H   0  0  0  0  0  0  0  0  0  0  0  0
  154.0918  139.3766  162.1613 H   0  0  0  0  0  0  0  0  0  0  0  0
  155.4903  140.1853  161.4509 H   0  0  0  0  0  0  0  0  0  0  0  0
  150.3385  143.2811  156.9398 H   0  0  0  0  0  0  0  0  0  0  0  0
  151.5446  141.3822  155.6038 H   0  0  0  0  0  0  0  0  0  0  0  0
  152.5224  140.2526  156.5008 H   0  0  0  0  0  0  0  0  0  0  0  0
  150.4901  139.1751  157.4690 H   0  0  0  0  0  0  0  0  0  0  0  0
  149.9435  138.1707  155.6637 H   0  0  0  0  0  0  0  0  0  0  0  0
  148.2789  139.8595  157.0534 H   0  0  0  0  0  0  0  0  0  0  0  0
  149.1097  141.4025  157.2827 H   0  0  0  0  0  0  0  0  0  0  0  0
  147.9514  141.8863  153.0342 H   0  0  0  0  0  0  0  0  0  0  0  0
  146.0687  143.4403  152.5942 H   0  0  0  0  0  0  0  0  0  0  0  0
  145.1347  143.5009  156.7982 H   0  0  0  0  0  0  0  0  0  0  0  0
  146.9903  141.9616  157.2534 H   0  0  0  0  0  0  0  0  0  0  0  0
  152.6694  144.1450  162.6062 H   0  0  0  0  0  0  0  0  0  0  0  0
  151.1238  144.1328  161.7718 H   0  0  0  0  0  0  0  0  0  0  0  0
  152.5094  144.9539  161.0565 H   0  0  0  0  0  0  0  0  0  0  0  0
  1  2  1  0  0  0  0
  1 26  1  0  0  0  0
  1 27  1  0  0  0  0
  1 28  1  0  0  0  0
  2 24  1  0  0  0  0
  2  3  1  0  0  0  0
  3  4  2  0  0  0  0
  3  5  1  0  0  0  0
  5  9  1  0  0  0  0
  5  6  2  0  0  0  0
  6  7  1  0  0  0  0
  6 22  1  0  0  0  0
  7  8  2  0  0  0  0
  8  9  1  0  0  0  0
  8 29  1  0  0  0  0
  9 10  1  0  0  0  0
 10 11  1  0  0  0  0
 10 30  1  0  0  0  0
 10 31  1  0  0  0  0
 11 12  1  0  0  0  0
 11 13  1  0  0  0  0
 11 32  1  0  0  0  0
 12 33  1  0  0  0  0
 13 14  1  0  0  0  0
 13 34  1  0  0  0  0
 13 35  1  0  0  0  0
 14 15  1  0  0  0  0
 15 21  1  0  0  0  0
 15 16  2  0  0  0  0
 16 17  1  0  0  0  0
 16 36  1  0  0  0  0
 17 18  2  0  0  0  0
 17 37  1  0  0  0  0
 18 19  1  0  0  0  0
 18 20  1  0  0  0  0
 20 21  2  0  0  0  0
 20 38  1  0  0  0  0
 21 39  1  0  0  0  0
 22 23  1  0  0  0  0
 22 24  1  0  0  0  0
 23 40  1  0  0  0  0
 23 41  1  0  0  0  0
 23 42  1  0  0  0  0
 24 25  2  0  0  0  0
M  END
> <s_m_source_file>
AV-unprocessed.smi

> <i_m_source_file_index>
2192

> <i_lp_mmshare_version>
43012

> <i_f3d_flags>
0

> <s_epik_input>
Tz1jMW4oW0NIM10pYyg9TyluKFtDSDNdKWMoYzEyKW5bY0hdbjJbQ0gyXVtDQEhdKFtPSF0pW0NIMl1PYzNbY0hdW2NIXWMoRilbY0hdW2NIXTM=

> <s_epik_cmdline>
J2VwaWtfcHl0aG9uJywgJy1waCcsICc3LjAnLCAnLXRuJywgJzgnLCAnLW1hJywgJzIwMCcsICctbWV0YWxfYmluZGluZycsICctaW1hZScsICc8aW5maWxlLm1hZT4nLCAnLW9tYWUnLCAnPG91dGZpbGUubWFlPic=

> <r_lp_tautomer_probability>
1

> <r_epik_Ionization_Penalty>
1.0344e-06

> <r_epik_Ionization_Penalty_Charging>
3.2247e-09

> <r_epik_Ionization_Penalty_Neutral>
1.03118e-06

> <r_epik_State_Penalty>
-0

> <r_epik_Charging_Adjusted_Penalty>
3.2247e-09

> <i_epik_Tot_Q>
0

> <i_epik_Tot_abs_Q>
0

> <r_epik_Metal_State_Penalty>
-0

> <b_epik_Metal_Only>
0

> <s_lp_Force_Field>
OPLS_2005

> <r_lp_Energy>
38.6998

> <b_lp_Chiralities_Consistent>
1

> <s_lp_Variant>
AV-unprocessed.smi:2192-1

> <Gold.Version>
5.8.1

> <Gold.Id.Protein>
6NUR|6NUR_protein|mol2

> <Gold.PLP.Fitness>
55.4974

> <Gold.PLP.PLP>
-50.6238

> <Gold.PLP.part.hbond>
-2.0000

> <Gold.PLP.part.metal>
0.0000

> <Gold.PLP.part.buried>
-8.0399

> <Gold.PLP.part.nonpolar>
-41.1632

> <Gold.PLP.part.repulsive>
0.1921

> <Gold.PLP.ligand.clash>
0.0000

> <Gold.PLP.ligand.torsion>
0.5756

> <Gold.PLP.Chemscore.Hbond>
1.0000

> <Gold.PLP.Chemscore.CHOScore>
1.0000

> <Gold.PLP.Chemscore.Metal>
0.0000

> <Gold.Chemscore.Hbonds>
donor molecule, donor type, donor heavy atom, donor atom, acceptor molecule, acceptor atom, score
      P1  H  7997  8008       L1     4  0.75
      L1  C     8    29       P1  8028  1.00

> <Gold.PLP.Chemscore.Internal.Correction>
0.0248

> <Gold.Rescore>
     Score         DG    S(hbond)    S(metal)    S(lipo)     H(rot)  DE(clash)    DE(int)     intcor
      7.75     -10.04       0.95        0.00      74.88       2.88       1.54       0.75       ----

> <Gold.Chemscore.Fitness>
7.7517

> <Gold.Chemscore.DG>
-10.0402

> <Gold.Chemscore.ZeroCoef>
-5.4800

> <Gold.Chemscore.Hbond>
0.9467

> <Gold.Chemscore.Metal>
0.0000

> <Gold.Chemscore.Lipo>
74.8836

> <Gold.Chemscore.Internal_Hbond>
0.0000

> <Gold.Chemscore.DEClash>
1.5420

> <Gold.Chemscore.DEInternal>
0.7466

> <Gold.Chemscore.Rot>
2.8762

> <Gold.Chemscore.Internal.Correction>
   9.000000E+99

> <Gold.Chemscore.Hbonds>
donor molecule, donor type, donor heavy atom, donor atom, acceptor molecule, acceptor atom, score
      P1  H  7997  8008       L1     4  0.55

> <Gold.Chemscore.Hbond.Weighted>
-3.1620

> <Gold.Chemscore.Metal.Weighted>
-0.0000

> <Gold.Chemscore.Lipo.Weighted>
-8.7614

> <Gold.Chemscore.Internal_Hbond.Weighted>
0.0000

> <Gold.Chemscore.DEClash.Weighted>
1.5420

> <Gold.Chemscore.DEInternal.Weighted>
0.7466

> <Gold.Chemscore.Rot.Weighted>
7.3631

> <Gold.Chemscore.Internal.Correction.Weighted>
   9.000000E+99

> <Gold.Protein.RotatedTorsions>
[ 6907 6896 6895 6894 ] final  155.56 input  -60.11 | X-H torsion
[ 7974 7965 7964 7962 ] final  -25.41 input  175.53 | X-H torsion
[ 8008 7997 7996 7995 ] final  -83.07 input   59.86 | X-H torsion
[ 10167 10162 10161 10158 ] final   56.92 input  -65.29 | X-H torsion
[ 10718 10713 10712 10709 ] final  -13.69 input   66.30 | X-H torsion
[ 10763 10752 10751 10750 ] final   52.82 input  -60.55 | X-H torsion
[ 11005 11000 10999 10996 ] final  157.80 input  -57.11 | X-H torsion

> <Gold.Protein.ActiveResidues>
 VAL166  LYS551  ARG553  GLY616  TRP617  ASP618  TYR619  PRO620  LYS621  CYS622 
 ASP623  PHE694  ASN695  SER759  ASP760  ASP761  ALA762  ILE779  LEU786  VAL792 
 PHE793  MET794  SER795  GLU796  ALA797  LYS798  CYS799  TRP800  GLU811  SER814 

> <Gold.Protein.RotatedAtoms>
  152.0425  133.3983  159.4342 H   0  0  0  0  0  0  0  0  0  0  0  0  # atno 6907 bound_to 6896
  150.6875  134.3399  159.4873 H   0  0  0  0  0  0  0  0  0  0  0  0  # atno 6908 bound_to 6896
  152.1199  134.9212  160.0614 H   0  0  0  0  0  0  0  0  0  0  0  0  # atno 6909 bound_to 6896
  146.1493  140.4882  142.8618 H   0  0  0  0  0  0  0  0  0  0  0  0  # atno 7974 bound_to 7965
  154.6152  140.0624  156.9545 H   0  0  0  0  0  0  0  0  0  0  0  0  # atno 8008 bound_to 7997
  155.1907  140.3307  155.4341 H   0  0  0  0  0  0  0  0  0  0  0  0  # atno 8009 bound_to 7997
  156.2400  140.1881  156.6998 H   0  0  0  0  0  0  0  0  0  0  0  0  # atno 8010 bound_to 7997
  140.2035  144.3963  150.6519 H   0  0  0  0  0  0  0  0  0  0  0  0  # atno 10167 bound_to 10162
  156.6266  130.4890  149.6144 H   0  0  0  0  0  0  0  0  0  0  0  0  # atno 10718 bound_to 10713
  152.9791  135.5799  154.4642 H   0  0  0  0  0  0  0  0  0  0  0  0  # atno 10763 bound_to 10752
  154.4213  135.2771  155.1975 H   0  0  0  0  0  0  0  0  0  0  0  0  # atno 10764 bound_to 10752
  154.3723  135.6165  153.5800 H   0  0  0  0  0  0  0  0  0  0  0  0  # atno 10765 bound_to 10752
  140.1804  134.8480  157.2796 H   0  0  0  0  0  0  0  0  0  0  0  0  # atno 11005 bound_to 11000
  144.7884  140.5983  143.6558 LP  0  0  0  0  0  0  0  0  0  0  0  0  # atno 17320 bound_to 7965
  145.4862  139.1492  143.3735 LP  0  0  0  0  0  0  0  0  0  0  0  0  # atno 17321 bound_to 7965
  140.6374  143.2197  151.6366 LP  0  0  0  0  0  0  0  0  0  0  0  0  # atno 17342 bound_to 10162
  139.5208  144.3213  152.0908 LP  0  0  0  0  0  0  0  0  0  0  0  0  # atno 17343 bound_to 10162
  156.2268  130.6771  151.1424 LP  0  0  0  0  0  0  0  0  0  0  0  0  # atno 17370 bound_to 10713
  157.7212  131.0680  150.6126 LP  0  0  0  0  0  0  0  0  0  0  0  0  # atno 17371 bound_to 10713
  140.2274  134.3950  155.7537 LP  0  0  0  0  0  0  0  0  0  0  0  0  # atno 17394 bound_to 11000
  141.2222  133.7197  156.8587 LP  0  0  0  0  0  0  0  0  0  0  0  0  # atno 17395 bound_to 11000

$$$$
