AV-unprocessed.smi:2076|AV-procd|sdf|8458|dock7
  -GOLD-   2272011153D 1   1.00000     0.00000
 Structure written by MMmdl.
 44 45  0  0  0  0  0  0  0  0  1 V2000
  147.8912  132.2535  153.3716 C   0  0  0  0  0  0  0  0  0  0  0  0
  146.8804  132.8253  152.4219 C   0  0  0  0  0  0  0  0  0  0  0  0
  146.0012  132.1296  151.5458 C   0  0  0  0  0  0  0  0  0  0  0  0
  145.3010  133.1185  150.9141 C   0  0  0  0  0  0  0  0  0  0  0  0
  144.2263  133.0273  149.8812 C   0  0  0  0  0  0  0  0  0  0  0  0
  145.7676  134.3221  151.4131 N   0  0  0  0  0  0  0  0  0  0  0  0
  145.3526  135.6766  151.0824 C   0  0  0  0  0  0  0  0  0  0  0  0
  145.3836  136.5816  152.3147 C   0  0  0  0  0  0  0  0  0  0  0  0
  144.3356  136.8831  152.8852 O   0  0  0  0  0  0  0  0  0  0  0  0
  146.5912  137.0065  152.7129 N   0  0  0  0  0  0  0  0  0  0  0  0
  146.8321  137.8695  153.8633 C   0  0  0  0  0  0  0  0  0  0  0  0
  147.6392  139.1426  153.4869 C   0  0  1  0  0  0  0  0  0  0  0  0
  146.6467  140.2527  153.0558 C   0  0  0  0  0  0  0  0  0  0  0  0
  148.5651  139.5900  154.5538 N   0  0  0  0  0  0  0  0  0  0  0  0
  148.9560  140.9967  154.4040 C   0  0  0  0  0  0  0  0  0  0  0  0
  149.9389  141.4647  155.4912 C   0  0  0  0  0  0  0  0  0  0  0  0
  151.0913  140.6338  155.4854 O   0  0  0  0  0  0  0  0  0  0  0  0
  150.7647  139.2693  155.7078 C   0  0  0  0  0  0  0  0  0  0  0  0
  149.7906  138.7852  154.6198 C   0  0  0  0  0  0  0  0  0  0  0  0
  146.7362  134.1376  152.3374 N   0  0  0  0  0  0  0  0  0  0  0  0
  147.8629  131.1637  153.3677 H   0  0  0  0  0  0  0  0  0  0  0  0
  147.7035  132.5860  154.3929 H   0  0  0  0  0  0  0  0  0  0  0  0
  148.9015  132.5598  153.1000 H   0  0  0  0  0  0  0  0  0  0  0  0
  145.8986  131.0640  151.4035 H   0  0  0  0  0  0  0  0  0  0  0  0
  144.0791  131.9950  149.5635 H   0  0  0  0  0  0  0  0  0  0  0  0
  144.4809  133.6142  148.9990 H   0  0  0  0  0  0  0  0  0  0  0  0
  143.2787  133.3961  150.2739 H   0  0  0  0  0  0  0  0  0  0  0  0
  146.0078  136.0798  150.3082 H   0  0  0  0  0  0  0  0  0  0  0  0
  144.3472  135.6503  150.6612 H   0  0  0  0  0  0  0  0  0  0  0  0
  147.3991  136.7045  152.1876 H   0  0  0  0  0  0  0  0  0  0  0  0
  145.8830  138.1531  154.3221 H   0  0  0  0  0  0  0  0  0  0  0  0
  147.3662  137.2529  154.5844 H   0  0  0  0  0  0  0  0  0  0  0  0
  148.2363  138.8907  152.6090 H   0  0  0  0  0  0  0  0  0  0  0  0
  145.9273  139.9070  152.3142 H   0  0  0  0  0  0  0  0  0  0  0  0
  147.1498  141.0979  152.5882 H   0  0  0  0  0  0  0  0  0  0  0  0
  146.0803  140.6266  153.9094 H   0  0  0  0  0  0  0  0  0  0  0  0
  149.4029  141.1538  153.4211 H   0  0  0  0  0  0  0  0  0  0  0  0
  148.0847  141.6463  154.4629 H   0  0  0  0  0  0  0  0  0  0  0  0
  150.2436  142.4949  155.3069 H   0  0  0  0  0  0  0  0  0  0  0  0
  149.4676  141.4411  156.4749 H   0  0  0  0  0  0  0  0  0  0  0  0
  151.6795  138.6767  155.6875 H   0  0  0  0  0  0  0  0  0  0  0  0
  150.3273  139.1479  156.7002 H   0  0  0  0  0  0  0  0  0  0  0  0
  149.5589  137.7466  154.8465 H   0  0  0  0  0  0  0  0  0  0  0  0
  150.2935  138.7961  153.6517 H   0  0  0  0  0  0  0  0  0  0  0  0
  1  2  1  0  0  0  0
  1 21  1  0  0  0  0
  1 22  1  0  0  0  0
  1 23  1  0  0  0  0
  2 20  2  0  0  0  0
  2  3  1  0  0  0  0
  3  4  2  0  0  0  0
  3 24  1  0  0  0  0
  4  5  1  0  0  0  0
  4  6  1  0  0  0  0
  5 25  1  0  0  0  0
  5 26  1  0  0  0  0
  5 27  1  0  0  0  0
  6  7  1  0  0  0  0
  6 20  1  0  0  0  0
  7  8  1  0  0  0  0
  7 28  1  0  0  0  0
  7 29  1  0  0  0  0
  8  9  2  0  0  0  0
  8 10  1  0  0  0  0
 10 11  1  0  0  0  0
 10 30  1  0  0  0  0
 11 12  1  0  0  0  0
 11 31  1  0  0  0  0
 11 32  1  0  0  0  0
 12 13  1  0  0  0  0
 12 14  1  0  0  0  0
 12 33  1  0  0  0  0
 13 34  1  0  0  0  0
 13 35  1  0  0  0  0
 13 36  1  0  0  0  0
 14 19  1  0  0  0  0
 14 15  1  0  0  0  0
 15 16  1  0  0  0  0
 15 37  1  0  0  0  0
 15 38  1  0  0  0  0
 16 17  1  0  0  0  0
 16 39  1  0  0  0  0
 16 40  1  0  0  0  0
 17 18  1  0  0  0  0
 18 19  1  0  0  0  0
 18 41  1  0  0  0  0
 18 42  1  0  0  0  0
 19 43  1  0  0  0  0
 19 44  1  0  0  0  0
M  END
> <s_m_source_file>
AV-unprocessed.smi

> <i_m_source_file_index>
2076

> <i_lp_mmshare_version>
43012

> <i_f3d_flags>
0

> <s_epik_input>
W0NIM11jMVtjSF1jKFtDSDNdKW4objEpW0NIMl1DKD1PKVtOSF1bQ0gyXVtDQEhdKFtDSDNdKU4yW0NIMl1bQ0gyXU9bQ0gyXVtDSDJdMg==

> <s_epik_cmdline>
J2VwaWtfcHl0aG9uJywgJy1waCcsICc3LjAnLCAnLXRuJywgJzgnLCAnLW1hJywgJzIwMCcsICctbWV0YWxfYmluZGluZycsICctaW1hZScsICc8aW5maWxlLm1hZT4nLCAnLW9tYWUnLCAnPG91dGZpbGUubWFlPic=

> <r_lp_tautomer_probability>
1

> <r_epik_Ionization_Penalty>
0.197284

> <r_epik_Ionization_Penalty_Charging>
0

> <r_epik_Ionization_Penalty_Neutral>
0.197284

> <r_epik_State_Penalty>
0.186684

> <r_epik_Charging_Adjusted_Penalty>
0.186684

> <i_epik_Tot_Q>
0

> <i_epik_Tot_abs_Q>
0

> <r_epik_Metal_State_Penalty>
0.186636

> <b_epik_Metal_Only>
0

> <s_lp_Force_Field>
OPLS_2005

> <r_lp_Energy>
27.1724

> <b_lp_Chiralities_Consistent>
1

> <s_lp_Variant>
AV-unprocessed.smi:2076-2

> <Gold.Version>
5.8.1

> <Gold.Id.Protein>
6NUR|6NUR_protein|mol2

> <Gold.PLP.Fitness>
37.7841

> <Gold.PLP.PLP>
-34.9816

> <Gold.PLP.part.hbond>
-2.0000

> <Gold.PLP.part.metal>
0.0000

> <Gold.PLP.part.buried>
-3.2292

> <Gold.PLP.part.nonpolar>
-31.3889

> <Gold.PLP.part.repulsive>
1.2756

> <Gold.PLP.ligand.clash>
0.0000

> <Gold.PLP.ligand.torsion>
1.3869

> <Gold.PLP.Chemscore.Hbond>
1.8360

> <Gold.PLP.Chemscore.CHOScore>
0.0000

> <Gold.PLP.Chemscore.Metal>
0.0000

> <Gold.Chemscore.Hbonds>
donor molecule, donor type, donor heavy atom, donor atom, acceptor molecule, acceptor atom, score
      L1  H    10    30       P1  7948  1.00
      P1  H  7989  7998       L1    17  0.71

> <Gold.PLP.Chemscore.Internal.Correction>
0.0682

> <Gold.Rescore>
     Score         DG    S(hbond)    S(metal)    S(lipo)     H(rot)  DE(clash)    DE(int)     intcor
     12.23     -14.73       1.04        0.00      86.47       1.70       0.04       2.46       ----

> <Gold.Chemscore.Fitness>
12.2307

> <Gold.Chemscore.DG>
-14.7276

> <Gold.Chemscore.ZeroCoef>
-5.4800

> <Gold.Chemscore.Hbond>
1.0422

> <Gold.Chemscore.Metal>
0.0000

> <Gold.Chemscore.Lipo>
86.4677

> <Gold.Chemscore.Internal_Hbond>
0.0000

> <Gold.Chemscore.DEClash>
0.0362

> <Gold.Chemscore.DEInternal>
2.4607

> <Gold.Chemscore.Rot>
1.6993

> <Gold.Chemscore.Internal.Correction>
   9.000000E+99

> <Gold.Chemscore.Hbonds>
donor molecule, donor type, donor heavy atom, donor atom, acceptor molecule, acceptor atom, score
      L1  H    10    30       P1  7948  0.99
      P1  H  7989  7998       L1    17  0.09

> <Gold.Chemscore.Hbond.Weighted>
-3.4811

> <Gold.Chemscore.Metal.Weighted>
-0.0000

> <Gold.Chemscore.Lipo.Weighted>
-10.1167

> <Gold.Chemscore.Internal_Hbond.Weighted>
0.0000

> <Gold.Chemscore.DEClash.Weighted>
0.0362

> <Gold.Chemscore.DEInternal.Weighted>
2.4607

> <Gold.Chemscore.Rot.Weighted>
4.3502

> <Gold.Chemscore.Internal.Correction.Weighted>
   9.000000E+99

> <Gold.Protein.RotatedTorsions>
[ 6907 6896 6895 6894 ] final  -27.83 input  -60.11 | X-H torsion
[ 7974 7965 7964 7962 ] final   -8.90 input  175.53 | X-H torsion
[ 8008 7997 7996 7995 ] final   53.23 input   59.86 | X-H torsion
[ 10167 10162 10161 10158 ] final   77.79 input  -65.29 | X-H torsion
[ 10718 10713 10712 10709 ] final  103.63 input   66.30 | X-H torsion
[ 10763 10752 10751 10750 ] final   83.54 input  -60.55 | X-H torsion
[ 11005 11000 10999 10996 ] final   76.01 input  -57.11 | X-H torsion

> <Gold.Protein.ActiveResidues>
 VAL166  LYS551  ARG553  GLY616  TRP617  ASP618  TYR619  PRO620  LYS621  CYS622 
 ASP623  PHE694  ASN695  SER759  ASP760  ASP761  ALA762  ILE779  LEU786  VAL792 
 PHE793  MET794  SER795  GLU796  ALA797  LYS798  CYS799  TRP800  GLU811  SER814 

> <Gold.Protein.RotatedAtoms>
  151.1414  135.0181  159.8626 H   0  0  0  0  0  0  0  0  0  0  0  0  # atno 6907 bound_to 6896
  152.5452  134.1495  159.8522 H   0  0  0  0  0  0  0  0  0  0  0  0  # atno 6908 bound_to 6896
  151.1571  133.4824  159.2627 H   0  0  0  0  0  0  0  0  0  0  0  0  # atno 6909 bound_to 6896
  146.2267  140.2536  142.8348 H   0  0  0  0  0  0  0  0  0  0  0  0  # atno 7974 bound_to 7965
  155.4649  140.3463  155.4318 H   0  0  0  0  0  0  0  0  0  0  0  0  # atno 8008 bound_to 7997
  156.1137  140.1468  156.9332 H   0  0  0  0  0  0  0  0  0  0  0  0  # atno 8009 bound_to 7997
  154.4774  140.0880  156.7274 H   0  0  0  0  0  0  0  0  0  0  0  0  # atno 8010 bound_to 7997
  139.9778  144.5848  150.7928 H   0  0  0  0  0  0  0  0  0  0  0  0  # atno 10167 bound_to 10162
  157.6766  131.0784  150.5584 H   0  0  0  0  0  0  0  0  0  0  0  0  # atno 10718 bound_to 10713
  153.1300  135.4687  154.9334 H   0  0  0  0  0  0  0  0  0  0  0  0  # atno 10763 bound_to 10752
  154.7656  135.3143  154.8296 H   0  0  0  0  0  0  0  0  0  0  0  0  # atno 10764 bound_to 10752
  153.8840  135.6891  153.4819 H   0  0  0  0  0  0  0  0  0  0  0  0  # atno 10765 bound_to 10752
  139.9317  134.7565  156.1342 H   0  0  0  0  0  0  0  0  0  0  0  0  # atno 11005 bound_to 11000
  144.9393  140.8060  143.5640 LP  0  0  0  0  0  0  0  0  0  0  0  0  # atno 17320 bound_to 7965
  145.2486  139.2041  143.4954 LP  0  0  0  0  0  0  0  0  0  0  0  0  # atno 17321 bound_to 7965
  140.7500  143.2947  151.3235 LP  0  0  0  0  0  0  0  0  0  0  0  0  # atno 17342 bound_to 10162
  139.6432  144.0499  152.2571 LP  0  0  0  0  0  0  0  0  0  0  0  0  # atno 17343 bound_to 10162
  156.5888  130.4323  149.5945 LP  0  0  0  0  0  0  0  0  0  0  0  0  # atno 17370 bound_to 10713
  156.2601  130.6957  151.1723 LP  0  0  0  0  0  0  0  0  0  0  0  0  # atno 17371 bound_to 10713
  141.0910  133.6714  156.2540 LP  0  0  0  0  0  0  0  0  0  0  0  0  # atno 17394 bound_to 11000
  140.6183  134.5387  157.5544 LP  0  0  0  0  0  0  0  0  0  0  0  0  # atno 17395 bound_to 11000

$$$$
