AV-unprocessed.smi:3246|AV-procd|sdf|12410|dock3
  -GOLD-   2272018293D 1   1.00000     0.00000
 Structure written by MMmdl.
 35 36  0  0  0  0  0  0  0  0  1 V2000
  150.6098  139.9974  154.6850 O   0  0  0  0  0  0  0  0  0  0  0  0
  151.2607  139.8316  155.7160 C   0  0  0  0  0  0  0  0  0  0  0  0
  151.9259  138.4676  155.9640 C   0  0  0  0  0  0  0  0  0  0  0  0
  151.0189  137.3176  155.9165 N   0  0  0  0  0  0  0  0  0  0  0  0
  149.6336  137.4830  155.5076 C   0  0  0  0  0  0  0  0  0  0  0  0
  149.0885  136.0551  155.3619 C   0  0  0  0  0  0  0  0  0  0  0  0
  150.1112  135.1464  156.0525 C   0  0  0  0  0  0  0  0  0  0  0  0
  151.3170  136.0520  156.2366 C   0  0  0  0  0  0  0  0  0  0  0  0
  152.4097  135.6400  156.6220 O   0  0  0  0  0  0  0  0  0  0  0  0
  151.4194  140.7979  156.6367 N   0  0  0  0  0  0  0  0  0  0  0  0
  150.8580  142.1401  156.5525 C   0  0  0  0  0  0  0  0  0  0  0  0
  150.0042  142.4735  157.7861 C   0  0  0  0  0  0  0  0  0  0  0  0
  150.8207  143.1278  158.8829 C   0  0  0  0  0  0  0  0  0  0  0  0
  151.9042  142.4531  159.4823 C   0  0  0  0  0  0  0  0  0  0  0  0
  152.6274  143.1030  160.5010 C   0  0  0  0  0  0  0  0  0  0  0  0
  152.2347  144.4029  160.8778 C   0  0  0  0  0  0  0  0  0  0  0  0
  151.1984  145.0582  160.3112 N   0  0  0  0  0  0  0  0  0  0  0  0
  150.5102  144.4280  159.3349 C   0  0  0  0  0  0  0  0  0  0  0  0
  152.7244  138.3318  155.2327 H   0  0  0  0  0  0  0  0  0  0  0  0
  152.4118  138.4972  156.9400 H   0  0  0  0  0  0  0  0  0  0  0  0
  149.0933  138.0308  156.2809 H   0  0  0  0  0  0  0  0  0  0  0  0
  149.5579  138.0427  154.5745 H   0  0  0  0  0  0  0  0  0  0  0  0
  148.0936  135.9564  155.7974 H   0  0  0  0  0  0  0  0  0  0  0  0
  149.0118  135.7898  154.3065 H   0  0  0  0  0  0  0  0  0  0  0  0
  149.7555  134.8143  157.0282 H   0  0  0  0  0  0  0  0  0  0  0  0
  150.3573  134.2707  155.4515 H   0  0  0  0  0  0  0  0  0  0  0  0
  151.9646  140.5825  157.4589 H   0  0  0  0  0  0  0  0  0  0  0  0
  151.6575  142.8726  156.4285 H   0  0  0  0  0  0  0  0  0  0  0  0
  150.2460  142.1930  155.6516 H   0  0  0  0  0  0  0  0  0  0  0  0
  149.1839  143.1360  157.5063 H   0  0  0  0  0  0  0  0  0  0  0  0
  149.5453  141.5680  158.1857 H   0  0  0  0  0  0  0  0  0  0  0  0
  152.1768  141.4558  159.1699 H   0  0  0  0  0  0  0  0  0  0  0  0
  153.4630  142.6170  160.9826 H   0  0  0  0  0  0  0  0  0  0  0  0
  152.7674  144.9304  161.6552 H   0  0  0  0  0  0  0  0  0  0  0  0
  149.6857  144.9768  158.9037 H   0  0  0  0  0  0  0  0  0  0  0  0
  1  2  2  0  0  0  0
  2  3  1  0  0  0  0
  2 10  1  0  0  0  0
  3  4  1  0  0  0  0
  3 19  1  0  0  0  0
  3 20  1  0  0  0  0
  4  8  1  0  0  0  0
  4  5  1  0  0  0  0
  5  6  1  0  0  0  0
  5 21  1  0  0  0  0
  5 22  1  0  0  0  0
  6  7  1  0  0  0  0
  6 23  1  0  0  0  0
  6 24  1  0  0  0  0
  7  8  1  0  0  0  0
  7 25  1  0  0  0  0
  7 26  1  0  0  0  0
  8  9  2  0  0  0  0
 10 11  1  0  0  0  0
 10 27  1  0  0  0  0
 11 12  1  0  0  0  0
 11 28  1  0  0  0  0
 11 29  1  0  0  0  0
 12 13  1  0  0  0  0
 12 30  1  0  0  0  0
 12 31  1  0  0  0  0
 13 18  1  0  0  0  0
 13 14  2  0  0  0  0
 14 15  1  0  0  0  0
 14 32  1  0  0  0  0
 15 16  2  0  0  0  0
 15 33  1  0  0  0  0
 16 17  1  0  0  0  0
 16 34  1  0  0  0  0
 17 18  2  0  0  0  0
 18 35  1  0  0  0  0
M  END
> <s_m_source_file>
AV-unprocessed.smi

> <i_m_source_file_index>
3246

> <i_lp_mmshare_version>
43012

> <i_f3d_flags>
0

> <s_epik_input>
Tz1DMVtDSDJdW0NIMl1bQ0gyXU4xW0NIMl1DKD1PKVtOSF1bQ0gyXVtDSDJdYzJbY0hdW2NIXVtjSF1uW2NIXTI=

> <s_epik_cmdline>
J2VwaWtfcHl0aG9uJywgJy1waCcsICc3LjAnLCAnLXRuJywgJzgnLCAnLW1hJywgJzIwMCcsICctbWV0YWxfYmluZGluZycsICctaW1hZScsICc8aW5maWxlLm1hZT4nLCAnLW9tYWUnLCAnPG91dGZpbGUubWFlPic=

> <r_epik_Ionization_Penalty>
0.0129263

> <r_epik_Ionization_Penalty_Charging>
0

> <r_epik_Ionization_Penalty_Neutral>
0.0129263

> <r_epik_State_Penalty>
0.0100328

> <r_epik_Charging_Adjusted_Penalty>
0.0100328

> <i_epik_Tot_Q>
0

> <i_epik_Tot_abs_Q>
0

> <r_epik_Metal_State_Penalty>
0.00981748

> <b_epik_Metal_Only>
0

> <s_lp_Force_Field>
OPLS_2005

> <r_lp_Energy>
11.4517

> <b_lp_Chiralities_Consistent>
1

> <s_lp_Variant>
AV-unprocessed.smi:3246-1

> <Gold.Version>
5.8.1

> <Gold.Id.Protein>
6NUR|6NUR_protein|mol2

> <Gold.PLP.Fitness>
39.5808

> <Gold.PLP.PLP>
-31.1126

> <Gold.PLP.part.hbond>
-2.0000

> <Gold.PLP.part.metal>
0.0000

> <Gold.PLP.part.buried>
-5.6119

> <Gold.PLP.part.nonpolar>
-23.4918

> <Gold.PLP.part.repulsive>
0.3842

> <Gold.PLP.ligand.clash>
0.0000

> <Gold.PLP.ligand.torsion>
0.2784

> <Gold.PLP.Chemscore.Hbond>
2.0000

> <Gold.PLP.Chemscore.CHOScore>
1.0000

> <Gold.PLP.Chemscore.Metal>
0.0000

> <Gold.Chemscore.Hbonds>
donor molecule, donor type, donor heavy atom, donor atom, acceptor molecule, acceptor atom, score
      P1  H  7989  7998       L1     1  1.00
      P1  H 10752 10764       L1     9  1.00
      L1  C    18    35       P1  8029  0.83

> <Gold.PLP.Chemscore.Internal.Correction>
0.0250

> <Gold.Rescore>
     Score         DG    S(hbond)    S(metal)    S(lipo)     H(rot)  DE(clash)    DE(int)     intcor
     16.05     -16.46       1.97        0.00      78.10       1.85       0.02       0.39       ----

> <Gold.Chemscore.Fitness>
16.0473

> <Gold.Chemscore.DG>
-16.4602

> <Gold.Chemscore.ZeroCoef>
-5.4800

> <Gold.Chemscore.Hbond>
1.9690

> <Gold.Chemscore.Metal>
0.0000

> <Gold.Chemscore.Lipo>
78.1043

> <Gold.Chemscore.Internal_Hbond>
0.0000

> <Gold.Chemscore.DEClash>
0.0224

> <Gold.Chemscore.DEInternal>
0.3905

> <Gold.Chemscore.Rot>
1.8494

> <Gold.Chemscore.Internal.Correction>
   9.000000E+99

> <Gold.Chemscore.Hbonds>
donor molecule, donor type, donor heavy atom, donor atom, acceptor molecule, acceptor atom, score
      P1  H  7989  7998       L1     1  0.70
      P1  H 10752 10764       L1     9  0.55

> <Gold.Chemscore.Hbond.Weighted>
-6.5763

> <Gold.Chemscore.Metal.Weighted>
-0.0000

> <Gold.Chemscore.Lipo.Weighted>
-9.1382

> <Gold.Chemscore.Internal_Hbond.Weighted>
0.0000

> <Gold.Chemscore.DEClash.Weighted>
0.0224

> <Gold.Chemscore.DEInternal.Weighted>
0.3905

> <Gold.Chemscore.Rot.Weighted>
4.7344

> <Gold.Chemscore.Internal.Correction.Weighted>
   9.000000E+99

> <Gold.Protein.RotatedTorsions>
[ 6907 6896 6895 6894 ] final -168.25 input  -60.11 | X-H torsion
[ 7974 7965 7964 7962 ] final -177.78 input  175.53 | X-H torsion
[ 8008 7997 7996 7995 ] final   19.76 input   59.86 | X-H torsion
[ 10167 10162 10161 10158 ] final   31.55 input  -65.29 | X-H torsion
[ 10718 10713 10712 10709 ] final  155.71 input   66.30 | X-H torsion
[ 10763 10752 10751 10750 ] final  -13.94 input  -60.55 | X-H torsion
[ 11005 11000 10999 10996 ] final -110.15 input  -57.11 | X-H torsion

> <Gold.Protein.ActiveResidues>
 VAL166  LYS551  ARG553  GLY616  TRP617  ASP618  TYR619  PRO620  LYS621  CYS622 
 ASP623  PHE694  ASN695  SER759  ASP760  ASP761  ALA762  ILE779  LEU786  VAL792 
 PHE793  MET794  SER795  GLU796  ALA797  LYS798  CYS799  TRP800  GLU811  SER814 

> <Gold.Protein.RotatedAtoms>
  151.4725  133.3565  159.2825 H   0  0  0  0  0  0  0  0  0  0  0  0  # atno 6907 bound_to 6896
  150.8951  134.8360  159.7332 H   0  0  0  0  0  0  0  0  0  0  0  0  # atno 6908 bound_to 6896
  152.4846  134.4639  159.9666 H   0  0  0  0  0  0  0  0  0  0  0  0  # atno 6909 bound_to 6896
  144.7128  140.0968  143.6418 H   0  0  0  0  0  0  0  0  0  0  0  0  # atno 7974 bound_to 7965
  154.9255  140.3033  155.5194 H   0  0  0  0  0  0  0  0  0  0  0  0  # atno 8008 bound_to 7997
  156.3007  140.2363  156.4246 H   0  0  0  0  0  0  0  0  0  0  0  0  # atno 8009 bound_to 7997
  154.8289  140.0419  157.1452 H   0  0  0  0  0  0  0  0  0  0  0  0  # atno 8010 bound_to 7997
  140.4578  144.0951  150.6206 H   0  0  0  0  0  0  0  0  0  0  0  0  # atno 10167 bound_to 10162
  157.2147  131.0705  151.1948 H   0  0  0  0  0  0  0  0  0  0  0  0  # atno 10718 bound_to 10713
  153.5208  135.7015  153.5732 H   0  0  0  0  0  0  0  0  0  0  0  0  # atno 10763 bound_to 10752
  153.3782  135.3927  155.1838 H   0  0  0  0  0  0  0  0  0  0  0  0  # atno 10764 bound_to 10752
  154.8695  135.3828  154.4697 H   0  0  0  0  0  0  0  0  0  0  0  0  # atno 10765 bound_to 10752
  141.0808  133.9223  157.2293 H   0  0  0  0  0  0  0  0  0  0  0  0  # atno 11005 bound_to 11000
  145.9572  139.2775  143.1177 LP  0  0  0  0  0  0  0  0  0  0  0  0  # atno 17320 bound_to 7965
  145.9259  140.9082  143.0381 LP  0  0  0  0  0  0  0  0  0  0  0  0  # atno 17321 bound_to 7965
  140.4129  143.2648  151.9810 LP  0  0  0  0  0  0  0  0  0  0  0  0  # atno 17342 bound_to 10162
  139.4803  144.5899  151.7789 LP  0  0  0  0  0  0  0  0  0  0  0  0  # atno 17343 bound_to 10162
  157.3636  130.7144  149.6518 LP  0  0  0  0  0  0  0  0  0  0  0  0  # atno 17370 bound_to 10713
  155.9687  130.4218  150.4488 LP  0  0  0  0  0  0  0  0  0  0  0  0  # atno 17371 bound_to 10713
  139.9622  135.0151  156.9290 LP  0  0  0  0  0  0  0  0  0  0  0  0  # atno 17394 bound_to 11000
  140.5473  134.0661  155.7359 LP  0  0  0  0  0  0  0  0  0  0  0  0  # atno 17395 bound_to 11000

$$$$
