AV-unprocessed.smi:843|AV-procd|sdf|3922|dock5
  -GOLD-   22720 1383D 1   1.00000     0.00000
 Structure written by MMmdl.
 46 47  0  0  0  0  0  0  0  0  2 V2000
  150.6823  142.7881  157.9248 C   0  0  0  0  0  0  0  0  0  0  0  0
  149.4740  141.8583  157.7387 C   0  0  0  0  0  0  0  0  0  0  0  0
  148.8204  142.0232  156.4155 N   0  3  2  0  0  0  0  0  0  0  0  0
  147.4034  141.5752  156.4347 C   0  0  0  0  0  0  0  0  0  0  0  0
  146.7030  141.8585  155.0923 C   0  0  0  0  0  0  0  0  0  0  0  0
  147.4477  141.2288  153.9002 C   0  0  2  0  0  0  0  0  0  0  0  0
  147.2598  139.6939  153.8407 C   0  0  0  0  0  0  0  0  0  0  0  0
  145.8920  139.3140  153.4979 N   0  0  0  0  0  0  0  0  0  0  0  0
  145.3480  138.1037  153.6920 C   0  0  0  0  0  0  0  0  0  0  0  0
  145.9550  137.1629  154.2025 O   0  0  0  0  0  0  0  0  0  0  0  0
  144.0753  138.0712  153.2612 N   0  0  0  0  0  0  0  0  0  0  0  0
  143.1585  136.9824  153.2435 C   0  0  0  0  0  0  0  0  0  0  0  0
  143.5242  135.6402  152.9753 C   0  0  0  0  0  0  0  0  0  0  0  0
  142.5267  134.6481  152.9681 C   0  0  0  0  0  0  0  0  0  0  0  0
  141.1976  135.0313  153.2220 C   0  0  0  0  0  0  0  0  0  0  0  0
  140.8313  136.3059  153.4666 N   0  0  0  0  0  0  0  0  0  0  0  0
  141.7911  137.2647  153.4737 C   0  0  0  0  0  0  0  0  0  0  0  0
  141.4111  138.5713  153.7159 O   0  0  0  0  0  0  0  0  0  0  0  0
  140.0224  138.8675  153.8185 C   0  0  0  0  0  0  0  0  0  0  0  0
  148.9182  141.6929  153.9449 C   0  0  0  0  0  0  0  0  0  0  0  0
  149.5789  141.3944  155.3019 C   0  0  0  0  0  0  0  0  0  0  0  0
  151.0637  142.7190  158.9438 H   0  0  0  0  0  0  0  0  0  0  0  0
  150.4113  143.8288  157.7448 H   0  0  0  0  0  0  0  0  0  0  0  0
  151.5047  142.5321  157.2576 H   0  0  0  0  0  0  0  0  0  0  0  0
  149.7634  140.8168  157.8866 H   0  0  0  0  0  0  0  0  0  0  0  0
  148.7531  142.0930  158.5229 H   0  0  0  0  0  0  0  0  0  0  0  0
  147.3589  140.5120  156.6745 H   0  0  0  0  0  0  0  0  0  0  0  0
  146.8672  142.0958  157.2289 H   0  0  0  0  0  0  0  0  0  0  0  0
  145.6726  141.5029  155.1259 H   0  0  0  0  0  0  0  0  0  0  0  0
  146.6432  142.9378  154.9461 H   0  0  0  0  0  0  0  0  0  0  0  0
  147.0039  141.6330  152.9890 H   0  0  0  0  0  0  0  0  0  0  0  0
  147.9720  139.2341  153.1548 H   0  0  0  0  0  0  0  0  0  0  0  0
  147.4752  139.2653  154.8199 H   0  0  0  0  0  0  0  0  0  0  0  0
  145.3156  140.0285  153.0773 H   0  0  0  0  0  0  0  0  0  0  0  0
  143.6988  138.9480  152.9314 H   0  0  0  0  0  0  0  0  0  0  0  0
  144.5401  135.3490  152.7619 H   0  0  0  0  0  0  0  0  0  0  0  0
  142.7755  133.6165  152.7675 H   0  0  0  0  0  0  0  0  0  0  0  0
  140.4064  134.2963  153.2225 H   0  0  0  0  0  0  0  0  0  0  0  0
  139.8934  139.9349  153.9969 H   0  0  0  0  0  0  0  0  0  0  0  0
  139.5612  138.3347  154.6514 H   0  0  0  0  0  0  0  0  0  0  0  0
  139.4924  138.6210  152.8973 H   0  0  0  0  0  0  0  0  0  0  0  0
  149.4966  141.2452  153.1374 H   0  0  0  0  0  0  0  0  0  0  0  0
  148.9560  142.7685  153.7667 H   0  0  0  0  0  0  0  0  0  0  0  0
  150.5997  141.7733  155.2786 H   0  0  0  0  0  0  0  0  0  0  0  0
  149.6493  140.3187  155.4666 H   0  0  0  0  0  0  0  0  0  0  0  0
  148.7979  143.0157  156.2300 H   0  0  0  0  0  0  0  0  0  0  0  0
  1  2  1  0  0  0  0
  1 22  1  0  0  0  0
  1 23  1  0  0  0  0
  1 24  1  0  0  0  0
  2  3  1  0  0  0  0
  2 25  1  0  0  0  0
  2 26  1  0  0  0  0
  3 21  1  0  0  0  0
  3  4  1  0  0  0  0
  3 46  1  0  0  0  0
  4  5  1  0  0  0  0
  4 27  1  0  0  0  0
  4 28  1  0  0  0  0
  5  6  1  0  0  0  0
  5 29  1  0  0  0  0
  5 30  1  0  0  0  0
  6  7  1  0  0  0  0
  6 20  1  0  0  0  0
  6 31  1  0  0  0  0
  7  8  1  0  0  0  0
  7 32  1  0  0  0  0
  7 33  1  0  0  0  0
  8  9  1  0  0  0  0
  8 34  1  0  0  0  0
  9 10  2  0  0  0  0
  9 11  1  0  0  0  0
 11 12  1  0  0  0  0
 11 35  1  0  0  0  0
 12 17  1  0  0  0  0
 12 13  2  0  0  0  0
 13 14  1  0  0  0  0
 13 36  1  0  0  0  0
 14 15  2  0  0  0  0
 14 37  1  0  0  0  0
 15 16  1  0  0  0  0
 15 38  1  0  0  0  0
 16 17  2  0  0  0  0
 17 18  1  0  0  0  0
 18 19  1  0  0  0  0
 19 39  1  0  0  0  0
 19 40  1  0  0  0  0
 19 41  1  0  0  0  0
 20 21  1  0  0  0  0
 20 42  1  0  0  0  0
 20 43  1  0  0  0  0
 21 44  1  0  0  0  0
 21 45  1  0  0  0  0
M  CHG  1   3   1
M  END
> <s_m_source_file>
AV-unprocessed.smi

> <i_m_source_file_index>
843

> <i_lp_mmshare_version>
43012

> <i_f3d_flags>
0

> <s_epik_input>
W0NIM11bQ0gyXU4xW0NIMl1bQ0gyXVtDSF0oW0NIMl1bQ0gyXTEpW0NIMl1bTkhdQyg9TylbTkhdYzJbY0hdW2NIXVtjSF1uYzJPW0NIM10=

> <s_epik_cmdline>
J2VwaWtfcHl0aG9uJywgJy1waCcsICc3LjAnLCAnLXRuJywgJzgnLCAnLW1hJywgJzIwMCcsICctbWV0YWxfYmluZGluZycsICctaW1hZScsICc8aW5maWxlLm1hZT4nLCAnLW9tYWUnLCAnPG91dGZpbGUubWFlPic=

> <r_lp_tautomer_probability>
1

> <r_epik_Ionization_Penalty>
0.00115026

> <r_epik_Ionization_Penalty_Charging>
0.00106265

> <r_epik_Ionization_Penalty_Neutral>
8.76119e-05

> <r_epik_State_Penalty>
0.000695551

> <r_epik_Charging_Adjusted_Penalty>
0.0017582

> <i_epik_Tot_Q>
1

> <i_epik_Tot_abs_Q>
1

> <r_epik_Metal_State_Penalty>
-0

> <b_epik_Metal_Only>
0

> <s_lp_Force_Field>
OPLS_2005

> <r_lp_Energy>
22.0854

> <b_lp_Chiralities_Consistent>
1

> <s_lp_Variant>
AV-unprocessed.smi:843-2

> <Gold.Version>
5.8.1

> <Gold.Id.Protein>
6NUR|6NUR_protein|mol2

> <Gold.PLP.Fitness>
41.1698

> <Gold.PLP.PLP>
-30.5002

> <Gold.PLP.part.hbond>
-3.0000

> <Gold.PLP.part.metal>
0.0000

> <Gold.PLP.part.buried>
-2.1945

> <Gold.PLP.part.nonpolar>
-26.3369

> <Gold.PLP.part.repulsive>
0.4627

> <Gold.PLP.ligand.clash>
0.0000

> <Gold.PLP.ligand.torsion>
0.6557

> <Gold.PLP.Chemscore.Hbond>
3.9440

> <Gold.PLP.Chemscore.CHOScore>
0.0360

> <Gold.PLP.Chemscore.Metal>
0.0000

> <Gold.Chemscore.Hbonds>
donor molecule, donor type, donor heavy atom, donor atom, acceptor molecule, acceptor atom, score
      L1  H     3    46       P1  8028  2.00
      L1  H     8    34       P1 10175  0.94
      L1  H    11    35       P1 10175  1.00
      L1  C    15    38       P1 10187  0.03

> <Gold.PLP.Chemscore.Internal.Correction>
0.0410

> <Gold.Rescore>
     Score         DG    S(hbond)    S(metal)    S(lipo)     H(rot)  DE(clash)    DE(int)     intcor
     17.84     -19.70       2.93        0.00      73.97       1.65       1.20       0.67       ----

> <Gold.Chemscore.Fitness>
17.8385

> <Gold.Chemscore.DG>
-19.7048

> <Gold.Chemscore.ZeroCoef>
-5.4800

> <Gold.Chemscore.Hbond>
2.9319

> <Gold.Chemscore.Metal>
0.0000

> <Gold.Chemscore.Lipo>
73.9685

> <Gold.Chemscore.Internal_Hbond>
0.0000

> <Gold.Chemscore.DEClash>
1.1980

> <Gold.Chemscore.DEInternal>
0.6683

> <Gold.Chemscore.Rot>
1.6492

> <Gold.Chemscore.Internal.Correction>
   9.000000E+99

> <Gold.Chemscore.Hbonds>
donor molecule, donor type, donor heavy atom, donor atom, acceptor molecule, acceptor atom, score
      L1  H     3    46       P1  8028  0.99
      L1  H     8    34       P1 10175  0.91
      L1  H    11    35       P1 10175  0.96

> <Gold.Chemscore.Hbond.Weighted>
-9.7924

> <Gold.Chemscore.Metal.Weighted>
-0.0000

> <Gold.Chemscore.Lipo.Weighted>
-8.6543

> <Gold.Chemscore.Internal_Hbond.Weighted>
0.0000

> <Gold.Chemscore.DEClash.Weighted>
1.1980

> <Gold.Chemscore.DEInternal.Weighted>
0.6683

> <Gold.Chemscore.Rot.Weighted>
4.2219

> <Gold.Chemscore.Internal.Correction.Weighted>
   9.000000E+99

> <Gold.Protein.RotatedTorsions>
[ 6907 6896 6895 6894 ] final  -96.27 input  -60.11 | X-H torsion
[ 7974 7965 7964 7962 ] final   49.13 input  175.53 | X-H torsion
[ 8008 7997 7996 7995 ] final   -1.91 input   59.86 | X-H torsion
[ 10167 10162 10161 10158 ] final  -89.15 input  -65.29 | X-H torsion
[ 10718 10713 10712 10709 ] final  116.90 input   66.30 | X-H torsion
[ 10763 10752 10751 10750 ] final  -32.83 input  -60.55 | X-H torsion
[ 11005 11000 10999 10996 ] final  -41.93 input  -57.11 | X-H torsion

> <Gold.Protein.ActiveResidues>
 VAL166  LYS551  ARG553  GLY616  TRP617  ASP618  TYR619  PRO620  LYS621  CYS622 
 ASP623  PHE694  ASN695  SER759  ASP760  ASP761  ALA762  ILE779  LEU786  VAL792 
 PHE793  MET794  SER795  GLU796  ALA797  LYS798  CYS799  TRP800  GLU811  SER814 

> <Gold.Protein.RotatedAtoms>
  150.6984  134.1529  159.4146 H   0  0  0  0  0  0  0  0  0  0  0  0  # atno 6907 bound_to 6896
  151.9511  135.0166  160.0551 H   0  0  0  0  0  0  0  0  0  0  0  0  # atno 6908 bound_to 6896
  152.2010  133.4806  159.5095 H   0  0  0  0  0  0  0  0  0  0  0  0  # atno 6909 bound_to 6896
  146.0138  139.4573  142.9939 H   0  0  0  0  0  0  0  0  0  0  0  0  # atno 7974 bound_to 7965
  154.6415  140.2547  155.7316 H   0  0  0  0  0  0  0  0  0  0  0  0  # atno 8008 bound_to 7997
  156.2531  140.2886  156.0731 H   0  0  0  0  0  0  0  0  0  0  0  0  # atno 8009 bound_to 7997
  155.1589  140.0384  157.2828 H   0  0  0  0  0  0  0  0  0  0  0  0  # atno 8010 bound_to 7997
  140.3677  143.2810  151.9538 H   0  0  0  0  0  0  0  0  0  0  0  0  # atno 10167 bound_to 10162
  157.6131  131.1031  150.7539 H   0  0  0  0  0  0  0  0  0  0  0  0  # atno 10718 bound_to 10713
  153.8202  135.6875  153.4828 H   0  0  0  0  0  0  0  0  0  0  0  0  # atno 10763 bound_to 10752
  153.1574  135.4593  154.9722 H   0  0  0  0  0  0  0  0  0  0  0  0  # atno 10764 bound_to 10752
  154.7931  135.3309  154.7675 H   0  0  0  0  0  0  0  0  0  0  0  0  # atno 10765 bound_to 10752
  141.0280  133.6832  156.2525 H   0  0  0  0  0  0  0  0  0  0  0  0  # atno 11005 bound_to 11000
  145.7300  141.0045  143.1357 LP  0  0  0  0  0  0  0  0  0  0  0  0  # atno 17320 bound_to 7965
  144.6963  139.8973  143.7456 LP  0  0  0  0  0  0  0  0  0  0  0  0  # atno 17321 bound_to 7965
  139.4807  144.5935  151.7730 LP  0  0  0  0  0  0  0  0  0  0  0  0  # atno 17342 bound_to 10162
  140.5064  144.1091  150.5984 LP  0  0  0  0  0  0  0  0  0  0  0  0  # atno 17343 bound_to 10162
  156.7912  130.4891  149.5384 LP  0  0  0  0  0  0  0  0  0  0  0  0  # atno 17370 bound_to 10713
  156.1241  130.6131  151.0238 LP  0  0  0  0  0  0  0  0  0  0  0  0  # atno 17371 bound_to 10713
  140.6456  134.5120  157.5573 LP  0  0  0  0  0  0  0  0  0  0  0  0  # atno 17394 bound_to 11000
  139.9189  134.8189  156.1275 LP  0  0  0  0  0  0  0  0  0  0  0  0  # atno 17395 bound_to 11000

$$$$
