AV-unprocessed.smi:203|AV-procd|sdf|1593|dock4
  -GOLD-   2262019493D 1   1.00000     0.00000
 Structure written by MMmdl.
 57 61  0  0  0  0  0  0  0  0  1 V2000
  154.3353  137.0234  161.0880 O   0  0  0  0  0  0  0  0  0  0  0  0
  153.6024  137.7666  160.4395 C   0  0  0  0  0  0  0  0  0  0  0  0
  153.7582  139.2779  160.4066 C   0  0  0  0  0  0  0  0  0  0  0  0
  152.8271  139.6859  159.2500 C   0  0  2  0  0  0  0  0  0  0  0  0
  152.1548  141.0905  159.3526 C   0  0  1  0  0  0  0  0  0  0  0  0
  152.8161  142.0079  160.4158 C   0  0  0  0  0  0  0  0  0  0  0  0
  152.1333  143.3803  160.4887 C   0  0  0  0  0  0  0  0  0  0  0  0
  152.1321  144.0372  159.1051 C   0  0  0  0  0  0  0  0  0  0  0  0
  151.4652  143.1128  158.0789 C   0  0  0  0  0  0  0  0  0  0  0  0
  152.0980  141.7941  158.0574 N   0  0  0  0  0  0  0  0  0  0  0  0
  151.6497  141.0883  156.9944 C   0  0  0  0  0  0  0  0  0  0  0  0
  152.5043  140.1916  156.4436 N   0  0  0  0  0  0  0  0  0  0  0  0
  152.1210  139.4644  155.3898 C   0  0  0  0  0  0  0  0  0  0  0  0
  150.9539  139.4829  154.7423 N   0  0  0  0  0  0  0  0  0  0  0  0
  150.0972  140.3926  155.2894 C   0  0  0  0  0  0  0  0  0  0  0  0
  150.3612  141.2330  156.4065 C   0  0  0  0  0  0  0  0  0  0  0  0
  149.2562  142.0339  156.6697 N   0  0  0  0  0  0  0  0  0  0  0  0
  148.3903  141.6915  155.7551 C   0  0  0  0  0  0  0  0  0  0  0  0
  148.8157  140.7175  154.8812 N   0  0  0  0  0  0  0  0  0  0  0  0
  148.0696  140.1712  153.7626 C   0  0  0  0  0  0  0  0  0  0  0  0
  147.4496  138.7917  154.0708 C   0  0  2  0  0  0  0  0  0  0  0  0
  148.5071  137.8541  154.1001 O   0  0  0  0  0  0  0  0  0  0  0  0
  146.3898  138.3281  153.0461 C   0  0  1  0  0  0  0  0  0  0  0  0
  146.7827  138.5276  151.5816 C   0  0  0  0  0  0  0  0  0  0  0  0
  145.8910  137.5421  150.8446 C   0  0  0  0  0  0  0  0  0  0  0  0
  145.4941  136.5306  151.9235 C   0  0  0  0  0  0  0  0  0  0  0  0
  146.2188  136.9186  153.0823 O   0  0  0  0  0  0  0  0  0  0  0  0
  151.8764  138.4871  159.0594 C   0  0  0  0  0  0  0  0  0  0  0  0
  152.5802  137.3798  159.6767 N   0  0  0  0  0  0  0  0  0  0  0  0
  153.4508  139.6842  161.3685 H   0  0  0  0  0  0  0  0  0  0  0  0
  154.7928  139.5700  160.2237 H   0  0  0  0  0  0  0  0  0  0  0  0
  153.4475  139.6764  158.3527 H   0  0  0  0  0  0  0  0  0  0  0  0
  151.1253  140.9320  159.6743 H   0  0  0  0  0  0  0  0  0  0  0  0
  152.7772  141.5565  161.4052 H   0  0  0  0  0  0  0  0  0  0  0  0
  153.8708  142.1594  160.1887 H   0  0  0  0  0  0  0  0  0  0  0  0
  151.1090  143.2661  160.8457 H   0  0  0  0  0  0  0  0  0  0  0  0
  152.6474  144.0187  161.2079 H   0  0  0  0  0  0  0  0  0  0  0  0
  151.6097  144.9935  159.1428 H   0  0  0  0  0  0  0  0  0  0  0  0
  153.1561  144.2515  158.7966 H   0  0  0  0  0  0  0  0  0  0  0  0
  150.4064  143.0005  158.3176 H   0  0  0  0  0  0  0  0  0  0  0  0
  151.5201  143.5708  157.0899 H   0  0  0  0  0  0  0  0  0  0  0  0
  152.8552  138.7695  155.0100 H   0  0  0  0  0  0  0  0  0  0  0  0
  147.4144  142.1495  155.6859 H   0  0  0  0  0  0  0  0  0  0  0  0
  147.2918  140.8835  153.4835 H   0  0  0  0  0  0  0  0  0  0  0  0
  148.7446  140.0999  152.9088 H   0  0  0  0  0  0  0  0  0  0  0  0
  147.0019  138.8096  155.0652 H   0  0  0  0  0  0  0  0  0  0  0  0
  148.7120  137.6050  153.2119 H   0  0  0  0  0  0  0  0  0  0  0  0
  145.4313  138.8132  153.2422 H   0  0  0  0  0  0  0  0  0  0  0  0
  146.6493  139.5548  151.2415 H   0  0  0  0  0  0  0  0  0  0  0  0
  147.8290  138.2557  151.4342 H   0  0  0  0  0  0  0  0  0  0  0  0
  145.0047  138.0386  150.4480 H   0  0  0  0  0  0  0  0  0  0  0  0
  146.4160  137.0734  150.0119 H   0  0  0  0  0  0  0  0  0  0  0  0
  144.4242  136.5852  152.1301 H   0  0  0  0  0  0  0  0  0  0  0  0
  145.7363  135.5047  151.6446 H   0  0  0  0  0  0  0  0  0  0  0  0
  150.9205  138.6063  159.5652 H   0  0  0  0  0  0  0  0  0  0  0  0
  151.6774  138.2894  158.0056 H   0  0  0  0  0  0  0  0  0  0  0  0
  152.2980  136.4182  159.5534 H   0  0  0  0  0  0  0  0  0  0  0  0
  1  2  2  0  0  0  0
  2 29  1  0  0  0  0
  2  3  1  0  0  0  0
  3  4  1  0  0  0  0
  3 30  1  0  0  0  0
  3 31  1  0  0  0  0
  4  5  1  0  0  0  0
  4 28  1  0  0  0  0
  4 32  1  0  0  0  0
  5 10  1  0  0  0  0
  5  6  1  0  0  0  0
  5 33  1  0  0  0  0
  6  7  1  0  0  0  0
  6 34  1  0  0  0  0
  6 35  1  0  0  0  0
  7  8  1  0  0  0  0
  7 36  1  0  0  0  0
  7 37  1  0  0  0  0
  8  9  1  0  0  0  0
  8 38  1  0  0  0  0
  8 39  1  0  0  0  0
  9 10  1  0  0  0  0
  9 40  1  0  0  0  0
  9 41  1  0  0  0  0
 10 11  1  0  0  0  0
 11 16  1  0  0  0  0
 11 12  2  0  0  0  0
 12 13  1  0  0  0  0
 13 14  2  0  0  0  0
 13 42  1  0  0  0  0
 14 15  1  0  0  0  0
 15 19  1  0  0  0  0
 15 16  2  0  0  0  0
 16 17  1  0  0  0  0
 17 18  2  0  0  0  0
 18 19  1  0  0  0  0
 18 43  1  0  0  0  0
 19 20  1  0  0  0  0
 20 21  1  0  0  0  0
 20 44  1  0  0  0  0
 20 45  1  0  0  0  0
 21 22  1  0  0  0  0
 21 23  1  0  0  0  0
 21 46  1  0  0  0  0
 22 47  1  0  0  0  0
 23 27  1  0  0  0  0
 23 24  1  0  0  0  0
 23 48  1  0  0  0  0
 24 25  1  0  0  0  0
 24 49  1  0  0  0  0
 24 50  1  0  0  0  0
 25 26  1  0  0  0  0
 25 51  1  0  0  0  0
 25 52  1  0  0  0  0
 26 27  1  0  0  0  0
 26 53  1  0  0  0  0
 26 54  1  0  0  0  0
 28 29  1  0  0  0  0
 28 55  1  0  0  0  0
 28 56  1  0  0  0  0
 29 57  1  0  0  0  0
M  END
> <s_m_source_file>
AV-unprocessed.smi

> <i_m_source_file_index>
203

> <i_lp_mmshare_version>
43012

> <i_f3d_flags>
0

> <s_epik_input>
Tz1DMVtDSDJdW0NASF0oW0NIMl1bTkhdMSlbQ0BASF0yW0NIMl1bQ0gyXVtDSDJdW0NIMl1OMmMobltjSF1uMyljKGMzNCluW2NIXW40W0NIMl1bQ0BIXShbT0hdKVtDQEBIXTVbQ0gyXVtDSDJdW0NIMl1PNQ==

> <s_epik_cmdline>
J2VwaWtfcHl0aG9uJywgJy1waCcsICc3LjAnLCAnLXRuJywgJzgnLCAnLW1hJywgJzIwMCcsICctbWV0YWxfYmluZGluZycsICctaW1hZScsICc8aW5maWxlLm1hZT4nLCAnLW9tYWUnLCAnPG91dGZpbGUubWFlPic=

> <r_lp_tautomer_probability>
1

> <r_epik_Ionization_Penalty>
0.00175146

> <r_epik_Ionization_Penalty_Charging>
0

> <r_epik_Ionization_Penalty_Neutral>
0.00175146

> <r_epik_State_Penalty>
0.00109045

> <r_epik_Charging_Adjusted_Penalty>
0.00109045

> <i_epik_Tot_Q>
0

> <i_epik_Tot_abs_Q>
0

> <r_epik_Metal_State_Penalty>
-0

> <b_epik_Metal_Only>
0

> <s_lp_Force_Field>
OPLS_2005

> <r_lp_Energy>
55.5443

> <b_lp_Chiralities_Consistent>
1

> <s_lp_Variant>
AV-unprocessed.smi:203-12

> <Gold.Version>
5.8.1

> <Gold.Id.Protein>
6NUR|6NUR_protein|mol2

> <Gold.PLP.Fitness>
49.3829

> <Gold.PLP.PLP>
-46.9222

> <Gold.PLP.part.hbond>
-3.0000

> <Gold.PLP.part.metal>
0.0000

> <Gold.PLP.part.buried>
5.7353

> <Gold.PLP.part.nonpolar>
-49.7371

> <Gold.PLP.part.repulsive>
2.5385

> <Gold.PLP.ligand.clash>
0.0868

> <Gold.PLP.ligand.torsion>
2.3454

> <Gold.PLP.Chemscore.Hbond>
2.3000

> <Gold.PLP.Chemscore.CHOScore>
0.0195

> <Gold.PLP.Chemscore.Metal>
0.0000

> <Gold.Chemscore.Hbonds>
donor molecule, donor type, donor heavy atom, donor atom, acceptor molecule, acceptor atom, score
      L1  H    22    47       P1  7948  1.00
      P1  H  7989  7998       L1    14  0.27
      P1  H  7997  8009       L1    12  1.00

> <Gold.PLP.Chemscore.Internal.Correction>
0.2797

> <Gold.Rescore>
     Score         DG    S(hbond)    S(metal)    S(lipo)     H(rot)  DE(clash)    DE(int)     intcor
     10.99     -17.53       1.89        0.00     108.58       2.72       1.94       4.60       ----

> <Gold.Chemscore.Fitness>
10.9938

> <Gold.Chemscore.DG>
-17.5336

> <Gold.Chemscore.ZeroCoef>
-5.4800

> <Gold.Chemscore.Hbond>
1.8879

> <Gold.Chemscore.Metal>
0.0000

> <Gold.Chemscore.Lipo>
108.5796

> <Gold.Chemscore.Internal_Hbond>
0.0000

> <Gold.Chemscore.DEClash>
1.9399

> <Gold.Chemscore.DEInternal>
4.6000

> <Gold.Chemscore.Rot>
2.7171

> <Gold.Chemscore.Internal.Correction>
   9.000000E+99

> <Gold.Chemscore.Hbonds>
donor molecule, donor type, donor heavy atom, donor atom, acceptor molecule, acceptor atom, score
      L1  H    22    47       P1  7948  0.95
      P1  H  7997  8009       L1    12  0.44

> <Gold.Chemscore.Hbond.Weighted>
-6.3055

> <Gold.Chemscore.Metal.Weighted>
-0.0000

> <Gold.Chemscore.Lipo.Weighted>
-12.7038

> <Gold.Chemscore.Internal_Hbond.Weighted>
0.0000

> <Gold.Chemscore.DEClash.Weighted>
1.9399

> <Gold.Chemscore.DEInternal.Weighted>
4.6000

> <Gold.Chemscore.Rot.Weighted>
6.9557

> <Gold.Chemscore.Internal.Correction.Weighted>
   9.000000E+99

> <Gold.Protein.RotatedTorsions>
[ 6907 6896 6895 6894 ] final    8.36 input  -60.11 | X-H torsion
[ 7974 7965 7964 7962 ] final  -32.75 input  175.53 | X-H torsion
[ 8008 7997 7996 7995 ] final -165.16 input   59.86 | X-H torsion
[ 10167 10162 10161 10158 ] final    4.53 input  -65.29 | X-H torsion
[ 10718 10713 10712 10709 ] final -123.37 input   66.30 | X-H torsion
[ 10763 10752 10751 10750 ] final  102.57 input  -60.55 | X-H torsion
[ 11005 11000 10999 10996 ] final   56.22 input  -57.11 | X-H torsion

> <Gold.Protein.ActiveResidues>
 VAL166  LYS551  ARG553  GLY616  TRP617  ASP618  TYR619  PRO620  LYS621  CYS622 
 ASP623  PHE694  ASN695  SER759  ASP760  ASP761  ALA762  ILE779  LEU786  VAL792 
 PHE793  MET794  SER795  GLU796  ALA797  LYS798  CYS799  TRP800  GLU811  SER814 

> <Gold.Protein.RotatedAtoms>
  151.7047  135.0924  160.0256 H   0  0  0  0  0  0  0  0  0  0  0  0  # atno 6907 bound_to 6896
  152.3699  133.6401  159.6087 H   0  0  0  0  0  0  0  0  0  0  0  0  # atno 6908 bound_to 6896
  150.7665  133.9204  159.3437 H   0  0  0  0  0  0  0  0  0  0  0  0  # atno 6909 bound_to 6896
  146.0965  140.5831  142.8840 H   0  0  0  0  0  0  0  0  0  0  0  0  # atno 7974 bound_to 7965
  155.8459  140.0955  157.1705 H   0  0  0  0  0  0  0  0  0  0  0  0  # atno 8008 bound_to 7997
  154.3983  140.1392  156.3847 H   0  0  0  0  0  0  0  0  0  0  0  0  # atno 8009 bound_to 7997
  155.8014  140.3452  155.5407 H   0  0  0  0  0  0  0  0  0  0  0  0  # atno 8010 bound_to 7997
  140.6530  143.7498  150.7606 H   0  0  0  0  0  0  0  0  0  0  0  0  # atno 10167 bound_to 10162
  156.1496  130.6525  150.9894 H   0  0  0  0  0  0  0  0  0  0  0  0  # atno 10718 bound_to 10713
  153.3413  135.4006  155.1573 H   0  0  0  0  0  0  0  0  0  0  0  0  # atno 10763 bound_to 10752
  154.8644  135.3634  154.5343 H   0  0  0  0  0  0  0  0  0  0  0  0  # atno 10764 bound_to 10752
  153.5788  135.7077  153.5532 H   0  0  0  0  0  0  0  0  0  0  0  0  # atno 10765 bound_to 10752
  140.0546  134.5688  155.9223 H   0  0  0  0  0  0  0  0  0  0  0  0  # atno 11005 bound_to 11000
  144.7400  140.4915  143.6876 LP  0  0  0  0  0  0  0  0  0  0  0  0  # atno 17320 bound_to 7965
  145.5937  139.1498  143.3168 LP  0  0  0  0  0  0  0  0  0  0  0  0  # atno 17321 bound_to 7965
  140.1153  143.4662  152.2346 LP  0  0  0  0  0  0  0  0  0  0  0  0  # atno 17342 bound_to 10162
  139.5747  144.7481  151.3796 LP  0  0  0  0  0  0  0  0  0  0  0  0  # atno 17343 bound_to 10162
  157.6646  131.0874  150.7759 LP  0  0  0  0  0  0  0  0  0  0  0  0  # atno 17370 bound_to 10713
  156.7828  130.4865  149.5398 LP  0  0  0  0  0  0  0  0  0  0  0  0  # atno 17371 bound_to 10713
  141.1946  133.6583  156.5603 LP  0  0  0  0  0  0  0  0  0  0  0  0  # atno 17394 bound_to 11000
  140.3864  134.7479  157.4694 LP  0  0  0  0  0  0  0  0  0  0  0  0  # atno 17395 bound_to 11000

$$$$
