AV-unprocessed.smi:3241|AV-procd|sdf|12392|dock7
  -GOLD-   2272018263D 1   1.00000     0.00000
 Structure written by MMmdl.
 43 44  0  0  0  0  0  0  0  0  1 V2000
  150.6097  141.8403  157.0593 C   0  0  0  0  0  0  0  0  0  0  0  0
  151.8120  141.8862  158.0164 C   0  0  1  0  0  0  0  0  0  0  0  0
  151.8329  143.2167  158.7956 C   0  0  0  0  0  0  0  0  0  0  0  0
  153.0219  143.2916  159.7645 C   0  0  0  0  0  0  0  0  0  0  0  0
  153.0161  142.1012  160.7324 C   0  0  0  0  0  0  0  0  0  0  0  0
  153.0110  140.7698  159.9673 C   0  0  0  0  0  0  0  0  0  0  0  0
  151.8223  140.6803  158.9848 C   0  0  2  0  0  0  0  0  0  0  0  0
  151.9298  139.4996  158.1981 O   0  0  0  0  0  0  0  0  0  0  0  0
  151.4121  138.3250  158.8059 C   0  0  0  0  0  0  0  0  0  0  0  0
  150.9271  137.3773  157.7040 C   0  0  0  0  0  0  0  0  0  0  0  0
  150.3112  136.1854  158.2766 N   0  0  0  0  0  0  0  0  0  0  0  0
  149.2008  136.4725  159.1794 C   0  0  0  0  0  0  0  0  0  0  0  0
  148.7388  135.2113  159.9276 C   0  0  0  0  0  0  0  0  0  0  0  0
  148.1293  135.5236  161.2083 N   0  0  0  0  0  0  0  0  0  0  0  0
  147.7490  134.6531  162.2081 C   0  0  0  0  0  0  0  0  0  0  0  0
  147.2304  135.4029  163.2246 C   0  0  0  0  0  0  0  0  0  0  0  0
  147.3392  136.7394  162.7479 C   0  0  0  0  0  0  0  0  0  0  0  0
  147.8732  136.8083  161.5391 N   0  0  0  0  0  0  0  0  0  0  0  0
  149.6664  141.8655  157.6059 H   0  0  0  0  0  0  0  0  0  0  0  0
  150.6184  140.9345  156.4525 H   0  0  0  0  0  0  0  0  0  0  0  0
  150.6207  142.6894  156.3756 H   0  0  0  0  0  0  0  0  0  0  0  0
  152.7188  141.8405  157.4109 H   0  0  0  0  0  0  0  0  0  0  0  0
  151.8786  144.0551  158.0999 H   0  0  0  0  0  0  0  0  0  0  0  0
  150.9030  143.3311  159.3547 H   0  0  0  0  0  0  0  0  0  0  0  0
  153.9555  143.3015  159.2005 H   0  0  0  0  0  0  0  0  0  0  0  0
  152.9881  144.2266  160.3244 H   0  0  0  0  0  0  0  0  0  0  0  0
  153.8860  142.1506  161.3877 H   0  0  0  0  0  0  0  0  0  0  0  0
  152.1384  142.1567  161.3777 H   0  0  0  0  0  0  0  0  0  0  0  0
  153.9471  140.6633  159.4176 H   0  0  0  0  0  0  0  0  0  0  0  0
  152.9815  139.9515  160.6858 H   0  0  0  0  0  0  0  0  0  0  0  0
  150.8837  140.6736  159.5424 H   0  0  0  0  0  0  0  0  0  0  0  0
  152.1542  137.8289  159.4314 H   0  0  0  0  0  0  0  0  0  0  0  0
  150.5715  138.5923  159.4475 H   0  0  0  0  0  0  0  0  0  0  0  0
  150.1981  137.9006  157.0844 H   0  0  0  0  0  0  0  0  0  0  0  0
  151.7573  137.1055  157.0510 H   0  0  0  0  0  0  0  0  0  0  0  0
  151.0117  135.6269  158.7536 H   0  0  0  0  0  0  0  0  0  0  0  0
  149.5082  137.2236  159.9078 H   0  0  0  0  0  0  0  0  0  0  0  0
  148.3645  136.9012  158.6259 H   0  0  0  0  0  0  0  0  0  0  0  0
  148.0376  134.6344  159.3220 H   0  0  0  0  0  0  0  0  0  0  0  0
  149.5947  134.5620  160.1142 H   0  0  0  0  0  0  0  0  0  0  0  0
  147.8792  133.5851  162.1139 H   0  0  0  0  0  0  0  0  0  0  0  0
  146.8357  135.0506  164.1661 H   0  0  0  0  0  0  0  0  0  0  0  0
  147.0453  137.6549  163.2398 H   0  0  0  0  0  0  0  0  0  0  0  0
  1  2  1  0  0  0  0
  1 19  1  0  0  0  0
  1 20  1  0  0  0  0
  1 21  1  0  0  0  0
  2  7  1  0  0  0  0
  2  3  1  0  0  0  0
  2 22  1  0  0  0  0
  3  4  1  0  0  0  0
  3 23  1  0  0  0  0
  3 24  1  0  0  0  0
  4  5  1  0  0  0  0
  4 25  1  0  0  0  0
  4 26  1  0  0  0  0
  5  6  1  0  0  0  0
  5 27  1  0  0  0  0
  5 28  1  0  0  0  0
  6  7  1  0  0  0  0
  6 29  1  0  0  0  0
  6 30  1  0  0  0  0
  7  8  1  0  0  0  0
  7 31  1  0  0  0  0
  8  9  1  0  0  0  0
  9 10  1  0  0  0  0
  9 32  1  0  0  0  0
  9 33  1  0  0  0  0
 10 11  1  0  0  0  0
 10 34  1  0  0  0  0
 10 35  1  0  0  0  0
 11 12  1  0  0  0  0
 11 36  1  0  0  0  0
 12 13  1  0  0  0  0
 12 37  1  0  0  0  0
 12 38  1  0  0  0  0
 13 14  1  0  0  0  0
 13 39  1  0  0  0  0
 13 40  1  0  0  0  0
 14 18  1  0  0  0  0
 14 15  1  0  0  0  0
 15 16  2  0  0  0  0
 15 41  1  0  0  0  0
 16 17  1  0  0  0  0
 16 42  1  0  0  0  0
 17 18  2  0  0  0  0
 17 43  1  0  0  0  0
M  END
> <s_m_source_file>
AV-unprocessed.smi

> <i_m_source_file_index>
3241

> <i_lp_mmshare_version>
43012

> <i_f3d_flags>
0

> <s_epik_input>
W0NIM11bQ0BASF0xW0NIMl1bQ0gyXVtDSDJdW0NIMl1bQ0BIXTFPW0NIMl1bQ0gyXVtOSF1bQ0gyXVtDSDJdbjJbY0hdW2NIXVtjSF1uMg==

> <s_epik_cmdline>
J2VwaWtfcHl0aG9uJywgJy1waCcsICc3LjAnLCAnLXRuJywgJzgnLCAnLW1hJywgJzIwMCcsICctbWV0YWxfYmluZGluZycsICctaW1hZScsICc8aW5maWxlLm1hZT4nLCAnLW9tYWUnLCAnPG91dGZpbGUubWFlPic=

> <r_lp_tautomer_probability>
1

> <r_epik_Ionization_Penalty>
2.47055

> <r_epik_Ionization_Penalty_Charging>
0

> <r_epik_Ionization_Penalty_Neutral>
2.47055

> <r_epik_State_Penalty>
2.6322

> <r_epik_Charging_Adjusted_Penalty>
2.6322

> <i_epik_Tot_Q>
0

> <i_epik_Tot_abs_Q>
0

> <r_epik_Metal_State_Penalty>
2.63108

> <b_epik_Metal_Only>
0

> <s_lp_Force_Field>
OPLS_2005

> <r_lp_Energy>
16.4595

> <b_lp_Chiralities_Consistent>
1

> <s_lp_Variant>
AV-unprocessed.smi:3241-8

> <Gold.Version>
5.8.1

> <Gold.Id.Protein>
6NUR|6NUR_protein|mol2

> <Gold.PLP.Fitness>
45.1759

> <Gold.PLP.PLP>
-41.2478

> <Gold.PLP.part.hbond>
-2.6892

> <Gold.PLP.part.metal>
0.0000

> <Gold.PLP.part.buried>
-4.3145

> <Gold.PLP.part.nonpolar>
-33.8705

> <Gold.PLP.part.repulsive>
0.0000

> <Gold.PLP.ligand.clash>
0.0000

> <Gold.PLP.ligand.torsion>
0.6961

> <Gold.PLP.Chemscore.Hbond>
1.7600

> <Gold.PLP.Chemscore.CHOScore>
0.0000

> <Gold.PLP.Chemscore.Metal>
0.0000

> <Gold.Chemscore.Hbonds>
donor molecule, donor type, donor heavy atom, donor atom, acceptor molecule, acceptor atom, score
      P1  H  6931  6943       L1    18  0.80
      P1  H  6934  6947       L1    18  0.07

> <Gold.PLP.Chemscore.Internal.Correction>
0.0402

> <Gold.Rescore>
     Score         DG    S(hbond)    S(metal)    S(lipo)     H(rot)  DE(clash)    DE(int)     intcor
     17.65     -18.22       1.28        0.00     111.44       1.79       0.08       0.49       ----

> <Gold.Chemscore.Fitness>
17.6545

> <Gold.Chemscore.DG>
-18.2243

> <Gold.Chemscore.ZeroCoef>
-5.4800

> <Gold.Chemscore.Hbond>
1.2839

> <Gold.Chemscore.Metal>
0.0000

> <Gold.Chemscore.Lipo>
111.4442

> <Gold.Chemscore.Internal_Hbond>
0.0000

> <Gold.Chemscore.DEClash>
0.0830

> <Gold.Chemscore.DEInternal>
0.4868

> <Gold.Chemscore.Rot>
1.7901

> <Gold.Chemscore.Internal.Correction>
   9.000000E+99

> <Gold.Chemscore.Hbonds>
donor molecule, donor type, donor heavy atom, donor atom, acceptor molecule, acceptor atom, score
      P1  H  6931  6943       L1    18  0.12
      P1  H  6934  6947       L1    18  0.02

> <Gold.Chemscore.Hbond.Weighted>
-4.2881

> <Gold.Chemscore.Metal.Weighted>
-0.0000

> <Gold.Chemscore.Lipo.Weighted>
-13.0390

> <Gold.Chemscore.Internal_Hbond.Weighted>
0.0000

> <Gold.Chemscore.DEClash.Weighted>
0.0830

> <Gold.Chemscore.DEInternal.Weighted>
0.4868

> <Gold.Chemscore.Rot.Weighted>
4.5827

> <Gold.Chemscore.Internal.Correction.Weighted>
   9.000000E+99

> <Gold.Protein.RotatedTorsions>
[ 6907 6896 6895 6894 ] final -117.67 input  -60.11 | X-H torsion
[ 7974 7965 7964 7962 ] final  -32.04 input  175.53 | X-H torsion
[ 8008 7997 7996 7995 ] final -120.61 input   59.86 | X-H torsion
[ 10167 10162 10161 10158 ] final -141.59 input  -65.29 | X-H torsion
[ 10718 10713 10712 10709 ] final   80.53 input   66.30 | X-H torsion
[ 10763 10752 10751 10750 ] final  132.61 input  -60.55 | X-H torsion
[ 11005 11000 10999 10996 ] final  -27.42 input  -57.11 | X-H torsion

> <Gold.Protein.ActiveResidues>
 VAL166  LYS551  ARG553  GLY616  TRP617  ASP618  TYR619  PRO620  LYS621  CYS622 
 ASP623  PHE694  ASN695  SER759  ASP760  ASP761  ALA762  ILE779  LEU786  VAL792 
 PHE793  MET794  SER795  GLU796  ALA797  LYS798  CYS799  TRP800  GLU811  SER814 

> <Gold.Protein.RotatedAtoms>
  150.8156  133.8343  159.3161 H   0  0  0  0  0  0  0  0  0  0  0  0  # atno 6907 bound_to 6896
  151.6116  135.1038  160.0092 H   0  0  0  0  0  0  0  0  0  0  0  0  # atno 6908 bound_to 6896
  152.4247  133.7135  159.6549 H   0  0  0  0  0  0  0  0  0  0  0  0  # atno 6909 bound_to 6896
  146.1021  140.5743  142.8816 H   0  0  0  0  0  0  0  0  0  0  0  0  # atno 7974 bound_to 7965
  155.1347  140.0401  157.2783 H   0  0  0  0  0  0  0  0  0  0  0  0  # atno 8008 bound_to 7997
  154.6517  140.2571  155.7180 H   0  0  0  0  0  0  0  0  0  0  0  0  # atno 8009 bound_to 7997
  156.2580  140.2835  156.0953 H   0  0  0  0  0  0  0  0  0  0  0  0  # atno 8010 bound_to 7997
  139.8170  143.7625  152.2665 H   0  0  0  0  0  0  0  0  0  0  0  0  # atno 10167 bound_to 10162
  157.6808  130.9963  150.2093 H   0  0  0  0  0  0  0  0  0  0  0  0  # atno 10718 bound_to 10713
  153.7935  135.3152  155.3381 H   0  0  0  0  0  0  0  0  0  0  0  0  # atno 10763 bound_to 10752
  154.8116  135.4663  154.0535 H   0  0  0  0  0  0  0  0  0  0  0  0  # atno 10764 bound_to 10752
  153.1861  135.6901  153.8500 H   0  0  0  0  0  0  0  0  0  0  0  0  # atno 10765 bound_to 10752
  140.9117  133.7456  156.0680 H   0  0  0  0  0  0  0  0  0  0  0  0  # atno 11005 bound_to 11000
  144.7441  140.5021  143.6848 LP  0  0  0  0  0  0  0  0  0  0  0  0  # atno 17320 bound_to 7965
  145.5834  139.1490  143.3222 LP  0  0  0  0  0  0  0  0  0  0  0  0  # atno 17321 bound_to 7965
  139.7791  144.7450  151.0113 LP  0  0  0  0  0  0  0  0  0  0  0  0  # atno 17342 bound_to 10162
  140.7815  143.4561  151.0344 LP  0  0  0  0  0  0  0  0  0  0  0  0  # atno 17343 bound_to 10162
  156.2767  130.3728  149.7976 LP  0  0  0  0  0  0  0  0  0  0  0  0  # atno 17370 bound_to 10713
  156.5677  130.8411  151.3347 LP  0  0  0  0  0  0  0  0  0  0  0  0  # atno 17371 bound_to 10713
  140.8101  134.3409  157.5414 LP  0  0  0  0  0  0  0  0  0  0  0  0  # atno 17394 bound_to 11000
  139.8758  134.9249  156.3361 LP  0  0  0  0  0  0  0  0  0  0  0  0  # atno 17395 bound_to 11000

$$$$
