AV-unprocessed.smi:1513|AV-procd|sdf|6109|dock3
  -GOLD-   22720 6243D 1   1.00000     0.00000
 Structure written by MMmdl.
 33 34  0  0  0  0  0  0  0  0  2 V2000
  155.7508  137.1937  158.1725 N   0  0  0  0  0  0  0  0  0  0  0  0
  154.0343  137.1566  158.1236 S   0  0  0  0  0  0  0  0  0  0  0  0
  153.6766  136.7526  156.7543 O   0  0  0  0  0  0  0  0  0  0  0  0
  153.6176  136.2966  159.2431 O   0  0  0  0  0  0  0  0  0  0  0  0
  153.8203  138.7351  158.4085 N   0  5  0  0  0  0  0  0  0  0  0  0
  152.5194  139.1971  158.8594 C   0  0  0  0  0  0  0  0  0  0  0  0
  152.4064  140.7273  158.7906 C   0  0  0  0  0  0  0  0  0  0  0  0
  153.0020  141.4877  159.8262 C   0  0  0  0  0  0  0  0  0  0  0  0
  152.9343  142.8919  159.7889 C   0  0  0  0  0  0  0  0  0  0  0  0
  152.2687  143.4972  158.7111 C   0  0  0  0  0  0  0  0  0  0  0  0
  151.6913  142.7977  157.7150 N   0  0  0  0  0  0  0  0  0  0  0  0
  151.7466  141.4416  157.7367 C   0  0  0  0  0  0  0  0  0  0  0  0
  151.0878  140.7943  156.6685 N   0  0  0  0  0  0  0  0  0  0  0  0
  150.3379  141.7076  155.8158 C   0  0  0  0  0  0  0  0  0  0  0  0
  149.4783  140.9078  154.8220 C   0  0  0  0  0  0  0  0  0  0  0  0
  150.3062  140.0168  154.0787 O   0  0  0  0  0  0  0  0  0  0  0  0
  150.9741  139.0804  154.9206 C   0  0  0  0  0  0  0  0  0  0  0  0
  151.8797  139.8330  155.9103 C   0  0  0  0  0  0  0  0  0  0  0  0
  156.1333  136.5005  158.8145 H   0  0  0  0  0  0  0  0  0  0  0  0
  156.1124  138.1352  158.3184 H   0  0  0  0  0  0  0  0  0  0  0  0
  151.7140  138.7566  158.2705 H   0  0  0  0  0  0  0  0  0  0  0  0
  152.3141  138.8987  159.8880 H   0  0  0  0  0  0  0  0  0  0  0  0
  153.5152  141.0178  160.6547 H   0  0  0  0  0  0  0  0  0  0  0  0
  153.3827  143.4886  160.5689 H   0  0  0  0  0  0  0  0  0  0  0  0
  152.1957  144.5728  158.6474 H   0  0  0  0  0  0  0  0  0  0  0  0
  149.7031  142.3548  156.4221 H   0  0  0  0  0  0  0  0  0  0  0  0
  151.0326  142.3527  155.2765 H   0  0  0  0  0  0  0  0  0  0  0  0
  148.7022  140.3465  155.3443 H   0  0  0  0  0  0  0  0  0  0  0  0
  148.9724  141.5839  154.1328 H   0  0  0  0  0  0  0  0  0  0  0  0
  150.2436  138.4664  155.4503 H   0  0  0  0  0  0  0  0  0  0  0  0
  151.5693  138.4079  154.3028 H   0  0  0  0  0  0  0  0  0  0  0  0
  152.6702  140.3494  155.3646 H   0  0  0  0  0  0  0  0  0  0  0  0
  152.3589  139.1304  156.5931 H   0  0  0  0  0  0  0  0  0  0  0  0
  1  2  1  0  0  0  0
  1 19  1  0  0  0  0
  1 20  1  0  0  0  0
  2  3  2  0  0  0  0
  2  4  2  0  0  0  0
  2  5  1  0  0  0  0
  5  6  1  0  0  0  0
  6  7  1  0  0  0  0
  6 21  1  0  0  0  0
  6 22  1  0  0  0  0
  7 12  1  0  0  0  0
  7  8  2  0  0  0  0
  8  9  1  0  0  0  0
  8 23  1  0  0  0  0
  9 10  2  0  0  0  0
  9 24  1  0  0  0  0
 10 11  1  0  0  0  0
 10 25  1  0  0  0  0
 11 12  2  0  0  0  0
 12 13  1  0  0  0  0
 13 18  1  0  0  0  0
 13 14  1  0  0  0  0
 14 15  1  0  0  0  0
 14 26  1  0  0  0  0
 14 27  1  0  0  0  0
 15 16  1  0  0  0  0
 15 28  1  0  0  0  0
 15 29  1  0  0  0  0
 16 17  1  0  0  0  0
 17 18  1  0  0  0  0
 17 30  1  0  0  0  0
 17 31  1  0  0  0  0
 18 32  1  0  0  0  0
 18 33  1  0  0  0  0
M  CHG  1   5  -1
M  END
> <s_m_source_file>
AV-unprocessed.smi

> <i_m_source_file_index>
1513

> <i_lp_mmshare_version>
43012

> <i_f3d_flags>
0

> <s_epik_input>
W05IMl1TKD1PKSg9TylbTkhdW0NIMl1jMVtjSF1bY0hdW2NIXW5jMU4yW0NIMl1bQ0gyXU9bQ0gyXVtDSDJdMg==

> <s_epik_cmdline>
J2VwaWtfcHl0aG9uJywgJy1waCcsICc3LjAnLCAnLXRuJywgJzgnLCAnLW1hJywgJzIwMCcsICctbWV0YWxfYmluZGluZycsICctaW1hZScsICc8aW5maWxlLm1hZT4nLCAnLW9tYWUnLCAnPG91dGZpbGUubWFlPic=

> <r_lp_tautomer_probability>
1

> <r_epik_Ionization_Penalty>
0.860967

> <r_epik_Ionization_Penalty_Charging>
0.789613

> <r_epik_Ionization_Penalty_Neutral>
0.0713544

> <r_epik_State_Penalty>
0.836007

> <r_epik_Charging_Adjusted_Penalty>
1.62562

> <i_epik_Tot_Q>
-1

> <i_epik_Tot_abs_Q>
1

> <r_epik_Metal_State_Penalty>
0.647115

> <b_epik_Metal_Only>
0

> <s_lp_Force_Field>
OPLS_2005

> <r_lp_Energy>
22.5784

> <b_lp_Chiralities_Consistent>
1

> <s_lp_Variant>
AV-unprocessed.smi:1513-2

> <Gold.Version>
5.8.1

> <Gold.Id.Protein>
6NUR|6NUR_protein|mol2

> <Gold.PLP.Fitness>
46.3252

> <Gold.PLP.PLP>
-33.0342

> <Gold.PLP.part.hbond>
-4.0000

> <Gold.PLP.part.metal>
0.0000

> <Gold.PLP.part.buried>
-4.4695

> <Gold.PLP.part.nonpolar>
-25.6585

> <Gold.PLP.part.repulsive>
0.9599

> <Gold.PLP.ligand.clash>
0.0000

> <Gold.PLP.ligand.torsion>
1.0674

> <Gold.PLP.Chemscore.Hbond>
4.7735

> <Gold.PLP.Chemscore.CHOScore>
0.0000

> <Gold.PLP.Chemscore.Metal>
0.0000

> <Gold.Chemscore.Hbonds>
donor molecule, donor type, donor heavy atom, donor atom, acceptor molecule, acceptor atom, score
      P1  H  6896  6907       L1     4  0.81
      P1  H  7989  7998       L1    16  1.00
      P1  H  7997  8009       L1     5  2.00
      P1  H 10752 10764       L1     3  0.86

> <Gold.PLP.Chemscore.Internal.Correction>
1.1053

> <Gold.Rescore>
     Score         DG    S(hbond)    S(metal)    S(lipo)     H(rot)  DE(clash)    DE(int)     intcor
     18.16     -19.60       3.01        0.00      76.06       1.88       0.24       1.20       ----

> <Gold.Chemscore.Fitness>
18.1603

> <Gold.Chemscore.DG>
-19.6015

> <Gold.Chemscore.ZeroCoef>
-5.4800

> <Gold.Chemscore.Hbond>
3.0056

> <Gold.Chemscore.Metal>
0.0000

> <Gold.Chemscore.Lipo>
76.0625

> <Gold.Chemscore.Internal_Hbond>
0.0000

> <Gold.Chemscore.DEClash>
0.2386

> <Gold.Chemscore.DEInternal>
1.2026

> <Gold.Chemscore.Rot>
1.8814

> <Gold.Chemscore.Internal.Correction>
   9.000000E+99

> <Gold.Chemscore.Hbonds>
donor molecule, donor type, donor heavy atom, donor atom, acceptor molecule, acceptor atom, score
      P1  H  6896  6907       L1     4  0.78
      P1  H  7989  7998       L1    16  0.20
      P1  H  7997  8009       L1     5  0.78
      P1  H 10752 10764       L1     3  0.84

> <Gold.Chemscore.Hbond.Weighted>
-10.0386

> <Gold.Chemscore.Metal.Weighted>
-0.0000

> <Gold.Chemscore.Lipo.Weighted>
-8.8993

> <Gold.Chemscore.Internal_Hbond.Weighted>
0.0000

> <Gold.Chemscore.DEClash.Weighted>
0.2386

> <Gold.Chemscore.DEInternal.Weighted>
1.2026

> <Gold.Chemscore.Rot.Weighted>
4.8165

> <Gold.Chemscore.Internal.Correction.Weighted>
   9.000000E+99

> <Gold.Protein.RotatedTorsions>
[ 6907 6896 6895 6894 ] final   41.18 input  -60.11 | X-H torsion
[ 7974 7965 7964 7962 ] final   53.94 input  175.53 | X-H torsion
[ 8008 7997 7996 7995 ] final  141.94 input   59.86 | X-H torsion
[ 10167 10162 10161 10158 ] final   89.86 input  -65.29 | X-H torsion
[ 10718 10713 10712 10709 ] final  -37.88 input   66.30 | X-H torsion
[ 10763 10752 10751 10750 ] final    6.77 input  -60.55 | X-H torsion
[ 11005 11000 10999 10996 ] final   37.77 input  -57.11 | X-H torsion

> <Gold.Protein.ActiveResidues>
 VAL166  LYS551  ARG553  GLY616  TRP617  ASP618  TYR619  PRO620  LYS621  CYS622 
 ASP623  PHE694  ASN695  SER759  ASP760  ASP761  ALA762  ILE779  LEU786  VAL792 
 PHE793  MET794  SER795  GLU796  ALA797  LYS798  CYS799  TRP800  GLU811  SER814 

> <Gold.Protein.RotatedAtoms>
  152.1920  134.8664  160.0516 H   0  0  0  0  0  0  0  0  0  0  0  0  # atno 6907 bound_to 6896
  151.9549  133.3672  159.4022 H   0  0  0  0  0  0  0  0  0  0  0  0  # atno 6908 bound_to 6896
  150.6937  134.4225  159.5255 H   0  0  0  0  0  0  0  0  0  0  0  0  # atno 6909 bound_to 6896
  145.9660  139.4104  143.0219 H   0  0  0  0  0  0  0  0  0  0  0  0  # atno 7974 bound_to 7965
  156.2958  140.2302  156.4646 H   0  0  0  0  0  0  0  0  0  0  0  0  # atno 8008 bound_to 7997
  154.7988  140.0449  157.1278 H   0  0  0  0  0  0  0  0  0  0  0  0  # atno 8009 bound_to 7997
  154.9558  140.3048  155.5057 H   0  0  0  0  0  0  0  0  0  0  0  0  # atno 8010 bound_to 7997
  139.8530  144.6583  150.9147 H   0  0  0  0  0  0  0  0  0  0  0  0  # atno 10167 bound_to 10162
  156.3102  130.4251  149.8058 H   0  0  0  0  0  0  0  0  0  0  0  0  # atno 10718 bound_to 10713
  153.2439  135.6906  153.7753 H   0  0  0  0  0  0  0  0  0  0  0  0  # atno 10763 bound_to 10752
  153.6872  135.3319  155.3194 H   0  0  0  0  0  0  0  0  0  0  0  0  # atno 10764 bound_to 10752
  154.8367  135.4536  154.1371 H   0  0  0  0  0  0  0  0  0  0  0  0  # atno 10765 bound_to 10752
  140.2192  134.3661  155.8012 H   0  0  0  0  0  0  0  0  0  0  0  0  # atno 11005 bound_to 11000
  145.7973  140.9787  143.1017 LP  0  0  0  0  0  0  0  0  0  0  0  0  # atno 17320 bound_to 7965
  144.6826  139.9757  143.7483 LP  0  0  0  0  0  0  0  0  0  0  0  0  # atno 17321 bound_to 7965
  140.7785  143.3810  151.1476 LP  0  0  0  0  0  0  0  0  0  0  0  0  # atno 17342 bound_to 10162
  139.7447  143.8870  152.3060 LP  0  0  0  0  0  0  0  0  0  0  0  0  # atno 17343 bound_to 10162
  156.5404  130.8297  151.3267 LP  0  0  0  0  0  0  0  0  0  0  0  0  # atno 17370 bound_to 10713
  157.7389  130.9822  150.2280 LP  0  0  0  0  0  0  0  0  0  0  0  0  # atno 17371 bound_to 10713
  141.2223  133.7184  156.8548 LP  0  0  0  0  0  0  0  0  0  0  0  0  # atno 17394 bound_to 11000
  140.1867  134.8994  157.3013 LP  0  0  0  0  0  0  0  0  0  0  0  0  # atno 17395 bound_to 11000

$$$$
