AV-unprocessed.smi:1350|AV-procd|sdf|5523|dock6
  -GOLD-   22720 5113D 1   1.00000     0.00000
 Structure written by MMmdl.
 44 46  0  0  0  0  0  0  0  0  2 V2000
  147.1658  132.3765  159.9279 C   0  0  0  0  0  0  0  0  0  0  0  0
  147.5385  133.7291  159.7079 O   0  0  0  0  0  0  0  0  0  0  0  0
  147.6017  134.5789  160.7941 C   0  0  0  0  0  0  0  0  0  0  0  0
  147.2965  134.1731  162.1192 C   0  0  0  0  0  0  0  0  0  0  0  0
  147.3911  135.0829  163.1887 C   0  0  0  0  0  0  0  0  0  0  0  0
  147.7959  136.4077  162.9526 C   0  0  0  0  0  0  0  0  0  0  0  0
  148.0991  136.8233  161.6440 C   0  0  0  0  0  0  0  0  0  0  0  0
  147.9944  135.9208  160.5627 C   0  0  0  0  0  0  0  0  0  0  0  0
  148.3447  136.3926  159.1589 C   0  0  0  0  0  0  0  0  0  0  0  0
  149.7402  136.5888  158.9881 O   0  0  0  0  0  0  0  0  0  0  0  0
  150.0637  137.2373  157.7692 C   0  0  0  0  0  0  0  0  0  0  0  0
  150.3544  138.7198  158.0525 C   0  0  1  0  0  0  0  0  0  0  0  0
  150.9982  138.8224  159.3076 O   0  0  0  0  0  0  0  0  0  0  0  0
  151.2522  139.3476  156.9683 C   0  0  0  0  0  0  0  0  0  0  0  0
  151.2315  140.8175  156.9947 N   0  0  0  0  0  0  0  0  0  0  0  0
  150.5222  141.6853  156.2230 C   0  0  0  0  0  0  0  0  0  0  0  0
  150.8398  142.9475  156.6230 N   0  3  0  0  0  0  0  0  0  0  0  0
  151.7642  142.8866  157.6676 C   0  0  0  0  0  0  0  0  0  0  0  0
  152.3793  143.8988  158.3978 C   0  0  0  0  0  0  0  0  0  0  0  0
  153.2778  143.4949  159.4069 C   0  0  0  0  0  0  0  0  0  0  0  0
  153.5343  142.1316  159.6588 C   0  0  0  0  0  0  0  0  0  0  0  0
  152.9058  141.1136  158.9115 C   0  0  0  0  0  0  0  0  0  0  0  0
  152.0200  141.5206  157.9138 C   0  0  0  0  0  0  0  0  0  0  0  0
  147.1506  131.8488  158.9746 H   0  0  0  0  0  0  0  0  0  0  0  0
  146.1669  132.3031  160.3599 H   0  0  0  0  0  0  0  0  0  0  0  0
  147.8797  131.8660  160.5757 H   0  0  0  0  0  0  0  0  0  0  0  0
  146.9887  133.1637  162.3450 H   0  0  0  0  0  0  0  0  0  0  0  0
  147.1566  134.7615  164.1927 H   0  0  0  0  0  0  0  0  0  0  0  0
  147.8752  137.1049  163.7736 H   0  0  0  0  0  0  0  0  0  0  0  0
  148.4141  137.8428  161.4760 H   0  0  0  0  0  0  0  0  0  0  0  0
  147.9827  135.6482  158.4484 H   0  0  0  0  0  0  0  0  0  0  0  0
  147.8305  137.3295  158.9412 H   0  0  0  0  0  0  0  0  0  0  0  0
  150.9077  136.7553  157.2728 H   0  0  0  0  0  0  0  0  0  0  0  0
  149.2059  137.1546  157.0999 H   0  0  0  0  0  0  0  0  0  0  0  0
  149.4154  139.2736  158.0928 H   0  0  0  0  0  0  0  0  0  0  0  0
  151.9314  138.8564  159.1648 H   0  0  0  0  0  0  0  0  0  0  0  0
  152.2804  138.9943  157.0476 H   0  0  0  0  0  0  0  0  0  0  0  0
  150.9025  139.0462  155.9801 H   0  0  0  0  0  0  0  0  0  0  0  0
  149.8314  141.4201  155.4356 H   0  0  0  0  0  0  0  0  0  0  0  0
  152.1830  144.9440  158.2078 H   0  0  0  0  0  0  0  0  0  0  0  0
  153.7789  144.2457  160.0006 H   0  0  0  0  0  0  0  0  0  0  0  0
  154.2272  141.8605  160.4422 H   0  0  0  0  0  0  0  0  0  0  0  0
  153.1084  140.0734  159.1176 H   0  0  0  0  0  0  0  0  0  0  0  0
  150.4509  143.7867  156.2122 H   0  0  0  0  0  0  0  0  0  0  0  0
  1  2  1  0  0  0  0
  1 24  1  0  0  0  0
  1 25  1  0  0  0  0
  1 26  1  0  0  0  0
  2  3  1  0  0  0  0
  3  8  1  0  0  0  0
  3  4  2  0  0  0  0
  4  5  1  0  0  0  0
  4 27  1  0  0  0  0
  5  6  2  0  0  0  0
  5 28  1  0  0  0  0
  6  7  1  0  0  0  0
  6 29  1  0  0  0  0
  7  8  2  0  0  0  0
  7 30  1  0  0  0  0
  8  9  1  0  0  0  0
  9 10  1  0  0  0  0
  9 31  1  0  0  0  0
  9 32  1  0  0  0  0
 10 11  1  0  0  0  0
 11 12  1  0  0  0  0
 11 33  1  0  0  0  0
 11 34  1  0  0  0  0
 12 13  1  0  0  0  0
 12 14  1  0  0  0  0
 12 35  1  0  0  0  0
 13 36  1  0  0  0  0
 14 15  1  0  0  0  0
 14 37  1  0  0  0  0
 14 38  1  0  0  0  0
 15 23  1  0  0  0  0
 15 16  1  0  0  0  0
 16 17  2  0  0  0  0
 16 39  1  0  0  0  0
 17 18  1  0  0  0  0
 17 44  1  0  0  0  0
 18 23  2  0  0  0  0
 18 19  1  0  0  0  0
 19 20  2  0  0  0  0
 19 40  1  0  0  0  0
 20 21  1  0  0  0  0
 20 41  1  0  0  0  0
 21 22  2  0  0  0  0
 21 42  1  0  0  0  0
 22 23  1  0  0  0  0
 22 43  1  0  0  0  0
M  CHG  1  17   1
M  END
> <s_m_source_file>
AV-unprocessed.smi

> <i_m_source_file_index>
1350

> <i_lp_mmshare_version>
43012

> <i_f3d_flags>
0

> <s_epik_input>
W0NIM11PYzFbY0hdW2NIXVtjSF1bY0hdYzFbQ0gyXU9bQ0gyXVtDQEhdKFtPSF0pW0NIMl1uKFtjSF1uMiljKGMyMylbY0hdW2NIXVtjSF1bY0hdMw==

> <s_epik_cmdline>
J2VwaWtfcHl0aG9uJywgJy1waCcsICc3LjAnLCAnLXRuJywgJzgnLCAnLW1hJywgJzIwMCcsICctbWV0YWxfYmluZGluZycsICctaW1hZScsICc8aW5maWxlLm1hZT4nLCAnLW9tYWUnLCAnPG91dGZpbGUubWFlPic=

> <r_lp_tautomer_probability>
1

> <r_epik_Ionization_Penalty>
1.28975

> <r_epik_Ionization_Penalty_Charging>
1.28975

> <r_epik_Ionization_Penalty_Neutral>
1.07667e-06

> <r_epik_State_Penalty>
1.36276

> <r_epik_Charging_Adjusted_Penalty>
2.65251

> <i_epik_Tot_Q>
1

> <i_epik_Tot_abs_Q>
1

> <r_epik_Metal_State_Penalty>
5.39298

> <b_epik_Metal_Only>
0

> <s_lp_Force_Field>
OPLS_2005

> <r_lp_Energy>
25.8807

> <b_lp_Chiralities_Consistent>
1

> <s_lp_Variant>
AV-unprocessed.smi:1350-4

> <Gold.Version>
5.8.1

> <Gold.Id.Protein>
6NUR|6NUR_protein|mol2

> <Gold.PLP.Fitness>
56.2736

> <Gold.PLP.PLP>
-49.4935

> <Gold.PLP.part.hbond>
-2.7224

> <Gold.PLP.part.metal>
0.0000

> <Gold.PLP.part.buried>
-5.0542

> <Gold.PLP.part.nonpolar>
-41.8983

> <Gold.PLP.part.repulsive>
0.1071

> <Gold.PLP.ligand.clash>
0.0000

> <Gold.PLP.ligand.torsion>
1.1433

> <Gold.PLP.Chemscore.Hbond>
3.0000

> <Gold.PLP.Chemscore.CHOScore>
0.0000

> <Gold.PLP.Chemscore.Metal>
0.0000

> <Gold.Chemscore.Hbonds>
donor molecule, donor type, donor heavy atom, donor atom, acceptor molecule, acceptor atom, score
      L1  H    17    44       P1  8028  1.92
      P1  H  6896  6908       L1    10  0.65

> <Gold.PLP.Chemscore.Internal.Correction>
0.0667

> <Gold.Rescore>
     Score         DG    S(hbond)    S(metal)    S(lipo)     H(rot)  DE(clash)    DE(int)     intcor
     18.43     -19.62       1.83        0.00     128.52       2.74       0.15       1.04       ----

> <Gold.Chemscore.Fitness>
18.4286

> <Gold.Chemscore.DG>
-19.6175

> <Gold.Chemscore.ZeroCoef>
-5.4800

> <Gold.Chemscore.Hbond>
1.8300

> <Gold.Chemscore.Metal>
0.0000

> <Gold.Chemscore.Lipo>
128.5211

> <Gold.Chemscore.Internal_Hbond>
0.0000

> <Gold.Chemscore.DEClash>
0.1499

> <Gold.Chemscore.DEInternal>
1.0390

> <Gold.Chemscore.Rot>
2.7390

> <Gold.Chemscore.Internal.Correction>
   9.000000E+99

> <Gold.Chemscore.Hbonds>
donor molecule, donor type, donor heavy atom, donor atom, acceptor molecule, acceptor atom, score
      L1  H    17    44       P1  8028  0.92
      P1  H  6896  6908       L1    10  0.45

> <Gold.Chemscore.Hbond.Weighted>
-6.1124

> <Gold.Chemscore.Metal.Weighted>
-0.0000

> <Gold.Chemscore.Lipo.Weighted>
-15.0370

> <Gold.Chemscore.Internal_Hbond.Weighted>
0.0000

> <Gold.Chemscore.DEClash.Weighted>
0.1499

> <Gold.Chemscore.DEInternal.Weighted>
1.0390

> <Gold.Chemscore.Rot.Weighted>
7.0118

> <Gold.Chemscore.Internal.Correction.Weighted>
   9.000000E+99

> <Gold.Protein.RotatedTorsions>
[ 6907 6896 6895 6894 ] final -174.51 input  -60.11 | X-H torsion
[ 7974 7965 7964 7962 ] final -147.64 input  175.53 | X-H torsion
[ 8008 7997 7996 7995 ] final   56.74 input   59.86 | X-H torsion
[ 10167 10162 10161 10158 ] final   75.14 input  -65.29 | X-H torsion
[ 10718 10713 10712 10709 ] final  109.56 input   66.30 | X-H torsion
[ 10763 10752 10751 10750 ] final -127.01 input  -60.55 | X-H torsion
[ 11005 11000 10999 10996 ] final -127.17 input  -57.11 | X-H torsion

> <Gold.Protein.ActiveResidues>
 VAL166  LYS551  ARG553  GLY616  TRP617  ASP618  TYR619  PRO620  LYS621  CYS622 
 ASP623  PHE694  ASN695  SER759  ASP760  ASP761  ALA762  ILE779  LEU786  VAL792 
 PHE793  MET794  SER795  GLU796  ALA797  LYS798  CYS799  TRP800  GLU811  SER814 

> <Gold.Protein.RotatedAtoms>
  151.5736  133.3386  159.2994 H   0  0  0  0  0  0  0  0  0  0  0  0  # atno 6907 bound_to 6896
  150.8353  134.7627  159.6899 H   0  0  0  0  0  0  0  0  0  0  0  0  # atno 6908 bound_to 6896
  152.4430  134.5558  159.9931 H   0  0  0  0  0  0  0  0  0  0  0  0  # atno 6909 bound_to 6896
  144.8080  140.5301  143.5661 H   0  0  0  0  0  0  0  0  0  0  0  0  # atno 7974 bound_to 7965
  155.5223  140.3480  155.4409 H   0  0  0  0  0  0  0  0  0  0  0  0  # atno 8008 bound_to 7997
  156.0776  140.1378  156.9780 H   0  0  0  0  0  0  0  0  0  0  0  0  # atno 8009 bound_to 7997
  154.4562  140.0953  156.6738 H   0  0  0  0  0  0  0  0  0  0  0  0  # atno 8010 bound_to 7997
  140.0061  144.5649  150.7696 H   0  0  0  0  0  0  0  0  0  0  0  0  # atno 10167 bound_to 10162
  157.6535  131.0916  150.6472 H   0  0  0  0  0  0  0  0  0  0  0  0  # atno 10718 bound_to 10713
  154.8749  135.3976  154.3523 H   0  0  0  0  0  0  0  0  0  0  0  0  # atno 10763 bound_to 10752
  153.4307  135.7025  153.6238 H   0  0  0  0  0  0  0  0  0  0  0  0  # atno 10764 bound_to 10752
  153.4861  135.3758  155.2437 H   0  0  0  0  0  0  0  0  0  0  0  0  # atno 10765 bound_to 10752
  140.9622  134.0921  157.3957 H   0  0  0  0  0  0  0  0  0  0  0  0  # atno 11005 bound_to 11000
  145.5391  139.1475  143.3457 LP  0  0  0  0  0  0  0  0  0  0  0  0  # atno 17320 bound_to 7965
  146.2375  140.5530  142.8948 LP  0  0  0  0  0  0  0  0  0  0  0  0  # atno 17321 bound_to 7965
  140.7400  143.2798  151.3632 LP  0  0  0  0  0  0  0  0  0  0  0  0  # atno 17342 bound_to 10162
  139.6237  144.0856  152.2415 LP  0  0  0  0  0  0  0  0  0  0  0  0  # atno 17343 bound_to 10162
  156.6781  130.4559  149.5636 LP  0  0  0  0  0  0  0  0  0  0  0  0  # atno 17370 bound_to 10713
  156.1949  130.6583  151.1103 LP  0  0  0  0  0  0  0  0  0  0  0  0  # atno 17371 bound_to 10713
  139.8882  135.0096  156.6605 LP  0  0  0  0  0  0  0  0  0  0  0  0  # atno 17394 bound_to 11000
  140.7451  133.8944  155.8306 LP  0  0  0  0  0  0  0  0  0  0  0  0  # atno 17395 bound_to 11000

$$$$
