AV-unprocessed.smi:2226|AV-procd|sdf|9019|dock5
  -GOLD-   2272012223D 1   1.00000     0.00000
 Structure written by MMmdl.
 39 41  0  0  0  0  0  0  0  0  3 V2000
  145.8591  143.1322  154.4613 C   0  0  0  0  0  0  0  0  0  0  0  0
  147.0888  142.5640  155.0628 N   0  3  2  0  0  0  0  0  0  0  0  0
  148.0129  141.9177  154.0997 C   0  0  2  0  0  0  0  0  0  0  0  0
  147.4236  140.5918  153.5551 C   0  0  0  0  0  0  0  0  0  0  0  0
  146.9567  139.6179  154.6531 C   0  0  0  0  0  0  0  0  0  0  0  0
  146.2121  140.3342  155.7955 C   0  0  0  0  0  0  0  0  0  0  0  0
  146.8604  141.6742  156.2269 C   0  0  1  0  0  0  0  0  0  0  0  0
  148.1849  141.5293  157.0092 C   0  0  0  0  0  0  0  0  0  0  0  0
  149.4005  141.1029  156.1454 C   0  0  2  0  0  0  0  0  0  0  0  0
  150.6451  141.4298  156.8374 N   0  0  0  0  0  0  0  0  0  0  0  0
  151.1348  140.8084  157.9204 C   0  0  0  0  0  0  0  0  0  0  0  0
  150.5182  139.8643  158.4197 O   0  0  0  0  0  0  0  0  0  0  0  0
  152.3056  141.3233  158.3569 N   0  5  0  0  0  0  0  0  0  0  0  0
  152.3148  142.4869  159.0269 C   0  0  0  0  0  0  0  0  0  0  0  0
  152.5462  142.6457  160.3312 N   0  0  0  0  0  0  0  0  0  0  0  0
  152.4472  144.0076  160.5704 C   0  0  0  0  0  0  0  0  0  0  0  0
  152.1522  144.6218  159.3841 C   0  0  0  0  0  0  0  0  0  0  0  0
  152.0617  143.6726  158.4039 O   0  0  0  0  0  0  0  0  0  0  0  0
  149.4057  141.7871  154.7570 C   0  0  0  0  0  0  0  0  0  0  0  0
  145.2169  142.3652  154.0295 H   0  0  0  0  0  0  0  0  0  0  0  0
  146.1150  143.8406  153.6729 H   0  0  0  0  0  0  0  0  0  0  0  0
  145.2828  143.6714  155.2135 H   0  0  0  0  0  0  0  0  0  0  0  0
  148.1345  142.5914  153.2501 H   0  0  0  0  0  0  0  0  0  0  0  0
  146.5720  140.8224  152.9146 H   0  0  0  0  0  0  0  0  0  0  0  0
  148.1475  140.0975  152.9064 H   0  0  0  0  0  0  0  0  0  0  0  0
  146.3066  138.8602  154.2146 H   0  0  0  0  0  0  0  0  0  0  0  0
  147.8005  139.0564  155.0452 H   0  0  0  0  0  0  0  0  0  0  0  0
  145.1888  140.5264  155.4722 H   0  0  0  0  0  0  0  0  0  0  0  0
  146.1239  139.6666  156.6532 H   0  0  0  0  0  0  0  0  0  0  0  0
  146.1589  142.1734  156.8971 H   0  0  0  0  0  0  0  0  0  0  0  0
  148.4051  142.4979  157.4614 H   0  0  0  0  0  0  0  0  0  0  0  0
  148.0547  140.8392  157.8435 H   0  0  0  0  0  0  0  0  0  0  0  0
  149.3859  140.0253  156.0008 H   0  0  0  0  0  0  0  0  0  0  0  0
  151.1875  142.1956  156.4651 H   0  0  0  0  0  0  0  0  0  0  0  0
  152.5926  144.4268  161.5548 H   0  0  0  0  0  0  0  0  0  0  0  0
  151.9850  145.6462  159.0870 H   0  0  0  0  0  0  0  0  0  0  0  0
  150.0937  141.2690  154.0879 H   0  0  0  0  0  0  0  0  0  0  0  0
  149.8076  142.7958  154.8683 H   0  0  0  0  0  0  0  0  0  0  0  0
  147.5896  143.3624  155.4264 H   0  0  0  0  0  0  0  0  0  0  0  0
  1  2  1  0  0  0  0
  1 20  1  0  0  0  0
  1 21  1  0  0  0  0
  1 22  1  0  0  0  0
  2  7  1  0  0  0  0
  2  3  1  0  0  0  0
  2 39  1  0  0  0  0
  3 19  1  0  0  0  0
  3  4  1  0  0  0  0
  3 23  1  0  0  0  0
  4  5  1  0  0  0  0
  4 24  1  0  0  0  0
  4 25  1  0  0  0  0
  5  6  1  0  0  0  0
  5 26  1  0  0  0  0
  5 27  1  0  0  0  0
  6  7  1  0  0  0  0
  6 28  1  0  0  0  0
  6 29  1  0  0  0  0
  7  8  1  0  0  0  0
  7 30  1  0  0  0  0
  8  9  1  0  0  0  0
  8 31  1  0  0  0  0
  8 32  1  0  0  0  0
  9 10  1  0  0  0  0
  9 19  1  0  0  0  0
  9 33  1  0  0  0  0
 10 34  1  0  0  0  0
 10 11  1  0  0  0  0
 11 13  1  0  0  0  0
 11 12  2  0  0  0  0
 13 14  1  0  0  0  0
 14 18  1  0  0  0  0
 14 15  2  0  0  0  0
 15 16  1  0  0  0  0
 16 35  1  0  0  0  0
 16 17  2  0  0  0  0
 17 36  1  0  0  0  0
 17 18  1  0  0  0  0
 19 37  1  0  0  0  0
 19 38  1  0  0  0  0
M  CHG  1   2   1
M  CHG  1  13  -1
M  END
> <s_m_source_file>
AV-unprocessed.smi

> <i_m_source_file_index>
2226

> <i_lp_mmshare_version>
43012

> <i_f3d_flags>
0

> <s_epik_input>
W0NIMl0xW0NIMl1bQ0gyXVtDQEhdKE4oW0NIM10pW0NIXTEyKVtDSDJdW0NASF0oW0NIMl0yKVtOSF1DKD1PKVtOSF1jM25bY0hdW2NIXW8z

> <s_epik_cmdline>
J2VwaWtfcHl0aG9uJywgJy1waCcsICc3LjAnLCAnLXRuJywgJzgnLCAnLW1hJywgJzIwMCcsICctbWV0YWxfYmluZGluZycsICctaW1hZScsICc8aW5maWxlLm1hZT4nLCAnLW9tYWUnLCAnPG91dGZpbGUubWFlPic=

> <r_lp_tautomer_probability>
0.107061

> <r_epik_Ionization_Penalty>
10.5612

> <r_epik_Ionization_Penalty_Charging>
7.48913

> <r_epik_Ionization_Penalty_Neutral>
3.07202

> <r_epik_State_Penalty>
5.6431

> <r_epik_Charging_Adjusted_Penalty>
13.1322

> <i_epik_Tot_Q>
0

> <i_epik_Tot_abs_Q>
2

> <r_epik_Metal_State_Penalty>
1.58163

> <b_epik_Metal_Only>
1

> <s_lp_Force_Field>
OPLS_2005

> <r_lp_Energy>
24.9808

> <b_lp_Chiralities_Consistent>
1

> <s_lp_Variant>
AV-unprocessed.smi:2226-19

> <Gold.Version>
5.8.1

> <Gold.Id.Protein>
6NUR|6NUR_protein|mol2

> <Gold.PLP.Fitness>
35.4577

> <Gold.PLP.PLP>
-32.5247

> <Gold.PLP.part.hbond>
-1.0000

> <Gold.PLP.part.metal>
0.0000

> <Gold.PLP.part.buried>
-4.4966

> <Gold.PLP.part.nonpolar>
-25.6292

> <Gold.PLP.part.repulsive>
0.2071

> <Gold.PLP.ligand.clash>
0.0000

> <Gold.PLP.ligand.torsion>
1.5375

> <Gold.PLP.Chemscore.Hbond>
2.0000

> <Gold.PLP.Chemscore.CHOScore>
0.0000

> <Gold.PLP.Chemscore.Metal>
0.0000

> <Gold.Chemscore.Hbonds>
donor molecule, donor type, donor heavy atom, donor atom, acceptor molecule, acceptor atom, score
      L1  H     2    39       P1  8028  1.70

> <Gold.PLP.Chemscore.Internal.Correction>
0.0080

> <Gold.Rescore>
     Score         DG    S(hbond)    S(metal)    S(lipo)     H(rot)  DE(clash)    DE(int)     intcor
     12.57     -14.17       0.85        0.00      72.00       1.00       0.10       1.50       ----

> <Gold.Chemscore.Fitness>
12.5679

> <Gold.Chemscore.DG>
-14.1709

> <Gold.Chemscore.ZeroCoef>
-5.4800

> <Gold.Chemscore.Hbond>
0.8464

> <Gold.Chemscore.Metal>
0.0000

> <Gold.Chemscore.Lipo>
72.0000

> <Gold.Chemscore.Internal_Hbond>
0.0000

> <Gold.Chemscore.DEClash>
0.0985

> <Gold.Chemscore.DEInternal>
1.5045

> <Gold.Chemscore.Rot>
1.0000

> <Gold.Chemscore.Internal.Correction>
   9.000000E+99

> <Gold.Chemscore.Hbonds>
donor molecule, donor type, donor heavy atom, donor atom, acceptor molecule, acceptor atom, score
      L1  H     2    39       P1  8028  0.15

> <Gold.Chemscore.Hbond.Weighted>
-2.8269

> <Gold.Chemscore.Metal.Weighted>
-0.0000

> <Gold.Chemscore.Lipo.Weighted>
-8.4240

> <Gold.Chemscore.Internal_Hbond.Weighted>
0.0000

> <Gold.Chemscore.DEClash.Weighted>
0.0985

> <Gold.Chemscore.DEInternal.Weighted>
1.5045

> <Gold.Chemscore.Rot.Weighted>
2.5600

> <Gold.Chemscore.Internal.Correction.Weighted>
   9.000000E+99

> <Gold.Protein.RotatedTorsions>
[ 6907 6896 6895 6894 ] final    8.69 input  -60.11 | X-H torsion
[ 7974 7965 7964 7962 ] final  117.37 input  175.53 | X-H torsion
[ 8008 7997 7996 7995 ] final  -22.07 input   59.86 | X-H torsion
[ 10167 10162 10161 10158 ] final   43.25 input  -65.29 | X-H torsion
[ 10718 10713 10712 10709 ] final  104.72 input   66.30 | X-H torsion
[ 10763 10752 10751 10750 ] final   68.49 input  -60.55 | X-H torsion
[ 11005 11000 10999 10996 ] final  113.04 input  -57.11 | X-H torsion

> <Gold.Protein.ActiveResidues>
 VAL166  LYS551  ARG553  GLY616  TRP617  ASP618  TYR619  PRO620  LYS621  CYS622 
 ASP623  PHE694  ASN695  SER759  ASP760  ASP761  ALA762  ILE779  LEU786  VAL792 
 PHE793  MET794  SER795  GLU796  ALA797  LYS798  CYS799  TRP800  GLU811  SER814 

> <Gold.Protein.RotatedAtoms>
  151.7101  135.0914  160.0265 H   0  0  0  0  0  0  0  0  0  0  0  0  # atno 6907 bound_to 6896
  152.3667  133.6361  159.6064 H   0  0  0  0  0  0  0  0  0  0  0  0  # atno 6908 bound_to 6896
  150.7643  133.9253  159.3452 H   0  0  0  0  0  0  0  0  0  0  0  0  # atno 6909 bound_to 6896
  145.1683  139.3116  143.4481 H   0  0  0  0  0  0  0  0  0  0  0  0  # atno 7974 bound_to 7965
  154.4666  140.2017  156.0102 H   0  0  0  0  0  0  0  0  0  0  0  0  # atno 8008 bound_to 7997
  156.0938  140.3254  155.7822 H   0  0  0  0  0  0  0  0  0  0  0  0  # atno 8009 bound_to 7997
  155.4912  140.0546  157.2944 H   0  0  0  0  0  0  0  0  0  0  0  0  # atno 8010 bound_to 7997
  140.3463  144.2407  150.6150 H   0  0  0  0  0  0  0  0  0  0  0  0  # atno 10167 bound_to 10162
  157.6730  131.0810  150.5748 H   0  0  0  0  0  0  0  0  0  0  0  0  # atno 10718 bound_to 10713
  153.0238  135.5245  154.7142 H   0  0  0  0  0  0  0  0  0  0  0  0  # atno 10763 bound_to 10752
  154.6216  135.2889  155.0322 H   0  0  0  0  0  0  0  0  0  0  0  0  # atno 10764 bound_to 10752
  154.1307  135.6593  153.4974 H   0  0  0  0  0  0  0  0  0  0  0  0  # atno 10765 bound_to 10752
  139.8942  134.9542  156.6677 H   0  0  0  0  0  0  0  0  0  0  0  0  # atno 11005 bound_to 11000
  146.3472  140.1818  142.8589 LP  0  0  0  0  0  0  0  0  0  0  0  0  # atno 17320 bound_to 7965
  145.0260  140.8832  143.5138 LP  0  0  0  0  0  0  0  0  0  0  0  0  # atno 17321 bound_to 7965
  140.5261  143.2254  151.8312 LP  0  0  0  0  0  0  0  0  0  0  0  0  # atno 17342 bound_to 10162
  139.4833  144.4777  151.9346 LP  0  0  0  0  0  0  0  0  0  0  0  0  # atno 17343 bound_to 10162
  156.6049  130.4364  149.5882 LP  0  0  0  0  0  0  0  0  0  0  0  0  # atno 17370 bound_to 10713
  156.2476  130.6888  151.1615 LP  0  0  0  0  0  0  0  0  0  0  0  0  # atno 17371 bound_to 10713
  140.7397  133.8988  155.8269 LP  0  0  0  0  0  0  0  0  0  0  0  0  # atno 17394 bound_to 11000
  141.0087  134.1050  157.4243 LP  0  0  0  0  0  0  0  0  0  0  0  0  # atno 17395 bound_to 11000

$$$$
