AV-unprocessed.smi:1252|AV-procd|sdf|5266|dock3
  -GOLD-   22720 4383D 1   1.00000     0.00000
 Structure written by MMmdl.
 44 45  0  0  0  0  0  0  0  0  2 V2000
  147.3671  132.4145  152.7113 C   0  0  0  0  0  0  0  0  0  0  0  0
  146.7116  133.5855  151.9558 C   0  0  2  0  0  0  0  0  0  0  0  0
  145.9677  134.5615  152.8796 C   0  0  0  0  0  0  0  0  0  0  0  0
  144.9512  134.2183  153.4833 O   0  0  0  0  0  0  0  0  0  0  0  0
  146.4751  135.8020  152.9390 N   0  0  0  0  0  0  0  0  0  0  0  0
  145.8529  136.9573  153.5814 C   0  0  0  0  0  0  0  0  0  0  0  0
  146.7833  138.2082  153.6167 C   0  0  0  0  0  0  0  0  0  0  0  0
  146.8656  138.7757  152.1775 C   0  0  0  0  0  0  0  0  0  0  0  0
  146.1216  139.2838  154.5083 C   0  0  0  0  0  0  0  0  0  0  0  0
  148.1590  137.8378  154.1137 N   0  3  0  0  0  0  0  0  0  0  0  0
  149.1258  138.9614  154.2653 C   0  0  0  0  0  0  0  0  0  0  0  0
  150.5262  138.4301  154.6173 C   0  0  0  0  0  0  0  0  0  0  0  0
  150.4648  137.6404  155.7965 O   0  0  0  0  0  0  0  0  0  0  0  0
  149.6183  136.5123  155.6301 C   0  0  0  0  0  0  0  0  0  0  0  0
  148.1866  136.9870  155.3363 C   0  0  0  0  0  0  0  0  0  0  0  0
  145.8004  133.1032  150.9251 N   0  0  0  0  0  0  0  0  0  0  0  0
  146.0186  132.3329  149.8556 C   0  0  0  0  0  0  0  0  0  0  0  0
  144.9235  132.0540  149.1631 N   0  0  0  0  0  0  0  0  0  0  0  0
  144.0035  132.7387  149.9046 C   0  0  0  0  0  0  0  0  0  0  0  0
  144.4731  133.3683  150.9814 N   0  0  0  0  0  0  0  0  0  0  0  0
  148.0869  132.7747  153.4474 H   0  0  0  0  0  0  0  0  0  0  0  0
  147.9046  131.7611  152.0235 H   0  0  0  0  0  0  0  0  0  0  0  0
  146.6301  131.8052  153.2361 H   0  0  0  0  0  0  0  0  0  0  0  0
  147.5083  134.1491  151.4667 H   0  0  0  0  0  0  0  0  0  0  0  0
  147.3303  135.9761  152.4306 H   0  0  0  0  0  0  0  0  0  0  0  0
  144.8989  137.1939  153.1067 H   0  0  0  0  0  0  0  0  0  0  0  0
  145.5883  136.6524  154.5939 H   0  0  0  0  0  0  0  0  0  0  0  0
  145.8760  138.8638  151.7279 H   0  0  0  0  0  0  0  0  0  0  0  0
  147.4646  138.1407  151.5242 H   0  0  0  0  0  0  0  0  0  0  0  0
  147.2982  139.7759  152.1523 H   0  0  0  0  0  0  0  0  0  0  0  0
  145.1439  139.5644  154.1147 H   0  0  0  0  0  0  0  0  0  0  0  0
  146.7154  140.1960  154.5611 H   0  0  0  0  0  0  0  0  0  0  0  0
  145.9596  138.9339  155.5275 H   0  0  0  0  0  0  0  0  0  0  0  0
  149.2186  139.5369  153.3463 H   0  0  0  0  0  0  0  0  0  0  0  0
  148.7873  139.6455  155.0438 H   0  0  0  0  0  0  0  0  0  0  0  0
  150.9384  137.8444  153.7952 H   0  0  0  0  0  0  0  0  0  0  0  0
  151.2104  139.2616  154.7866 H   0  0  0  0  0  0  0  0  0  0  0  0
  149.9908  135.8716  154.8293 H   0  0  0  0  0  0  0  0  0  0  0  0
  149.6371  135.9209  156.5456 H   0  0  0  0  0  0  0  0  0  0  0  0
  147.8116  137.5469  156.1934 H   0  0  0  0  0  0  0  0  0  0  0  0
  147.5533  136.1088  155.2255 H   0  0  0  0  0  0  0  0  0  0  0  0
  146.9953  131.9571  149.5873 H   0  0  0  0  0  0  0  0  0  0  0  0
  142.9530  132.7578  149.6547 H   0  0  0  0  0  0  0  0  0  0  0  0
  148.5453  137.2613  153.3797 H   0  0  0  0  0  0  0  0  0  0  0  0
  1  2  1  0  0  0  0
  1 21  1  0  0  0  0
  1 22  1  0  0  0  0
  1 23  1  0  0  0  0
  2  3  1  0  0  0  0
  2 16  1  0  0  0  0
  2 24  1  0  0  0  0
  3  4  2  0  0  0  0
  3  5  1  0  0  0  0
  5  6  1  0  0  0  0
  5 25  1  0  0  0  0
  6  7  1  0  0  0  0
  6 26  1  0  0  0  0
  6 27  1  0  0  0  0
  7  8  1  0  0  0  0
  7  9  1  0  0  0  0
  7 10  1  0  0  0  0
  8 28  1  0  0  0  0
  8 29  1  0  0  0  0
  8 30  1  0  0  0  0
  9 31  1  0  0  0  0
  9 32  1  0  0  0  0
  9 33  1  0  0  0  0
 10 15  1  0  0  0  0
 10 11  1  0  0  0  0
 10 44  1  0  0  0  0
 11 12  1  0  0  0  0
 11 34  1  0  0  0  0
 11 35  1  0  0  0  0
 12 13  1  0  0  0  0
 12 36  1  0  0  0  0
 12 37  1  0  0  0  0
 13 14  1  0  0  0  0
 14 15  1  0  0  0  0
 14 38  1  0  0  0  0
 14 39  1  0  0  0  0
 15 40  1  0  0  0  0
 15 41  1  0  0  0  0
 16 20  1  0  0  0  0
 16 17  1  0  0  0  0
 17 18  2  0  0  0  0
 17 42  1  0  0  0  0
 18 19  1  0  0  0  0
 19 20  2  0  0  0  0
 19 43  1  0  0  0  0
M  CHG  1  10   1
M  END
> <s_m_source_file>
AV-unprocessed.smi

> <i_m_source_file_index>
1252

> <i_lp_mmshare_version>
43012

> <i_f3d_flags>
0

> <s_epik_input>
bjFbY0hdbltjSF1uMVtDQEhdKFtDSDNdKUMoPU8pW05IXVtDSDJdQyhbQ0gzXSkoW0NIM10pTjJbQ0gyXVtDSDJdT1tDSDJdW0NIMl0y

> <s_epik_cmdline>
J2VwaWtfcHl0aG9uJywgJy1waCcsICc3LjAnLCAnLXRuJywgJzgnLCAnLW1hJywgJzIwMCcsICctbWV0YWxfYmluZGluZycsICctaW1hZScsICc8aW5maWxlLm1hZT4nLCAnLW9tYWUnLCAnPG91dGZpbGUubWFlPic=

> <r_lp_tautomer_probability>
1

> <r_epik_Ionization_Penalty>
0.71326

> <r_epik_Ionization_Penalty_Charging>
0.713252

> <r_epik_Ionization_Penalty_Neutral>
8.22342e-06

> <r_epik_State_Penalty>
0.737017

> <r_epik_Charging_Adjusted_Penalty>
1.45027

> <i_epik_Tot_Q>
1

> <i_epik_Tot_abs_Q>
1

> <r_epik_Metal_State_Penalty>
0.73702

> <b_epik_Metal_Only>
0

> <s_lp_Force_Field>
OPLS_2005

> <r_lp_Energy>
34.1677

> <b_lp_Chiralities_Consistent>
1

> <s_lp_Variant>
AV-unprocessed.smi:1252-3

> <Gold.Version>
5.8.1

> <Gold.Id.Protein>
6NUR|6NUR_protein|mol2

> <Gold.PLP.Fitness>
45.2106

> <Gold.PLP.PLP>
-30.7800

> <Gold.PLP.part.hbond>
-2.6085

> <Gold.PLP.part.metal>
0.0000

> <Gold.PLP.part.buried>
-4.2162

> <Gold.PLP.part.nonpolar>
-24.3791

> <Gold.PLP.part.repulsive>
0.4608

> <Gold.PLP.ligand.clash>
0.0000

> <Gold.PLP.ligand.torsion>
0.3763

> <Gold.PLP.Chemscore.Hbond>
3.0000

> <Gold.PLP.Chemscore.CHOScore>
2.0000

> <Gold.PLP.Chemscore.Metal>
0.0000

> <Gold.Chemscore.Hbonds>
donor molecule, donor type, donor heavy atom, donor atom, acceptor molecule, acceptor atom, score
      L1  H     5    25       P1  7948  1.00
      L1  H    10    44       P1  7948  2.00
      L1  C    17    42       P1 10747  1.00
      L1  C    19    43       P1 10186  0.93

> <Gold.PLP.Chemscore.Internal.Correction>
0.1832

> <Gold.Rescore>
     Score         DG    S(hbond)    S(metal)    S(lipo)     H(rot)  DE(clash)    DE(int)     intcor
     10.96     -13.07       2.57        0.00      48.05       2.59       0.23       1.87       ----

> <Gold.Chemscore.Fitness>
10.9646

> <Gold.Chemscore.DG>
-13.0710

> <Gold.Chemscore.ZeroCoef>
-5.4800

> <Gold.Chemscore.Hbond>
2.5718

> <Gold.Chemscore.Metal>
0.0000

> <Gold.Chemscore.Lipo>
48.0546

> <Gold.Chemscore.Internal_Hbond>
0.0000

> <Gold.Chemscore.DEClash>
0.2339

> <Gold.Chemscore.DEInternal>
1.8726

> <Gold.Chemscore.Rot>
2.5864

> <Gold.Chemscore.Internal.Correction>
   9.000000E+99

> <Gold.Chemscore.Hbonds>
donor molecule, donor type, donor heavy atom, donor atom, acceptor molecule, acceptor atom, score
      L1  H     5    25       P1  7948  1.00
      L1  H    10    44       P1  7948  1.00

> <Gold.Chemscore.Hbond.Weighted>
-8.5898

> <Gold.Chemscore.Metal.Weighted>
-0.0000

> <Gold.Chemscore.Lipo.Weighted>
-5.6224

> <Gold.Chemscore.Internal_Hbond.Weighted>
0.0000

> <Gold.Chemscore.DEClash.Weighted>
0.2339

> <Gold.Chemscore.DEInternal.Weighted>
1.8726

> <Gold.Chemscore.Rot.Weighted>
6.6211

> <Gold.Chemscore.Internal.Correction.Weighted>
   9.000000E+99

> <Gold.Protein.RotatedTorsions>
[ 6907 6896 6895 6894 ] final   40.81 input  -60.11 | X-H torsion
[ 7974 7965 7964 7962 ] final   76.99 input  175.53 | X-H torsion
[ 8008 7997 7996 7995 ] final   -7.93 input   59.86 | X-H torsion
[ 10167 10162 10161 10158 ] final   -0.71 input  -65.29 | X-H torsion
[ 10718 10713 10712 10709 ] final  -35.21 input   66.30 | X-H torsion
[ 10763 10752 10751 10750 ] final -160.23 input  -60.55 | X-H torsion
[ 11005 11000 10999 10996 ] final  145.96 input  -57.11 | X-H torsion

> <Gold.Protein.ActiveResidues>
 VAL166  LYS551  ARG553  GLY616  TRP617  ASP618  TYR619  PRO620  LYS621  CYS622 
 ASP623  PHE694  ASN695  SER759  ASP760  ASP761  ALA762  ILE779  LEU786  VAL792 
 PHE793  MET794  SER795  GLU796  ALA797  LYS798  CYS799  TRP800  GLU811  SER814 

> <Gold.Protein.RotatedAtoms>
  152.1872  134.8703  160.0520 H   0  0  0  0  0  0  0  0  0  0  0  0  # atno 6907 bound_to 6896
  151.9605  133.3689  159.4042 H   0  0  0  0  0  0  0  0  0  0  0  0  # atno 6908 bound_to 6896
  150.6928  134.4169  159.5231 H   0  0  0  0  0  0  0  0  0  0  0  0  # atno 6909 bound_to 6896
  145.6958  139.2567  143.1733 H   0  0  0  0  0  0  0  0  0  0  0  0  # atno 7974 bound_to 7965
  154.5790  140.2394  155.8080 H   0  0  0  0  0  0  0  0  0  0  0  0  # atno 8008 bound_to 7997
  156.2165  140.3010  155.9808 H   0  0  0  0  0  0  0  0  0  0  0  0  # atno 8009 bound_to 7997
  155.2574  140.0413  157.2984 H   0  0  0  0  0  0  0  0  0  0  0  0  # atno 8010 bound_to 7997
  140.6779  143.6862  150.8064 H   0  0  0  0  0  0  0  0  0  0  0  0  # atno 10167 bound_to 10162
  156.3414  130.4294  149.7784 H   0  0  0  0  0  0  0  0  0  0  0  0  # atno 10718 bound_to 10713
  154.7408  135.3068  154.8732 H   0  0  0  0  0  0  0  0  0  0  0  0  # atno 10763 bound_to 10752
  153.9547  135.6760  153.4748 H   0  0  0  0  0  0  0  0  0  0  0  0  # atno 10764 bound_to 10752
  153.1007  135.4913  154.8786 H   0  0  0  0  0  0  0  0  0  0  0  0  # atno 10765 bound_to 10752
  140.0755  134.9127  157.1415 H   0  0  0  0  0  0  0  0  0  0  0  0  # atno 11005 bound_to 11000
  146.0842  140.7730  142.9627 LP  0  0  0  0  0  0  0  0  0  0  0  0  # atno 17320 bound_to 7965
  144.6983  140.3535  143.7177 LP  0  0  0  0  0  0  0  0  0  0  0  0  # atno 17321 bound_to 7965
  140.0558  143.5204  152.2652 LP  0  0  0  0  0  0  0  0  0  0  0  0  # atno 17342 bound_to 10162
  139.6082  144.7602  151.3012 LP  0  0  0  0  0  0  0  0  0  0  0  0  # atno 17343 bound_to 10162
  156.5019  130.8133  151.3136 LP  0  0  0  0  0  0  0  0  0  0  0  0  # atno 17370 bound_to 10713
  157.7447  130.9942  150.2698 LP  0  0  0  0  0  0  0  0  0  0  0  0  # atno 17371 bound_to 10713
  140.3564  134.2542  155.7192 LP  0  0  0  0  0  0  0  0  0  0  0  0  # atno 17394 bound_to 11000
  141.2028  133.7929  157.0374 LP  0  0  0  0  0  0  0  0  0  0  0  0  # atno 17395 bound_to 11000

$$$$
