AV-unprocessed.smi:2576|AV-procd|sdf|10119|dock2
  -GOLD-   2272014133D 1   1.00000     0.00000
 Structure written by MMmdl.
 27 28  0  0  0  0  0  0  0  0  1 V2000
  149.9486  142.2076  155.5532 O   0  0  0  0  0  0  0  0  0  0  0  0
  150.9437  141.3873  156.1359 C   0  0  1  0  0  0  0  0  0  0  0  0
  151.2205  141.8739  157.5724 C   0  0  0  0  0  0  0  0  0  0  0  0
  152.2755  141.1188  158.2264 N   0  0  0  0  0  0  0  0  0  0  0  0
  152.9546  140.1707  157.5208 N   0  0  0  0  0  0  0  0  0  0  0  0
  153.8427  139.6287  158.2997 N   0  0  0  0  0  0  0  0  0  0  0  0
  153.7482  140.2327  159.5425 C   0  0  0  0  0  0  0  0  0  0  0  0
  154.4642  140.0333  160.7441 C   0  0  0  0  0  0  0  0  0  0  0  0
  154.1633  140.8013  161.8904 C   0  0  0  0  0  0  0  0  0  0  0  0
  155.0613  140.5287  163.3414 Cl  0  0  0  0  0  0  0  0  0  0  0  0
  153.1405  141.7794  161.8469 C   0  0  0  0  0  0  0  0  0  0  0  0
  152.7613  142.7295  163.2391 Cl  0  0  0  0  0  0  0  0  0  0  0  0
  152.4172  141.9877  160.6557 C   0  0  0  0  0  0  0  0  0  0  0  0
  152.7319  141.2124  159.5268 C   0  0  0  0  0  0  0  0  0  0  0  0
  150.4848  139.9152  156.1099 C   0  0  0  0  0  0  0  0  0  0  0  0
  150.9026  139.1334  154.8513 C   0  0  0  0  0  0  0  0  0  0  0  0
  150.2550  139.6289  153.7975 F   0  0  0  0  0  0  0  0  0  0  0  0
  152.2125  139.2416  154.6304 F   0  0  0  0  0  0  0  0  0  0  0  0
  150.5835  137.8455  154.9782 F   0  0  0  0  0  0  0  0  0  0  0  0
  149.6521  142.8289  156.2013 H   0  0  0  0  0  0  0  0  0  0  0  0
  151.8558  141.4906  155.5471 H   0  0  0  0  0  0  0  0  0  0  0  0
  151.4990  142.9285  157.5700 H   0  0  0  0  0  0  0  0  0  0  0  0
  150.3171  141.7949  158.1790 H   0  0  0  0  0  0  0  0  0  0  0  0
  155.2458  139.2888  160.7834 H   0  0  0  0  0  0  0  0  0  0  0  0
  151.6353  142.7313  160.6089 H   0  0  0  0  0  0  0  0  0  0  0  0
  150.9065  139.4035  156.9761 H   0  0  0  0  0  0  0  0  0  0  0  0
  149.4020  139.8645  156.2321 H   0  0  0  0  0  0  0  0  0  0  0  0
  1  2  1  0  0  0  0
  1 20  1  0  0  0  0
  2  3  1  0  0  0  0
  2 15  1  0  0  0  0
  2 21  1  0  0  0  0
  3  4  1  0  0  0  0
  3 22  1  0  0  0  0
  3 23  1  0  0  0  0
  4 14  1  0  0  0  0
  4  5  1  0  0  0  0
  5  6  2  0  0  0  0
  6  7  1  0  0  0  0
  7 14  2  0  0  0  0
  7  8  1  0  0  0  0
  8  9  2  0  0  0  0
  8 24  1  0  0  0  0
  9 10  1  0  0  0  0
  9 11  1  0  0  0  0
 11 12  1  0  0  0  0
 11 13  2  0  0  0  0
 13 14  1  0  0  0  0
 13 25  1  0  0  0  0
 15 16  1  0  0  0  0
 15 26  1  0  0  0  0
 15 27  1  0  0  0  0
 16 17  1  0  0  0  0
 16 18  1  0  0  0  0
 16 19  1  0  0  0  0
M  END
> <s_m_source_file>
AV-unprocessed.smi

> <i_m_source_file_index>
2576

> <i_lp_mmshare_version>
43012

> <i_f3d_flags>
0

> <s_epik_input>
RkMoRikoRilbQ0gyXVtDQEhdKFtPSF0pW0NIMl1uKG5uMSljKGMxMilbY0hdYyhDbCljKENsKVtjSF0y

> <s_epik_cmdline>
J2VwaWtfcHl0aG9uJywgJy1waCcsICc3LjAnLCAnLXRuJywgJzgnLCAnLW1hJywgJzIwMCcsICctbWV0YWxfYmluZGluZycsICctaW1hZScsICc8aW5maWxlLm1hZT4nLCAnLW9tYWUnLCAnPG91dGZpbGUubWFlPic=

> <r_lp_tautomer_probability>
1

> <r_epik_Ionization_Penalty>
1.57739e-05

> <r_epik_Ionization_Penalty_Charging>
0

> <r_epik_Ionization_Penalty_Neutral>
1.57739e-05

> <r_epik_State_Penalty>
-0

> <r_epik_Charging_Adjusted_Penalty>
0

> <i_epik_Tot_Q>
0

> <i_epik_Tot_abs_Q>
0

> <r_epik_Metal_State_Penalty>
-0

> <b_epik_Metal_Only>
0

> <s_lp_Force_Field>
OPLS_2005

> <r_lp_Energy>
8.87224

> <b_lp_Chiralities_Consistent>
1

> <s_lp_Variant>
AV-unprocessed.smi:2576-2

> <Gold.Version>
5.8.1

> <Gold.Id.Protein>
6NUR|6NUR_protein|mol2

> <Gold.PLP.Fitness>
44.1101

> <Gold.PLP.PLP>
-41.0159

> <Gold.PLP.part.hbond>
-3.0000

> <Gold.PLP.part.metal>
0.0000

> <Gold.PLP.part.buried>
0.8290

> <Gold.PLP.part.nonpolar>
-37.6560

> <Gold.PLP.part.repulsive>
0.0000

> <Gold.PLP.ligand.clash>
0.0000

> <Gold.PLP.ligand.torsion>
0.4564

> <Gold.PLP.Chemscore.Hbond>
1.3328

> <Gold.PLP.Chemscore.CHOScore>
0.0000

> <Gold.PLP.Chemscore.Metal>
0.0000

> <Gold.Chemscore.Hbonds>
donor molecule, donor type, donor heavy atom, donor atom, acceptor molecule, acceptor atom, score
      L1  H     1    20       P1  8028  0.34
      P1  H  7997  8008       L1     6  0.45

> <Gold.PLP.Chemscore.Internal.Correction>
0.0087

> <Gold.Rescore>
     Score         DG    S(hbond)    S(metal)    S(lipo)     H(rot)  DE(clash)    DE(int)     intcor
     11.86     -13.91       0.56        0.00     103.83       2.18       0.32       1.73       ----

> <Gold.Chemscore.Fitness>
11.8619

> <Gold.Chemscore.DG>
-13.9143

> <Gold.Chemscore.ZeroCoef>
-5.4800

> <Gold.Chemscore.Hbond>
0.5595

> <Gold.Chemscore.Metal>
0.0000

> <Gold.Chemscore.Lipo>
103.8310

> <Gold.Chemscore.Internal_Hbond>
0.0000

> <Gold.Chemscore.DEClash>
0.3185

> <Gold.Chemscore.DEInternal>
1.7340

> <Gold.Chemscore.Rot>
2.1807

> <Gold.Chemscore.Internal.Correction>
   9.000000E+99

> <Gold.Chemscore.Hbonds>
donor molecule, donor type, donor heavy atom, donor atom, acceptor molecule, acceptor atom, score
      L1  H     1    20       P1  8028  0.35
      P1  H  7997  8008       L1     6  0.01

> <Gold.Chemscore.Hbond.Weighted>
-1.8687

> <Gold.Chemscore.Metal.Weighted>
-0.0000

> <Gold.Chemscore.Lipo.Weighted>
-12.1482

> <Gold.Chemscore.Internal_Hbond.Weighted>
0.0000

> <Gold.Chemscore.DEClash.Weighted>
0.3185

> <Gold.Chemscore.DEInternal.Weighted>
1.7340

> <Gold.Chemscore.Rot.Weighted>
5.5826

> <Gold.Chemscore.Internal.Correction.Weighted>
   9.000000E+99

> <Gold.Protein.RotatedTorsions>
[ 6907 6896 6895 6894 ] final   31.48 input  -60.11 | X-H torsion
[ 7974 7965 7964 7962 ] final   32.13 input  175.53 | X-H torsion
[ 8008 7997 7996 7995 ] final -111.73 input   59.86 | X-H torsion
[ 10167 10162 10161 10158 ] final   59.58 input  -65.29 | X-H torsion
[ 10718 10713 10712 10709 ] final -121.67 input   66.30 | X-H torsion
[ 10763 10752 10751 10750 ] final  -17.40 input  -60.55 | X-H torsion
[ 11005 11000 10999 10996 ] final -103.00 input  -57.11 | X-H torsion

> <Gold.Protein.ActiveResidues>
 VAL166  LYS551  ARG553  GLY616  TRP617  ASP618  TYR619  PRO620  LYS621  CYS622 
 ASP623  PHE694  ASN695  SER759  ASP760  ASP761  ALA762  ILE779  LEU786  VAL792 
 PHE793  MET794  SER795  GLU796  ALA797  LYS798  CYS799  TRP800  GLU811  SER814 

> <Gold.Protein.RotatedAtoms>
  152.0609  134.9595  160.0574 H   0  0  0  0  0  0  0  0  0  0  0  0  # atno 6907 bound_to 6896
  152.0959  133.4219  159.4573 H   0  0  0  0  0  0  0  0  0  0  0  0  # atno 6908 bound_to 6896
  150.6838  134.2737  159.4642 H   0  0  0  0  0  0  0  0  0  0  0  0  # atno 6909 bound_to 6896
  146.1506  139.6566  142.9101 H   0  0  0  0  0  0  0  0  0  0  0  0  # atno 7974 bound_to 7965
  154.9943  140.0395  157.2333 H   0  0  0  0  0  0  0  0  0  0  0  0  # atno 8008 bound_to 7997
  154.7601  140.2783  155.6199 H   0  0  0  0  0  0  0  0  0  0  0  0  # atno 8009 bound_to 7997
  156.2902  140.2630  156.2377 H   0  0  0  0  0  0  0  0  0  0  0  0  # atno 8010 bound_to 7997
  140.1749  144.4240  150.6643 H   0  0  0  0  0  0  0  0  0  0  0  0  # atno 10167 bound_to 10162
  156.1356  130.6428  150.9690 H   0  0  0  0  0  0  0  0  0  0  0  0  # atno 10718 bound_to 10713
  153.5733  135.7007  153.5495 H   0  0  0  0  0  0  0  0  0  0  0  0  # atno 10763 bound_to 10752
  153.3325  135.4043  155.1507 H   0  0  0  0  0  0  0  0  0  0  0  0  # atno 10764 bound_to 10752
  154.8629  135.3722  154.5257 H   0  0  0  0  0  0  0  0  0  0  0  0  # atno 10765 bound_to 10752
  141.1165  133.8604  157.1431 H   0  0  0  0  0  0  0  0  0  0  0  0  # atno 11005 bound_to 11000
  145.4832  141.0438  143.2634 LP  0  0  0  0  0  0  0  0  0  0  0  0  # atno 17320 bound_to 7965
  144.7899  139.6349  143.7118 LP  0  0  0  0  0  0  0  0  0  0  0  0  # atno 17321 bound_to 7965
  140.6558  143.2237  151.5972 LP  0  0  0  0  0  0  0  0  0  0  0  0  # atno 17342 bound_to 10162
  139.5321  144.2885  152.1172 LP  0  0  0  0  0  0  0  0  0  0  0  0  # atno 17343 bound_to 10162
  157.6529  131.0894  150.8012 LP  0  0  0  0  0  0  0  0  0  0  0  0  # atno 17370 bound_to 10713
  156.8092  130.4947  149.5358 LP  0  0  0  0  0  0  0  0  0  0  0  0  # atno 17371 bound_to 10713
  140.0091  134.9996  157.0356 LP  0  0  0  0  0  0  0  0  0  0  0  0  # atno 17394 bound_to 11000
  140.4631  134.1463  155.7193 LP  0  0  0  0  0  0  0  0  0  0  0  0  # atno 17395 bound_to 11000

$$$$
