AV-unprocessed.smi:1966|AV-procd|sdf|7953|dock3
  -GOLD-   2272010123D 1   1.00000     0.00000
 Structure written by MMmdl.
 53 54  0  0  0  0  0  0  0  0  1 V2000
  142.1528  139.3026  155.2104 C   0  0  0  0  0  0  0  0  0  0  0  0
  143.5684  138.7381  155.2525 C   0  0  0  0  0  0  0  0  0  0  0  0
  143.9514  138.0979  156.2313 O   0  0  0  0  0  0  0  0  0  0  0  0
  144.3362  138.9851  154.1797 N   0  0  0  0  0  0  0  0  0  0  0  0
  145.7163  138.5294  153.9969 C   0  0  1  0  0  0  0  0  0  0  0  0
  146.5892  139.1122  155.1263 C   0  0  0  0  0  0  0  0  0  0  0  0
  146.3487  138.8235  156.2991 O   0  0  0  0  0  0  0  0  0  0  0  0
  147.5869  139.9226  154.7261 N   0  0  0  0  0  0  0  0  0  0  0  0
  148.5646  140.5954  155.5084 C   0  0  0  0  0  0  0  0  0  0  0  0
  149.7804  141.1140  155.0052 C   0  0  0  0  0  0  0  0  0  0  0  0
  150.6549  141.7789  155.8862 C   0  0  0  0  0  0  0  0  0  0  0  0
  150.2940  141.9190  157.2465 C   0  0  0  0  0  0  0  0  0  0  0  0
  151.1568  142.5864  158.1416 N   0  0  0  0  0  0  0  0  0  0  0  0
  152.1931  141.8057  158.8108 C   0  0  0  0  0  0  0  0  0  0  0  0
  152.7880  142.6030  159.9851 C   0  0  1  0  0  0  0  0  0  0  0  0
  153.9665  141.8703  160.6347 C   0  0  0  0  0  0  0  0  0  0  0  0
  153.2561  143.8667  159.5155 O   0  0  0  0  0  0  0  0  0  0  0  0
  152.2630  144.6738  158.8779 C   0  0  2  0  0  0  0  0  0  0  0  0
  151.2392  145.2363  159.8801 C   0  0  0  0  0  0  0  0  0  0  0  0
  151.6163  143.9034  157.7097 C   0  0  0  0  0  0  0  0  0  0  0  0
  149.1209  141.4348  157.7222 N   0  0  0  0  0  0  0  0  0  0  0  0
  148.2875  140.7957  156.8752 C   0  0  0  0  0  0  0  0  0  0  0  0
  145.7408  136.9729  154.0477 C   0  0  0  0  0  0  0  0  0  0  0  0
  147.1679  136.3863  154.0655 C   0  0  0  0  0  0  0  0  0  0  0  0
  144.9567  136.3510  152.8750 C   0  0  0  0  0  0  0  0  0  0  0  0
  141.6199  138.9316  154.3345 H   0  0  0  0  0  0  0  0  0  0  0  0
  142.1799  140.3916  155.1640 H   0  0  0  0  0  0  0  0  0  0  0  0
  141.5923  139.0120  156.0998 H   0  0  0  0  0  0  0  0  0  0  0  0
  143.9321  139.5153  153.4216 H   0  0  0  0  0  0  0  0  0  0  0  0
  146.0875  138.8657  153.0262 H   0  0  0  0  0  0  0  0  0  0  0  0
  147.6185  140.1201  153.7363 H   0  0  0  0  0  0  0  0  0  0  0  0
  150.0556  141.0347  153.9656 H   0  0  0  0  0  0  0  0  0  0  0  0
  151.5786  142.1898  155.5066 H   0  0  0  0  0  0  0  0  0  0  0  0
  151.7769  140.8692  159.1847 H   0  0  0  0  0  0  0  0  0  0  0  0
  152.9732  141.5527  158.0911 H   0  0  0  0  0  0  0  0  0  0  0  0
  152.0245  142.7549  160.7483 H   0  0  0  0  0  0  0  0  0  0  0  0
  153.6591  140.8984  161.0217 H   0  0  0  0  0  0  0  0  0  0  0  0
  154.3719  142.4458  161.4672 H   0  0  0  0  0  0  0  0  0  0  0  0
  154.7727  141.7064  159.9190 H   0  0  0  0  0  0  0  0  0  0  0  0
  152.7934  145.5285  158.4572 H   0  0  0  0  0  0  0  0  0  0  0  0
  150.5846  145.9613  159.3962 H   0  0  0  0  0  0  0  0  0  0  0  0
  151.7403  145.7438  160.7046 H   0  0  0  0  0  0  0  0  0  0  0  0
  150.6027  144.4585  160.3015 H   0  0  0  0  0  0  0  0  0  0  0  0
  152.3510  143.7619  156.9159 H   0  0  0  0  0  0  0  0  0  0  0  0
  150.8096  144.4989  157.2837 H   0  0  0  0  0  0  0  0  0  0  0  0
  147.3665  140.4310  157.3067 H   0  0  0  0  0  0  0  0  0  0  0  0
  145.2490  136.6503  154.9674 H   0  0  0  0  0  0  0  0  0  0  0  0
  147.7416  136.7163  153.1990 H   0  0  0  0  0  0  0  0  0  0  0  0
  147.1431  135.2964  154.0489 H   0  0  0  0  0  0  0  0  0  0  0  0
  147.7199  136.6722  154.9608 H   0  0  0  0  0  0  0  0  0  0  0  0
  145.3747  136.6572  151.9157 H   0  0  0  0  0  0  0  0  0  0  0  0
  143.9055  136.6392  152.8866 H   0  0  0  0  0  0  0  0  0  0  0  0
  144.9863  135.2618  152.9162 H   0  0  0  0  0  0  0  0  0  0  0  0
  1  2  1  0  0  0  0
  1 26  1  0  0  0  0
  1 27  1  0  0  0  0
  1 28  1  0  0  0  0
  2  3  2  0  0  0  0
  2  4  1  0  0  0  0
  4  5  1  0  0  0  0
  4 29  1  0  0  0  0
  5  6  1  0  0  0  0
  5 23  1  0  0  0  0
  5 30  1  0  0  0  0
  6  7  2  0  0  0  0
  6  8  1  0  0  0  0
  8  9  1  0  0  0  0
  8 31  1  0  0  0  0
  9 22  1  0  0  0  0
  9 10  2  0  0  0  0
 10 11  1  0  0  0  0
 10 32  1  0  0  0  0
 11 12  2  0  0  0  0
 11 33  1  0  0  0  0
 12 13  1  0  0  0  0
 12 21  1  0  0  0  0
 13 20  1  0  0  0  0
 13 14  1  0  0  0  0
 14 15  1  0  0  0  0
 14 34  1  0  0  0  0
 14 35  1  0  0  0  0
 15 16  1  0  0  0  0
 15 17  1  0  0  0  0
 15 36  1  0  0  0  0
 16 37  1  0  0  0  0
 16 38  1  0  0  0  0
 16 39  1  0  0  0  0
 17 18  1  0  0  0  0
 18 19  1  0  0  0  0
 18 20  1  0  0  0  0
 18 40  1  0  0  0  0
 19 41  1  0  0  0  0
 19 42  1  0  0  0  0
 19 43  1  0  0  0  0
 20 44  1  0  0  0  0
 20 45  1  0  0  0  0
 21 22  2  0  0  0  0
 22 46  1  0  0  0  0
 23 24  1  0  0  0  0
 23 25  1  0  0  0  0
 23 47  1  0  0  0  0
 24 48  1  0  0  0  0
 24 49  1  0  0  0  0
 24 50  1  0  0  0  0
 25 51  1  0  0  0  0
 25 52  1  0  0  0  0
 25 53  1  0  0  0  0
M  END
> <s_m_source_file>
AV-unprocessed.smi

> <i_m_source_file_index>
1966

> <i_lp_mmshare_version>
43012

> <i_f3d_flags>
0

> <s_epik_input>
W0NIM11DKD1PKVtOSF1bQ0BASF0oW0NIXShbQ0gzXSlbQ0gzXSlDKD1PKVtOSF1jMVtjSF1bY0hdYyhuW2NIXTEpTjJbQ0gyXVtDQEBIXShbQ0gzXSlPW0NAQEhdKFtDSDNdKVtDSDJdMg==

> <s_epik_cmdline>
J2VwaWtfcHl0aG9uJywgJy1waCcsICc3LjAnLCAnLXRuJywgJzgnLCAnLW1hJywgJzIwMCcsICctbWV0YWxfYmluZGluZycsICctaW1hZScsICc8aW5maWxlLm1hZT4nLCAnLW9tYWUnLCAnPG91dGZpbGUubWFlPic=

> <r_lp_tautomer_probability>
1

> <r_epik_Ionization_Penalty>
0.000679699

> <r_epik_Ionization_Penalty_Charging>
0

> <r_epik_Ionization_Penalty_Neutral>
0.000679699

> <r_epik_State_Penalty>
0.000430485

> <r_epik_Charging_Adjusted_Penalty>
0.000430485

> <i_epik_Tot_Q>
0

> <i_epik_Tot_abs_Q>
0

> <r_epik_Metal_State_Penalty>
-0

> <b_epik_Metal_Only>
0

> <s_lp_Force_Field>
OPLS_2005

> <r_lp_Energy>
28.3815

> <b_lp_Chiralities_Consistent>
1

> <s_lp_Variant>
AV-unprocessed.smi:1966-6

> <Gold.Version>
5.8.1

> <Gold.Id.Protein>
6NUR|6NUR_protein|mol2

> <Gold.PLP.Fitness>
37.9081

> <Gold.PLP.PLP>
-35.7086

> <Gold.PLP.part.hbond>
-0.8752

> <Gold.PLP.part.metal>
0.0000

> <Gold.PLP.part.buried>
-4.5928

> <Gold.PLP.part.nonpolar>
-30.3080

> <Gold.PLP.part.repulsive>
0.1511

> <Gold.PLP.ligand.clash>
0.0000

> <Gold.PLP.ligand.torsion>
0.5740

> <Gold.PLP.Chemscore.Hbond>
0.9913

> <Gold.PLP.Chemscore.CHOScore>
0.0000

> <Gold.PLP.Chemscore.Metal>
0.0000

> <Gold.Chemscore.Hbonds>
donor molecule, donor type, donor heavy atom, donor atom, acceptor molecule, acceptor atom, score
      L1  H     4    29       P1 10175  0.55

> <Gold.PLP.Chemscore.Internal.Correction>
0.3738

> <Gold.Rescore>
     Score         DG    S(hbond)    S(metal)    S(lipo)     H(rot)  DE(clash)    DE(int)     intcor
     11.10     -15.81       1.00        0.00      96.47       1.68       0.02       4.70       ----

> <Gold.Chemscore.Fitness>
11.0975

> <Gold.Chemscore.DG>
-15.8102

> <Gold.Chemscore.ZeroCoef>
-5.4800

> <Gold.Chemscore.Hbond>
0.9980

> <Gold.Chemscore.Metal>
0.0000

> <Gold.Chemscore.Lipo>
96.4722

> <Gold.Chemscore.Internal_Hbond>
0.0000

> <Gold.Chemscore.DEClash>
0.0165

> <Gold.Chemscore.DEInternal>
4.6962

> <Gold.Chemscore.Rot>
1.6759

> <Gold.Chemscore.Internal.Correction>
   9.000000E+99

> <Gold.Chemscore.Hbonds>
donor molecule, donor type, donor heavy atom, donor atom, acceptor molecule, acceptor atom, score
      L1  H     4    29       P1 10175  0.56

> <Gold.Chemscore.Hbond.Weighted>
-3.3332

> <Gold.Chemscore.Metal.Weighted>
-0.0000

> <Gold.Chemscore.Lipo.Weighted>
-11.2872

> <Gold.Chemscore.Internal_Hbond.Weighted>
0.0000

> <Gold.Chemscore.DEClash.Weighted>
0.0165

> <Gold.Chemscore.DEInternal.Weighted>
4.6962

> <Gold.Chemscore.Rot.Weighted>
4.2902

> <Gold.Chemscore.Internal.Correction.Weighted>
   9.000000E+99

> <Gold.Protein.RotatedTorsions>
[ 6907 6896 6895 6894 ] final  -70.17 input  -60.11 | X-H torsion
[ 7974 7965 7964 7962 ] final   54.52 input  175.53 | X-H torsion
[ 8008 7997 7996 7995 ] final  -29.51 input   59.86 | X-H torsion
[ 10167 10162 10161 10158 ] final  178.07 input  -65.29 | X-H torsion
[ 10718 10713 10712 10709 ] final   16.57 input   66.30 | X-H torsion
[ 10763 10752 10751 10750 ] final   47.23 input  -60.55 | X-H torsion
[ 11005 11000 10999 10996 ] final  -69.54 input  -57.11 | X-H torsion

> <Gold.Protein.ActiveResidues>
 VAL166  LYS551  ARG553  GLY616  TRP617  ASP618  TYR619  PRO620  LYS621  CYS622 
 ASP623  PHE694  ASN695  SER759  ASP760  ASP761  ALA762  ILE779  LEU786  VAL792 
 PHE793  MET794  SER795  GLU796  ALA797  LYS798  CYS799  TRP800  GLU811  SER814 

> <Gold.Protein.RotatedAtoms>
  150.7270  134.5491  159.5785 H   0  0  0  0  0  0  0  0  0  0  0  0  # atno 6907 bound_to 6896
  152.2983  134.7638  160.0372 H   0  0  0  0  0  0  0  0  0  0  0  0  # atno 6908 bound_to 6896
  151.8227  133.3361  159.3626 H   0  0  0  0  0  0  0  0  0  0  0  0  # atno 6909 bound_to 6896
  145.9600  139.4050  143.0254 H   0  0  0  0  0  0  0  0  0  0  0  0  # atno 7974 bound_to 7965
  154.4287  140.1816  156.1260 H   0  0  0  0  0  0  0  0  0  0  0  0  # atno 8008 bound_to 7997
  156.0106  140.3351  155.6911 H   0  0  0  0  0  0  0  0  0  0  0  0  # atno 8009 bound_to 7997
  155.6117  140.0650  157.2695 H   0  0  0  0  0  0  0  0  0  0  0  0  # atno 8010 bound_to 7997
  139.5279  144.2723  152.0617 H   0  0  0  0  0  0  0  0  0  0  0  0  # atno 10167 bound_to 10162
  157.0698  130.6343  149.5803 H   0  0  0  0  0  0  0  0  0  0  0  0  # atno 10718 bound_to 10713
  152.9802  135.5983  154.3729 H   0  0  0  0  0  0  0  0  0  0  0  0  # atno 10763 bound_to 10752
  154.3401  135.2768  155.2429 H   0  0  0  0  0  0  0  0  0  0  0  0  # atno 10764 bound_to 10752
  154.4514  135.5989  153.6249 H   0  0  0  0  0  0  0  0  0  0  0  0  # atno 10765 bound_to 10752
  141.1556  133.6767  156.6615 H   0  0  0  0  0  0  0  0  0  0  0  0  # atno 11005 bound_to 11000
  145.8053  140.9752  143.0977 LP  0  0  0  0  0  0  0  0  0  0  0  0  # atno 17320 bound_to 7965
  144.6813  139.9852  143.7484 LP  0  0  0  0  0  0  0  0  0  0  0  0  # atno 17321 bound_to 7965
  140.2182  144.4493  150.6354 LP  0  0  0  0  0  0  0  0  0  0  0  0  # atno 17342 bound_to 10162
  140.6436  143.2208  151.6236 LP  0  0  0  0  0  0  0  0  0  0  0  0  # atno 17343 bound_to 10162
  155.9954  130.5020  150.7456 LP  0  0  0  0  0  0  0  0  0  0  0  0  # atno 17370 bound_to 10713
  157.4887  131.0909  151.0452 LP  0  0  0  0  0  0  0  0  0  0  0  0  # atno 17371 bound_to 10713
  140.3244  134.7981  157.4277 LP  0  0  0  0  0  0  0  0  0  0  0  0  # atno 17394 bound_to 11000
  140.1070  134.5396  155.8300 LP  0  0  0  0  0  0  0  0  0  0  0  0  # atno 17395 bound_to 11000

$$$$
