AV-unprocessed.smi:2562|AV-procd|sdf|10047|dock5
  -GOLD-   2272014 93D 1   1.00000     0.00000
 Structure written by MMmdl.
 30 31  0  0  0  0  0  0  0  0  1 V2000
  152.3067  144.7711  158.2081 C   0  0  0  0  0  0  0  0  0  0  0  0
  151.7212  144.6976  159.6227 C   0  0  0  0  0  0  0  0  0  0  0  0
  152.4125  143.6374  160.4919 C   0  0  0  0  0  0  0  0  0  0  0  0
  152.4983  142.3063  159.8191 C   0  0  0  0  0  0  0  0  0  0  0  0
  153.1032  141.2593  160.3833 N   0  0  0  0  0  0  0  0  0  0  0  0
  153.0148  140.1945  159.5588 N   0  0  0  0  0  0  0  0  0  0  0  0
  152.3512  140.7003  158.5194 C   0  0  0  0  0  0  0  0  0  0  0  0
  151.9904  139.8391  157.3485 C   0  0  1  0  0  0  0  0  0  0  0  0
  151.4671  140.6649  156.1571 C   0  0  0  0  0  0  0  0  0  0  0  0
  151.2180  139.7941  155.0090 N   0  0  0  0  0  0  0  0  0  0  0  0
  152.4115  139.0234  154.6619 C   0  0  0  0  0  0  0  0  0  0  0  0
  152.9238  138.2449  155.8874 C   0  0  0  0  0  0  0  0  0  0  0  0
  153.1753  139.1480  156.9587 O   0  0  0  0  0  0  0  0  0  0  0  0
  151.9779  142.0130  158.6326 N   0  0  0  0  0  0  0  0  0  0  0  0
  153.5611  141.2245  161.2828 H   0  0  0  0  0  0  0  0  0  0  0  0
  151.8001  145.5342  157.6167 H   0  0  0  0  0  0  0  0  0  0  0  0
  152.1971  143.8198  157.6867 H   0  0  0  0  0  0  0  0  0  0  0  0
  153.3679  145.0199  158.2336 H   0  0  0  0  0  0  0  0  0  0  0  0
  151.8090  145.6748  160.0989 H   0  0  0  0  0  0  0  0  0  0  0  0
  150.6545  144.4798  159.5579 H   0  0  0  0  0  0  0  0  0  0  0  0
  153.4229  143.9623  160.7434 H   0  0  0  0  0  0  0  0  0  0  0  0
  151.8796  143.5219  161.4368 H   0  0  0  0  0  0  0  0  0  0  0  0
  151.2370  139.1148  157.6655 H   0  0  0  0  0  0  0  0  0  0  0  0
  150.5525  141.1892  156.4352 H   0  0  0  0  0  0  0  0  0  0  0  0
  152.1977  141.4290  155.8889 H   0  0  0  0  0  0  0  0  0  0  0  0
  150.9324  140.3551  154.2128 H   0  0  0  0  0  0  0  0  0  0  0  0
  152.1885  138.3346  153.8468 H   0  0  0  0  0  0  0  0  0  0  0  0
  153.1932  139.6932  154.3018 H   0  0  0  0  0  0  0  0  0  0  0  0
  152.2051  137.4840  156.1960 H   0  0  0  0  0  0  0  0  0  0  0  0
  153.8503  137.7262  155.6408 H   0  0  0  0  0  0  0  0  0  0  0  0
  1  2  1  0  0  0  0
  1 16  1  0  0  0  0
  1 17  1  0  0  0  0
  1 18  1  0  0  0  0
  2  3  1  0  0  0  0
  2 19  1  0  0  0  0
  2 20  1  0  0  0  0
  3 21  1  0  0  0  0
  3 22  1  0  0  0  0
  3  4  1  0  0  0  0
  4 14  2  0  0  0  0
  4  5  1  0  0  0  0
  5  6  1  0  0  0  0
  5 15  1  0  0  0  0
  6  7  2  0  0  0  0
  7 14  1  0  0  0  0
  7  8  1  0  0  0  0
  8 13  1  0  0  0  0
  8  9  1  0  0  0  0
  8 23  1  0  0  0  0
  9 10  1  0  0  0  0
  9 24  1  0  0  0  0
  9 25  1  0  0  0  0
 10 11  1  0  0  0  0
 10 26  1  0  0  0  0
 11 12  1  0  0  0  0
 11 27  1  0  0  0  0
 11 28  1  0  0  0  0
 12 13  1  0  0  0  0
 12 29  1  0  0  0  0
 12 30  1  0  0  0  0
M  END
> <s_m_source_file>
AV-unprocessed.smi

> <i_m_source_file_index>
2562

> <i_lp_mmshare_version>
43012

> <i_f3d_flags>
0

> <s_epik_input>
W0NIM11bQ0gyXVtDSDJdYzFuW25IXWMobjEpW0NAQEhdMltDSDJdW05IXVtDSDJdW0NIMl1PMg==

> <s_epik_cmdline>
J2VwaWtfcHl0aG9uJywgJy1waCcsICc3LjAnLCAnLXRuJywgJzgnLCAnLW1hJywgJzIwMCcsICctbWV0YWxfYmluZGluZycsICctaW1hZScsICc8aW5maWxlLm1hZT4nLCAnLW9tYWUnLCAnPG91dGZpbGUubWFlPic=

> <r_epik_Ionization_Penalty>
1.10136

> <r_epik_Ionization_Penalty_Charging>
0

> <r_epik_Ionization_Penalty_Neutral>
1.10136

> <r_epik_State_Penalty>
1.43987

> <r_epik_Charging_Adjusted_Penalty>
1.43987

> <i_epik_Tot_Q>
0

> <i_epik_Tot_abs_Q>
0

> <r_epik_Metal_State_Penalty>
1.55976

> <b_epik_Metal_Only>
0

> <s_lp_Force_Field>
OPLS_2005

> <r_lp_Energy>
12.0534

> <b_lp_Chiralities_Consistent>
1

> <s_lp_Variant>
AV-unprocessed.smi:2562-6

> <Gold.Version>
5.8.1

> <Gold.Id.Protein>
6NUR|6NUR_protein|mol2

> <Gold.PLP.Fitness>
34.9783

> <Gold.PLP.PLP>
-32.5677

> <Gold.PLP.part.hbond>
-2.0000

> <Gold.PLP.part.metal>
0.0000

> <Gold.PLP.part.buried>
-4.8193

> <Gold.PLP.part.nonpolar>
-25.7955

> <Gold.PLP.part.repulsive>
0.0941

> <Gold.PLP.ligand.clash>
0.0000

> <Gold.PLP.ligand.torsion>
0.3009

> <Gold.PLP.Chemscore.Hbond>
1.0000

> <Gold.PLP.Chemscore.CHOScore>
0.0000

> <Gold.PLP.Chemscore.Metal>
0.0000

> <Gold.Chemscore.Hbonds>
donor molecule, donor type, donor heavy atom, donor atom, acceptor molecule, acceptor atom, score
      P1  H  7997  8008       L1    13  1.00

> <Gold.PLP.Chemscore.Internal.Correction>
0.0124

> <Gold.Rescore>
     Score         DG    S(hbond)    S(metal)    S(lipo)     H(rot)  DE(clash)    DE(int)     intcor
     11.44     -12.93       0.98        0.00      67.94       1.48       0.07       1.42       ----

> <Gold.Chemscore.Fitness>
11.4402

> <Gold.Chemscore.DG>
-12.9263

> <Gold.Chemscore.ZeroCoef>
-5.4800

> <Gold.Chemscore.Hbond>
0.9813

> <Gold.Chemscore.Metal>
0.0000

> <Gold.Chemscore.Lipo>
67.9447

> <Gold.Chemscore.Internal_Hbond>
0.0000

> <Gold.Chemscore.DEClash>
0.0655

> <Gold.Chemscore.DEInternal>
1.4207

> <Gold.Chemscore.Rot>
1.4769

> <Gold.Chemscore.Internal.Correction>
   9.000000E+99

> <Gold.Chemscore.Hbonds>
donor molecule, donor type, donor heavy atom, donor atom, acceptor molecule, acceptor atom, score
      P1  H  7997  8008       L1    13  0.68

> <Gold.Chemscore.Hbond.Weighted>
-3.2776

> <Gold.Chemscore.Metal.Weighted>
-0.0000

> <Gold.Chemscore.Lipo.Weighted>
-7.9495

> <Gold.Chemscore.Internal_Hbond.Weighted>
0.0000

> <Gold.Chemscore.DEClash.Weighted>
0.0655

> <Gold.Chemscore.DEInternal.Weighted>
1.4207

> <Gold.Chemscore.Rot.Weighted>
3.7808

> <Gold.Chemscore.Internal.Correction.Weighted>
   9.000000E+99

> <Gold.Protein.RotatedTorsions>
[ 6907 6896 6895 6894 ] final -114.26 input  -60.11 | X-H torsion
[ 7974 7965 7964 7962 ] final  105.92 input  175.53 | X-H torsion
[ 8008 7997 7996 7995 ] final  -59.51 input   59.86 | X-H torsion
[ 10167 10162 10161 10158 ] final  110.21 input  -65.29 | X-H torsion
[ 10718 10713 10712 10709 ] final -101.44 input   66.30 | X-H torsion
[ 10763 10752 10751 10750 ] final -141.65 input  -60.55 | X-H torsion
[ 11005 11000 10999 10996 ] final   90.63 input  -57.11 | X-H torsion

> <Gold.Protein.ActiveResidues>
 VAL166  LYS551  ARG553  GLY616  TRP617  ASP618  TYR619  PRO620  LYS621  CYS622 
 ASP623  PHE694  ASN695  SER759  ASP760  ASP761  ALA762  ILE779  LEU786  VAL792 
 PHE793  MET794  SER795  GLU796  ALA797  LYS798  CYS799  TRP800  GLU811  SER814 

> <Gold.Protein.RotatedAtoms>
  150.7889  133.8826  159.3289 H   0  0  0  0  0  0  0  0  0  0  0  0  # atno 6907 bound_to 6896
  151.6669  135.0980  160.0200 H   0  0  0  0  0  0  0  0  0  0  0  0  # atno 6908 bound_to 6896
  152.3959  133.6708  159.6311 H   0  0  0  0  0  0  0  0  0  0  0  0  # atno 6909 bound_to 6896
  145.3133  139.2534  143.3751 H   0  0  0  0  0  0  0  0  0  0  0  0  # atno 7974 bound_to 7965
  154.4356  140.1060  156.6127 H   0  0  0  0  0  0  0  0  0  0  0  0  # atno 8008 bound_to 7997
  155.5792  140.3490  155.4517 H   0  0  0  0  0  0  0  0  0  0  0  0  # atno 8009 bound_to 7997
  156.0331  140.1265  157.0226 H   0  0  0  0  0  0  0  0  0  0  0  0  # atno 8010 bound_to 7997
  139.6706  144.7125  151.1695 H   0  0  0  0  0  0  0  0  0  0  0  0  # atno 10167 bound_to 10162
  156.0194  130.5373  150.6963 H   0  0  0  0  0  0  0  0  0  0  0  0  # atno 10718 bound_to 10713
  154.8538  135.3518  154.5902 H   0  0  0  0  0  0  0  0  0  0  0  0  # atno 10763 bound_to 10752
  153.6511  135.6994  153.5213 H   0  0  0  0  0  0  0  0  0  0  0  0  # atno 10764 bound_to 10752
  153.2893  135.4239  155.1110 H   0  0  0  0  0  0  0  0  0  0  0  0  # atno 10765 bound_to 10752
  139.8852  134.8625  156.3312 H   0  0  0  0  0  0  0  0  0  0  0  0  # atno 11005 bound_to 11000
  146.3109  140.3674  142.8671 LP  0  0  0  0  0  0  0  0  0  0  0  0  # atno 17320 bound_to 7965
  144.8998  140.7628  143.5874 LP  0  0  0  0  0  0  0  0  0  0  0  0  # atno 17321 bound_to 7965
  140.7616  143.5850  150.8855 LP  0  0  0  0  0  0  0  0  0  0  0  0  # atno 17342 bound_to 10162
  139.9515  143.6266  152.3027 LP  0  0  0  0  0  0  0  0  0  0  0  0  # atno 17343 bound_to 10162
  157.4633  131.0885  151.0722 LP  0  0  0  0  0  0  0  0  0  0  0  0  # atno 17370 bound_to 10713
  157.1203  130.6059  149.5503 LP  0  0  0  0  0  0  0  0  0  0  0  0  # atno 17371 bound_to 10713
  140.9721  133.7320  156.0550 LP  0  0  0  0  0  0  0  0  0  0  0  0  # atno 17394 bound_to 11000
  140.7857  134.3675  157.5477 LP  0  0  0  0  0  0  0  0  0  0  0  0  # atno 17395 bound_to 11000

$$$$
