AV-unprocessed.smi:1390|AV-procd|sdf|5656|dock5
  -GOLD-   22720 5283D 1   1.00000     0.00000
 Structure written by MMmdl.
 44 45  0  0  0  0  0  0  0  0  1 V2000
  150.1953  143.6185  159.2914 C   0  0  0  0  0  0  0  0  0  0  0  0
  150.8205  142.7697  158.1798 C   0  0  2  0  0  0  0  0  0  0  0  0
  149.7634  142.2354  157.1941 C   0  0  0  0  0  0  0  0  0  0  0  0
  150.3938  141.3653  156.2100 N   0  0  0  0  0  0  0  0  0  0  0  0
  149.5191  140.9316  155.2050 C   0  0  0  0  0  0  0  0  0  0  0  0
  148.4181  141.7163  154.7904 C   0  0  0  0  0  0  0  0  0  0  0  0
  147.5739  141.2161  153.7809 C   0  0  0  0  0  0  0  0  0  0  0  0
  147.8496  139.9522  153.2213 C   0  0  0  0  0  0  0  0  0  0  0  0
  146.9565  139.3926  152.1247 C   0  0  0  0  0  0  0  0  0  0  0  0
  146.8886  137.9364  152.1210 N   0  0  0  0  0  0  0  0  0  0  0  0
  145.7651  137.2169  151.9824 C   0  0  0  0  0  0  0  0  0  0  0  0
  144.6466  137.7196  151.8778 O   0  0  0  0  0  0  0  0  0  0  0  0
  145.9230  135.6967  151.9758 C   0  0  0  0  0  0  0  0  0  0  0  0
  145.4295  135.1806  150.7489 O   0  0  0  0  0  0  0  0  0  0  0  0
  146.1873  134.0814  150.2694 C   0  0  0  0  0  0  0  0  0  0  0  0
  145.3261  133.2462  149.3141 C   0  0  0  0  0  0  0  0  0  0  0  0
  144.7290  132.2717  149.9991 F   0  0  0  0  0  0  0  0  0  0  0  0
  144.3899  134.0087  148.7501 F   0  0  0  0  0  0  0  0  0  0  0  0
  146.0883  132.6988  148.3674 F   0  0  0  0  0  0  0  0  0  0  0  0
  148.9814  139.2523  153.6977 C   0  0  0  0  0  0  0  0  0  0  0  0
  149.7950  139.7244  154.6657 N   0  0  0  0  0  0  0  0  0  0  0  0
  151.1554  140.2843  156.8216 C   0  0  0  0  0  0  0  0  0  0  0  0
  152.1725  140.8585  157.8220 C   0  0  0  0  0  0  0  0  0  0  0  0
  151.4946  141.6659  158.7809 O   0  0  0  0  0  0  0  0  0  0  0  0
  149.6825  144.4880  158.8792 H   0  0  0  0  0  0  0  0  0  0  0  0
  150.9584  143.9795  159.9814 H   0  0  0  0  0  0  0  0  0  0  0  0
  149.4699  143.0431  159.8672 H   0  0  0  0  0  0  0  0  0  0  0  0
  151.5474  143.3816  157.6427 H   0  0  0  0  0  0  0  0  0  0  0  0
  148.9944  141.6834  157.7365 H   0  0  0  0  0  0  0  0  0  0  0  0
  149.2688  143.0648  156.6866 H   0  0  0  0  0  0  0  0  0  0  0  0
  148.2201  142.6807  155.2350 H   0  0  0  0  0  0  0  0  0  0  0  0
  146.7261  141.7955  153.4457 H   0  0  0  0  0  0  0  0  0  0  0  0
  145.9462  139.7876  152.2401 H   0  0  0  0  0  0  0  0  0  0  0  0
  147.3342  139.7541  151.1668 H   0  0  0  0  0  0  0  0  0  0  0  0
  147.7618  137.4365  152.2080 H   0  0  0  0  0  0  0  0  0  0  0  0
  146.9782  135.4489  152.0991 H   0  0  0  0  0  0  0  0  0  0  0  0
  145.3759  135.2661  152.8162 H   0  0  0  0  0  0  0  0  0  0  0  0
  147.0771  134.4397  149.7492 H   0  0  0  0  0  0  0  0  0  0  0  0
  146.5224  133.4653  151.1056 H   0  0  0  0  0  0  0  0  0  0  0  0
  149.2500  138.2868  153.2950 H   0  0  0  0  0  0  0  0  0  0  0  0
  150.4802  139.5989  157.3354 H   0  0  0  0  0  0  0  0  0  0  0  0
  151.6707  139.7126  156.0487 H   0  0  0  0  0  0  0  0  0  0  0  0
  152.6890  140.0498  158.3390 H   0  0  0  0  0  0  0  0  0  0  0  0
  152.9345  141.4473  157.3090 H   0  0  0  0  0  0  0  0  0  0  0  0
  1  2  1  0  0  0  0
  1 25  1  0  0  0  0
  1 26  1  0  0  0  0
  1 27  1  0  0  0  0
  2 24  1  0  0  0  0
  2  3  1  0  0  0  0
  2 28  1  0  0  0  0
  3  4  1  0  0  0  0
  3 29  1  0  0  0  0
  3 30  1  0  0  0  0
  4  5  1  0  0  0  0
  4 22  1  0  0  0  0
  5 21  1  0  0  0  0
  5  6  2  0  0  0  0
  6  7  1  0  0  0  0
  6 31  1  0  0  0  0
  7  8  2  0  0  0  0
  7 32  1  0  0  0  0
  8  9  1  0  0  0  0
  8 20  1  0  0  0  0
  9 10  1  0  0  0  0
  9 33  1  0  0  0  0
  9 34  1  0  0  0  0
 10 11  1  0  0  0  0
 10 35  1  0  0  0  0
 11 12  2  0  0  0  0
 11 13  1  0  0  0  0
 13 14  1  0  0  0  0
 13 36  1  0  0  0  0
 13 37  1  0  0  0  0
 14 15  1  0  0  0  0
 15 16  1  0  0  0  0
 15 38  1  0  0  0  0
 15 39  1  0  0  0  0
 16 17  1  0  0  0  0
 16 18  1  0  0  0  0
 16 19  1  0  0  0  0
 20 21  2  0  0  0  0
 20 40  1  0  0  0  0
 22 23  1  0  0  0  0
 22 41  1  0  0  0  0
 22 42  1  0  0  0  0
 23 24  1  0  0  0  0
 23 43  1  0  0  0  0
 23 44  1  0  0  0  0
M  END
> <s_m_source_file>
AV-unprocessed.smi

> <i_m_source_file_index>
1390

> <i_lp_mmshare_version>
43012

> <i_f3d_flags>
0

> <s_epik_input>
W0NIM11bQ0BASF0xW0NIMl1OKFtDSDJdW0NIMl1PMSljMltjSF1bY0hdYyhbY0hdbjIpW0NIMl1bTkhdQyg9TylbQ0gyXU9bQ0gyXUMoRikoRilG

> <s_epik_cmdline>
J2VwaWtfcHl0aG9uJywgJy1waCcsICc3LjAnLCAnLXRuJywgJzgnLCAnLW1hJywgJzIwMCcsICctbWV0YWxfYmluZGluZycsICctaW1hZScsICc8aW5maWxlLm1hZT4nLCAnLW9tYWUnLCAnPG91dGZpbGUubWFlPic=

> <r_lp_tautomer_probability>
1

> <r_epik_Ionization_Penalty>
0.00481831

> <r_epik_Ionization_Penalty_Charging>
0

> <r_epik_Ionization_Penalty_Neutral>
0.00481831

> <r_epik_State_Penalty>
0.00349373

> <r_epik_Charging_Adjusted_Penalty>
0.00349373

> <i_epik_Tot_Q>
0

> <i_epik_Tot_abs_Q>
0

> <r_epik_Metal_State_Penalty>
-0

> <b_epik_Metal_Only>
0

> <s_lp_Force_Field>
OPLS_2005

> <r_lp_Energy>
18.3567

> <b_lp_Chiralities_Consistent>
1

> <s_lp_Variant>
AV-unprocessed.smi:1390-1

> <Gold.Version>
5.8.1

> <Gold.Id.Protein>
6NUR|6NUR_protein|mol2

> <Gold.PLP.Fitness>
42.0246

> <Gold.PLP.PLP>
-40.1192

> <Gold.PLP.part.hbond>
-1.0000

> <Gold.PLP.part.metal>
0.0000

> <Gold.PLP.part.buried>
-2.4072

> <Gold.PLP.part.nonpolar>
-37.6883

> <Gold.PLP.part.repulsive>
1.6064

> <Gold.PLP.ligand.clash>
0.0000

> <Gold.PLP.ligand.torsion>
2.1435

> <Gold.PLP.Chemscore.Hbond>
0.9760

> <Gold.PLP.Chemscore.CHOScore>
1.0000

> <Gold.PLP.Chemscore.Metal>
0.0000

> <Gold.Chemscore.Hbonds>
donor molecule, donor type, donor heavy atom, donor atom, acceptor molecule, acceptor atom, score
      L1  H    10    35       P1  7948  1.00
      L1  C    20    40       P1  7948  1.00

> <Gold.PLP.Chemscore.Internal.Correction>
0.2642

> <Gold.Rescore>
     Score         DG    S(hbond)    S(metal)    S(lipo)     H(rot)  DE(clash)    DE(int)     intcor
      9.86     -11.90       0.96        0.00      83.51       2.57       0.01       2.02       ----

> <Gold.Chemscore.Fitness>
9.8614

> <Gold.Chemscore.DG>
-11.8954

> <Gold.Chemscore.ZeroCoef>
-5.4800

> <Gold.Chemscore.Hbond>
0.9621

> <Gold.Chemscore.Metal>
0.0000

> <Gold.Chemscore.Lipo>
83.5066

> <Gold.Chemscore.Internal_Hbond>
0.0000

> <Gold.Chemscore.DEClash>
0.0102

> <Gold.Chemscore.DEInternal>
2.0237

> <Gold.Chemscore.Rot>
2.5657

> <Gold.Chemscore.Internal.Correction>
   9.000000E+99

> <Gold.Chemscore.Hbonds>
donor molecule, donor type, donor heavy atom, donor atom, acceptor molecule, acceptor atom, score
      L1  H    10    35       P1  7948  0.99

> <Gold.Chemscore.Hbond.Weighted>
-3.2133

> <Gold.Chemscore.Metal.Weighted>
-0.0000

> <Gold.Chemscore.Lipo.Weighted>
-9.7703

> <Gold.Chemscore.Internal_Hbond.Weighted>
0.0000

> <Gold.Chemscore.DEClash.Weighted>
0.0102

> <Gold.Chemscore.DEInternal.Weighted>
2.0237

> <Gold.Chemscore.Rot.Weighted>
6.5682

> <Gold.Chemscore.Internal.Correction.Weighted>
   9.000000E+99

> <Gold.Protein.RotatedTorsions>
[ 6907 6896 6895 6894 ] final   70.77 input  -60.11 | X-H torsion
[ 7974 7965 7964 7962 ] final   21.13 input  175.53 | X-H torsion
[ 8008 7997 7996 7995 ] final  -65.16 input   59.86 | X-H torsion
[ 10167 10162 10161 10158 ] final  -82.80 input  -65.29 | X-H torsion
[ 10718 10713 10712 10709 ] final  -41.89 input   66.30 | X-H torsion
[ 10763 10752 10751 10750 ] final  -17.27 input  -60.55 | X-H torsion
[ 11005 11000 10999 10996 ] final  141.97 input  -57.11 | X-H torsion

> <Gold.Protein.ActiveResidues>
 VAL166  LYS551  ARG553  GLY616  TRP617  ASP618  TYR619  PRO620  LYS621  CYS622 
 ASP623  PHE694  ASN695  SER759  ASP760  ASP761  ALA762  ILE779  LEU786  VAL792 
 PHE793  MET794  SER795  GLU796  ALA797  LYS798  CYS799  TRP800  GLU811  SER814 

> <Gold.Protein.RotatedAtoms>
  152.4769  134.4820  159.9668 H   0  0  0  0  0  0  0  0  0  0  0  0  # atno 6907 bound_to 6896
  151.4834  133.3535  159.2849 H   0  0  0  0  0  0  0  0  0  0  0  0  # atno 6908 bound_to 6896
  150.8814  134.8232  159.7289 H   0  0  0  0  0  0  0  0  0  0  0  0  # atno 6909 bound_to 6896
  146.2083  139.8070  142.8708 H   0  0  0  0  0  0  0  0  0  0  0  0  # atno 7974 bound_to 7965
  154.4655  140.0939  156.7008 H   0  0  0  0  0  0  0  0  0  0  0  0  # atno 8008 bound_to 7997
  155.4871  140.3469  155.4330 H   0  0  0  0  0  0  0  0  0  0  0  0  # atno 8009 bound_to 7997
  156.0948  140.1406  156.9533 H   0  0  0  0  0  0  0  0  0  0  0  0  # atno 8010 bound_to 7997
  140.4286  143.2557  151.8791 H   0  0  0  0  0  0  0  0  0  0  0  0  # atno 10167 bound_to 10162
  156.2655  130.4201  149.8495 H   0  0  0  0  0  0  0  0  0  0  0  0  # atno 10718 bound_to 10713
  153.5713  135.7007  153.5503 H   0  0  0  0  0  0  0  0  0  0  0  0  # atno 10763 bound_to 10752
  153.3342  135.4039  155.1519 H   0  0  0  0  0  0  0  0  0  0  0  0  # atno 10764 bound_to 10752
  154.8632  135.3726  154.5236 H   0  0  0  0  0  0  0  0  0  0  0  0  # atno 10765 bound_to 10752
  140.0441  134.9289  157.0898 H   0  0  0  0  0  0  0  0  0  0  0  0  # atno 11005 bound_to 11000
  145.3236  141.0250  143.3486 LP  0  0  0  0  0  0  0  0  0  0  0  0  # atno 17320 bound_to 7965
  144.8849  139.4853  143.6705 LP  0  0  0  0  0  0  0  0  0  0  0  0  # atno 17321 bound_to 7965
  139.4784  144.5360  151.8598 LP  0  0  0  0  0  0  0  0  0  0  0  0  # atno 17342 bound_to 10162
  140.4453  144.1930  150.5893 LP  0  0  0  0  0  0  0  0  0  0  0  0  # atno 17343 bound_to 10162
  156.5995  130.8540  151.3428 LP  0  0  0  0  0  0  0  0  0  0  0  0  # atno 17370 bound_to 10713
  157.7266  130.9631  150.1662 LP  0  0  0  0  0  0  0  0  0  0  0  0  # atno 17371 bound_to 10713
  140.4021  134.2071  155.7163 LP  0  0  0  0  0  0  0  0  0  0  0  0  # atno 17394 bound_to 11000
  141.1898  133.8230  157.0942 LP  0  0  0  0  0  0  0  0  0  0  0  0  # atno 17395 bound_to 11000

$$$$
