AV-unprocessed.smi:2468|AV-procd|sdf|9729|dock6
  -GOLD-   2272013373D 1   1.00000     0.00000
 Structure written by MMmdl.
 32 33  0  0  0  0  0  0  0  0  1 V2000
  153.4075  142.7745  162.7575 C   0  0  0  0  0  0  0  0  0  0  0  0
  152.7512  143.0939  161.4273 C   0  0  0  0  0  0  0  0  0  0  0  0
  152.1345  144.2938  161.3531 N   0  0  0  0  0  0  0  0  0  0  0  0
  151.5273  144.6244  160.1952 C   0  0  0  0  0  0  0  0  0  0  0  0
  151.5092  143.7876  159.0631 C   0  0  0  0  0  0  0  0  0  0  0  0
  152.1688  142.5369  159.1318 C   0  0  0  0  0  0  0  0  0  0  0  0
  152.1932  141.6062  158.0567 N   0  0  0  0  0  0  0  0  0  0  0  0
  151.3700  141.5168  156.9955 C   0  0  0  0  0  0  0  0  0  0  0  0
  150.4199  142.2713  156.7870 O   0  0  0  0  0  0  0  0  0  0  0  0
  151.6873  140.3835  156.0079 C   0  0  2  0  0  0  0  0  0  0  0  0
  150.7618  140.4168  154.9209 O   0  0  0  0  0  0  0  0  0  0  0  0
  150.3955  139.0938  154.5393 C   0  0  0  0  0  0  0  0  0  0  0  0
  151.3191  138.1618  155.3170 C   0  0  0  0  0  0  0  0  0  0  0  0
  151.5892  138.9589  156.5771 C   0  0  1  0  0  0  0  0  0  0  0  0
  152.8306  138.4859  157.3502 C   0  0  0  0  0  0  0  0  0  0  0  0
  152.7930  142.1782  160.3497 C   0  0  0  0  0  0  0  0  0  0  0  0
  153.5976  140.6534  160.5170 Cl  0  0  0  0  0  0  0  0  0  0  0  0
  154.4770  142.6114  162.6228 H   0  0  0  0  0  0  0  0  0  0  0  0
  152.9719  141.8727  163.1883 H   0  0  0  0  0  0  0  0  0  0  0  0
  153.2778  143.5864  163.4742 H   0  0  0  0  0  0  0  0  0  0  0  0
  151.0327  145.5842  160.1721 H   0  0  0  0  0  0  0  0  0  0  0  0
  150.9833  144.1129  158.1790 H   0  0  0  0  0  0  0  0  0  0  0  0
  152.9831  140.9766  158.0496 H   0  0  0  0  0  0  0  0  0  0  0  0
  152.6840  140.5482  155.5953 H   0  0  0  0  0  0  0  0  0  0  0  0
  149.3568  138.9278  154.8275 H   0  0  0  0  0  0  0  0  0  0  0  0
  150.4740  138.9527  153.4612 H   0  0  0  0  0  0  0  0  0  0  0  0
  150.8705  137.1874  155.5131 H   0  0  0  0  0  0  0  0  0  0  0  0
  152.2442  138.0055  154.7599 H   0  0  0  0  0  0  0  0  0  0  0  0
  150.7144  138.8824  157.2259 H   0  0  0  0  0  0  0  0  0  0  0  0
  153.7297  138.5506  156.7368 H   0  0  0  0  0  0  0  0  0  0  0  0
  152.7187  137.4488  157.6676 H   0  0  0  0  0  0  0  0  0  0  0  0
  152.9953  139.0865  158.2445 H   0  0  0  0  0  0  0  0  0  0  0  0
  1  2  1  0  0  0  0
  1 18  1  0  0  0  0
  1 19  1  0  0  0  0
  1 20  1  0  0  0  0
  2 16  1  0  0  0  0
  2  3  2  0  0  0  0
  3  4  1  0  0  0  0
  4  5  2  0  0  0  0
  4 21  1  0  0  0  0
  5  6  1  0  0  0  0
  5 22  1  0  0  0  0
  6  7  1  0  0  0  0
  6 16  2  0  0  0  0
  7  8  1  0  0  0  0
  7 23  1  0  0  0  0
  8  9  2  0  0  0  0
  8 10  1  0  0  0  0
 10 14  1  0  0  0  0
 10 11  1  0  0  0  0
 10 24  1  0  0  0  0
 11 12  1  0  0  0  0
 12 13  1  0  0  0  0
 12 25  1  0  0  0  0
 12 26  1  0  0  0  0
 13 14  1  0  0  0  0
 13 27  1  0  0  0  0
 13 28  1  0  0  0  0
 14 15  1  0  0  0  0
 14 29  1  0  0  0  0
 15 30  1  0  0  0  0
 15 31  1  0  0  0  0
 15 32  1  0  0  0  0
 16 17  1  0  0  0  0
M  END
> <s_m_source_file>
AV-unprocessed.smi

> <i_m_source_file_index>
2468

> <i_lp_mmshare_version>
43012

> <i_f3d_flags>
0

> <s_epik_input>
W0NIM11jMW5bY0hdW2NIXWMoYzFDbClbTkhdQyg9TylbQ0BASF0yT1tDSDJdW0NIMl1bQ0BIXTJbQ0gzXQ==

> <s_epik_cmdline>
J2VwaWtfcHl0aG9uJywgJy1waCcsICc3LjAnLCAnLXRuJywgJzgnLCAnLW1hJywgJzIwMCcsICctbWV0YWxfYmluZGluZycsICctaW1hZScsICc8aW5maWxlLm1hZT4nLCAnLW9tYWUnLCAnPG91dGZpbGUubWFlPic=

> <r_epik_Ionization_Penalty>
0.000361027

> <r_epik_Ionization_Penalty_Charging>
0

> <r_epik_Ionization_Penalty_Neutral>
0.000361027

> <r_epik_State_Penalty>
0.000217849

> <r_epik_Charging_Adjusted_Penalty>
0.000217849

> <i_epik_Tot_Q>
0

> <i_epik_Tot_abs_Q>
0

> <r_epik_Metal_State_Penalty>
-0

> <b_epik_Metal_Only>
0

> <s_lp_Force_Field>
OPLS_2005

> <r_lp_Energy>
24.8892

> <b_lp_Chiralities_Consistent>
1

> <s_lp_Variant>
AV-unprocessed.smi:2468-1

> <Gold.Version>
5.8.1

> <Gold.Id.Protein>
6NUR|6NUR_protein|mol2

> <Gold.PLP.Fitness>
41.1905

> <Gold.PLP.PLP>
-38.3969

> <Gold.PLP.part.hbond>
-1.0000

> <Gold.PLP.part.metal>
0.0000

> <Gold.PLP.part.buried>
-5.7028

> <Gold.PLP.part.nonpolar>
-31.4583

> <Gold.PLP.part.repulsive>
0.6181

> <Gold.PLP.ligand.clash>
0.0000

> <Gold.PLP.ligand.torsion>
0.1045

> <Gold.PLP.Chemscore.Hbond>
1.0000

> <Gold.PLP.Chemscore.CHOScore>
0.0000

> <Gold.PLP.Chemscore.Metal>
0.0000

> <Gold.Chemscore.Hbonds>
donor molecule, donor type, donor heavy atom, donor atom, acceptor molecule, acceptor atom, score
      P1  H  7989  7998       L1    11  0.95

> <Gold.PLP.Chemscore.Internal.Correction>
0.0025

> <Gold.Rescore>
     Score         DG    S(hbond)    S(metal)    S(lipo)     H(rot)  DE(clash)    DE(int)     intcor
     17.20     -18.55       0.95        0.00     106.46       1.00       0.07       1.29       ----

> <Gold.Chemscore.Fitness>
17.1967

> <Gold.Chemscore.DG>
-18.5485

> <Gold.Chemscore.ZeroCoef>
-5.4800

> <Gold.Chemscore.Hbond>
0.9500

> <Gold.Chemscore.Metal>
0.0000

> <Gold.Chemscore.Lipo>
106.4566

> <Gold.Chemscore.Internal_Hbond>
0.0000

> <Gold.Chemscore.DEClash>
0.0655

> <Gold.Chemscore.DEInternal>
1.2864

> <Gold.Chemscore.Rot>
1.0000

> <Gold.Chemscore.Internal.Correction>
   9.000000E+99

> <Gold.Chemscore.Hbonds>
donor molecule, donor type, donor heavy atom, donor atom, acceptor molecule, acceptor atom, score
      P1  H  7989  7998       L1    11  0.14

> <Gold.Chemscore.Hbond.Weighted>
-3.1731

> <Gold.Chemscore.Metal.Weighted>
-0.0000

> <Gold.Chemscore.Lipo.Weighted>
-12.4554

> <Gold.Chemscore.Internal_Hbond.Weighted>
0.0000

> <Gold.Chemscore.DEClash.Weighted>
0.0655

> <Gold.Chemscore.DEInternal.Weighted>
1.2864

> <Gold.Chemscore.Rot.Weighted>
2.5600

> <Gold.Chemscore.Internal.Correction.Weighted>
   9.000000E+99

> <Gold.Protein.RotatedTorsions>
[ 6907 6896 6895 6894 ] final -156.87 input  -60.11 | X-H torsion
[ 7974 7965 7964 7962 ] final  162.50 input  175.53 | X-H torsion
[ 8008 7997 7996 7995 ] final  -36.22 input   59.86 | X-H torsion
[ 10167 10162 10161 10158 ] final  178.92 input  -65.29 | X-H torsion
[ 10718 10713 10712 10709 ] final  -54.99 input   66.30 | X-H torsion
[ 10763 10752 10751 10750 ] final   84.92 input  -60.55 | X-H torsion
[ 11005 11000 10999 10996 ] final   57.36 input  -57.11 | X-H torsion

> <Gold.Protein.ActiveResidues>
 VAL166  LYS551  ARG553  GLY616  TRP617  ASP618  TYR619  PRO620  LYS621  CYS622 
 ASP623  PHE694  ASN695  SER759  ASP760  ASP761  ALA762  ILE779  LEU786  VAL792 
 PHE793  MET794  SER795  GLU796  ALA797  LYS798  CYS799  TRP800  GLU811  SER814 

> <Gold.Protein.RotatedAtoms>
  151.2942  133.4152  159.2634 H   0  0  0  0  0  0  0  0  0  0  0  0  # atno 6907 bound_to 6896
  151.0251  134.9499  159.8091 H   0  0  0  0  0  0  0  0  0  0  0  0  # atno 6908 bound_to 6896
  152.5333  134.2904  159.9093 H   0  0  0  0  0  0  0  0  0  0  0  0  # atno 6909 bound_to 6896
  144.7634  139.8048  143.6324 H   0  0  0  0  0  0  0  0  0  0  0  0  # atno 7974 bound_to 7965
  154.4078  140.1636  156.2339 H   0  0  0  0  0  0  0  0  0  0  0  0  # atno 8008 bound_to 7997
  155.9259  140.3418  155.6187 H   0  0  0  0  0  0  0  0  0  0  0  0  # atno 8009 bound_to 7997
  155.7166  140.0763  157.2339 H   0  0  0  0  0  0  0  0  0  0  0  0  # atno 8010 bound_to 7997
  139.5314  144.2623  152.0697 H   0  0  0  0  0  0  0  0  0  0  0  0  # atno 10167 bound_to 10162
  156.1405  130.4155  150.0112 H   0  0  0  0  0  0  0  0  0  0  0  0  # atno 10718 bound_to 10713
  153.1427  135.4636  154.9519 H   0  0  0  0  0  0  0  0  0  0  0  0  # atno 10763 bound_to 10752
  154.7760  135.3173  154.8093 H   0  0  0  0  0  0  0  0  0  0  0  0  # atno 10764 bound_to 10752
  153.8613  135.6912  153.4837 H   0  0  0  0  0  0  0  0  0  0  0  0  # atno 10765 bound_to 10752
  140.0459  134.5807  155.9324 H   0  0  0  0  0  0  0  0  0  0  0  0  # atno 11005 bound_to 11000
  146.1719  139.4873  142.9922 LP  0  0  0  0  0  0  0  0  0  0  0  0  # atno 17320 bound_to 7965
  145.6547  141.0255  143.1741 LP  0  0  0  0  0  0  0  0  0  0  0  0  # atno 17321 bound_to 7965
  140.2087  144.4585  150.6396 LP  0  0  0  0  0  0  0  0  0  0  0  0  # atno 17342 bound_to 10162
  140.6495  143.2221  151.6110 LP  0  0  0  0  0  0  0  0  0  0  0  0  # atno 17343 bound_to 10162
  156.7999  130.9286  151.3646 LP  0  0  0  0  0  0  0  0  0  0  0  0  # atno 17370 bound_to 10713
  157.6571  130.8934  149.9751 LP  0  0  0  0  0  0  0  0  0  0  0  0  # atno 17371 bound_to 10713
  141.1906  133.6569  156.5421 LP  0  0  0  0  0  0  0  0  0  0  0  0  # atno 17394 bound_to 11000
  140.3995  134.7369  157.4771 LP  0  0  0  0  0  0  0  0  0  0  0  0  # atno 17395 bound_to 11000

$$$$
