AV-unprocessed.smi:3142|AV-procd|sdf|11970|dock9
  -GOLD-   2272017373D 1   1.00000     0.00000
 Structure written by MMmdl.
 36 38  0  0  0  0  0  0  0  0  1 V2000
  151.9607  139.4767  155.8820 C   0  0  0  0  0  0  0  0  0  0  0  0
  151.1524  140.7853  155.9728 C   0  0  2  0  0  0  0  0  0  0  0  0
  150.9074  141.2442  157.4195 C   0  0  0  0  0  0  0  0  0  0  0  0
  149.9638  140.7963  158.0720 O   0  0  0  0  0  0  0  0  0  0  0  0
  151.7741  142.1478  157.9039 N   0  0  0  0  0  0  0  0  0  0  0  0
  151.7293  142.7497  159.2315 C   0  0  0  0  0  0  0  0  0  0  0  0
  151.2097  144.1744  159.1748 C   0  0  0  0  0  0  0  0  0  0  0  0
  152.1111  145.3298  158.8092 C   0  0  0  0  0  0  0  0  0  0  0  0
  151.6000  145.1857  160.2254 C   0  0  0  0  0  0  0  0  0  0  0  0
  153.0746  142.7033  159.9364 C   0  0  0  0  0  0  0  0  0  0  0  0
  153.5771  141.4368  160.5882 C   0  0  0  0  0  0  0  0  0  0  0  0
  153.1716  142.6165  161.4414 C   0  0  0  0  0  0  0  0  0  0  0  0
  149.8902  140.6796  155.2538 N   0  0  0  0  0  0  0  0  0  0  0  0
  149.3762  139.5447  154.6381 C   0  0  0  0  0  0  0  0  0  0  0  0
  148.1772  139.9107  154.0700 C   0  0  0  0  0  0  0  0  0  0  0  0
  147.9351  141.2598  154.3146 N   0  0  0  0  0  0  0  0  0  0  0  0
  148.9909  141.6480  155.0179 C   0  0  0  0  0  0  0  0  0  0  0  0
  152.9213  139.5699  156.3899 H   0  0  0  0  0  0  0  0  0  0  0  0
  152.1663  139.2191  154.8426 H   0  0  0  0  0  0  0  0  0  0  0  0
  151.4279  138.6370  156.3301 H   0  0  0  0  0  0  0  0  0  0  0  0
  151.7411  141.5654  155.4874 H   0  0  0  0  0  0  0  0  0  0  0  0
  152.5167  142.4577  157.2939 H   0  0  0  0  0  0  0  0  0  0  0  0
  151.0214  142.1824  159.8395 H   0  0  0  0  0  0  0  0  0  0  0  0
  150.1851  144.2462  158.8142 H   0  0  0  0  0  0  0  0  0  0  0  0
  153.1652  145.1224  158.6366 H   0  0  0  0  0  0  0  0  0  0  0  0
  151.6861  146.1237  158.1986 H   0  0  0  0  0  0  0  0  0  0  0  0
  150.8344  145.8831  160.5590 H   0  0  0  0  0  0  0  0  0  0  0  0
  152.3116  144.8745  160.9877 H   0  0  0  0  0  0  0  0  0  0  0  0
  153.8336  143.3187  159.4563 H   0  0  0  0  0  0  0  0  0  0  0  0
  152.9202  140.5693  160.5904 H   0  0  0  0  0  0  0  0  0  0  0  0
  154.6390  141.2168  160.5032 H   0  0  0  0  0  0  0  0  0  0  0  0
  153.9639  143.1831  161.9266 H   0  0  0  0  0  0  0  0  0  0  0  0
  152.2484  142.5257  162.0096 H   0  0  0  0  0  0  0  0  0  0  0  0
  149.8916  138.5957  154.6538 H   0  0  0  0  0  0  0  0  0  0  0  0
  147.4779  139.3124  153.5050 H   0  0  0  0  0  0  0  0  0  0  0  0
  149.1153  142.6629  155.3666 H   0  0  0  0  0  0  0  0  0  0  0  0
  1  2  1  0  0  0  0
  1 18  1  0  0  0  0
  1 19  1  0  0  0  0
  1 20  1  0  0  0  0
  2  3  1  0  0  0  0
  2 13  1  0  0  0  0
  2 21  1  0  0  0  0
  3  4  2  0  0  0  0
  3  5  1  0  0  0  0
  5  6  1  0  0  0  0
  5 22  1  0  0  0  0
  6  7  1  0  0  0  0
  6 10  1  0  0  0  0
  6 23  1  0  0  0  0
  7  9  1  0  0  0  0
  7  8  1  0  0  0  0
  7 24  1  0  0  0  0
  8  9  1  0  0  0  0
  8 25  1  0  0  0  0
  8 26  1  0  0  0  0
  9 27  1  0  0  0  0
  9 28  1  0  0  0  0
 10 12  1  0  0  0  0
 10 11  1  0  0  0  0
 10 29  1  0  0  0  0
 11 12  1  0  0  0  0
 11 30  1  0  0  0  0
 11 31  1  0  0  0  0
 12 32  1  0  0  0  0
 12 33  1  0  0  0  0
 13 17  1  0  0  0  0
 13 14  1  0  0  0  0
 14 15  2  0  0  0  0
 14 34  1  0  0  0  0
 15 16  1  0  0  0  0
 15 35  1  0  0  0  0
 16 17  2  0  0  0  0
 17 36  1  0  0  0  0
M  END
> <s_m_source_file>
AV-unprocessed.smi

> <i_m_source_file_index>
3142

> <i_lp_mmshare_version>
43012

> <i_f3d_flags>
0

> <s_epik_input>
W2NIXTFuW2NIXVtjSF1uMVtDQEhdKFtDSDNdKUMoPU8pW05IXVtDSF0oW0NIXTJbQ0gyXVtDSDJdMilbQ0hdM1tDSDJdW0NIMl0z

> <s_epik_cmdline>
J2VwaWtfcHl0aG9uJywgJy1waCcsICc3LjAnLCAnLXRuJywgJzgnLCAnLW1hJywgJzIwMCcsICctbWV0YWxfYmluZGluZycsICctaW1hZScsICc8aW5maWxlLm1hZT4nLCAnLW9tYWUnLCAnPG91dGZpbGUubWFlPic=

> <r_lp_tautomer_probability>
1

> <r_epik_Ionization_Penalty>
0.32285

> <r_epik_Ionization_Penalty_Charging>
0.32285

> <r_epik_Ionization_Penalty_Neutral>
3.37967e-08

> <r_epik_State_Penalty>
0.317502

> <r_epik_Charging_Adjusted_Penalty>
0.640352

> <i_epik_Tot_Q>
0

> <i_epik_Tot_abs_Q>
0

> <r_epik_Metal_State_Penalty>
0.20415

> <b_epik_Metal_Only>
0

> <s_lp_Force_Field>
OPLS_2005

> <r_lp_Energy>
29.0844

> <b_lp_Chiralities_Consistent>
1

> <s_lp_Variant>
AV-unprocessed.smi:3142-1

> <Gold.Version>
5.8.1

> <Gold.Id.Protein>
6NUR|6NUR_protein|mol2

> <Gold.PLP.Fitness>
45.1895

> <Gold.PLP.PLP>
-43.7026

> <Gold.PLP.part.hbond>
0.0000

> <Gold.PLP.part.metal>
0.0000

> <Gold.PLP.part.buried>
-1.0594

> <Gold.PLP.part.nonpolar>
-41.5855

> <Gold.PLP.part.repulsive>
0.2230

> <Gold.PLP.ligand.clash>
0.0000

> <Gold.PLP.ligand.torsion>
1.8599

> <Gold.PLP.Chemscore.Hbond>
0.0000

> <Gold.PLP.Chemscore.CHOScore>
1.0000

> <Gold.PLP.Chemscore.Metal>
0.0000

> <Gold.Chemscore.Hbonds>
donor molecule, donor type, donor heavy atom, donor atom, acceptor molecule, acceptor atom, score
      L1  C    17    36       P1  8028  1.00

> <Gold.PLP.Chemscore.Internal.Correction>
2.2067

> <Gold.Rescore>
     Score         DG    S(hbond)    S(metal)    S(lipo)     H(rot)  DE(clash)    DE(int)     intcor
     10.86     -13.18       0.00        0.00     106.28       1.85       0.11       2.20       ----

> <Gold.Chemscore.Fitness>
10.8643

> <Gold.Chemscore.DG>
-13.1773

> <Gold.Chemscore.ZeroCoef>
-5.4800

> <Gold.Chemscore.Hbond>
0.0000

> <Gold.Chemscore.Metal>
0.0000

> <Gold.Chemscore.Lipo>
106.2787

> <Gold.Chemscore.Internal_Hbond>
0.0000

> <Gold.Chemscore.DEClash>
0.1133

> <Gold.Chemscore.DEInternal>
2.1997

> <Gold.Chemscore.Rot>
1.8505

> <Gold.Chemscore.Internal.Correction>
   9.000000E+99

> <Gold.Chemscore.Hbond.Weighted>
-0.0000

> <Gold.Chemscore.Metal.Weighted>
-0.0000

> <Gold.Chemscore.Lipo.Weighted>
-12.4346

> <Gold.Chemscore.Internal_Hbond.Weighted>
0.0000

> <Gold.Chemscore.DEClash.Weighted>
0.1133

> <Gold.Chemscore.DEInternal.Weighted>
2.1997

> <Gold.Chemscore.Rot.Weighted>
4.7373

> <Gold.Chemscore.Internal.Correction.Weighted>
   9.000000E+99

> <Gold.Protein.RotatedTorsions>
[ 6907 6896 6895 6894 ] final  -56.57 input  -60.11 | X-H torsion
[ 7974 7965 7964 7962 ] final -130.75 input  175.53 | X-H torsion
[ 8008 7997 7996 7995 ] final -129.67 input   59.86 | X-H torsion
[ 10167 10162 10161 10158 ] final -132.95 input  -65.29 | X-H torsion
[ 10718 10713 10712 10709 ] final  161.07 input   66.30 | X-H torsion
[ 10763 10752 10751 10750 ] final -167.47 input  -60.55 | X-H torsion
[ 11005 11000 10999 10996 ] final    1.71 input  -57.11 | X-H torsion

> <Gold.Protein.ActiveResidues>
 VAL166  LYS551  ARG553  GLY616  TRP617  ASP618  TYR619  PRO620  LYS621  CYS622 
 ASP623  PHE694  ASN695  SER759  ASP760  ASP761  ALA762  ILE779  LEU786  VAL792 
 PHE793  MET794  SER795  GLU796  ALA797  LYS798  CYS799  TRP800  GLU811  SER814 

> <Gold.Protein.RotatedAtoms>
  150.8156  134.7336  159.6726 H   0  0  0  0  0  0  0  0  0  0  0  0  # atno 6907 bound_to 6896
  152.4275  134.5837  159.9965 H   0  0  0  0  0  0  0  0  0  0  0  0  # atno 6908 bound_to 6896
  151.6035  133.3317  159.3088 H   0  0  0  0  0  0  0  0  0  0  0  0  # atno 6909 bound_to 6896
  144.9445  140.7276  143.4826 H   0  0  0  0  0  0  0  0  0  0  0  0  # atno 7974 bound_to 7965
  155.2830  140.0445  157.3017 H   0  0  0  0  0  0  0  0  0  0  0  0  # atno 8008 bound_to 7997
  154.5585  140.2339  155.8340 H   0  0  0  0  0  0  0  0  0  0  0  0  # atno 8009 bound_to 7997
  156.2028  140.3021  155.9569 H   0  0  0  0  0  0  0  0  0  0  0  0  # atno 8010 bound_to 7997
  139.9033  143.6582  152.2590 H   0  0  0  0  0  0  0  0  0  0  0  0  # atno 10167 bound_to 10162
  157.1416  131.0542  151.2324 H   0  0  0  0  0  0  0  0  0  0  0  0  # atno 10718 bound_to 10713
  154.6729  135.2942  154.9718 H   0  0  0  0  0  0  0  0  0  0  0  0  # atno 10763 bound_to 10752
  154.0739  135.6614  153.4832 H   0  0  0  0  0  0  0  0  0  0  0  0  # atno 10764 bound_to 10752
  153.0498  135.5181  154.7734 H   0  0  0  0  0  0  0  0  0  0  0  0  # atno 10765 bound_to 10752
  140.6124  133.9736  155.8184 H   0  0  0  0  0  0  0  0  0  0  0  0  # atno 11005 bound_to 11000
  145.2940  139.1874  143.4725 LP  0  0  0  0  0  0  0  0  0  0  0  0  # atno 17320 bound_to 7965
  146.3298  140.2920  142.8616 LP  0  0  0  0  0  0  0  0  0  0  0  0  # atno 17321 bound_to 7965
  139.7006  144.7635  151.1279 LP  0  0  0  0  0  0  0  0  0  0  0  0  # atno 17342 bound_to 10162
  140.7702  143.5463  150.9255 LP  0  0  0  0  0  0  0  0  0  0  0  0  # atno 17343 bound_to 10162
  157.4302  130.7486  149.6983 LP  0  0  0  0  0  0  0  0  0  0  0  0  # atno 17370 bound_to 10713
  155.9787  130.4048  150.3630 LP  0  0  0  0  0  0  0  0  0  0  0  0  # atno 17371 bound_to 10713
  141.0799  134.0078  157.3402 LP  0  0  0  0  0  0  0  0  0  0  0  0  # atno 17394 bound_to 11000
  139.9187  135.0199  156.7980 LP  0  0  0  0  0  0  0  0  0  0  0  0  # atno 17395 bound_to 11000

$$$$
