AV-unprocessed.smi:1392|AV-procd|sdf|5661|dock5
  -GOLD-   22720 5283D 1   1.00000     0.00000
 Structure written by MMmdl.
 39 40  0  0  0  0  0  0  0  0  1 V2000
  151.5907  145.5654  160.1189 C   0  0  0  0  0  0  0  0  0  0  0  0
  152.0320  144.4254  159.3250 N   0  0  0  0  0  0  0  0  0  0  0  0
  151.8346  144.4256  157.8791 C   0  0  0  0  0  0  0  0  0  0  0  0
  152.6316  143.3097  159.9536 C   0  0  0  0  0  0  0  0  0  0  0  0
  152.7810  143.2452  161.3613 C   0  0  0  0  0  0  0  0  0  0  0  0
  153.3820  142.1117  161.9415 C   0  0  0  0  0  0  0  0  0  0  0  0
  153.8158  141.0598  161.1027 C   0  0  0  0  0  0  0  0  0  0  0  0
  154.4514  139.8752  161.5635 N   0  0  0  0  0  0  0  0  0  0  0  0
  154.2902  138.6144  161.1267 C   0  0  0  0  0  0  0  0  0  0  0  0
  153.5580  138.2691  160.1996 O   0  0  0  0  0  0  0  0  0  0  0  0
  155.0513  137.7592  161.8238 N   0  0  0  0  0  0  0  0  0  0  0  0
  155.1153  136.3191  161.5976 C   0  0  0  0  0  0  0  0  0  0  0  0
  155.1947  135.5278  162.9170 C   0  0  2  0  0  0  0  0  0  0  0  0
  154.8828  134.0495  162.7922 C   0  0  0  0  0  0  0  0  0  0  0  0
  154.5664  133.6738  164.2364 C   0  0  0  0  0  0  0  0  0  0  0  0
  153.9954  134.8387  164.8256 O   0  0  0  0  0  0  0  0  0  0  0  0
  154.1659  135.9587  163.9617 C   0  0  0  0  0  0  0  0  0  0  0  0
  153.6393  141.2196  159.7147 C   0  0  0  0  0  0  0  0  0  0  0  0
  153.0632  142.3033  159.1547 N   0  0  0  0  0  0  0  0  0  0  0  0
  152.4335  146.0168  160.6428 H   0  0  0  0  0  0  0  0  0  0  0  0
  150.8465  145.2560  160.8534 H   0  0  0  0  0  0  0  0  0  0  0  0
  151.1389  146.3348  159.4928 H   0  0  0  0  0  0  0  0  0  0  0  0
  152.7893  144.3265  157.3618 H   0  0  0  0  0  0  0  0  0  0  0  0
  151.3672  145.3501  157.5408 H   0  0  0  0  0  0  0  0  0  0  0  0
  151.1908  143.5977  157.5805 H   0  0  0  0  0  0  0  0  0  0  0  0
  152.4516  144.0433  162.0090 H   0  0  0  0  0  0  0  0  0  0  0  0
  153.5087  142.0817  163.0124 H   0  0  0  0  0  0  0  0  0  0  0  0
  155.1509  140.0112  162.2785 H   0  0  0  0  0  0  0  0  0  0  0  0
  155.6276  138.1293  162.5654 H   0  0  0  0  0  0  0  0  0  0  0  0
  154.2505  135.9957  161.0158 H   0  0  0  0  0  0  0  0  0  0  0  0
  155.9923  136.1136  160.9831 H   0  0  0  0  0  0  0  0  0  0  0  0
  156.1899  135.6375  163.3515 H   0  0  0  0  0  0  0  0  0  0  0  0
  154.0037  133.8970  162.1646 H   0  0  0  0  0  0  0  0  0  0  0  0
  155.7065  133.4693  162.3751 H   0  0  0  0  0  0  0  0  0  0  0  0
  153.8927  132.8196  164.3066 H   0  0  0  0  0  0  0  0  0  0  0  0
  155.4828  133.4280  164.7743 H   0  0  0  0  0  0  0  0  0  0  0  0
  154.4800  136.8439  164.5151 H   0  0  0  0  0  0  0  0  0  0  0  0
  153.2057  136.1771  163.4926 H   0  0  0  0  0  0  0  0  0  0  0  0
  153.9655  140.4519  159.0284 H   0  0  0  0  0  0  0  0  0  0  0  0
  1  2  1  0  0  0  0
  1 20  1  0  0  0  0
  1 21  1  0  0  0  0
  1 22  1  0  0  0  0
  2  3  1  0  0  0  0
  2  4  1  0  0  0  0
  3 23  1  0  0  0  0
  3 24  1  0  0  0  0
  3 25  1  0  0  0  0
  4 19  1  0  0  0  0
  4  5  2  0  0  0  0
  5  6  1  0  0  0  0
  5 26  1  0  0  0  0
  6  7  2  0  0  0  0
  6 27  1  0  0  0  0
  7  8  1  0  0  0  0
  7 18  1  0  0  0  0
  8  9  1  0  0  0  0
  8 28  1  0  0  0  0
  9 10  2  0  0  0  0
  9 11  1  0  0  0  0
 11 12  1  0  0  0  0
 11 29  1  0  0  0  0
 12 13  1  0  0  0  0
 12 30  1  0  0  0  0
 12 31  1  0  0  0  0
 13 17  1  0  0  0  0
 13 14  1  0  0  0  0
 13 32  1  0  0  0  0
 14 15  1  0  0  0  0
 14 33  1  0  0  0  0
 14 34  1  0  0  0  0
 15 16  1  0  0  0  0
 15 35  1  0  0  0  0
 15 36  1  0  0  0  0
 16 17  1  0  0  0  0
 17 37  1  0  0  0  0
 17 38  1  0  0  0  0
 18 19  2  0  0  0  0
 18 39  1  0  0  0  0
M  END
> <s_m_source_file>
AV-unprocessed.smi

> <i_m_source_file_index>
1392

> <i_lp_mmshare_version>
43012

> <i_f3d_flags>
0

> <s_epik_input>
W0NIM11OKFtDSDNdKWMxW2NIXVtjSF1jKFtjSF1uMSlbTkhdQyg9TylbTkhdW0NIMl1bQ0BASF0yW0NIMl1bQ0gyXU9bQ0gyXTI=

> <s_epik_cmdline>
J2VwaWtfcHl0aG9uJywgJy1waCcsICc3LjAnLCAnLXRuJywgJzgnLCAnLW1hJywgJzIwMCcsICctbWV0YWxfYmluZGluZycsICctaW1hZScsICc8aW5maWxlLm1hZT4nLCAnLW9tYWUnLCAnPG91dGZpbGUubWFlPic=

> <r_lp_tautomer_probability>
1

> <r_epik_Ionization_Penalty>
0.612298

> <r_epik_Ionization_Penalty_Charging>
0

> <r_epik_Ionization_Penalty_Neutral>
0.612298

> <r_epik_State_Penalty>
0.626495

> <r_epik_Charging_Adjusted_Penalty>
0.626495

> <i_epik_Tot_Q>
0

> <i_epik_Tot_abs_Q>
0

> <r_epik_Metal_State_Penalty>
0.304101

> <b_epik_Metal_Only>
0

> <s_lp_Force_Field>
OPLS_2005

> <r_lp_Energy>
22.6053

> <b_lp_Chiralities_Consistent>
1

> <s_lp_Variant>
AV-unprocessed.smi:1392-3

> <Gold.Version>
5.8.1

> <Gold.Id.Protein>
6NUR|6NUR_protein|mol2

> <Gold.PLP.Fitness>
44.1481

> <Gold.PLP.PLP>
-45.2545

> <Gold.PLP.part.hbond>
0.0000

> <Gold.PLP.part.metal>
0.0000

> <Gold.PLP.part.buried>
-6.5193

> <Gold.PLP.part.nonpolar>
-39.1392

> <Gold.PLP.part.repulsive>
0.9579

> <Gold.PLP.ligand.clash>
0.0000

> <Gold.PLP.ligand.torsion>
0.5567

> <Gold.PLP.Chemscore.Hbond>
0.0000

> <Gold.PLP.Chemscore.CHOScore>
0.0000

> <Gold.PLP.Chemscore.Metal>
0.0000

> <Gold.PLP.Chemscore.Internal.Correction>
0.0069

> <Gold.Rescore>
     Score         DG    S(hbond)    S(metal)    S(lipo)     H(rot)  DE(clash)    DE(int)     intcor
     12.34     -13.96       0.00        0.00      99.03       1.21       0.00       1.61       ----

> <Gold.Chemscore.Fitness>
12.3410

> <Gold.Chemscore.DG>
-13.9567

> <Gold.Chemscore.ZeroCoef>
-5.4800

> <Gold.Chemscore.Hbond>
0.0000

> <Gold.Chemscore.Metal>
0.0000

> <Gold.Chemscore.Lipo>
99.0257

> <Gold.Chemscore.Internal_Hbond>
0.0000

> <Gold.Chemscore.DEClash>
0.0009

> <Gold.Chemscore.DEInternal>
1.6147

> <Gold.Chemscore.Rot>
1.2146

> <Gold.Chemscore.Internal.Correction>
   9.000000E+99

> <Gold.Chemscore.Hbond.Weighted>
-0.0000

> <Gold.Chemscore.Metal.Weighted>
-0.0000

> <Gold.Chemscore.Lipo.Weighted>
-11.5860

> <Gold.Chemscore.Internal_Hbond.Weighted>
0.0000

> <Gold.Chemscore.DEClash.Weighted>
0.0009

> <Gold.Chemscore.DEInternal.Weighted>
1.6147

> <Gold.Chemscore.Rot.Weighted>
3.1093

> <Gold.Chemscore.Internal.Correction.Weighted>
   9.000000E+99

> <Gold.Protein.RotatedTorsions>
[ 6907 6896 6895 6894 ] final  -57.05 input  -60.11 | X-H torsion
[ 7974 7965 7964 7962 ] final   -6.17 input  175.53 | X-H torsion
[ 8008 7997 7996 7995 ] final   69.10 input   59.86 | X-H torsion
[ 10167 10162 10161 10158 ] final    1.11 input  -65.29 | X-H torsion
[ 10718 10713 10712 10709 ] final  -50.20 input   66.30 | X-H torsion
[ 10763 10752 10751 10750 ] final   31.87 input  -60.55 | X-H torsion
[ 11005 11000 10999 10996 ] final  -37.92 input  -57.11 | X-H torsion

> <Gold.Protein.ActiveResidues>
 VAL166  LYS551  ARG553  GLY616  TRP617  ASP618  TYR619  PRO620  LYS621  CYS622 
 ASP623  PHE694  ASN695  SER759  ASP760  ASP761  ALA762  ILE779  LEU786  VAL792 
 PHE793  MET794  SER795  GLU796  ALA797  LYS798  CYS799  TRP800  GLU811  SER814 

> <Gold.Protein.RotatedAtoms>
  150.8117  134.7276  159.6693 H   0  0  0  0  0  0  0  0  0  0  0  0  # atno 6907 bound_to 6896
  152.4237  134.5904  159.9982 H   0  0  0  0  0  0  0  0  0  0  0  0  # atno 6908 bound_to 6896
  151.6112  133.3310  159.3104 H   0  0  0  0  0  0  0  0  0  0  0  0  # atno 6909 bound_to 6896
  146.2337  140.2130  142.8335 H   0  0  0  0  0  0  0  0  0  0  0  0  # atno 7974 bound_to 7965
  155.7185  140.3493  155.5005 H   0  0  0  0  0  0  0  0  0  0  0  0  # atno 8008 bound_to 7997
  155.9291  140.1081  157.1168 H   0  0  0  0  0  0  0  0  0  0  0  0  # atno 8009 bound_to 7997
  154.4082  140.1234  156.4766 H   0  0  0  0  0  0  0  0  0  0  0  0  # atno 8010 bound_to 7997
  140.6698  143.7081  150.7899 H   0  0  0  0  0  0  0  0  0  0  0  0  # atno 10167 bound_to 10162
  156.1822  130.4151  149.9490 H   0  0  0  0  0  0  0  0  0  0  0  0  # atno 10718 bound_to 10713
  153.0292  135.6428  154.1266 H   0  0  0  0  0  0  0  0  0  0  0  0  # atno 10763 bound_to 10752
  154.0991  135.2861  155.3257 H   0  0  0  0  0  0  0  0  0  0  0  0  # atno 10764 bound_to 10752
  154.6411  135.5459  153.7854 H   0  0  0  0  0  0  0  0  0  0  0  0  # atno 10765 bound_to 10752
  140.9989  133.6966  156.1985 H   0  0  0  0  0  0  0  0  0  0  0  0  # atno 11005 bound_to 11000
  144.9692  140.8352  143.5466 LP  0  0  0  0  0  0  0  0  0  0  0  0  # atno 17320 bound_to 7965
  145.2109  139.2205  143.5143 LP  0  0  0  0  0  0  0  0  0  0  0  0  # atno 17321 bound_to 7965
  140.0764  143.5011  152.2553 LP  0  0  0  0  0  0  0  0  0  0  0  0  # atno 17342 bound_to 10162
  139.5961  144.7567  151.3283 LP  0  0  0  0  0  0  0  0  0  0  0  0  # atno 17343 bound_to 10162
  156.7257  130.9024  151.3622 LP  0  0  0  0  0  0  0  0  0  0  0  0  # atno 17370 bound_to 10713
  157.6876  130.9201  150.0426 LP  0  0  0  0  0  0  0  0  0  0  0  0  # atno 17371 bound_to 10713
  140.6922  134.4654  157.5588 LP  0  0  0  0  0  0  0  0  0  0  0  0  # atno 17394 bound_to 11000
  139.9028  134.8516  156.1825 LP  0  0  0  0  0  0  0  0  0  0  0  0  # atno 17395 bound_to 11000

$$$$
