AV-unprocessed.smi:72|AV-procd|sdf|708|dock7
  -GOLD-   2262017 33D 1   1.00000     0.00000
 Structure written by MMmdl.
 30 31  0  0  0  0  0  0  0  0  2 V2000
  150.6362  144.1035  157.8463 N   0  0  0  0  0  0  0  0  0  0  0  0
  150.8671  142.8310  157.3669 C   0  0  0  0  0  0  0  0  0  0  0  0
  150.1328  142.4135  156.2722 N   0  3  0  0  0  0  0  0  0  0  0  0
  150.2416  141.2161  155.6804 C   0  0  0  0  0  0  0  0  0  0  0  0
  151.1244  140.3500  156.1414 N   0  0  0  0  0  0  0  0  0  0  0  0
  151.2919  138.9755  155.5335 C   0  0  1  0  0  0  0  0  0  0  0  0
  151.2113  138.0353  156.5593 O   0  0  0  0  0  0  0  0  0  0  0  0
  149.8678  137.5778  156.6710 C   0  0  2  0  0  0  0  0  0  0  0  0
  149.7783  136.3036  157.5279 C   0  0  0  0  0  0  0  0  0  0  0  0
  150.4425  136.5100  158.7564 O   0  0  0  0  0  0  0  0  0  0  0  0
  149.4724  137.4274  155.1988 C   0  0  2  0  0  0  0  0  0  0  0  0
  149.9569  136.1999  154.6775 O   0  0  0  0  0  0  0  0  0  0  0  0
  150.1376  138.6479  154.5579 C   0  0  2  0  0  0  0  0  0  0  0  0
  150.5766  138.3973  153.2363 O   0  0  0  0  0  0  0  0  0  0  0  0
  151.8904  140.6734  157.2919 C   0  0  0  0  0  0  0  0  0  0  0  0
  152.6724  139.8530  157.7695 O   0  0  0  0  0  0  0  0  0  0  0  0
  151.7080  141.9524  157.8373 N   0  0  0  0  0  0  0  0  0  0  0  0
  152.2889  138.9742  155.0892 H   0  0  0  0  0  0  0  0  0  0  0  0
  149.2480  138.3632  157.1085 H   0  0  0  0  0  0  0  0  0  0  0  0
  148.3896  137.4451  155.0695 H   0  0  0  0  0  0  0  0  0  0  0  0
  149.4266  139.4752  154.5412 H   0  0  0  0  0  0  0  0  0  0  0  0
  151.1209  144.4897  158.6441 H   0  0  0  0  0  0  0  0  0  0  0  0
  149.9649  144.7443  157.4481 H   0  0  0  0  0  0  0  0  0  0  0  0
  149.5919  140.9922  154.8446 H   0  0  0  0  0  0  0  0  0  0  0  0
  148.7363  136.0741  157.7530 H   0  0  0  0  0  0  0  0  0  0  0  0
  150.1995  135.4413  157.0100 H   0  0  0  0  0  0  0  0  0  0  0  0
  149.9112  137.0793  159.2924 H   0  0  0  0  0  0  0  0  0  0  0  0
  149.6135  136.0903  153.8035 H   0  0  0  0  0  0  0  0  0  0  0  0
  150.3357  139.1342  152.6953 H   0  0  0  0  0  0  0  0  0  0  0  0
  149.4570  143.0626  155.8953 H   0  0  0  0  0  0  0  0  0  0  0  0
  1  2  1  0  0  0  0
  1 22  1  0  0  0  0
  1 23  1  0  0  0  0
  2 17  2  0  0  0  0
  2  3  1  0  0  0  0
  3  4  2  0  0  0  0
  3 30  1  0  0  0  0
  4  5  1  0  0  0  0
  4 24  1  0  0  0  0
  5  6  1  0  0  0  0
  5 15  1  0  0  0  0
  6 18  1  0  0  0  0
  6 13  1  0  0  0  0
  6  7  1  0  0  0  0
  7  8  1  0  0  0  0
  8 19  1  0  0  0  0
  8  9  1  0  0  0  0
  8 11  1  0  0  0  0
  9 10  1  0  0  0  0
  9 25  1  0  0  0  0
  9 26  1  0  0  0  0
 10 27  1  0  0  0  0
 11 20  1  0  0  0  0
 11 12  1  0  0  0  0
 11 13  1  0  0  0  0
 12 28  1  0  0  0  0
 13 21  1  0  0  0  0
 13 14  1  0  0  0  0
 14 29  1  0  0  0  0
 15 16  2  0  0  0  0
 15 17  1  0  0  0  0
M  CHG  1   3   1
M  END
> <s_m_source_file>
AV-unprocessed.smi

> <i_m_source_file_index>
72

> <i_lp_mmshare_version>
43012

> <i_f3d_flags>
0

> <s_epik_input>
W05IMl1jMW5bY0hdbihjKD1PKW4xKVtDQEBIXTJPW0NASF0oW0NIMl1bT0hdKVtDQEBIXShbT0hdKVtDQEhdMltPSF0=

> <s_epik_cmdline>
J2VwaWtfcHl0aG9uJywgJy1waCcsICc3LjAnLCAnLXRuJywgJzgnLCAnLW1hJywgJzIwMCcsICctbWV0YWxfYmluZGluZycsICctaW1hZScsICc8aW5maWxlLm1hZT4nLCAnLW9tYWUnLCAnPG91dGZpbGUubWFlPic=

> <r_lp_tautomer_probability>
4.77166e-05

> <r_epik_Ionization_Penalty>
0.104979

> <r_epik_Ionization_Penalty_Charging>
0.0999619

> <r_epik_Ionization_Penalty_Neutral>
0.00501745

> <r_epik_State_Penalty>
2.51541

> <r_epik_Charging_Adjusted_Penalty>
2.61537

> <i_epik_Tot_Q>
1

> <i_epik_Tot_abs_Q>
1

> <r_epik_Metal_State_Penalty>
3.53763

> <b_epik_Metal_Only>
0

> <s_epik_Chemistry_Notes>
This compound contains an acetal/aminal-like group ( X-CH(R)-Y where X, Y are N, S, or O) that may be acid/base labile, releasing an aldehyde.

> <s_lp_Force_Field>
OPLS_2005

> <r_lp_Energy>
33.6404

> <b_lp_Chiralities_Consistent>
1

> <s_lp_Variant>
AV-unprocessed.smi:72-46

> <Gold.Version>
5.8.1

> <Gold.Id.Protein>
6NUR|6NUR_protein|mol2

> <Gold.PLP.Fitness>
42.1334

> <Gold.PLP.PLP>
-22.7429

> <Gold.PLP.part.hbond>
-8.0000

> <Gold.PLP.part.metal>
0.0000

> <Gold.PLP.part.buried>
1.1373

> <Gold.PLP.part.nonpolar>
-14.1638

> <Gold.PLP.part.repulsive>
0.1606

> <Gold.PLP.ligand.clash>
0.0000

> <Gold.PLP.ligand.torsion>
0.3166

> <Gold.PLP.Chemscore.Hbond>
6.6629

> <Gold.PLP.Chemscore.CHOScore>
0.0000

> <Gold.PLP.Chemscore.Metal>
0.0000

> <Gold.Chemscore.Hbonds>
donor molecule, donor type, donor heavy atom, donor atom, acceptor molecule, acceptor atom, score
      L1  H     1    23       P1  8028  0.48
      L1  H     3    30       P1  8028  2.00
      L1  H    12    28       P1  7948  1.00
      L1  H    14    29       P1  7957  1.00
      P1  H  6896  6908       L1    10  1.00
      P1  H  7997  8009       L1    16  0.98

> <Gold.PLP.Chemscore.Internal.Correction>
0.0348

> <Gold.Rescore>
     Score         DG    S(hbond)    S(metal)    S(lipo)     H(rot)  DE(clash)    DE(int)     intcor
      8.12     -11.06       4.30        0.00      14.18       4.08       1.30       1.64       ----

> <Gold.Chemscore.Fitness>
8.1220

> <Gold.Chemscore.DG>
-11.0649

> <Gold.Chemscore.ZeroCoef>
-5.4800

> <Gold.Chemscore.Hbond>
4.3012

> <Gold.Chemscore.Metal>
0.0000

> <Gold.Chemscore.Lipo>
14.1837

> <Gold.Chemscore.Internal_Hbond>
0.0000

> <Gold.Chemscore.DEClash>
1.3027

> <Gold.Chemscore.DEInternal>
1.6402

> <Gold.Chemscore.Rot>
4.0783

> <Gold.Chemscore.Internal.Correction>
   9.000000E+99

> <Gold.Chemscore.Hbonds>
donor molecule, donor type, donor heavy atom, donor atom, acceptor molecule, acceptor atom, score
      L1  H     1    23       P1  8028  0.06
      L1  H     3    30       P1  8028  0.94
      L1  H    12    28       P1  7948  0.42
      L1  H    14    29       P1  7957  0.54
      P1  H  6896  6908       L1    10  0.70
      P1  H  7997  8009       L1    16  0.71

> <Gold.Chemscore.Hbond.Weighted>
-14.3658

> <Gold.Chemscore.Metal.Weighted>
-0.0000

> <Gold.Chemscore.Lipo.Weighted>
-1.6595

> <Gold.Chemscore.Internal_Hbond.Weighted>
0.0000

> <Gold.Chemscore.DEClash.Weighted>
1.3027

> <Gold.Chemscore.DEInternal.Weighted>
1.6402

> <Gold.Chemscore.Rot.Weighted>
10.4404

> <Gold.Chemscore.Internal.Correction.Weighted>
   9.000000E+99

> <Gold.Protein.RotatedTorsions>
[ 6907 6896 6895 6894 ] final -164.78 input  -60.11 | X-H torsion
[ 7974 7965 7964 7962 ] final -131.93 input  175.53 | X-H torsion
[ 8008 7997 7996 7995 ] final  159.09 input   59.86 | X-H torsion
[ 10167 10162 10161 10158 ] final -120.76 input  -65.29 | X-H torsion
[ 10718 10713 10712 10709 ] final  173.73 input   66.30 | X-H torsion
[ 10763 10752 10751 10750 ] final -113.79 input  -60.55 | X-H torsion
[ 11005 11000 10999 10996 ] final   94.80 input  -57.11 | X-H torsion

> <Gold.Protein.ActiveResidues>
 VAL166  LYS551  ARG553  GLY616  TRP617  ASP618  TYR619  PRO620  LYS621  CYS622 
 ASP623  PHE694  ASN695  SER759  ASP760  ASP761  ALA762  ILE779  LEU786  VAL792 
 PHE793  MET794  SER795  GLU796  ALA797  LYS798  CYS799  TRP800  GLU811  SER814 

> <Gold.Protein.RotatedAtoms>
  151.4173  133.3709  159.2751 H   0  0  0  0  0  0  0  0  0  0  0  0  # atno 6907 bound_to 6896
  150.9319  134.8735  159.7567 H   0  0  0  0  0  0  0  0  0  0  0  0  # atno 6908 bound_to 6896
  152.5032  134.4118  159.9503 H   0  0  0  0  0  0  0  0  0  0  0  0  # atno 6909 bound_to 6896
  144.9333  140.7154  143.4892 H   0  0  0  0  0  0  0  0  0  0  0  0  # atno 7974 bound_to 7965
  156.2261  140.1840  156.7359 H   0  0  0  0  0  0  0  0  0  0  0  0  # atno 8008 bound_to 7997
  154.5944  140.0646  156.9311 H   0  0  0  0  0  0  0  0  0  0  0  0  # atno 8009 bound_to 7997
  155.2281  140.3312  155.4309 H   0  0  0  0  0  0  0  0  0  0  0  0  # atno 8010 bound_to 7997
  140.0323  143.5235  152.2170 H   0  0  0  0  0  0  0  0  0  0  0  0  # atno 10167 bound_to 10162
  156.9600  131.0058  151.2929 H   0  0  0  0  0  0  0  0  0  0  0  0  # atno 10718 bound_to 10713
  154.8412  135.4441  154.1405 H   0  0  0  0  0  0  0  0  0  0  0  0  # atno 10763 bound_to 10752
  153.2592  135.6934  153.7603 H   0  0  0  0  0  0  0  0  0  0  0  0  # atno 10764 bound_to 10752
  153.6886  135.3391  155.3172 H   0  0  0  0  0  0  0  0  0  0  0  0  # atno 10765 bound_to 10752
  139.8795  134.8865  156.3917 H   0  0  0  0  0  0  0  0  0  0  0  0  # atno 11005 bound_to 11000
  145.3107  139.1820  143.4640 LP  0  0  0  0  0  0  0  0  0  0  0  0  # atno 17320 bound_to 7965
  146.3256  140.3111  142.8627 LP  0  0  0  0  0  0  0  0  0  0  0  0  # atno 17321 bound_to 7965
  139.6068  144.7598  151.3044 LP  0  0  0  0  0  0  0  0  0  0  0  0  # atno 17342 bound_to 10162
  140.7296  143.6902  150.7928 LP  0  0  0  0  0  0  0  0  0  0  0  0  # atno 17343 bound_to 10162
  157.5664  130.8280  149.8333 LP  0  0  0  0  0  0  0  0  0  0  0  0  # atno 17370 bound_to 10713
  156.0326  130.3760  150.1646 LP  0  0  0  0  0  0  0  0  0  0  0  0  # atno 17371 bound_to 10713
  140.9328  133.7567  156.0047 LP  0  0  0  0  0  0  0  0  0  0  0  0  # atno 17394 bound_to 11000
  140.8310  134.3178  157.5348 LP  0  0  0  0  0  0  0  0  0  0  0  0  # atno 17395 bound_to 11000

$$$$
