AV-unprocessed.smi:1172|AV-procd|sdf|4944|dock9
  -GOLD-   22720 3533D 1   1.00000     0.00000
 Structure written by MMmdl.
 36 37  0  0  0  0  0  0  0  0  1 V2000
  149.5953  140.3050  157.5837 N   0  0  0  0  0  0  0  0  0  0  0  0
  149.2075  140.1625  156.3132 C   0  0  0  0  0  0  0  0  0  0  0  0
  150.0112  140.0385  155.3915 O   0  0  0  0  0  0  0  0  0  0  0  0
  147.7026  140.1487  156.0375 C   0  0  0  0  0  0  0  0  0  0  0  0
  147.2764  138.8748  155.4857 N   0  0  0  0  0  0  0  0  0  0  0  0
  147.1802  138.5101  154.1569 C   0  0  0  0  0  0  0  0  0  0  0  0
  146.7393  137.2171  154.1587 C   0  0  0  0  0  0  0  0  0  0  0  0
  146.4637  136.3574  153.0654 N   0  0  0  0  0  0  0  0  0  0  0  0
  145.2751  135.8383  152.7027 C   0  0  0  0  0  0  0  0  0  0  0  0
  144.2144  136.1407  153.2511 O   0  0  0  0  0  0  0  0  0  0  0  0
  145.3353  135.0017  151.6352 N   0  0  0  0  0  0  0  0  0  0  0  0
  146.5004  134.1918  151.2353 C   0  0  0  0  0  0  0  0  0  0  0  0
  146.2614  132.7324  151.6654 C   0  0  0  0  0  0  0  0  0  0  0  0
  144.9517  132.1898  151.0629 C   0  0  0  0  0  0  0  0  0  0  0  0
  143.7697  133.1449  151.3248 C   0  0  2  0  0  0  0  0  0  0  0  0
  142.6396  132.7067  150.6012 O   0  0  0  0  0  0  0  0  0  0  0  0
  144.1273  134.5856  150.9099 C   0  0  0  0  0  0  0  0  0  0  0  0
  146.5860  136.8623  155.5239 C   0  0  0  0  0  0  0  0  0  0  0  0
  146.9131  137.8684  156.3202 N   0  0  0  0  0  0  0  0  0  0  0  0
  150.5800  140.3227  157.8066 H   0  0  0  0  0  0  0  0  0  0  0  0
  148.9063  140.3981  158.3157 H   0  0  0  0  0  0  0  0  0  0  0  0
  147.1519  140.3454  156.9590 H   0  0  0  0  0  0  0  0  0  0  0  0
  147.4436  140.9423  155.3355 H   0  0  0  0  0  0  0  0  0  0  0  0
  147.4292  139.1915  153.3570 H   0  0  0  0  0  0  0  0  0  0  0  0
  147.2615  136.0824  152.5112 H   0  0  0  0  0  0  0  0  0  0  0  0
  146.6176  134.2447  150.1520 H   0  0  0  0  0  0  0  0  0  0  0  0
  147.4475  134.5442  151.6435 H   0  0  0  0  0  0  0  0  0  0  0  0
  147.0998  132.1069  151.3583 H   0  0  0  0  0  0  0  0  0  0  0  0
  146.2149  132.6760  152.7539 H   0  0  0  0  0  0  0  0  0  0  0  0
  145.0874  132.0660  149.9875 H   0  0  0  0  0  0  0  0  0  0  0  0
  144.7358  131.1985  151.4629 H   0  0  0  0  0  0  0  0  0  0  0  0
  143.5176  133.1268  152.3862 H   0  0  0  0  0  0  0  0  0  0  0  0
  142.0793  133.4501  150.4388 H   0  0  0  0  0  0  0  0  0  0  0  0
  143.2822  135.2528  151.0875 H   0  0  0  0  0  0  0  0  0  0  0  0
  144.3193  134.6353  149.8369 H   0  0  0  0  0  0  0  0  0  0  0  0
  146.2556  135.9289  155.9551 H   0  0  0  0  0  0  0  0  0  0  0  0
  1  2  1  0  0  0  0
  1 20  1  0  0  0  0
  1 21  1  0  0  0  0
  2  3  2  0  0  0  0
  2  4  1  0  0  0  0
  4  5  1  0  0  0  0
  4 22  1  0  0  0  0
  4 23  1  0  0  0  0
  5 19  1  0  0  0  0
  5  6  1  0  0  0  0
  6  7  2  0  0  0  0
  6 24  1  0  0  0  0
  7  8  1  0  0  0  0
  7 18  1  0  0  0  0
  8  9  1  0  0  0  0
  8 25  1  0  0  0  0
  9 10  2  0  0  0  0
  9 11  1  0  0  0  0
 11 17  1  0  0  0  0
 11 12  1  0  0  0  0
 12 13  1  0  0  0  0
 12 26  1  0  0  0  0
 12 27  1  0  0  0  0
 13 14  1  0  0  0  0
 13 28  1  0  0  0  0
 13 29  1  0  0  0  0
 14 15  1  0  0  0  0
 14 30  1  0  0  0  0
 14 31  1  0  0  0  0
 15 16  1  0  0  0  0
 15 17  1  0  0  0  0
 15 32  1  0  0  0  0
 16 33  1  0  0  0  0
 17 34  1  0  0  0  0
 17 35  1  0  0  0  0
 18 19  2  0  0  0  0
 18 36  1  0  0  0  0
M  END
> <s_m_source_file>
AV-unprocessed.smi

> <i_m_source_file_index>
1172

> <i_lp_mmshare_version>
43012

> <i_f3d_flags>
0

> <s_epik_input>
W05IMl1DKD1PKVtDSDJdbjFbY0hdYyhbY0hdbjEpW05IXUMoPU8pTjJbQ0gyXVtDSDJdW0NIMl1bQ0BASF0oW09IXSlbQ0gyXTI=

> <s_epik_cmdline>
J2VwaWtfcHl0aG9uJywgJy1waCcsICc3LjAnLCAnLXRuJywgJzgnLCAnLW1hJywgJzIwMCcsICctbWV0YWxfYmluZGluZycsICctaW1hZScsICc8aW5maWxlLm1hZT4nLCAnLW9tYWUnLCAnPG91dGZpbGUubWFlPic=

> <r_lp_tautomer_probability>
1

> <r_epik_Ionization_Penalty>
4.44977e-05

> <r_epik_Ionization_Penalty_Charging>
0

> <r_epik_Ionization_Penalty_Neutral>
4.44977e-05

> <r_epik_State_Penalty>
-0

> <r_epik_Charging_Adjusted_Penalty>
0

> <i_epik_Tot_Q>
0

> <i_epik_Tot_abs_Q>
0

> <r_epik_Metal_State_Penalty>
-0

> <b_epik_Metal_Only>
0

> <s_lp_Force_Field>
OPLS_2005

> <r_lp_Energy>
32.958

> <b_lp_Chiralities_Consistent>
1

> <s_lp_Variant>
AV-unprocessed.smi:1172-2

> <Gold.Version>
5.8.1

> <Gold.Id.Protein>
6NUR|6NUR_protein|mol2

> <Gold.PLP.Fitness>
43.7327

> <Gold.PLP.PLP>
-33.4279

> <Gold.PLP.part.hbond>
-6.0000

> <Gold.PLP.part.metal>
0.0000

> <Gold.PLP.part.buried>
-6.7230

> <Gold.PLP.part.nonpolar>
-24.5703

> <Gold.PLP.part.repulsive>
3.1339

> <Gold.PLP.ligand.clash>
0.0000

> <Gold.PLP.ligand.torsion>
1.1765

> <Gold.PLP.Chemscore.Hbond>
3.2037

> <Gold.PLP.Chemscore.CHOScore>
1.0000

> <Gold.PLP.Chemscore.Metal>
0.0000

> <Gold.Chemscore.Hbonds>
donor molecule, donor type, donor heavy atom, donor atom, acceptor molecule, acceptor atom, score
      L1  H     8    25       P1  7948  1.00
      L1  H    16    33       P1 10186  1.00

> <Gold.PLP.Chemscore.Internal.Correction>
0.0467

> <Gold.Rescore>
     Score         DG    S(hbond)    S(metal)    S(lipo)     H(rot)  DE(clash)    DE(int)     intcor
     13.09     -14.28       2.57        0.00      50.06       2.20       0.09       1.11       ----

> <Gold.Chemscore.Fitness>
13.0916

> <Gold.Chemscore.DG>
-14.2836

> <Gold.Chemscore.ZeroCoef>
-5.4800

> <Gold.Chemscore.Hbond>
2.5657

> <Gold.Chemscore.Metal>
0.0000

> <Gold.Chemscore.Lipo>
50.0621

> <Gold.Chemscore.Internal_Hbond>
0.0000

> <Gold.Chemscore.DEClash>
0.0852

> <Gold.Chemscore.DEInternal>
1.1069

> <Gold.Chemscore.Rot>
2.1966

> <Gold.Chemscore.Internal.Correction>
   9.000000E+99

> <Gold.Chemscore.Hbonds>
donor molecule, donor type, donor heavy atom, donor atom, acceptor molecule, acceptor atom, score
      L1  H     8    25       P1  7948  0.99
      L1  H    16    33       P1 10186  0.97

> <Gold.Chemscore.Hbond.Weighted>
-8.5696

> <Gold.Chemscore.Metal.Weighted>
-0.0000

> <Gold.Chemscore.Lipo.Weighted>
-5.8573

> <Gold.Chemscore.Internal_Hbond.Weighted>
0.0000

> <Gold.Chemscore.DEClash.Weighted>
0.0852

> <Gold.Chemscore.DEInternal.Weighted>
1.1069

> <Gold.Chemscore.Rot.Weighted>
5.6232

> <Gold.Chemscore.Internal.Correction.Weighted>
   9.000000E+99

> <Gold.Protein.RotatedTorsions>
[ 6907 6896 6895 6894 ] final   36.38 input  -60.11 | X-H torsion
[ 7974 7965 7964 7962 ] final -179.36 input  175.53 | X-H torsion
[ 8008 7997 7996 7995 ] final   -8.03 input   59.86 | X-H torsion
[ 10167 10162 10161 10158 ] final -126.36 input  -65.29 | X-H torsion
[ 10718 10713 10712 10709 ] final  167.80 input   66.30 | X-H torsion
[ 10763 10752 10751 10750 ] final  -83.39 input  -60.55 | X-H torsion
[ 11005 11000 10999 10996 ] final   -8.38 input  -57.11 | X-H torsion

> <Gold.Protein.ActiveResidues>
 VAL166  LYS551  ARG553  GLY616  TRP617  ASP618  TYR619  PRO620  LYS621  CYS622 
 ASP623  PHE694  ASN695  SER759  ASP760  ASP761  ALA762  ILE779  LEU786  VAL792 
 PHE793  MET794  SER795  GLU796  ALA797  LYS798  CYS799  TRP800  GLU811  SER814 

> <Gold.Protein.RotatedAtoms>
  152.1290  134.9149  160.0559 H   0  0  0  0  0  0  0  0  0  0  0  0  # atno 6907 bound_to 6896
  152.0261  133.3913  159.4286 H   0  0  0  0  0  0  0  0  0  0  0  0  # atno 6908 bound_to 6896
  150.6855  134.3494  159.4946 H   0  0  0  0  0  0  0  0  0  0  0  0  # atno 6909 bound_to 6896
  144.7136  140.0729  143.6428 H   0  0  0  0  0  0  0  0  0  0  0  0  # atno 7974 bound_to 7965
  154.5780  140.2391  155.8094 H   0  0  0  0  0  0  0  0  0  0  0  0  # atno 8008 bound_to 7997
  156.2158  140.3012  155.9792 H   0  0  0  0  0  0  0  0  0  0  0  0  # atno 8009 bound_to 7997
  155.2592  140.0413  157.2986 H   0  0  0  0  0  0  0  0  0  0  0  0  # atno 8010 bound_to 7997
  139.9723  143.5832  152.2408 H   0  0  0  0  0  0  0  0  0  0  0  0  # atno 10167 bound_to 10162
  157.0463  131.0301  151.2696 H   0  0  0  0  0  0  0  0  0  0  0  0  # atno 10718 bound_to 10713
  154.5872  135.5557  153.7242 H   0  0  0  0  0  0  0  0  0  0  0  0  # atno 10763 bound_to 10752
  153.0103  135.6334  154.1900 H   0  0  0  0  0  0  0  0  0  0  0  0  # atno 10764 bound_to 10752
  154.1841  135.2885  155.3023 H   0  0  0  0  0  0  0  0  0  0  0  0  # atno 10765 bound_to 10752
  140.7228  133.8814  155.8834 H   0  0  0  0  0  0  0  0  0  0  0  0  # atno 11005 bound_to 11000
  145.9768  139.2911  143.1066 LP  0  0  0  0  0  0  0  0  0  0  0  0  # atno 17320 bound_to 7965
  145.9055  140.9215  143.0481 LP  0  0  0  0  0  0  0  0  0  0  0  0  # atno 17321 bound_to 7965
  139.6472  144.7659  151.2220 LP  0  0  0  0  0  0  0  0  0  0  0  0  # atno 17342 bound_to 10162
  140.7518  143.6220  150.8504 LP  0  0  0  0  0  0  0  0  0  0  0  0  # atno 17343 bound_to 10162
  157.5065  130.7912  149.7660 LP  0  0  0  0  0  0  0  0  0  0  0  0  # atno 17370 bound_to 10713
  156.0022  130.3874  150.2564 LP  0  0  0  0  0  0  0  0  0  0  0  0  # atno 17371 bound_to 10713
  140.9988  134.1178  157.4337 LP  0  0  0  0  0  0  0  0  0  0  0  0  # atno 17394 bound_to 11000
  139.8844  135.0062  156.6366 LP  0  0  0  0  0  0  0  0  0  0  0  0  # atno 17395 bound_to 11000

$$$$
