AV-unprocessed.smi:3283|AV-procd|sdf|12571|dock9
  -GOLD-   2272018493D 1   1.00000     0.00000
 Structure written by MMmdl.
 44 45  0  0  0  0  0  0  0  0  2 V2000
  153.1262  140.1423  159.4831 C   0  0  0  0  0  0  0  0  0  0  0  0
  152.7086  141.5214  159.9672 C   0  0  0  0  0  0  0  0  0  0  0  0
  152.8407  141.8658  161.2636 C   0  0  0  0  0  0  0  0  0  0  0  0
  152.5134  143.2339  161.8353 C   0  0  0  0  0  0  0  0  0  0  0  0
  151.8305  144.1651  160.8202 C   0  0  0  0  0  0  0  0  0  0  0  0
  152.4013  143.9714  159.4043 C   0  0  2  0  0  0  0  0  0  0  0  0
  151.9005  145.0488  158.4270 C   0  0  0  0  0  0  0  0  0  0  0  0
  152.1910  142.5108  158.9138 C   0  0  2  0  0  0  0  0  0  0  0  0
  150.7248  142.2201  158.4963 C   0  0  0  0  0  0  0  0  0  0  0  0
  150.4560  142.5291  157.0784 N   0  3  0  0  0  0  0  0  0  0  0  0
  149.6581  141.5059  156.3761 C   0  0  0  0  0  0  0  0  0  0  0  0
  149.5438  141.8306  154.8796 C   0  0  0  0  0  0  0  0  0  0  0  0
  148.6536  140.9001  154.1122 C   0  0  0  0  0  0  0  0  0  0  0  0
  147.3963  141.0814  153.6028 C   0  0  0  0  0  0  0  0  0  0  0  0
  147.0889  139.8414  152.9790 C   0  0  0  0  0  0  0  0  0  0  0  0
  148.0690  138.9631  153.0901 N   0  0  0  0  0  0  0  0  0  0  0  0
  149.0301  139.6079  153.7839 N   0  0  0  0  0  0  0  0  0  0  0  0
  150.2616  138.8985  154.0767 C   0  0  0  0  0  0  0  0  0  0  0  0
  153.7608  140.2219  158.6002 H   0  0  0  0  0  0  0  0  0  0  0  0
  152.2639  139.5239  159.2397 H   0  0  0  0  0  0  0  0  0  0  0  0
  153.6939  139.6144  160.2502 H   0  0  0  0  0  0  0  0  0  0  0  0
  153.2361  141.1490  161.9687 H   0  0  0  0  0  0  0  0  0  0  0  0
  151.8878  143.1190  162.7209 H   0  0  0  0  0  0  0  0  0  0  0  0
  153.4509  143.6800  162.1686 H   0  0  0  0  0  0  0  0  0  0  0  0
  150.7568  143.9763  160.8145 H   0  0  0  0  0  0  0  0  0  0  0  0
  151.9506  145.1998  161.1437 H   0  0  0  0  0  0  0  0  0  0  0  0
  153.4800  144.1219  159.4779 H   0  0  0  0  0  0  0  0  0  0  0  0
  150.8121  145.0919  158.3892 H   0  0  0  0  0  0  0  0  0  0  0  0
  152.2695  144.8683  157.4171 H   0  0  0  0  0  0  0  0  0  0  0  0
  152.2495  146.0363  158.7304 H   0  0  0  0  0  0  0  0  0  0  0  0
  152.8172  142.3893  158.0286 H   0  0  0  0  0  0  0  0  0  0  0  0
  150.4775  141.1745  158.6821 H   0  0  0  0  0  0  0  0  0  0  0  0
  150.0334  142.8207  159.0861 H   0  0  0  0  0  0  0  0  0  0  0  0
  149.9653  143.4106  157.0280 H   0  0  0  0  0  0  0  0  0  0  0  0
  150.1277  140.5304  156.5107 H   0  0  0  0  0  0  0  0  0  0  0  0
  148.6667  141.4563  156.8285 H   0  0  0  0  0  0  0  0  0  0  0  0
  149.1741  142.8501  154.7619 H   0  0  0  0  0  0  0  0  0  0  0  0
  150.5405  141.8135  154.4369 H   0  0  0  0  0  0  0  0  0  0  0  0
  146.7825  141.9681  153.6629 H   0  0  0  0  0  0  0  0  0  0  0  0
  146.1902  139.5558  152.4526 H   0  0  0  0  0  0  0  0  0  0  0  0
  150.9516  139.5276  154.6383 H   0  0  0  0  0  0  0  0  0  0  0  0
  150.7422  138.5971  153.1454 H   0  0  0  0  0  0  0  0  0  0  0  0
  150.0408  138.0082  154.6665 H   0  0  0  0  0  0  0  0  0  0  0  0
  151.3422  142.6253  156.6033 H   0  0  0  0  0  0  0  0  0  0  0  0
  1  2  1  0  0  0  0
  1 19  1  0  0  0  0
  1 20  1  0  0  0  0
  1 21  1  0  0  0  0
  2  8  1  0  0  0  0
  2  3  2  0  0  0  0
  3  4  1  0  0  0  0
  3 22  1  0  0  0  0
  4  5  1  0  0  0  0
  4 23  1  0  0  0  0
  4 24  1  0  0  0  0
  5  6  1  0  0  0  0
  5 25  1  0  0  0  0
  5 26  1  0  0  0  0
  6  7  1  0  0  0  0
  6  8  1  0  0  0  0
  6 27  1  0  0  0  0
  7 28  1  0  0  0  0
  7 29  1  0  0  0  0
  7 30  1  0  0  0  0
  8  9  1  0  0  0  0
  8 31  1  0  0  0  0
  9 10  1  0  0  0  0
  9 32  1  0  0  0  0
  9 33  1  0  0  0  0
 10 11  1  0  0  0  0
 10 34  1  0  0  0  0
 10 44  1  0  0  0  0
 11 12  1  0  0  0  0
 11 35  1  0  0  0  0
 11 36  1  0  0  0  0
 12 13  1  0  0  0  0
 12 37  1  0  0  0  0
 12 38  1  0  0  0  0
 13 17  1  0  0  0  0
 13 14  2  0  0  0  0
 14 15  1  0  0  0  0
 14 39  1  0  0  0  0
 15 16  2  0  0  0  0
 15 40  1  0  0  0  0
 16 17  1  0  0  0  0
 17 18  1  0  0  0  0
 18 41  1  0  0  0  0
 18 42  1  0  0  0  0
 18 43  1  0  0  0  0
M  CHG  1  10   1
M  END
> <s_m_source_file>
AV-unprocessed.smi

> <i_m_source_file_index>
3283

> <i_lp_mmshare_version>
43012

> <i_f3d_flags>
0

> <s_epik_input>
W0NIM11DMT1bQ0hdW0NIMl1bQ0gyXVtDQEBIXShbQ0gzXSlbQ0BIXTFbQ0gyXVtOSF1bQ0gyXVtDSDJdYzJbY0hdW2NIXW5uMltDSDNd

> <s_epik_cmdline>
J2VwaWtfcHl0aG9uJywgJy1waCcsICc3LjAnLCAnLXRuJywgJzgnLCAnLW1hJywgJzIwMCcsICctbWV0YWxfYmluZGluZycsICctaW1hZScsICc8aW5maWxlLm1hZT4nLCAnLW9tYWUnLCAnPG91dGZpbGUubWFlPic=

> <r_lp_tautomer_probability>
1

> <r_epik_Ionization_Penalty>
0.000866911

> <r_epik_Ionization_Penalty_Charging>
0.000836385

> <r_epik_Ionization_Penalty_Neutral>
3.05258e-05

> <r_epik_State_Penalty>
-0

> <r_epik_Charging_Adjusted_Penalty>
0.000836385

> <i_epik_Tot_Q>
1

> <i_epik_Tot_abs_Q>
1

> <r_epik_Metal_State_Penalty>
-0

> <b_epik_Metal_Only>
0

> <s_lp_Force_Field>
OPLS_2005

> <r_lp_Energy>
12.7435

> <b_lp_Chiralities_Consistent>
1

> <s_lp_Variant>
AV-unprocessed.smi:3283-4

> <Gold.Version>
5.8.1

> <Gold.Id.Protein>
6NUR|6NUR_protein|mol2

> <Gold.PLP.Fitness>
53.2242

> <Gold.PLP.PLP>
-45.9803

> <Gold.PLP.part.hbond>
-1.0000

> <Gold.PLP.part.metal>
0.0000

> <Gold.PLP.part.buried>
-4.2502

> <Gold.PLP.part.nonpolar>
-41.2979

> <Gold.PLP.part.repulsive>
0.2423

> <Gold.PLP.ligand.clash>
0.0000

> <Gold.PLP.ligand.torsion>
0.8940

> <Gold.PLP.Chemscore.Hbond>
2.0000

> <Gold.PLP.Chemscore.CHOScore>
1.0000

> <Gold.PLP.Chemscore.Metal>
0.0000

> <Gold.Chemscore.Hbonds>
donor molecule, donor type, donor heavy atom, donor atom, acceptor molecule, acceptor atom, score
      L1  H    10    34       P1  8028  1.12
      L1  C    15    40       P1 10175  0.67

> <Gold.PLP.Chemscore.Internal.Correction>
0.0318

> <Gold.Rescore>
     Score         DG    S(hbond)    S(metal)    S(lipo)     H(rot)  DE(clash)    DE(int)     intcor
     19.89     -21.17       0.90        0.00     140.87       1.48       0.32       0.96       ----

> <Gold.Chemscore.Fitness>
19.8897

> <Gold.Chemscore.DG>
-21.1693

> <Gold.Chemscore.ZeroCoef>
-5.4800

> <Gold.Chemscore.Hbond>
0.9007

> <Gold.Chemscore.Metal>
0.0000

> <Gold.Chemscore.Lipo>
140.8706

> <Gold.Chemscore.Internal_Hbond>
0.0000

> <Gold.Chemscore.DEClash>
0.3169

> <Gold.Chemscore.DEInternal>
0.9627

> <Gold.Chemscore.Rot>
1.4847

> <Gold.Chemscore.Internal.Correction>
   9.000000E+99

> <Gold.Chemscore.Hbonds>
donor molecule, donor type, donor heavy atom, donor atom, acceptor molecule, acceptor atom, score
      L1  H    10    34       P1  8028  0.56

> <Gold.Chemscore.Hbond.Weighted>
-3.0082

> <Gold.Chemscore.Metal.Weighted>
-0.0000

> <Gold.Chemscore.Lipo.Weighted>
-16.4819

> <Gold.Chemscore.Internal_Hbond.Weighted>
0.0000

> <Gold.Chemscore.DEClash.Weighted>
0.3169

> <Gold.Chemscore.DEInternal.Weighted>
0.9627

> <Gold.Chemscore.Rot.Weighted>
3.8008

> <Gold.Chemscore.Internal.Correction.Weighted>
   9.000000E+99

> <Gold.Protein.RotatedTorsions>
[ 6907 6896 6895 6894 ] final  -92.83 input  -60.11 | X-H torsion
[ 7974 7965 7964 7962 ] final  -82.83 input  175.53 | X-H torsion
[ 8008 7997 7996 7995 ] final  -65.00 input   59.86 | X-H torsion
[ 10167 10162 10161 10158 ] final   39.45 input  -65.29 | X-H torsion
[ 10718 10713 10712 10709 ] final  -36.90 input   66.30 | X-H torsion
[ 10763 10752 10751 10750 ] final  -37.01 input  -60.55 | X-H torsion
[ 11005 11000 10999 10996 ] final  -95.69 input  -57.11 | X-H torsion

> <Gold.Protein.ActiveResidues>
 VAL166  LYS551  ARG553  GLY616  TRP617  ASP618  TYR619  PRO620  LYS621  CYS622 
 ASP623  PHE694  ASN695  SER759  ASP760  ASP761  ALA762  ILE779  LEU786  VAL792 
 PHE793  MET794  SER795  GLU796  ALA797  LYS798  CYS799  TRP800  GLU811  SER814 

> <Gold.Protein.RotatedAtoms>
  150.6912  134.2062  159.4340 H   0  0  0  0  0  0  0  0  0  0  0  0  # atno 6907 bound_to 6896
  152.0026  134.9918  160.0575 H   0  0  0  0  0  0  0  0  0  0  0  0  # atno 6908 bound_to 6896
  152.1565  133.4519  159.4876 H   0  0  0  0  0  0  0  0  0  0  0  0  # atno 6909 bound_to 6896
  145.5281  140.9524  143.1618 H   0  0  0  0  0  0  0  0  0  0  0  0  # atno 7974 bound_to 7965
  154.4645  140.0942  156.6983 H   0  0  0  0  0  0  0  0  0  0  0  0  # atno 8008 bound_to 7997
  155.4898  140.3470  155.4335 H   0  0  0  0  0  0  0  0  0  0  0  0  # atno 8009 bound_to 7997
  156.0931  140.1402  156.9555 H   0  0  0  0  0  0  0  0  0  0  0  0  # atno 8010 bound_to 7997
  140.3839  144.1943  150.6130 H   0  0  0  0  0  0  0  0  0  0  0  0  # atno 10167 bound_to 10162
  156.3215  130.4266  149.7956 H   0  0  0  0  0  0  0  0  0  0  0  0  # atno 10718 bound_to 10713
  153.8891  135.6814  153.4762 H   0  0  0  0  0  0  0  0  0  0  0  0  # atno 10763 bound_to 10752
  153.1191  135.4748  154.9162 H   0  0  0  0  0  0  0  0  0  0  0  0  # atno 10764 bound_to 10752
  154.7631  135.3216  154.8292 H   0  0  0  0  0  0  0  0  0  0  0  0  # atno 10765 bound_to 10752
  141.1434  133.8044  157.0470 H   0  0  0  0  0  0  0  0  0  0  0  0  # atno 11005 bound_to 11000
  144.7640  139.6889  143.7222 LP  0  0  0  0  0  0  0  0  0  0  0  0  # atno 17320 bound_to 7965
  146.2062  139.5388  142.9711 LP  0  0  0  0  0  0  0  0  0  0  0  0  # atno 17321 bound_to 7965
  140.4910  143.2347  151.8819 LP  0  0  0  0  0  0  0  0  0  0  0  0  # atno 17342 bound_to 10162
  139.4793  144.5166  151.8859 LP  0  0  0  0  0  0  0  0  0  0  0  0  # atno 17343 bound_to 10162
  156.5262  130.8237  151.3221 LP  0  0  0  0  0  0  0  0  0  0  0  0  # atno 17370 bound_to 10713
  157.7412  130.9866  150.2433 LP  0  0  0  0  0  0  0  0  0  0  0  0  # atno 17371 bound_to 10713
  140.0656  134.9731  157.1380 LP  0  0  0  0  0  0  0  0  0  0  0  0  # atno 17394 bound_to 11000
  140.3784  134.2313  155.7172 LP  0  0  0  0  0  0  0  0  0  0  0  0  # atno 17395 bound_to 11000

$$$$
