AV-unprocessed.smi:2829|AV-procd|sdf|10901|dock5
  -GOLD-   2272015353D 1   1.00000     0.00000
 Structure written by MMmdl.
 50 53  0  0  0  0  0  0  0  0  1 V2000
  145.5039  132.4312  162.1203 C   0  0  0  0  0  0  0  0  0  0  0  0
  144.7347  133.6910  161.6709 C   0  0  0  0  0  0  0  0  0  0  0  0
  143.5591  133.2892  160.7555 C   0  0  0  0  0  0  0  0  0  0  0  0
  144.1348  134.3451  162.9362 C   0  0  0  0  0  0  0  0  0  0  0  0
  145.6836  134.6369  160.9130 C   0  0  0  0  0  0  0  0  0  0  0  0
  146.8852  135.1344  161.4664 C   0  0  0  0  0  0  0  0  0  0  0  0
  147.6648  135.9928  160.6729 C   0  0  0  0  0  0  0  0  0  0  0  0
  147.2091  136.3097  159.3776 C   0  0  0  0  0  0  0  0  0  0  0  0
  148.0458  137.1831  158.6353 N   0  0  0  0  0  0  0  0  0  0  0  0
  149.3914  137.2604  158.6484 C   0  0  0  0  0  0  0  0  0  0  0  0
  150.1281  136.5597  159.3397 O   0  0  0  0  0  0  0  0  0  0  0  0
  149.8922  138.2077  157.8362 N   0  0  0  0  0  0  0  0  0  0  0  0
  151.3013  138.5448  157.6220 C   0  0  1  0  0  0  0  0  0  0  0  0
  151.7849  138.3495  156.1655 C   0  0  1  0  0  0  0  0  0  0  0  0
  150.8448  138.0994  155.0140 C   0  0  0  0  0  0  0  0  0  0  0  0
  150.3378  139.4984  154.6790 C   0  0  0  0  0  0  0  0  0  0  0  0
  151.4194  140.3654  155.0197 O   0  0  0  0  0  0  0  0  0  0  0  0
  152.1611  139.8288  156.1185 C   0  0  1  0  0  0  0  0  0  0  0  0
  151.5475  140.0590  157.5118 C   0  0  0  0  0  0  0  0  0  0  0  0
  150.4573  141.1251  157.7493 C   0  0  0  0  0  0  0  0  0  0  0  0
  151.5464  142.0405  158.3126 C   0  0  0  0  0  0  0  0  0  0  0  0
  152.3780  140.7843  158.5826 C   0  0  0  0  0  0  0  0  0  0  0  0
  146.0448  135.7946  158.9093 N   0  0  0  0  0  0  0  0  0  0  0  0
  145.2993  134.9770  159.6584 N   0  0  0  0  0  0  0  0  0  0  0  0
  144.8608  131.7517  162.6804 H   0  0  0  0  0  0  0  0  0  0  0  0
  146.3465  132.6908  162.7625 H   0  0  0  0  0  0  0  0  0  0  0  0
  145.8987  131.8720  161.2711 H   0  0  0  0  0  0  0  0  0  0  0  0
  143.9002  132.7554  159.8675 H   0  0  0  0  0  0  0  0  0  0  0  0
  143.0031  134.1651  160.4189 H   0  0  0  0  0  0  0  0  0  0  0  0
  142.8579  132.6338  161.2734 H   0  0  0  0  0  0  0  0  0  0  0  0
  143.4648  133.6592  163.4559 H   0  0  0  0  0  0  0  0  0  0  0  0
  143.5527  135.2346  162.6928 H   0  0  0  0  0  0  0  0  0  0  0  0
  144.9102  134.6320  163.6477 H   0  0  0  0  0  0  0  0  0  0  0  0
  147.2195  134.8835  162.4610 H   0  0  0  0  0  0  0  0  0  0  0  0
  148.5911  136.3973  161.0545 H   0  0  0  0  0  0  0  0  0  0  0  0
  147.5681  137.8279  158.0231 H   0  0  0  0  0  0  0  0  0  0  0  0
  149.2230  138.7780  157.3393 H   0  0  0  0  0  0  0  0  0  0  0  0
  151.9820  138.0896  158.3439 H   0  0  0  0  0  0  0  0  0  0  0  0
  152.6649  137.7054  156.1432 H   0  0  0  0  0  0  0  0  0  0  0  0
  151.3948  137.6933  154.1644 H   0  0  0  0  0  0  0  0  0  0  0  0
  150.0372  137.4046  155.2426 H   0  0  0  0  0  0  0  0  0  0  0  0
  150.0524  139.6041  153.6323 H   0  0  0  0  0  0  0  0  0  0  0  0
  149.4696  139.7445  155.2916 H   0  0  0  0  0  0  0  0  0  0  0  0
  153.2339  140.0164  156.0623 H   0  0  0  0  0  0  0  0  0  0  0  0
  149.9667  141.5110  156.8562 H   0  0  0  0  0  0  0  0  0  0  0  0
  149.7305  140.8397  158.5114 H   0  0  0  0  0  0  0  0  0  0  0  0
  151.9897  142.6855  157.5521 H   0  0  0  0  0  0  0  0  0  0  0  0
  151.2590  142.6001  159.2032 H   0  0  0  0  0  0  0  0  0  0  0  0
  152.2167  140.3827  159.5845 H   0  0  0  0  0  0  0  0  0  0  0  0
  153.4401  140.8834  158.3572 H   0  0  0  0  0  0  0  0  0  0  0  0
  1  2  1  0  0  0  0
  1 25  1  0  0  0  0
  1 26  1  0  0  0  0
  1 27  1  0  0  0  0
  2  3  1  0  0  0  0
  2  4  1  0  0  0  0
  2  5  1  0  0  0  0
  3 28  1  0  0  0  0
  3 29  1  0  0  0  0
  3 30  1  0  0  0  0
  4 31  1  0  0  0  0
  4 32  1  0  0  0  0
  4 33  1  0  0  0  0
  5 24  1  0  0  0  0
  5  6  2  0  0  0  0
  6  7  1  0  0  0  0
  6 34  1  0  0  0  0
  7  8  2  0  0  0  0
  7 35  1  0  0  0  0
  8  9  1  0  0  0  0
  8 23  1  0  0  0  0
  9 10  1  0  0  0  0
  9 36  1  0  0  0  0
 10 11  2  0  0  0  0
 10 12  1  0  0  0  0
 12 13  1  0  0  0  0
 12 37  1  0  0  0  0
 13 19  1  0  0  0  0
 13 14  1  0  0  0  0
 13 38  1  0  0  0  0
 14 18  1  0  0  0  0
 14 15  1  0  0  0  0
 14 39  1  0  0  0  0
 15 16  1  0  0  0  0
 15 40  1  0  0  0  0
 15 41  1  0  0  0  0
 16 17  1  0  0  0  0
 16 42  1  0  0  0  0
 16 43  1  0  0  0  0
 17 18  1  0  0  0  0
 18 19  1  0  0  0  0
 18 44  1  0  0  0  0
 19 22  1  0  0  0  0
 19 20  1  0  0  0  0
 20 21  1  0  0  0  0
 20 45  1  0  0  0  0
 20 46  1  0  0  0  0
 21 22  1  0  0  0  0
 21 47  1  0  0  0  0
 21 48  1  0  0  0  0
 22 49  1  0  0  0  0
 22 50  1  0  0  0  0
 23 24  2  0  0  0  0
M  END
> <s_m_source_file>
AV-unprocessed.smi

> <i_m_source_file_index>
2829

> <i_lp_mmshare_version>
43012

> <i_f3d_flags>
0

> <s_epik_input>
W0NIM11DKFtDSDNdKShbQ0gzXSljMVtjSF1bY0hdYyhubjEpW05IXUMoPU8pW05IXVtDQEBIXTJbQ0BIXShbQ0gyXVtDSDJdTzMpW0NAQEhdM0MyNFtDSDJdW0NIMl1bQ0gyXTQ=

> <s_epik_cmdline>
J2VwaWtfcHl0aG9uJywgJy1waCcsICc3LjAnLCAnLXRuJywgJzgnLCAnLW1hJywgJzIwMCcsICctbWV0YWxfYmluZGluZycsICctaW1hZScsICc8aW5maWxlLm1hZT4nLCAnLW9tYWUnLCAnPG91dGZpbGUubWFlPic=

> <r_lp_tautomer_probability>
1

> <r_epik_Ionization_Penalty>
0.011915

> <r_epik_Ionization_Penalty_Charging>
0

> <r_epik_Ionization_Penalty_Neutral>
0.011915

> <r_epik_State_Penalty>
0.00486223

> <r_epik_Charging_Adjusted_Penalty>
0.00486223

> <i_epik_Tot_Q>
0

> <i_epik_Tot_abs_Q>
0

> <r_epik_Metal_State_Penalty>
-0

> <b_epik_Metal_Only>
0

> <s_lp_Force_Field>
OPLS_2005

> <r_lp_Energy>
61.8896

> <b_lp_Chiralities_Consistent>
1

> <s_lp_Variant>
AV-unprocessed.smi:2829-4

> <Gold.Version>
5.8.1

> <Gold.Id.Protein>
6NUR|6NUR_protein|mol2

> <Gold.PLP.Fitness>
38.7447

> <Gold.PLP.PLP>
-33.4109

> <Gold.PLP.part.hbond>
-1.8887

> <Gold.PLP.part.metal>
0.0000

> <Gold.PLP.part.buried>
-5.4768

> <Gold.PLP.part.nonpolar>
-26.5564

> <Gold.PLP.part.repulsive>
0.2537

> <Gold.PLP.ligand.clash>
0.0000

> <Gold.PLP.ligand.torsion>
0.4153

> <Gold.PLP.Chemscore.Hbond>
2.0000

> <Gold.PLP.Chemscore.CHOScore>
0.0000

> <Gold.PLP.Chemscore.Metal>
0.0000

> <Gold.Chemscore.Hbonds>
donor molecule, donor type, donor heavy atom, donor atom, acceptor molecule, acceptor atom, score
      P1  H  6896  6909       L1    11  1.00
      P1  H  7989  7998       L1    17  0.74

> <Gold.PLP.Chemscore.Internal.Correction>
0.1644

> <Gold.Rescore>
     Score         DG    S(hbond)    S(metal)    S(lipo)     H(rot)  DE(clash)    DE(int)     intcor
     18.70     -20.60       1.96        0.00      98.66       1.16       0.21       1.70       ----

> <Gold.Chemscore.Fitness>
18.6997

> <Gold.Chemscore.DG>
-20.6009

> <Gold.Chemscore.ZeroCoef>
-5.4800

> <Gold.Chemscore.Hbond>
1.9618

> <Gold.Chemscore.Metal>
0.0000

> <Gold.Chemscore.Lipo>
98.6552

> <Gold.Chemscore.Internal_Hbond>
0.0000

> <Gold.Chemscore.DEClash>
0.2052

> <Gold.Chemscore.DEInternal>
1.6960

> <Gold.Chemscore.Rot>
1.1618

> <Gold.Chemscore.Internal.Correction>
   9.000000E+99

> <Gold.Chemscore.Hbonds>
donor molecule, donor type, donor heavy atom, donor atom, acceptor molecule, acceptor atom, score
      P1  H  6896  6909       L1    11  0.98
      P1  H  7989  7998       L1    17  0.09

> <Gold.Chemscore.Hbond.Weighted>
-6.5524

> <Gold.Chemscore.Metal.Weighted>
-0.0000

> <Gold.Chemscore.Lipo.Weighted>
-11.5427

> <Gold.Chemscore.Internal_Hbond.Weighted>
0.0000

> <Gold.Chemscore.DEClash.Weighted>
0.2052

> <Gold.Chemscore.DEInternal.Weighted>
1.6960

> <Gold.Chemscore.Rot.Weighted>
2.9741

> <Gold.Chemscore.Internal.Correction.Weighted>
   9.000000E+99

> <Gold.Protein.RotatedTorsions>
[ 6907 6896 6895 6894 ] final   66.41 input  -60.11 | X-H torsion
[ 7974 7965 7964 7962 ] final -150.61 input  175.53 | X-H torsion
[ 8008 7997 7996 7995 ] final  -30.17 input   59.86 | X-H torsion
[ 10167 10162 10161 10158 ] final   67.36 input  -65.29 | X-H torsion
[ 10718 10713 10712 10709 ] final  115.16 input   66.30 | X-H torsion
[ 10763 10752 10751 10750 ] final  -17.99 input  -60.55 | X-H torsion
[ 11005 11000 10999 10996 ] final  -43.83 input  -57.11 | X-H torsion

> <Gold.Protein.ActiveResidues>
 VAL166  LYS551  ARG553  GLY616  TRP617  ASP618  TYR619  PRO620  LYS621  CYS622 
 ASP623  PHE694  ASN695  SER759  ASP760  ASP761  ALA762  ILE779  LEU786  VAL792 
 PHE793  MET794  SER795  GLU796  ALA797  LYS798  CYS799  TRP800  GLU811  SER814 

> <Gold.Protein.RotatedAtoms>
  152.4478  134.5457  159.9851 H   0  0  0  0  0  0  0  0  0  0  0  0  # atno 6907 bound_to 6896
  151.5537  133.3408  159.2966 H   0  0  0  0  0  0  0  0  0  0  0  0  # atno 6908 bound_to 6896
  150.8399  134.7719  159.6987 H   0  0  0  0  0  0  0  0  0  0  0  0  # atno 6909 bound_to 6896
  144.7897  140.4909  143.5781 H   0  0  0  0  0  0  0  0  0  0  0  0  # atno 7974 bound_to 7965
  154.4261  140.1798  156.1364 H   0  0  0  0  0  0  0  0  0  0  0  0  # atno 8008 bound_to 7997
  156.0026  140.3358  155.6836 H   0  0  0  0  0  0  0  0  0  0  0  0  # atno 8009 bound_to 7997
  155.6221  140.0661  157.2665 H   0  0  0  0  0  0  0  0  0  0  0  0  # atno 8010 bound_to 7997
  140.0903  144.4993  150.7103 H   0  0  0  0  0  0  0  0  0  0  0  0  # atno 10167 bound_to 10162
  157.6239  131.1008  150.7289 H   0  0  0  0  0  0  0  0  0  0  0  0  # atno 10718 bound_to 10713
  153.5823  135.7004  153.5458 H   0  0  0  0  0  0  0  0  0  0  0  0  # atno 10763 bound_to 10752
  153.3250  135.4063  155.1448 H   0  0  0  0  0  0  0  0  0  0  0  0  # atno 10764 bound_to 10752
  154.8615  135.3705  154.5351 H   0  0  0  0  0  0  0  0  0  0  0  0  # atno 10765 bound_to 10752
  141.0410  133.6780  156.2788 H   0  0  0  0  0  0  0  0  0  0  0  0  # atno 11005 bound_to 11000
  145.5826  139.1490  143.3227 LP  0  0  0  0  0  0  0  0  0  0  0  0  # atno 17320 bound_to 7965
  146.2145  140.5955  142.9045 LP  0  0  0  0  0  0  0  0  0  0  0  0  # atno 17321 bound_to 7965
  140.7032  143.2449  151.4804 LP  0  0  0  0  0  0  0  0  0  0  0  0  # atno 17342 bound_to 10162
  139.5728  144.1888  152.1861 LP  0  0  0  0  0  0  0  0  0  0  0  0  # atno 17343 bound_to 10162
  156.7641  130.4808  149.5431 LP  0  0  0  0  0  0  0  0  0  0  0  0  # atno 17370 bound_to 10713
  156.1399  130.6237  151.0453 LP  0  0  0  0  0  0  0  0  0  0  0  0  # atno 17371 bound_to 10713
  140.6234  134.5338  157.5550 LP  0  0  0  0  0  0  0  0  0  0  0  0  # atno 17394 bound_to 11000
  139.9276  134.8026  156.1024 LP  0  0  0  0  0  0  0  0  0  0  0  0  # atno 17395 bound_to 11000

$$$$
