AV-unprocessed.smi:2521|AV-procd|sdf|9915|dock3
  -GOLD-   2272013553D 1   1.00000     0.00000
 Structure written by MMmdl.
 36 37  0  0  0  0  0  0  0  0  1 V2000
  152.4881  140.7262  158.8100 C   0  0  0  0  0  0  0  0  0  0  0  0
  151.6773  141.5408  157.7916 C   0  0  0  0  0  0  0  0  0  0  0  0
  150.4540  142.2326  158.4103 C   0  0  0  0  0  0  0  0  0  0  0  0
  151.3189  140.7346  156.5822 C   0  0  0  0  0  0  0  0  0  0  0  0
  152.2356  140.1858  155.7733 N   0  0  0  0  0  0  0  0  0  0  0  0
  151.6614  139.4907  154.7187 N   0  0  0  0  0  0  0  0  0  0  0  0
  150.3229  139.5358  154.7604 C   0  0  0  0  0  0  0  0  0  0  0  0
  149.4819  138.9172  153.7979 N   0  0  0  0  0  0  0  0  0  0  0  0
  148.1916  139.1805  153.5266 C   0  0  0  0  0  0  0  0  0  0  0  0
  147.5150  140.0560  154.0666 O   0  0  0  0  0  0  0  0  0  0  0  0
  147.7186  138.3588  152.5781 N   0  0  0  0  0  0  0  0  0  0  0  0
  146.3568  138.3666  152.0518 C   0  0  0  0  0  0  0  0  0  0  0  0
  145.6600  137.0053  152.2378 C   0  0  2  0  0  0  0  0  0  0  0  0
  145.5948  136.1737  150.9732 C   0  0  0  0  0  0  0  0  0  0  0  0
  144.5002  135.1647  151.3094 C   0  0  0  0  0  0  0  0  0  0  0  0
  143.6208  135.8265  152.2140 O   0  0  0  0  0  0  0  0  0  0  0  0
  144.1776  137.0760  152.6099 C   0  0  0  0  0  0  0  0  0  0  0  0
  149.6497  140.4385  156.1064 S   0  0  0  0  0  0  0  0  0  0  0  0
  153.3928  140.3204  158.3562 H   0  0  0  0  0  0  0  0  0  0  0  0
  151.9079  139.8903  159.2020 H   0  0  0  0  0  0  0  0  0  0  0  0
  152.7917  141.3446  159.6551 H   0  0  0  0  0  0  0  0  0  0  0  0
  152.3356  142.3381  157.4447 H   0  0  0  0  0  0  0  0  0  0  0  0
  149.9515  142.8677  157.6803 H   0  0  0  0  0  0  0  0  0  0  0  0
  150.7428  142.8618  159.2524 H   0  0  0  0  0  0  0  0  0  0  0  0
  149.7282  141.5045  158.7742 H   0  0  0  0  0  0  0  0  0  0  0  0
  149.9109  138.1786  153.2603 H   0  0  0  0  0  0  0  0  0  0  0  0
  148.3478  137.6708  152.1912 H   0  0  0  0  0  0  0  0  0  0  0  0
  145.7691  139.1670  152.5048 H   0  0  0  0  0  0  0  0  0  0  0  0
  146.4175  138.6000  150.9886 H   0  0  0  0  0  0  0  0  0  0  0  0
  146.1860  136.4295  153.0013 H   0  0  0  0  0  0  0  0  0  0  0  0
  145.2864  136.7900  150.1273 H   0  0  0  0  0  0  0  0  0  0  0  0
  146.5440  135.6998  150.7215 H   0  0  0  0  0  0  0  0  0  0  0  0
  143.9711  134.8160  150.4223 H   0  0  0  0  0  0  0  0  0  0  0  0
  144.9246  134.2960  151.8139 H   0  0  0  0  0  0  0  0  0  0  0  0
  144.0201  137.2616  153.6727 H   0  0  0  0  0  0  0  0  0  0  0  0
  143.6767  137.8674  152.0505 H   0  0  0  0  0  0  0  0  0  0  0  0
  1  2  1  0  0  0  0
  1 19  1  0  0  0  0
  1 20  1  0  0  0  0
  1 21  1  0  0  0  0
  2  3  1  0  0  0  0
  2  4  1  0  0  0  0
  2 22  1  0  0  0  0
  3 23  1  0  0  0  0
  3 24  1  0  0  0  0
  3 25  1  0  0  0  0
  4 18  1  0  0  0  0
  4  5  2  0  0  0  0
  5  6  1  0  0  0  0
  6  7  2  0  0  0  0
  7  8  1  0  0  0  0
  7 18  1  0  0  0  0
  8  9  1  0  0  0  0
  8 26  1  0  0  0  0
  9 10  2  0  0  0  0
  9 11  1  0  0  0  0
 11 12  1  0  0  0  0
 11 27  1  0  0  0  0
 12 13  1  0  0  0  0
 12 28  1  0  0  0  0
 12 29  1  0  0  0  0
 13 17  1  0  0  0  0
 13 14  1  0  0  0  0
 13 30  1  0  0  0  0
 14 15  1  0  0  0  0
 14 31  1  0  0  0  0
 14 32  1  0  0  0  0
 15 16  1  0  0  0  0
 15 33  1  0  0  0  0
 15 34  1  0  0  0  0
 16 17  1  0  0  0  0
 17 35  1  0  0  0  0
 17 36  1  0  0  0  0
M  END
> <s_m_source_file>
AV-unprocessed.smi

> <i_m_source_file_index>
2521

> <i_lp_mmshare_version>
43012

> <i_f3d_flags>
0

> <s_epik_input>
W0NIM11bQ0hdKFtDSDNdKWMxbm5jKHMxKVtOSF1DKD1PKVtOSF1bQ0gyXVtDQEBIXTJbQ0gyXVtDSDJdT1tDSDJdMg==

> <s_epik_cmdline>
J2VwaWtfcHl0aG9uJywgJy1waCcsICc3LjAnLCAnLXRuJywgJzgnLCAnLW1hJywgJzIwMCcsICctbWV0YWxfYmluZGluZycsICctaW1hZScsICc8aW5maWxlLm1hZT4nLCAnLW9tYWUnLCAnPG91dGZpbGUubWFlPic=

> <r_lp_tautomer_probability>
1

> <r_epik_Ionization_Penalty>
0.000452582

> <r_epik_Ionization_Penalty_Charging>
0

> <r_epik_Ionization_Penalty_Neutral>
0.000452582

> <r_epik_State_Penalty>
-0

> <r_epik_Charging_Adjusted_Penalty>
0

> <i_epik_Tot_Q>
0

> <i_epik_Tot_abs_Q>
0

> <r_epik_Metal_State_Penalty>
0.207746

> <b_epik_Metal_Only>
0

> <s_lp_Force_Field>
OPLS_2005

> <r_lp_Energy>
11.692

> <b_lp_Chiralities_Consistent>
1

> <s_lp_Variant>
AV-unprocessed.smi:2521-1

> <Gold.Version>
5.8.1

> <Gold.Id.Protein>
6NUR|6NUR_protein|mol2

> <Gold.PLP.Fitness>
35.4643

> <Gold.PLP.PLP>
-30.3970

> <Gold.PLP.part.hbond>
-5.2653

> <Gold.PLP.part.metal>
0.0000

> <Gold.PLP.part.buried>
-1.0298

> <Gold.PLP.part.nonpolar>
-25.1925

> <Gold.PLP.part.repulsive>
0.5137

> <Gold.PLP.ligand.clash>
0.0000

> <Gold.PLP.ligand.torsion>
0.7304

> <Gold.PLP.Chemscore.Hbond>
2.1488

> <Gold.PLP.Chemscore.CHOScore>
0.0000

> <Gold.PLP.Chemscore.Metal>
0.0000

> <Gold.Chemscore.Hbonds>
donor molecule, donor type, donor heavy atom, donor atom, acceptor molecule, acceptor atom, score
      L1  H    11    27       P1  7948  1.00
      P1  H  7989  7998       L1     6  0.45
      P1  H  7997  8010       L1     5  0.70

> <Gold.PLP.Chemscore.Internal.Correction>
0.0818

> <Gold.Rescore>
     Score         DG    S(hbond)    S(metal)    S(lipo)     H(rot)  DE(clash)    DE(int)     intcor
     12.95     -15.92       1.92        0.00      66.10       1.45       1.19       1.78       ----

> <Gold.Chemscore.Fitness>
12.9502

> <Gold.Chemscore.DG>
-15.9165

> <Gold.Chemscore.ZeroCoef>
-5.4800

> <Gold.Chemscore.Hbond>
1.9176

> <Gold.Chemscore.Metal>
0.0000

> <Gold.Chemscore.Lipo>
66.0996

> <Gold.Chemscore.Internal_Hbond>
0.0000

> <Gold.Chemscore.DEClash>
1.1880

> <Gold.Chemscore.DEInternal>
1.7782

> <Gold.Chemscore.Rot>
1.4461

> <Gold.Chemscore.Internal.Correction>
   9.000000E+99

> <Gold.Chemscore.Hbonds>
donor molecule, donor type, donor heavy atom, donor atom, acceptor molecule, acceptor atom, score
      L1  H    11    27       P1  7948  0.96
      P1  H  7997  8010       L1     5  0.68

> <Gold.Chemscore.Hbond.Weighted>
-6.4047

> <Gold.Chemscore.Metal.Weighted>
-0.0000

> <Gold.Chemscore.Lipo.Weighted>
-7.7337

> <Gold.Chemscore.Internal_Hbond.Weighted>
0.0000

> <Gold.Chemscore.DEClash.Weighted>
1.1880

> <Gold.Chemscore.DEInternal.Weighted>
1.7782

> <Gold.Chemscore.Rot.Weighted>
3.7019

> <Gold.Chemscore.Internal.Correction.Weighted>
   9.000000E+99

> <Gold.Protein.RotatedTorsions>
[ 6907 6896 6895 6894 ] final -123.09 input  -60.11 | X-H torsion
[ 7974 7965 7964 7962 ] final  -56.56 input  175.53 | X-H torsion
[ 8008 7997 7996 7995 ] final   84.97 input   59.86 | X-H torsion
[ 10167 10162 10161 10158 ] final  173.47 input  -65.29 | X-H torsion
[ 10718 10713 10712 10709 ] final -143.48 input   66.30 | X-H torsion
[ 10763 10752 10751 10750 ] final  100.53 input  -60.55 | X-H torsion
[ 11005 11000 10999 10996 ] final  -82.13 input  -57.11 | X-H torsion

> <Gold.Protein.ActiveResidues>
 VAL166  LYS551  ARG553  GLY616  TRP617  ASP618  TYR619  PRO620  LYS621  CYS622 
 ASP623  PHE694  ASN695  SER759  ASP760  ASP761  ALA762  ILE779  LEU786  VAL792 
 PHE793  MET794  SER795  GLU796  ALA797  LYS798  CYS799  TRP800  GLU811  SER814 

> <Gold.Protein.RotatedAtoms>
  150.8637  133.7606  159.2983 H   0  0  0  0  0  0  0  0  0  0  0  0  # atno 6907 bound_to 6896
  151.5240  135.1066  159.9895 H   0  0  0  0  0  0  0  0  0  0  0  0  # atno 6908 bound_to 6896
  152.4645  133.7849  159.6926 H   0  0  0  0  0  0  0  0  0  0  0  0  # atno 6909 bound_to 6896
  145.8612  140.8284  142.9936 H   0  0  0  0  0  0  0  0  0  0  0  0  # atno 7974 bound_to 7965
  155.9439  140.3406  155.6350 H   0  0  0  0  0  0  0  0  0  0  0  0  # atno 8008 bound_to 7997
  155.7005  140.0759  157.2430 H   0  0  0  0  0  0  0  0  0  0  0  0  # atno 8009 bound_to 7997
  154.4108  140.1641  156.2173 H   0  0  0  0  0  0  0  0  0  0  0  0  # atno 8010 bound_to 7997
  139.5109  144.3257  152.0160 H   0  0  0  0  0  0  0  0  0  0  0  0  # atno 10167 bound_to 10162
  156.3584  130.7725  151.1889 H   0  0  0  0  0  0  0  0  0  0  0  0  # atno 10718 bound_to 10713
  153.3151  135.4076  155.1369 H   0  0  0  0  0  0  0  0  0  0  0  0  # atno 10763 bound_to 10752
  154.8586  135.3574  154.5671 H   0  0  0  0  0  0  0  0  0  0  0  0  # atno 10764 bound_to 10752
  153.6102  135.7068  153.5408 H   0  0  0  0  0  0  0  0  0  0  0  0  # atno 10765 bound_to 10752
  141.1664  133.7229  156.8525 H   0  0  0  0  0  0  0  0  0  0  0  0  # atno 11005 bound_to 11000
  144.6726  140.1098  143.7456 LP  0  0  0  0  0  0  0  0  0  0  0  0  # atno 17320 bound_to 7965
  145.9246  139.2567  143.1361 LP  0  0  0  0  0  0  0  0  0  0  0  0  # atno 17321 bound_to 7965
  140.2698  144.3977  150.6155 LP  0  0  0  0  0  0  0  0  0  0  0  0  # atno 17342 bound_to 10162
  140.6097  143.2169  151.6911 LP  0  0  0  0  0  0  0  0  0  0  0  0  # atno 17343 bound_to 10162
  157.7470  131.0407  150.4611 LP  0  0  0  0  0  0  0  0  0  0  0  0  # atno 17370 bound_to 10713
  156.4818  130.4075  149.6457 LP  0  0  0  0  0  0  0  0  0  0  0  0  # atno 17371 bound_to 10713
  140.1905  134.8969  157.3055 LP  0  0  0  0  0  0  0  0  0  0  0  0  # atno 17394 bound_to 11000
  140.2295  134.3926  155.7528 LP  0  0  0  0  0  0  0  0  0  0  0  0  # atno 17395 bound_to 11000

$$$$
