AV-unprocessed.smi:72|AV-procd|sdf|750|dock6
  -GOLD-   2262017 83D 1   1.00000     0.00000
 Structure written by MMmdl.
 29 30  0  0  0  0  0  0  0  0  1 V2000
  144.0342  145.7384  155.4625 N   0  0  0  0  0  0  0  0  0  0  0  0
  144.9264  144.8149  154.9591 C   0  0  0  0  0  0  0  0  0  0  0  0
  145.1853  144.8829  153.5830 N   0  0  0  0  0  0  0  0  0  0  0  0
  146.0181  144.0127  153.1063 C   0  0  0  0  0  0  0  0  0  0  0  0
  146.6391  143.0168  153.9612 N   0  0  0  0  0  0  0  0  0  0  0  0
  147.6144  142.0018  153.4020 C   0  0  1  0  0  0  0  0  0  0  0  0
  148.7718  142.0186  154.1770 O   0  0  0  0  0  0  0  0  0  0  0  0
  149.3480  140.7223  154.1578 C   0  0  1  0  0  0  0  0  0  0  0  0
  150.3013  140.5572  155.3509 C   0  0  0  0  0  0  0  0  0  0  0  0
  151.2432  139.5417  155.0794 O   0  0  0  0  0  0  0  0  0  0  0  0
  148.1201  139.8070  154.2232 C   0  0  2  0  0  0  0  0  0  0  0  0
  148.4144  138.5518  153.6424 O   0  0  0  0  0  0  0  0  0  0  0  0
  147.0739  140.5531  153.3990 C   0  0  1  0  0  0  0  0  0  0  0  0
  145.7865  140.4032  153.9703 O   0  0  0  0  0  0  0  0  0  0  0  0
  146.3477  143.0183  155.3524 C   0  0  0  0  0  0  0  0  0  0  0  0
  146.8916  142.2071  156.1016 O   0  0  0  0  0  0  0  0  0  0  0  0
  145.4376  143.9765  155.8148 N   0  0  0  0  0  0  0  0  0  0  0  0
  147.8899  142.3456  152.4039 H   0  0  0  0  0  0  0  0  0  0  0  0
  149.8700  140.5789  153.2089 H   0  0  0  0  0  0  0  0  0  0  0  0
  147.7924  139.6874  155.2576 H   0  0  0  0  0  0  0  0  0  0  0  0
  147.0539  140.2099  152.3634 H   0  0  0  0  0  0  0  0  0  0  0  0
  143.7729  145.7855  156.4364 H   0  0  0  0  0  0  0  0  0  0  0  0
  143.5753  146.4354  154.8942 H   0  0  0  0  0  0  0  0  0  0  0  0
  146.3078  143.9736  152.0551 H   0  0  0  0  0  0  0  0  0  0  0  0
  150.8075  141.4935  155.5879 H   0  0  0  0  0  0  0  0  0  0  0  0
  149.7434  140.2567  156.2381 H   0  0  0  0  0  0  0  0  0  0  0  0
  151.6157  139.7007  154.2254 H   0  0  0  0  0  0  0  0  0  0  0  0
  148.7653  138.6966  152.7771 H   0  0  0  0  0  0  0  0  0  0  0  0
  145.1492  140.3857  153.2728 H   0  0  0  0  0  0  0  0  0  0  0  0
  1  2  1  0  0  0  0
  1 22  1  0  0  0  0
  1 23  1  0  0  0  0
  2 17  2  0  0  0  0
  2  3  1  0  0  0  0
  3  4  2  0  0  0  0
  4  5  1  0  0  0  0
  4 24  1  0  0  0  0
  5  6  1  0  0  0  0
  5 15  1  0  0  0  0
  6 18  1  0  0  0  0
  6 13  1  0  0  0  0
  6  7  1  0  0  0  0
  7  8  1  0  0  0  0
  8 19  1  0  0  0  0
  8  9  1  0  0  0  0
  8 11  1  0  0  0  0
  9 10  1  0  0  0  0
  9 25  1  0  0  0  0
  9 26  1  0  0  0  0
 10 27  1  0  0  0  0
 11 20  1  0  0  0  0
 11 12  1  0  0  0  0
 11 13  1  0  0  0  0
 12 28  1  0  0  0  0
 13 21  1  0  0  0  0
 13 14  1  0  0  0  0
 14 29  1  0  0  0  0
 15 16  2  0  0  0  0
 15 17  1  0  0  0  0
M  END
> <s_m_source_file>
AV-unprocessed.smi

> <i_m_source_file_index>
72

> <i_lp_mmshare_version>
43012

> <i_f3d_flags>
0

> <s_epik_input>
W05IMl1jMW5bY0hdbihjKD1PKW4xKVtDQEBIXTJPW0NASF0oW0NIMl1bT0hdKVtDQEBIXShbT0hdKVtDQEhdMltPSF0=

> <s_epik_cmdline>
J2VwaWtfcHl0aG9uJywgJy1waCcsICc3LjAnLCAnLXRuJywgJzgnLCAnLW1hJywgJzIwMCcsICctbWV0YWxfYmluZGluZycsICctaW1hZScsICc8aW5maWxlLm1hZT4nLCAnLW9tYWUnLCAnPG91dGZpbGUubWFlPic=

> <r_lp_tautomer_probability>
4.77166e-05

> <r_epik_Ionization_Penalty>
1.3546

> <r_epik_Ionization_Penalty_Charging>
1.46833e-10

> <r_epik_Ionization_Penalty_Neutral>
1.3546

> <r_epik_State_Penalty>
3.51908

> <r_epik_Charging_Adjusted_Penalty>
3.51908

> <i_epik_Tot_Q>
0

> <i_epik_Tot_abs_Q>
0

> <r_epik_Metal_State_Penalty>
3.44088

> <b_epik_Metal_Only>
1

> <s_epik_Chemistry_Notes>
This compound contains an acetal/aminal-like group ( X-CH(R)-Y where X, Y are N, S, or O) that may be acid/base labile, releasing an aldehyde.

> <s_lp_Force_Field>
OPLS_2005

> <r_lp_Energy>
31.5358

> <b_lp_Chiralities_Consistent>
1

> <s_lp_Variant>
AV-unprocessed.smi:72-88

> <Gold.Version>
5.8.1

> <Gold.Id.Protein>
6NUR|6NUR_protein|mol2

> <Gold.PLP.Fitness>
33.5496

> <Gold.PLP.PLP>
-28.2438

> <Gold.PLP.part.hbond>
-4.6396

> <Gold.PLP.part.metal>
0.0000

> <Gold.PLP.part.buried>
-4.5709

> <Gold.PLP.part.nonpolar>
-20.6419

> <Gold.PLP.part.repulsive>
1.5864

> <Gold.PLP.ligand.clash>
0.0000

> <Gold.PLP.ligand.torsion>
0.4662

> <Gold.PLP.Chemscore.Hbond>
2.0000

> <Gold.PLP.Chemscore.CHOScore>
0.0000

> <Gold.PLP.Chemscore.Metal>
0.0000

> <Gold.Chemscore.Hbonds>
donor molecule, donor type, donor heavy atom, donor atom, acceptor molecule, acceptor atom, score
      L1  H    12    28       P1  7957  0.46
      L1  H    14    29       P1 10175  1.00
      P1  H  8011  8017       L1     7  0.03

> <Gold.PLP.Chemscore.Internal.Correction>
0.2382

> <Gold.Rescore>
     Score         DG    S(hbond)    S(metal)    S(lipo)     H(rot)  DE(clash)    DE(int)     intcor
      2.89      -5.03       1.99        0.00      28.26       4.06       0.07       2.07       ----

> <Gold.Chemscore.Fitness>
2.8946

> <Gold.Chemscore.DG>
-5.0329

> <Gold.Chemscore.ZeroCoef>
-5.4800

> <Gold.Chemscore.Hbond>
1.9882

> <Gold.Chemscore.Metal>
0.0000

> <Gold.Chemscore.Lipo>
28.2567

> <Gold.Chemscore.Internal_Hbond>
0.0000

> <Gold.Chemscore.DEClash>
0.0653

> <Gold.Chemscore.DEInternal>
2.0730

> <Gold.Chemscore.Rot>
4.0600

> <Gold.Chemscore.Internal.Correction>
   9.000000E+99

> <Gold.Chemscore.Hbonds>
donor molecule, donor type, donor heavy atom, donor atom, acceptor molecule, acceptor atom, score
      L1  H    12    28       P1  7957  0.44
      L1  H    14    29       P1 10175  0.99

> <Gold.Chemscore.Hbond.Weighted>
-6.6405

> <Gold.Chemscore.Metal.Weighted>
-0.0000

> <Gold.Chemscore.Lipo.Weighted>
-3.3060

> <Gold.Chemscore.Internal_Hbond.Weighted>
0.0000

> <Gold.Chemscore.DEClash.Weighted>
0.0653

> <Gold.Chemscore.DEInternal.Weighted>
2.0730

> <Gold.Chemscore.Rot.Weighted>
10.3936

> <Gold.Chemscore.Internal.Correction.Weighted>
   9.000000E+99

> <Gold.Protein.RotatedTorsions>
[ 6907 6896 6895 6894 ] final   78.79 input  -60.11 | X-H torsion
[ 7974 7965 7964 7962 ] final  -84.28 input  175.53 | X-H torsion
[ 8008 7997 7996 7995 ] final   63.13 input   59.86 | X-H torsion
[ 10167 10162 10161 10158 ] final   13.31 input  -65.29 | X-H torsion
[ 10718 10713 10712 10709 ] final  -70.33 input   66.30 | X-H torsion
[ 10763 10752 10751 10750 ] final -161.78 input  -60.55 | X-H torsion
[ 11005 11000 10999 10996 ] final -160.83 input  -57.11 | X-H torsion

> <Gold.Protein.ActiveResidues>
 VAL166  LYS551  ARG553  GLY616  TRP617  ASP618  TYR619  PRO620  LYS621  CYS622 
 ASP623  PHE694  ASN695  SER759  ASP760  ASP761  ALA762  ILE779  LEU786  VAL792 
 PHE793  MET794  SER795  GLU796  ALA797  LYS798  CYS799  TRP800  GLU811  SER814 

> <Gold.Protein.RotatedAtoms>
  152.5173  134.3610  159.9284 H   0  0  0  0  0  0  0  0  0  0  0  0  # atno 6907 bound_to 6896
  151.3562  133.3900  159.2693 H   0  0  0  0  0  0  0  0  0  0  0  0  # atno 6908 bound_to 6896
  150.9688  134.9083  159.7833 H   0  0  0  0  0  0  0  0  0  0  0  0  # atno 6909 bound_to 6896
  145.5087  140.9541  143.1719 H   0  0  0  0  0  0  0  0  0  0  0  0  # atno 7974 bound_to 7965
  155.6254  140.3496  155.4665 H   0  0  0  0  0  0  0  0  0  0  0  0  # atno 8008 bound_to 7997
  156.0046  140.1220  157.0538 H   0  0  0  0  0  0  0  0  0  0  0  0  # atno 8009 bound_to 7997
  154.4260  140.1093  156.5731 H   0  0  0  0  0  0  0  0  0  0  0  0  # atno 8010 bound_to 7997
  140.6011  143.8603  150.6966 H   0  0  0  0  0  0  0  0  0  0  0  0  # atno 10167 bound_to 10162
  156.0413  130.4329  150.2279 H   0  0  0  0  0  0  0  0  0  0  0  0  # atno 10718 bound_to 10713
  154.7273  135.3038  154.8949 H   0  0  0  0  0  0  0  0  0  0  0  0  # atno 10763 bound_to 10752
  153.9803  135.6731  153.4754 H   0  0  0  0  0  0  0  0  0  0  0  0  # atno 10764 bound_to 10752
  153.0886  135.4971  154.8566 H   0  0  0  0  0  0  0  0  0  0  0  0  # atno 10765 bound_to 10752
  140.6272  134.4689  157.5227 H   0  0  0  0  0  0  0  0  0  0  0  0  # atno 11005 bound_to 11000
  144.7739  139.6673  143.7183 LP  0  0  0  0  0  0  0  0  0  0  0  0  # atno 17320 bound_to 7965
  146.2180  139.5584  142.9637 LP  0  0  0  0  0  0  0  0  0  0  0  0  # atno 17321 bound_to 7965
  140.2149  143.3854  152.1689 LP  0  0  0  0  0  0  0  0  0  0  0  0  # atno 17342 bound_to 10162
  139.5291  144.7138  151.5119 LP  0  0  0  0  0  0  0  0  0  0  0  0  # atno 17343 bound_to 10162
  157.0374  131.0025  151.3294 LP  0  0  0  0  0  0  0  0  0  0  0  0  # atno 17370 bound_to 10713
  157.5234  130.8012  149.7834 LP  0  0  0  0  0  0  0  0  0  0  0  0  # atno 17371 bound_to 10713
  139.9130  134.8304  156.1462 LP  0  0  0  0  0  0  0  0  0  0  0  0  # atno 17394 bound_to 11000
  141.0701  133.6801  156.2123 LP  0  0  0  0  0  0  0  0  0  0  0  0  # atno 17395 bound_to 11000

$$$$
