AV-unprocessed.smi:2872|AV-procd|sdf|11035|dock5
  -GOLD-   2272015503D 1   1.00000     0.00000
 Structure written by MMmdl.
 40 42  0  0  0  0  0  0  0  0  2 V2000
  150.3740  134.6751  156.0152 O   0  0  0  0  0  0  0  0  0  0  0  0
  150.5253  134.9811  154.8336 C   0  0  0  0  0  0  0  0  0  0  0  0
  150.6997  136.2360  154.3952 N   0  0  0  0  0  0  0  0  0  0  0  0
  150.7899  137.4153  155.2513 C   0  0  0  0  0  0  0  0  0  0  0  0
  149.8386  138.5177  154.8909 C   0  0  0  0  0  0  0  0  0  0  0  0
  149.0188  138.5747  153.8007 N   0  3  0  0  0  0  0  0  0  0  0  0
  148.2901  139.7643  153.8147 C   0  0  0  0  0  0  0  0  0  0  0  0
  147.3432  140.2651  152.9266 C   0  0  0  0  0  0  0  0  0  0  0  0
  146.7894  141.5251  153.2361 C   0  0  0  0  0  0  0  0  0  0  0  0
  147.1813  142.2360  154.3894 C   0  0  0  0  0  0  0  0  0  0  0  0
  148.1407  141.7166  155.2835 C   0  0  0  0  0  0  0  0  0  0  0  0
  148.6813  140.4699  154.9702 C   0  0  0  0  0  0  0  0  0  0  0  0
  149.6301  139.6611  155.6047 N   0  0  0  0  0  0  0  0  0  0  0  0
  150.2357  140.1181  156.8617 C   0  0  0  0  0  0  0  0  0  0  0  0
  151.5061  140.9418  156.6202 C   0  0  0  0  0  0  0  0  0  0  0  0
  152.1308  141.1786  157.8732 O   0  0  0  0  0  0  0  0  0  0  0  0
  152.0210  142.4349  158.4295 C   0  0  0  0  0  0  0  0  0  0  0  0
  152.5707  142.6145  159.7159 C   0  0  0  0  0  0  0  0  0  0  0  0
  152.5047  143.8648  160.3604 C   0  0  0  0  0  0  0  0  0  0  0  0
  151.8843  144.9536  159.7207 C   0  0  0  0  0  0  0  0  0  0  0  0
  151.3307  144.7890  158.4375 C   0  0  0  0  0  0  0  0  0  0  0  0
  151.3972  143.5381  157.7927 C   0  0  0  0  0  0  0  0  0  0  0  0
  150.5325  134.2666  153.9962 H   0  0  0  0  0  0  0  0  0  0  0  0
  150.8111  136.3818  153.4020 H   0  0  0  0  0  0  0  0  0  0  0  0
  150.6337  137.1373  156.2950 H   0  0  0  0  0  0  0  0  0  0  0  0
  151.8079  137.7996  155.1835 H   0  0  0  0  0  0  0  0  0  0  0  0
  147.0424  139.7225  152.0423 H   0  0  0  0  0  0  0  0  0  0  0  0
  146.0504  141.9551  152.5756 H   0  0  0  0  0  0  0  0  0  0  0  0
  146.7371  143.1996  154.5931 H   0  0  0  0  0  0  0  0  0  0  0  0
  148.4352  142.2690  156.1636 H   0  0  0  0  0  0  0  0  0  0  0  0
  149.4960  140.6897  157.4234 H   0  0  0  0  0  0  0  0  0  0  0  0
  150.4667  139.2374  157.4617 H   0  0  0  0  0  0  0  0  0  0  0  0
  152.1805  140.3945  155.9595 H   0  0  0  0  0  0  0  0  0  0  0  0
  151.2508  141.8883  156.1413 H   0  0  0  0  0  0  0  0  0  0  0  0
  153.0484  141.7837  160.2142 H   0  0  0  0  0  0  0  0  0  0  0  0
  152.9302  143.9877  161.3454 H   0  0  0  0  0  0  0  0  0  0  0  0
  151.8327  145.9133  160.2134 H   0  0  0  0  0  0  0  0  0  0  0  0
  150.8539  145.6241  157.9457 H   0  0  0  0  0  0  0  0  0  0  0  0
  150.9613  143.4516  156.8091 H   0  0  0  0  0  0  0  0  0  0  0  0
  148.9627  137.8453  153.1015 H   0  0  0  0  0  0  0  0  0  0  0  0
  1  2  2  0  0  0  0
  2  3  1  0  0  0  0
  2 23  1  0  0  0  0
  3  4  1  0  0  0  0
  3 24  1  0  0  0  0
  4  5  1  0  0  0  0
  4 25  1  0  0  0  0
  4 26  1  0  0  0  0
  5 13  1  0  0  0  0
  5  6  2  0  0  0  0
  6  7  1  0  0  0  0
  6 40  1  0  0  0  0
  7 12  2  0  0  0  0
  7  8  1  0  0  0  0
  8  9  2  0  0  0  0
  8 27  1  0  0  0  0
  9 10  1  0  0  0  0
  9 28  1  0  0  0  0
 10 11  2  0  0  0  0
 10 29  1  0  0  0  0
 11 12  1  0  0  0  0
 11 30  1  0  0  0  0
 12 13  1  0  0  0  0
 13 14  1  0  0  0  0
 14 15  1  0  0  0  0
 14 31  1  0  0  0  0
 14 32  1  0  0  0  0
 15 16  1  0  0  0  0
 15 33  1  0  0  0  0
 15 34  1  0  0  0  0
 16 17  1  0  0  0  0
 17 22  1  0  0  0  0
 17 18  2  0  0  0  0
 18 19  1  0  0  0  0
 18 35  1  0  0  0  0
 19 20  2  0  0  0  0
 19 36  1  0  0  0  0
 20 21  1  0  0  0  0
 20 37  1  0  0  0  0
 21 22  2  0  0  0  0
 21 38  1  0  0  0  0
 22 39  1  0  0  0  0
M  CHG  1   6   1
M  END
> <s_m_source_file>
AV-unprocessed.smi

> <i_m_source_file_index>
2872

> <i_lp_mmshare_version>
43012

> <i_f3d_flags>
0

> <s_epik_input>
Tz1bQ0hdW05IXVtDSDJdYyhuMSluKGMoYzEyKVtjSF1bY0hdW2NIXVtjSF0yKVtDSDJdW0NIMl1PYzNbY0hdW2NIXVtjSF1bY0hdW2NIXTM=

> <s_epik_cmdline>
J2VwaWtfcHl0aG9uJywgJy1waCcsICc3LjAnLCAnLXRuJywgJzgnLCAnLW1hJywgJzIwMCcsICctbWV0YWxfYmluZGluZycsICctaW1hZScsICc8aW5maWxlLm1hZT4nLCAnLW9tYWUnLCAnPG91dGZpbGUubWFlPic=

> <r_lp_tautomer_probability>
1

> <r_epik_Ionization_Penalty>
1.33318

> <r_epik_Ionization_Penalty_Charging>
1.33318

> <r_epik_Ionization_Penalty_Neutral>
7.38905e-08

> <r_epik_State_Penalty>
1.40978

> <r_epik_Charging_Adjusted_Penalty>
2.74296

> <i_epik_Tot_Q>
1

> <i_epik_Tot_abs_Q>
1

> <r_epik_Metal_State_Penalty>
1.46995

> <b_epik_Metal_Only>
0

> <s_lp_Force_Field>
OPLS_2005

> <r_lp_Energy>
15.6009

> <b_lp_Chiralities_Consistent>
1

> <s_lp_Variant>
AV-unprocessed.smi:2872-2

> <Gold.Version>
5.8.1

> <Gold.Id.Protein>
6NUR|6NUR_protein|mol2

> <Gold.PLP.Fitness>
50.0275

> <Gold.PLP.PLP>
-43.3881

> <Gold.PLP.part.hbond>
-3.8453

> <Gold.PLP.part.metal>
0.0000

> <Gold.PLP.part.buried>
-1.2193

> <Gold.PLP.part.nonpolar>
-38.7453

> <Gold.PLP.part.repulsive>
0.1599

> <Gold.PLP.ligand.clash>
0.0000

> <Gold.PLP.ligand.torsion>
0.7958

> <Gold.PLP.Chemscore.Hbond>
2.7000

> <Gold.PLP.Chemscore.CHOScore>
0.0000

> <Gold.PLP.Chemscore.Metal>
0.0000

> <Gold.Chemscore.Hbonds>
donor molecule, donor type, donor heavy atom, donor atom, acceptor molecule, acceptor atom, score
      L1  H     3    24       P1  7949  0.70
      L1  H     6    40       P1  7948  2.00

> <Gold.PLP.Chemscore.Internal.Correction>
0.1311

> <Gold.Rescore>
     Score         DG    S(hbond)    S(metal)    S(lipo)     H(rot)  DE(clash)    DE(int)     intcor
     16.04     -17.05       1.01        0.00     124.57       2.49       0.23       0.78       ----

> <Gold.Chemscore.Fitness>
16.0422

> <Gold.Chemscore.DG>
-17.0488

> <Gold.Chemscore.ZeroCoef>
-5.4800

> <Gold.Chemscore.Hbond>
1.0052

> <Gold.Chemscore.Metal>
0.0000

> <Gold.Chemscore.Lipo>
124.5654

> <Gold.Chemscore.Internal_Hbond>
0.0000

> <Gold.Chemscore.DEClash>
0.2251

> <Gold.Chemscore.DEInternal>
0.7815

> <Gold.Chemscore.Rot>
2.4854

> <Gold.Chemscore.Internal.Correction>
   9.000000E+99

> <Gold.Chemscore.Hbonds>
donor molecule, donor type, donor heavy atom, donor atom, acceptor molecule, acceptor atom, score
      L1  H     3    24       P1  7949  0.07
      L1  H     6    40       P1  7948  0.95

> <Gold.Chemscore.Hbond.Weighted>
-3.3574

> <Gold.Chemscore.Metal.Weighted>
-0.0000

> <Gold.Chemscore.Lipo.Weighted>
-14.5741

> <Gold.Chemscore.Internal_Hbond.Weighted>
0.0000

> <Gold.Chemscore.DEClash.Weighted>
0.2251

> <Gold.Chemscore.DEInternal.Weighted>
0.7815

> <Gold.Chemscore.Rot.Weighted>
6.3627

> <Gold.Chemscore.Internal.Correction.Weighted>
   9.000000E+99

> <Gold.Protein.RotatedTorsions>
[ 6907 6896 6895 6894 ] final -135.50 input  -60.11 | X-H torsion
[ 7974 7965 7964 7962 ] final   30.91 input  175.53 | X-H torsion
[ 8008 7997 7996 7995 ] final  -56.71 input   59.86 | X-H torsion
[ 10167 10162 10161 10158 ] final  -57.27 input  -65.29 | X-H torsion
[ 10718 10713 10712 10709 ] final   -5.81 input   66.30 | X-H torsion
[ 10763 10752 10751 10750 ] final  162.63 input  -60.55 | X-H torsion
[ 11005 11000 10999 10996 ] final  108.38 input  -57.11 | X-H torsion

> <Gold.Protein.ActiveResidues>
 VAL166  LYS551  ARG553  GLY616  TRP617  ASP618  TYR619  PRO620  LYS621  CYS622 
 ASP623  PHE694  ASN695  SER759  ASP760  ASP761  ALA762  ILE779  LEU786  VAL792 
 PHE793  MET794  SER795  GLU796  ALA797  LYS798  CYS799  TRP800  GLU811  SER814 

> <Gold.Protein.RotatedAtoms>
  150.9987  133.6078  159.2697 H   0  0  0  0  0  0  0  0  0  0  0  0  # atno 6907 bound_to 6896
  151.3272  135.0832  159.9336 H   0  0  0  0  0  0  0  0  0  0  0  0  # atno 6908 bound_to 6896
  152.5267  133.9623  159.7777 H   0  0  0  0  0  0  0  0  0  0  0  0  # atno 6909 bound_to 6896
  146.1583  139.6726  142.9051 H   0  0  0  0  0  0  0  0  0  0  0  0  # atno 7974 bound_to 7965
  154.4240  140.1123  156.5680 H   0  0  0  0  0  0  0  0  0  0  0  0  # atno 8008 bound_to 7997
  155.6242  140.3495  155.4642 H   0  0  0  0  0  0  0  0  0  0  0  0  # atno 8009 bound_to 7997
  156.0000  140.1197  157.0546 H   0  0  0  0  0  0  0  0  0  0  0  0  # atno 8010 bound_to 7997
  140.6268  143.2442  151.5343 H   0  0  0  0  0  0  0  0  0  0  0  0  # atno 10167 bound_to 10162
  156.7410  130.5210  149.5824 H   0  0  0  0  0  0  0  0  0  0  0  0  # atno 10718 bound_to 10713
  154.2813  135.2763  155.2696 H   0  0  0  0  0  0  0  0  0  0  0  0  # atno 10763 bound_to 10752
  154.5215  135.5755  153.6688 H   0  0  0  0  0  0  0  0  0  0  0  0  # atno 10764 bound_to 10752
  152.9928  135.6205  154.2973 H   0  0  0  0  0  0  0  0  0  0  0  0  # atno 10765 bound_to 10752
  139.8843  134.9428  156.5963 H   0  0  0  0  0  0  0  0  0  0  0  0  # atno 11005 bound_to 11000
  145.4654  141.0434  143.2728 LP  0  0  0  0  0  0  0  0  0  0  0  0  # atno 17320 bound_to 7965
  144.7992  139.6174  143.7079 LP  0  0  0  0  0  0  0  0  0  0  0  0  # atno 17321 bound_to 7965
  139.5487  144.2452  152.1491 LP  0  0  0  0  0  0  0  0  0  0  0  0  # atno 17342 bound_to 10162
  140.1686  144.4958  150.6592 LP  0  0  0  0  0  0  0  0  0  0  0  0  # atno 17343 bound_to 10162
  156.1464  130.6280  151.0537 LP  0  0  0  0  0  0  0  0  0  0  0  0  # atno 17370 bound_to 10713
  157.6818  131.0836  150.7349 LP  0  0  0  0  0  0  0  0  0  0  0  0  # atno 17371 bound_to 10713
  140.7917  133.8577  155.8652 LP  0  0  0  0  0  0  0  0  0  0  0  0  # atno 17394 bound_to 11000
  140.9671  134.1580  157.4607 LP  0  0  0  0  0  0  0  0  0  0  0  0  # atno 17395 bound_to 11000

$$$$
