AV-unprocessed.smi:2187|AV-procd|sdf|8878|dock8
  -GOLD-   2272012 73D 1   1.00000     0.00000
 Structure written by MMmdl.
 42 43  0  0  0  0  0  0  0  0  1 V2000
  152.0354  138.8716  155.1161 C   0  0  0  0  0  0  0  0  0  0  0  0
  151.8998  139.8148  156.2773 C   0  0  0  0  0  0  0  0  0  0  0  0
  152.7070  139.6772  157.3158 N   0  0  0  0  0  0  0  0  0  0  0  0
  152.3481  140.6609  158.1645 N   0  0  0  0  0  0  0  0  0  0  0  0
  153.0514  140.8000  159.4248 C   0  0  0  0  0  0  0  0  0  0  0  0
  151.3153  141.4263  157.6583 C   0  0  0  0  0  0  0  0  0  0  0  0
  150.7441  142.5894  158.4036 C   0  0  0  0  0  0  0  0  0  0  0  0
  150.9924  140.9045  156.4338 C   0  0  0  0  0  0  0  0  0  0  0  0
  149.9349  141.3696  155.4645 C   0  0  0  0  0  0  0  0  0  0  0  0
  148.5520  141.1716  156.0839 C   0  0  0  0  0  0  0  0  0  0  0  0
  148.1991  140.0535  156.4589 O   0  0  0  0  0  0  0  0  0  0  0  0
  147.7842  142.2674  156.1884 N   0  0  0  0  0  0  0  0  0  0  0  0
  146.4522  142.3267  156.7884 C   0  0  2  0  0  0  0  0  0  0  0  0
  145.6036  143.4474  156.1344 C   0  0  0  0  0  0  0  0  0  0  0  0
  144.4513  144.0127  156.9915 C   0  0  0  0  0  0  0  0  0  0  0  0
  143.4710  142.9666  157.5605 C   0  0  0  0  0  0  0  0  0  0  0  0
  144.0840  141.8228  158.4048 C   0  0  0  0  0  0  0  0  0  0  0  0
  145.3782  142.1414  159.0065 N   0  0  0  0  0  0  0  0  0  0  0  0
  146.5173  142.3621  158.3277 C   0  0  0  0  0  0  0  0  0  0  0  0
  147.5738  142.6074  158.9089 O   0  0  0  0  0  0  0  0  0  0  0  0
  152.6805  139.2945  154.3462 H   0  0  0  0  0  0  0  0  0  0  0  0
  151.0678  138.6634  154.6605 H   0  0  0  0  0  0  0  0  0  0  0  0
  152.4657  137.9172  155.4217 H   0  0  0  0  0  0  0  0  0  0  0  0
  152.3446  141.0311  160.2220 H   0  0  0  0  0  0  0  0  0  0  0  0
  153.7797  141.6073  159.3482 H   0  0  0  0  0  0  0  0  0  0  0  0
  153.5709  139.8748  159.6772 H   0  0  0  0  0  0  0  0  0  0  0  0
  150.0838  143.1801  157.7690 H   0  0  0  0  0  0  0  0  0  0  0  0
  151.5349  143.2489  158.7617 H   0  0  0  0  0  0  0  0  0  0  0  0
  150.1682  142.2509  159.2650 H   0  0  0  0  0  0  0  0  0  0  0  0
  150.0670  142.4193  155.2002 H   0  0  0  0  0  0  0  0  0  0  0  0
  149.9839  140.8191  154.5245 H   0  0  0  0  0  0  0  0  0  0  0  0
  148.1637  143.1425  155.8567 H   0  0  0  0  0  0  0  0  0  0  0  0
  145.9760  141.3755  156.5472 H   0  0  0  0  0  0  0  0  0  0  0  0
  146.2525  144.2827  155.8669 H   0  0  0  0  0  0  0  0  0  0  0  0
  145.1997  143.0772  155.1913 H   0  0  0  0  0  0  0  0  0  0  0  0
  144.8649  144.6014  157.8115 H   0  0  0  0  0  0  0  0  0  0  0  0
  143.8883  144.7263  156.3889 H   0  0  0  0  0  0  0  0  0  0  0  0
  142.7483  143.4992  158.1796 H   0  0  0  0  0  0  0  0  0  0  0  0
  142.8896  142.5313  156.7471 H   0  0  0  0  0  0  0  0  0  0  0  0
  143.3928  141.5495  159.2024 H   0  0  0  0  0  0  0  0  0  0  0  0
  144.1866  140.9236  157.7965 H   0  0  0  0  0  0  0  0  0  0  0  0
  145.4166  142.1791  160.0148 H   0  0  0  0  0  0  0  0  0  0  0  0
  1  2  1  0  0  0  0
  1 21  1  0  0  0  0
  1 22  1  0  0  0  0
  1 23  1  0  0  0  0
  2  8  1  0  0  0  0
  2  3  2  0  0  0  0
  3  4  1  0  0  0  0
  4  5  1  0  0  0  0
  4  6  1  0  0  0  0
  5 24  1  0  0  0  0
  5 25  1  0  0  0  0
  5 26  1  0  0  0  0
  6  7  1  0  0  0  0
  6  8  2  0  0  0  0
  7 27  1  0  0  0  0
  7 28  1  0  0  0  0
  7 29  1  0  0  0  0
  8  9  1  0  0  0  0
  9 10  1  0  0  0  0
  9 30  1  0  0  0  0
  9 31  1  0  0  0  0
 10 11  2  0  0  0  0
 10 12  1  0  0  0  0
 12 13  1  0  0  0  0
 12 32  1  0  0  0  0
 13 19  1  0  0  0  0
 13 14  1  0  0  0  0
 13 33  1  0  0  0  0
 14 15  1  0  0  0  0
 14 34  1  0  0  0  0
 14 35  1  0  0  0  0
 15 16  1  0  0  0  0
 15 36  1  0  0  0  0
 15 37  1  0  0  0  0
 16 17  1  0  0  0  0
 16 38  1  0  0  0  0
 16 39  1  0  0  0  0
 17 18  1  0  0  0  0
 17 40  1  0  0  0  0
 17 41  1  0  0  0  0
 18 19  1  0  0  0  0
 18 42  1  0  0  0  0
 19 20  2  0  0  0  0
M  END
> <s_m_source_file>
AV-unprocessed.smi

> <i_m_source_file_index>
2187

> <i_lp_mmshare_version>
43012

> <i_f3d_flags>
0

> <s_epik_input>
W0NIM11jMW5uKFtDSDNdKWMoW0NIM10pYzFbQ0gyXUMoPU8pW05IXVtDQEBIXTJbQ0gyXVtDSDJdW0NIMl1bQ0gyXVtOSF1DMj1P

> <s_epik_cmdline>
J2VwaWtfcHl0aG9uJywgJy1waCcsICc3LjAnLCAnLXRuJywgJzgnLCAnLW1hJywgJzIwMCcsICctbWV0YWxfYmluZGluZycsICctaW1hZScsICc8aW5maWxlLm1hZT4nLCAnLW9tYWUnLCAnPG91dGZpbGUubWFlPic=

> <r_lp_tautomer_probability>
1

> <r_epik_Ionization_Penalty>
0.00280384

> <r_epik_Ionization_Penalty_Charging>
0

> <r_epik_Ionization_Penalty_Neutral>
0.00280384

> <r_epik_State_Penalty>
0.00195959

> <r_epik_Charging_Adjusted_Penalty>
0.00195959

> <i_epik_Tot_Q>
0

> <i_epik_Tot_abs_Q>
0

> <r_epik_Metal_State_Penalty>
-0

> <b_epik_Metal_Only>
0

> <s_lp_Force_Field>
OPLS_2005

> <r_lp_Energy>
9.17358

> <b_lp_Chiralities_Consistent>
1

> <s_lp_Variant>
AV-unprocessed.smi:2187-1

> <Gold.Version>
5.8.1

> <Gold.Id.Protein>
6NUR|6NUR_protein|mol2

> <Gold.PLP.Fitness>
32.9200

> <Gold.PLP.PLP>
-27.5685

> <Gold.PLP.part.hbond>
-2.1165

> <Gold.PLP.part.metal>
0.0000

> <Gold.PLP.part.buried>
-3.8411

> <Gold.PLP.part.nonpolar>
-20.9773

> <Gold.PLP.part.repulsive>
0.2480

> <Gold.PLP.ligand.clash>
0.0000

> <Gold.PLP.ligand.torsion>
0.3505

> <Gold.PLP.Chemscore.Hbond>
2.0000

> <Gold.PLP.Chemscore.CHOScore>
0.0000

> <Gold.PLP.Chemscore.Metal>
0.0000

> <Gold.Chemscore.Hbonds>
donor molecule, donor type, donor heavy atom, donor atom, acceptor molecule, acceptor atom, score
      L1  H    12    32       P1  8028  1.00
      P1  H  7997  8008       L1     3  1.00

> <Gold.PLP.Chemscore.Internal.Correction>
0.0524

> <Gold.Rescore>
     Score         DG    S(hbond)    S(metal)    S(lipo)     H(rot)  DE(clash)    DE(int)     intcor
     12.77     -13.13       1.36        0.00      58.45       1.46       0.01       0.35       ----

> <Gold.Chemscore.Fitness>
12.7710

> <Gold.Chemscore.DG>
-13.1290

> <Gold.Chemscore.ZeroCoef>
-5.4800

> <Gold.Chemscore.Hbond>
1.3600

> <Gold.Chemscore.Metal>
0.0000

> <Gold.Chemscore.Lipo>
58.4499

> <Gold.Chemscore.Internal_Hbond>
0.0000

> <Gold.Chemscore.DEClash>
0.0089

> <Gold.Chemscore.DEInternal>
0.3491

> <Gold.Chemscore.Rot>
1.4578

> <Gold.Chemscore.Internal.Correction>
   9.000000E+99

> <Gold.Chemscore.Hbonds>
donor molecule, donor type, donor heavy atom, donor atom, acceptor molecule, acceptor atom, score
      L1  H    12    32       P1  8028  0.78
      P1  H  7997  8008       L1     3  0.26

> <Gold.Chemscore.Hbond.Weighted>
-4.5424

> <Gold.Chemscore.Metal.Weighted>
-0.0000

> <Gold.Chemscore.Lipo.Weighted>
-6.8386

> <Gold.Chemscore.Internal_Hbond.Weighted>
0.0000

> <Gold.Chemscore.DEClash.Weighted>
0.0089

> <Gold.Chemscore.DEInternal.Weighted>
0.3491

> <Gold.Chemscore.Rot.Weighted>
3.7321

> <Gold.Chemscore.Internal.Correction.Weighted>
   9.000000E+99

> <Gold.Protein.RotatedTorsions>
[ 6907 6896 6895 6894 ] final -121.69 input  -60.11 | X-H torsion
[ 7974 7965 7964 7962 ] final  -62.37 input  175.53 | X-H torsion
[ 8008 7997 7996 7995 ] final  -58.03 input   59.86 | X-H torsion
[ 10167 10162 10161 10158 ] final  -54.32 input  -65.29 | X-H torsion
[ 10718 10713 10712 10709 ] final  -75.62 input   66.30 | X-H torsion
[ 10763 10752 10751 10750 ] final  134.80 input  -60.55 | X-H torsion
[ 11005 11000 10999 10996 ] final -152.22 input  -57.11 | X-H torsion

> <Gold.Protein.ActiveResidues>
 VAL166  LYS551  ARG553  GLY616  TRP617  ASP618  TYR619  PRO620  LYS621  CYS622 
 ASP623  PHE694  ASN695  SER759  ASP760  ASP761  ALA762  ILE779  LEU786  VAL792 
 PHE793  MET794  SER795  GLU796  ALA797  LYS798  CYS799  TRP800  GLU811  SER814 

> <Gold.Protein.RotatedAtoms>
  150.8506  133.7793  159.3026 H   0  0  0  0  0  0  0  0  0  0  0  0  # atno 6907 bound_to 6896
  151.5466  135.1066  159.9949 H   0  0  0  0  0  0  0  0  0  0  0  0  # atno 6908 bound_to 6896
  152.4549  133.7661  159.6829 H   0  0  0  0  0  0  0  0  0  0  0  0  # atno 6909 bound_to 6896
  145.7921  140.8704  143.0275 H   0  0  0  0  0  0  0  0  0  0  0  0  # atno 7974 bound_to 7965
  154.4292  140.1093  156.5892 H   0  0  0  0  0  0  0  0  0  0  0  0  # atno 8008 bound_to 7997
  155.6030  140.3493  155.4580 H   0  0  0  0  0  0  0  0  0  0  0  0  # atno 8009 bound_to 7997
  156.0159  140.1229  157.0397 H   0  0  0  0  0  0  0  0  0  0  0  0  # atno 8010 bound_to 7997
  140.6437  143.2522  151.4919 H   0  0  0  0  0  0  0  0  0  0  0  0  # atno 10167 bound_to 10162
  156.0202  130.4445  150.3070 H   0  0  0  0  0  0  0  0  0  0  0  0  # atno 10718 bound_to 10713
  153.8295  135.3105  155.3417 H   0  0  0  0  0  0  0  0  0  0  0  0  # atno 10763 bound_to 10752
  154.7979  135.4744  154.0208 H   0  0  0  0  0  0  0  0  0  0  0  0  # atno 10764 bound_to 10752
  153.1643  135.6866  153.8788 H   0  0  0  0  0  0  0  0  0  0  0  0  # atno 10765 bound_to 10752
  140.7212  134.3725  157.5183 H   0  0  0  0  0  0  0  0  0  0  0  0  # atno 11005 bound_to 11000
  144.6780  140.0138  143.7484 LP  0  0  0  0  0  0  0  0  0  0  0  0  # atno 17320 bound_to 7965
  145.9966  139.3057  143.0953 LP  0  0  0  0  0  0  0  0  0  0  0  0  # atno 17321 bound_to 7965
  139.5647  144.2072  152.1746 LP  0  0  0  0  0  0  0  0  0  0  0  0  # atno 17342 bound_to 10162
  140.1350  144.5254  150.6779 LP  0  0  0  0  0  0  0  0  0  0  0  0  # atno 17343 bound_to 10162
  157.1172  131.0237  151.3024 LP  0  0  0  0  0  0  0  0  0  0  0  0  # atno 17370 bound_to 10713
  157.4657  130.7679  149.7277 LP  0  0  0  0  0  0  0  0  0  0  0  0  # atno 17371 bound_to 10713
  139.8848  134.8956  156.2683 LP  0  0  0  0  0  0  0  0  0  0  0  0  # atno 17394 bound_to 11000
  141.0002  133.7156  156.0948 LP  0  0  0  0  0  0  0  0  0  0  0  0  # atno 17395 bound_to 11000

$$$$
