AV-unprocessed.smi:2057|AV-procd|sdf|8341|dock8
  -GOLD-   2272011 13D 1   1.00000     0.00000
 Structure written by MMmdl.
 44 46  0  0  0  0  0  0  0  0  1 V2000
  151.4512  145.1811  158.7721 C   0  0  0  0  0  0  0  0  0  0  0  0
  152.3632  144.5510  159.6599 O   0  0  0  0  0  0  0  0  0  0  0  0
  152.5346  143.1872  159.5557 C   0  0  0  0  0  0  0  0  0  0  0  0
  153.4799  142.5935  160.4118 C   0  0  0  0  0  0  0  0  0  0  0  0
  153.7264  141.2094  160.3663 C   0  0  0  0  0  0  0  0  0  0  0  0
  153.0224  140.3794  159.4591 C   0  0  0  0  0  0  0  0  0  0  0  0
  153.2327  139.0188  159.3568 O   0  0  0  0  0  0  0  0  0  0  0  0
  154.1474  138.4047  160.2525 C   0  0  0  0  0  0  0  0  0  0  0  0
  152.0572  140.9671  158.6047 C   0  0  0  0  0  0  0  0  0  0  0  0
  151.2850  140.1031  157.6119 C   0  0  1  0  0  0  0  0  0  0  0  0
  149.9297  139.9218  157.9777 O   0  0  0  0  0  0  0  0  0  0  0  0
  151.3702  140.6871  156.1883 C   0  0  0  0  0  0  0  0  0  0  0  0
  150.4521  140.0365  155.2637 N   0  0  0  0  0  0  0  0  0  0  0  0
  150.5481  138.8065  154.6985 C   0  0  0  0  0  0  0  0  0  0  0  0
  151.7092  137.8982  154.9881 C   0  0  0  0  0  0  0  0  0  0  0  0
  152.0388  137.0328  153.9204 O   0  0  0  0  0  0  0  0  0  0  0  0
  149.5488  138.4710  153.8781 N   0  0  0  0  0  0  0  0  0  0  0  0
  148.7299  139.5823  153.9207 C   0  0  0  0  0  0  0  0  0  0  0  0
  147.5055  139.8486  153.2669 C   0  0  0  0  0  0  0  0  0  0  0  0
  146.8404  141.0760  153.4692 C   0  0  0  0  0  0  0  0  0  0  0  0
  147.3887  142.0528  154.3258 C   0  0  0  0  0  0  0  0  0  0  0  0
  148.6078  141.8077  154.9862 C   0  0  0  0  0  0  0  0  0  0  0  0
  149.2669  140.5807  154.7807 C   0  0  0  0  0  0  0  0  0  0  0  0
  151.8271  142.3612  158.6497 C   0  0  0  0  0  0  0  0  0  0  0  0
  151.4319  146.2516  158.9764 H   0  0  0  0  0  0  0  0  0  0  0  0
  150.4371  144.8021  158.9055 H   0  0  0  0  0  0  0  0  0  0  0  0
  151.7527  145.0495  157.7320 H   0  0  0  0  0  0  0  0  0  0  0  0
  154.0290  143.2080  161.1101 H   0  0  0  0  0  0  0  0  0  0  0  0
  154.4680  140.8095  161.0405 H   0  0  0  0  0  0  0  0  0  0  0  0
  154.1981  137.3375  160.0367 H   0  0  0  0  0  0  0  0  0  0  0  0
  153.8269  138.5161  161.2893 H   0  0  0  0  0  0  0  0  0  0  0  0
  155.1527  138.8118  160.1373 H   0  0  0  0  0  0  0  0  0  0  0  0
  151.7171  139.1021  157.6098 H   0  0  0  0  0  0  0  0  0  0  0  0
  149.4543  140.7091  157.7602 H   0  0  0  0  0  0  0  0  0  0  0  0
  151.1902  141.7621  156.2001 H   0  0  0  0  0  0  0  0  0  0  0  0
  152.3798  140.5551  155.7967 H   0  0  0  0  0  0  0  0  0  0  0  0
  152.5862  138.4987  155.2287 H   0  0  0  0  0  0  0  0  0  0  0  0
  151.4769  137.2910  155.8633 H   0  0  0  0  0  0  0  0  0  0  0  0
  151.2970  136.9876  153.3364 H   0  0  0  0  0  0  0  0  0  0  0  0
  147.0770  139.1071  152.6090 H   0  0  0  0  0  0  0  0  0  0  0  0
  145.9047  141.2686  152.9649 H   0  0  0  0  0  0  0  0  0  0  0  0
  146.8730  142.9901  154.4755 H   0  0  0  0  0  0  0  0  0  0  0  0
  149.0318  142.5533  155.6426 H   0  0  0  0  0  0  0  0  0  0  0  0
  151.1006  142.7842  157.9728 H   0  0  0  0  0  0  0  0  0  0  0  0
  1  2  1  0  0  0  0
  1 25  1  0  0  0  0
  1 26  1  0  0  0  0
  1 27  1  0  0  0  0
  2  3  1  0  0  0  0
  3 24  1  0  0  0  0
  3  4  2  0  0  0  0
  4  5  1  0  0  0  0
  4 28  1  0  0  0  0
  5  6  2  0  0  0  0
  5 29  1  0  0  0  0
  6  7  1  0  0  0  0
  6  9  1  0  0  0  0
  7  8  1  0  0  0  0
  8 30  1  0  0  0  0
  8 31  1  0  0  0  0
  8 32  1  0  0  0  0
  9 10  1  0  0  0  0
  9 24  2  0  0  0  0
 10 11  1  0  0  0  0
 10 12  1  0  0  0  0
 10 33  1  0  0  0  0
 11 34  1  0  0  0  0
 12 13  1  0  0  0  0
 12 35  1  0  0  0  0
 12 36  1  0  0  0  0
 13 23  1  0  0  0  0
 13 14  1  0  0  0  0
 14 15  1  0  0  0  0
 14 17  2  0  0  0  0
 15 16  1  0  0  0  0
 15 37  1  0  0  0  0
 15 38  1  0  0  0  0
 16 39  1  0  0  0  0
 17 18  1  0  0  0  0
 18 23  2  0  0  0  0
 18 19  1  0  0  0  0
 19 20  2  0  0  0  0
 19 40  1  0  0  0  0
 20 21  1  0  0  0  0
 20 41  1  0  0  0  0
 21 22  2  0  0  0  0
 21 42  1  0  0  0  0
 22 23  1  0  0  0  0
 22 43  1  0  0  0  0
 24 44  1  0  0  0  0
M  END
> <s_m_source_file>
AV-unprocessed.smi

> <i_m_source_file_index>
2057

> <i_lp_mmshare_version>
43012

> <i_f3d_flags>
0

> <s_epik_input>
W0NIM11PYzFbY0hdW2NIXWMoT1tDSDNdKWMoW2NIXTEpW0NASF0oW09IXSlbQ0gyXW4oYyhuMilbQ0gyXVtPSF0pYyhjMjMpW2NIXVtjSF1bY0hdW2NIXTM=

> <s_epik_cmdline>
J2VwaWtfcHl0aG9uJywgJy1waCcsICc3LjAnLCAnLXRuJywgJzgnLCAnLW1hJywgJzIwMCcsICctbWV0YWxfYmluZGluZycsICctaW1hZScsICc8aW5maWxlLm1hZT4nLCAnLW9tYWUnLCAnPG91dGZpbGUubWFlPic=

> <r_lp_tautomer_probability>
1

> <r_epik_Ionization_Penalty>
0.0634722

> <r_epik_Ionization_Penalty_Charging>
0

> <r_epik_Ionization_Penalty_Neutral>
0.0634722

> <r_epik_State_Penalty>
0.0551572

> <r_epik_Charging_Adjusted_Penalty>
0.0551572

> <i_epik_Tot_Q>
0

> <i_epik_Tot_abs_Q>
0

> <r_epik_Metal_State_Penalty>
5.78034e-05

> <b_epik_Metal_Only>
0

> <s_lp_Force_Field>
OPLS_2005

> <r_lp_Energy>
19.4747

> <b_lp_Chiralities_Consistent>
1

> <s_lp_Variant>
AV-unprocessed.smi:2057-2

> <Gold.Version>
5.8.1

> <Gold.Id.Protein>
6NUR|6NUR_protein|mol2

> <Gold.PLP.Fitness>
53.0240

> <Gold.PLP.PLP>
-50.0880

> <Gold.PLP.part.hbond>
-2.0000

> <Gold.PLP.part.metal>
0.0000

> <Gold.PLP.part.buried>
-2.3408

> <Gold.PLP.part.nonpolar>
-47.3056

> <Gold.PLP.part.repulsive>
1.4306

> <Gold.PLP.ligand.clash>
0.0000

> <Gold.PLP.ligand.torsion>
0.8712

> <Gold.PLP.Chemscore.Hbond>
1.5335

> <Gold.PLP.Chemscore.CHOScore>
0.0000

> <Gold.PLP.Chemscore.Metal>
0.0000

> <Gold.Chemscore.Hbonds>
donor molecule, donor type, donor heavy atom, donor atom, acceptor molecule, acceptor atom, score
      L1  H    16    39       P1  7949  0.46
      P1  H 10752 10763       L1    16  1.00

> <Gold.PLP.Chemscore.Internal.Correction>
0.0777

> <Gold.Rescore>
     Score         DG    S(hbond)    S(metal)    S(lipo)     H(rot)  DE(clash)    DE(int)     intcor
     16.23     -17.57       1.34        0.00     134.21       3.17       0.51       0.83       ----

> <Gold.Chemscore.Fitness>
16.2293

> <Gold.Chemscore.DG>
-17.5659

> <Gold.Chemscore.ZeroCoef>
-5.4800

> <Gold.Chemscore.Hbond>
1.3441

> <Gold.Chemscore.Metal>
0.0000

> <Gold.Chemscore.Lipo>
134.2127

> <Gold.Chemscore.Internal_Hbond>
0.0000

> <Gold.Chemscore.DEClash>
0.5071

> <Gold.Chemscore.DEInternal>
0.8295

> <Gold.Chemscore.Rot>
3.1665

> <Gold.Chemscore.Internal.Correction>
   9.000000E+99

> <Gold.Chemscore.Hbonds>
donor molecule, donor type, donor heavy atom, donor atom, acceptor molecule, acceptor atom, score
      L1  H    16    39       P1  7949  0.32
      P1  H 10752 10763       L1    16  0.93

> <Gold.Chemscore.Hbond.Weighted>
-4.4892

> <Gold.Chemscore.Metal.Weighted>
-0.0000

> <Gold.Chemscore.Lipo.Weighted>
-15.7029

> <Gold.Chemscore.Internal_Hbond.Weighted>
0.0000

> <Gold.Chemscore.DEClash.Weighted>
0.5071

> <Gold.Chemscore.DEInternal.Weighted>
0.8295

> <Gold.Chemscore.Rot.Weighted>
8.1062

> <Gold.Chemscore.Internal.Correction.Weighted>
   9.000000E+99

> <Gold.Protein.RotatedTorsions>
[ 6907 6896 6895 6894 ] final   18.67 input  -60.11 | X-H torsion
[ 7974 7965 7964 7962 ] final  124.38 input  175.53 | X-H torsion
[ 8008 7997 7996 7995 ] final   82.90 input   59.86 | X-H torsion
[ 10167 10162 10161 10158 ] final  161.72 input  -65.29 | X-H torsion
[ 10718 10713 10712 10709 ] final  136.89 input   66.30 | X-H torsion
[ 10763 10752 10751 10750 ] final   27.13 input  -60.55 | X-H torsion
[ 11005 11000 10999 10996 ] final   90.67 input  -57.11 | X-H torsion

> <Gold.Protein.ActiveResidues>
 VAL166  LYS551  ARG553  GLY616  TRP617  ASP618  TYR619  PRO620  LYS621  CYS622 
 ASP623  PHE694  ASN695  SER759  ASP760  ASP761  ALA762  ILE779  LEU786  VAL792 
 PHE793  MET794  SER795  GLU796  ALA797  LYS798  CYS799  TRP800  GLU811  SER814 

> <Gold.Protein.RotatedAtoms>
  151.8688  135.0497  160.0476 H   0  0  0  0  0  0  0  0  0  0  0  0  # atno 6907 bound_to 6896
  152.2604  133.5288  159.5387 H   0  0  0  0  0  0  0  0  0  0  0  0  # atno 6908 bound_to 6896
  150.7114  134.0753  159.3921 H   0  0  0  0  0  0  0  0  0  0  0  0  # atno 6909 bound_to 6896
  145.0851  139.3628  143.4889 H   0  0  0  0  0  0  0  0  0  0  0  0  # atno 7974 bound_to 7965
  155.9168  140.3424  155.6141 H   0  0  0  0  0  0  0  0  0  0  0  0  # atno 8008 bound_to 7997
  155.7321  140.0797  157.2302 H   0  0  0  0  0  0  0  0  0  0  0  0  # atno 8009 bound_to 7997
  154.4063  140.1586  156.2508 H   0  0  0  0  0  0  0  0  0  0  0  0  # atno 8010 bound_to 7997
  139.4852  144.4509  151.8831 H   0  0  0  0  0  0  0  0  0  0  0  0  # atno 10167 bound_to 10162
  157.4419  131.1058  151.0133 H   0  0  0  0  0  0  0  0  0  0  0  0  # atno 10718 bound_to 10713
  153.0576  135.6544  154.0540 H   0  0  0  0  0  0  0  0  0  0  0  0  # atno 10763 bound_to 10752
  154.0214  135.2919  155.3382 H   0  0  0  0  0  0  0  0  0  0  0  0  # atno 10764 bound_to 10752
  154.6899  135.5287  153.8445 H   0  0  0  0  0  0  0  0  0  0  0  0  # atno 10765 bound_to 10752
  139.8852  134.8627  156.3317 H   0  0  0  0  0  0  0  0  0  0  0  0  # atno 11005 bound_to 11000
  146.3531  140.0659  142.8626 LP  0  0  0  0  0  0  0  0  0  0  0  0  # atno 17320 bound_to 7965
  145.1132  140.9418  143.4644 LP  0  0  0  0  0  0  0  0  0  0  0  0  # atno 17321 bound_to 7965
  140.3966  144.2548  150.5896 LP  0  0  0  0  0  0  0  0  0  0  0  0  # atno 17342 bound_to 10162
  140.5097  143.2294  151.8554 LP  0  0  0  0  0  0  0  0  0  0  0  0  # atno 17343 bound_to 10162
  157.0993  130.5975  149.5457 LP  0  0  0  0  0  0  0  0  0  0  0  0  # atno 17370 bound_to 10713
  155.9952  130.5018  150.7450 LP  0  0  0  0  0  0  0  0  0  0  0  0  # atno 17371 bound_to 10713
  140.9718  133.7322  156.0546 LP  0  0  0  0  0  0  0  0  0  0  0  0  # atno 17394 bound_to 11000
  140.7861  134.3671  157.5476 LP  0  0  0  0  0  0  0  0  0  0  0  0  # atno 17395 bound_to 11000

$$$$
