AV-unprocessed.smi:1286|AV-procd|sdf|5377|dock4
  -GOLD-   22720 4523D 1   1.00000     0.00000
 Structure written by MMmdl.
 36 37  0  0  0  0  0  0  0  0  1 V2000
  152.9110  138.8325  154.9957 C   0  0  0  0  0  0  0  0  0  0  0  0
  151.4344  138.7956  155.4191 C   0  0  2  0  0  0  0  0  0  0  0  0
  150.4988  138.7215  154.1968 C   0  0  0  0  0  0  0  0  0  0  0  0
  149.4994  139.7751  154.1991 N   0  0  0  0  0  0  0  0  0  0  0  0
  148.1290  139.6575  154.0962 C   0  0  0  0  0  0  0  0  0  0  0  0
  147.6090  140.9193  154.1384 C   0  0  0  0  0  0  0  0  0  0  0  0
  148.7547  141.7527  154.2722 C   0  0  0  0  0  0  0  0  0  0  0  0
  149.8845  141.0649  154.3094 N   0  0  0  0  0  0  0  0  0  0  0  0
  151.1173  139.9761  156.2203 N   0  0  0  0  0  0  0  0  0  0  0  0
  151.8093  140.4030  157.2878 C   0  0  0  0  0  0  0  0  0  0  0  0
  152.8165  139.8374  157.7130 O   0  0  0  0  0  0  0  0  0  0  0  0
  151.2793  141.6625  157.9821 C   0  0  0  0  0  0  0  0  0  0  0  0
  152.3805  142.5120  158.6538 C   0  0  1  0  0  0  0  0  0  0  0  0
  151.9538  143.9296  158.9516 C   0  0  0  0  0  0  0  0  0  0  0  0
  152.1210  144.2601  160.2299 C   0  0  0  0  0  0  0  0  0  0  0  0
  152.6898  143.1334  161.0466 C   0  0  0  0  0  0  0  0  0  0  0  0
  152.8076  141.9661  160.0407 C   0  0  0  0  0  0  0  0  0  0  0  0
  153.1718  137.9511  154.4094 H   0  0  0  0  0  0  0  0  0  0  0  0
  153.5708  138.8543  155.8636 H   0  0  0  0  0  0  0  0  0  0  0  0
  153.1287  139.7123  154.3891 H   0  0  0  0  0  0  0  0  0  0  0  0
  151.2779  137.8980  156.0206 H   0  0  0  0  0  0  0  0  0  0  0  0
  151.0708  138.7834  153.2698 H   0  0  0  0  0  0  0  0  0  0  0  0
  149.9797  137.7620  154.1772 H   0  0  0  0  0  0  0  0  0  0  0  0
  147.6445  138.6972  153.9990 H   0  0  0  0  0  0  0  0  0  0  0  0
  146.5689  141.2039  154.0819 H   0  0  0  0  0  0  0  0  0  0  0  0
  148.7986  142.8296  154.3432 H   0  0  0  0  0  0  0  0  0  0  0  0
  150.3037  140.5064  155.9444 H   0  0  0  0  0  0  0  0  0  0  0  0
  150.7337  142.2738  157.2607 H   0  0  0  0  0  0  0  0  0  0  0  0
  150.5512  141.3499  158.7314 H   0  0  0  0  0  0  0  0  0  0  0  0
  153.2552  142.5621  158.0032 H   0  0  0  0  0  0  0  0  0  0  0  0
  151.5716  144.5907  158.1874 H   0  0  0  0  0  0  0  0  0  0  0  0
  151.8921  145.2246  160.6589 H   0  0  0  0  0  0  0  0  0  0  0  0
  153.6616  143.4185  161.4506 H   0  0  0  0  0  0  0  0  0  0  0  0
  152.0247  142.8890  161.8753 H   0  0  0  0  0  0  0  0  0  0  0  0
  152.1655  141.1418  160.3541 H   0  0  0  0  0  0  0  0  0  0  0  0
  153.8268  141.5787  160.0096 H   0  0  0  0  0  0  0  0  0  0  0  0
  1  2  1  0  0  0  0
  1 18  1  0  0  0  0
  1 19  1  0  0  0  0
  1 20  1  0  0  0  0
  2  3  1  0  0  0  0
  2  9  1  0  0  0  0
  2 21  1  0  0  0  0
  3  4  1  0  0  0  0
  3 22  1  0  0  0  0
  3 23  1  0  0  0  0
  4  8  1  0  0  0  0
  4  5  1  0  0  0  0
  5  6  2  0  0  0  0
  5 24  1  0  0  0  0
  6  7  1  0  0  0  0
  6 25  1  0  0  0  0
  7  8  2  0  0  0  0
  7 26  1  0  0  0  0
  9 10  1  0  0  0  0
  9 27  1  0  0  0  0
 10 11  2  0  0  0  0
 10 12  1  0  0  0  0
 12 13  1  0  0  0  0
 12 28  1  0  0  0  0
 12 29  1  0  0  0  0
 13 17  1  0  0  0  0
 13 14  1  0  0  0  0
 13 30  1  0  0  0  0
 14 15  2  0  0  0  0
 14 31  1  0  0  0  0
 15 16  1  0  0  0  0
 15 32  1  0  0  0  0
 16 17  1  0  0  0  0
 16 33  1  0  0  0  0
 16 34  1  0  0  0  0
 17 35  1  0  0  0  0
 17 36  1  0  0  0  0
M  END
> <s_m_source_file>
AV-unprocessed.smi

> <i_m_source_file_index>
1286

> <i_lp_mmshare_version>
43012

> <i_f3d_flags>
0

> <s_epik_input>
bjFbY0hdW2NIXVtjSF1uMVtDSDJdW0NAQEhdKFtDSDNdKVtOSF1DKD1PKVtDSDJdW0NAQEhdMltDSF09W0NIXVtDSDJdW0NIMl0y

> <s_epik_cmdline>
J2VwaWtfcHl0aG9uJywgJy1waCcsICc3LjAnLCAnLXRuJywgJzgnLCAnLW1hJywgJzIwMCcsICctbWV0YWxfYmluZGluZycsICctaW1hZScsICc8aW5maWxlLm1hZT4nLCAnLW9tYWUnLCAnPG91dGZpbGUubWFlPic=

> <r_lp_tautomer_probability>
1

> <r_epik_Ionization_Penalty>
0.000301761

> <r_epik_Ionization_Penalty_Charging>
0

> <r_epik_Ionization_Penalty_Neutral>
0.000301761

> <r_epik_State_Penalty>
-0

> <r_epik_Charging_Adjusted_Penalty>
0

> <i_epik_Tot_Q>
0

> <i_epik_Tot_abs_Q>
0

> <r_epik_Metal_State_Penalty>
-0

> <b_epik_Metal_Only>
0

> <s_lp_Force_Field>
OPLS_2005

> <r_lp_Energy>
17.4811

> <b_lp_Chiralities_Consistent>
1

> <s_lp_Variant>
AV-unprocessed.smi:1286-3

> <Gold.Version>
5.8.1

> <Gold.Id.Protein>
6NUR|6NUR_protein|mol2

> <Gold.PLP.Fitness>
46.0166

> <Gold.PLP.PLP>
-40.9943

> <Gold.PLP.part.hbond>
-2.0000

> <Gold.PLP.part.metal>
0.0000

> <Gold.PLP.part.buried>
-3.5834

> <Gold.PLP.part.nonpolar>
-35.4027

> <Gold.PLP.part.repulsive>
0.2417

> <Gold.PLP.ligand.clash>
0.0000

> <Gold.PLP.ligand.torsion>
1.3871

> <Gold.PLP.Chemscore.Hbond>
1.5920

> <Gold.PLP.Chemscore.CHOScore>
1.0000

> <Gold.PLP.Chemscore.Metal>
0.0000

> <Gold.Chemscore.Hbonds>
donor molecule, donor type, donor heavy atom, donor atom, acceptor molecule, acceptor atom, score
      P1  H  7989  7998       L1     8  0.46
      P1  H  7997  8009       L1    11  1.00
      L1  C     7    26       P1  8028  1.00

> <Gold.PLP.Chemscore.Internal.Correction>
0.0204

> <Gold.Rescore>
     Score         DG    S(hbond)    S(metal)    S(lipo)     H(rot)  DE(clash)    DE(int)     intcor
     16.99     -19.88       1.81        0.00     107.37       1.64       0.14       2.74       ----

> <Gold.Chemscore.Fitness>
16.9926

> <Gold.Chemscore.DG>
-19.8751

> <Gold.Chemscore.ZeroCoef>
-5.4800

> <Gold.Chemscore.Hbond>
1.8053

> <Gold.Chemscore.Metal>
0.0000

> <Gold.Chemscore.Lipo>
107.3710

> <Gold.Chemscore.Internal_Hbond>
0.0000

> <Gold.Chemscore.DEClash>
0.1389

> <Gold.Chemscore.DEInternal>
2.7435

> <Gold.Chemscore.Rot>
1.6394

> <Gold.Chemscore.Internal.Correction>
   9.000000E+99

> <Gold.Chemscore.Hbonds>
donor molecule, donor type, donor heavy atom, donor atom, acceptor molecule, acceptor atom, score
      P1  H  7989  7998       L1     8  0.09
      P1  H  7997  8009       L1    11  0.98

> <Gold.Chemscore.Hbond.Weighted>
-6.0296

> <Gold.Chemscore.Metal.Weighted>
-0.0000

> <Gold.Chemscore.Lipo.Weighted>
-12.5624

> <Gold.Chemscore.Internal_Hbond.Weighted>
0.0000

> <Gold.Chemscore.DEClash.Weighted>
0.1389

> <Gold.Chemscore.DEInternal.Weighted>
2.7435

> <Gold.Chemscore.Rot.Weighted>
4.1969

> <Gold.Chemscore.Internal.Correction.Weighted>
   9.000000E+99

> <Gold.Protein.RotatedTorsions>
[ 6907 6896 6895 6894 ] final   -3.83 input  -60.11 | X-H torsion
[ 7974 7965 7964 7962 ] final   44.56 input  175.53 | X-H torsion
[ 8008 7997 7996 7995 ] final  162.05 input   59.86 | X-H torsion
[ 10167 10162 10161 10158 ] final    7.43 input  -65.29 | X-H torsion
[ 10718 10713 10712 10709 ] final  131.97 input   66.30 | X-H torsion
[ 10763 10752 10751 10750 ] final  105.74 input  -60.55 | X-H torsion
[ 11005 11000 10999 10996 ] final   49.88 input  -57.11 | X-H torsion

> <Gold.Protein.ActiveResidues>
 VAL166  LYS551  ARG553  GLY616  TRP617  ASP618  TYR619  PRO620  LYS621  CYS622 
 ASP623  PHE694  ASN695  SER759  ASP760  ASP761  ALA762  ILE779  LEU786  VAL792 
 PHE793  MET794  SER795  GLU796  ALA797  LYS798  CYS799  TRP800  GLU811  SER814 

> <Gold.Protein.RotatedAtoms>
  151.5075  135.1064  159.9844 H   0  0  0  0  0  0  0  0  0  0  0  0  # atno 6907 bound_to 6896
  152.4676  133.7953  159.6934 H   0  0  0  0  0  0  0  0  0  0  0  0  # atno 6908 bound_to 6896
  150.8667  133.7501  159.3000 H   0  0  0  0  0  0  0  0  0  0  0  0  # atno 6909 bound_to 6896
  146.0557  139.5061  142.9690 H   0  0  0  0  0  0  0  0  0  0  0  0  # atno 7974 bound_to 7965
  156.2059  140.1761  156.7801 H   0  0  0  0  0  0  0  0  0  0  0  0  # atno 8008 bound_to 7997
  154.5654  140.0692  156.8914 H   0  0  0  0  0  0  0  0  0  0  0  0  # atno 8009 bound_to 7997
  155.2770  140.3346  155.4263 H   0  0  0  0  0  0  0  0  0  0  0  0  # atno 8010 bound_to 7997
  140.6372  143.7858  150.7376 H   0  0  0  0  0  0  0  0  0  0  0  0  # atno 10167 bound_to 10162
  157.4917  131.1091  150.9548 H   0  0  0  0  0  0  0  0  0  0  0  0  # atno 10718 bound_to 10713
  153.3834  135.3900  155.1873 H   0  0  0  0  0  0  0  0  0  0  0  0  # atno 10763 bound_to 10752
  154.8710  135.3731  154.4828 H   0  0  0  0  0  0  0  0  0  0  0  0  # atno 10764 bound_to 10752
  153.5307  135.7086  153.5746 H   0  0  0  0  0  0  0  0  0  0  0  0  # atno 10765 bound_to 10752
  140.1065  134.5011  155.8715 H   0  0  0  0  0  0  0  0  0  0  0  0  # atno 11005 bound_to 11000
  145.6647  141.0232  143.1690 LP  0  0  0  0  0  0  0  0  0  0  0  0  # atno 17320 bound_to 7965
  144.7147  139.8241  143.7403 LP  0  0  0  0  0  0  0  0  0  0  0  0  # atno 17321 bound_to 7965
  140.1482  143.4381  152.2149 LP  0  0  0  0  0  0  0  0  0  0  0  0  # atno 17342 bound_to 10162
  139.5582  144.7387  151.4232 LP  0  0  0  0  0  0  0  0  0  0  0  0  # atno 17343 bound_to 10162
  157.0248  130.5688  149.5335 LP  0  0  0  0  0  0  0  0  0  0  0  0  # atno 17370 bound_to 10713
  156.0177  130.5271  150.8183 LP  0  0  0  0  0  0  0  0  0  0  0  0  # atno 17371 bound_to 10713
  141.2119  133.6713  156.6621 LP  0  0  0  0  0  0  0  0  0  0  0  0  # atno 17394 bound_to 11000
  140.3149  134.8056  157.4206 LP  0  0  0  0  0  0  0  0  0  0  0  0  # atno 17395 bound_to 11000

$$$$
