AV-unprocessed.smi:62|AV-procd|sdf|602|dock4
  -GOLD-   2262016493D 1   1.00000     0.00000
 Structure written by MMmdl.
 31 32  0  0  0  0  0  0  0  0  3 V2000
  151.7693  142.7911  159.3063 C   0  0  0  0  0  0  0  0  0  0  0  0
  151.4375  142.0879  158.0859 N   0  0  0  0  0  0  0  0  0  0  0  0
  150.4036  142.3231  157.2105 C   0  0  0  0  0  0  0  0  0  0  0  0
  150.4870  141.4100  156.1951 C   0  0  0  0  0  0  0  0  0  0  0  0
  149.5407  141.3406  155.0164 C   0  0  0  0  0  0  0  0  0  0  0  0
  148.3374  142.1760  155.2418 N   0  3  2  0  0  0  0  0  0  0  0  0
  147.4773  141.7153  156.3506 C   0  0  0  0  0  0  0  0  0  0  0  0
  146.1116  142.3317  156.0672 C   0  0  0  0  0  0  0  0  0  0  0  0
  146.0178  142.2348  154.5470 C   0  0  1  0  0  0  0  0  0  0  0  0
  145.1549  143.2153  154.0106 O   0  0  0  0  0  0  0  0  0  0  0  0
  147.4660  142.3981  154.0616 C   0  0  0  0  0  0  0  0  0  0  0  0
  151.6354  140.6247  156.5640 C   0  0  0  0  0  0  0  0  0  0  0  0
  152.1366  139.4583  155.7530 C   0  0  0  0  0  0  0  0  0  0  0  0
  153.0562  138.7337  156.1901 O   0  0  0  0  0  0  0  0  0  0  0  0
  151.6027  139.2496  154.6416 O   0  5  0  0  0  0  0  0  0  0  0  0
  152.1939  141.0493  157.6899 N   0  0  0  0  0  0  0  0  0  0  0  0
  151.2307  143.7384  159.3496 H   0  0  0  0  0  0  0  0  0  0  0  0
  152.8406  142.9925  159.3416 H   0  0  0  0  0  0  0  0  0  0  0  0
  151.4903  142.1831  160.1673 H   0  0  0  0  0  0  0  0  0  0  0  0
  149.6965  143.1224  157.3768 H   0  0  0  0  0  0  0  0  0  0  0  0
  149.9992  141.5995  154.0649 H   0  0  0  0  0  0  0  0  0  0  0  0
  149.2026  140.3119  154.8867 H   0  0  0  0  0  0  0  0  0  0  0  0
  147.3998  140.6267  156.3314 H   0  0  0  0  0  0  0  0  0  0  0  0
  147.8779  142.0104  157.3209 H   0  0  0  0  0  0  0  0  0  0  0  0
  145.2966  141.8183  156.5782 H   0  0  0  0  0  0  0  0  0  0  0  0
  146.1082  143.3754  156.3860 H   0  0  0  0  0  0  0  0  0  0  0  0
  145.6517  141.2446  154.2712 H   0  0  0  0  0  0  0  0  0  0  0  0
  145.6285  144.0309  153.9453 H   0  0  0  0  0  0  0  0  0  0  0  0
  147.6582  143.4026  153.6823 H   0  0  0  0  0  0  0  0  0  0  0  0
  147.6672  141.6989  153.2523 H   0  0  0  0  0  0  0  0  0  0  0  0
  148.6650  143.0918  155.5123 H   0  0  0  0  0  0  0  0  0  0  0  0
  1  2  1  0  0  0  0
  1 17  1  0  0  0  0
  1 18  1  0  0  0  0
  1 19  1  0  0  0  0
  2 16  1  0  0  0  0
  2  3  1  0  0  0  0
  3  4  2  0  0  0  0
  3 20  1  0  0  0  0
  4  5  1  0  0  0  0
  4 12  1  0  0  0  0
  5  6  1  0  0  0  0
  5 21  1  0  0  0  0
  5 22  1  0  0  0  0
  6 11  1  0  0  0  0
  6  7  1  0  0  0  0
  6 31  1  0  0  0  0
  7  8  1  0  0  0  0
  7 23  1  0  0  0  0
  7 24  1  0  0  0  0
  8  9  1  0  0  0  0
  8 25  1  0  0  0  0
  8 26  1  0  0  0  0
  9 10  1  0  0  0  0
  9 11  1  0  0  0  0
  9 27  1  0  0  0  0
 10 28  1  0  0  0  0
 11 29  1  0  0  0  0
 11 30  1  0  0  0  0
 12 13  1  0  0  0  0
 12 16  2  0  0  0  0
 13 14  2  0  0  0  0
 13 15  1  0  0  0  0
M  CHG  1   6   1
M  CHG  1  15  -1
M  END
> <s_m_source_file>
AV-unprocessed.smi

> <i_m_source_file_index>
62

> <i_lp_mmshare_version>
43012

> <i_f3d_flags>
0

> <s_epik_input>
W0NIM11uMVtjSF1jKGMobjEpQyg9TylbT0hdKVtDSDJdTjJbQ0gyXVtDSDJdW0NAQEhdKFtPSF0pW0NIMl0y

> <s_epik_cmdline>
J2VwaWtfcHl0aG9uJywgJy1waCcsICc3LjAnLCAnLXRuJywgJzgnLCAnLW1hJywgJzIwMCcsICctbWV0YWxfYmluZGluZycsICctaW1hZScsICc8aW5maWxlLm1hZT4nLCAnLW9tYWUnLCAnPG91dGZpbGUubWFlPic=

> <r_epik_Ionization_Penalty>
0.0522993

> <r_epik_Ionization_Penalty_Charging>
0.0522915

> <r_epik_Ionization_Penalty_Neutral>
7.84975e-06

> <r_epik_State_Penalty>
0.0448084

> <r_epik_Charging_Adjusted_Penalty>
0.0970998

> <i_epik_Tot_Q>
0

> <i_epik_Tot_abs_Q>
2

> <r_epik_Metal_State_Penalty>
0.0448097

> <b_epik_Metal_Only>
0

> <s_lp_Force_Field>
OPLS_2005

> <r_lp_Energy>
19.3892

> <b_lp_Chiralities_Consistent>
1

> <s_lp_Variant>
AV-unprocessed.smi:62-2

> <Gold.Version>
5.8.1

> <Gold.Id.Protein>
6NUR|6NUR_protein|mol2

> <Gold.PLP.Fitness>
47.1764

> <Gold.PLP.PLP>
-29.8283

> <Gold.PLP.part.hbond>
-3.6174

> <Gold.PLP.part.metal>
0.0000

> <Gold.PLP.part.buried>
-3.2142

> <Gold.PLP.part.nonpolar>
-22.8040

> <Gold.PLP.part.repulsive>
0.2106

> <Gold.PLP.ligand.clash>
0.0000

> <Gold.PLP.ligand.torsion>
0.2068

> <Gold.PLP.Chemscore.Hbond>
5.0000

> <Gold.PLP.Chemscore.CHOScore>
0.9173

> <Gold.PLP.Chemscore.Metal>
0.0000

> <Gold.Chemscore.Hbonds>
donor molecule, donor type, donor heavy atom, donor atom, acceptor molecule, acceptor atom, score
      L1  H     6    31       P1  8028  2.00
      P1  H  7989  7998       L1    15  1.00
      P1  H  7997  8009       L1    14  1.90
      L1  C     3    20       P1  8028  0.93

> <Gold.PLP.Chemscore.Internal.Correction>
0.0099

> <Gold.Rescore>
     Score         DG    S(hbond)    S(metal)    S(lipo)     H(rot)  DE(clash)    DE(int)     intcor
     13.82     -15.27       2.62        0.00      48.54       1.81       0.05       1.39       ----

> <Gold.Chemscore.Fitness>
13.8233

> <Gold.Chemscore.DG>
-15.2663

> <Gold.Chemscore.ZeroCoef>
-5.4800

> <Gold.Chemscore.Hbond>
2.6165

> <Gold.Chemscore.Metal>
0.0000

> <Gold.Chemscore.Lipo>
48.5363

> <Gold.Chemscore.Internal_Hbond>
0.0000

> <Gold.Chemscore.DEClash>
0.0528

> <Gold.Chemscore.DEInternal>
1.3903

> <Gold.Chemscore.Rot>
1.8091

> <Gold.Chemscore.Internal.Correction>
   9.000000E+99

> <Gold.Chemscore.Hbonds>
donor molecule, donor type, donor heavy atom, donor atom, acceptor molecule, acceptor atom, score
      L1  H     6    31       P1  8028  0.99
      P1  H  7989  7998       L1    15  0.79
      P1  H  7997  8009       L1    14  0.21

> <Gold.Chemscore.Hbond.Weighted>
-8.7390

> <Gold.Chemscore.Metal.Weighted>
-0.0000

> <Gold.Chemscore.Lipo.Weighted>
-5.6787

> <Gold.Chemscore.Internal_Hbond.Weighted>
0.0000

> <Gold.Chemscore.DEClash.Weighted>
0.0528

> <Gold.Chemscore.DEInternal.Weighted>
1.3903

> <Gold.Chemscore.Rot.Weighted>
4.6314

> <Gold.Chemscore.Internal.Correction.Weighted>
   9.000000E+99

> <Gold.Protein.RotatedTorsions>
[ 6907 6896 6895 6894 ] final -158.67 input  -60.11 | X-H torsion
[ 7974 7965 7964 7962 ] final  -82.93 input  175.53 | X-H torsion
[ 8008 7997 7996 7995 ] final -173.85 input   59.86 | X-H torsion
[ 10167 10162 10161 10158 ] final  -99.87 input  -65.29 | X-H torsion
[ 10718 10713 10712 10709 ] final  127.36 input   66.30 | X-H torsion
[ 10763 10752 10751 10750 ] final -166.48 input  -60.55 | X-H torsion
[ 11005 11000 10999 10996 ] final   87.60 input  -57.11 | X-H torsion

> <Gold.Protein.ActiveResidues>
 VAL166  LYS551  ARG553  GLY616  TRP617  ASP618  TYR619  PRO620  LYS621  CYS622 
 ASP623  PHE694  ASN695  SER759  ASP760  ASP761  ALA762  ILE779  LEU786  VAL792 
 PHE793  MET794  SER795  GLU796  ALA797  LYS798  CYS799  TRP800  GLU811  SER814 

> <Gold.Protein.RotatedAtoms>
  151.3218  133.4037  159.2654 H   0  0  0  0  0  0  0  0  0  0  0  0  # atno 6907 bound_to 6896
  151.0028  134.9336  159.7974 H   0  0  0  0  0  0  0  0  0  0  0  0  # atno 6908 bound_to 6896
  152.5280  134.3183  159.9191 H   0  0  0  0  0  0  0  0  0  0  0  0  # atno 6909 bound_to 6896
  145.5268  140.9525  143.1625 H   0  0  0  0  0  0  0  0  0  0  0  0  # atno 7974 bound_to 7965
  155.9627  140.1147  157.0881 H   0  0  0  0  0  0  0  0  0  0  0  0  # atno 8008 bound_to 7997
  154.4136  140.1179  156.5268 H   0  0  0  0  0  0  0  0  0  0  0  0  # atno 8009 bound_to 7997
  155.6699  140.3473  155.4817 H   0  0  0  0  0  0  0  0  0  0  0  0  # atno 8010 bound_to 7997
  140.2579  143.3427  152.0653 H   0  0  0  0  0  0  0  0  0  0  0  0  # atno 10167 bound_to 10162
  157.5339  131.1098  150.8965 H   0  0  0  0  0  0  0  0  0  0  0  0  # atno 10718 bound_to 10713
  154.6829  135.2957  154.9588 H   0  0  0  0  0  0  0  0  0  0  0  0  # atno 10763 bound_to 10752
  154.0577  135.6636  153.4812 H   0  0  0  0  0  0  0  0  0  0  0  0  # atno 10764 bound_to 10752
  153.0559  135.5145  154.7881 H   0  0  0  0  0  0  0  0  0  0  0  0  # atno 10765 bound_to 10752
  139.8916  134.8433  156.2883 H   0  0  0  0  0  0  0  0  0  0  0  0  # atno 11005 bound_to 11000
  144.7647  139.6874  143.7220 LP  0  0  0  0  0  0  0  0  0  0  0  0  # atno 17320 bound_to 7965
  146.2070  139.5401  142.9706 LP  0  0  0  0  0  0  0  0  0  0  0  0  # atno 17321 bound_to 7965
  139.5026  144.6737  151.6180 LP  0  0  0  0  0  0  0  0  0  0  0  0  # atno 17342 bound_to 10162
  140.5989  143.9646  150.6373 LP  0  0  0  0  0  0  0  0  0  0  0  0  # atno 17343 bound_to 10162
  156.9538  130.5429  149.5283 LP  0  0  0  0  0  0  0  0  0  0  0  0  # atno 17370 bound_to 10713
  156.0444  130.5522  150.8846 LP  0  0  0  0  0  0  0  0  0  0  0  0  # atno 17371 bound_to 10713
  140.9993  133.7161  156.0935 LP  0  0  0  0  0  0  0  0  0  0  0  0  # atno 17394 bound_to 11000
  140.7519  134.4035  157.5540 LP  0  0  0  0  0  0  0  0  0  0  0  0  # atno 17395 bound_to 11000

$$$$
