AV-unprocessed.smi:63|AV-procd|sdf|607|dock6
  -GOLD-   2262016503D 1   1.00000     0.00000
 Structure written by MMmdl.
 29 30  0  0  0  0  0  0  0  0  1 V2000
  152.1584  138.5954  155.7111 C   0  0  0  0  0  0  0  0  0  0  0  0
  151.8696  139.8015  156.5800 C   0  0  0  0  0  0  0  0  0  0  0  0
  150.9438  140.7786  156.1706 C   0  0  0  0  0  0  0  0  0  0  0  0
  150.7358  141.8696  157.0315 C   0  0  0  0  0  0  0  0  0  0  0  0
  151.4668  141.9105  158.2409 C   0  0  0  0  0  0  0  0  0  0  0  0
  151.2981  142.9889  159.1354 N   0  0  0  0  0  0  0  0  0  0  0  0
  150.3994  144.0593  158.7151 C   0  0  0  0  0  0  0  0  0  0  0  0
  151.0101  145.3626  159.2366 C   0  0  0  0  0  0  0  0  0  0  0  0
  151.9171  144.9058  160.3739 C   0  0  0  0  0  0  0  0  0  0  0  0
  152.4260  143.5475  159.8801 C   0  0  1  0  0  0  0  0  0  0  0  0
  152.9090  142.6313  161.0226 C   0  0  0  0  0  0  0  0  0  0  0  0
  151.9887  142.6633  162.0925 O   0  0  0  0  0  0  0  0  0  0  0  0
  152.3429  140.9250  158.5645 N   0  0  0  0  0  0  0  0  0  0  0  0
  152.5442  139.8848  157.7487 N   0  0  0  0  0  0  0  0  0  0  0  0
  151.2275  138.1272  155.3903 H   0  0  0  0  0  0  0  0  0  0  0  0
  152.7465  137.8490  156.2470 H   0  0  0  0  0  0  0  0  0  0  0  0
  152.7155  138.8967  154.8237 H   0  0  0  0  0  0  0  0  0  0  0  0
  150.4133  140.6958  155.2335 H   0  0  0  0  0  0  0  0  0  0  0  0
  150.0315  142.6448  156.7677 H   0  0  0  0  0  0  0  0  0  0  0  0
  150.2705  144.0978  157.6326 H   0  0  0  0  0  0  0  0  0  0  0  0
  149.4214  143.8887  159.1664 H   0  0  0  0  0  0  0  0  0  0  0  0
  151.6120  145.8248  158.4531 H   0  0  0  0  0  0  0  0  0  0  0  0
  150.2585  146.0858  159.5542 H   0  0  0  0  0  0  0  0  0  0  0  0
  152.7228  145.6100  160.5824 H   0  0  0  0  0  0  0  0  0  0  0  0
  151.3287  144.7860  161.2850 H   0  0  0  0  0  0  0  0  0  0  0  0
  153.2444  143.7187  159.1786 H   0  0  0  0  0  0  0  0  0  0  0  0
  153.0226  141.6038  160.6756 H   0  0  0  0  0  0  0  0  0  0  0  0
  153.8788  142.9472  161.4056 H   0  0  0  0  0  0  0  0  0  0  0  0
  152.4090  143.0653  162.8373 H   0  0  0  0  0  0  0  0  0  0  0  0
  1  2  1  0  0  0  0
  1 15  1  0  0  0  0
  1 16  1  0  0  0  0
  1 17  1  0  0  0  0
  2 14  1  0  0  0  0
  2  3  2  0  0  0  0
  3  4  1  0  0  0  0
  3 18  1  0  0  0  0
  4  5  2  0  0  0  0
  4 19  1  0  0  0  0
  5  6  1  0  0  0  0
  5 13  1  0  0  0  0
  6 10  1  0  0  0  0
  6  7  1  0  0  0  0
  7  8  1  0  0  0  0
  7 20  1  0  0  0  0
  7 21  1  0  0  0  0
  8  9  1  0  0  0  0
  8 22  1  0  0  0  0
  8 23  1  0  0  0  0
  9 10  1  0  0  0  0
  9 24  1  0  0  0  0
  9 25  1  0  0  0  0
 10 11  1  0  0  0  0
 10 26  1  0  0  0  0
 11 12  1  0  0  0  0
 11 27  1  0  0  0  0
 11 28  1  0  0  0  0
 12 29  1  0  0  0  0
 13 14  2  0  0  0  0
M  END
> <s_m_source_file>
AV-unprocessed.smi

> <i_m_source_file_index>
63

> <i_lp_mmshare_version>
43012

> <i_f3d_flags>
0

> <s_epik_input>
W0NIM11jMVtjSF1bY0hdYyhubjEpTjJbQ0gyXVtDSDJdW0NIMl1bQ0BIXTJbQ0gyXVtPSF0=

> <s_epik_cmdline>
J2VwaWtfcHl0aG9uJywgJy1waCcsICc3LjAnLCAnLXRuJywgJzgnLCAnLW1hJywgJzIwMCcsICctbWV0YWxfYmluZGluZycsICctaW1hZScsICc8aW5maWxlLm1hZT4nLCAnLW9tYWUnLCAnPG91dGZpbGUubWFlPic=

> <r_lp_tautomer_probability>
1

> <r_epik_Ionization_Penalty>
4.30639e-05

> <r_epik_Ionization_Penalty_Charging>
0

> <r_epik_Ionization_Penalty_Neutral>
4.30639e-05

> <r_epik_State_Penalty>
-0

> <r_epik_Charging_Adjusted_Penalty>
0

> <i_epik_Tot_Q>
0

> <i_epik_Tot_abs_Q>
0

> <r_epik_Metal_State_Penalty>
-0

> <b_epik_Metal_Only>
0

> <s_lp_Force_Field>
OPLS_2005

> <r_lp_Energy>
32.9321

> <b_lp_Chiralities_Consistent>
1

> <s_lp_Variant>
AV-unprocessed.smi:63-1

> <Gold.Version>
5.8.1

> <Gold.Id.Protein>
6NUR|6NUR_protein|mol2

> <Gold.PLP.Fitness>
39.6513

> <Gold.PLP.PLP>
-34.5847

> <Gold.PLP.part.hbond>
-2.5692

> <Gold.PLP.part.metal>
0.0000

> <Gold.PLP.part.buried>
-4.6004

> <Gold.PLP.part.nonpolar>
-28.4152

> <Gold.PLP.part.repulsive>
0.0358

> <Gold.PLP.ligand.clash>
0.0000

> <Gold.PLP.ligand.torsion>
0.4309

> <Gold.PLP.Chemscore.Hbond>
1.8580

> <Gold.PLP.Chemscore.CHOScore>
0.0000

> <Gold.PLP.Chemscore.Metal>
0.0000

> <Gold.Chemscore.Hbonds>
donor molecule, donor type, donor heavy atom, donor atom, acceptor molecule, acceptor atom, score
      P1  H  6933  6945       L1    12  0.67
      P1  H  7997  8009       L1    14  0.55

> <Gold.PLP.Chemscore.Internal.Correction>
0.3545

> <Gold.Rescore>
     Score         DG    S(hbond)    S(metal)    S(lipo)     H(rot)  DE(clash)    DE(int)     intcor
     12.28     -13.67       0.86        0.00      83.07       1.71       0.13       1.27       ----

> <Gold.Chemscore.Fitness>
12.2775

> <Gold.Chemscore.DG>
-13.6723

> <Gold.Chemscore.ZeroCoef>
-5.4800

> <Gold.Chemscore.Hbond>
0.8565

> <Gold.Chemscore.Metal>
0.0000

> <Gold.Chemscore.Lipo>
83.0676

> <Gold.Chemscore.Internal_Hbond>
0.0000

> <Gold.Chemscore.DEClash>
0.1275

> <Gold.Chemscore.DEInternal>
1.2673

> <Gold.Chemscore.Rot>
1.7138

> <Gold.Chemscore.Internal.Correction>
   9.000000E+99

> <Gold.Chemscore.Hbonds>
donor molecule, donor type, donor heavy atom, donor atom, acceptor molecule, acceptor atom, score
      P1  H  6933  6945       L1    12  0.64
      P1  H  7997  8009       L1    14  0.04

> <Gold.Chemscore.Hbond.Weighted>
-2.8606

> <Gold.Chemscore.Metal.Weighted>
-0.0000

> <Gold.Chemscore.Lipo.Weighted>
-9.7189

> <Gold.Chemscore.Internal_Hbond.Weighted>
0.0000

> <Gold.Chemscore.DEClash.Weighted>
0.1275

> <Gold.Chemscore.DEInternal.Weighted>
1.2673

> <Gold.Chemscore.Rot.Weighted>
4.3872

> <Gold.Chemscore.Internal.Correction.Weighted>
   9.000000E+99

> <Gold.Protein.RotatedTorsions>
[ 6907 6896 6895 6894 ] final  112.27 input  -60.11 | X-H torsion
[ 7974 7965 7964 7962 ] final -117.45 input  175.53 | X-H torsion
[ 8008 7997 7996 7995 ] final  170.80 input   59.86 | X-H torsion
[ 10167 10162 10161 10158 ] final   45.63 input  -65.29 | X-H torsion
[ 10718 10713 10712 10709 ] final   30.58 input   66.30 | X-H torsion
[ 10763 10752 10751 10750 ] final -167.49 input  -60.55 | X-H torsion
[ 11005 11000 10999 10996 ] final  128.94 input  -57.11 | X-H torsion

> <Gold.Protein.ActiveResidues>
 VAL166  LYS551  ARG553  GLY616  TRP617  ASP618  TYR619  PRO620  LYS621  CYS622 
 ASP623  PHE694  ASN695  SER759  ASP760  ASP761  ALA762  ILE779  LEU786  VAL792 
 PHE793  MET794  SER795  GLU796  ALA797  LYS798  CYS799  TRP800  GLU811  SER814 

> <Gold.Protein.RotatedAtoms>
  152.4925  133.8540  159.7215 H   0  0  0  0  0  0  0  0  0  0  0  0  # atno 6907 bound_to 6896
  150.9069  133.7037  159.2871 H   0  0  0  0  0  0  0  0  0  0  0  0  # atno 6908 bound_to 6896
  151.4459  135.1029  159.9736 H   0  0  0  0  0  0  0  0  0  0  0  0  # atno 6909 bound_to 6896
  145.0850  140.8452  143.4016 H   0  0  0  0  0  0  0  0  0  0  0  0  # atno 7974 bound_to 7965
  156.1331  140.1528  156.9035 H   0  0  0  0  0  0  0  0  0  0  0  0  # atno 8008 bound_to 7997
  154.4925  140.0847  156.7665 H   0  0  0  0  0  0  0  0  0  0  0  0  # atno 8009 bound_to 7997
  155.4219  140.3423  155.4274 H   0  0  0  0  0  0  0  0  0  0  0  0  # atno 8010 bound_to 7997
  140.3222  144.2691  150.6181 H   0  0  0  0  0  0  0  0  0  0  0  0  # atno 10167 bound_to 10162
  157.2614  130.7163  149.6456 H   0  0  0  0  0  0  0  0  0  0  0  0  # atno 10718 bound_to 10713
  154.6727  135.2942  154.9720 H   0  0  0  0  0  0  0  0  0  0  0  0  # atno 10763 bound_to 10752
  154.0742  135.6614  153.4832 H   0  0  0  0  0  0  0  0  0  0  0  0  # atno 10764 bound_to 10752
  153.0497  135.5182  154.7731 H   0  0  0  0  0  0  0  0  0  0  0  0  # atno 10765 bound_to 10752
  139.9588  134.9607  156.9076 H   0  0  0  0  0  0  0  0  0  0  0  0  # atno 11005 bound_to 11000
  145.1132  139.2743  143.5626 LP  0  0  0  0  0  0  0  0  0  0  0  0  # atno 17320 bound_to 7965
  146.3531  140.0735  142.8622 LP  0  0  0  0  0  0  0  0  0  0  0  0  # atno 17321 bound_to 7965
  140.5473  143.2212  151.7985 LP  0  0  0  0  0  0  0  0  0  0  0  0  # atno 17342 bound_to 10162
  139.4872  144.4522  151.9640 LP  0  0  0  0  0  0  0  0  0  0  0  0  # atno 17343 bound_to 10162
  155.9664  130.4396  150.5266 LP  0  0  0  0  0  0  0  0  0  0  0  0  # atno 17370 bound_to 10713
  157.3171  131.0675  151.1959 LP  0  0  0  0  0  0  0  0  0  0  0  0  # atno 17371 bound_to 10713
  140.5547  134.0593  155.7380 LP  0  0  0  0  0  0  0  0  0  0  0  0  # atno 17394 bound_to 11000
  141.1263  133.9377  157.2628 LP  0  0  0  0  0  0  0  0  0  0  0  0  # atno 17395 bound_to 11000

$$$$
