AV-unprocessed.smi:1211|AV-procd|sdf|5081|dock6
  -GOLD-   22720 4133D 1   1.00000     0.00000
 Structure written by MMmdl.
 48 50  0  0  0  0  0  0  0  0  2 V2000
  145.2795  135.6807  151.3406 C   0  0  0  0  0  0  0  0  0  0  0  0
  145.3186  134.1819  151.0880 C   0  0  0  0  0  0  0  0  0  0  0  0
  144.2320  133.5634  150.4335 C   0  0  0  0  0  0  0  0  0  0  0  0
  144.2692  132.1778  150.2019 C   0  0  0  0  0  0  0  0  0  0  0  0
  145.3990  131.4643  150.6370 C   0  0  0  0  0  0  0  0  0  0  0  0
  146.4420  132.0472  151.2625 N   0  0  0  0  0  0  0  0  0  0  0  0
  146.4209  133.3836  151.4959 C   0  0  0  0  0  0  0  0  0  0  0  0
  147.4858  134.0656  152.1497 N   0  0  0  0  0  0  0  0  0  0  0  0
  148.0883  133.7552  153.3110 C   0  0  0  0  0  0  0  0  0  0  0  0
  147.7917  132.8076  154.0384 O   0  0  0  0  0  0  0  0  0  0  0  0
  149.0754  134.6187  153.5902 N   0  0  0  0  0  0  0  0  0  0  0  0
  149.9212  134.5817  154.7831 C   0  0  0  0  0  0  0  0  0  0  0  0
  149.6535  135.7591  155.7754 C   0  0  2  0  0  0  0  0  0  0  0  0
  150.0232  137.0571  155.0979 N   0  3  0  0  0  0  0  0  0  0  0  0
  149.5343  138.2771  155.8005 C   0  0  0  0  0  0  0  0  0  0  0  0
  149.7840  139.5345  154.9550 C   0  0  0  0  0  0  0  0  0  0  0  0
  151.1744  139.6501  154.6937 O   0  0  0  0  0  0  0  0  0  0  0  0
  151.6525  138.5513  153.9322 C   0  0  0  0  0  0  0  0  0  0  0  0
  151.4493  137.2352  154.7044 C   0  0  0  0  0  0  0  0  0  0  0  0
  150.4192  135.5184  157.1074 C   0  0  0  0  0  0  0  0  0  0  0  0
  149.7601  134.3491  157.8447 C   0  0  0  0  0  0  0  0  0  0  0  0
  147.9867  134.4427  157.4973 S   0  0  0  0  0  0  0  0  0  0  0  0
  148.1751  135.7275  156.2296 C   0  0  0  0  0  0  0  0  0  0  0  0
  144.3614  136.1249  150.9548 H   0  0  0  0  0  0  0  0  0  0  0  0
  146.1207  136.1726  150.8516 H   0  0  0  0  0  0  0  0  0  0  0  0
  145.3283  135.8887  152.4100 H   0  0  0  0  0  0  0  0  0  0  0  0
  143.3779  134.1413  150.1118 H   0  0  0  0  0  0  0  0  0  0  0  0
  143.4533  131.6748  149.7044 H   0  0  0  0  0  0  0  0  0  0  0  0
  145.4681  130.3980  150.4792 H   0  0  0  0  0  0  0  0  0  0  0  0
  147.8281  134.8854  151.6715 H   0  0  0  0  0  0  0  0  0  0  0  0
  149.2343  135.3778  152.9440 H   0  0  0  0  0  0  0  0  0  0  0  0
  149.7283  133.6268  155.2700 H   0  0  0  0  0  0  0  0  0  0  0  0
  150.9710  134.5190  154.4970 H   0  0  0  0  0  0  0  0  0  0  0  0
  148.4688  138.2080  156.0115 H   0  0  0  0  0  0  0  0  0  0  0  0
  150.0427  138.3888  156.7589 H   0  0  0  0  0  0  0  0  0  0  0  0
  149.2199  139.4997  154.0214 H   0  0  0  0  0  0  0  0  0  0  0  0
  149.4526  140.4220  155.4948 H   0  0  0  0  0  0  0  0  0  0  0  0
  151.1432  138.5164  152.9677 H   0  0  0  0  0  0  0  0  0  0  0  0
  152.7119  138.7022  153.7237 H   0  0  0  0  0  0  0  0  0  0  0  0
  152.0867  137.2154  155.5892 H   0  0  0  0  0  0  0  0  0  0  0  0
  151.7743  136.4350  154.0412 H   0  0  0  0  0  0  0  0  0  0  0  0
  151.4886  135.3650  156.9679 H   0  0  0  0  0  0  0  0  0  0  0  0
  150.3110  136.3691  157.7790 H   0  0  0  0  0  0  0  0  0  0  0  0
  150.1430  133.3939  157.4853 H   0  0  0  0  0  0  0  0  0  0  0  0
  149.9460  134.3898  158.9181 H   0  0  0  0  0  0  0  0  0  0  0  0
  147.8958  136.6745  156.6921 H   0  0  0  0  0  0  0  0  0  0  0  0
  147.4810  135.5513  155.4072 H   0  0  0  0  0  0  0  0  0  0  0  0
  149.5247  137.0311  154.2200 H   0  0  0  0  0  0  0  0  0  0  0  0
  1  2  1  0  0  0  0
  1 24  1  0  0  0  0
  1 25  1  0  0  0  0
  1 26  1  0  0  0  0
  2  7  1  0  0  0  0
  2  3  2  0  0  0  0
  3  4  1  0  0  0  0
  3 27  1  0  0  0  0
  4  5  2  0  0  0  0
  4 28  1  0  0  0  0
  5  6  1  0  0  0  0
  5 29  1  0  0  0  0
  6  7  2  0  0  0  0
  7  8  1  0  0  0  0
  8  9  1  0  0  0  0
  8 30  1  0  0  0  0
  9 10  2  0  0  0  0
  9 11  1  0  0  0  0
 11 12  1  0  0  0  0
 11 31  1  0  0  0  0
 12 13  1  0  0  0  0
 12 32  1  0  0  0  0
 12 33  1  0  0  0  0
 13 23  1  0  0  0  0
 13 14  1  0  0  0  0
 13 20  1  0  0  0  0
 14 19  1  0  0  0  0
 14 15  1  0  0  0  0
 14 48  1  0  0  0  0
 15 16  1  0  0  0  0
 15 34  1  0  0  0  0
 15 35  1  0  0  0  0
 16 17  1  0  0  0  0
 16 36  1  0  0  0  0
 16 37  1  0  0  0  0
 17 18  1  0  0  0  0
 18 19  1  0  0  0  0
 18 38  1  0  0  0  0
 18 39  1  0  0  0  0
 19 40  1  0  0  0  0
 19 41  1  0  0  0  0
 20 21  1  0  0  0  0
 20 42  1  0  0  0  0
 20 43  1  0  0  0  0
 21 22  1  0  0  0  0
 21 44  1  0  0  0  0
 21 45  1  0  0  0  0
 22 23  1  0  0  0  0
 23 46  1  0  0  0  0
 23 47  1  0  0  0  0
M  CHG  1  14   1
M  END
> <s_m_source_file>
AV-unprocessed.smi

> <i_m_source_file_index>
1211

> <i_lp_mmshare_version>
43012

> <i_f3d_flags>
0

> <s_epik_input>
W0NIM11jMVtjSF1bY0hdW2NIXW5jMVtOSF1DKD1PKVtOSF1bQ0gyXVtDQF0yKFtDSDJdW0NIMl1TW0NIMl0yKU4zW0NIMl1bQ0gyXU9bQ0gyXVtDSDJdMw==

> <s_epik_cmdline>
J2VwaWtfcHl0aG9uJywgJy1waCcsICc3LjAnLCAnLXRuJywgJzgnLCAnLW1hJywgJzIwMCcsICctbWV0YWxfYmluZGluZycsICctaW1hZScsICc8aW5maWxlLm1hZT4nLCAnLW9tYWUnLCAnPG91dGZpbGUubWFlPic=

> <r_epik_Ionization_Penalty>
2.03223

> <r_epik_Ionization_Penalty_Charging>
2.03219

> <r_epik_Ionization_Penalty_Neutral>
4.05816e-05

> <r_epik_State_Penalty>
2.16328

> <r_epik_Charging_Adjusted_Penalty>
4.19546

> <i_epik_Tot_Q>
1

> <i_epik_Tot_abs_Q>
1

> <r_epik_Metal_State_Penalty>
2.16328

> <b_epik_Metal_Only>
0

> <s_lp_Force_Field>
OPLS_2005

> <r_lp_Energy>
45.9337

> <b_lp_Chiralities_Consistent>
1

> <s_lp_Variant>
AV-unprocessed.smi:1211-4

> <Gold.Version>
5.8.1

> <Gold.Id.Protein>
6NUR|6NUR_protein|mol2

> <Gold.PLP.Fitness>
41.1798

> <Gold.PLP.PLP>
-33.3238

> <Gold.PLP.part.hbond>
-3.0000

> <Gold.PLP.part.metal>
0.0000

> <Gold.PLP.part.buried>
-7.1759

> <Gold.PLP.part.nonpolar>
-23.7288

> <Gold.PLP.part.repulsive>
0.2545

> <Gold.PLP.ligand.clash>
0.0000

> <Gold.PLP.ligand.torsion>
0.6441

> <Gold.PLP.Chemscore.Hbond>
3.0000

> <Gold.PLP.Chemscore.CHOScore>
0.0000

> <Gold.PLP.Chemscore.Metal>
0.0000

> <Gold.Chemscore.Hbonds>
donor molecule, donor type, donor heavy atom, donor atom, acceptor molecule, acceptor atom, score
      L1  H     8    30       P1  7948  0.85
      L1  H    11    31       P1  7948  0.41
      P1  H  7989  7998       L1    17  0.70

> <Gold.PLP.Chemscore.Internal.Correction>
0.1442

> <Gold.Rescore>
     Score         DG    S(hbond)    S(metal)    S(lipo)     H(rot)  DE(clash)    DE(int)     intcor
     15.50     -17.21       1.94        0.00      77.24       1.48       0.80       0.91       ----

> <Gold.Chemscore.Fitness>
15.5039

> <Gold.Chemscore.DG>
-17.2109

> <Gold.Chemscore.ZeroCoef>
-5.4800

> <Gold.Chemscore.Hbond>
1.9423

> <Gold.Chemscore.Metal>
0.0000

> <Gold.Chemscore.Lipo>
77.2447

> <Gold.Chemscore.Internal_Hbond>
0.0000

> <Gold.Chemscore.DEClash>
0.7991

> <Gold.Chemscore.DEInternal>
0.9079

> <Gold.Chemscore.Rot>
1.4820

> <Gold.Chemscore.Internal.Correction>
   9.000000E+99

> <Gold.Chemscore.Hbonds>
donor molecule, donor type, donor heavy atom, donor atom, acceptor molecule, acceptor atom, score
      L1  H     8    30       P1  7948  0.25
      L1  H    11    31       P1  7948  0.04
      L1  H    14    48       P1  7948  0.01
      P1  H  7989  7998       L1    17  0.07

> <Gold.Chemscore.Hbond.Weighted>
-6.4872

> <Gold.Chemscore.Metal.Weighted>
-0.0000

> <Gold.Chemscore.Lipo.Weighted>
-9.0376

> <Gold.Chemscore.Internal_Hbond.Weighted>
0.0000

> <Gold.Chemscore.DEClash.Weighted>
0.7991

> <Gold.Chemscore.DEInternal.Weighted>
0.9079

> <Gold.Chemscore.Rot.Weighted>
3.7939

> <Gold.Chemscore.Internal.Correction.Weighted>
   9.000000E+99

> <Gold.Protein.RotatedTorsions>
[ 6907 6896 6895 6894 ] final -134.52 input  -60.11 | X-H torsion
[ 7974 7965 7964 7962 ] final   91.48 input  175.53 | X-H torsion
[ 8008 7997 7996 7995 ] final    1.20 input   59.86 | X-H torsion
[ 10167 10162 10161 10158 ] final -111.34 input  -65.29 | X-H torsion
[ 10718 10713 10712 10709 ] final   78.60 input   66.30 | X-H torsion
[ 10763 10752 10751 10750 ] final  163.41 input  -60.55 | X-H torsion
[ 11005 11000 10999 10996 ] final  -89.91 input  -57.11 | X-H torsion

> <Gold.Protein.ActiveResidues>
 VAL166  LYS551  ARG553  GLY616  TRP617  ASP618  TYR619  PRO620  LYS621  CYS622 
 ASP623  PHE694  ASN695  SER759  ASP760  ASP761  ALA762  ILE779  LEU786  VAL792 
 PHE793  MET794  SER795  GLU796  ALA797  LYS798  CYS799  TRP800  GLU811  SER814 

> <Gold.Protein.RotatedAtoms>
  150.9868  133.6189  159.2713 H   0  0  0  0  0  0  0  0  0  0  0  0  # atno 6907 bound_to 6896
  151.3424  135.0865  159.9385 H   0  0  0  0  0  0  0  0  0  0  0  0  # atno 6908 bound_to 6896
  152.5233  133.9477  159.7711 H   0  0  0  0  0  0  0  0  0  0  0  0  # atno 6909 bound_to 6896
  145.5051  139.2276  143.2755 H   0  0  0  0  0  0  0  0  0  0  0  0  # atno 7974 bound_to 7965
  154.6769  140.2624  155.6948 H   0  0  0  0  0  0  0  0  0  0  0  0  # atno 8008 bound_to 7997
  156.2681  140.2818  156.1221 H   0  0  0  0  0  0  0  0  0  0  0  0  # atno 8009 bound_to 7997
  155.1087  140.0375  157.2708 H   0  0  0  0  0  0  0  0  0  0  0  0  # atno 8010 bound_to 7997
  140.1346  143.4331  152.1604 H   0  0  0  0  0  0  0  0  0  0  0  0  # atno 10167 bound_to 10162
  157.6750  130.9875  150.1810 H   0  0  0  0  0  0  0  0  0  0  0  0  # atno 10718 bound_to 10713
  154.2932  135.2760  155.2645 H   0  0  0  0  0  0  0  0  0  0  0  0  # atno 10763 bound_to 10752
  154.5114  135.5781  153.6612 H   0  0  0  0  0  0  0  0  0  0  0  0  # atno 10764 bound_to 10752
  152.9911  135.6182  154.3098 H   0  0  0  0  0  0  0  0  0  0  0  0  # atno 10765 bound_to 10752
  141.1576  133.7659  156.9662 H   0  0  0  0  0  0  0  0  0  0  0  0  # atno 11005 bound_to 11000
  146.2202  140.5854  142.9021 LP  0  0  0  0  0  0  0  0  0  0  0  0  # atno 17320 bound_to 7965
  144.7758  140.5736  143.6639 LP  0  0  0  0  0  0  0  0  0  0  0  0  # atno 17321 bound_to 7965
  139.5502  144.7331  151.4458 LP  0  0  0  0  0  0  0  0  0  0  0  0  # atno 17342 bound_to 10162
  140.6796  143.8111  150.7104 LP  0  0  0  0  0  0  0  0  0  0  0  0  # atno 17343 bound_to 10162
  156.2542  130.3704  149.8199 LP  0  0  0  0  0  0  0  0  0  0  0  0  # atno 17370 bound_to 10713
  156.5963  130.8528  151.3421 LP  0  0  0  0  0  0  0  0  0  0  0  0  # atno 17371 bound_to 10713
  140.1159  134.9447  157.2134 LP  0  0  0  0  0  0  0  0  0  0  0  0  # atno 17394 bound_to 11000
  140.3133  134.2999  155.7262 LP  0  0  0  0  0  0  0  0  0  0  0  0  # atno 17395 bound_to 11000

$$$$
