AV-unprocessed.smi:2786|AV-procd|sdf|10751|dock9
  -GOLD-   2272015183D 1   1.00000     0.00000
 Structure written by MMmdl.
 28 29  0  0  0  0  0  0  0  0  3 V2000
  153.1149  142.1754  159.1796 C   0  0  0  0  0  0  0  0  0  0  0  0
  152.2443  143.3002  158.8313 N   0  0  0  0  0  0  0  0  0  0  0  0
  152.2134  144.5264  159.4450 C   0  0  0  0  0  0  0  0  0  0  0  0
  151.2506  145.2620  158.8054 C   0  0  0  0  0  0  0  0  0  0  0  0
  150.7353  144.4555  157.8275 N   0  3  0  0  0  0  0  0  0  0  0  0
  151.3437  143.2620  157.8343 C   0  0  0  0  0  0  0  0  0  0  0  0
  151.0396  142.1125  156.9164 C   0  0  1  0  0  0  0  0  0  0  0  0
  150.8768  140.7921  157.7040 C   0  0  0  0  0  0  0  0  0  0  0  0
  150.6203  139.6648  156.7836 N   0  3  0  0  0  0  0  0  0  0  0  0
  149.4528  139.9359  155.9219 C   0  0  0  0  0  0  0  0  0  0  0  0
  149.6553  141.2611  155.1657 C   0  0  0  0  0  0  0  0  0  0  0  0
  149.8375  142.3535  156.1174 N   0  0  0  0  0  0  0  0  0  0  0  0
  153.6794  142.4160  160.0813 H   0  0  0  0  0  0  0  0  0  0  0  0
  153.8084  141.9893  158.3590 H   0  0  0  0  0  0  0  0  0  0  0  0
  152.5084  141.2879  159.3627 H   0  0  0  0  0  0  0  0  0  0  0  0
  152.8609  144.7793  160.2727 H   0  0  0  0  0  0  0  0  0  0  0  0
  150.9024  146.2715  158.9692 H   0  0  0  0  0  0  0  0  0  0  0  0
  151.8886  142.0360  156.2360 H   0  0  0  0  0  0  0  0  0  0  0  0
  151.7787  140.5743  158.2766 H   0  0  0  0  0  0  0  0  0  0  0  0
  150.0563  140.8677  158.4194 H   0  0  0  0  0  0  0  0  0  0  0  0
  151.4309  139.5310  156.1961 H   0  0  0  0  0  0  0  0  0  0  0  0
  149.3301  139.1122  155.2184 H   0  0  0  0  0  0  0  0  0  0  0  0
  148.5487  139.9742  156.5315 H   0  0  0  0  0  0  0  0  0  0  0  0
  150.5156  141.2008  154.4975 H   0  0  0  0  0  0  0  0  0  0  0  0
  148.7838  141.4745  154.5461 H   0  0  0  0  0  0  0  0  0  0  0  0
  149.9321  143.2246  155.6131 H   0  0  0  0  0  0  0  0  0  0  0  0
  150.4563  138.8227  157.3169 H   0  0  0  0  0  0  0  0  0  0  0  0
  150.0012  144.7226  157.1832 H   0  0  0  0  0  0  0  0  0  0  0  0
  1  2  1  0  0  0  0
  1 13  1  0  0  0  0
  1 14  1  0  0  0  0
  1 15  1  0  0  0  0
  2  6  1  0  0  0  0
  2  3  1  0  0  0  0
  3  4  2  0  0  0  0
  3 16  1  0  0  0  0
  4  5  1  0  0  0  0
  4 17  1  0  0  0  0
  5  6  2  0  0  0  0
  5 28  1  0  0  0  0
  6  7  1  0  0  0  0
  7 12  1  0  0  0  0
  7  8  1  0  0  0  0
  7 18  1  0  0  0  0
  8  9  1  0  0  0  0
  8 19  1  0  0  0  0
  8 20  1  0  0  0  0
  9 10  1  0  0  0  0
  9 21  1  0  0  0  0
  9 27  1  0  0  0  0
 10 11  1  0  0  0  0
 10 22  1  0  0  0  0
 10 23  1  0  0  0  0
 11 12  1  0  0  0  0
 11 24  1  0  0  0  0
 11 25  1  0  0  0  0
 12 26  1  0  0  0  0
M  CHG  1   5   1
M  CHG  1   9   1
M  END
> <s_m_source_file>
AV-unprocessed.smi

> <i_m_source_file_index>
2786

> <i_lp_mmshare_version>
43012

> <i_f3d_flags>
0

> <s_epik_input>
W0NIM11uMVtjSF1bY0hdbmMxW0NAQEhdMltDSDJdW05IXVtDSDJdW0NIMl1bTkhdMg==

> <s_epik_cmdline>
J2VwaWtfcHl0aG9uJywgJy1waCcsICc3LjAnLCAnLXRuJywgJzgnLCAnLW1hJywgJzIwMCcsICctbWV0YWxfYmluZGluZycsICctaW1hZScsICc8aW5maWxlLm1hZT4nLCAnLW9tYWUnLCAnPG91dGZpbGUubWFlPic=

> <r_lp_tautomer_probability>
1

> <r_epik_Ionization_Penalty>
1.19986

> <r_epik_Ionization_Penalty_Charging>
0.069211

> <r_epik_Ionization_Penalty_Neutral>
1.13065

> <r_epik_State_Penalty>
0.776615

> <r_epik_Charging_Adjusted_Penalty>
0.845826

> <i_epik_Tot_Q>
2

> <i_epik_Tot_abs_Q>
2

> <r_epik_Metal_State_Penalty>
4.73559

> <b_epik_Metal_Only>
0

> <s_lp_Force_Field>
OPLS_2005

> <r_lp_Energy>
18.3539

> <b_lp_Chiralities_Consistent>
1

> <s_lp_Variant>
AV-unprocessed.smi:2786-4

> <Gold.Version>
5.8.1

> <Gold.Id.Protein>
6NUR|6NUR_protein|mol2

> <Gold.PLP.Fitness>
36.2284

> <Gold.PLP.PLP>
-28.9400

> <Gold.PLP.part.hbond>
-2.3019

> <Gold.PLP.part.metal>
0.0000

> <Gold.PLP.part.buried>
-4.1901

> <Gold.PLP.part.nonpolar>
-23.0739

> <Gold.PLP.part.repulsive>
0.1049

> <Gold.PLP.ligand.clash>
0.0000

> <Gold.PLP.ligand.torsion>
0.2250

> <Gold.PLP.Chemscore.Hbond>
2.5760

> <Gold.PLP.Chemscore.CHOScore>
0.0000

> <Gold.PLP.Chemscore.Metal>
0.0000

> <Gold.Chemscore.Hbonds>
donor molecule, donor type, donor heavy atom, donor atom, acceptor molecule, acceptor atom, score
      L1  H     5    28       P1  8028  1.90
      L1  H    12    26       P1  8028  0.61

> <Gold.PLP.Chemscore.Internal.Correction>
0.0103

> <Gold.Rescore>
     Score         DG    S(hbond)    S(metal)    S(lipo)     H(rot)  DE(clash)    DE(int)     intcor
     13.09     -13.19       1.04        0.00      58.03       1.00       0.03       0.06       ----

> <Gold.Chemscore.Fitness>
13.0937

> <Gold.Chemscore.DG>
-13.1857

> <Gold.Chemscore.ZeroCoef>
-5.4800

> <Gold.Chemscore.Hbond>
1.0408

> <Gold.Chemscore.Metal>
0.0000

> <Gold.Chemscore.Lipo>
58.0305

> <Gold.Chemscore.Internal_Hbond>
0.0000

> <Gold.Chemscore.DEClash>
0.0331

> <Gold.Chemscore.DEInternal>
0.0589

> <Gold.Chemscore.Rot>
1.0000

> <Gold.Chemscore.Internal.Correction>
   9.000000E+99

> <Gold.Chemscore.Hbonds>
donor molecule, donor type, donor heavy atom, donor atom, acceptor molecule, acceptor atom, score
      L1  H     5    28       P1  8028  0.22
      L1  H    12    26       P1  8028  0.62

> <Gold.Chemscore.Hbond.Weighted>
-3.4761

> <Gold.Chemscore.Metal.Weighted>
-0.0000

> <Gold.Chemscore.Lipo.Weighted>
-6.7896

> <Gold.Chemscore.Internal_Hbond.Weighted>
0.0000

> <Gold.Chemscore.DEClash.Weighted>
0.0331

> <Gold.Chemscore.DEInternal.Weighted>
0.0589

> <Gold.Chemscore.Rot.Weighted>
2.5600

> <Gold.Chemscore.Internal.Correction.Weighted>
   9.000000E+99

> <Gold.Protein.RotatedTorsions>
[ 6907 6896 6895 6894 ] final   14.29 input  -60.11 | X-H torsion
[ 7974 7965 7964 7962 ] final   80.82 input  175.53 | X-H torsion
[ 8008 7997 7996 7995 ] final -175.47 input   59.86 | X-H torsion
[ 10167 10162 10161 10158 ] final -106.21 input  -65.29 | X-H torsion
[ 10718 10713 10712 10709 ] final  -64.27 input   66.30 | X-H torsion
[ 10763 10752 10751 10750 ] final   -0.39 input  -60.55 | X-H torsion
[ 11005 11000 10999 10996 ] final   58.06 input  -57.11 | X-H torsion

> <Gold.Protein.ActiveResidues>
 VAL166  LYS551  ARG553  GLY616  TRP617  ASP618  TYR619  PRO620  LYS621  CYS622 
 ASP623  PHE694  ASN695  SER759  ASP760  ASP761  ALA762  ILE779  LEU786  VAL792 
 PHE793  MET794  SER795  GLU796  ALA797  LYS798  CYS799  TRP800  GLU811  SER814 

> <Gold.Protein.RotatedAtoms>
  151.7999  135.0712  160.0398 H   0  0  0  0  0  0  0  0  0  0  0  0  # atno 6907 bound_to 6896
  152.3096  133.5735  159.5680 H   0  0  0  0  0  0  0  0  0  0  0  0  # atno 6908 bound_to 6896
  150.7313  134.0087  159.3704 H   0  0  0  0  0  0  0  0  0  0  0  0  # atno 6909 bound_to 6896
  145.6463  139.2437  143.2002 H   0  0  0  0  0  0  0  0  0  0  0  0  # atno 7974 bound_to 7965
  155.9829  140.1185  157.0709 H   0  0  0  0  0  0  0  0  0  0  0  0  # atno 8008 bound_to 7997
  154.4188  140.1141  156.5528 H   0  0  0  0  0  0  0  0  0  0  0  0  # atno 8009 bound_to 7997
  155.6446  140.3473  155.4729 H   0  0  0  0  0  0  0  0  0  0  0  0  # atno 8010 bound_to 7997
  140.1902  143.3898  152.1213 H   0  0  0  0  0  0  0  0  0  0  0  0  # atno 10167 bound_to 10162
  156.0739  130.4231  150.1396 H   0  0  0  0  0  0  0  0  0  0  0  0  # atno 10718 bound_to 10713
  153.3313  135.6975  153.6945 H   0  0  0  0  0  0  0  0  0  0  0  0  # atno 10763 bound_to 10752
  153.5746  135.3509  155.2852 H   0  0  0  0  0  0  0  0  0  0  0  0  # atno 10764 bound_to 10752
  154.8618  135.4280  154.2503 H   0  0  0  0  0  0  0  0  0  0  0  0  # atno 10765 bound_to 10752
  140.0406  134.5880  155.9387 H   0  0  0  0  0  0  0  0  0  0  0  0  # atno 11005 bound_to 11000
  146.1240  140.7272  142.9444 LP  0  0  0  0  0  0  0  0  0  0  0  0  # atno 17320 bound_to 7965
  144.7139  140.4139  143.7059 LP  0  0  0  0  0  0  0  0  0  0  0  0  # atno 17321 bound_to 7965
  139.5259  144.7101  151.5231 LP  0  0  0  0  0  0  0  0  0  0  0  0  # atno 17342 bound_to 10162
  140.6461  143.8791  150.6739 LP  0  0  0  0  0  0  0  0  0  0  0  0  # atno 17343 bound_to 10162
  156.9441  130.9754  151.3511 LP  0  0  0  0  0  0  0  0  0  0  0  0  # atno 17370 bound_to 10713
  157.5825  130.8386  149.8543 LP  0  0  0  0  0  0  0  0  0  0  0  0  # atno 17371 bound_to 10713
  141.1881  133.6561  156.5308 LP  0  0  0  0  0  0  0  0  0  0  0  0  # atno 17394 bound_to 11000
  140.4076  134.7301  157.4817 LP  0  0  0  0  0  0  0  0  0  0  0  0  # atno 17395 bound_to 11000

$$$$
