AV-unprocessed.smi:2031|AV-procd|sdf|8230|dock6
  -GOLD-   2272010503D 1   1.00000     0.00000
 Structure written by MMmdl.
 41 42  0  0  0  0  0  0  0  0  3 V2000
  152.8854  142.2436  161.0896 C   0  0  0  0  0  0  0  0  0  0  0  0
  152.6962  141.4645  159.8337 C   0  0  0  0  0  0  0  0  0  0  0  0
  151.8356  141.5917  158.7800 C   0  0  0  0  0  0  0  0  0  0  0  0
  152.2049  140.5142  157.9313 C   0  0  0  0  0  0  0  0  0  0  0  0
  151.5278  140.2967  156.7020 N   0  0  0  0  0  0  0  0  0  0  0  0
  151.9801  139.6991  155.5844 C   0  0  0  0  0  0  0  0  0  0  0  0
  153.1323  139.2520  155.5382 O   0  0  0  0  0  0  0  0  0  0  0  0
  151.0403  139.6718  154.5995 N   0  5  0  0  0  0  0  0  0  0  0  0
  150.1191  138.5643  154.3496 C   0  0  0  0  0  0  0  0  0  0  0  0
  148.6668  139.0766  154.3903 C   0  0  0  0  0  0  0  0  0  0  0  0
  147.7145  138.0595  153.8593 N   0  3  0  0  0  0  0  0  0  0  0  0
  146.5894  138.6262  153.0673 C   0  0  0  0  0  0  0  0  0  0  0  0
  146.3819  137.8141  151.7774 C   0  0  0  0  0  0  0  0  0  0  0  0
  145.6837  136.4600  151.9747 C   0  0  0  0  0  0  0  0  0  0  0  0
  146.3648  135.5349  152.9968 C   0  0  0  0  0  0  0  0  0  0  0  0
  146.2223  136.0541  154.4366 C   0  0  0  0  0  0  0  0  0  0  0  0
  147.3049  137.0558  154.8856 C   0  0  0  0  0  0  0  0  0  0  0  0
  153.2011  139.7936  158.4249 N   0  0  0  0  0  0  0  0  0  0  0  0
  153.5209  140.3990  159.6459 O   0  0  0  0  0  0  0  0  0  0  0  0
  152.1609  143.0553  161.1584 H   0  0  0  0  0  0  0  0  0  0  0  0
  153.8847  142.6775  161.1276 H   0  0  0  0  0  0  0  0  0  0  0  0
  152.7600  141.6038  161.9632 H   0  0  0  0  0  0  0  0  0  0  0  0
  151.0668  142.3368  158.6395 H   0  0  0  0  0  0  0  0  0  0  0  0
  150.5811  140.6436  156.6599 H   0  0  0  0  0  0  0  0  0  0  0  0
  150.3041  138.1102  153.3757 H   0  0  0  0  0  0  0  0  0  0  0  0
  150.2231  137.7548  155.0733 H   0  0  0  0  0  0  0  0  0  0  0  0
  148.3881  139.3617  155.4062 H   0  0  0  0  0  0  0  0  0  0  0  0
  148.6265  139.9984  153.8095 H   0  0  0  0  0  0  0  0  0  0  0  0
  145.6767  138.6965  153.6605 H   0  0  0  0  0  0  0  0  0  0  0  0
  146.8133  139.6456  152.7538 H   0  0  0  0  0  0  0  0  0  0  0  0
  145.7808  138.4051  151.0855 H   0  0  0  0  0  0  0  0  0  0  0  0
  147.3423  137.6657  151.2812 H   0  0  0  0  0  0  0  0  0  0  0  0
  144.6456  136.6242  152.2665 H   0  0  0  0  0  0  0  0  0  0  0  0
  145.6416  135.9503  151.0114 H   0  0  0  0  0  0  0  0  0  0  0  0
  145.8822  134.5586  152.9363 H   0  0  0  0  0  0  0  0  0  0  0  0
  147.4123  135.3683  152.7418 H   0  0  0  0  0  0  0  0  0  0  0  0
  145.2321  136.4906  154.5714 H   0  0  0  0  0  0  0  0  0  0  0  0
  146.2517  135.2057  155.1213 H   0  0  0  0  0  0  0  0  0  0  0  0
  148.1910  136.4974  155.1893 H   0  0  0  0  0  0  0  0  0  0  0  0
  146.9479  137.5702  155.7790 H   0  0  0  0  0  0  0  0  0  0  0  0
  148.2576  137.5497  153.1771 H   0  0  0  0  0  0  0  0  0  0  0  0
  1  2  1  0  0  0  0
  1 20  1  0  0  0  0
  1 21  1  0  0  0  0
  1 22  1  0  0  0  0
  2 19  1  0  0  0  0
  2  3  2  0  0  0  0
  3  4  1  0  0  0  0
  3 23  1  0  0  0  0
  4  5  1  0  0  0  0
  4 18  2  0  0  0  0
  5  6  1  0  0  0  0
  5 24  1  0  0  0  0
  6  7  2  0  0  0  0
  6  8  1  0  0  0  0
  8  9  1  0  0  0  0
  9 10  1  0  0  0  0
  9 25  1  0  0  0  0
  9 26  1  0  0  0  0
 10 11  1  0  0  0  0
 10 27  1  0  0  0  0
 10 28  1  0  0  0  0
 11 17  1  0  0  0  0
 11 12  1  0  0  0  0
 11 41  1  0  0  0  0
 12 13  1  0  0  0  0
 12 29  1  0  0  0  0
 12 30  1  0  0  0  0
 13 14  1  0  0  0  0
 13 31  1  0  0  0  0
 13 32  1  0  0  0  0
 14 15  1  0  0  0  0
 14 33  1  0  0  0  0
 14 34  1  0  0  0  0
 15 16  1  0  0  0  0
 15 35  1  0  0  0  0
 15 36  1  0  0  0  0
 16 17  1  0  0  0  0
 16 37  1  0  0  0  0
 16 38  1  0  0  0  0
 17 39  1  0  0  0  0
 17 40  1  0  0  0  0
 18 19  1  0  0  0  0
M  CHG  1   8  -1
M  CHG  1  11   1
M  END
> <s_m_source_file>
AV-unprocessed.smi

> <i_m_source_file_index>
2031

> <i_lp_mmshare_version>
43012

> <i_f3d_flags>
0

> <s_epik_input>
W0NIM11jMVtjSF1jKG5vMSlbTkhdQyg9TylbTkhdW0NIMl1bQ0gyXU4yW0NIMl1bQ0gyXVtDSDJdW0NIMl1bQ0gyXVtDSDJdMg==

> <s_epik_cmdline>
J2VwaWtfcHl0aG9uJywgJy1waCcsICc3LjAnLCAnLXRuJywgJzgnLCAnLW1hJywgJzIwMCcsICctbWV0YWxfYmluZGluZycsICctaW1hZScsICc8aW5maWxlLm1hZT4nLCAnLW9tYWUnLCAnPG91dGZpbGUubWFlPic=

> <r_epik_Ionization_Penalty>
6.7666

> <r_epik_Ionization_Penalty_Charging>
6.7666

> <r_epik_Ionization_Penalty_Neutral>
5.77131e-06

> <r_epik_State_Penalty>
6.79217

> <r_epik_Charging_Adjusted_Penalty>
13.5588

> <i_epik_Tot_Q>
0

> <i_epik_Tot_abs_Q>
2

> <r_epik_Metal_State_Penalty>
2.72569

> <b_epik_Metal_Only>
1

> <s_lp_Force_Field>
OPLS_2005

> <r_lp_Energy>
19.0994

> <b_lp_Chiralities_Consistent>
1

> <s_lp_Variant>
AV-unprocessed.smi:2031-3

> <Gold.Version>
5.8.1

> <Gold.Id.Protein>
6NUR|6NUR_protein|mol2

> <Gold.PLP.Fitness>
41.4913

> <Gold.PLP.PLP>
-30.9182

> <Gold.PLP.part.hbond>
-4.0000

> <Gold.PLP.part.metal>
0.0000

> <Gold.PLP.part.buried>
-1.2172

> <Gold.PLP.part.nonpolar>
-26.3736

> <Gold.PLP.part.repulsive>
0.2355

> <Gold.PLP.ligand.clash>
0.0000

> <Gold.PLP.ligand.torsion>
1.3265

> <Gold.PLP.Chemscore.Hbond>
4.3884

> <Gold.PLP.Chemscore.CHOScore>
0.0000

> <Gold.PLP.Chemscore.Metal>
0.0000

> <Gold.Chemscore.Hbonds>
donor molecule, donor type, donor heavy atom, donor atom, acceptor molecule, acceptor atom, score
      L1  H    11    41       P1  7948  2.00
      P1  H  7989  7998       L1     8  1.00
      P1  H  7997  8008       L1    18  1.00
      P1  H  7997  8009       L1     7  0.37

> <Gold.PLP.Chemscore.Internal.Correction>
0.0611

> <Gold.Rescore>
     Score         DG    S(hbond)    S(metal)    S(lipo)     H(rot)  DE(clash)    DE(int)     intcor
     14.35     -16.88       2.47        0.00      60.62       1.54       0.07       2.45       ----

> <Gold.Chemscore.Fitness>
14.3502

> <Gold.Chemscore.DG>
-16.8756

> <Gold.Chemscore.ZeroCoef>
-5.4800

> <Gold.Chemscore.Hbond>
2.4693

> <Gold.Chemscore.Metal>
0.0000

> <Gold.Chemscore.Lipo>
60.6204

> <Gold.Chemscore.Internal_Hbond>
0.0000

> <Gold.Chemscore.DEClash>
0.0712

> <Gold.Chemscore.DEInternal>
2.4541

> <Gold.Chemscore.Rot>
1.5409

> <Gold.Chemscore.Internal.Correction>
   9.000000E+99

> <Gold.Chemscore.Hbonds>
donor molecule, donor type, donor heavy atom, donor atom, acceptor molecule, acceptor atom, score
      L1  H    11    41       P1  7948  0.98
      P1  H  7989  7998       L1     8  0.35
      P1  H  7997  8008       L1    18  0.33
      P1  H  7997  8009       L1     7  0.35

> <Gold.Chemscore.Hbond.Weighted>
-8.2476

> <Gold.Chemscore.Metal.Weighted>
-0.0000

> <Gold.Chemscore.Lipo.Weighted>
-7.0926

> <Gold.Chemscore.Internal_Hbond.Weighted>
0.0000

> <Gold.Chemscore.DEClash.Weighted>
0.0712

> <Gold.Chemscore.DEInternal.Weighted>
2.4541

> <Gold.Chemscore.Rot.Weighted>
3.9446

> <Gold.Chemscore.Internal.Correction.Weighted>
   9.000000E+99

> <Gold.Protein.RotatedTorsions>
[ 6907 6896 6895 6894 ] final -134.60 input  -60.11 | X-H torsion
[ 7974 7965 7964 7962 ] final -152.79 input  175.53 | X-H torsion
[ 8008 7997 7996 7995 ] final -101.39 input   59.86 | X-H torsion
[ 10167 10162 10161 10158 ] final -171.26 input  -65.29 | X-H torsion
[ 10718 10713 10712 10709 ] final  129.13 input   66.30 | X-H torsion
[ 10763 10752 10751 10750 ] final  -53.45 input  -60.55 | X-H torsion
[ 11005 11000 10999 10996 ] final -136.67 input  -57.11 | X-H torsion

> <Gold.Protein.ActiveResidues>
 VAL166  LYS551  ARG553  GLY616  TRP617  ASP618  TYR619  PRO620  LYS621  CYS622 
 ASP623  PHE694  ASN695  SER759  ASP760  ASP761  ALA762  ILE779  LEU786  VAL792 
 PHE793  MET794  SER795  GLU796  ALA797  LYS798  CYS799  TRP800  GLU811  SER814 

> <Gold.Protein.RotatedAtoms>
  150.9878  133.6180  159.2712 H   0  0  0  0  0  0  0  0  0  0  0  0  # atno 6907 bound_to 6896
  151.3412  135.0863  159.9381 H   0  0  0  0  0  0  0  0  0  0  0  0  # atno 6908 bound_to 6896
  152.5236  133.9489  159.7716 H   0  0  0  0  0  0  0  0  0  0  0  0  # atno 6909 bound_to 6896
  144.7775  140.4614  143.5863 H   0  0  0  0  0  0  0  0  0  0  0  0  # atno 7974 bound_to 7965
  154.8420  140.0435  157.1547 H   0  0  0  0  0  0  0  0  0  0  0  0  # atno 8008 bound_to 7997
  154.9037  140.3004  155.5283 H   0  0  0  0  0  0  0  0  0  0  0  0  # atno 8009 bound_to 7997
  156.2992  140.2371  156.4068 H   0  0  0  0  0  0  0  0  0  0  0  0  # atno 8010 bound_to 7997
  139.5813  144.1418  152.1518 H   0  0  0  0  0  0  0  0  0  0  0  0  # atno 10167 bound_to 10162
  157.5182  131.1098  150.9192 H   0  0  0  0  0  0  0  0  0  0  0  0  # atno 10718 bound_to 10713
  154.1590  135.6478  153.4981 H   0  0  0  0  0  0  0  0  0  0  0  0  # atno 10763 bound_to 10752
  153.0116  135.5356  154.6730 H   0  0  0  0  0  0  0  0  0  0  0  0  # atno 10764 bound_to 10752
  154.6039  135.2946  155.0477 H   0  0  0  0  0  0  0  0  0  0  0  0  # atno 10765 bound_to 10752
  140.8783  134.1964  157.4607 H   0  0  0  0  0  0  0  0  0  0  0  0  # atno 11005 bound_to 11000
  145.6144  139.1517  143.3057 LP  0  0  0  0  0  0  0  0  0  0  0  0  # atno 17320 bound_to 7965
  146.1963  140.6258  142.9122 LP  0  0  0  0  0  0  0  0  0  0  0  0  # atno 17321 bound_to 7965
  140.0971  144.5571  150.7014 LP  0  0  0  0  0  0  0  0  0  0  0  0  # atno 17342 bound_to 10162
  140.7091  143.2490  151.4637 LP  0  0  0  0  0  0  0  0  0  0  0  0  # atno 17343 bound_to 10162
  156.9811  130.5527  149.5296 LP  0  0  0  0  0  0  0  0  0  0  0  0  # atno 17370 bound_to 10713
  156.0335  130.5425  150.8595 LP  0  0  0  0  0  0  0  0  0  0  0  0  # atno 17371 bound_to 10713
  139.8717  134.9806  156.5081 LP  0  0  0  0  0  0  0  0  0  0  0  0  # atno 17394 bound_to 11000
  140.8491  133.8145  155.9151 LP  0  0  0  0  0  0  0  0  0  0  0  0  # atno 17395 bound_to 11000

$$$$
