AV-unprocessed.smi:234|AV-procd|sdf|1785|dock7
  -GOLD-   2262020333D 1   1.00000     0.00000
 Structure written by MMmdl.
 59 62  0  0  0  0  0  0  0  0  1 V2000
  152.0066  143.1280  159.2992 C   0  0  0  0  0  0  0  0  0  0  0  0
  151.0784  142.6515  158.1801 C   0  0  0  0  0  0  0  0  0  0  0  0
  151.2799  141.2628  157.9766 O   0  0  0  0  0  0  0  0  0  0  0  0
  150.3944  140.7106  157.0140 C   0  0  2  0  0  0  0  0  0  0  0  0
  148.9790  140.4335  157.5381 C   0  0  0  0  0  0  0  0  0  0  0  0
  149.0426  139.0866  156.8053 C   0  0  1  0  0  0  0  0  0  0  0  0
  148.3679  139.0715  155.4913 N   0  0  0  0  0  0  0  0  0  0  0  0
  148.7026  139.9792  154.3889 C   0  0  0  0  0  0  0  0  0  0  0  0
  147.8024  137.8854  155.1413 C   0  0  0  0  0  0  0  0  0  0  0  0
  148.2130  136.7457  155.7610 N   0  0  0  0  0  0  0  0  0  0  0  0
  147.6591  135.5693  155.4555 C   0  0  0  0  0  0  0  0  0  0  0  0
  146.6955  135.3059  154.5723 N   0  0  0  0  0  0  0  0  0  0  0  0
  146.2861  136.4399  153.9354 C   0  0  0  0  0  0  0  0  0  0  0  0
  146.7845  137.7568  154.1514 C   0  0  0  0  0  0  0  0  0  0  0  0
  146.1427  138.6453  153.2955 N   0  0  0  0  0  0  0  0  0  0  0  0
  145.3019  137.9026  152.6301 C   0  0  0  0  0  0  0  0  0  0  0  0
  145.3127  136.5667  152.9595 N   0  0  0  0  0  0  0  0  0  0  0  0
  144.4785  135.5205  152.3880 C   0  0  0  0  0  0  0  0  0  0  0  0
  145.2114  134.6664  151.3198 C   0  0  1  0  0  0  0  0  0  0  0  0
  145.5855  135.5216  150.2527 O   0  0  0  0  0  0  0  0  0  0  0  0
  146.4790  133.9952  151.8442 C   0  0  0  0  0  0  0  0  0  0  0  0
  146.5758  132.7321  151.0031 C   0  0  0  0  0  0  0  0  0  0  0  0
  145.2222  132.3253  150.9150 O   0  0  0  0  0  0  0  0  0  0  0  0
  144.4103  133.4789  150.7142 C   0  0  1  0  0  0  0  0  0  0  0  0
  143.0266  133.1936  151.3184 C   0  0  0  0  0  0  0  0  0  0  0  0
  150.5962  139.1904  156.8001 C   0  0  0  0  0  0  0  0  0  0  0  0
  151.3713  138.7618  155.5481 C   0  0  0  0  0  0  0  0  0  0  0  0
  151.2517  138.4406  157.9687 C   0  0  0  0  0  0  0  0  0  0  0  0
  151.8783  144.1946  159.4840 H   0  0  0  0  0  0  0  0  0  0  0  0
  153.0517  142.9566  159.0399 H   0  0  0  0  0  0  0  0  0  0  0  0
  151.8009  142.5994  160.2302 H   0  0  0  0  0  0  0  0  0  0  0  0
  150.0403  142.8495  158.4507 H   0  0  0  0  0  0  0  0  0  0  0  0
  151.2909  143.2005  157.2617 H   0  0  0  0  0  0  0  0  0  0  0  0
  150.4005  141.2628  156.0728 H   0  0  0  0  0  0  0  0  0  0  0  0
  148.9515  140.3110  158.6219 H   0  0  0  0  0  0  0  0  0  0  0  0
  148.2101  141.1326  157.2123 H   0  0  0  0  0  0  0  0  0  0  0  0
  148.7063  138.2930  157.4698 H   0  0  0  0  0  0  0  0  0  0  0  0
  147.8816  140.0177  153.6719 H   0  0  0  0  0  0  0  0  0  0  0  0
  149.5943  139.6580  153.8537 H   0  0  0  0  0  0  0  0  0  0  0  0
  148.8644  140.9999  154.7290 H   0  0  0  0  0  0  0  0  0  0  0  0
  148.0409  134.7174  155.9984 H   0  0  0  0  0  0  0  0  0  0  0  0
  144.6427  138.3137  151.8796 H   0  0  0  0  0  0  0  0  0  0  0  0
  144.1326  134.8917  153.2089 H   0  0  0  0  0  0  0  0  0  0  0  0
  143.5902  135.9877  151.9606 H   0  0  0  0  0  0  0  0  0  0  0  0
  145.7666  134.9905  149.4924 H   0  0  0  0  0  0  0  0  0  0  0  0
  147.3699  134.6221  151.7835 H   0  0  0  0  0  0  0  0  0  0  0  0
  146.3467  133.7075  152.8879 H   0  0  0  0  0  0  0  0  0  0  0  0
  146.9653  132.9482  150.0071 H   0  0  0  0  0  0  0  0  0  0  0  0
  147.1993  131.9647  151.4622 H   0  0  0  0  0  0  0  0  0  0  0  0
  144.2928  133.6109  149.6367 H   0  0  0  0  0  0  0  0  0  0  0  0
  142.3512  134.0385  151.1841 H   0  0  0  0  0  0  0  0  0  0  0  0
  143.0917  132.9723  152.3838 H   0  0  0  0  0  0  0  0  0  0  0  0
  142.5684  132.3310  150.8344 H   0  0  0  0  0  0  0  0  0  0  0  0
  151.1984  137.7115  155.3120 H   0  0  0  0  0  0  0  0  0  0  0  0
  152.4458  138.8936  155.6785 H   0  0  0  0  0  0  0  0  0  0  0  0
  151.0983  139.3424  154.6702 H   0  0  0  0  0  0  0  0  0  0  0  0
  151.1943  137.3603  157.8309 H   0  0  0  0  0  0  0  0  0  0  0  0
  150.7686  138.6665  158.9198 H   0  0  0  0  0  0  0  0  0  0  0  0
  152.3050  138.7028  158.0761 H   0  0  0  0  0  0  0  0  0  0  0  0
  1  2  1  0  0  0  0
  1 29  1  0  0  0  0
  1 30  1  0  0  0  0
  1 31  1  0  0  0  0
  2  3  1  0  0  0  0
  2 32  1  0  0  0  0
  2 33  1  0  0  0  0
  3  4  1  0  0  0  0
  4 26  1  0  0  0  0
  4  5  1  0  0  0  0
  4 34  1  0  0  0  0
  5  6  1  0  0  0  0
  5 35  1  0  0  0  0
  5 36  1  0  0  0  0
  6  7  1  0  0  0  0
  6 26  1  0  0  0  0
  6 37  1  0  0  0  0
  7  8  1  0  0  0  0
  7  9  1  0  0  0  0
  8 38  1  0  0  0  0
  8 39  1  0  0  0  0
  8 40  1  0  0  0  0
  9 14  1  0  0  0  0
  9 10  2  0  0  0  0
 10 11  1  0  0  0  0
 11 12  2  0  0  0  0
 11 41  1  0  0  0  0
 12 13  1  0  0  0  0
 13 17  1  0  0  0  0
 13 14  2  0  0  0  0
 14 15  1  0  0  0  0
 15 16  2  0  0  0  0
 16 17  1  0  0  0  0
 16 42  1  0  0  0  0
 17 18  1  0  0  0  0
 18 19  1  0  0  0  0
 18 43  1  0  0  0  0
 18 44  1  0  0  0  0
 19 24  1  0  0  0  0
 19 20  1  0  0  0  0
 19 21  1  0  0  0  0
 20 45  1  0  0  0  0
 21 22  1  0  0  0  0
 21 46  1  0  0  0  0
 21 47  1  0  0  0  0
 22 23  1  0  0  0  0
 22 48  1  0  0  0  0
 22 49  1  0  0  0  0
 23 24  1  0  0  0  0
 24 25  1  0  0  0  0
 24 50  1  0  0  0  0
 25 51  1  0  0  0  0
 25 52  1  0  0  0  0
 25 53  1  0  0  0  0
 26 27  1  0  0  0  0
 26 28  1  0  0  0  0
 27 54  1  0  0  0  0
 27 55  1  0  0  0  0
 27 56  1  0  0  0  0
 28 57  1  0  0  0  0
 28 58  1  0  0  0  0
 28 59  1  0  0  0  0
M  END
> <s_m_source_file>
AV-unprocessed.smi

> <i_m_source_file_index>
234

> <i_lp_mmshare_version>
43012

> <i_f3d_flags>
0

> <s_epik_input>
W0NIM11bQ0gyXU9bQ0BASF0oQzEoW0NIM10pW0NIM10pW0NIMl1bQ0BIXTFOKFtDSDNdKWMobltjSF1uMiljKGMyMyluW2NIXW4zW0NIMl1bQ0BAXTQoW09IXSlbQ0gyXVtDSDJdT1tDQEhdNFtDSDNd

> <s_epik_cmdline>
J2VwaWtfcHl0aG9uJywgJy1waCcsICc3LjAnLCAnLXRuJywgJzgnLCAnLW1hJywgJzIwMCcsICctbWV0YWxfYmluZGluZycsICctaW1hZScsICc8aW5maWxlLm1hZT4nLCAnLW9tYWUnLCAnPG91dGZpbGUubWFlPic=

> <r_lp_tautomer_probability>
1

> <r_epik_Ionization_Penalty>
0.00349132

> <r_epik_Ionization_Penalty_Charging>
0

> <r_epik_Ionization_Penalty_Neutral>
0.00349132

> <r_epik_State_Penalty>
0.00242418

> <r_epik_Charging_Adjusted_Penalty>
0.00242418

> <i_epik_Tot_Q>
0

> <i_epik_Tot_abs_Q>
0

> <r_epik_Metal_State_Penalty>
-0

> <b_epik_Metal_Only>
0

> <s_lp_Force_Field>
OPLS_2005

> <r_lp_Energy>
52.3915

> <b_lp_Chiralities_Consistent>
1

> <s_lp_Variant>
AV-unprocessed.smi:234-1

> <Gold.Version>
5.8.1

> <Gold.Id.Protein>
6NUR|6NUR_protein|mol2

> <Gold.PLP.Fitness>
40.5438

> <Gold.PLP.PLP>
-33.1229

> <Gold.PLP.part.hbond>
-1.6388

> <Gold.PLP.part.metal>
0.0000

> <Gold.PLP.part.buried>
-1.2496

> <Gold.PLP.part.nonpolar>
-30.5174

> <Gold.PLP.part.repulsive>
0.5247

> <Gold.PLP.ligand.clash>
0.0000

> <Gold.PLP.ligand.torsion>
1.1156

> <Gold.PLP.Chemscore.Hbond>
1.0000

> <Gold.PLP.Chemscore.CHOScore>
1.9002

> <Gold.PLP.Chemscore.Metal>
0.0000

> <Gold.Chemscore.Hbonds>
donor molecule, donor type, donor heavy atom, donor atom, acceptor molecule, acceptor atom, score
      L1  H    20    45       P1  7921  1.00
      L1  C    16    42       P1 10171  1.00
      L1  C    16    42       P1 10175  0.71

> <Gold.PLP.Chemscore.Internal.Correction>
0.9514

> <Gold.Rescore>
     Score         DG    S(hbond)    S(metal)    S(lipo)     H(rot)  DE(clash)    DE(int)     intcor
     11.21     -13.62       0.93        0.00      94.69       2.37       0.36       2.04       ----

> <Gold.Chemscore.Fitness>
11.2127

> <Gold.Chemscore.DG>
-13.6165

> <Gold.Chemscore.ZeroCoef>
-5.4800

> <Gold.Chemscore.Hbond>
0.9336

> <Gold.Chemscore.Metal>
0.0000

> <Gold.Chemscore.Lipo>
94.6945

> <Gold.Chemscore.Internal_Hbond>
0.0000

> <Gold.Chemscore.DEClash>
0.3644

> <Gold.Chemscore.DEInternal>
2.0393

> <Gold.Chemscore.Rot>
2.3676

> <Gold.Chemscore.Internal.Correction>
   9.000000E+99

> <Gold.Chemscore.Hbonds>
donor molecule, donor type, donor heavy atom, donor atom, acceptor molecule, acceptor atom, score
      L1  H    20    45       P1  7921  0.91

> <Gold.Chemscore.Hbond.Weighted>
-3.1182

> <Gold.Chemscore.Metal.Weighted>
-0.0000

> <Gold.Chemscore.Lipo.Weighted>
-11.0793

> <Gold.Chemscore.Internal_Hbond.Weighted>
0.0000

> <Gold.Chemscore.DEClash.Weighted>
0.3644

> <Gold.Chemscore.DEInternal.Weighted>
2.0393

> <Gold.Chemscore.Rot.Weighted>
6.0610

> <Gold.Chemscore.Internal.Correction.Weighted>
   9.000000E+99

> <Gold.Protein.RotatedTorsions>
[ 6907 6896 6895 6894 ] final  -81.15 input  -60.11 | X-H torsion
[ 7974 7965 7964 7962 ] final  153.64 input  175.53 | X-H torsion
[ 8008 7997 7996 7995 ] final   59.32 input   59.86 | X-H torsion
[ 10167 10162 10161 10158 ] final  -58.05 input  -65.29 | X-H torsion
[ 10718 10713 10712 10709 ] final   46.06 input   66.30 | X-H torsion
[ 10763 10752 10751 10750 ] final   30.76 input  -60.55 | X-H torsion
[ 11005 11000 10999 10996 ] final    3.84 input  -57.11 | X-H torsion

> <Gold.Protein.ActiveResidues>
 VAL166  LYS551  ARG553  GLY616  TRP617  ASP618  TYR619  PRO620  LYS621  CYS622 
 ASP623  PHE694  ASN695  SER759  ASP760  ASP761  ALA762  ILE779  LEU786  VAL792 
 PHE793  MET794  SER795  GLU796  ALA797  LYS798  CYS799  TRP800  GLU811  SER814 

> <Gold.Protein.RotatedAtoms>
  150.6917  134.3861  159.5055 H   0  0  0  0  0  0  0  0  0  0  0  0  # atno 6907 bound_to 6896
  152.1657  134.8873  160.0547 H   0  0  0  0  0  0  0  0  0  0  0  0  # atno 6908 bound_to 6896
  151.9918  133.3759  159.4184 H   0  0  0  0  0  0  0  0  0  0  0  0  # atno 6909 bound_to 6896
  144.8141  139.6828  143.6129 H   0  0  0  0  0  0  0  0  0  0  0  0  # atno 7974 bound_to 7965
  155.5643  140.3489  155.4499 H   0  0  0  0  0  0  0  0  0  0  0  0  # atno 8008 bound_to 7997
  156.0491  140.1313  157.0096 H   0  0  0  0  0  0  0  0  0  0  0  0  # atno 8009 bound_to 7997
  154.4426  140.1008  156.6335 H   0  0  0  0  0  0  0  0  0  0  0  0  # atno 8010 bound_to 7997
  140.6221  143.2423  151.5455 H   0  0  0  0  0  0  0  0  0  0  0  0  # atno 10167 bound_to 10162
  157.4442  130.8099  149.7724 H   0  0  0  0  0  0  0  0  0  0  0  0  # atno 10718 bound_to 10713
  153.0353  135.6456  154.1095 H   0  0  0  0  0  0  0  0  0  0  0  0  # atno 10763 bound_to 10752
  154.0810  135.2873  155.3292 H   0  0  0  0  0  0  0  0  0  0  0  0  # atno 10764 bound_to 10752
  154.6530  135.5419  153.7988 H   0  0  0  0  0  0  0  0  0  0  0  0  # atno 10765 bound_to 10752
  140.5886  133.9945  155.8079 H   0  0  0  0  0  0  0  0  0  0  0  0  # atno 11005 bound_to 11000
  146.2442  139.6064  142.9471 LP  0  0  0  0  0  0  0  0  0  0  0  0  # atno 17320 bound_to 7965
  145.5256  141.0430  143.2411 LP  0  0  0  0  0  0  0  0  0  0  0  0  # atno 17321 bound_to 7965
  139.5448  144.2551  152.1420 LP  0  0  0  0  0  0  0  0  0  0  0  0  # atno 17342 bound_to 10162
  140.1774  144.4877  150.6546 LP  0  0  0  0  0  0  0  0  0  0  0  0  # atno 17343 bound_to 10162
  155.9960  130.3908  150.2794 LP  0  0  0  0  0  0  0  0  0  0  0  0  # atno 17370 bound_to 10713
  157.0961  131.0183  151.3103 LP  0  0  0  0  0  0  0  0  0  0  0  0  # atno 17371 bound_to 10713
  141.0949  133.9858  157.3176 LP  0  0  0  0  0  0  0  0  0  0  0  0  # atno 17394 bound_to 11000
  139.9284  135.0201  156.8316 LP  0  0  0  0  0  0  0  0  0  0  0  0  # atno 17395 bound_to 11000

$$$$
