AV-unprocessed.smi:1556|AV-procd|sdf|6268|dock2
  -GOLD-   22720 6453D 1   1.00000     0.00000
 Structure written by MMmdl.
 37 38  0  0  0  0  0  0  0  0  1 V2000
  151.8405  138.4249  154.4282 C   0  0  0  0  0  0  0  0  0  0  0  0
  150.4950  138.9530  154.3597 N   0  0  0  0  0  0  0  0  0  0  0  0
  149.3123  138.2727  154.1648 C   0  0  0  0  0  0  0  0  0  0  0  0
  148.3031  139.1938  154.1724 C   0  0  0  0  0  0  0  0  0  0  0  0
  146.8270  138.9690  153.9989 C   0  0  0  0  0  0  0  0  0  0  0  0
  146.4549  138.7596  152.5221 C   0  0  0  0  0  0  0  0  0  0  0  0
  146.7669  137.4058  152.0803 N   0  0  0  0  0  0  0  0  0  0  0  0
  145.8584  136.4446  151.8420 C   0  0  0  0  0  0  0  0  0  0  0  0
  144.6481  136.6059  151.9870 O   0  0  0  0  0  0  0  0  0  0  0  0
  146.3723  135.2697  151.4367 N   0  0  0  0  0  0  0  0  0  0  0  0
  145.6581  134.0377  151.0996 C   0  0  2  0  0  0  0  0  0  0  0  0
  146.6009  133.0220  150.4272 C   0  0  0  0  0  0  0  0  0  0  0  0
  145.7576  131.9167  149.7784 C   0  0  0  0  0  0  0  0  0  0  0  0
  144.1644  132.6952  149.3124 S   0  0  0  0  0  0  0  0  0  0  0  0
  144.1187  132.8998  147.8568 O   0  0  0  0  0  0  0  0  0  0  0  0
  143.0742  132.0016  150.0148 O   0  0  0  0  0  0  0  0  0  0  0  0
  144.4905  134.2986  150.1349 C   0  0  0  0  0  0  0  0  0  0  0  0
  148.9837  140.4270  154.3847 C   0  0  0  0  0  0  0  0  0  0  0  0
  150.2940  140.2798  154.4949 N   0  0  0  0  0  0  0  0  0  0  0  0
  151.8191  137.3369  154.3598 H   0  0  0  0  0  0  0  0  0  0  0  0
  152.3027  138.7113  155.3733 H   0  0  0  0  0  0  0  0  0  0  0  0
  152.4340  138.8207  153.6037 H   0  0  0  0  0  0  0  0  0  0  0  0
  149.2861  137.2005  154.0371 H   0  0  0  0  0  0  0  0  0  0  0  0
  146.5056  138.1040  154.5801 H   0  0  0  0  0  0  0  0  0  0  0  0
  146.2654  139.8160  154.3949 H   0  0  0  0  0  0  0  0  0  0  0  0
  145.3867  138.9241  152.3784 H   0  0  0  0  0  0  0  0  0  0  0  0
  146.9683  139.4875  151.8913 H   0  0  0  0  0  0  0  0  0  0  0  0
  147.7421  137.1844  151.9421 H   0  0  0  0  0  0  0  0  0  0  0  0
  147.3799  135.2157  151.3941 H   0  0  0  0  0  0  0  0  0  0  0  0
  145.2696  133.5703  152.0064 H   0  0  0  0  0  0  0  0  0  0  0  0
  147.1722  133.5259  149.6460 H   0  0  0  0  0  0  0  0  0  0  0  0
  147.3239  132.6105  151.1321 H   0  0  0  0  0  0  0  0  0  0  0  0
  146.2347  131.4798  148.9010 H   0  0  0  0  0  0  0  0  0  0  0  0
  145.5462  131.1202  150.4921 H   0  0  0  0  0  0  0  0  0  0  0  0
  143.5885  134.6548  150.6329 H   0  0  0  0  0  0  0  0  0  0  0  0
  144.7697  135.0168  149.3631 H   0  0  0  0  0  0  0  0  0  0  0  0
  148.5655  141.4200  154.4587 H   0  0  0  0  0  0  0  0  0  0  0  0
  1  2  1  0  0  0  0
  1 20  1  0  0  0  0
  1 21  1  0  0  0  0
  1 22  1  0  0  0  0
  2 19  1  0  0  0  0
  2  3  1  0  0  0  0
  3  4  2  0  0  0  0
  3 23  1  0  0  0  0
  4  5  1  0  0  0  0
  4 18  1  0  0  0  0
  5  6  1  0  0  0  0
  5 24  1  0  0  0  0
  5 25  1  0  0  0  0
  6  7  1  0  0  0  0
  6 26  1  0  0  0  0
  6 27  1  0  0  0  0
  7  8  1  0  0  0  0
  7 28  1  0  0  0  0
  8  9  2  0  0  0  0
  8 10  1  0  0  0  0
 10 11  1  0  0  0  0
 10 29  1  0  0  0  0
 11 17  1  0  0  0  0
 11 12  1  0  0  0  0
 11 30  1  0  0  0  0
 12 13  1  0  0  0  0
 12 31  1  0  0  0  0
 12 32  1  0  0  0  0
 13 14  1  0  0  0  0
 13 33  1  0  0  0  0
 13 34  1  0  0  0  0
 14 15  2  0  0  0  0
 14 16  2  0  0  0  0
 14 17  1  0  0  0  0
 17 35  1  0  0  0  0
 17 36  1  0  0  0  0
 18 19  2  0  0  0  0
 18 37  1  0  0  0  0
M  END
> <s_m_source_file>
AV-unprocessed.smi

> <i_m_source_file_index>
1556

> <i_lp_mmshare_version>
43012

> <i_f3d_flags>
0

> <s_epik_input>
W0NIM11uMVtjSF1jKFtjSF1uMSlbQ0gyXVtDSDJdW05IXUMoPU8pW05IXVtDQEBIXShbQ0gyXTIpW0NIMl1bQ0gyXVMyKD1PKT1P

> <s_epik_cmdline>
J2VwaWtfcHl0aG9uJywgJy1waCcsICc3LjAnLCAnLXRuJywgJzgnLCAnLW1hJywgJzIwMCcsICctbWV0YWxfYmluZGluZycsICctaW1hZScsICc8aW5maWxlLm1hZT4nLCAnLW9tYWUnLCAnPG91dGZpbGUubWFlPic=

> <r_lp_tautomer_probability>
1

> <r_epik_Ionization_Penalty>
0.000530192

> <r_epik_Ionization_Penalty_Charging>
0

> <r_epik_Ionization_Penalty_Neutral>
0.000530192

> <r_epik_State_Penalty>
-0

> <r_epik_Charging_Adjusted_Penalty>
0

> <i_epik_Tot_Q>
0

> <i_epik_Tot_abs_Q>
0

> <r_epik_Metal_State_Penalty>
-0

> <b_epik_Metal_Only>
0

> <s_lp_Force_Field>
OPLS_2005

> <r_lp_Energy>
8.62968

> <b_lp_Chiralities_Consistent>
1

> <s_lp_Variant>
AV-unprocessed.smi:1556-1

> <Gold.Version>
5.8.1

> <Gold.Id.Protein>
6NUR|6NUR_protein|mol2

> <Gold.PLP.Fitness>
44.3328

> <Gold.PLP.PLP>
-32.3404

> <Gold.PLP.part.hbond>
-4.1110

> <Gold.PLP.part.metal>
0.0000

> <Gold.PLP.part.buried>
-3.6279

> <Gold.PLP.part.nonpolar>
-29.9133

> <Gold.PLP.part.repulsive>
5.6915

> <Gold.PLP.ligand.clash>
0.0000

> <Gold.PLP.ligand.torsion>
0.5175

> <Gold.PLP.Chemscore.Hbond>
3.5274

> <Gold.PLP.Chemscore.CHOScore>
0.8140

> <Gold.PLP.Chemscore.Metal>
0.0000

> <Gold.Chemscore.Hbonds>
donor molecule, donor type, donor heavy atom, donor atom, acceptor molecule, acceptor atom, score
      L1  H     7    28       P1  7948  0.98
      L1  H    10    29       P1  7948  0.85
      P1  H  7918  7932       L1    15  0.37
      P1  H  7989  7998       L1    19  1.00
      P1  H 10785 10796       L1    16  0.33
      L1  C     3    23       P1  7948  0.81

> <Gold.PLP.Chemscore.Internal.Correction>
0.0032

> <Gold.Rescore>
     Score         DG    S(hbond)    S(metal)    S(lipo)     H(rot)  DE(clash)    DE(int)     intcor
     14.94     -17.93       2.74        0.00      67.98       1.82       1.40       1.59       ----

> <Gold.Chemscore.Fitness>
14.9423

> <Gold.Chemscore.DG>
-17.9342

> <Gold.Chemscore.ZeroCoef>
-5.4800

> <Gold.Chemscore.Hbond>
2.7440

> <Gold.Chemscore.Metal>
0.0000

> <Gold.Chemscore.Lipo>
67.9773

> <Gold.Chemscore.Internal_Hbond>
0.0000

> <Gold.Chemscore.DEClash>
1.3978

> <Gold.Chemscore.DEInternal>
1.5941

> <Gold.Chemscore.Rot>
1.8220

> <Gold.Chemscore.Internal.Correction>
   9.000000E+99

> <Gold.Chemscore.Hbonds>
donor molecule, donor type, donor heavy atom, donor atom, acceptor molecule, acceptor atom, score
      L1  H     7    28       P1  7948  0.89
      L1  H    10    29       P1  7948  0.62
      P1  H  7918  7932       L1    15  0.36
      P1  H  7989  7998       L1    19  0.25
      P1  H 10785 10796       L1    16  0.04

> <Gold.Chemscore.Hbond.Weighted>
-9.1651

> <Gold.Chemscore.Metal.Weighted>
-0.0000

> <Gold.Chemscore.Lipo.Weighted>
-7.9533

> <Gold.Chemscore.Internal_Hbond.Weighted>
0.0000

> <Gold.Chemscore.DEClash.Weighted>
1.3978

> <Gold.Chemscore.DEInternal.Weighted>
1.5941

> <Gold.Chemscore.Rot.Weighted>
4.6642

> <Gold.Chemscore.Internal.Correction.Weighted>
   9.000000E+99

> <Gold.Protein.RotatedTorsions>
[ 6907 6896 6895 6894 ] final   26.21 input  -60.11 | X-H torsion
[ 7974 7965 7964 7962 ] final  -74.34 input  175.53 | X-H torsion
[ 8008 7997 7996 7995 ] final  108.92 input   59.86 | X-H torsion
[ 10167 10162 10161 10158 ] final   15.88 input  -65.29 | X-H torsion
[ 10718 10713 10712 10709 ] final  -66.43 input   66.30 | X-H torsion
[ 10763 10752 10751 10750 ] final  -34.08 input  -60.55 | X-H torsion
[ 11005 11000 10999 10996 ] final -120.20 input  -57.11 | X-H torsion

> <Gold.Protein.ActiveResidues>
 VAL166  LYS551  ARG553  GLY616  TRP617  ASP618  TYR619  PRO620  LYS621  CYS622 
 ASP623  PHE694  ASN695  SER759  ASP760  ASP761  ALA762  ILE779  LEU786  VAL792 
 PHE793  MET794  SER795  GLU796  ALA797  LYS798  CYS799  TRP800  GLU811  SER814 

> <Gold.Protein.RotatedAtoms>
  151.9841  135.0013  160.0558 H   0  0  0  0  0  0  0  0  0  0  0  0  # atno 6907 bound_to 6896
  152.1669  133.4613  159.4897 H   0  0  0  0  0  0  0  0  0  0  0  0  # atno 6908 bound_to 6896
  150.6896  134.1919  159.4332 H   0  0  0  0  0  0  0  0  0  0  0  0  # atno 6909 bound_to 6896
  145.6404  140.9312  143.1039 H   0  0  0  0  0  0  0  0  0  0  0  0  # atno 7974 bound_to 7965
  156.1940  140.3067  155.9389 H   0  0  0  0  0  0  0  0  0  0  0  0  # atno 8008 bound_to 7997
  155.3109  140.0451  157.3052 H   0  0  0  0  0  0  0  0  0  0  0  0  # atno 8009 bound_to 7997
  154.5486  140.2284  155.8530 H   0  0  0  0  0  0  0  0  0  0  0  0  # atno 8010 bound_to 7997
  140.5836  143.8933  150.6811 H   0  0  0  0  0  0  0  0  0  0  0  0  # atno 10167 bound_to 10162
  156.0613  130.4262  150.1707 H   0  0  0  0  0  0  0  0  0  0  0  0  # atno 10718 bound_to 10713
  153.8409  135.6857  153.4803 H   0  0  0  0  0  0  0  0  0  0  0  0  # atno 10763 bound_to 10752
  153.1454  135.4640  154.9557 H   0  0  0  0  0  0  0  0  0  0  0  0  # atno 10764 bound_to 10752
  154.7845  135.3280  154.7862 H   0  0  0  0  0  0  0  0  0  0  0  0  # atno 10765 bound_to 10752
  141.0161  134.0194  157.3348 H   0  0  0  0  0  0  0  0  0  0  0  0  # atno 11005 bound_to 11000
  144.7159  139.8198  143.7399 LP  0  0  0  0  0  0  0  0  0  0  0  0  # atno 17320 bound_to 7965
  146.1285  139.4316  143.0183 LP  0  0  0  0  0  0  0  0  0  0  0  0  # atno 17321 bound_to 7965
  140.2438  143.3644  152.1464 LP  0  0  0  0  0  0  0  0  0  0  0  0  # atno 17342 bound_to 10162
  139.5184  144.7006  151.5505 LP  0  0  0  0  0  0  0  0  0  0  0  0  # atno 17343 bound_to 10162
  156.9775  130.9854  151.3445 LP  0  0  0  0  0  0  0  0  0  0  0  0  # atno 17370 bound_to 10713
  157.5623  130.8254  149.8282 LP  0  0  0  0  0  0  0  0  0  0  0  0  # atno 17371 bound_to 10713
  139.9117  135.0191  156.7720 LP  0  0  0  0  0  0  0  0  0  0  0  0  # atno 17394 bound_to 11000
  140.6653  133.9608  155.7827 LP  0  0  0  0  0  0  0  0  0  0  0  0  # atno 17395 bound_to 11000

$$$$
