AV-unprocessed.smi:1815|AV-procd|sdf|7352|dock5
  -GOLD-   22720 9 13D 1   1.00000     0.00000
 Structure written by MMmdl.
 39 40  0  0  0  0  0  0  0  0  1 V2000
  150.7700  137.5720  155.5982 C   0  0  0  0  0  0  0  0  0  0  0  0
  150.9685  138.6163  154.4863 C   0  0  1  0  0  0  0  0  0  0  0  0
  149.7307  138.7874  153.5833 C   0  0  0  0  0  0  0  0  0  0  0  0
  148.6496  139.5162  154.2423 N   0  0  0  0  0  0  0  0  0  0  0  0
  147.4838  139.6978  153.3766 C   0  0  0  0  0  0  0  0  0  0  0  0
  146.3395  138.6869  153.5896 C   0  0  0  0  0  0  0  0  0  0  0  0
  146.5650  137.4453  152.8563 N   0  0  0  0  0  0  0  0  0  0  0  0
  145.6085  136.5728  152.5087 C   0  0  0  0  0  0  0  0  0  0  0  0
  144.4143  136.7395  152.7592 O   0  0  0  0  0  0  0  0  0  0  0  0
  146.1275  135.5121  151.8657 N   0  0  0  0  0  0  0  0  0  0  0  0
  145.4437  134.3869  151.3346 C   0  0  0  0  0  0  0  0  0  0  0  0
  144.1128  134.2919  151.2308 N   0  0  0  0  0  0  0  0  0  0  0  0
  143.7157  133.0760  150.6686 C   0  0  0  0  0  0  0  0  0  0  0  0
  144.7649  132.2507  150.3480 C   0  0  0  0  0  0  0  0  0  0  0  0
  146.3026  132.9730  150.7403 S   0  0  0  0  0  0  0  0  0  0  0  0
  149.1579  140.7981  154.7116 C   0  0  0  0  0  0  0  0  0  0  0  0
  150.3541  140.6281  155.6653 C   0  0  2  0  0  0  0  0  0  0  0  0
  150.9484  141.9748  156.0906 C   0  0  0  0  0  0  0  0  0  0  0  0
  151.3782  139.8797  155.0123 O   0  0  0  0  0  0  0  0  0  0  0  0
  150.5703  136.5880  155.1736 H   0  0  0  0  0  0  0  0  0  0  0  0
  149.9327  137.8205  156.2502 H   0  0  0  0  0  0  0  0  0  0  0  0
  151.6633  137.4892  156.2173 H   0  0  0  0  0  0  0  0  0  0  0  0
  151.7908  138.2640  153.8630 H   0  0  0  0  0  0  0  0  0  0  0  0
  150.0258  139.3199  152.6780 H   0  0  0  0  0  0  0  0  0  0  0  0
  149.3894  137.8033  153.2639 H   0  0  0  0  0  0  0  0  0  0  0  0
  147.0778  140.6978  153.5362 H   0  0  0  0  0  0  0  0  0  0  0  0
  147.7958  139.6712  152.3316 H   0  0  0  0  0  0  0  0  0  0  0  0
  146.2309  138.4720  154.6537 H   0  0  0  0  0  0  0  0  0  0  0  0
  145.3848  139.1072  153.2748 H   0  0  0  0  0  0  0  0  0  0  0  0
  147.5206  137.2276  152.6157 H   0  0  0  0  0  0  0  0  0  0  0  0
  147.1289  135.5095  151.7396 H   0  0  0  0  0  0  0  0  0  0  0  0
  142.6625  132.8799  150.5326 H   0  0  0  0  0  0  0  0  0  0  0  0
  144.7259  131.2660  149.9064 H   0  0  0  0  0  0  0  0  0  0  0  0
  149.4538  141.4119  153.8592 H   0  0  0  0  0  0  0  0  0  0  0  0
  148.3649  141.3421  155.2266 H   0  0  0  0  0  0  0  0  0  0  0  0
  150.0325  140.0968  156.5615 H   0  0  0  0  0  0  0  0  0  0  0  0
  150.2077  142.5855  156.6073 H   0  0  0  0  0  0  0  0  0  0  0  0
  151.3047  142.5386  155.2280 H   0  0  0  0  0  0  0  0  0  0  0  0
  151.7917  141.8320  156.7665 H   0  0  0  0  0  0  0  0  0  0  0  0
  1  2  1  0  0  0  0
  1 20  1  0  0  0  0
  1 21  1  0  0  0  0
  1 22  1  0  0  0  0
  2 19  1  0  0  0  0
  2  3  1  0  0  0  0
  2 23  1  0  0  0  0
  3  4  1  0  0  0  0
  3 24  1  0  0  0  0
  3 25  1  0  0  0  0
  4  5  1  0  0  0  0
  4 16  1  0  0  0  0
  5  6  1  0  0  0  0
  5 26  1  0  0  0  0
  5 27  1  0  0  0  0
  6  7  1  0  0  0  0
  6 28  1  0  0  0  0
  6 29  1  0  0  0  0
  7  8  1  0  0  0  0
  7 30  1  0  0  0  0
  8  9  2  0  0  0  0
  8 10  1  0  0  0  0
 10 11  1  0  0  0  0
 10 31  1  0  0  0  0
 11 15  1  0  0  0  0
 11 12  2  0  0  0  0
 12 13  1  0  0  0  0
 13 14  2  0  0  0  0
 13 32  1  0  0  0  0
 14 15  1  0  0  0  0
 14 33  1  0  0  0  0
 16 17  1  0  0  0  0
 16 34  1  0  0  0  0
 16 35  1  0  0  0  0
 17 18  1  0  0  0  0
 17 19  1  0  0  0  0
 17 36  1  0  0  0  0
 18 37  1  0  0  0  0
 18 38  1  0  0  0  0
 18 39  1  0  0  0  0
M  END
> <s_m_source_file>
AV-unprocessed.smi

> <i_m_source_file_index>
1815

> <i_lp_mmshare_version>
43012

> <i_f3d_flags>
0

> <s_epik_input>
W0NIM11bQ0BASF0xW0NIMl1OKFtDSDJdW0NASF0oTzEpW0NIM10pW0NIMl1bQ0gyXVtOSF1DKD1PKVtOSF1jMm5bY0hdW2NIXXMy

> <s_epik_cmdline>
J2VwaWtfcHl0aG9uJywgJy1waCcsICc3LjAnLCAnLXRuJywgJzgnLCAnLW1hJywgJzIwMCcsICctbWV0YWxfYmluZGluZycsICctaW1hZScsICc8aW5maWxlLm1hZT4nLCAnLW9tYWUnLCAnPG91dGZpbGUubWFlPic=

> <r_lp_tautomer_probability>
0.999

> <r_epik_Ionization_Penalty>
0.219201

> <r_epik_Ionization_Penalty_Charging>
0

> <r_epik_Ionization_Penalty_Neutral>
0.219201

> <r_epik_State_Penalty>
0.209349

> <r_epik_Charging_Adjusted_Penalty>
0.209349

> <i_epik_Tot_Q>
0

> <i_epik_Tot_abs_Q>
0

> <r_epik_Metal_State_Penalty>
0.247737

> <b_epik_Metal_Only>
0

> <s_lp_Force_Field>
OPLS_2005

> <r_lp_Energy>
25.7567

> <b_lp_Chiralities_Consistent>
1

> <s_lp_Variant>
AV-unprocessed.smi:1815-3

> <Gold.Version>
5.8.1

> <Gold.Id.Protein>
6NUR|6NUR_protein|mol2

> <Gold.PLP.Fitness>
41.0411

> <Gold.PLP.PLP>
-30.7828

> <Gold.PLP.part.hbond>
-3.0000

> <Gold.PLP.part.metal>
0.0000

> <Gold.PLP.part.buried>
-1.8523

> <Gold.PLP.part.nonpolar>
-26.8798

> <Gold.PLP.part.repulsive>
0.6095

> <Gold.PLP.ligand.clash>
0.0000

> <Gold.PLP.ligand.torsion>
0.8548

> <Gold.PLP.Chemscore.Hbond>
3.0000

> <Gold.PLP.Chemscore.CHOScore>
0.9884

> <Gold.PLP.Chemscore.Metal>
0.0000

> <Gold.Chemscore.Hbonds>
donor molecule, donor type, donor heavy atom, donor atom, acceptor molecule, acceptor atom, score
      L1  H     7    30       P1  7948  1.00
      L1  H    10    31       P1  7948  1.00
      P1  H  7989  7998       L1    19  1.00
      L1  C    13    32       P1 10186  0.93

> <Gold.PLP.Chemscore.Internal.Correction>
0.0028

> <Gold.Rescore>
     Score         DG    S(hbond)    S(metal)    S(lipo)     H(rot)  DE(clash)    DE(int)     intcor
     14.40     -16.67       1.92        0.00      75.80       1.60       0.12       2.15       ----

> <Gold.Chemscore.Fitness>
14.4004

> <Gold.Chemscore.DG>
-16.6672

> <Gold.Chemscore.ZeroCoef>
-5.4800

> <Gold.Chemscore.Hbond>
1.9206

> <Gold.Chemscore.Metal>
0.0000

> <Gold.Chemscore.Lipo>
75.8001

> <Gold.Chemscore.Internal_Hbond>
0.0000

> <Gold.Chemscore.DEClash>
0.1172

> <Gold.Chemscore.DEInternal>
2.1496

> <Gold.Chemscore.Rot>
1.6001

> <Gold.Chemscore.Internal.Correction>
   9.000000E+99

> <Gold.Chemscore.Hbonds>
donor molecule, donor type, donor heavy atom, donor atom, acceptor molecule, acceptor atom, score
      L1  H     7    30       P1  7948  0.99
      L1  H    10    31       P1  7948  0.98
      P1  H  7989  7998       L1    19  0.14

> <Gold.Chemscore.Hbond.Weighted>
-6.4148

> <Gold.Chemscore.Metal.Weighted>
-0.0000

> <Gold.Chemscore.Lipo.Weighted>
-8.8686

> <Gold.Chemscore.Internal_Hbond.Weighted>
0.0000

> <Gold.Chemscore.DEClash.Weighted>
0.1172

> <Gold.Chemscore.DEInternal.Weighted>
2.1496

> <Gold.Chemscore.Rot.Weighted>
4.0963

> <Gold.Chemscore.Internal.Correction.Weighted>
   9.000000E+99

> <Gold.Protein.RotatedTorsions>
[ 6907 6896 6895 6894 ] final  -39.58 input  -60.11 | X-H torsion
[ 7974 7965 7964 7962 ] final -169.05 input  175.53 | X-H torsion
[ 8008 7997 7996 7995 ] final  172.12 input   59.86 | X-H torsion
[ 10167 10162 10161 10158 ] final   56.49 input  -65.29 | X-H torsion
[ 10718 10713 10712 10709 ] final -115.87 input   66.30 | X-H torsion
[ 10763 10752 10751 10750 ] final  145.39 input  -60.55 | X-H torsion
[ 11005 11000 10999 10996 ] final  -43.54 input  -57.11 | X-H torsion

> <Gold.Protein.ActiveResidues>
 VAL166  LYS551  ARG553  GLY616  TRP617  ASP618  TYR619  PRO620  LYS621  CYS622 
 ASP623  PHE694  ASN695  SER759  ASP760  ASP761  ALA762  ILE779  LEU786  VAL792 
 PHE793  MET794  SER795  GLU796  ALA797  LYS798  CYS799  TRP800  GLU811  SER814 

> <Gold.Protein.RotatedAtoms>
  150.9886  134.9226  159.7886 H   0  0  0  0  0  0  0  0  0  0  0  0  # atno 6907 bound_to 6896
  152.5244  134.3312  159.9193 H   0  0  0  0  0  0  0  0  0  0  0  0  # atno 6908 bound_to 6896
  151.3318  133.3956  159.2698 H   0  0  0  0  0  0  0  0  0  0  0  0  # atno 6909 bound_to 6896
  144.7192  140.2279  143.6308 H   0  0  0  0  0  0  0  0  0  0  0  0  # atno 7974 bound_to 7965
  156.1205  140.1494  156.9211 H   0  0  0  0  0  0  0  0  0  0  0  0  # atno 8008 bound_to 7997
  154.4832  140.0873  156.7469 H   0  0  0  0  0  0  0  0  0  0  0  0  # atno 8009 bound_to 7997
  155.4436  140.3432  155.4295 H   0  0  0  0  0  0  0  0  0  0  0  0  # atno 8010 bound_to 7997
  140.2081  144.3917  150.6500 H   0  0  0  0  0  0  0  0  0  0  0  0  # atno 10167 bound_to 10162
  156.0925  130.6104  150.8962 H   0  0  0  0  0  0  0  0  0  0  0  0  # atno 10718 bound_to 10713
  154.0046  135.2920  155.3399 H   0  0  0  0  0  0  0  0  0  0  0  0  # atno 10763 bound_to 10752
  154.7139  135.5138  153.8711 H   0  0  0  0  0  0  0  0  0  0  0  0  # atno 10764 bound_to 10752
  153.0750  135.6660  154.0284 H   0  0  0  0  0  0  0  0  0  0  0  0  # atno 10765 bound_to 10752
  141.0390  133.6787  156.2747 H   0  0  0  0  0  0  0  0  0  0  0  0  # atno 11005 bound_to 11000
  145.8439  139.2143  143.1811 LP  0  0  0  0  0  0  0  0  0  0  0  0  # atno 17320 bound_to 7965
  146.0322  140.8247  142.9870 LP  0  0  0  0  0  0  0  0  0  0  0  0  # atno 17321 bound_to 7965
  140.6343  143.2192  151.6429 LP  0  0  0  0  0  0  0  0  0  0  0  0  # atno 17342 bound_to 10162
  139.5190  144.3266  152.0864 LP  0  0  0  0  0  0  0  0  0  0  0  0  # atno 17343 bound_to 10162
  157.6078  131.0938  150.8849 LP  0  0  0  0  0  0  0  0  0  0  0  0  # atno 17370 bound_to 10713
  156.8994  130.5241  149.5283 LP  0  0  0  0  0  0  0  0  0  0  0  0  # atno 17371 bound_to 10713
  140.6268  134.5304  157.5555 LP  0  0  0  0  0  0  0  0  0  0  0  0  # atno 17394 bound_to 11000
  139.9262  134.8052  156.1062 LP  0  0  0  0  0  0  0  0  0  0  0  0  # atno 17395 bound_to 11000

$$$$
