AV-unprocessed.smi:208|AV-procd|sdf|1606|dock8
  -GOLD-   2262019523D 1   1.00000     0.00000
 Structure written by MMmdl.
 50 53  0  0  0  0  0  0  0  0  1 V2000
  148.7682  141.3705  154.8789 C   0  0  0  0  0  0  0  0  0  0  0  0
  149.3239  142.0473  156.1415 C   0  0  0  0  0  0  0  0  0  0  0  0
  150.8514  141.8668  156.3620 C   0  0  1  0  0  0  0  0  0  0  0  0
  151.3982  143.0291  157.2209 C   0  0  0  0  0  0  0  0  0  0  0  0
  151.4375  144.1538  156.7190 O   0  0  0  0  0  0  0  0  0  0  0  0
  151.8244  142.7914  158.4843 N   0  0  0  0  0  0  0  0  0  0  0  0
  152.3531  143.8784  159.3097 C   0  0  0  0  0  0  0  0  0  0  0  0
  151.8278  141.4708  159.1265 C   0  0  0  0  0  0  0  0  0  0  0  0
  151.0001  140.4091  158.3889 C   0  0  0  0  0  0  0  0  0  0  0  0
  151.1654  140.5545  156.9463 N   0  0  0  0  0  0  0  0  0  0  0  0
  151.0706  139.4472  156.1630 C   0  0  0  0  0  0  0  0  0  0  0  0
  150.9431  139.5971  154.8173 N   0  0  0  0  0  0  0  0  0  0  0  0
  150.8853  138.5285  154.0185 C   0  0  0  0  0  0  0  0  0  0  0  0
  150.9327  137.2377  154.3493 N   0  0  0  0  0  0  0  0  0  0  0  0
  151.0412  137.0754  155.6981 C   0  0  0  0  0  0  0  0  0  0  0  0
  151.1157  138.1155  156.6690 C   0  0  0  0  0  0  0  0  0  0  0  0
  151.2104  137.5620  157.9406 N   0  0  0  0  0  0  0  0  0  0  0  0
  151.2116  136.2745  157.7328 C   0  0  0  0  0  0  0  0  0  0  0  0
  151.1035  135.8926  156.4149 N   0  0  0  0  0  0  0  0  0  0  0  0
  151.0788  134.5281  155.9081 C   0  0  0  0  0  0  0  0  0  0  0  0
  149.6665  133.9308  155.7476 C   0  0  0  0  0  0  0  0  0  0  0  0
  149.0506  133.7061  157.1446 C   0  0  0  0  0  0  0  0  0  0  0  0
  149.8793  132.9259  157.9834 O   0  0  0  0  0  0  0  0  0  0  0  0
  148.7549  134.6079  154.7133 C   0  0  0  0  0  0  0  0  0  0  0  0
  148.5027  133.3587  154.0331 O   0  0  0  0  0  0  0  0  0  0  0  0
  149.5822  132.7472  154.7724 C   0  0  0  0  0  0  0  0  0  0  0  0
  147.7330  141.6676  154.7106 H   0  0  0  0  0  0  0  0  0  0  0  0
  148.7783  140.2848  154.9563 H   0  0  0  0  0  0  0  0  0  0  0  0
  149.3403  141.6520  153.9945 H   0  0  0  0  0  0  0  0  0  0  0  0
  149.0942  143.1097  156.0474 H   0  0  0  0  0  0  0  0  0  0  0  0
  148.7653  141.7084  157.0141 H   0  0  0  0  0  0  0  0  0  0  0  0
  151.3496  141.9762  155.4008 H   0  0  0  0  0  0  0  0  0  0  0  0
  151.5654  144.5952  159.5457 H   0  0  0  0  0  0  0  0  0  0  0  0
  153.1535  144.4080  158.7905 H   0  0  0  0  0  0  0  0  0  0  0  0
  152.7644  143.5142  160.2520 H   0  0  0  0  0  0  0  0  0  0  0  0
  152.8661  141.1394  159.1736 H   0  0  0  0  0  0  0  0  0  0  0  0
  151.4799  141.5492  160.1574 H   0  0  0  0  0  0  0  0  0  0  0  0
  151.3090  139.4222  158.7367 H   0  0  0  0  0  0  0  0  0  0  0  0
  149.9443  140.5168  158.6394 H   0  0  0  0  0  0  0  0  0  0  0  0
  150.7908  138.7378  152.9631 H   0  0  0  0  0  0  0  0  0  0  0  0
  151.2829  135.5629  158.5426 H   0  0  0  0  0  0  0  0  0  0  0  0
  151.6112  134.5171  154.9562 H   0  0  0  0  0  0  0  0  0  0  0  0
  151.6718  133.9085  156.5819 H   0  0  0  0  0  0  0  0  0  0  0  0
  148.8632  134.6573  157.6437 H   0  0  0  0  0  0  0  0  0  0  0  0
  148.0933  133.1895  157.0743 H   0  0  0  0  0  0  0  0  0  0  0  0
  150.2294  132.2078  157.4783 H   0  0  0  0  0  0  0  0  0  0  0  0
  147.8509  135.0493  155.1342 H   0  0  0  0  0  0  0  0  0  0  0  0
  149.2656  135.3169  154.0612 H   0  0  0  0  0  0  0  0  0  0  0  0
  150.4716  132.6201  154.1530 H   0  0  0  0  0  0  0  0  0  0  0  0
  149.2962  131.8007  155.2321 H   0  0  0  0  0  0  0  0  0  0  0  0
  1  2  1  0  0  0  0
  1 27  1  0  0  0  0
  1 28  1  0  0  0  0
  1 29  1  0  0  0  0
  2  3  1  0  0  0  0
  2 30  1  0  0  0  0
  2 31  1  0  0  0  0
  3 10  1  0  0  0  0
  3  4  1  0  0  0  0
  3 32  1  0  0  0  0
  4  5  2  0  0  0  0
  4  6  1  0  0  0  0
  6  7  1  0  0  0  0
  6  8  1  0  0  0  0
  7 33  1  0  0  0  0
  7 34  1  0  0  0  0
  7 35  1  0  0  0  0
  8  9  1  0  0  0  0
  8 36  1  0  0  0  0
  8 37  1  0  0  0  0
  9 10  1  0  0  0  0
  9 38  1  0  0  0  0
  9 39  1  0  0  0  0
 10 11  1  0  0  0  0
 11 16  1  0  0  0  0
 11 12  2  0  0  0  0
 12 13  1  0  0  0  0
 13 14  2  0  0  0  0
 13 40  1  0  0  0  0
 14 15  1  0  0  0  0
 15 19  1  0  0  0  0
 15 16  2  0  0  0  0
 16 17  1  0  0  0  0
 17 18  2  0  0  0  0
 18 19  1  0  0  0  0
 18 41  1  0  0  0  0
 19 20  1  0  0  0  0
 20 21  1  0  0  0  0
 20 42  1  0  0  0  0
 20 43  1  0  0  0  0
 21 26  1  0  0  0  0
 21 22  1  0  0  0  0
 21 24  1  0  0  0  0
 22 23  1  0  0  0  0
 22 44  1  0  0  0  0
 22 45  1  0  0  0  0
 23 46  1  0  0  0  0
 24 25  1  0  0  0  0
 24 47  1  0  0  0  0
 24 48  1  0  0  0  0
 25 26  1  0  0  0  0
 26 49  1  0  0  0  0
 26 50  1  0  0  0  0
M  END
> <s_m_source_file>
AV-unprocessed.smi

> <i_m_source_file_index>
208

> <i_lp_mmshare_version>
43012

> <i_f3d_flags>
0

> <s_epik_input>
W0NIM11bQ0gyXVtDQEBIXTFDKD1PKU4oW0NIM10pW0NIMl1bQ0gyXU4xYyhuW2NIXW4yKWMoYzIzKW5bY0hdbjNbQ0gyXUM0KFtDSDJdW09IXSlbQ0gyXU9bQ0gyXTQ=

> <s_epik_cmdline>
J2VwaWtfcHl0aG9uJywgJy1waCcsICc3LjAnLCAnLXRuJywgJzgnLCAnLW1hJywgJzIwMCcsICctbWV0YWxfYmluZGluZycsICctaW1hZScsICc8aW5maWxlLm1hZT4nLCAnLW9tYWUnLCAnPG91dGZpbGUubWFlPic=

> <r_lp_tautomer_probability>
1

> <r_epik_Ionization_Penalty>
0.000581289

> <r_epik_Ionization_Penalty_Charging>
0

> <r_epik_Ionization_Penalty_Neutral>
0.000581289

> <r_epik_State_Penalty>
0.000280365

> <r_epik_Charging_Adjusted_Penalty>
0.000280365

> <i_epik_Tot_Q>
0

> <i_epik_Tot_abs_Q>
0

> <r_epik_Metal_State_Penalty>
-0

> <b_epik_Metal_Only>
0

> <s_lp_Force_Field>
OPLS_2005

> <r_lp_Energy>
42.9171

> <b_lp_Chiralities_Consistent>
1

> <s_lp_Variant>
AV-unprocessed.smi:208-2

> <Gold.Version>
5.8.1

> <Gold.Id.Protein>
6NUR|6NUR_protein|mol2

> <Gold.PLP.Fitness>
38.8016

> <Gold.PLP.PLP>
-31.7463

> <Gold.PLP.part.hbond>
-2.0000

> <Gold.PLP.part.metal>
0.0000

> <Gold.PLP.part.buried>
-2.1965

> <Gold.PLP.part.nonpolar>
-30.8351

> <Gold.PLP.part.repulsive>
2.4556

> <Gold.PLP.ligand.clash>
0.0000

> <Gold.PLP.ligand.torsion>
0.9034

> <Gold.PLP.Chemscore.Hbond>
1.9000

> <Gold.PLP.Chemscore.CHOScore>
0.8913

> <Gold.PLP.Chemscore.Metal>
0.0000

> <Gold.Chemscore.Hbonds>
donor molecule, donor type, donor heavy atom, donor atom, acceptor molecule, acceptor atom, score
      P1  H  6896  6908       L1    23  1.00
      P1  H  7989  7998       L1    12  0.85
      L1  C    13    40       P1  7957  0.90

> <Gold.PLP.Chemscore.Internal.Correction>
0.4883

> <Gold.Rescore>
     Score         DG    S(hbond)    S(metal)    S(lipo)     H(rot)  DE(clash)    DE(int)     intcor
      5.24     -11.65       1.18        0.00      72.96       2.46       2.77       3.64       ----

> <Gold.Chemscore.Fitness>
5.2412

> <Gold.Chemscore.DG>
-11.6509

> <Gold.Chemscore.ZeroCoef>
-5.4800

> <Gold.Chemscore.Hbond>
1.1770

> <Gold.Chemscore.Metal>
0.0000

> <Gold.Chemscore.Lipo>
72.9640

> <Gold.Chemscore.Internal_Hbond>
0.0000

> <Gold.Chemscore.DEClash>
2.7687

> <Gold.Chemscore.DEInternal>
3.6410

> <Gold.Chemscore.Rot>
2.4598

> <Gold.Chemscore.Internal.Correction>
   9.000000E+99

> <Gold.Chemscore.Hbonds>
donor molecule, donor type, donor heavy atom, donor atom, acceptor molecule, acceptor atom, score
      P1  H  6896  6908       L1    23  0.68
      P1  H  7989  7998       L1    12  0.14

> <Gold.Chemscore.Hbond.Weighted>
-3.9313

> <Gold.Chemscore.Metal.Weighted>
-0.0000

> <Gold.Chemscore.Lipo.Weighted>
-8.5368

> <Gold.Chemscore.Internal_Hbond.Weighted>
0.0000

> <Gold.Chemscore.DEClash.Weighted>
2.7687

> <Gold.Chemscore.DEInternal.Weighted>
3.6410

> <Gold.Chemscore.Rot.Weighted>
6.2972

> <Gold.Chemscore.Internal.Correction.Weighted>
   9.000000E+99

> <Gold.Protein.RotatedTorsions>
[ 6907 6896 6895 6894 ] final   91.07 input  -60.11 | X-H torsion
[ 7974 7965 7964 7962 ] final   11.48 input  175.53 | X-H torsion
[ 8008 7997 7996 7995 ] final  -96.53 input   59.86 | X-H torsion
[ 10167 10162 10161 10158 ] final  -23.05 input  -65.29 | X-H torsion
[ 10718 10713 10712 10709 ] final  119.31 input   66.30 | X-H torsion
[ 10763 10752 10751 10750 ] final    2.81 input  -60.55 | X-H torsion
[ 11005 11000 10999 10996 ] final  169.34 input  -57.11 | X-H torsion

> <Gold.Protein.ActiveResidues>
 VAL166  LYS551  ARG553  GLY616  TRP617  ASP618  TYR619  PRO620  LYS621  CYS622 
 ASP623  PHE694  ASN695  SER759  ASP760  ASP761  ALA762  ILE779  LEU786  VAL792 
 PHE793  MET794  SER795  GLU796  ALA797  LYS798  CYS799  TRP800  GLU811  SER814 

> <Gold.Protein.RotatedAtoms>
  152.5448  134.1713  159.8597 H   0  0  0  0  0  0  0  0  0  0  0  0  # atno 6907 bound_to 6896
  151.1723  133.4769  159.2601 H   0  0  0  0  0  0  0  0  0  0  0  0  # atno 6908 bound_to 6896
  151.1262  135.0117  159.8616 H   0  0  0  0  0  0  0  0  0  0  0  0  # atno 6909 bound_to 6896
  146.2370  139.9478  142.8474 H   0  0  0  0  0  0  0  0  0  0  0  0  # atno 7974 bound_to 7965
  154.7756  140.0470  157.1087 H   0  0  0  0  0  0  0  0  0  0  0  0  # atno 8008 bound_to 7997
  154.9766  140.3096  155.4945 H   0  0  0  0  0  0  0  0  0  0  0  0  # atno 8009 bound_to 7997
  156.2928  140.2243  156.4863 H   0  0  0  0  0  0  0  0  0  0  0  0  # atno 8010 bound_to 7997
  140.7287  143.4479  151.0560 H   0  0  0  0  0  0  0  0  0  0  0  0  # atno 10167 bound_to 10162
  157.5970  131.1056  150.7878 H   0  0  0  0  0  0  0  0  0  0  0  0  # atno 10718 bound_to 10713
  153.2910  135.6948  153.7293 H   0  0  0  0  0  0  0  0  0  0  0  0  # atno 10763 bound_to 10752
  153.6244  135.3421  155.3022 H   0  0  0  0  0  0  0  0  0  0  0  0  # atno 10764 bound_to 10752
  154.8524  135.4394  154.1992 H   0  0  0  0  0  0  0  0  0  0  0  0  # atno 10765 bound_to 10752
  140.2967  134.7629  157.3883 H   0  0  0  0  0  0  0  0  0  0  0  0  # atno 11005 bound_to 11000
  145.1890  140.9803  143.4222 LP  0  0  0  0  0  0  0  0  0  0  0  0  # atno 17320 bound_to 7965
  144.9874  139.3723  143.6232 LP  0  0  0  0  0  0  0  0  0  0  0  0  # atno 17321 bound_to 7965
  139.8152  143.7896  152.3174 LP  0  0  0  0  0  0  0  0  0  0  0  0  # atno 17342 bound_to 10162
  139.7959  144.7392  150.9891 LP  0  0  0  0  0  0  0  0  0  0  0  0  # atno 17343 bound_to 10162
  156.8286  130.5008  149.5334 LP  0  0  0  0  0  0  0  0  0  0  0  0  # atno 17370 bound_to 10713
  156.1035  130.5987  150.9933 LP  0  0  0  0  0  0  0  0  0  0  0  0  # atno 17371 bound_to 10713
  140.1146  134.5300  155.8236 LP  0  0  0  0  0  0  0  0  0  0  0  0  # atno 17394 bound_to 11000
  141.2136  133.6736  156.6753 LP  0  0  0  0  0  0  0  0  0  0  0  0  # atno 17395 bound_to 11000

$$$$
