AV-unprocessed.smi:2198|AV-procd|sdf|8917|dock3
  -GOLD-   2272012133D 1   1.00000     0.00000
 Structure written by MMmdl.
 43 44  0  0  0  0  0  0  0  0  1 V2000
  149.7299  134.2515  155.0715 C   0  0  0  0  0  0  0  0  0  0  0  0
  150.0269  135.7350  155.1053 C   0  0  0  0  0  0  0  0  0  0  0  0
  148.9285  136.5153  155.4258 N   0  0  0  0  0  0  0  0  0  0  0  0
  149.1037  137.8865  155.4871 C   0  0  0  0  0  0  0  0  0  0  0  0
  147.8523  138.6661  155.8519 C   0  0  0  0  0  0  0  0  0  0  0  0
  150.3116  138.4524  155.2348 C   0  0  0  0  0  0  0  0  0  0  0  0
  150.5462  139.9606  155.2904 C   0  0  0  0  0  0  0  0  0  0  0  0
  151.5702  140.4222  156.3287 C   0  0  0  0  0  0  0  0  0  0  0  0
  152.6476  139.8365  156.4318 O   0  0  0  0  0  0  0  0  0  0  0  0
  151.2254  141.4763  157.0845 N   0  0  0  0  0  0  0  0  0  0  0  0
  152.0608  142.0875  158.1133 C   0  0  2  0  0  0  0  0  0  0  0  0
  152.0427  141.2414  159.4019 C   0  0  0  0  0  0  0  0  0  0  0  0
  152.8554  141.9115  160.5202 C   0  0  0  0  0  0  0  0  0  0  0  0
  152.3621  143.3418  160.7901 C   0  0  0  0  0  0  0  0  0  0  0  0
  152.3847  144.1980  159.5095 C   0  0  2  0  0  0  0  0  0  0  0  0
  151.8889  145.6256  159.7796 C   0  0  0  0  0  0  0  0  0  0  0  0
  151.5671  143.5192  158.3932 C   0  0  0  0  0  0  0  0  0  0  0  0
  151.4474  137.5660  154.8866 C   0  0  0  0  0  0  0  0  0  0  0  0
  152.5630  138.0179  154.6320 O   0  0  0  0  0  0  0  0  0  0  0  0
  151.2187  136.1810  154.8476 N   0  0  0  0  0  0  0  0  0  0  0  0
  148.0127  136.1353  155.6176 H   0  0  0  0  0  0  0  0  0  0  0  0
  150.6428  133.6742  154.9196 H   0  0  0  0  0  0  0  0  0  0  0  0
  149.0416  134.0213  154.2578 H   0  0  0  0  0  0  0  0  0  0  0  0
  149.2777  133.9307  156.0105 H   0  0  0  0  0  0  0  0  0  0  0  0
  148.0084  139.2321  156.7703 H   0  0  0  0  0  0  0  0  0  0  0  0
  146.9992  138.0050  156.0094 H   0  0  0  0  0  0  0  0  0  0  0  0
  147.5912  139.3635  155.0557 H   0  0  0  0  0  0  0  0  0  0  0  0
  149.6115  140.4905  155.4760 H   0  0  0  0  0  0  0  0  0  0  0  0
  150.8591  140.2984  154.3017 H   0  0  0  0  0  0  0  0  0  0  0  0
  150.3192  141.8932  156.9287 H   0  0  0  0  0  0  0  0  0  0  0  0
  153.0877  142.1509  157.7475 H   0  0  0  0  0  0  0  0  0  0  0  0
  151.0144  141.0994  159.7375 H   0  0  0  0  0  0  0  0  0  0  0  0
  152.4440  140.2464  159.2058 H   0  0  0  0  0  0  0  0  0  0  0  0
  152.7914  141.3178  161.4326 H   0  0  0  0  0  0  0  0  0  0  0  0
  153.9093  141.9351  160.2403 H   0  0  0  0  0  0  0  0  0  0  0  0
  151.3492  143.3066  161.1939 H   0  0  0  0  0  0  0  0  0  0  0  0
  152.9845  143.8026  161.5579 H   0  0  0  0  0  0  0  0  0  0  0  0
  153.4197  144.2691  159.1715 H   0  0  0  0  0  0  0  0  0  0  0  0
  150.8535  145.6284  160.1220 H   0  0  0  0  0  0  0  0  0  0  0  0
  151.9431  146.2372  158.8786 H   0  0  0  0  0  0  0  0  0  0  0  0
  152.4938  146.1130  160.5446 H   0  0  0  0  0  0  0  0  0  0  0  0
  151.6269  144.1127  157.4797 H   0  0  0  0  0  0  0  0  0  0  0  0
  150.5135  143.4957  158.6763 H   0  0  0  0  0  0  0  0  0  0  0  0
  1 22  1  0  0  0  0
  1 23  1  0  0  0  0
  1 24  1  0  0  0  0
  1  2  1  0  0  0  0
  2  3  1  0  0  0  0
  2 20  2  0  0  0  0
  3  4  1  0  0  0  0
  3 21  1  0  0  0  0
  4  6  2  0  0  0  0
  4  5  1  0  0  0  0
  5 25  1  0  0  0  0
  5 26  1  0  0  0  0
  5 27  1  0  0  0  0
  6 18  1  0  0  0  0
  6  7  1  0  0  0  0
  7  8  1  0  0  0  0
  7 28  1  0  0  0  0
  7 29  1  0  0  0  0
  8  9  2  0  0  0  0
  8 10  1  0  0  0  0
 10 11  1  0  0  0  0
 10 30  1  0  0  0  0
 11 17  1  0  0  0  0
 11 12  1  0  0  0  0
 11 31  1  0  0  0  0
 12 13  1  0  0  0  0
 12 32  1  0  0  0  0
 12 33  1  0  0  0  0
 13 14  1  0  0  0  0
 13 34  1  0  0  0  0
 13 35  1  0  0  0  0
 14 15  1  0  0  0  0
 14 36  1  0  0  0  0
 14 37  1  0  0  0  0
 15 16  1  0  0  0  0
 15 17  1  0  0  0  0
 15 38  1  0  0  0  0
 16 39  1  0  0  0  0
 16 40  1  0  0  0  0
 16 41  1  0  0  0  0
 17 42  1  0  0  0  0
 17 43  1  0  0  0  0
 18 19  2  0  0  0  0
 18 20  1  0  0  0  0
M  END
> <s_m_source_file>
AV-unprocessed.smi

> <i_m_source_file_index>
2198

> <i_lp_mmshare_version>
43012

> <i_f3d_flags>
0

> <s_epik_input>
W0NIM11jMW5jKFtDSDNdKWMoYyg9TylbbkhdMSlbQ0gyXUMoPU8pW05IXVtDQEBIXTJbQ0gyXVtDSDJdW0NIMl1bQ0BASF0oW0NIM10pW0NIMl0y

> <s_epik_cmdline>
J2VwaWtfcHl0aG9uJywgJy1waCcsICc3LjAnLCAnLXRuJywgJzgnLCAnLW1hJywgJzIwMCcsICctbWV0YWxfYmluZGluZycsICctaW1hZScsICc8aW5maWxlLm1hZT4nLCAnLW9tYWUnLCAnPG91dGZpbGUubWFlPic=

> <r_lp_tautomer_probability>
0.156392

> <r_epik_Ionization_Penalty>
0.0136514

> <r_epik_Ionization_Penalty_Charging>
0.0135207

> <r_epik_Ionization_Penalty_Neutral>
0.000130657

> <r_epik_State_Penalty>
1.15342

> <r_epik_Charging_Adjusted_Penalty>
1.16694

> <i_epik_Tot_Q>
0

> <i_epik_Tot_abs_Q>
0

> <r_epik_Metal_State_Penalty>
1.31404

> <b_epik_Metal_Only>
0

> <s_lp_Force_Field>
OPLS_2005

> <r_lp_Energy>
14.0485

> <b_lp_Chiralities_Consistent>
1

> <s_lp_Variant>
AV-unprocessed.smi:2198-7

> <Gold.Version>
5.8.1

> <Gold.Id.Protein>
6NUR|6NUR_protein|mol2

> <Gold.PLP.Fitness>
45.5179

> <Gold.PLP.PLP>
-40.3844

> <Gold.PLP.part.hbond>
-2.5967

> <Gold.PLP.part.metal>
0.0000

> <Gold.PLP.part.buried>
-4.8633

> <Gold.PLP.part.nonpolar>
-32.9776

> <Gold.PLP.part.repulsive>
0.3071

> <Gold.PLP.ligand.clash>
0.0000

> <Gold.PLP.ligand.torsion>
0.4359

> <Gold.PLP.Chemscore.Hbond>
2.0000

> <Gold.PLP.Chemscore.CHOScore>
0.0000

> <Gold.PLP.Chemscore.Metal>
0.0000

> <Gold.Chemscore.Hbonds>
donor molecule, donor type, donor heavy atom, donor atom, acceptor molecule, acceptor atom, score
      P1  H  7997  8008       L1     9  1.00
      P1  H 10752 10763       L1    20  0.95

> <Gold.PLP.Chemscore.Internal.Correction>
0.0054

> <Gold.Rescore>
     Score         DG    S(hbond)    S(metal)    S(lipo)     H(rot)  DE(clash)    DE(int)     intcor
     15.66     -19.01       1.90        0.00      93.77       1.48       0.35       3.00       ----

> <Gold.Chemscore.Fitness>
15.6550

> <Gold.Chemscore.DG>
-19.0126

> <Gold.Chemscore.ZeroCoef>
-5.4800

> <Gold.Chemscore.Hbond>
1.9015

> <Gold.Chemscore.Metal>
0.0000

> <Gold.Chemscore.Lipo>
93.7672

> <Gold.Chemscore.Internal_Hbond>
0.0000

> <Gold.Chemscore.DEClash>
0.3530

> <Gold.Chemscore.DEInternal>
3.0046

> <Gold.Chemscore.Rot>
1.4801

> <Gold.Chemscore.Internal.Correction>
   9.000000E+99

> <Gold.Chemscore.Hbonds>
donor molecule, donor type, donor heavy atom, donor atom, acceptor molecule, acceptor atom, score
      P1  H  7997  8008       L1     9  1.00
      P1  H 10752 10763       L1    20  0.22

> <Gold.Chemscore.Hbond.Weighted>
-6.3510

> <Gold.Chemscore.Metal.Weighted>
-0.0000

> <Gold.Chemscore.Lipo.Weighted>
-10.9708

> <Gold.Chemscore.Internal_Hbond.Weighted>
0.0000

> <Gold.Chemscore.DEClash.Weighted>
0.3530

> <Gold.Chemscore.DEInternal.Weighted>
3.0046

> <Gold.Chemscore.Rot.Weighted>
3.7891

> <Gold.Chemscore.Internal.Correction.Weighted>
   9.000000E+99

> <Gold.Protein.RotatedTorsions>
[ 6907 6896 6895 6894 ] final -165.03 input  -60.11 | X-H torsion
[ 7974 7965 7964 7962 ] final  -36.73 input  175.53 | X-H torsion
[ 8008 7997 7996 7995 ] final  -55.48 input   59.86 | X-H torsion
[ 10167 10162 10161 10158 ] final -155.12 input  -65.29 | X-H torsion
[ 10718 10713 10712 10709 ] final -175.41 input   66.30 | X-H torsion
[ 10763 10752 10751 10750 ] final   49.32 input  -60.55 | X-H torsion
[ 11005 11000 10999 10996 ] final   12.70 input  -57.11 | X-H torsion

> <Gold.Protein.ActiveResidues>
 VAL166  LYS551  ARG553  GLY616  TRP617  ASP618  TYR619  PRO620  LYS621  CYS622 
 ASP623  PHE694  ASN695  SER759  ASP760  ASP761  ALA762  ILE779  LEU786  VAL792 
 PHE793  MET794  SER795  GLU796  ALA797  LYS798  CYS799  TRP800  GLU811  SER814 

> <Gold.Protein.RotatedAtoms>
  151.4212  133.3698  159.2756 H   0  0  0  0  0  0  0  0  0  0  0  0  # atno 6907 bound_to 6896
  150.9292  134.8709  159.7551 H   0  0  0  0  0  0  0  0  0  0  0  0  # atno 6908 bound_to 6896
  152.5020  134.4155  159.9515 H   0  0  0  0  0  0  0  0  0  0  0  0  # atno 6909 bound_to 6896
  146.0636  140.6313  142.8985 H   0  0  0  0  0  0  0  0  0  0  0  0  # atno 7974 bound_to 7965
  154.4196  140.1152  156.5484 H   0  0  0  0  0  0  0  0  0  0  0  0  # atno 8008 bound_to 7997
  155.6436  140.3496  155.4704 H   0  0  0  0  0  0  0  0  0  0  0  0  # atno 8009 bound_to 7997
  155.9851  140.1168  157.0680 H   0  0  0  0  0  0  0  0  0  0  0  0  # atno 8010 bound_to 7997
  139.6957  143.9346  152.2406 H   0  0  0  0  0  0  0  0  0  0  0  0  # atno 10167 bound_to 10162
  156.7994  130.9547  151.3119 H   0  0  0  0  0  0  0  0  0  0  0  0  # atno 10718 bound_to 10713
  152.9787  135.5915  154.4070 H   0  0  0  0  0  0  0  0  0  0  0  0  # atno 10763 bound_to 10752
  154.3709  135.2767  155.2268 H   0  0  0  0  0  0  0  0  0  0  0  0  # atno 10764 bound_to 10752
  154.4224  135.6056  153.6073 H   0  0  0  0  0  0  0  0  0  0  0  0  # atno 10765 bound_to 10752
  140.4890  134.0859  155.7767 H   0  0  0  0  0  0  0  0  0  0  0  0  # atno 11005 bound_to 11000
  144.7189  140.4307  143.7023 LP  0  0  0  0  0  0  0  0  0  0  0  0  # atno 17320 bound_to 7965
  145.6516  139.1566  143.2858 LP  0  0  0  0  0  0  0  0  0  0  0  0  # atno 17321 bound_to 7965
  139.9174  144.6820  150.8497 LP  0  0  0  0  0  0  0  0  0  0  0  0  # atno 17342 bound_to 10162
  140.7696  143.3399  151.2230 LP  0  0  0  0  0  0  0  0  0  0  0  0  # atno 17343 bound_to 10162
  157.6561  130.8926  149.9732 LP  0  0  0  0  0  0  0  0  0  0  0  0  # atno 17370 bound_to 10713
  156.1110  130.3650  150.0049 LP  0  0  0  0  0  0  0  0  0  0  0  0  # atno 17371 bound_to 10713
  141.1493  133.8997  157.2137 LP  0  0  0  0  0  0  0  0  0  0  0  0  # atno 17394 bound_to 11000
  139.9780  135.0107  156.9680 LP  0  0  0  0  0  0  0  0  0  0  0  0  # atno 17395 bound_to 11000

$$$$
