AV-unprocessed.smi:678|AV-procd|sdf|3317|dock2
  -GOLD-   22720 0283D 1   1.00000     0.00000
 Structure written by MMmdl.
 50 51  0  0  0  0  0  0  0  0  1 V2000
  150.1362  141.5341  156.5654 C   0  0  0  0  0  0  0  0  0  0  0  0
  150.9975  142.3166  157.5413 C   0  0  0  0  0  0  0  0  0  0  0  0
  150.9899  143.6673  157.5621 C   0  0  0  0  0  0  0  0  0  0  0  0
  151.8115  144.4030  158.4917 C   0  0  0  0  0  0  0  0  0  0  0  0
  152.5827  143.7095  159.3406 C   0  0  0  0  0  0  0  0  0  0  0  0
  152.6052  142.3020  159.3442 N   0  0  0  0  0  0  0  0  0  0  0  0
  153.5039  141.6620  160.3230 C   0  0  0  0  0  0  0  0  0  0  0  0
  154.6236  140.8111  159.6997 C   0  0  0  0  0  0  0  0  0  0  0  0
  154.3336  139.7480  159.1525 O   0  0  0  0  0  0  0  0  0  0  0  0
  155.8883  141.2490  159.8139 N   0  0  0  0  0  0  0  0  0  0  0  0
  157.0814  140.5001  159.4383 C   0  0  0  0  0  0  0  0  0  0  0  0
  157.6962  139.7968  160.6612 C   0  0  2  0  0  0  0  0  0  0  0  0
  156.6353  139.3653  161.6969 C   0  0  0  0  0  0  0  0  0  0  0  0
  157.2381  138.7426  162.8711 N   0  0  0  0  0  0  0  0  0  0  0  0
  156.2476  138.3330  163.8685 C   0  0  0  0  0  0  0  0  0  0  0  0
  155.4148  137.0791  163.5207 C   0  0  0  0  0  0  0  0  0  0  0  0
  154.4719  137.3682  162.3443 C   0  0  0  0  0  0  0  0  0  0  0  0
  154.6243  136.5534  164.7301 C   0  0  0  0  0  0  0  0  0  0  0  0
  158.2122  139.6635  163.4461 C   0  0  0  0  0  0  0  0  0  0  0  0
  159.2643  140.1074  162.4153 C   0  0  0  0  0  0  0  0  0  0  0  0
  158.6147  140.6874  161.2878 O   0  0  0  0  0  0  0  0  0  0  0  0
  151.8522  141.5591  158.4749 C   0  0  0  0  0  0  0  0  0  0  0  0
  151.8994  140.3279  158.4735 O   0  0  0  0  0  0  0  0  0  0  0  0
  149.5518  142.1980  155.9273 H   0  0  0  0  0  0  0  0  0  0  0  0
  149.4422  140.8873  157.1032 H   0  0  0  0  0  0  0  0  0  0  0  0
  150.7587  140.9114  155.9219 H   0  0  0  0  0  0  0  0  0  0  0  0
  150.3607  144.2132  156.8740 H   0  0  0  0  0  0  0  0  0  0  0  0
  151.8106  145.4833  158.4994 H   0  0  0  0  0  0  0  0  0  0  0  0
  153.2346  144.1821  160.0615 H   0  0  0  0  0  0  0  0  0  0  0  0
  153.9654  142.4292  160.9468 H   0  0  0  0  0  0  0  0  0  0  0  0
  152.9448  141.0364  161.0207 H   0  0  0  0  0  0  0  0  0  0  0  0
  156.0384  142.1404  160.2637 H   0  0  0  0  0  0  0  0  0  0  0  0
  156.8496  139.7749  158.6566 H   0  0  0  0  0  0  0  0  0  0  0  0
  157.8005  141.1981  159.0091 H   0  0  0  0  0  0  0  0  0  0  0  0
  158.2462  138.9177  160.3194 H   0  0  0  0  0  0  0  0  0  0  0  0
  156.0437  140.2312  161.9981 H   0  0  0  0  0  0  0  0  0  0  0  0
  155.9491  138.6671  161.2207 H   0  0  0  0  0  0  0  0  0  0  0  0
  156.7604  138.1419  164.8124 H   0  0  0  0  0  0  0  0  0  0  0  0
  155.5707  139.1662  164.0638 H   0  0  0  0  0  0  0  0  0  0  0  0
  156.0861  136.2892  163.1864 H   0  0  0  0  0  0  0  0  0  0  0  0
  153.7510  138.1467  162.5951 H   0  0  0  0  0  0  0  0  0  0  0  0
  153.9135  136.4758  162.0602 H   0  0  0  0  0  0  0  0  0  0  0  0
  155.0286  137.6990  161.4669 H   0  0  0  0  0  0  0  0  0  0  0  0
  153.9387  137.3092  165.1141 H   0  0  0  0  0  0  0  0  0  0  0  0
  155.2894  136.2616  165.5434 H   0  0  0  0  0  0  0  0  0  0  0  0
  154.0367  135.6748  164.4629 H   0  0  0  0  0  0  0  0  0  0  0  0
  157.7013  140.5441  163.8387 H   0  0  0  0  0  0  0  0  0  0  0  0
  158.7139  139.1920  164.2919 H   0  0  0  0  0  0  0  0  0  0  0  0
  159.9394  140.8413  162.8549 H   0  0  0  0  0  0  0  0  0  0  0  0
  159.8744  139.2609  162.0970 H   0  0  0  0  0  0  0  0  0  0  0  0
  1  2  1  0  0  0  0
  1 24  1  0  0  0  0
  1 25  1  0  0  0  0
  1 26  1  0  0  0  0
  2 22  1  0  0  0  0
  2  3  2  0  0  0  0
  3  4  1  0  0  0  0
  3 27  1  0  0  0  0
  4  5  2  0  0  0  0
  4 28  1  0  0  0  0
  5  6  1  0  0  0  0
  5 29  1  0  0  0  0
  6  7  1  0  0  0  0
  6 22  1  0  0  0  0
  7  8  1  0  0  0  0
  7 30  1  0  0  0  0
  7 31  1  0  0  0  0
  8  9  2  0  0  0  0
  8 10  1  0  0  0  0
 10 11  1  0  0  0  0
 10 32  1  0  0  0  0
 11 12  1  0  0  0  0
 11 33  1  0  0  0  0
 11 34  1  0  0  0  0
 12 21  1  0  0  0  0
 12 13  1  0  0  0  0
 12 35  1  0  0  0  0
 13 14  1  0  0  0  0
 13 36  1  0  0  0  0
 13 37  1  0  0  0  0
 14 15  1  0  0  0  0
 14 19  1  0  0  0  0
 15 16  1  0  0  0  0
 15 38  1  0  0  0  0
 15 39  1  0  0  0  0
 16 17  1  0  0  0  0
 16 18  1  0  0  0  0
 16 40  1  0  0  0  0
 17 41  1  0  0  0  0
 17 42  1  0  0  0  0
 17 43  1  0  0  0  0
 18 44  1  0  0  0  0
 18 45  1  0  0  0  0
 18 46  1  0  0  0  0
 19 20  1  0  0  0  0
 19 47  1  0  0  0  0
 19 48  1  0  0  0  0
 20 21  1  0  0  0  0
 20 49  1  0  0  0  0
 20 50  1  0  0  0  0
 22 23  2  0  0  0  0
M  END
> <s_m_source_file>
AV-unprocessed.smi

> <i_m_source_file_index>
678

> <i_lp_mmshare_version>
43012

> <i_f3d_flags>
0

> <s_epik_input>
W0NIM11jMVtjSF1bY0hdW2NIXW4oYzE9TylbQ0gyXUMoPU8pW05IXVtDSDJdW0NAQEhdMltDSDJdTihbQ0gyXVtDSDJdTzIpW0NIMl1bQ0hdKFtDSDNdKVtDSDNd

> <s_epik_cmdline>
J2VwaWtfcHl0aG9uJywgJy1waCcsICc3LjAnLCAnLXRuJywgJzgnLCAnLW1hJywgJzIwMCcsICctbWV0YWxfYmluZGluZycsICctaW1hZScsICc8aW5maWxlLm1hZT4nLCAnLW9tYWUnLCAnPG91dGZpbGUubWFlPic=

> <r_lp_tautomer_probability>
1

> <r_epik_Ionization_Penalty>
1.11669

> <r_epik_Ionization_Penalty_Charging>
7.32459e-07

> <r_epik_Ionization_Penalty_Neutral>
1.11669

> <r_epik_State_Penalty>
1.17516

> <r_epik_Charging_Adjusted_Penalty>
1.17516

> <i_epik_Tot_Q>
0

> <i_epik_Tot_abs_Q>
0

> <r_epik_Metal_State_Penalty>
1.17513

> <b_epik_Metal_Only>
0

> <s_lp_Force_Field>
OPLS_2005

> <r_lp_Energy>
32.9221

> <b_lp_Chiralities_Consistent>
1

> <s_lp_Variant>
AV-unprocessed.smi:678-5

> <Gold.Version>
5.8.1

> <Gold.Id.Protein>
6NUR|6NUR_protein|mol2

> <Gold.PLP.Fitness>
47.0325

> <Gold.PLP.PLP>
-45.4997

> <Gold.PLP.part.hbond>
-2.5982

> <Gold.PLP.part.metal>
0.0000

> <Gold.PLP.part.buried>
-1.9627

> <Gold.PLP.part.nonpolar>
-40.3762

> <Gold.PLP.part.repulsive>
0.0690

> <Gold.PLP.ligand.clash>
0.0000

> <Gold.PLP.ligand.torsion>
0.7633

> <Gold.PLP.Chemscore.Hbond>
1.0000

> <Gold.PLP.Chemscore.CHOScore>
0.0000

> <Gold.PLP.Chemscore.Metal>
0.0000

> <Gold.Chemscore.Hbonds>
donor molecule, donor type, donor heavy atom, donor atom, acceptor molecule, acceptor atom, score
      P1  H  7997  8009       L1     9  1.00

> <Gold.PLP.Chemscore.Internal.Correction>
0.0595

> <Gold.Rescore>
     Score         DG    S(hbond)    S(metal)    S(lipo)     H(rot)  DE(clash)    DE(int)     intcor
     14.30     -17.36       0.90        0.00     115.79       1.82       0.65       2.40       ----

> <Gold.Chemscore.Fitness>
14.3002

> <Gold.Chemscore.DG>
-17.3577

> <Gold.Chemscore.ZeroCoef>
-5.4800

> <Gold.Chemscore.Hbond>
0.8982

> <Gold.Chemscore.Metal>
0.0000

> <Gold.Chemscore.Lipo>
115.7938

> <Gold.Chemscore.Internal_Hbond>
0.0000

> <Gold.Chemscore.DEClash>
0.6536

> <Gold.Chemscore.DEInternal>
2.4038

> <Gold.Chemscore.Rot>
1.8243

> <Gold.Chemscore.Internal.Correction>
   9.000000E+99

> <Gold.Chemscore.Hbonds>
donor molecule, donor type, donor heavy atom, donor atom, acceptor molecule, acceptor atom, score
      P1  H  7997  8009       L1     9  0.28

> <Gold.Chemscore.Hbond.Weighted>
-3.0000

> <Gold.Chemscore.Metal.Weighted>
-0.0000

> <Gold.Chemscore.Lipo.Weighted>
-13.5479

> <Gold.Chemscore.Internal_Hbond.Weighted>
0.0000

> <Gold.Chemscore.DEClash.Weighted>
0.6536

> <Gold.Chemscore.DEInternal.Weighted>
2.4038

> <Gold.Chemscore.Rot.Weighted>
4.6703

> <Gold.Chemscore.Internal.Correction.Weighted>
   9.000000E+99

> <Gold.Protein.RotatedTorsions>
[ 6907 6896 6895 6894 ] final   77.40 input  -60.11 | X-H torsion
[ 7974 7965 7964 7962 ] final  140.68 input  175.53 | X-H torsion
[ 8008 7997 7996 7995 ] final  117.14 input   59.86 | X-H torsion
[ 10167 10162 10161 10158 ] final  109.23 input  -65.29 | X-H torsion
[ 10718 10713 10712 10709 ] final  -70.37 input   66.30 | X-H torsion
[ 10763 10752 10751 10750 ] final   76.30 input  -60.55 | X-H torsion
[ 11005 11000 10999 10996 ] final -108.79 input  -57.11 | X-H torsion

> <Gold.Protein.ActiveResidues>
 VAL166  LYS551  ARG553  GLY616  TRP617  ASP618  TYR619  PRO620  LYS621  CYS622 
 ASP623  PHE694  ASN695  SER759  ASP760  ASP761  ALA762  ILE779  LEU786  VAL792 
 PHE793  MET794  SER795  GLU796  ALA797  LYS798  CYS799  TRP800  GLU811  SER814 

> <Gold.Protein.RotatedAtoms>
  152.5116  134.3823  159.9355 H   0  0  0  0  0  0  0  0  0  0  0  0  # atno 6907 bound_to 6896
  151.3780  133.3825  159.2714 H   0  0  0  0  0  0  0  0  0  0  0  0  # atno 6908 bound_to 6896
  150.9526  134.8945  159.7740 H   0  0  0  0  0  0  0  0  0  0  0  0  # atno 6909 bound_to 6896
  144.9164  139.5225  143.5684 H   0  0  0  0  0  0  0  0  0  0  0  0  # atno 7974 bound_to 7965
  156.2478  140.2902  156.0632 H   0  0  0  0  0  0  0  0  0  0  0  0  # atno 8008 bound_to 7997
  155.1752  140.0403  157.2888 H   0  0  0  0  0  0  0  0  0  0  0  0  # atno 8009 bound_to 7997
  154.6298  140.2496  155.7455 H   0  0  0  0  0  0  0  0  0  0  0  0  # atno 8010 bound_to 7997
  139.6783  144.7120  151.1562 H   0  0  0  0  0  0  0  0  0  0  0  0  # atno 10167 bound_to 10162
  156.0411  130.4330  150.2285 H   0  0  0  0  0  0  0  0  0  0  0  0  # atno 10718 bound_to 10713
  153.0715  135.4956  154.8315 H   0  0  0  0  0  0  0  0  0  0  0  0  # atno 10763 bound_to 10752
  154.7029  135.3005  154.9316 H   0  0  0  0  0  0  0  0  0  0  0  0  # atno 10764 bound_to 10752
  154.0034  135.6763  153.4813 H   0  0  0  0  0  0  0  0  0  0  0  0  # atno 10765 bound_to 10752
  141.0883  133.9100  157.2135 H   0  0  0  0  0  0  0  0  0  0  0  0  # atno 11005 bound_to 11000
  146.3184  139.8010  142.8965 LP  0  0  0  0  0  0  0  0  0  0  0  0  # atno 17320 bound_to 7965
  145.3368  141.0279  143.3415 LP  0  0  0  0  0  0  0  0  0  0  0  0  # atno 17321 bound_to 7965
  140.7643  143.5738  150.8967 LP  0  0  0  0  0  0  0  0  0  0  0  0  # atno 17342 bound_to 10162
  139.9408  143.6384  152.3054 LP  0  0  0  0  0  0  0  0  0  0  0  0  # atno 17343 bound_to 10162
  157.0380  131.0027  151.3292 LP  0  0  0  0  0  0  0  0  0  0  0  0  # atno 17370 bound_to 10713
  157.5230  130.8010  149.7830 LP  0  0  0  0  0  0  0  0  0  0  0  0  # atno 17371 bound_to 10713
  139.9704  135.0130  156.9498 LP  0  0  0  0  0  0  0  0  0  0  0  0  # atno 17394 bound_to 11000
  140.5312  134.0811  155.7316 LP  0  0  0  0  0  0  0  0  0  0  0  0  # atno 17395 bound_to 11000

$$$$
