AV-unprocessed.smi:547|AV-procd|sdf|2889|dock3
  -GOLD-   2262023383D 1   1.00000     0.00000
 Structure written by MMmdl.
 37 38  0  0  0  0  0  0  0  0  1 V2000
  151.6271  137.0062  159.5976 O   0  0  0  0  0  0  0  0  0  0  0  0
  150.8340  137.7320  158.9976 C   0  0  0  0  0  0  0  0  0  0  0  0
  149.4724  137.1796  158.5477 C   0  0  0  0  0  0  0  0  0  0  0  0
  148.7356  136.3537  159.5326 N   0  0  0  0  0  0  0  0  0  0  0  0
  148.1277  137.0207  160.5908 N   0  0  0  0  0  0  0  0  0  0  0  0
  147.4615  136.3562  161.4700 C   0  0  0  0  0  0  0  0  0  0  0  0
  147.3222  134.9196  161.4036 C   0  0  0  0  0  0  0  0  0  0  0  0
  146.4151  134.0801  162.6120 Cl  0  0  0  0  0  0  0  0  0  0  0  0
  147.9240  134.2722  160.3750 C   0  0  0  0  0  0  0  0  0  0  0  0
  147.8055  132.5518  160.2317 Cl  0  0  0  0  0  0  0  0  0  0  0  0
  148.6927  134.9980  159.3534 C   0  0  0  0  0  0  0  0  0  0  0  0
  149.2556  134.4397  158.4106 O   0  0  0  0  0  0  0  0  0  0  0  0
  151.0828  139.0167  158.7027 N   0  0  0  0  0  0  0  0  0  0  0  0
  152.2637  139.7616  159.1258 C   0  0  0  0  0  0  0  0  0  0  0  0
  152.2357  141.2325  158.6530 C   0  0  0  0  0  0  0  0  0  0  0  0
  153.0715  142.1676  159.5567 C   0  0  0  0  0  0  0  0  0  0  0  0
  153.0225  143.6227  159.0642 C   0  0  0  0  0  0  0  0  0  0  0  0
  151.5753  144.1260  158.9581 C   0  0  0  0  0  0  0  0  0  0  0  0
  150.7362  143.2066  158.0579 C   0  0  0  0  0  0  0  0  0  0  0  0
  150.7868  141.7496  158.5471 C   0  0  0  0  0  0  0  0  0  0  0  0
  148.8520  138.0240  158.2403 H   0  0  0  0  0  0  0  0  0  0  0  0
  149.6347  136.5814  157.6496 H   0  0  0  0  0  0  0  0  0  0  0  0
  146.9674  136.8424  162.3112 H   0  0  0  0  0  0  0  0  0  0  0  0
  150.3784  139.5302  158.1931 H   0  0  0  0  0  0  0  0  0  0  0  0
  152.3555  139.7128  160.2122 H   0  0  0  0  0  0  0  0  0  0  0  0
  153.1411  139.2572  158.7201 H   0  0  0  0  0  0  0  0  0  0  0  0
  152.6669  141.2703  157.6514 H   0  0  0  0  0  0  0  0  0  0  0  0
  152.7020  142.1165  160.5818 H   0  0  0  0  0  0  0  0  0  0  0  0
  154.1118  141.8425  159.5875 H   0  0  0  0  0  0  0  0  0  0  0  0
  153.5908  144.2632  159.7390 H   0  0  0  0  0  0  0  0  0  0  0  0
  153.5074  143.6940  158.0895 H   0  0  0  0  0  0  0  0  0  0  0  0
  151.1297  144.1709  159.9525 H   0  0  0  0  0  0  0  0  0  0  0  0
  151.5624  145.1438  158.5671 H   0  0  0  0  0  0  0  0  0  0  0  0
  149.7031  143.5540  158.0321 H   0  0  0  0  0  0  0  0  0  0  0  0
  151.1060  143.2613  157.0332 H   0  0  0  0  0  0  0  0  0  0  0  0
  150.2146  141.1182  157.8664 H   0  0  0  0  0  0  0  0  0  0  0  0
  150.2973  141.6767  159.5193 H   0  0  0  0  0  0  0  0  0  0  0  0
  1  2  2  0  0  0  0
  2  3  1  0  0  0  0
  2 13  1  0  0  0  0
  3  4  1  0  0  0  0
  3 21  1  0  0  0  0
  3 22  1  0  0  0  0
  4 11  1  0  0  0  0
  4  5  1  0  0  0  0
  5  6  2  0  0  0  0
  6  7  1  0  0  0  0
  6 23  1  0  0  0  0
  7  8  1  0  0  0  0
  7  9  2  0  0  0  0
  9 10  1  0  0  0  0
  9 11  1  0  0  0  0
 11 12  2  0  0  0  0
 13 14  1  0  0  0  0
 13 24  1  0  0  0  0
 14 15  1  0  0  0  0
 14 25  1  0  0  0  0
 14 26  1  0  0  0  0
 15 20  1  0  0  0  0
 15 16  1  0  0  0  0
 15 27  1  0  0  0  0
 16 17  1  0  0  0  0
 16 28  1  0  0  0  0
 16 29  1  0  0  0  0
 17 18  1  0  0  0  0
 17 30  1  0  0  0  0
 17 31  1  0  0  0  0
 18 19  1  0  0  0  0
 18 32  1  0  0  0  0
 18 33  1  0  0  0  0
 19 20  1  0  0  0  0
 19 34  1  0  0  0  0
 19 35  1  0  0  0  0
 20 36  1  0  0  0  0
 20 37  1  0  0  0  0
M  END
> <s_m_source_file>
AV-unprocessed.smi

> <i_m_source_file_index>
547

> <i_lp_mmshare_version>
43012

> <i_f3d_flags>
0

> <s_epik_input>
W0NIMl0xW0NIMl1bQ0gyXVtDSDJdW0NIMl1bQ0hdMVtDSDJdW05IXUMoPU8pW0NIMl1uMm5bY0hdYyhDbCljKENsKWMyPU8=

> <s_epik_cmdline>
J2VwaWtfcHl0aG9uJywgJy1waCcsICc3LjAnLCAnLXRuJywgJzgnLCAnLW1hJywgJzIwMCcsICctbWV0YWxfYmluZGluZycsICctaW1hZScsICc8aW5maWxlLm1hZT4nLCAnLW9tYWUnLCAnPG91dGZpbGUubWFlPic=

> <r_lp_tautomer_probability>
1

> <r_epik_Ionization_Penalty>
1.98263e-08

> <r_epik_Ionization_Penalty_Charging>
2.84997e-11

> <r_epik_Ionization_Penalty_Neutral>
1.97978e-08

> <r_epik_State_Penalty>
-0

> <r_epik_Charging_Adjusted_Penalty>
2.84997e-11

> <i_epik_Tot_Q>
0

> <i_epik_Tot_abs_Q>
0

> <r_epik_Metal_State_Penalty>
-0

> <b_epik_Metal_Only>
0

> <s_lp_Force_Field>
OPLS_2005

> <r_lp_Energy>
30.5704

> <b_lp_Chiralities_Consistent>
1

> <s_lp_Variant>
AV-unprocessed.smi:547-1

> <Gold.Version>
5.8.1

> <Gold.Id.Protein>
6NUR|6NUR_protein|mol2

> <Gold.PLP.Fitness>
49.2599

> <Gold.PLP.PLP>
-40.2518

> <Gold.PLP.part.hbond>
-4.0000

> <Gold.PLP.part.metal>
0.0000

> <Gold.PLP.part.buried>
-3.7213

> <Gold.PLP.part.nonpolar>
-33.5279

> <Gold.PLP.part.repulsive>
0.1484

> <Gold.PLP.ligand.clash>
0.0000

> <Gold.PLP.ligand.torsion>
0.7168

> <Gold.PLP.Chemscore.Hbond>
3.4752

> <Gold.PLP.Chemscore.CHOScore>
0.0000

> <Gold.PLP.Chemscore.Metal>
0.0000

> <Gold.Chemscore.Hbonds>
donor molecule, donor type, donor heavy atom, donor atom, acceptor molecule, acceptor atom, score
      P1  H  6896  6907       L1     1  1.00
      P1  H  6896  6909       L1    12  0.80
      P1  H  6931  6943       L1     5  0.73
      P1  H  6934  6947       L1     5  0.34

> <Gold.PLP.Chemscore.Internal.Correction>
0.0161

> <Gold.Rescore>
     Score         DG    S(hbond)    S(metal)    S(lipo)     H(rot)  DE(clash)    DE(int)     intcor
     21.16     -22.23       2.68        0.00     104.14       1.71       0.44       0.62       ----

> <Gold.Chemscore.Fitness>
21.1624

> <Gold.Chemscore.DG>
-22.2252

> <Gold.Chemscore.ZeroCoef>
-5.4800

> <Gold.Chemscore.Hbond>
2.6761

> <Gold.Chemscore.Metal>
0.0000

> <Gold.Chemscore.Lipo>
104.1407

> <Gold.Chemscore.Internal_Hbond>
0.0000

> <Gold.Chemscore.DEClash>
0.4407

> <Gold.Chemscore.DEInternal>
0.6221

> <Gold.Chemscore.Rot>
1.7099

> <Gold.Chemscore.Internal.Correction>
   9.000000E+99

> <Gold.Chemscore.Hbonds>
donor molecule, donor type, donor heavy atom, donor atom, acceptor molecule, acceptor atom, score
      P1  H  6896  6907       L1     1  0.99
      P1  H  6896  6909       L1    12  0.12
      P1  H  6931  6943       L1     5  0.12
      P1  H  6934  6947       L1     5  0.08

> <Gold.Chemscore.Hbond.Weighted>
-8.9381

> <Gold.Chemscore.Metal.Weighted>
-0.0000

> <Gold.Chemscore.Lipo.Weighted>
-12.1845

> <Gold.Chemscore.Internal_Hbond.Weighted>
0.0000

> <Gold.Chemscore.DEClash.Weighted>
0.4407

> <Gold.Chemscore.DEInternal.Weighted>
0.6221

> <Gold.Chemscore.Rot.Weighted>
4.3774

> <Gold.Chemscore.Internal.Correction.Weighted>
   9.000000E+99

> <Gold.Protein.RotatedTorsions>
[ 6907 6896 6895 6894 ] final   10.20 input  -60.11 | X-H torsion
[ 7974 7965 7964 7962 ] final   46.63 input  175.53 | X-H torsion
[ 8008 7997 7996 7995 ] final -153.48 input   59.86 | X-H torsion
[ 10167 10162 10161 10158 ] final  -60.94 input  -65.29 | X-H torsion
[ 10718 10713 10712 10709 ] final  133.37 input   66.30 | X-H torsion
[ 10763 10752 10751 10750 ] final  123.88 input  -60.55 | X-H torsion
[ 11005 11000 10999 10996 ] final  -52.60 input  -57.11 | X-H torsion

> <Gold.Protein.ActiveResidues>
 VAL166  LYS551  ARG553  GLY616  TRP617  ASP618  TYR619  PRO620  LYS621  CYS622 
 ASP623  PHE694  ASN695  SER759  ASP760  ASP761  ALA762  ILE779  LEU786  VAL792 
 PHE793  MET794  SER795  GLU796  ALA797  LYS798  CYS799  TRP800  GLU811  SER814 

> <Gold.Protein.RotatedAtoms>
  151.7344  135.0868  160.0305 H   0  0  0  0  0  0  0  0  0  0  0  0  # atno 6907 bound_to 6896
  152.3520  133.6187  159.5960 H   0  0  0  0  0  0  0  0  0  0  0  0  # atno 6908 bound_to 6896
  150.7546  133.9475  159.3517 H   0  0  0  0  0  0  0  0  0  0  0  0  # atno 6909 bound_to 6896
  146.0372  139.4835  142.9801 H   0  0  0  0  0  0  0  0  0  0  0  0  # atno 7974 bound_to 7965
  155.6715  140.0734  157.2518 H   0  0  0  0  0  0  0  0  0  0  0  0  # atno 8008 bound_to 7997
  154.4122  140.1698  156.1936 H   0  0  0  0  0  0  0  0  0  0  0  0  # atno 8009 bound_to 7997
  155.9612  140.3369  155.6495 H   0  0  0  0  0  0  0  0  0  0  0  0  # atno 8010 bound_to 7997
  140.6039  143.2368  151.5866 H   0  0  0  0  0  0  0  0  0  0  0  0  # atno 10167 bound_to 10162
  157.4780  131.1084  150.9718 H   0  0  0  0  0  0  0  0  0  0  0  0  # atno 10718 bound_to 10713
  153.6525  135.3360  155.3104 H   0  0  0  0  0  0  0  0  0  0  0  0  # atno 10763 bound_to 10752
  154.8534  135.4344  154.1889 H   0  0  0  0  0  0  0  0  0  0  0  0  # atno 10764 bound_to 10752
  153.2836  135.7011  153.7436 H   0  0  0  0  0  0  0  0  0  0  0  0  # atno 10765 bound_to 10752
  141.0932  133.6629  156.4048 H   0  0  0  0  0  0  0  0  0  0  0  0  # atno 11005 bound_to 11000
  145.6944  141.0155  143.1538 LP  0  0  0  0  0  0  0  0  0  0  0  0  # atno 17320 bound_to 7965
  144.7057  139.8571  143.7430 LP  0  0  0  0  0  0  0  0  0  0  0  0  # atno 17321 bound_to 7965
  139.5310  144.2915  152.1148 LP  0  0  0  0  0  0  0  0  0  0  0  0  # atno 17342 bound_to 10162
  140.2101  144.4571  150.6390 LP  0  0  0  0  0  0  0  0  0  0  0  0  # atno 17343 bound_to 10162
  157.0461  130.5768  149.5363 LP  0  0  0  0  0  0  0  0  0  0  0  0  # atno 17370 bound_to 10713
  156.0107  130.5198  150.7977 LP  0  0  0  0  0  0  0  0  0  0  0  0  # atno 17371 bound_to 10713
  140.5201  134.6312  157.5315 LP  0  0  0  0  0  0  0  0  0  0  0  0  # atno 17394 bound_to 11000
  139.9763  134.7210  155.9944 LP  0  0  0  0  0  0  0  0  0  0  0  0  # atno 17395 bound_to 11000

$$$$
