AV-unprocessed.smi:2047|AV-procd|sdf|8315|dock7
  -GOLD-   2272010583D 1   1.00000     0.00000
 Structure written by MMmdl.
 42 44  0  0  0  0  0  0  0  0  1 V2000
  150.3529  134.8133  156.0486 O   0  0  0  0  0  0  0  0  0  0  0  0
  149.8343  135.2147  155.0070 C   0  0  0  0  0  0  0  0  0  0  0  0
  149.2390  134.4410  154.0839 N   0  0  0  0  0  0  0  0  0  0  0  0
  149.0468  133.0296  154.0930 C   0  0  0  0  0  0  0  0  0  0  0  0
  149.8355  132.1715  154.8990 C   0  0  0  0  0  0  0  0  0  0  0  0
  149.6478  130.7810  154.8166 C   0  0  0  0  0  0  0  0  0  0  0  0
  148.6868  130.2921  153.9167 C   0  0  0  0  0  0  0  0  0  0  0  0
  147.9383  131.0929  153.1327 N   0  0  0  0  0  0  0  0  0  0  0  0
  148.0972  132.4372  153.2111 C   0  0  0  0  0  0  0  0  0  0  0  0
  147.2761  133.2262  152.3729 N   0  0  0  0  0  0  0  0  0  0  0  0
  146.5729  132.6230  151.2458 C   0  0  0  0  0  0  0  0  0  0  0  0
  145.5284  133.6564  150.8344 C   0  0  0  0  0  0  0  0  0  0  0  0
  145.1201  134.2571  152.1759 C   0  0  0  0  0  0  0  0  0  0  0  0
  146.4126  134.2232  152.9991 C   0  0  0  0  0  0  0  0  0  0  0  0
  149.7840  136.5070  154.6561 N   0  0  0  0  0  0  0  0  0  0  0  0
  150.3526  137.6086  155.4265 C   0  0  2  0  0  0  0  0  0  0  0  0
  149.9788  138.9686  154.8087 C   0  0  0  0  0  0  0  0  0  0  0  0
  150.8836  140.0475  155.4146 C   0  0  0  0  0  0  0  0  0  0  0  0
  152.4834  139.2264  155.7684 S   0  0  0  0  0  0  0  0  0  0  0  0
  153.4547  139.5706  154.7189 O   0  0  0  0  0  0  0  0  0  0  0  0
  152.8094  139.4074  157.1909 O   0  0  0  0  0  0  0  0  0  0  0  0
  151.8858  137.5166  155.4888 C   0  0  0  0  0  0  0  0  0  0  0  0
  148.7885  134.9281  153.3229 H   0  0  0  0  0  0  0  0  0  0  0  0
  150.5981  132.5504  155.5612 H   0  0  0  0  0  0  0  0  0  0  0  0
  150.2366  130.1058  155.4195 H   0  0  0  0  0  0  0  0  0  0  0  0
  148.5185  129.2300  153.8181 H   0  0  0  0  0  0  0  0  0  0  0  0
  147.2568  132.3894  150.4293 H   0  0  0  0  0  0  0  0  0  0  0  0
  146.0715  131.7027  151.5489 H   0  0  0  0  0  0  0  0  0  0  0  0
  145.9864  134.4221  150.2065 H   0  0  0  0  0  0  0  0  0  0  0  0
  144.6919  133.2215  150.2870 H   0  0  0  0  0  0  0  0  0  0  0  0
  144.7020  135.2600  152.0844 H   0  0  0  0  0  0  0  0  0  0  0  0
  144.3691  133.6219  152.6471 H   0  0  0  0  0  0  0  0  0  0  0  0
  146.2114  133.9926  154.0463 H   0  0  0  0  0  0  0  0  0  0  0  0
  146.9061  135.1944  152.9542 H   0  0  0  0  0  0  0  0  0  0  0  0
  149.3300  136.7462  153.7867 H   0  0  0  0  0  0  0  0  0  0  0  0
  149.9606  137.5900  156.4454 H   0  0  0  0  0  0  0  0  0  0  0  0
  150.1525  138.9343  153.7320 H   0  0  0  0  0  0  0  0  0  0  0  0
  148.9242  139.2041  154.9539 H   0  0  0  0  0  0  0  0  0  0  0  0
  151.0346  140.9003  154.7527 H   0  0  0  0  0  0  0  0  0  0  0  0
  150.4752  140.4074  156.3591 H   0  0  0  0  0  0  0  0  0  0  0  0
  152.2401  136.8593  156.2832 H   0  0  0  0  0  0  0  0  0  0  0  0
  152.3017  137.1715  154.5415 H   0  0  0  0  0  0  0  0  0  0  0  0
  1  2  2  0  0  0  0
  2  3  1  0  0  0  0
  2 15  1  0  0  0  0
  3  4  1  0  0  0  0
  3 23  1  0  0  0  0
  4  9  1  0  0  0  0
  4  5  2  0  0  0  0
  5  6  1  0  0  0  0
  5 24  1  0  0  0  0
  6  7  2  0  0  0  0
  6 25  1  0  0  0  0
  7  8  1  0  0  0  0
  7 26  1  0  0  0  0
  8  9  2  0  0  0  0
  9 10  1  0  0  0  0
 10 14  1  0  0  0  0
 10 11  1  0  0  0  0
 11 12  1  0  0  0  0
 11 27  1  0  0  0  0
 11 28  1  0  0  0  0
 12 13  1  0  0  0  0
 12 29  1  0  0  0  0
 12 30  1  0  0  0  0
 13 14  1  0  0  0  0
 13 31  1  0  0  0  0
 13 32  1  0  0  0  0
 14 33  1  0  0  0  0
 14 34  1  0  0  0  0
 15 16  1  0  0  0  0
 15 35  1  0  0  0  0
 16 22  1  0  0  0  0
 16 17  1  0  0  0  0
 16 36  1  0  0  0  0
 17 18  1  0  0  0  0
 17 37  1  0  0  0  0
 17 38  1  0  0  0  0
 18 19  1  0  0  0  0
 18 39  1  0  0  0  0
 18 40  1  0  0  0  0
 19 20  2  0  0  0  0
 19 21  2  0  0  0  0
 19 22  1  0  0  0  0
 22 41  1  0  0  0  0
 22 42  1  0  0  0  0
M  END
> <s_m_source_file>
AV-unprocessed.smi

> <i_m_source_file_index>
2047

> <i_lp_mmshare_version>
43012

> <i_f3d_flags>
0

> <s_epik_input>
Tz1TMSg9TylbQ0gyXVtDSDJdW0NASF0oW0NIMl0xKVtOSF1DKD1PKVtOSF1jMltjSF1bY0hdW2NIXW5jMk4zW0NIMl1bQ0gyXVtDSDJdW0NIMl0z

> <s_epik_cmdline>
J2VwaWtfcHl0aG9uJywgJy1waCcsICc3LjAnLCAnLXRuJywgJzgnLCAnLW1hJywgJzIwMCcsICctbWV0YWxfYmluZGluZycsICctaW1hZScsICc8aW5maWxlLm1hZT4nLCAnLW9tYWUnLCAnPG91dGZpbGUubWFlPic=

> <r_lp_tautomer_probability>
1

> <r_epik_Ionization_Penalty>
0.0840625

> <r_epik_Ionization_Penalty_Charging>
0

> <r_epik_Ionization_Penalty_Neutral>
0.0840625

> <r_epik_State_Penalty>
0.0741601

> <r_epik_Charging_Adjusted_Penalty>
0.0741601

> <i_epik_Tot_Q>
0

> <i_epik_Tot_abs_Q>
0

> <r_epik_Metal_State_Penalty>
0.0657339

> <b_epik_Metal_Only>
0

> <s_lp_Force_Field>
OPLS_2005

> <r_lp_Energy>
32.0686

> <b_lp_Chiralities_Consistent>
1

> <s_lp_Variant>
AV-unprocessed.smi:2047-1

> <Gold.Version>
5.8.1

> <Gold.Id.Protein>
6NUR|6NUR_protein|mol2

> <Gold.PLP.Fitness>
45.6321

> <Gold.PLP.PLP>
-36.0710

> <Gold.PLP.part.hbond>
-5.0000

> <Gold.PLP.part.metal>
0.0000

> <Gold.PLP.part.buried>
-1.6524

> <Gold.PLP.part.nonpolar>
-29.4089

> <Gold.PLP.part.repulsive>
0.7961

> <Gold.PLP.ligand.clash>
0.0000

> <Gold.PLP.ligand.torsion>
0.3234

> <Gold.PLP.Chemscore.Hbond>
3.2960

> <Gold.PLP.Chemscore.CHOScore>
0.0000

> <Gold.PLP.Chemscore.Metal>
0.0000

> <Gold.Chemscore.Hbonds>
donor molecule, donor type, donor heavy atom, donor atom, acceptor molecule, acceptor atom, score
      L1  H     3    23       P1  7948  0.93
      L1  H    15    35       P1  7948  0.93
      P1  H  7997  8008       L1    20  0.59
      P1  H  7997  8010       L1    21  0.86

> <Gold.PLP.Chemscore.Internal.Correction>
0.3197

> <Gold.Rescore>
     Score         DG    S(hbond)    S(metal)    S(lipo)     H(rot)  DE(clash)    DE(int)     intcor
     15.42     -17.09       2.15        0.00      65.28       1.25       0.06       1.61       ----

> <Gold.Chemscore.Fitness>
15.4182

> <Gold.Chemscore.DG>
-17.0908

> <Gold.Chemscore.ZeroCoef>
-5.4800

> <Gold.Chemscore.Hbond>
2.1461

> <Gold.Chemscore.Metal>
0.0000

> <Gold.Chemscore.Lipo>
65.2783

> <Gold.Chemscore.Internal_Hbond>
0.0000

> <Gold.Chemscore.DEClash>
0.0600

> <Gold.Chemscore.DEInternal>
1.6125

> <Gold.Chemscore.Rot>
1.2480

> <Gold.Chemscore.Internal.Correction>
   9.000000E+99

> <Gold.Chemscore.Hbonds>
donor molecule, donor type, donor heavy atom, donor atom, acceptor molecule, acceptor atom, score
      L1  H     3    23       P1  7948  0.41
      L1  H    15    35       P1  7948  0.82
      P1  H  7997  8008       L1    20  0.49
      P1  H  7997  8010       L1    21  0.22

> <Gold.Chemscore.Hbond.Weighted>
-7.1681

> <Gold.Chemscore.Metal.Weighted>
-0.0000

> <Gold.Chemscore.Lipo.Weighted>
-7.6376

> <Gold.Chemscore.Internal_Hbond.Weighted>
0.0000

> <Gold.Chemscore.DEClash.Weighted>
0.0600

> <Gold.Chemscore.DEInternal.Weighted>
1.6125

> <Gold.Chemscore.Rot.Weighted>
3.1948

> <Gold.Chemscore.Internal.Correction.Weighted>
   9.000000E+99

> <Gold.Protein.RotatedTorsions>
[ 6907 6896 6895 6894 ] final  166.22 input  -60.11 | X-H torsion
[ 7974 7965 7964 7962 ] final  -37.17 input  175.53 | X-H torsion
[ 8008 7997 7996 7995 ] final   30.58 input   59.86 | X-H torsion
[ 10167 10162 10161 10158 ] final   18.39 input  -65.29 | X-H torsion
[ 10718 10713 10712 10709 ] final  -41.30 input   66.30 | X-H torsion
[ 10763 10752 10751 10750 ] final   85.09 input  -60.55 | X-H torsion
[ 11005 11000 10999 10996 ] final  174.27 input  -57.11 | X-H torsion

> <Gold.Protein.ActiveResidues>
 VAL166  LYS551  ARG553  GLY616  TRP617  ASP618  TYR619  PRO620  LYS621  CYS622 
 ASP623  PHE694  ASN695  SER759  ASP760  ASP761  ALA762  ILE779  LEU786  VAL792 
 PHE793  MET794  SER795  GLU796  ALA797  LYS798  CYS799  TRP800  GLU811  SER814 

> <Gold.Protein.RotatedAtoms>
  151.8823  133.3498  159.3770 H   0  0  0  0  0  0  0  0  0  0  0  0  # atno 6907 bound_to 6896
  150.7124  134.5006  159.5569 H   0  0  0  0  0  0  0  0  0  0  0  0  # atno 6908 bound_to 6896
  152.2560  134.8084  160.0489 H   0  0  0  0  0  0  0  0  0  0  0  0  # atno 6909 bound_to 6896
  146.0598  140.6364  142.9002 H   0  0  0  0  0  0  0  0  0  0  0  0  # atno 7974 bound_to 7965
  155.0928  140.3221  155.4569 H   0  0  0  0  0  0  0  0  0  0  0  0  # atno 8008 bound_to 7997
  156.2738  140.2075  156.6001 H   0  0  0  0  0  0  0  0  0  0  0  0  # atno 8009 bound_to 7997
  154.6890  140.0518  157.0331 H   0  0  0  0  0  0  0  0  0  0  0  0  # atno 8010 bound_to 7997
  140.5657  143.9255  150.6675 H   0  0  0  0  0  0  0  0  0  0  0  0  # atno 10167 bound_to 10162
  156.2719  130.4207  149.8429 H   0  0  0  0  0  0  0  0  0  0  0  0  # atno 10718 bound_to 10713
  153.1443  135.4630  154.9542 H   0  0  0  0  0  0  0  0  0  0  0  0  # atno 10763 bound_to 10752
  154.7773  135.3177  154.8068 H   0  0  0  0  0  0  0  0  0  0  0  0  # atno 10764 bound_to 10752
  153.8585  135.6915  153.4839 H   0  0  0  0  0  0  0  0  0  0  0  0  # atno 10765 bound_to 10752
  140.3495  134.7207  157.4258 H   0  0  0  0  0  0  0  0  0  0  0  0  # atno 11005 bound_to 11000
  144.7169  140.4239  143.7038 LP  0  0  0  0  0  0  0  0  0  0  0  0  # atno 17320 bound_to 7965
  145.6579  139.1576  143.2825 LP  0  0  0  0  0  0  0  0  0  0  0  0  # atno 17321 bound_to 7965
  140.2717  143.3451  152.1231 LP  0  0  0  0  0  0  0  0  0  0  0  0  # atno 17342 bound_to 10162
  139.5092  144.6862  151.5880 LP  0  0  0  0  0  0  0  0  0  0  0  0  # atno 17343 bound_to 10162
  156.5907  130.8505  151.3407 LP  0  0  0  0  0  0  0  0  0  0  0  0  # atno 17370 bound_to 10713
  157.7286  130.9660  150.1752 LP  0  0  0  0  0  0  0  0  0  0  0  0  # atno 17371 bound_to 10713
  140.0715  134.5856  155.8637 LP  0  0  0  0  0  0  0  0  0  0  0  0  # atno 17394 bound_to 11000
  141.2016  133.6619  156.5960 LP  0  0  0  0  0  0  0  0  0  0  0  0  # atno 17395 bound_to 11000

$$$$
