AV-unprocessed.smi:2124|AV-procd|sdf|8666|dock5
  -GOLD-   2272011413D 1   1.00000     0.00000
 Structure written by MMmdl.
 46 48  0  0  0  0  0  0  0  0  2 V2000
  143.1636  135.0312  163.2255 C   0  0  0  0  0  0  0  0  0  0  0  0
  144.4757  135.3778  162.5550 C   0  0  0  0  0  0  0  0  0  0  0  0
  145.4339  134.5320  162.5822 N   0  0  0  0  0  0  0  0  0  0  0  0
  146.6510  134.8454  161.9536 C   0  0  0  0  0  0  0  0  0  0  0  0
  147.7275  133.7770  162.0294 C   0  0  0  0  0  0  0  0  0  0  0  0
  146.8308  136.0386  161.3173 C   0  0  0  0  0  0  0  0  0  0  0  0
  148.1303  136.4230  160.6110 C   0  0  0  0  0  0  0  0  0  0  0  0
  147.9966  136.7510  159.1227 C   0  0  0  0  0  0  0  0  0  0  0  0
  146.9708  136.4481  158.5139 O   0  0  0  0  0  0  0  0  0  0  0  0
  149.0413  137.3695  158.5501 N   0  0  0  0  0  0  0  0  0  0  0  0
  149.1269  137.7792  157.1501 C   0  0  2  0  0  0  0  0  0  0  0  0
  148.8205  136.5763  156.2410 C   0  0  0  0  0  0  0  0  0  0  0  0
  150.5262  138.3799  156.8801 C   0  0  2  0  0  0  0  0  0  0  0  0
  150.8092  139.7171  157.6034 C   0  0  0  0  0  0  0  0  0  0  0  0
  151.3599  140.6113  156.4770 C   0  0  2  0  0  0  0  0  0  0  0  0
  150.1971  141.0353  155.5615 C   0  0  0  0  0  0  0  0  0  0  0  0
  149.8741  139.7351  154.8033 C   0  0  0  0  0  0  0  0  0  0  0  0
  150.8719  138.7265  155.4102 C   0  0  1  0  0  0  0  0  0  0  0  0
  152.1017  139.6089  155.6006 C   0  0  0  0  0  0  0  0  0  0  0  0
  145.7032  136.9886  161.3152 C   0  0  0  0  0  0  0  0  0  0  0  0
  145.8137  138.0837  160.7653 O   0  0  0  0  0  0  0  0  0  0  0  0
  144.5533  136.6075  161.9414 N   0  5  0  0  0  0  0  0  0  0  0  0
  143.2444  134.1021  163.7916 H   0  0  0  0  0  0  0  0  0  0  0  0
  142.3800  134.9094  162.4775 H   0  0  0  0  0  0  0  0  0  0  0  0
  142.8665  135.8240  163.9128 H   0  0  0  0  0  0  0  0  0  0  0  0
  148.0100  133.4441  161.0307 H   0  0  0  0  0  0  0  0  0  0  0  0
  147.3800  132.9058  162.5858 H   0  0  0  0  0  0  0  0  0  0  0  0
  148.6134  134.1617  162.5331 H   0  0  0  0  0  0  0  0  0  0  0  0
  148.5654  137.2778  161.1299 H   0  0  0  0  0  0  0  0  0  0  0  0
  148.8763  135.6351  160.7192 H   0  0  0  0  0  0  0  0  0  0  0  0
  149.8381  137.5803  159.1331 H   0  0  0  0  0  0  0  0  0  0  0  0
  148.3735  138.5480  156.9751 H   0  0  0  0  0  0  0  0  0  0  0  0
  148.8263  136.8617  155.1893 H   0  0  0  0  0  0  0  0  0  0  0  0
  147.8358  136.1601  156.4556 H   0  0  0  0  0  0  0  0  0  0  0  0
  149.5542  135.7806  156.3747 H   0  0  0  0  0  0  0  0  0  0  0  0
  151.2658  137.6528  157.2214 H   0  0  0  0  0  0  0  0  0  0  0  0
  149.9190  140.1521  158.0597 H   0  0  0  0  0  0  0  0  0  0  0  0
  151.5487  139.5758  158.3926 H   0  0  0  0  0  0  0  0  0  0  0  0
  151.9608  141.4475  156.8356 H   0  0  0  0  0  0  0  0  0  0  0  0
  149.3426  141.4120  156.1247 H   0  0  0  0  0  0  0  0  0  0  0  0
  150.5106  141.8161  154.8674 H   0  0  0  0  0  0  0  0  0  0  0  0
  148.8325  139.4328  154.9046 H   0  0  0  0  0  0  0  0  0  0  0  0
  150.0684  139.8645  153.7377 H   0  0  0  0  0  0  0  0  0  0  0  0
  151.0419  137.8509  154.7833 H   0  0  0  0  0  0  0  0  0  0  0  0
  152.4751  140.0398  154.6699 H   0  0  0  0  0  0  0  0  0  0  0  0
  152.9224  139.1072  156.1164 H   0  0  0  0  0  0  0  0  0  0  0  0
  1  2  1  0  0  0  0
  1 23  1  0  0  0  0
  1 24  1  0  0  0  0
  1 25  1  0  0  0  0
  2 22  1  0  0  0  0
  2  3  2  0  0  0  0
  3  4  1  0  0  0  0
  4  5  1  0  0  0  0
  4  6  2  0  0  0  0
  5 26  1  0  0  0  0
  5 27  1  0  0  0  0
  5 28  1  0  0  0  0
  6  7  1  0  0  0  0
  6 20  1  0  0  0  0
  7  8  1  0  0  0  0
  7 29  1  0  0  0  0
  7 30  1  0  0  0  0
  8  9  2  0  0  0  0
  8 10  1  0  0  0  0
 10 11  1  0  0  0  0
 10 31  1  0  0  0  0
 11 12  1  0  0  0  0
 11 13  1  0  0  0  0
 11 32  1  0  0  0  0
 12 33  1  0  0  0  0
 12 34  1  0  0  0  0
 12 35  1  0  0  0  0
 13 18  1  0  0  0  0
 13 14  1  0  0  0  0
 13 36  1  0  0  0  0
 14 15  1  0  0  0  0
 14 37  1  0  0  0  0
 14 38  1  0  0  0  0
 15 19  1  0  0  0  0
 15 16  1  0  0  0  0
 15 39  1  0  0  0  0
 16 17  1  0  0  0  0
 16 40  1  0  0  0  0
 16 41  1  0  0  0  0
 17 18  1  0  0  0  0
 17 42  1  0  0  0  0
 17 43  1  0  0  0  0
 18 19  1  0  0  0  0
 18 44  1  0  0  0  0
 19 45  1  0  0  0  0
 19 46  1  0  0  0  0
 20 21  2  0  0  0  0
 20 22  1  0  0  0  0
M  CHG  1  22  -1
M  END
> <s_m_source_file>
AV-unprocessed.smi

> <i_m_source_file_index>
2124

> <i_lp_mmshare_version>
43012

> <i_f3d_flags>
0

> <s_epik_input>
W0NIM11jMW5jKFtDSDNdKWMoYyg9TylbbkhdMSlbQ0gyXUMoPU8pW05IXVtDQEhdKFtDSDNdKVtDQEhdKFtDSDJdW0NASF0yMylbQ0BIXShbQ0gyXTMpW0NIMl1bQ0gyXTI=

> <s_epik_cmdline>
J2VwaWtfcHl0aG9uJywgJy1waCcsICc3LjAnLCAnLXRuJywgJzgnLCAnLW1hJywgJzIwMCcsICctbWV0YWxfYmluZGluZycsICctaW1hZScsICc8aW5maWxlLm1hZT4nLCAnLW9tYWUnLCAnPG91dGZpbGUubWFlPic=

> <r_lp_tautomer_probability>
0.839158

> <r_epik_Ionization_Penalty>
6.63797

> <r_epik_Ionization_Penalty_Charging>
7.48558e-08

> <r_epik_Ionization_Penalty_Neutral>
6.63797

> <r_epik_State_Penalty>
4.49496

> <r_epik_Charging_Adjusted_Penalty>
4.49496

> <i_epik_Tot_Q>
-1

> <i_epik_Tot_abs_Q>
1

> <r_epik_Metal_State_Penalty>
0.841241

> <b_epik_Metal_Only>
1

> <s_lp_Force_Field>
OPLS_2005

> <r_lp_Energy>
56.0848

> <b_lp_Chiralities_Consistent>
1

> <s_lp_Variant>
AV-unprocessed.smi:2124-17

> <Gold.Version>
5.8.1

> <Gold.Id.Protein>
6NUR|6NUR_protein|mol2

> <Gold.PLP.Fitness>
36.8791

> <Gold.PLP.PLP>
-34.4059

> <Gold.PLP.part.hbond>
-0.9403

> <Gold.PLP.part.metal>
0.0000

> <Gold.PLP.part.buried>
-5.9347

> <Gold.PLP.part.nonpolar>
-28.1013

> <Gold.PLP.part.repulsive>
0.1711

> <Gold.PLP.ligand.clash>
0.0000

> <Gold.PLP.ligand.torsion>
0.2686

> <Gold.PLP.Chemscore.Hbond>
0.9920

> <Gold.PLP.Chemscore.CHOScore>
0.0000

> <Gold.PLP.Chemscore.Metal>
0.0000

> <Gold.Chemscore.Hbonds>
donor molecule, donor type, donor heavy atom, donor atom, acceptor molecule, acceptor atom, score
      P1  H  6934  6947       L1    21  0.91

> <Gold.PLP.Chemscore.Internal.Correction>
0.0344

> <Gold.Rescore>
     Score         DG    S(hbond)    S(metal)    S(lipo)     H(rot)  DE(clash)    DE(int)     intcor
     13.16     -13.46       0.89        0.00      77.88       1.61       0.01       0.29       ----

> <Gold.Chemscore.Fitness>
13.1607

> <Gold.Chemscore.DG>
-13.4644

> <Gold.Chemscore.ZeroCoef>
-5.4800

> <Gold.Chemscore.Hbond>
0.8926

> <Gold.Chemscore.Metal>
0.0000

> <Gold.Chemscore.Lipo>
77.8822

> <Gold.Chemscore.Internal_Hbond>
0.0000

> <Gold.Chemscore.DEClash>
0.0149

> <Gold.Chemscore.DEInternal>
0.2888

> <Gold.Chemscore.Rot>
1.6051

> <Gold.Chemscore.Internal.Correction>
   9.000000E+99

> <Gold.Chemscore.Hbonds>
donor molecule, donor type, donor heavy atom, donor atom, acceptor molecule, acceptor atom, score
      P1  H  6934  6947       L1    21  0.89

> <Gold.Chemscore.Hbond.Weighted>
-2.9812

> <Gold.Chemscore.Metal.Weighted>
-0.0000

> <Gold.Chemscore.Lipo.Weighted>
-9.1122

> <Gold.Chemscore.Internal_Hbond.Weighted>
0.0000

> <Gold.Chemscore.DEClash.Weighted>
0.0149

> <Gold.Chemscore.DEInternal.Weighted>
0.2888

> <Gold.Chemscore.Rot.Weighted>
4.1090

> <Gold.Chemscore.Internal.Correction.Weighted>
   9.000000E+99

> <Gold.Protein.RotatedTorsions>
[ 6907 6896 6895 6894 ] final  135.31 input  -60.11 | X-H torsion
[ 7974 7965 7964 7962 ] final    0.99 input  175.53 | X-H torsion
[ 8008 7997 7996 7995 ] final   10.86 input   59.86 | X-H torsion
[ 10167 10162 10161 10158 ] final -125.48 input  -65.29 | X-H torsion
[ 10718 10713 10712 10709 ] final -174.76 input   66.30 | X-H torsion
[ 10763 10752 10751 10750 ] final   25.35 input  -60.55 | X-H torsion
[ 11005 11000 10999 10996 ] final  -71.64 input  -57.11 | X-H torsion

> <Gold.Protein.ActiveResidues>
 VAL166  LYS551  ARG553  GLY616  TRP617  ASP618  TYR619  PRO620  LYS621  CYS622 
 ASP623  PHE694  ASN695  SER759  ASP760  ASP761  ALA762  ILE779  LEU786  VAL792 
 PHE793  MET794  SER795  GLU796  ALA797  LYS798  CYS799  TRP800  GLU811  SER814 

> <Gold.Protein.RotatedAtoms>
  152.3019  133.5664  159.5623 H   0  0  0  0  0  0  0  0  0  0  0  0  # atno 6907 bound_to 6896
  150.7281  134.0279  159.3732 H   0  0  0  0  0  0  0  0  0  0  0  0  # atno 6908 bound_to 6896
  151.8178  135.0661  160.0472 H   0  0  0  0  0  0  0  0  0  0  0  0  # atno 6909 bound_to 6896
  146.2438  140.1054  142.8346 H   0  0  0  0  0  0  0  0  0  0  0  0  # atno 7974 bound_to 7965
  154.7991  140.2849  155.5934 H   0  0  0  0  0  0  0  0  0  0  0  0  # atno 8008 bound_to 7997
  156.2975  140.2590  156.2785 H   0  0  0  0  0  0  0  0  0  0  0  0  # atno 8009 bound_to 7997
  154.9579  140.0378  157.2165 H   0  0  0  0  0  0  0  0  0  0  0  0  # atno 8010 bound_to 7997
  139.9816  143.5736  152.2376 H   0  0  0  0  0  0  0  0  0  0  0  0  # atno 10167 bound_to 10162
  156.7899  130.9514  151.3120 H   0  0  0  0  0  0  0  0  0  0  0  0  # atno 10718 bound_to 10713
  153.0698  135.6585  154.0272 H   0  0  0  0  0  0  0  0  0  0  0  0  # atno 10763 bound_to 10752
  153.9921  135.2945  155.3412 H   0  0  0  0  0  0  0  0  0  0  0  0  # atno 10764 bound_to 10752
  154.7069  135.5221  153.8678 H   0  0  0  0  0  0  0  0  0  0  0  0  # atno 10765 bound_to 10752
  141.1595  133.6823  156.6937 H   0  0  0  0  0  0  0  0  0  0  0  0  # atno 11005 bound_to 11000
  145.0532  140.9033  143.4983 LP  0  0  0  0  0  0  0  0  0  0  0  0  # atno 17320 bound_to 7965
  145.1156  139.2728  143.5615 LP  0  0  0  0  0  0  0  0  0  0  0  0  # atno 17321 bound_to 7965
  139.6405  144.7654  151.2348 LP  0  0  0  0  0  0  0  0  0  0  0  0  # atno 17342 bound_to 10162
  140.7487  143.6325  150.8410 LP  0  0  0  0  0  0  0  0  0  0  0  0  # atno 17343 bound_to 10162
  157.6605  130.8962  149.9821 LP  0  0  0  0  0  0  0  0  0  0  0  0  # atno 17370 bound_to 10713
  156.1165  130.3647  149.9959 LP  0  0  0  0  0  0  0  0  0  0  0  0  # atno 17371 bound_to 10713
  140.3011  134.8163  157.4098 LP  0  0  0  0  0  0  0  0  0  0  0  0  # atno 17394 bound_to 11000
  140.1261  134.5156  155.8143 LP  0  0  0  0  0  0  0  0  0  0  0  0  # atno 17395 bound_to 11000

$$$$
