AV-unprocessed.smi:155|AV-procd|sdf|1268|dock2
  -GOLD-   2262018523D 1   1.00000     0.00000
 Structure written by MMmdl.
 63 66  0  0  0  0  0  0  0  0  2 V2000
  145.4782  132.4675  149.7197 C   0  0  0  0  0  0  0  0  0  0  0  0
  145.1868  133.0468  151.0242 N   0  0  0  0  0  0  0  0  0  0  0  0
  145.7962  132.2022  152.0458 C   0  0  0  0  0  0  0  0  0  0  0  0
  145.7113  134.4115  151.0695 C   0  0  0  0  0  0  0  0  0  0  0  0
  145.4922  135.1189  152.4304 C   0  0  0  0  0  0  0  0  0  0  0  0
  146.2379  136.3962  152.6082 N   0  3  1  0  0  0  0  0  0  0  0  0
  145.7662  137.4906  151.7230 C   0  0  0  0  0  0  0  0  0  0  0  0
  146.7662  138.6537  151.6228 C   0  0  0  0  0  0  0  0  0  0  0  0
  146.7839  139.5459  152.8744 C   0  0  0  0  0  0  0  0  0  0  0  0
  147.5990  139.0138  153.9681 N   0  0  0  0  0  0  0  0  0  0  0  0
  148.0875  139.8857  154.8892 C   0  0  0  0  0  0  0  0  0  0  0  0
  147.2226  140.7218  155.5230 N   0  0  0  0  0  0  0  0  0  0  0  0
  147.6654  141.5886  156.4383 C   0  0  0  0  0  0  0  0  0  0  0  0
  148.9142  141.7881  156.8622 N   0  0  0  0  0  0  0  0  0  0  0  0
  149.7906  140.9620  156.2240 C   0  0  0  0  0  0  0  0  0  0  0  0
  149.4671  139.9893  155.2348 C   0  0  0  0  0  0  0  0  0  0  0  0
  150.6272  139.3517  154.8076 N   0  0  0  0  0  0  0  0  0  0  0  0
  151.5773  139.9079  155.5083 C   0  0  0  0  0  0  0  0  0  0  0  0
  151.1625  140.8829  156.3856 N   0  0  0  0  0  0  0  0  0  0  0  0
  152.0062  141.6622  157.2758 C   0  0  0  0  0  0  0  0  0  0  0  0
  151.1889  142.5352  158.2521 C   0  0  2  0  0  0  0  0  0  0  0  0
  150.6334  143.6116  157.5210 O   0  0  0  0  0  0  0  0  0  0  0  0
  152.0400  143.1308  159.3920 C   0  0  2  0  0  0  0  0  0  0  0  0
  152.7731  142.1019  160.2543 C   0  0  0  0  0  0  0  0  0  0  0  0
  153.0099  142.8420  161.5590 C   0  0  0  0  0  0  0  0  0  0  0  0
  151.9579  143.9536  161.5427 C   0  0  0  0  0  0  0  0  0  0  0  0
  151.1967  143.7357  160.3618 O   0  0  0  0  0  0  0  0  0  0  0  0
  147.7150  137.5800  154.2381 C   0  0  0  0  0  0  0  0  0  0  0  0
  146.4072  136.8014  154.0262 C   0  0  0  0  0  0  0  0  0  0  0  0
  145.0108  133.0515  148.9262 H   0  0  0  0  0  0  0  0  0  0  0  0
  145.0861  131.4519  149.6532 H   0  0  0  0  0  0  0  0  0  0  0  0
  146.5522  132.4320  149.5303 H   0  0  0  0  0  0  0  0  0  0  0  0
  145.5611  132.5531  153.0497 H   0  0  0  0  0  0  0  0  0  0  0  0
  146.8816  132.1695  151.9398 H   0  0  0  0  0  0  0  0  0  0  0  0
  145.4188  131.1818  151.9686 H   0  0  0  0  0  0  0  0  0  0  0  0
  146.7792  134.3811  150.8478 H   0  0  0  0  0  0  0  0  0  0  0  0
  145.2671  135.0058  150.2713 H   0  0  0  0  0  0  0  0  0  0  0  0
  144.4349  135.2757  152.6410 H   0  0  0  0  0  0  0  0  0  0  0  0
  145.8317  134.4427  153.2157 H   0  0  0  0  0  0  0  0  0  0  0  0
  145.6162  137.0842  150.7219 H   0  0  0  0  0  0  0  0  0  0  0  0
  144.7969  137.8629  152.0561 H   0  0  0  0  0  0  0  0  0  0  0  0
  147.7675  138.2982  151.3752 H   0  0  0  0  0  0  0  0  0  0  0  0
  146.4576  139.2759  150.7821 H   0  0  0  0  0  0  0  0  0  0  0  0
  147.1937  140.5148  152.5849 H   0  0  0  0  0  0  0  0  0  0  0  0
  145.7692  139.7333  153.2278 H   0  0  0  0  0  0  0  0  0  0  0  0
  146.9112  142.2114  156.8965 H   0  0  0  0  0  0  0  0  0  0  0  0
  152.6139  139.6214  155.4042 H   0  0  0  0  0  0  0  0  0  0  0  0
  152.6395  140.9634  157.8225 H   0  0  0  0  0  0  0  0  0  0  0  0
  152.6744  142.2831  156.6775 H   0  0  0  0  0  0  0  0  0  0  0  0
  150.3774  141.9400  158.6734 H   0  0  0  0  0  0  0  0  0  0  0  0
  150.1531  143.2603  156.7870 H   0  0  0  0  0  0  0  0  0  0  0  0
  152.7531  143.8644  159.0098 H   0  0  0  0  0  0  0  0  0  0  0  0
  152.1315  141.2383  160.4363 H   0  0  0  0  0  0  0  0  0  0  0  0
  153.6980  141.7469  159.7987 H   0  0  0  0  0  0  0  0  0  0  0  0
  152.9015  142.1810  162.4197 H   0  0  0  0  0  0  0  0  0  0  0  0
  154.0121  143.2711  161.5872 H   0  0  0  0  0  0  0  0  0  0  0  0
  151.3147  143.9314  162.4226 H   0  0  0  0  0  0  0  0  0  0  0  0
  152.4344  144.9335  161.4928 H   0  0  0  0  0  0  0  0  0  0  0  0
  148.5235  137.1561  153.6413 H   0  0  0  0  0  0  0  0  0  0  0  0
  147.9995  137.4373  155.2811 H   0  0  0  0  0  0  0  0  0  0  0  0
  145.5410  137.3526  154.3955 H   0  0  0  0  0  0  0  0  0  0  0  0
  146.4740  135.8977  154.6331 H   0  0  0  0  0  0  0  0  0  0  0  0
  147.1710  136.1778  152.2894 H   0  0  0  0  0  0  0  0  0  0  0  0
  1  2  1  0  0  0  0
  1 30  1  0  0  0  0
  1 31  1  0  0  0  0
  1 32  1  0  0  0  0
  2  3  1  0  0  0  0
  2  4  1  0  0  0  0
  3 33  1  0  0  0  0
  3 34  1  0  0  0  0
  3 35  1  0  0  0  0
  4  5  1  0  0  0  0
  4 36  1  0  0  0  0
  4 37  1  0  0  0  0
  5  6  1  0  0  0  0
  5 38  1  0  0  0  0
  5 39  1  0  0  0  0
  6 29  1  0  0  0  0
  6  7  1  0  0  0  0
  6 63  1  0  0  0  0
  7  8  1  0  0  0  0
  7 40  1  0  0  0  0
  7 41  1  0  0  0  0
  8  9  1  0  0  0  0
  8 42  1  0  0  0  0
  8 43  1  0  0  0  0
  9 10  1  0  0  0  0
  9 44  1  0  0  0  0
  9 45  1  0  0  0  0
 10 11  1  0  0  0  0
 10 28  1  0  0  0  0
 11 16  1  0  0  0  0
 11 12  2  0  0  0  0
 12 13  1  0  0  0  0
 13 14  2  0  0  0  0
 13 46  1  0  0  0  0
 14 15  1  0  0  0  0
 15 19  1  0  0  0  0
 15 16  2  0  0  0  0
 16 17  1  0  0  0  0
 17 18  2  0  0  0  0
 18 19  1  0  0  0  0
 18 47  1  0  0  0  0
 19 20  1  0  0  0  0
 20 21  1  0  0  0  0
 20 48  1  0  0  0  0
 20 49  1  0  0  0  0
 21 22  1  0  0  0  0
 21 23  1  0  0  0  0
 21 50  1  0  0  0  0
 22 51  1  0  0  0  0
 23 27  1  0  0  0  0
 23 24  1  0  0  0  0
 23 52  1  0  0  0  0
 24 25  1  0  0  0  0
 24 53  1  0  0  0  0
 24 54  1  0  0  0  0
 25 26  1  0  0  0  0
 25 55  1  0  0  0  0
 25 56  1  0  0  0  0
 26 27  1  0  0  0  0
 26 57  1  0  0  0  0
 26 58  1  0  0  0  0
 28 29  1  0  0  0  0
 28 59  1  0  0  0  0
 28 60  1  0  0  0  0
 29 61  1  0  0  0  0
 29 62  1  0  0  0  0
M  CHG  1   6   1
M  END
> <s_m_source_file>
AV-unprocessed.smi

> <i_m_source_file_index>
155

> <i_lp_mmshare_version>
43012

> <i_f3d_flags>
0

> <s_epik_input>
W0NIM11OKFtDSDNdKVtDSDJdW0NIMl1OMVtDSDJdW0NIMl1bQ0gyXU4oW0NIMl1bQ0gyXTEpYyhuW2NIXW4yKWMoYzIzKW5bY0hdbjNbQ0gyXVtDQEhdKFtPSF0pW0NAQEhdNFtDSDJdW0NIMl1bQ0gyXU80

> <s_epik_cmdline>
J2VwaWtfcHl0aG9uJywgJy1waCcsICc3LjAnLCAnLXRuJywgJzgnLCAnLW1hJywgJzIwMCcsICctbWV0YWxfYmluZGluZycsICctaW1hZScsICc8aW5maWxlLm1hZT4nLCAnLW9tYWUnLCAnPG91dGZpbGUubWFlPic=

> <r_epik_Ionization_Penalty>
0.0619615

> <r_epik_Ionization_Penalty_Charging>
0.0161638

> <r_epik_Ionization_Penalty_Neutral>
0.0457976

> <r_epik_State_Penalty>
0.403408

> <r_epik_Charging_Adjusted_Penalty>
0.419572

> <i_epik_Tot_Q>
1

> <i_epik_Tot_abs_Q>
1

> <r_epik_Metal_State_Penalty>
0.404222

> <b_epik_Metal_Only>
0

> <s_lp_Force_Field>
OPLS_2005

> <r_lp_Energy>
54.9727

> <b_lp_Chiralities_Consistent>
1

> <s_lp_Variant>
AV-unprocessed.smi:155-2

> <Gold.Version>
5.8.1

> <Gold.Id.Protein>
6NUR|6NUR_protein|mol2

> <Gold.PLP.Fitness>
49.8054

> <Gold.PLP.PLP>
-46.0138

> <Gold.PLP.part.hbond>
-2.4270

> <Gold.PLP.part.metal>
0.0000

> <Gold.PLP.part.buried>
-2.5963

> <Gold.PLP.part.nonpolar>
-40.8816

> <Gold.PLP.part.repulsive>
0.4703

> <Gold.PLP.ligand.clash>
0.0000

> <Gold.PLP.ligand.torsion>
1.4327

> <Gold.PLP.Chemscore.Hbond>
2.0572

> <Gold.PLP.Chemscore.CHOScore>
0.0000

> <Gold.PLP.Chemscore.Metal>
0.0000

> <Gold.Chemscore.Hbonds>
donor molecule, donor type, donor heavy atom, donor atom, acceptor molecule, acceptor atom, score
      L1  H     6    63       P1  7948  2.00
      L1  H    22    51       P1  8028  0.15

> <Gold.PLP.Chemscore.Internal.Correction>
0.4854

> <Gold.Rescore>
     Score         DG    S(hbond)    S(metal)    S(lipo)     H(rot)  DE(clash)    DE(int)     intcor
     13.06     -16.78       1.28        0.00     117.52       2.63       0.90       2.82       ----

> <Gold.Chemscore.Fitness>
13.0644

> <Gold.Chemscore.DG>
-16.7825

> <Gold.Chemscore.ZeroCoef>
-5.4800

> <Gold.Chemscore.Hbond>
1.2849

> <Gold.Chemscore.Metal>
0.0000

> <Gold.Chemscore.Lipo>
117.5200

> <Gold.Chemscore.Internal_Hbond>
0.0000

> <Gold.Chemscore.DEClash>
0.8992

> <Gold.Chemscore.DEInternal>
2.8189

> <Gold.Chemscore.Rot>
2.6324

> <Gold.Chemscore.Internal.Correction>
   9.000000E+99

> <Gold.Chemscore.Hbonds>
donor molecule, donor type, donor heavy atom, donor atom, acceptor molecule, acceptor atom, score
      L1  H     6    63       P1  7948  1.00
      L1  H    22    51       P1  8028  0.15

> <Gold.Chemscore.Hbond.Weighted>
-4.2915

> <Gold.Chemscore.Metal.Weighted>
-0.0000

> <Gold.Chemscore.Lipo.Weighted>
-13.7498

> <Gold.Chemscore.Internal_Hbond.Weighted>
0.0000

> <Gold.Chemscore.DEClash.Weighted>
0.8992

> <Gold.Chemscore.DEInternal.Weighted>
2.8189

> <Gold.Chemscore.Rot.Weighted>
6.7389

> <Gold.Chemscore.Internal.Correction.Weighted>
   9.000000E+99

> <Gold.Protein.RotatedTorsions>
[ 6907 6896 6895 6894 ] final    4.90 input  -60.11 | X-H torsion
[ 7974 7965 7964 7962 ] final   29.81 input  175.53 | X-H torsion
[ 8008 7997 7996 7995 ] final -171.09 input   59.86 | X-H torsion
[ 10167 10162 10161 10158 ] final -136.97 input  -65.29 | X-H torsion
[ 10718 10713 10712 10709 ] final   22.43 input   66.30 | X-H torsion
[ 10763 10752 10751 10750 ] final   41.05 input  -60.55 | X-H torsion
[ 11005 11000 10999 10996 ] final  123.36 input  -57.11 | X-H torsion

> <Gold.Protein.ActiveResidues>
 VAL166  LYS551  ARG553  GLY616  TRP617  ASP618  TYR619  PRO620  LYS621  CYS622 
 ASP623  PHE694  ASN695  SER759  ASP760  ASP761  ALA762  ILE779  LEU786  VAL792 
 PHE793  MET794  SER795  GLU796  ALA797  LYS798  CYS799  TRP800  GLU811  SER814 

> <Gold.Protein.RotatedAtoms>
  151.6488  135.1004  160.0156 H   0  0  0  0  0  0  0  0  0  0  0  0  # atno 6907 bound_to 6896
  152.4013  133.6817  159.6327 H   0  0  0  0  0  0  0  0  0  0  0  0  # atno 6908 bound_to 6896
  150.7912  133.8704  159.3298 H   0  0  0  0  0  0  0  0  0  0  0  0  # atno 6909 bound_to 6896
  146.1649  139.6872  142.9008 H   0  0  0  0  0  0  0  0  0  0  0  0  # atno 7974 bound_to 7965
  155.9270  140.1084  157.1162 H   0  0  0  0  0  0  0  0  0  0  0  0  # atno 8008 bound_to 7997
  154.4064  140.1245  156.4819 H   0  0  0  0  0  0  0  0  0  0  0  0  # atno 8009 bound_to 7997
  155.7126  140.3471  155.4983 H   0  0  0  0  0  0  0  0  0  0  0  0  # atno 8010 bound_to 7997
  139.8624  143.7060  152.2648 H   0  0  0  0  0  0  0  0  0  0  0  0  # atno 10167 bound_to 10162
  157.1522  130.6680  149.6015 H   0  0  0  0  0  0  0  0  0  0  0  0  # atno 10718 bound_to 10713
  152.9919  135.6173  154.2724 H   0  0  0  0  0  0  0  0  0  0  0  0  # atno 10763 bound_to 10752
  154.2457  135.2787  155.2838 H   0  0  0  0  0  0  0  0  0  0  0  0  # atno 10764 bound_to 10752
  154.5331  135.5782  153.6833 H   0  0  0  0  0  0  0  0  0  0  0  0  # atno 10765 bound_to 10752
  139.9309  134.9641  156.8247 H   0  0  0  0  0  0  0  0  0  0  0  0  # atno 11005 bound_to 11000
  145.4492  141.0427  143.2814 LP  0  0  0  0  0  0  0  0  0  0  0  0  # atno 17320 bound_to 7965
  144.8079  139.6017  143.7042 LP  0  0  0  0  0  0  0  0  0  0  0  0  # atno 17321 bound_to 7965
  139.7361  144.7571  151.0726 LP  0  0  0  0  0  0  0  0  0  0  0  0  # atno 17342 bound_to 10162
  140.7773  143.5029  150.9749 LP  0  0  0  0  0  0  0  0  0  0  0  0  # atno 17343 bound_to 10162
  155.9768  130.4740  150.6554 LP  0  0  0  0  0  0  0  0  0  0  0  0  # atno 17370 bound_to 10713
  157.4210  131.0836  151.1131 LP  0  0  0  0  0  0  0  0  0  0  0  0  # atno 17371 bound_to 10713
  140.6205  133.9998  155.7616 LP  0  0  0  0  0  0  0  0  0  0  0  0  # atno 17394 bound_to 11000
  141.0897  133.9936  157.3257 LP  0  0  0  0  0  0  0  0  0  0  0  0  # atno 17395 bound_to 11000

$$$$
