AV-unprocessed.smi:2344|AV-procd|sdf|9360|dock7
  -GOLD-   2272012583D 1   1.00000     0.00000
 Structure written by MMmdl.
 35 36  0  0  0  0  0  0  0  0  1 V2000
  153.7785  142.7496  163.1645 C   0  0  0  0  0  0  0  0  0  0  0  0
  153.0364  142.7716  161.8447 C   0  0  0  0  0  0  0  0  0  0  0  0
  153.1749  141.7244  160.9144 C   0  0  0  0  0  0  0  0  0  0  0  0
  152.4606  141.7942  159.7028 C   0  0  0  0  0  0  0  0  0  0  0  0
  151.6256  142.9058  159.4504 C   0  0  0  0  0  0  0  0  0  0  0  0
  150.9527  142.8804  158.2000 N   0  0  0  0  0  0  0  0  0  0  0  0
  150.5891  141.8094  157.4728 C   0  0  0  0  0  0  0  0  0  0  0  0
  150.7919  140.6346  157.7816 O   0  0  0  0  0  0  0  0  0  0  0  0
  149.9703  142.1787  156.3426 N   0  0  0  0  0  0  0  0  0  0  0  0
  149.4803  141.2598  155.3218 C   0  0  1  0  0  0  0  0  0  0  0  0
  148.4649  140.3178  155.9107 C   0  0  0  0  0  0  0  0  0  0  0  0
  147.2793  140.3968  155.3106 C   0  0  0  0  0  0  0  0  0  0  0  0
  147.2569  141.4188  154.2035 C   0  0  1  0  0  0  0  0  0  0  0  0
  146.1583  142.4834  154.3872 C   0  0  0  0  0  0  0  0  0  0  0  0
  144.9153  141.9005  154.7278 O   0  0  0  0  0  0  0  0  0  0  0  0
  148.6998  141.9860  154.1936 C   0  0  0  0  0  0  0  0  0  0  0  0
  151.4974  143.9091  160.3542 N   0  0  0  0  0  0  0  0  0  0  0  0
  152.1820  143.8415  161.5150 C   0  0  0  0  0  0  0  0  0  0  0  0
  150.3042  140.6731  154.9117 H   0  0  0  0  0  0  0  0  0  0  0  0
  147.0752  140.8852  153.2698 H   0  0  0  0  0  0  0  0  0  0  0  0
  154.6395  142.0822  163.1187 H   0  0  0  0  0  0  0  0  0  0  0  0
  153.1188  142.4057  163.9611 H   0  0  0  0  0  0  0  0  0  0  0  0
  154.1366  143.7470  163.4208 H   0  0  0  0  0  0  0  0  0  0  0  0
  153.8164  140.8805  161.1218 H   0  0  0  0  0  0  0  0  0  0  0  0
  152.5558  140.9993  158.9773 H   0  0  0  0  0  0  0  0  0  0  0  0
  150.7250  143.7837  157.8117 H   0  0  0  0  0  0  0  0  0  0  0  0
  149.8469  143.1645  156.1637 H   0  0  0  0  0  0  0  0  0  0  0  0
  148.7040  139.6512  156.7264 H   0  0  0  0  0  0  0  0  0  0  0  0
  146.4116  139.8073  155.5675 H   0  0  0  0  0  0  0  0  0  0  0  0
  146.4430  143.1882  155.1688 H   0  0  0  0  0  0  0  0  0  0  0  0
  146.0337  143.0589  153.4693 H   0  0  0  0  0  0  0  0  0  0  0  0
  144.7365  141.1982  154.1210 H   0  0  0  0  0  0  0  0  0  0  0  0
  148.7047  143.0687  154.3297 H   0  0  0  0  0  0  0  0  0  0  0  0
  149.1725  141.7964  153.2292 H   0  0  0  0  0  0  0  0  0  0  0  0
  152.0428  144.6660  162.1988 H   0  0  0  0  0  0  0  0  0  0  0  0
  1  2  1  0  0  0  0
  1 21  1  0  0  0  0
  1 22  1  0  0  0  0
  1 23  1  0  0  0  0
  2 18  1  0  0  0  0
  2  3  2  0  0  0  0
  3  4  1  0  0  0  0
  3 24  1  0  0  0  0
  4  5  2  0  0  0  0
  4 25  1  0  0  0  0
  5  6  1  0  0  0  0
  5 17  1  0  0  0  0
  6  7  1  0  0  0  0
  6 26  1  0  0  0  0
  7  8  2  0  0  0  0
  7  9  1  0  0  0  0
  9 10  1  0  0  0  0
  9 27  1  0  0  0  0
 10 19  1  0  0  0  0
 10 16  1  0  0  0  0
 10 11  1  0  0  0  0
 11 12  2  0  0  0  0
 11 28  1  0  0  0  0
 12 13  1  0  0  0  0
 12 29  1  0  0  0  0
 13 20  1  0  0  0  0
 13 14  1  0  0  0  0
 13 16  1  0  0  0  0
 14 15  1  0  0  0  0
 14 30  1  0  0  0  0
 14 31  1  0  0  0  0
 15 32  1  0  0  0  0
 16 33  1  0  0  0  0
 16 34  1  0  0  0  0
 17 18  2  0  0  0  0
 18 35  1  0  0  0  0
M  END
> <s_m_source_file>
AV-unprocessed.smi

> <i_m_source_file_index>
2344

> <i_lp_mmshare_version>
43012

> <i_f3d_flags>
0

> <s_epik_input>
W0NIM11jMVtjSF1bY0hdYyhuW2NIXTEpW05IXUMoPU8pW05IXVtDQEBIXTJbQ0hdPVtDSF1bQ0BASF0oW0NIMl0yKVtDSDJdW09IXQ==

> <s_epik_cmdline>
J2VwaWtfcHl0aG9uJywgJy1waCcsICc3LjAnLCAnLXRuJywgJzgnLCAnLW1hJywgJzIwMCcsICctbWV0YWxfYmluZGluZycsICctaW1hZScsICc8aW5maWxlLm1hZT4nLCAnLW9tYWUnLCAnPG91dGZpbGUubWFlPic=

> <r_lp_tautomer_probability>
1

> <r_epik_Ionization_Penalty>
5.7643e-05

> <r_epik_Ionization_Penalty_Charging>
0

> <r_epik_Ionization_Penalty_Neutral>
5.7643e-05

> <r_epik_State_Penalty>
-0

> <r_epik_Charging_Adjusted_Penalty>
0

> <i_epik_Tot_Q>
0

> <i_epik_Tot_abs_Q>
0

> <r_epik_Metal_State_Penalty>
-0

> <b_epik_Metal_Only>
0

> <s_lp_Force_Field>
OPLS_2005

> <r_lp_Energy>
18.1017

> <b_lp_Chiralities_Consistent>
1

> <s_lp_Variant>
AV-unprocessed.smi:2344-4

> <Gold.Version>
5.8.1

> <Gold.Id.Protein>
6NUR|6NUR_protein|mol2

> <Gold.PLP.Fitness>
42.4884

> <Gold.PLP.PLP>
-37.0188

> <Gold.PLP.part.hbond>
-2.0000

> <Gold.PLP.part.metal>
0.0000

> <Gold.PLP.part.buried>
-1.3529

> <Gold.PLP.part.nonpolar>
-34.1104

> <Gold.PLP.part.repulsive>
0.2118

> <Gold.PLP.ligand.clash>
0.0000

> <Gold.PLP.ligand.torsion>
0.2718

> <Gold.PLP.Chemscore.Hbond>
2.0000

> <Gold.PLP.Chemscore.CHOScore>
0.0000

> <Gold.PLP.Chemscore.Metal>
0.0000

> <Gold.Chemscore.Hbonds>
donor molecule, donor type, donor heavy atom, donor atom, acceptor molecule, acceptor atom, score
      L1  H     9    27       P1  8028  1.00
      L1  H    15    32       P1 10175  0.89

> <Gold.PLP.Chemscore.Internal.Correction>
0.0132

> <Gold.Rescore>
     Score         DG    S(hbond)    S(metal)    S(lipo)     H(rot)  DE(clash)    DE(int)     intcor
     13.43     -17.10       1.82        0.00      87.19       1.82       0.70       2.96       ----

> <Gold.Chemscore.Fitness>
13.4312

> <Gold.Chemscore.DG>
-17.0952

> <Gold.Chemscore.ZeroCoef>
-5.4800

> <Gold.Chemscore.Hbond>
1.8171

> <Gold.Chemscore.Metal>
0.0000

> <Gold.Chemscore.Lipo>
87.1903

> <Gold.Chemscore.Internal_Hbond>
0.0000

> <Gold.Chemscore.DEClash>
0.7010

> <Gold.Chemscore.DEInternal>
2.9631

> <Gold.Chemscore.Rot>
1.8184

> <Gold.Chemscore.Internal.Correction>
   9.000000E+99

> <Gold.Chemscore.Hbonds>
donor molecule, donor type, donor heavy atom, donor atom, acceptor molecule, acceptor atom, score
      L1  H     9    27       P1  8028  0.98
      L1  H    15    32       P1 10175  0.57

> <Gold.Chemscore.Hbond.Weighted>
-6.0690

> <Gold.Chemscore.Metal.Weighted>
-0.0000

> <Gold.Chemscore.Lipo.Weighted>
-10.2013

> <Gold.Chemscore.Internal_Hbond.Weighted>
0.0000

> <Gold.Chemscore.DEClash.Weighted>
0.7010

> <Gold.Chemscore.DEInternal.Weighted>
2.9631

> <Gold.Chemscore.Rot.Weighted>
4.6551

> <Gold.Chemscore.Internal.Correction.Weighted>
   9.000000E+99

> <Gold.Protein.RotatedTorsions>
[ 6907 6896 6895 6894 ] final  125.03 input  -60.11 | X-H torsion
[ 7974 7965 7964 7962 ] final  -22.60 input  175.53 | X-H torsion
[ 8008 7997 7996 7995 ] final -110.66 input   59.86 | X-H torsion
[ 10167 10162 10161 10158 ] final  -10.42 input  -65.29 | X-H torsion
[ 10718 10713 10712 10709 ] final  -74.34 input   66.30 | X-H torsion
[ 10763 10752 10751 10750 ] final  117.90 input  -60.55 | X-H torsion
[ 11005 11000 10999 10996 ] final  -28.09 input  -57.11 | X-H torsion

> <Gold.Protein.ActiveResidues>
 VAL166  LYS551  ARG553  GLY616  TRP617  ASP618  TYR619  PRO620  LYS621  CYS622 
 ASP623  PHE694  ASN695  SER759  ASP760  ASP761  ALA762  ILE779  LEU786  VAL792 
 PHE793  MET794  SER795  GLU796  ALA797  LYS798  CYS799  TRP800  GLU811  SER814 

> <Gold.Protein.RotatedAtoms>
  152.4028  133.6843  159.6330 H   0  0  0  0  0  0  0  0  0  0  0  0  # atno 6907 bound_to 6896
  150.7916  133.8762  159.3281 H   0  0  0  0  0  0  0  0  0  0  0  0  # atno 6908 bound_to 6896
  151.6524  135.1001  160.0214 H   0  0  0  0  0  0  0  0  0  0  0  0  # atno 6909 bound_to 6896
  146.1666  140.4501  142.8549 H   0  0  0  0  0  0  0  0  0  0  0  0  # atno 7974 bound_to 7965
  154.9779  140.0396  157.2264 H   0  0  0  0  0  0  0  0  0  0  0  0  # atno 8008 bound_to 7997
  154.7741  140.2807  155.6092 H   0  0  0  0  0  0  0  0  0  0  0  0  # atno 8009 bound_to 7997
  156.2926  140.2604  156.2550 H   0  0  0  0  0  0  0  0  0  0  0  0  # atno 8010 bound_to 7997
  140.7113  143.5750  150.9052 H   0  0  0  0  0  0  0  0  0  0  0  0  # atno 10167 bound_to 10162
  156.0246  130.4415  150.2878 H   0  0  0  0  0  0  0  0  0  0  0  0  # atno 10718 bound_to 10713
  153.5594  135.3524  155.2793 H   0  0  0  0  0  0  0  0  0  0  0  0  # atno 10763 bound_to 10752
  154.8697  135.4133  154.2848 H   0  0  0  0  0  0  0  0  0  0  0  0  # atno 10764 bound_to 10752
  153.3591  135.7059  153.6796 H   0  0  0  0  0  0  0  0  0  0  0  0  # atno 10765 bound_to 10752
  140.9177  133.7419  156.0758 H   0  0  0  0  0  0  0  0  0  0  0  0  # atno 11005 bound_to 11000
  144.8101  140.6371  143.6421 LP  0  0  0  0  0  0  0  0  0  0  0  0  # atno 17320 bound_to 7965
  145.4451  139.1530  143.3949 LP  0  0  0  0  0  0  0  0  0  0  0  0  # atno 17321 bound_to 7965
  139.9476  143.6310  152.3038 LP  0  0  0  0  0  0  0  0  0  0  0  0  # atno 17342 bound_to 10162
  139.6817  144.7655  151.1597 LP  0  0  0  0  0  0  0  0  0  0  0  0  # atno 17343 bound_to 10162
  157.0982  131.0188  151.3096 LP  0  0  0  0  0  0  0  0  0  0  0  0  # atno 17370 bound_to 10713
  157.4801  130.7760  149.7406 LP  0  0  0  0  0  0  0  0  0  0  0  0  # atno 17371 bound_to 10713
  140.8028  134.3489  157.5434 LP  0  0  0  0  0  0  0  0  0  0  0  0  # atno 17394 bound_to 11000
  139.8769  134.9208  156.3260 LP  0  0  0  0  0  0  0  0  0  0  0  0  # atno 17395 bound_to 11000

$$$$
