AV-unprocessed.smi:3281|AV-procd|sdf|12558|dock6
  -GOLD-   2272018473D 1   1.00000     0.00000
 Structure written by MMmdl.
 36 37  0  0  0  0  0  0  0  0  1 V2000
  149.6169  134.7557  154.9228 C   0  0  0  0  0  0  0  0  0  0  0  0
  150.8629  135.6070  155.1906 C   0  0  0  0  0  0  0  0  0  0  0  0
  150.6119  137.0729  155.0584 C   0  0  0  0  0  0  0  0  0  0  0  0
  151.1846  137.9434  154.1644 C   0  0  0  0  0  0  0  0  0  0  0  0
  150.7470  139.2625  154.3009 N   0  0  0  0  0  0  0  0  0  0  0  0
  149.8423  139.4023  155.2734 C   0  0  0  0  0  0  0  0  0  0  0  0
  149.2370  140.7131  155.6616 C   0  0  0  0  0  0  0  0  0  0  0  0
  150.2581  141.7051  156.2408 C   0  0  0  0  0  0  0  0  0  0  0  0
  149.5917  142.6970  157.0744 N   0  0  0  0  0  0  0  0  0  0  0  0
  150.4482  143.1848  158.1475 C   0  0  2  0  0  0  0  0  0  0  0  0
  151.5000  144.1183  157.5174 C   0  0  0  0  0  0  0  0  0  0  0  0
  152.4353  144.7439  158.5643 C   0  0  0  0  0  0  0  0  0  0  0  0
  153.2395  143.6874  159.3341 C   0  0  0  0  0  0  0  0  0  0  0  0
  152.1455  142.5751  160.2578 S   0  0  0  0  0  0  0  0  0  0  0  0
  151.1142  142.0012  158.8808 C   0  0  0  0  0  0  0  0  0  0  0  0
  149.4880  137.8957  156.1098 S   0  0  0  0  0  0  0  0  0  0  0  0
  149.8403  133.6946  155.0341 H   0  0  0  0  0  0  0  0  0  0  0  0
  149.2414  134.9124  153.9112 H   0  0  0  0  0  0  0  0  0  0  0  0
  148.8155  135.0026  155.6197 H   0  0  0  0  0  0  0  0  0  0  0  0
  151.2377  135.3900  156.1915 H   0  0  0  0  0  0  0  0  0  0  0  0
  151.6557  135.3132  154.5020 H   0  0  0  0  0  0  0  0  0  0  0  0
  151.9145  137.7115  153.4030 H   0  0  0  0  0  0  0  0  0  0  0  0
  148.7369  141.1465  154.7942 H   0  0  0  0  0  0  0  0  0  0  0  0
  148.4581  140.5223  156.4002 H   0  0  0  0  0  0  0  0  0  0  0  0
  150.9916  141.1705  156.8450 H   0  0  0  0  0  0  0  0  0  0  0  0
  150.8000  142.1838  155.4256 H   0  0  0  0  0  0  0  0  0  0  0  0
  149.2692  143.4710  156.5105 H   0  0  0  0  0  0  0  0  0  0  0  0
  149.8461  143.7660  158.8478 H   0  0  0  0  0  0  0  0  0  0  0  0
  152.0922  143.5735  156.7805 H   0  0  0  0  0  0  0  0  0  0  0  0
  150.9980  144.9192  156.9727 H   0  0  0  0  0  0  0  0  0  0  0  0
  153.1245  145.4274  158.0674 H   0  0  0  0  0  0  0  0  0  0  0  0
  151.8564  145.3488  159.2634 H   0  0  0  0  0  0  0  0  0  0  0  0
  153.8490  143.0985  158.6481 H   0  0  0  0  0  0  0  0  0  0  0  0
  153.9214  144.1690  160.0353 H   0  0  0  0  0  0  0  0  0  0  0  0
  150.3722  141.3158  159.2893 H   0  0  0  0  0  0  0  0  0  0  0  0
  151.7344  141.4239  158.1939 H   0  0  0  0  0  0  0  0  0  0  0  0
  1  2  1  0  0  0  0
  1 17  1  0  0  0  0
  1 18  1  0  0  0  0
  1 19  1  0  0  0  0
  2  3  1  0  0  0  0
  2 20  1  0  0  0  0
  2 21  1  0  0  0  0
  3 16  1  0  0  0  0
  3  4  2  0  0  0  0
  4  5  1  0  0  0  0
  4 22  1  0  0  0  0
  5  6  2  0  0  0  0
  6  7  1  0  0  0  0
  6 16  1  0  0  0  0
  7  8  1  0  0  0  0
  7 23  1  0  0  0  0
  7 24  1  0  0  0  0
  8  9  1  0  0  0  0
  8 25  1  0  0  0  0
  8 26  1  0  0  0  0
  9 10  1  0  0  0  0
  9 27  1  0  0  0  0
 10 15  1  0  0  0  0
 10 11  1  0  0  0  0
 10 28  1  0  0  0  0
 11 12  1  0  0  0  0
 11 29  1  0  0  0  0
 11 30  1  0  0  0  0
 12 13  1  0  0  0  0
 12 31  1  0  0  0  0
 12 32  1  0  0  0  0
 13 14  1  0  0  0  0
 13 33  1  0  0  0  0
 13 34  1  0  0  0  0
 14 15  1  0  0  0  0
 15 35  1  0  0  0  0
 15 36  1  0  0  0  0
M  END
> <s_m_source_file>
AV-unprocessed.smi

> <i_m_source_file_index>
3281

> <i_lp_mmshare_version>
43012

> <i_f3d_flags>
0

> <s_epik_input>
W0NIM11bQ0gyXWMxW2NIXW5jKHMxKVtDSDJdW0NIMl1bTkhdW0NAQEhdMltDSDJdW0NIMl1bQ0gyXVNbQ0gyXTI=

> <s_epik_cmdline>
J2VwaWtfcHl0aG9uJywgJy1waCcsICc3LjAnLCAnLXRuJywgJzgnLCAnLW1hJywgJzIwMCcsICctbWV0YWxfYmluZGluZycsICctaW1hZScsICc8aW5maWxlLm1hZT4nLCAnLW9tYWUnLCAnPG91dGZpbGUubWFlPic=

> <r_epik_Ionization_Penalty>
2.53829

> <r_epik_Ionization_Penalty_Charging>
0

> <r_epik_Ionization_Penalty_Neutral>
2.53829

> <r_epik_State_Penalty>
2.70274

> <r_epik_Charging_Adjusted_Penalty>
2.70274

> <i_epik_Tot_Q>
0

> <i_epik_Tot_abs_Q>
0

> <r_epik_Metal_State_Penalty>
2.69977

> <b_epik_Metal_Only>
0

> <s_lp_Force_Field>
OPLS_2005

> <r_lp_Energy>
0.229732

> <b_lp_Chiralities_Consistent>
1

> <s_lp_Variant>
AV-unprocessed.smi:3281-3

> <Gold.Version>
5.8.1

> <Gold.Id.Protein>
6NUR|6NUR_protein|mol2

> <Gold.PLP.Fitness>
42.0800

> <Gold.PLP.PLP>
-34.4302

> <Gold.PLP.part.hbond>
-2.0000

> <Gold.PLP.part.metal>
0.0000

> <Gold.PLP.part.buried>
-3.3012

> <Gold.PLP.part.nonpolar>
-30.2055

> <Gold.PLP.part.repulsive>
0.1729

> <Gold.PLP.ligand.clash>
0.0000

> <Gold.PLP.ligand.torsion>
0.4345

> <Gold.PLP.Chemscore.Hbond>
2.0000

> <Gold.PLP.Chemscore.CHOScore>
0.8345

> <Gold.PLP.Chemscore.Metal>
0.0000

> <Gold.Chemscore.Hbonds>
donor molecule, donor type, donor heavy atom, donor atom, acceptor molecule, acceptor atom, score
      L1  H     9    27       P1  8028  1.00
      P1  H  7989  7998       L1     5  1.00
      L1  C     4    22       P1  7949  0.48

> <Gold.PLP.Chemscore.Internal.Correction>
0.0156

> <Gold.Rescore>
     Score         DG    S(hbond)    S(metal)    S(lipo)     H(rot)  DE(clash)    DE(int)     intcor
     21.51     -21.89       1.95        0.00     112.90       1.30       0.11       0.27       ----

> <Gold.Chemscore.Fitness>
21.5111

> <Gold.Chemscore.DG>
-21.8930

> <Gold.Chemscore.ZeroCoef>
-5.4800

> <Gold.Chemscore.Hbond>
1.9535

> <Gold.Chemscore.Metal>
0.0000

> <Gold.Chemscore.Lipo>
112.8986

> <Gold.Chemscore.Internal_Hbond>
0.0000

> <Gold.Chemscore.DEClash>
0.1096

> <Gold.Chemscore.DEInternal>
0.2723

> <Gold.Chemscore.Rot>
1.2972

> <Gold.Chemscore.Internal.Correction>
   9.000000E+99

> <Gold.Chemscore.Hbonds>
donor molecule, donor type, donor heavy atom, donor atom, acceptor molecule, acceptor atom, score
      L1  H     9    27       P1  8028  0.96
      P1  H  7989  7998       L1     5  0.95

> <Gold.Chemscore.Hbond.Weighted>
-6.5246

> <Gold.Chemscore.Metal.Weighted>
-0.0000

> <Gold.Chemscore.Lipo.Weighted>
-13.2091

> <Gold.Chemscore.Internal_Hbond.Weighted>
0.0000

> <Gold.Chemscore.DEClash.Weighted>
0.1096

> <Gold.Chemscore.DEInternal.Weighted>
0.2723

> <Gold.Chemscore.Rot.Weighted>
3.3208

> <Gold.Chemscore.Internal.Correction.Weighted>
   9.000000E+99

> <Gold.Protein.RotatedTorsions>
[ 6907 6896 6895 6894 ] final  -52.87 input  -60.11 | X-H torsion
[ 7974 7965 7964 7962 ] final -107.94 input  175.53 | X-H torsion
[ 8008 7997 7996 7995 ] final -128.91 input   59.86 | X-H torsion
[ 10167 10162 10161 10158 ] final  179.26 input  -65.29 | X-H torsion
[ 10718 10713 10712 10709 ] final   52.51 input   66.30 | X-H torsion
[ 10763 10752 10751 10750 ] final   93.41 input  -60.55 | X-H torsion
[ 11005 11000 10999 10996 ] final -122.04 input  -57.11 | X-H torsion

> <Gold.Protein.ActiveResidues>
 VAL166  LYS551  ARG553  GLY616  TRP617  ASP618  TYR619  PRO620  LYS621  CYS622 
 ASP623  PHE694  ASN695  SER759  ASP760  ASP761  ALA762  ILE779  LEU786  VAL792 
 PHE793  MET794  SER795  GLU796  ALA797  LYS798  CYS799  TRP800  GLU811  SER814 

> <Gold.Protein.RotatedAtoms>
  150.8478  134.7793  159.6984 H   0  0  0  0  0  0  0  0  0  0  0  0  # atno 6907 bound_to 6896
  152.4551  134.5306  159.9820 H   0  0  0  0  0  0  0  0  0  0  0  0  # atno 6908 bound_to 6896
  151.5433  133.3391  159.2975 H   0  0  0  0  0  0  0  0  0  0  0  0  # atno 6909 bound_to 6896
  145.1990  140.9048  143.3380 H   0  0  0  0  0  0  0  0  0  0  0  0  # atno 7974 bound_to 7965
  155.2705  140.0440  157.3006 H   0  0  0  0  0  0  0  0  0  0  0  0  # atno 8008 bound_to 7997
  154.5656  140.2359  155.8237 H   0  0  0  0  0  0  0  0  0  0  0  0  # atno 8009 bound_to 7997
  156.2082  140.3006  155.9682 H   0  0  0  0  0  0  0  0  0  0  0  0  # atno 8010 bound_to 7997
  139.5329  144.2582  152.0729 H   0  0  0  0  0  0  0  0  0  0  0  0  # atno 10167 bound_to 10162
  157.5081  130.8482  149.8400 H   0  0  0  0  0  0  0  0  0  0  0  0  # atno 10718 bound_to 10713
  153.2300  135.4326  155.0584 H   0  0  0  0  0  0  0  0  0  0  0  0  # atno 10763 bound_to 10752
  154.8292  135.3377  154.6802 H   0  0  0  0  0  0  0  0  0  0  0  0  # atno 10764 bound_to 10752
  153.7229  135.7016  153.5064 H   0  0  0  0  0  0  0  0  0  0  0  0  # atno 10765 bound_to 10752
  141.0025  134.0382  157.3519 H   0  0  0  0  0  0  0  0  0  0  0  0  # atno 11005 bound_to 11000
  144.9966  139.3638  143.6188 LP  0  0  0  0  0  0  0  0  0  0  0  0  # atno 17320 bound_to 7965
  146.3421  139.9171  142.8772 LP  0  0  0  0  0  0  0  0  0  0  0  0  # atno 17321 bound_to 7965
  140.2048  144.4622  150.6414 LP  0  0  0  0  0  0  0  0  0  0  0  0  # atno 17342 bound_to 10162
  140.6518  143.2227  151.6060 LP  0  0  0  0  0  0  0  0  0  0  0  0  # atno 17343 bound_to 10162
  156.0271  130.3776  150.1791 LP  0  0  0  0  0  0  0  0  0  0  0  0  # atno 17370 bound_to 10713
  156.9981  130.9914  151.3398 LP  0  0  0  0  0  0  0  0  0  0  0  0  # atno 17371 bound_to 10713
  139.9046  135.0176  156.7428 LP  0  0  0  0  0  0  0  0  0  0  0  0  # atno 17394 bound_to 11000
  140.6866  133.9427  155.7941 LP  0  0  0  0  0  0  0  0  0  0  0  0  # atno 17395 bound_to 11000

$$$$
