AV-unprocessed.smi:1554|AV-procd|sdf|6245|dock6
  -GOLD-   22720 6423D 1   1.00000     0.00000
 Structure written by MMmdl.
 48 50  0  0  0  0  0  0  0  0  2 V2000
  153.5754  142.6817  160.0450 C   0  0  0  0  0  0  0  0  0  0  0  0
  152.6962  142.2935  158.8691 C   0  0  0  0  0  0  0  0  0  0  0  0
  152.6292  140.9366  158.4800 C   0  0  0  0  0  0  0  0  0  0  0  0
  151.8213  140.5335  157.3942 C   0  0  0  0  0  0  0  0  0  0  0  0
  151.6070  139.2785  156.8502 N   0  0  0  0  0  0  0  0  0  0  0  0
  150.7551  139.5542  155.8672 C   0  0  0  0  0  0  0  0  0  0  0  0
  150.3902  140.8411  155.7096 N   0  0  0  0  0  0  0  0  0  0  0  0
  149.4741  141.3736  154.7164 C   0  0  0  0  0  0  0  0  0  0  0  0
  148.0146  141.3943  155.2113 C   0  0  1  0  0  0  0  0  0  0  0  0
  147.8682  142.3858  156.2106 O   0  0  0  0  0  0  0  0  0  0  0  0
  147.0240  141.6958  154.0697 C   0  0  0  0  0  0  0  0  0  0  0  0
  145.6277  141.8393  154.5558 N   0  3  1  0  0  0  0  0  0  0  0  0
  145.3064  140.9034  155.6586 C   0  0  0  0  0  0  0  0  0  0  0  0
  143.8315  141.0468  156.0685 C   0  0  0  0  0  0  0  0  0  0  0  0
  143.5676  142.3950  156.4370 O   0  0  0  0  0  0  0  0  0  0  0  0
  143.7875  143.3018  155.3619 C   0  0  1  0  0  0  0  0  0  0  0  0
  143.3906  144.7058  155.8310 C   0  0  0  0  0  0  0  0  0  0  0  0
  145.2667  143.2277  154.9354 C   0  0  0  0  0  0  0  0  0  0  0  0
  151.0765  141.5332  156.7023 C   0  0  0  0  0  0  0  0  0  0  0  0
  151.1364  142.8868  157.0791 C   0  0  0  0  0  0  0  0  0  0  0  0
  151.9481  143.2720  158.1664 C   0  0  0  0  0  0  0  0  0  0  0  0
  152.0060  144.7363  158.5648 C   0  0  0  0  0  0  0  0  0  0  0  0
  154.0830  141.8137  160.4671 H   0  0  0  0  0  0  0  0  0  0  0  0
  152.9768  143.1352  160.8355 H   0  0  0  0  0  0  0  0  0  0  0  0
  154.3373  143.3965  159.7331 H   0  0  0  0  0  0  0  0  0  0  0  0
  153.1989  140.1910  159.0149 H   0  0  0  0  0  0  0  0  0  0  0  0
  150.3716  138.7751  155.2247 H   0  0  0  0  0  0  0  0  0  0  0  0
  149.8026  142.3768  154.4417 H   0  0  0  0  0  0  0  0  0  0  0  0
  149.5566  140.7633  153.8160 H   0  0  0  0  0  0  0  0  0  0  0  0
  147.7901  140.4269  155.6603 H   0  0  0  0  0  0  0  0  0  0  0  0
  148.5022  143.0696  156.0552 H   0  0  0  0  0  0  0  0  0  0  0  0
  147.3375  142.6157  153.5732 H   0  0  0  0  0  0  0  0  0  0  0  0
  147.0629  140.9133  153.3102 H   0  0  0  0  0  0  0  0  0  0  0  0
  145.4991  139.8771  155.3435 H   0  0  0  0  0  0  0  0  0  0  0  0
  145.9550  141.1056  156.5125 H   0  0  0  0  0  0  0  0  0  0  0  0
  143.1691  140.7425  155.2562 H   0  0  0  0  0  0  0  0  0  0  0  0
  143.6119  140.3990  156.9173 H   0  0  0  0  0  0  0  0  0  0  0  0
  143.1481  143.0238  154.5220 H   0  0  0  0  0  0  0  0  0  0  0  0
  143.5321  145.4397  155.0373 H   0  0  0  0  0  0  0  0  0  0  0  0
  143.9877  145.0195  156.6878 H   0  0  0  0  0  0  0  0  0  0  0  0
  142.3418  144.7359  156.1271 H   0  0  0  0  0  0  0  0  0  0  0  0
  145.9102  143.5608  155.7515 H   0  0  0  0  0  0  0  0  0  0  0  0
  145.4358  143.9058  154.0995 H   0  0  0  0  0  0  0  0  0  0  0  0
  150.5610  143.6221  156.5371 H   0  0  0  0  0  0  0  0  0  0  0  0
  151.3456  145.3436  157.9451 H   0  0  0  0  0  0  0  0  0  0  0  0
  153.0197  145.1214  158.4521 H   0  0  0  0  0  0  0  0  0  0  0  0
  151.6996  144.8640  159.6032 H   0  0  0  0  0  0  0  0  0  0  0  0
  145.0316  141.5790  153.7824 H   0  0  0  0  0  0  0  0  0  0  0  0
  1  2  1  0  0  0  0
  1 23  1  0  0  0  0
  1 24  1  0  0  0  0
  1 25  1  0  0  0  0
  2 21  1  0  0  0  0
  2  3  2  0  0  0  0
  3  4  1  0  0  0  0
  3 26  1  0  0  0  0
  4 19  2  0  0  0  0
  4  5  1  0  0  0  0
  5  6  2  0  0  0  0
  6  7  1  0  0  0  0
  6 27  1  0  0  0  0
  7  8  1  0  0  0  0
  7 19  1  0  0  0  0
  8  9  1  0  0  0  0
  8 28  1  0  0  0  0
  8 29  1  0  0  0  0
  9 10  1  0  0  0  0
  9 11  1  0  0  0  0
  9 30  1  0  0  0  0
 10 31  1  0  0  0  0
 11 12  1  0  0  0  0
 11 32  1  0  0  0  0
 11 33  1  0  0  0  0
 12 18  1  0  0  0  0
 12 13  1  0  0  0  0
 12 48  1  0  0  0  0
 13 14  1  0  0  0  0
 13 34  1  0  0  0  0
 13 35  1  0  0  0  0
 14 15  1  0  0  0  0
 14 36  1  0  0  0  0
 14 37  1  0  0  0  0
 15 16  1  0  0  0  0
 16 17  1  0  0  0  0
 16 18  1  0  0  0  0
 16 38  1  0  0  0  0
 17 39  1  0  0  0  0
 17 40  1  0  0  0  0
 17 41  1  0  0  0  0
 18 42  1  0  0  0  0
 18 43  1  0  0  0  0
 19 20  1  0  0  0  0
 20 21  2  0  0  0  0
 20 44  1  0  0  0  0
 21 22  1  0  0  0  0
 22 45  1  0  0  0  0
 22 46  1  0  0  0  0
 22 47  1  0  0  0  0
M  CHG  1  12   1
M  END
> <s_m_source_file>
AV-unprocessed.smi

> <i_m_source_file_index>
1554

> <i_lp_mmshare_version>
43012

> <i_f3d_flags>
0

> <s_epik_input>
W0NIM11jKFtjSF0xKWMoW0NIM10pW2NIXWMoYzEyKW4oW2NIXW4yKVtDSDJdW0NASF0oW09IXSlbQ0gyXU4zW0NIMl1bQ0gyXU9bQ0BASF0oW0NIM10pW0NIMl0z

> <s_epik_cmdline>
J2VwaWtfcHl0aG9uJywgJy1waCcsICc3LjAnLCAnLXRuJywgJzgnLCAnLW1hJywgJzIwMCcsICctbWV0YWxfYmluZGluZycsICctaW1hZScsICc8aW5maWxlLm1hZT4nLCAnLW9tYWUnLCAnPG91dGZpbGUubWFlPic=

> <r_epik_Ionization_Penalty>
0.695251

> <r_epik_Ionization_Penalty_Charging>
0.608065

> <r_epik_Ionization_Penalty_Neutral>
0.0871863

> <r_epik_State_Penalty>
0.731955

> <r_epik_Charging_Adjusted_Penalty>
1.34002

> <i_epik_Tot_Q>
1

> <i_epik_Tot_abs_Q>
1

> <r_epik_Metal_State_Penalty>
0.652186

> <b_epik_Metal_Only>
0

> <s_lp_Force_Field>
OPLS_2005

> <r_lp_Energy>
21.5252

> <b_lp_Chiralities_Consistent>
1

> <s_lp_Variant>
AV-unprocessed.smi:1554-6

> <Gold.Version>
5.8.1

> <Gold.Id.Protein>
6NUR|6NUR_protein|mol2

> <Gold.PLP.Fitness>
49.7361

> <Gold.PLP.PLP>
-42.2076

> <Gold.PLP.part.hbond>
-2.0000

> <Gold.PLP.part.metal>
0.0000

> <Gold.PLP.part.buried>
-4.0626

> <Gold.PLP.part.nonpolar>
-37.4173

> <Gold.PLP.part.repulsive>
0.0797

> <Gold.PLP.ligand.clash>
0.0000

> <Gold.PLP.ligand.torsion>
0.7568

> <Gold.PLP.Chemscore.Hbond>
3.0000

> <Gold.PLP.Chemscore.CHOScore>
0.0000

> <Gold.PLP.Chemscore.Metal>
0.0000

> <Gold.Chemscore.Hbonds>
donor molecule, donor type, donor heavy atom, donor atom, acceptor molecule, acceptor atom, score
      L1  H    10    31       P1  8028  0.99
      L1  H    12    48       P1 10175  1.19

> <Gold.PLP.Chemscore.Internal.Correction>
0.0422

> <Gold.Rescore>
     Score         DG    S(hbond)    S(metal)    S(lipo)     H(rot)  DE(clash)    DE(int)     intcor
     17.78     -18.77       1.80        0.00     107.22       2.05       0.18       0.81       ----

> <Gold.Chemscore.Fitness>
17.7798

> <Gold.Chemscore.DG>
-18.7714

> <Gold.Chemscore.ZeroCoef>
-5.4800

> <Gold.Chemscore.Hbond>
1.7983

> <Gold.Chemscore.Metal>
0.0000

> <Gold.Chemscore.Lipo>
107.2213

> <Gold.Chemscore.Internal_Hbond>
0.0000

> <Gold.Chemscore.DEClash>
0.1787

> <Gold.Chemscore.DEInternal>
0.8130

> <Gold.Chemscore.Rot>
2.0546

> <Gold.Chemscore.Internal.Correction>
   9.000000E+99

> <Gold.Chemscore.Hbonds>
donor molecule, donor type, donor heavy atom, donor atom, acceptor molecule, acceptor atom, score
      L1  H    10    31       P1  8028  0.89
      L1  H    12    48       P1 10175  0.10

> <Gold.Chemscore.Hbond.Weighted>
-6.0062

> <Gold.Chemscore.Metal.Weighted>
-0.0000

> <Gold.Chemscore.Lipo.Weighted>
-12.5449

> <Gold.Chemscore.Internal_Hbond.Weighted>
0.0000

> <Gold.Chemscore.DEClash.Weighted>
0.1787

> <Gold.Chemscore.DEInternal.Weighted>
0.8130

> <Gold.Chemscore.Rot.Weighted>
5.2597

> <Gold.Chemscore.Internal.Correction.Weighted>
   9.000000E+99

> <Gold.Protein.RotatedTorsions>
[ 6907 6896 6895 6894 ] final  178.54 input  -60.11 | X-H torsion
[ 7974 7965 7964 7962 ] final  129.67 input  175.53 | X-H torsion
[ 8008 7997 7996 7995 ] final  149.61 input   59.86 | X-H torsion
[ 10167 10162 10161 10158 ] final  -78.08 input  -65.29 | X-H torsion
[ 10718 10713 10712 10709 ] final -132.38 input   66.30 | X-H torsion
[ 10763 10752 10751 10750 ] final   -0.22 input  -60.55 | X-H torsion
[ 11005 11000 10999 10996 ] final  -43.37 input  -57.11 | X-H torsion

> <Gold.Protein.ActiveResidues>
 VAL166  LYS551  ARG553  GLY616  TRP617  ASP618  TYR619  PRO620  LYS621  CYS622 
 ASP623  PHE694  ASN695  SER759  ASP760  ASP761  ALA762  ILE779  LEU786  VAL792 
 PHE793  MET794  SER795  GLU796  ALA797  LYS798  CYS799  TRP800  GLU811  SER814 

> <Gold.Protein.RotatedAtoms>
  151.6862  133.3311  159.3231 H   0  0  0  0  0  0  0  0  0  0  0  0  # atno 6907 bound_to 6896
  150.7800  134.6738  159.6415 H   0  0  0  0  0  0  0  0  0  0  0  0  # atno 6908 bound_to 6896
  152.3854  134.6529  160.0179 H   0  0  0  0  0  0  0  0  0  0  0  0  # atno 6909 bound_to 6896
  145.0261  139.4087  143.5173 H   0  0  0  0  0  0  0  0  0  0  0  0  # atno 7974 bound_to 7965
  156.2748  140.2097  156.5885 H   0  0  0  0  0  0  0  0  0  0  0  0  # atno 8008 bound_to 7997
  154.7001  140.0521  157.0473 H   0  0  0  0  0  0  0  0  0  0  0  0  # atno 8009 bound_to 7997
  155.0746  140.3180  155.4623 H   0  0  0  0  0  0  0  0  0  0  0  0  # atno 8010 bound_to 7997
  140.4714  143.2426  151.8200 H   0  0  0  0  0  0  0  0  0  0  0  0  # atno 10167 bound_to 10162
  156.2339  130.7055  151.0887 H   0  0  0  0  0  0  0  0  0  0  0  0  # atno 10718 bound_to 10713
  153.3291  135.6974  153.6963 H   0  0  0  0  0  0  0  0  0  0  0  0  # atno 10763 bound_to 10752
  153.5773  135.3504  155.2862 H   0  0  0  0  0  0  0  0  0  0  0  0  # atno 10764 bound_to 10752
  154.8614  135.4286  154.2475 H   0  0  0  0  0  0  0  0  0  0  0  0  # atno 10765 bound_to 10752
  141.0379  133.6792  156.2723 H   0  0  0  0  0  0  0  0  0  0  0  0  # atno 11005 bound_to 11000
  146.3492  139.9786  142.8698 LP  0  0  0  0  0  0  0  0  0  0  0  0  # atno 17320 bound_to 7965
  145.1831  140.9776  143.4254 LP  0  0  0  0  0  0  0  0  0  0  0  0  # atno 17321 bound_to 7965
  139.4819  144.4887  151.9213 LP  0  0  0  0  0  0  0  0  0  0  0  0  # atno 17342 bound_to 10162
  140.3973  144.2539  150.5895 LP  0  0  0  0  0  0  0  0  0  0  0  0  # atno 17343 bound_to 10162
  157.7146  131.0717  150.6376 LP  0  0  0  0  0  0  0  0  0  0  0  0  # atno 17370 bound_to 10713
  156.6445  130.4468  149.5740 LP  0  0  0  0  0  0  0  0  0  0  0  0  # atno 17371 bound_to 10713
  140.6289  134.5285  157.5557 LP  0  0  0  0  0  0  0  0  0  0  0  0  # atno 17394 bound_to 11000
  139.9254  134.8066  156.1085 LP  0  0  0  0  0  0  0  0  0  0  0  0  # atno 17395 bound_to 11000

$$$$
