AV-unprocessed.smi:546|AV-procd|sdf|2883|dock1
  -GOLD-   2262023373D 1   1.00000     0.00000
 Structure written by MMmdl.
 52 54  0  0  0  0  0  0  0  0  1 V2000
  156.8247  137.7865  154.0038 C   0  0  0  0  0  0  0  0  0  0  0  0
  155.4880  138.4553  153.6763 C   0  0  0  0  0  0  0  0  0  0  0  0
  154.5289  138.0820  154.6511 O   0  0  0  0  0  0  0  0  0  0  0  0
  153.3932  138.9325  154.6516 C   0  0  0  0  0  0  0  0  0  0  0  0
  152.8673  139.0956  156.0841 C   0  0  0  0  0  0  0  0  0  0  0  0
  151.4788  139.5529  156.1049 N   0  0  0  0  0  0  0  0  0  0  0  0
  150.9255  140.6243  156.7417 C   0  0  0  0  0  0  0  0  0  0  0  0
  151.6567  141.4744  157.5753 N   0  0  0  0  0  0  0  0  0  0  0  0
  152.7173  141.0067  158.4670 C   0  0  0  0  0  0  0  0  0  0  0  0
  152.5426  141.5549  159.8967 C   0  0  1  0  0  0  0  0  0  0  0  0
  153.6311  141.0256  160.8394 C   0  0  0  0  0  0  0  0  0  0  0  0
  152.5110  143.0924  159.8740 C   0  0  0  0  0  0  0  0  0  0  0  0
  151.4640  143.5928  158.8650 C   0  0  1  0  0  0  0  0  0  0  0  0
  151.4635  145.1233  158.7617 C   0  0  0  0  0  0  0  0  0  0  0  0
  151.7134  142.9341  157.4935 C   0  0  0  0  0  0  0  0  0  0  0  0
  149.6301  140.8173  156.4737 N   0  0  0  0  0  0  0  0  0  0  0  0
  149.3206  139.7682  155.6241 C   0  0  0  0  0  0  0  0  0  0  0  0
  150.4138  138.9997  155.3907 C   0  0  0  0  0  0  0  0  0  0  0  0
  150.3779  137.8313  154.4998 C   0  0  0  0  0  0  0  0  0  0  0  0
  151.3558  137.1242  154.2675 O   0  0  0  0  0  0  0  0  0  0  0  0
  149.1558  137.6143  153.9560 N   0  0  0  0  0  0  0  0  0  0  0  0
  148.0175  138.3476  154.1495 C   0  0  0  0  0  0  0  0  0  0  0  0
  146.9757  138.0287  153.5767 O   0  0  0  0  0  0  0  0  0  0  0  0
  148.0915  139.4289  154.9896 N   0  0  0  0  0  0  0  0  0  0  0  0
  146.9049  140.2525  155.2296 C   0  0  0  0  0  0  0  0  0  0  0  0
  149.0764  136.8220  153.3352 H   0  0  0  0  0  0  0  0  0  0  0  0
  157.5930  138.0815  153.2889 H   0  0  0  0  0  0  0  0  0  0  0  0
  156.7368  136.7006  153.9680 H   0  0  0  0  0  0  0  0  0  0  0  0
  157.1688  138.0646  155.0003 H   0  0  0  0  0  0  0  0  0  0  0  0
  155.6081  139.5397  153.6678 H   0  0  0  0  0  0  0  0  0  0  0  0
  155.1557  138.1511  152.6826 H   0  0  0  0  0  0  0  0  0  0  0  0
  153.6552  139.9070  154.2373 H   0  0  0  0  0  0  0  0  0  0  0  0
  152.6131  138.5095  154.0175 H   0  0  0  0  0  0  0  0  0  0  0  0
  152.9394  138.1536  156.6266 H   0  0  0  0  0  0  0  0  0  0  0  0
  153.5094  139.7815  156.6244 H   0  0  0  0  0  0  0  0  0  0  0  0
  152.7104  139.9163  158.4957 H   0  0  0  0  0  0  0  0  0  0  0  0
  153.6864  141.2991  158.0605 H   0  0  0  0  0  0  0  0  0  0  0  0
  151.5817  141.2041  160.2727 H   0  0  0  0  0  0  0  0  0  0  0  0
  154.6237  141.3392  160.5143 H   0  0  0  0  0  0  0  0  0  0  0  0
  153.6211  139.9359  160.8763 H   0  0  0  0  0  0  0  0  0  0  0  0
  153.4816  141.3914  161.8556 H   0  0  0  0  0  0  0  0  0  0  0  0
  152.2881  143.4786  160.8692 H   0  0  0  0  0  0  0  0  0  0  0  0
  153.4960  143.4752  159.6026 H   0  0  0  0  0  0  0  0  0  0  0  0
  150.4799  143.2867  159.2222 H   0  0  0  0  0  0  0  0  0  0  0  0
  152.4242  145.4973  158.4061 H   0  0  0  0  0  0  0  0  0  0  0  0
  151.2651  145.5817  159.7309 H   0  0  0  0  0  0  0  0  0  0  0  0
  150.6946  145.4683  158.0699 H   0  0  0  0  0  0  0  0  0  0  0  0
  152.6969  143.2234  157.1202 H   0  0  0  0  0  0  0  0  0  0  0  0
  151.0063  143.2988  156.7494 H   0  0  0  0  0  0  0  0  0  0  0  0
  146.0663  139.6371  155.5587 H   0  0  0  0  0  0  0  0  0  0  0  0
  146.6104  140.7686  154.3149 H   0  0  0  0  0  0  0  0  0  0  0  0
  147.0681  141.0093  155.9966 H   0  0  0  0  0  0  0  0  0  0  0  0
  1  2  1  0  0  0  0
  1 27  1  0  0  0  0
  1 28  1  0  0  0  0
  1 29  1  0  0  0  0
  2  3  1  0  0  0  0
  2 30  1  0  0  0  0
  2 31  1  0  0  0  0
  3  4  1  0  0  0  0
  4  5  1  0  0  0  0
  4 32  1  0  0  0  0
  4 33  1  0  0  0  0
  5  6  1  0  0  0  0
  5 34  1  0  0  0  0
  5 35  1  0  0  0  0
  6 18  1  0  0  0  0
  6  7  1  0  0  0  0
  7  8  1  0  0  0  0
  7 16  2  0  0  0  0
  8 15  1  0  0  0  0
  8  9  1  0  0  0  0
  9 10  1  0  0  0  0
  9 36  1  0  0  0  0
  9 37  1  0  0  0  0
 10 11  1  0  0  0  0
 10 12  1  0  0  0  0
 10 38  1  0  0  0  0
 11 39  1  0  0  0  0
 11 40  1  0  0  0  0
 11 41  1  0  0  0  0
 12 13  1  0  0  0  0
 12 42  1  0  0  0  0
 12 43  1  0  0  0  0
 13 14  1  0  0  0  0
 13 15  1  0  0  0  0
 13 44  1  0  0  0  0
 14 45  1  0  0  0  0
 14 46  1  0  0  0  0
 14 47  1  0  0  0  0
 15 48  1  0  0  0  0
 15 49  1  0  0  0  0
 16 17  1  0  0  0  0
 17 24  1  0  0  0  0
 17 18  2  0  0  0  0
 18 19  1  0  0  0  0
 19 20  2  0  0  0  0
 19 21  1  0  0  0  0
 21 26  1  0  0  0  0
 21 22  1  0  0  0  0
 22 23  2  0  0  0  0
 22 24  1  0  0  0  0
 24 25  1  0  0  0  0
 25 50  1  0  0  0  0
 25 51  1  0  0  0  0
 25 52  1  0  0  0  0
M  END
> <s_m_source_file>
AV-unprocessed.smi

> <i_m_source_file_index>
546

> <i_lp_mmshare_version>
43012

> <i_f3d_flags>
0

> <s_epik_input>
W0NIM11uMWMoPU8pW25IXWMoPU8pYyhjMTIpbihbQ0gyXVtDSDJdT1tDSDJdW0NIM10pYyhuMilOM1tDSDJdW0NAQEhdKFtDSDNdKVtDSDJdW0NAQEhdKFtDSDNdKVtDSDJdMw==

> <s_epik_cmdline>
J2VwaWtfcHl0aG9uJywgJy1waCcsICc3LjAnLCAnLXRuJywgJzgnLCAnLW1hJywgJzIwMCcsICctbWV0YWxfYmluZGluZycsICctaW1hZScsICc8aW5maWxlLm1hZT4nLCAnLW9tYWUnLCAnPG91dGZpbGUubWFlPic=

> <r_lp_tautomer_probability>
1

> <r_epik_Ionization_Penalty>
0.000576472

> <r_epik_Ionization_Penalty_Charging>
0.000118943

> <r_epik_Ionization_Penalty_Neutral>
0.000457529

> <r_epik_State_Penalty>
-0

> <r_epik_Charging_Adjusted_Penalty>
0.000118943

> <i_epik_Tot_Q>
0

> <i_epik_Tot_abs_Q>
0

> <r_epik_Metal_State_Penalty>
0.0916165

> <b_epik_Metal_Only>
0

> <s_lp_Force_Field>
OPLS_2005

> <r_lp_Energy>
35.568

> <b_lp_Chiralities_Consistent>
1

> <s_lp_Variant>
AV-unprocessed.smi:546-1

> <Gold.Version>
5.8.1

> <Gold.Id.Protein>
6NUR|6NUR_protein|mol2

> <Gold.PLP.Fitness>
44.5137

> <Gold.PLP.PLP>
-40.9273

> <Gold.PLP.part.hbond>
-4.0000

> <Gold.PLP.part.metal>
0.0000

> <Gold.PLP.part.buried>
-1.5431

> <Gold.PLP.part.nonpolar>
-36.1024

> <Gold.PLP.part.repulsive>
0.4581

> <Gold.PLP.ligand.clash>
0.0000

> <Gold.PLP.ligand.torsion>
1.1659

> <Gold.PLP.Chemscore.Hbond>
1.8553

> <Gold.PLP.Chemscore.CHOScore>
0.0000

> <Gold.PLP.Chemscore.Metal>
0.0000

> <Gold.Chemscore.Hbonds>
donor molecule, donor type, donor heavy atom, donor atom, acceptor molecule, acceptor atom, score
      L1  H    21    26       P1  7948  0.99
      P1  H 10752 10765       L1    20  0.70

> <Gold.PLP.Chemscore.Internal.Correction>
0.3525

> <Gold.Rescore>
     Score         DG    S(hbond)    S(metal)    S(lipo)     H(rot)  DE(clash)    DE(int)     intcor
     15.93     -21.07       1.80        0.00     115.67       1.55       2.45       2.69       ----

> <Gold.Chemscore.Fitness>
15.9322

> <Gold.Chemscore.DG>
-21.0697

> <Gold.Chemscore.ZeroCoef>
-5.4800

> <Gold.Chemscore.Hbond>
1.8012

> <Gold.Chemscore.Metal>
0.0000

> <Gold.Chemscore.Lipo>
115.6661

> <Gold.Chemscore.Internal_Hbond>
0.0000

> <Gold.Chemscore.DEClash>
2.4457

> <Gold.Chemscore.DEInternal>
2.6917

> <Gold.Chemscore.Rot>
1.5465

> <Gold.Chemscore.Internal.Correction>
   9.000000E+99

> <Gold.Chemscore.Hbonds>
donor molecule, donor type, donor heavy atom, donor atom, acceptor molecule, acceptor atom, score
      L1  H    21    26       P1  7948  0.92
      P1  H 10752 10765       L1    20  0.69

> <Gold.Chemscore.Hbond.Weighted>
-6.0159

> <Gold.Chemscore.Metal.Weighted>
-0.0000

> <Gold.Chemscore.Lipo.Weighted>
-13.5329

> <Gold.Chemscore.Internal_Hbond.Weighted>
0.0000

> <Gold.Chemscore.DEClash.Weighted>
2.4457

> <Gold.Chemscore.DEInternal.Weighted>
2.6917

> <Gold.Chemscore.Rot.Weighted>
3.9591

> <Gold.Chemscore.Internal.Correction.Weighted>
   9.000000E+99

> <Gold.Protein.RotatedTorsions>
[ 6907 6896 6895 6894 ] final -115.70 input  -60.11 | X-H torsion
[ 7974 7965 7964 7962 ] final  104.61 input  175.53 | X-H torsion
[ 8008 7997 7996 7995 ] final   98.67 input   59.86 | X-H torsion
[ 10167 10162 10161 10158 ] final  -35.34 input  -65.29 | X-H torsion
[ 10718 10713 10712 10709 ] final  162.31 input   66.30 | X-H torsion
[ 10763 10752 10751 10750 ] final  162.61 input  -60.55 | X-H torsion
[ 11005 11000 10999 10996 ] final -129.57 input  -57.11 | X-H torsion

> <Gold.Protein.ActiveResidues>
 VAL166  LYS551  ARG553  GLY616  TRP617  ASP618  TYR619  PRO620  LYS621  CYS622 
 ASP623  PHE694  ASN695  SER759  ASP760  ASP761  ALA762  ILE779  LEU786  VAL792 
 PHE793  MET794  SER795  GLU796  ALA797  LYS798  CYS799  TRP800  GLU811  SER814 

> <Gold.Protein.RotatedAtoms>
  150.7998  133.8621  159.3234 H   0  0  0  0  0  0  0  0  0  0  0  0  # atno 6907 bound_to 6896
  151.6437  135.1008  160.0156 H   0  0  0  0  0  0  0  0  0  0  0  0  # atno 6908 bound_to 6896
  152.4084  133.6885  159.6411 H   0  0  0  0  0  0  0  0  0  0  0  0  # atno 6909 bound_to 6896
  145.3305  139.2488  143.3663 H   0  0  0  0  0  0  0  0  0  0  0  0  # atno 7974 bound_to 7965
  156.1028  140.3240  155.7965 H   0  0  0  0  0  0  0  0  0  0  0  0  # atno 8008 bound_to 7997
  155.4808  140.0554  157.2984 H   0  0  0  0  0  0  0  0  0  0  0  0  # atno 8009 bound_to 7997
  154.4708  140.2010  156.0016 H   0  0  0  0  0  0  0  0  0  0  0  0  # atno 8010 bound_to 7997
  140.7167  143.3484  151.2207 H   0  0  0  0  0  0  0  0  0  0  0  0  # atno 10167 bound_to 10162
  157.1243  131.0500  151.2400 H   0  0  0  0  0  0  0  0  0  0  0  0  # atno 10718 bound_to 10713
  154.2810  135.2763  155.2697 H   0  0  0  0  0  0  0  0  0  0  0  0  # atno 10763 bound_to 10752
  154.5218  135.5754  153.6691 H   0  0  0  0  0  0  0  0  0  0  0  0  # atno 10764 bound_to 10752
  152.9929  135.6206  154.2969 H   0  0  0  0  0  0  0  0  0  0  0  0  # atno 10765 bound_to 10752
  140.9420  134.1180  157.4142 H   0  0  0  0  0  0  0  0  0  0  0  0  # atno 11005 bound_to 11000
  146.3047  140.3882  142.8691 LP  0  0  0  0  0  0  0  0  0  0  0  0  # atno 17320 bound_to 7965
  144.8867  140.7472  143.5952 LP  0  0  0  0  0  0  0  0  0  0  0  0  # atno 17321 bound_to 7965
  139.7009  143.9535  152.2905 LP  0  0  0  0  0  0  0  0  0  0  0  0  # atno 17342 bound_to 10162
  139.9227  144.6789  150.8444 LP  0  0  0  0  0  0  0  0  0  0  0  0  # atno 17343 bound_to 10162
  157.4448  130.7565  149.7100 LP  0  0  0  0  0  0  0  0  0  0  0  0  # atno 17370 bound_to 10713
  155.9821  130.4012  150.3432 LP  0  0  0  0  0  0  0  0  0  0  0  0  # atno 17371 bound_to 10713
  139.8823  135.0039  156.6218 LP  0  0  0  0  0  0  0  0  0  0  0  0  # atno 17394 bound_to 11000
  140.7721  133.8730  155.8500 LP  0  0  0  0  0  0  0  0  0  0  0  0  # atno 17395 bound_to 11000

$$$$
