AV-unprocessed.smi:3123|AV-procd|sdf|11900|dock10
  -GOLD-   2272017283D 1   1.00000     0.00000
 Structure written by MMmdl.
 30 31  0  0  0  0  0  0  0  0  2 V2000
  149.7423  138.5391  153.5336 N   0  3  0  0  0  0  0  0  0  0  0  0
  150.8782  138.6718  154.4597 C   0  0  0  0  0  0  0  0  0  0  0  0
  150.6442  139.8077  155.4337 C   0  0  0  0  0  0  0  0  0  0  0  0
  149.4940  140.6157  155.3313 C   0  0  0  0  0  0  0  0  0  0  0  0
  149.3264  141.6628  156.2583 C   0  0  0  0  0  0  0  0  0  0  0  0
  150.2140  141.9318  157.2390 N   0  0  0  0  0  0  0  0  0  0  0  0
  151.3190  141.1543  157.3379 C   0  0  0  0  0  0  0  0  0  0  0  0
  152.2398  141.4293  158.3585 N   0  0  0  0  0  0  0  0  0  0  0  0
  151.9492  142.6578  159.0875 C   0  0  0  0  0  0  0  0  0  0  0  0
  153.0721  142.9477  160.0989 C   0  0  0  0  0  0  0  0  0  0  0  0
  153.2362  141.8287  160.9657 O   0  0  0  0  0  0  0  0  0  0  0  0
  153.5909  140.6466  160.2533 C   0  0  0  0  0  0  0  0  0  0  0  0
  152.4807  140.2983  159.2466 C   0  0  0  0  0  0  0  0  0  0  0  0
  151.5758  140.0834  156.4555 C   0  0  0  0  0  0  0  0  0  0  0  0
  148.8801  138.7237  154.0259 H   0  0  0  0  0  0  0  0  0  0  0  0
  149.7239  137.6016  153.1584 H   0  0  0  0  0  0  0  0  0  0  0  0
  151.0135  137.7366  155.0038 H   0  0  0  0  0  0  0  0  0  0  0  0
  151.7910  138.8491  153.8899 H   0  0  0  0  0  0  0  0  0  0  0  0
  148.7545  140.4408  154.5637 H   0  0  0  0  0  0  0  0  0  0  0  0
  148.4569  142.3016  156.2102 H   0  0  0  0  0  0  0  0  0  0  0  0
  151.8514  143.4887  158.3878 H   0  0  0  0  0  0  0  0  0  0  0  0
  150.9966  142.5610  159.6105 H   0  0  0  0  0  0  0  0  0  0  0  0
  154.0107  143.1648  159.5866 H   0  0  0  0  0  0  0  0  0  0  0  0
  152.8237  143.8260  160.6948 H   0  0  0  0  0  0  0  0  0  0  0  0
  154.5465  140.7880  159.7459 H   0  0  0  0  0  0  0  0  0  0  0  0
  153.7246  139.8302  160.9630 H   0  0  0  0  0  0  0  0  0  0  0  0
  151.5641  140.0450  159.7816 H   0  0  0  0  0  0  0  0  0  0  0  0
  152.7663  139.4230  158.6616 H   0  0  0  0  0  0  0  0  0  0  0  0
  152.4693  139.4852  156.5647 H   0  0  0  0  0  0  0  0  0  0  0  0
  149.8481  139.2003  152.7775 H   0  0  0  0  0  0  0  0  0  0  0  0
  1  2  1  0  0  0  0
  1 15  1  0  0  0  0
  1 16  1  0  0  0  0
  1 30  1  0  0  0  0
  2  3  1  0  0  0  0
  2 17  1  0  0  0  0
  2 18  1  0  0  0  0
  3 14  1  0  0  0  0
  3  4  2  0  0  0  0
  4  5  1  0  0  0  0
  4 19  1  0  0  0  0
  5  6  2  0  0  0  0
  5 20  1  0  0  0  0
  6  7  1  0  0  0  0
  7  8  1  0  0  0  0
  7 14  2  0  0  0  0
  8 13  1  0  0  0  0
  8  9  1  0  0  0  0
  9 10  1  0  0  0  0
  9 21  1  0  0  0  0
  9 22  1  0  0  0  0
 10 11  1  0  0  0  0
 10 23  1  0  0  0  0
 10 24  1  0  0  0  0
 11 12  1  0  0  0  0
 12 13  1  0  0  0  0
 12 25  1  0  0  0  0
 12 26  1  0  0  0  0
 13 27  1  0  0  0  0
 13 28  1  0  0  0  0
 14 29  1  0  0  0  0
M  CHG  1   1   1
M  END
> <s_m_source_file>
AV-unprocessed.smi

> <i_m_source_file_index>
3123

> <i_lp_mmshare_version>
43012

> <i_f3d_flags>
0

> <s_epik_input>
W05IMl1bQ0gyXWMxW2NIXVtjSF1uYyhbY0hdMSlOMltDSDJdW0NIMl1PW0NIMl1bQ0gyXTI=

> <s_epik_cmdline>
J2VwaWtfcHl0aG9uJywgJy1waCcsICc3LjAnLCAnLXRuJywgJzgnLCAnLW1hJywgJzIwMCcsICctbWV0YWxfYmluZGluZycsICctaW1hZScsICc8aW5maWxlLm1hZT4nLCAnLW9tYWUnLCAnPG91dGZpbGUubWFlPic=

> <r_lp_tautomer_probability>
1

> <r_epik_Ionization_Penalty>
0.0770075

> <r_epik_Ionization_Penalty_Charging>
0.0770037

> <r_epik_Ionization_Penalty_Neutral>
3.77435e-06

> <r_epik_State_Penalty>
0.00932976

> <r_epik_Charging_Adjusted_Penalty>
0.0863335

> <i_epik_Tot_Q>
1

> <i_epik_Tot_abs_Q>
1

> <r_epik_Metal_State_Penalty>
0.00963217

> <b_epik_Metal_Only>
0

> <s_lp_Force_Field>
OPLS_2005

> <r_lp_Energy>
15.1833

> <b_lp_Chiralities_Consistent>
1

> <s_lp_Variant>
AV-unprocessed.smi:3123-1

> <Gold.Version>
5.8.1

> <Gold.Id.Protein>
6NUR|6NUR_protein|mol2

> <Gold.PLP.Fitness>
39.1176

> <Gold.PLP.PLP>
-27.9741

> <Gold.PLP.part.hbond>
-2.0000

> <Gold.PLP.part.metal>
0.0000

> <Gold.PLP.part.buried>
-4.5321

> <Gold.PLP.part.nonpolar>
-22.5746

> <Gold.PLP.part.repulsive>
0.1892

> <Gold.PLP.ligand.clash>
0.0000

> <Gold.PLP.ligand.torsion>
0.0715

> <Gold.PLP.Chemscore.Hbond>
3.0000

> <Gold.PLP.Chemscore.CHOScore>
0.7281

> <Gold.PLP.Chemscore.Metal>
0.0000

> <Gold.Chemscore.Hbonds>
donor molecule, donor type, donor heavy atom, donor atom, acceptor molecule, acceptor atom, score
      L1  H     1    16       P1  7948  2.00
      L1  H     1    30       P1  7957  1.00
      L1  C     5    20       P1  8028  0.74

> <Gold.PLP.Chemscore.Internal.Correction>
0.1022

> <Gold.Rescore>
     Score         DG    S(hbond)    S(metal)    S(lipo)     H(rot)  DE(clash)    DE(int)     intcor
     16.85     -16.93       1.96        0.00      70.78       1.32       0.00       0.07       ----

> <Gold.Chemscore.Fitness>
16.8519

> <Gold.Chemscore.DG>
-16.9296

> <Gold.Chemscore.ZeroCoef>
-5.4800

> <Gold.Chemscore.Hbond>
1.9571

> <Gold.Chemscore.Metal>
0.0000

> <Gold.Chemscore.Lipo>
70.7799

> <Gold.Chemscore.Internal_Hbond>
0.0000

> <Gold.Chemscore.DEClash>
0.0038

> <Gold.Chemscore.DEInternal>
0.0739

> <Gold.Chemscore.Rot>
1.3158

> <Gold.Chemscore.Internal.Correction>
   9.000000E+99

> <Gold.Chemscore.Hbonds>
donor molecule, donor type, donor heavy atom, donor atom, acceptor molecule, acceptor atom, score
      L1  H     1    16       P1  7948  0.60
      L1  H     1    30       P1  7957  0.94

> <Gold.Chemscore.Hbond.Weighted>
-6.5368

> <Gold.Chemscore.Metal.Weighted>
-0.0000

> <Gold.Chemscore.Lipo.Weighted>
-8.2813

> <Gold.Chemscore.Internal_Hbond.Weighted>
0.0000

> <Gold.Chemscore.DEClash.Weighted>
0.0038

> <Gold.Chemscore.DEInternal.Weighted>
0.0739

> <Gold.Chemscore.Rot.Weighted>
3.3684

> <Gold.Chemscore.Internal.Correction.Weighted>
   9.000000E+99

> <Gold.Protein.RotatedTorsions>
[ 6907 6896 6895 6894 ] final  -59.65 input  -60.11 | X-H torsion
[ 7974 7965 7964 7962 ] final  -57.24 input  175.53 | X-H torsion
[ 8008 7997 7996 7995 ] final  -76.12 input   59.86 | X-H torsion
[ 10167 10162 10161 10158 ] final  -79.21 input  -65.29 | X-H torsion
[ 10718 10713 10712 10709 ] final -137.52 input   66.30 | X-H torsion
[ 10763 10752 10751 10750 ] final -142.53 input  -60.55 | X-H torsion
[ 11005 11000 10999 10996 ] final   53.60 input  -57.11 | X-H torsion

> <Gold.Protein.ActiveResidues>
 VAL166  LYS551  ARG553  GLY616  TRP617  ASP618  TYR619  PRO620  LYS621  CYS622 
 ASP623  PHE694  ASN695  SER759  ASP760  ASP761  ALA762  ILE779  LEU786  VAL792 
 PHE793  MET794  SER795  GLU796  ALA797  LYS798  CYS799  TRP800  GLU811  SER814 

> <Gold.Protein.RotatedAtoms>
  150.7915  134.6941  159.6512 H   0  0  0  0  0  0  0  0  0  0  0  0  # atno 6907 bound_to 6896
  152.4021  134.6266  160.0074 H   0  0  0  0  0  0  0  0  0  0  0  0  # atno 6908 bound_to 6896
  151.6534  133.3283  159.3193 H   0  0  0  0  0  0  0  0  0  0  0  0  # atno 6909 bound_to 6896
  145.8534  140.8336  142.9974 H   0  0  0  0  0  0  0  0  0  0  0  0  # atno 7974 bound_to 7965
  154.5477  140.0732  156.8616 H   0  0  0  0  0  0  0  0  0  0  0  0  # atno 8008 bound_to 7997
  155.3055  140.3387  155.4228 H   0  0  0  0  0  0  0  0  0  0  0  0  # atno 8009 bound_to 7997
  156.1933  140.1694  156.8035 H   0  0  0  0  0  0  0  0  0  0  0  0  # atno 8010 bound_to 7997
  140.4613  143.2453  151.8344 H   0  0  0  0  0  0  0  0  0  0  0  0  # atno 10167 bound_to 10162
  156.2890  130.7364  151.1384 H   0  0  0  0  0  0  0  0  0  0  0  0  # atno 10718 bound_to 10713
  154.8505  135.3493  154.6043 H   0  0  0  0  0  0  0  0  0  0  0  0  # atno 10763 bound_to 10752
  153.6651  135.6988  153.5169 H   0  0  0  0  0  0  0  0  0  0  0  0  # atno 10764 bound_to 10752
  153.2786  135.4270  155.1014 H   0  0  0  0  0  0  0  0  0  0  0  0  # atno 10765 bound_to 10752
  140.0754  134.5411  155.9002 H   0  0  0  0  0  0  0  0  0  0  0  0  # atno 11005 bound_to 11000
  144.6728  140.0987  143.7461 LP  0  0  0  0  0  0  0  0  0  0  0  0  # atno 17320 bound_to 7965
  145.9332  139.2620  143.1313 LP  0  0  0  0  0  0  0  0  0  0  0  0  # atno 17321 bound_to 7965
  139.4806  144.5004  151.9068 LP  0  0  0  0  0  0  0  0  0  0  0  0  # atno 17342 bound_to 10162
  140.4089  144.2395  150.5889 LP  0  0  0  0  0  0  0  0  0  0  0  0  # atno 17343 bound_to 10162
  157.7337  131.0588  150.5563 LP  0  0  0  0  0  0  0  0  0  0  0  0  # atno 17370 bound_to 10713
  156.5677  130.4272  149.6033 LP  0  0  0  0  0  0  0  0  0  0  0  0  # atno 17371 bound_to 10713
  141.2027  133.6627  156.6024 LP  0  0  0  0  0  0  0  0  0  0  0  0  # atno 17394 bound_to 11000
  140.3565  134.7724  157.4504 LP  0  0  0  0  0  0  0  0  0  0  0  0  # atno 17395 bound_to 11000

$$$$
