AV-unprocessed.smi:2281|AV-procd|sdf|9194|dock6
  -GOLD-   2272012413D 1   1.00000     0.00000
 Structure written by MMmdl.
 40 41  0  0  0  0  0  0  0  0  1 V2000
  147.6251  134.7833  156.4589 C   0  0  0  0  0  0  0  0  0  0  0  0
  148.7540  135.6598  156.9714 C   0  0  0  0  0  0  0  0  0  0  0  0
  148.4515  136.4425  158.0887 N   0  0  0  0  0  0  0  0  0  0  0  0
  149.3588  137.2029  158.6078 C   0  0  0  0  0  0  0  0  0  0  0  0
  150.6618  137.2689  158.0800 N   0  0  0  0  0  0  0  0  0  0  0  0
  151.6244  138.1544  158.7706 C   0  0  0  0  0  0  0  0  0  0  0  0
  152.0792  139.3983  157.9474 C   0  0  2  0  0  0  0  0  0  0  0  0
  150.9670  139.8112  156.9599 C   0  0  0  0  0  0  0  0  0  0  0  0
  153.1125  138.9671  157.0791 O   0  0  0  0  0  0  0  0  0  0  0  0
  152.5075  140.5813  158.8294 C   0  0  0  0  0  0  0  0  0  0  0  0
  153.4838  140.4227  159.8415 C   0  0  0  0  0  0  0  0  0  0  0  0
  153.8450  141.5067  160.6630 C   0  0  0  0  0  0  0  0  0  0  0  0
  153.2359  142.7623  160.4863 C   0  0  0  0  0  0  0  0  0  0  0  0
  152.2583  142.9396  159.4843 C   0  0  0  0  0  0  0  0  0  0  0  0
  151.5726  144.2820  159.2803 C   0  0  0  0  0  0  0  0  0  0  0  0
  151.8258  144.7346  158.0523 F   0  0  0  0  0  0  0  0  0  0  0  0
  150.2560  144.1290  159.4183 F   0  0  0  0  0  0  0  0  0  0  0  0
  151.9902  145.1938  160.1592 F   0  0  0  0  0  0  0  0  0  0  0  0
  151.8997  141.8479  158.6665 C   0  0  0  0  0  0  0  0  0  0  0  0
  151.0229  136.5744  156.9620 C   0  0  0  0  0  0  0  0  0  0  0  0
  152.1467  136.6803  156.4680 O   0  0  0  0  0  0  0  0  0  0  0  0
  149.9866  135.6958  156.3962 C   0  0  0  0  0  0  0  0  0  0  0  0
  150.3760  134.8606  155.1826 C   0  0  0  0  0  0  0  0  0  0  0  0
  147.3839  135.0360  155.4260 H   0  0  0  0  0  0  0  0  0  0  0  0
  146.7200  134.9126  157.0538 H   0  0  0  0  0  0  0  0  0  0  0  0
  147.9079  133.7314  156.5046 H   0  0  0  0  0  0  0  0  0  0  0  0
  149.1719  137.8258  159.4842 H   0  0  0  0  0  0  0  0  0  0  0  0
  151.2370  138.4567  159.7459 H   0  0  0  0  0  0  0  0  0  0  0  0
  152.5135  137.5727  159.0225 H   0  0  0  0  0  0  0  0  0  0  0  0
  150.0492  140.1038  157.4693 H   0  0  0  0  0  0  0  0  0  0  0  0
  150.7044  138.9903  156.2907 H   0  0  0  0  0  0  0  0  0  0  0  0
  151.2795  140.6527  156.3398 H   0  0  0  0  0  0  0  0  0  0  0  0
  152.7203  138.5537  156.3252 H   0  0  0  0  0  0  0  0  0  0  0  0
  153.9582  139.4674  160.0096 H   0  0  0  0  0  0  0  0  0  0  0  0
  154.5891  141.3725  161.4343 H   0  0  0  0  0  0  0  0  0  0  0  0
  153.5220  143.5817  161.1289 H   0  0  0  0  0  0  0  0  0  0  0  0
  151.1341  141.9906  157.9192 H   0  0  0  0  0  0  0  0  0  0  0  0
  151.2022  134.1951  155.4352 H   0  0  0  0  0  0  0  0  0  0  0  0
  150.6999  135.5085  154.3673 H   0  0  0  0  0  0  0  0  0  0  0  0
  149.5619  134.2434  154.8058 H   0  0  0  0  0  0  0  0  0  0  0  0
  1  2  1  0  0  0  0
  1 24  1  0  0  0  0
  1 25  1  0  0  0  0
  1 26  1  0  0  0  0
  2 22  2  0  0  0  0
  2  3  1  0  0  0  0
  3  4  2  0  0  0  0
  4  5  1  0  0  0  0
  4 27  1  0  0  0  0
  5  6  1  0  0  0  0
  5 20  1  0  0  0  0
  6  7  1  0  0  0  0
  6 28  1  0  0  0  0
  6 29  1  0  0  0  0
  7  8  1  0  0  0  0
  7  9  1  0  0  0  0
  7 10  1  0  0  0  0
  8 30  1  0  0  0  0
  8 31  1  0  0  0  0
  8 32  1  0  0  0  0
  9 33  1  0  0  0  0
 10 19  1  0  0  0  0
 10 11  2  0  0  0  0
 11 12  1  0  0  0  0
 11 34  1  0  0  0  0
 12 13  2  0  0  0  0
 12 35  1  0  0  0  0
 13 14  1  0  0  0  0
 13 36  1  0  0  0  0
 14 15  1  0  0  0  0
 14 19  2  0  0  0  0
 15 16  1  0  0  0  0
 15 17  1  0  0  0  0
 15 18  1  0  0  0  0
 19 37  1  0  0  0  0
 20 21  2  0  0  0  0
 20 22  1  0  0  0  0
 22 23  1  0  0  0  0
 23 38  1  0  0  0  0
 23 39  1  0  0  0  0
 23 40  1  0  0  0  0
M  END
> <s_m_source_file>
AV-unprocessed.smi

> <i_m_source_file_index>
2281

> <i_lp_mmshare_version>
43012

> <i_f3d_flags>
0

> <s_epik_input>
W0NIM11jMW5bY0hdbihjKD1PKWMxW0NIM10pW0NIMl1bQ0BAXShbQ0gzXSkoW09IXSljMltjSF1bY0hdW2NIXWMoQyhGKShGKUYpW2NIXTI=

> <s_epik_cmdline>
J2VwaWtfcHl0aG9uJywgJy1waCcsICc3LjAnLCAnLXRuJywgJzgnLCAnLW1hJywgJzIwMCcsICctbWV0YWxfYmluZGluZycsICctaW1hZScsICc8aW5maWxlLm1hZT4nLCAnLW9tYWUnLCAnPG91dGZpbGUubWFlPic=

> <r_lp_tautomer_probability>
1

> <r_epik_Ionization_Penalty>
5.68222e-05

> <r_epik_Ionization_Penalty_Charging>
9.07816e-08

> <r_epik_Ionization_Penalty_Neutral>
5.67314e-05

> <r_epik_State_Penalty>
-0

> <r_epik_Charging_Adjusted_Penalty>
9.07816e-08

> <i_epik_Tot_Q>
0

> <i_epik_Tot_abs_Q>
0

> <r_epik_Metal_State_Penalty>
-0

> <b_epik_Metal_Only>
0

> <s_lp_Force_Field>
OPLS_2005

> <r_lp_Energy>
21.2776

> <b_lp_Chiralities_Consistent>
1

> <s_lp_Variant>
AV-unprocessed.smi:2281-2

> <Gold.Version>
5.8.1

> <Gold.Id.Protein>
6NUR|6NUR_protein|mol2

> <Gold.PLP.Fitness>
50.4909

> <Gold.PLP.PLP>
-45.4783

> <Gold.PLP.part.hbond>
-2.0000

> <Gold.PLP.part.metal>
0.0000

> <Gold.PLP.part.buried>
-6.4929

> <Gold.PLP.part.nonpolar>
-36.2904

> <Gold.PLP.part.repulsive>
0.0000

> <Gold.PLP.ligand.clash>
0.0000

> <Gold.PLP.ligand.torsion>
0.6079

> <Gold.PLP.Chemscore.Hbond>
1.9750

> <Gold.PLP.Chemscore.CHOScore>
0.0000

> <Gold.PLP.Chemscore.Metal>
0.0000

> <Gold.Chemscore.Hbonds>
donor molecule, donor type, donor heavy atom, donor atom, acceptor molecule, acceptor atom, score
      P1  H  7997  8010       L1     9  1.00
      P1  H 10752 10764       L1    21  0.78

> <Gold.PLP.Chemscore.Internal.Correction>
0.3033

> <Gold.Rescore>
     Score         DG    S(hbond)    S(metal)    S(lipo)     H(rot)  DE(clash)    DE(int)     intcor
     15.72     -17.96       1.93        0.00      97.26       2.09       0.08       2.15       ----

> <Gold.Chemscore.Fitness>
15.7219

> <Gold.Chemscore.DG>
-17.9559

> <Gold.Chemscore.ZeroCoef>
-5.4800

> <Gold.Chemscore.Hbond>
1.9273

> <Gold.Chemscore.Metal>
0.0000

> <Gold.Chemscore.Lipo>
97.2565

> <Gold.Chemscore.Internal_Hbond>
0.0000

> <Gold.Chemscore.DEClash>
0.0798

> <Gold.Chemscore.DEInternal>
2.1542

> <Gold.Chemscore.Rot>
2.0860

> <Gold.Chemscore.Internal.Correction>
   9.000000E+99

> <Gold.Chemscore.Hbonds>
donor molecule, donor type, donor heavy atom, donor atom, acceptor molecule, acceptor atom, score
      P1  H  7997  8010       L1     9  0.73
      P1  H 10752 10764       L1    21  0.78

> <Gold.Chemscore.Hbond.Weighted>
-6.4370

> <Gold.Chemscore.Metal.Weighted>
-0.0000

> <Gold.Chemscore.Lipo.Weighted>
-11.3790

> <Gold.Chemscore.Internal_Hbond.Weighted>
0.0000

> <Gold.Chemscore.DEClash.Weighted>
0.0798

> <Gold.Chemscore.DEInternal.Weighted>
2.1542

> <Gold.Chemscore.Rot.Weighted>
5.3402

> <Gold.Chemscore.Internal.Correction.Weighted>
   9.000000E+99

> <Gold.Protein.RotatedTorsions>
[ 6907 6896 6895 6894 ] final  167.81 input  -60.11 | X-H torsion
[ 7974 7965 7964 7962 ] final  157.20 input  175.53 | X-H torsion
[ 8008 7997 7996 7995 ] final   64.11 input   59.86 | X-H torsion
[ 10167 10162 10161 10158 ] final  151.51 input  -65.29 | X-H torsion
[ 10718 10713 10712 10709 ] final  -96.55 input   66.30 | X-H torsion
[ 10763 10752 10751 10750 ] final  -16.92 input  -60.55 | X-H torsion
[ 11005 11000 10999 10996 ] final  113.43 input  -57.11 | X-H torsion

> <Gold.Protein.ActiveResidues>
 VAL166  LYS551  ARG553  GLY616  TRP617  ASP618  TYR619  PRO620  LYS621  CYS622 
 ASP623  PHE694  ASN695  SER759  ASP760  ASP761  ALA762  ILE779  LEU786  VAL792 
 PHE793  MET794  SER795  GLU796  ALA797  LYS798  CYS799  TRP800  GLU811  SER814 

> <Gold.Protein.RotatedAtoms>
  151.8576  133.3451  159.3692 H   0  0  0  0  0  0  0  0  0  0  0  0  # atno 6907 bound_to 6896
  150.7188  134.5238  159.5676 H   0  0  0  0  0  0  0  0  0  0  0  0  # atno 6908 bound_to 6896
  152.2745  134.7897  160.0459 H   0  0  0  0  0  0  0  0  0  0  0  0  # atno 6909 bound_to 6896
  144.7917  139.7308  143.6218 H   0  0  0  0  0  0  0  0  0  0  0  0  # atno 7974 bound_to 7965
  155.6408  140.3497  155.4714 H   0  0  0  0  0  0  0  0  0  0  0  0  # atno 8008 bound_to 7997
  155.9927  140.1197  157.0646 H   0  0  0  0  0  0  0  0  0  0  0  0  # atno 8009 bound_to 7997
  154.4224  140.1116  156.5574 H   0  0  0  0  0  0  0  0  0  0  0  0  # atno 8010 bound_to 7997
  139.4840  144.5435  151.7524 H   0  0  0  0  0  0  0  0  0  0  0  0  # atno 10167 bound_to 10162
  156.0064  130.5156  150.6243 H   0  0  0  0  0  0  0  0  0  0  0  0  # atno 10718 bound_to 10713
  153.5660  135.7008  153.5526 H   0  0  0  0  0  0  0  0  0  0  0  0  # atno 10763 bound_to 10752
  153.3387  135.4027  155.1554 H   0  0  0  0  0  0  0  0  0  0  0  0  # atno 10764 bound_to 10752
  154.8640  135.3737  154.5180 H   0  0  0  0  0  0  0  0  0  0  0  0  # atno 10765 bound_to 10752
  139.8953  134.9549  156.6737 H   0  0  0  0  0  0  0  0  0  0  0  0  # atno 11005 bound_to 11000
  146.2172  139.5570  142.9642 LP  0  0  0  0  0  0  0  0  0  0  0  0  # atno 17320 bound_to 7965
  145.5777  141.0386  143.2139 LP  0  0  0  0  0  0  0  0  0  0  0  0  # atno 17321 bound_to 7965
  140.4978  144.1215  150.5964 LP  0  0  0  0  0  0  0  0  0  0  0  0  # atno 17342 bound_to 10162
  140.4097  143.2663  151.9847 LP  0  0  0  0  0  0  0  0  0  0  0  0  # atno 17343 bound_to 10162
  157.4053  131.0816  151.1271 LP  0  0  0  0  0  0  0  0  0  0  0  0  # atno 17370 bound_to 10713
  157.1920  130.6356  149.5708 LP  0  0  0  0  0  0  0  0  0  0  0  0  # atno 17371 bound_to 10713
  140.7353  133.9024  155.8240 LP  0  0  0  0  0  0  0  0  0  0  0  0  # atno 17394 bound_to 11000
  141.0121  134.1006  157.4210 LP  0  0  0  0  0  0  0  0  0  0  0  0  # atno 17395 bound_to 11000

$$$$
