AV-unprocessed.smi:3330|AV-procd|sdf|12809|dock8
  -GOLD-   2272019173D 1   1.00000     0.00000
 Structure written by MMmdl.
 38 39  0  0  0  0  0  0  0  0  3 V2000
  152.0006  143.6410  157.0111 C   0  0  0  0  0  0  0  0  0  0  0  0
  151.0985  142.9993  158.0785 C   0  0  2  0  0  0  0  0  0  0  0  0
  149.7448  142.8341  157.5024 N   0  3  0  0  0  0  0  0  0  0  0  0
  149.6015  141.7266  156.5340 C   0  0  0  0  0  0  0  0  0  0  0  0
  150.0194  140.3755  157.1428 C   0  0  0  0  0  0  0  0  0  0  0  0
  151.2540  139.8491  156.5464 N   0  0  0  0  0  0  0  0  0  0  0  0
  151.4525  139.6831  155.2345 C   0  0  0  0  0  0  0  0  0  0  0  0
  150.6716  139.9320  154.3161 O   0  0  0  0  0  0  0  0  0  0  0  0
  152.8555  139.1553  155.0489 C   0  0  0  0  0  0  0  0  0  0  0  0
  153.3416  139.0908  156.4083 N   0  5  0  0  0  0  0  0  0  0  0  0
  152.3573  139.5062  157.2381 C   0  0  0  0  0  0  0  0  0  0  0  0
  152.4135  139.5910  158.4642 O   0  0  0  0  0  0  0  0  0  0  0  0
  151.0336  143.8291  159.3896 C   0  0  2  0  0  0  0  0  0  0  0  0
  151.2702  145.3359  159.1691 C   0  0  0  0  0  0  0  0  0  0  0  0
  151.9668  143.3242  160.3905 N   0  0  0  0  0  0  0  0  0  0  0  0
  152.1394  143.7547  161.6902 C   0  0  0  0  0  0  0  0  0  0  0  0
  153.1177  142.9841  162.2499 C   0  0  0  0  0  0  0  0  0  0  0  0
  153.4915  142.0979  161.2018 C   0  0  0  0  0  0  0  0  0  0  0  0
  152.8012  142.3025  160.0918 N   0  0  0  0  0  0  0  0  0  0  0  0
  153.0418  143.6794  157.3303 H   0  0  0  0  0  0  0  0  0  0  0  0
  151.6820  144.6578  156.7788 H   0  0  0  0  0  0  0  0  0  0  0  0
  151.9750  143.0666  156.0843 H   0  0  0  0  0  0  0  0  0  0  0  0
  151.5133  142.0150  158.3043 H   0  0  0  0  0  0  0  0  0  0  0  0
  149.0855  142.6954  158.2546 H   0  0  0  0  0  0  0  0  0  0  0  0
  148.5623  141.6782  156.2061 H   0  0  0  0  0  0  0  0  0  0  0  0
  150.2041  141.9312  155.6492 H   0  0  0  0  0  0  0  0  0  0  0  0
  150.1519  140.4821  158.2205 H   0  0  0  0  0  0  0  0  0  0  0  0
  149.2070  139.6571  157.0203 H   0  0  0  0  0  0  0  0  0  0  0  0
  152.8250  138.1837  154.5545 H   0  0  0  0  0  0  0  0  0  0  0  0
  153.4279  139.8370  154.4191 H   0  0  0  0  0  0  0  0  0  0  0  0
  150.0323  143.7184  159.8093 H   0  0  0  0  0  0  0  0  0  0  0  0
  150.4758  145.7858  158.5743 H   0  0  0  0  0  0  0  0  0  0  0  0
  152.2159  145.5231  158.6593 H   0  0  0  0  0  0  0  0  0  0  0  0
  151.2952  145.8703  160.1195 H   0  0  0  0  0  0  0  0  0  0  0  0
  151.5581  144.5649  162.1057 H   0  0  0  0  0  0  0  0  0  0  0  0
  153.5094  143.0453  163.2546 H   0  0  0  0  0  0  0  0  0  0  0  0
  154.2378  141.3173  161.2146 H   0  0  0  0  0  0  0  0  0  0  0  0
  149.5037  143.6897  157.0228 H   0  0  0  0  0  0  0  0  0  0  0  0
  1  2  1  0  0  0  0
  1 20  1  0  0  0  0
  1 21  1  0  0  0  0
  1 22  1  0  0  0  0
  2  3  1  0  0  0  0
  2 13  1  0  0  0  0
  2 23  1  0  0  0  0
  3  4  1  0  0  0  0
  3 24  1  0  0  0  0
  3 38  1  0  0  0  0
  4  5  1  0  0  0  0
  4 25  1  0  0  0  0
  4 26  1  0  0  0  0
  5  6  1  0  0  0  0
  5 27  1  0  0  0  0
  5 28  1  0  0  0  0
  6 11  1  0  0  0  0
  6  7  1  0  0  0  0
  7  8  2  0  0  0  0
  7  9  1  0  0  0  0
  9 10  1  0  0  0  0
  9 29  1  0  0  0  0
  9 30  1  0  0  0  0
 10 11  1  0  0  0  0
 11 12  2  0  0  0  0
 13 14  1  0  0  0  0
 13 15  1  0  0  0  0
 13 31  1  0  0  0  0
 14 32  1  0  0  0  0
 14 33  1  0  0  0  0
 14 34  1  0  0  0  0
 15 19  1  0  0  0  0
 15 16  1  0  0  0  0
 16 17  2  0  0  0  0
 16 35  1  0  0  0  0
 17 18  1  0  0  0  0
 17 36  1  0  0  0  0
 18 19  2  0  0  0  0
 18 37  1  0  0  0  0
M  CHG  1   3   1
M  CHG  1  10  -1
M  END
> <s_m_source_file>
AV-unprocessed.smi

> <i_m_source_file_index>
3330

> <i_lp_mmshare_version>
43012

> <i_f3d_flags>
0

> <s_epik_input>
bjFbY0hdW2NIXVtjSF1uMVtDQEBIXShbQ0gzXSlbQ0BIXShbQ0gzXSlbTkhdW0NIMl1bQ0gyXU4yQyg9TylbQ0gyXVtOSF1DMj1P

> <s_epik_cmdline>
J2VwaWtfcHl0aG9uJywgJy1waCcsICc3LjAnLCAnLXRuJywgJzgnLCAnLW1hJywgJzIwMCcsICctbWV0YWxfYmluZGluZycsICctaW1hZScsICc8aW5maWxlLm1hZT4nLCAnLW9tYWUnLCAnPG91dGZpbGUubWFlPic=

> <r_lp_tautomer_probability>
1

> <r_epik_Ionization_Penalty>
5.18149

> <r_epik_Ionization_Penalty_Charging>
5.18148

> <r_epik_Ionization_Penalty_Neutral>
9.83265e-06

> <r_epik_State_Penalty>
5.18201

> <r_epik_Charging_Adjusted_Penalty>
10.3635

> <i_epik_Tot_Q>
0

> <i_epik_Tot_abs_Q>
2

> <r_epik_Metal_State_Penalty>
1.25422

> <b_epik_Metal_Only>
1

> <s_lp_Force_Field>
OPLS_2005

> <r_lp_Energy>
23.9108

> <b_lp_Chiralities_Consistent>
1

> <s_lp_Variant>
AV-unprocessed.smi:3330-9

> <Gold.Version>
5.8.1

> <Gold.Id.Protein>
6NUR|6NUR_protein|mol2

> <Gold.PLP.Fitness>
52.4966

> <Gold.PLP.PLP>
-40.9861

> <Gold.PLP.part.hbond>
-3.0000

> <Gold.PLP.part.metal>
0.0000

> <Gold.PLP.part.buried>
-5.9318

> <Gold.PLP.part.nonpolar>
-31.6678

> <Gold.PLP.part.repulsive>
0.1499

> <Gold.PLP.ligand.clash>
0.0000

> <Gold.PLP.ligand.torsion>
1.5129

> <Gold.PLP.Chemscore.Hbond>
4.8000

> <Gold.PLP.Chemscore.CHOScore>
0.0000

> <Gold.PLP.Chemscore.Metal>
0.0000

> <Gold.Chemscore.Hbonds>
donor molecule, donor type, donor heavy atom, donor atom, acceptor molecule, acceptor atom, score
      L1  H     3    38       P1  8028  2.00
      P1  H  7989  7998       L1     8  0.90
      P1  H  7997  8009       L1    10  1.46

> <Gold.PLP.Chemscore.Internal.Correction>
0.1363

> <Gold.Rescore>
     Score         DG    S(hbond)    S(metal)    S(lipo)     H(rot)  DE(clash)    DE(int)     intcor
     11.58     -14.70       1.38        0.00      96.13       2.59       1.52       1.60       ----

> <Gold.Chemscore.Fitness>
11.5814

> <Gold.Chemscore.DG>
-14.6961

> <Gold.Chemscore.ZeroCoef>
-5.4800

> <Gold.Chemscore.Hbond>
1.3772

> <Gold.Chemscore.Metal>
0.0000

> <Gold.Chemscore.Lipo>
96.1319

> <Gold.Chemscore.Internal_Hbond>
0.0000

> <Gold.Chemscore.DEClash>
1.5171

> <Gold.Chemscore.DEInternal>
1.5976

> <Gold.Chemscore.Rot>
2.5903

> <Gold.Chemscore.Internal.Correction>
   9.000000E+99

> <Gold.Chemscore.Hbonds>
donor molecule, donor type, donor heavy atom, donor atom, acceptor molecule, acceptor atom, score
      L1  H     3    38       P1  8028  0.87
      P1  H  7989  7998       L1     8  0.17
      P1  H  7997  8009       L1    10  0.14

> <Gold.Chemscore.Hbond.Weighted>
-4.5998

> <Gold.Chemscore.Metal.Weighted>
-0.0000

> <Gold.Chemscore.Lipo.Weighted>
-11.2474

> <Gold.Chemscore.Internal_Hbond.Weighted>
0.0000

> <Gold.Chemscore.DEClash.Weighted>
1.5171

> <Gold.Chemscore.DEInternal.Weighted>
1.5976

> <Gold.Chemscore.Rot.Weighted>
6.6311

> <Gold.Chemscore.Internal.Correction.Weighted>
   9.000000E+99

> <Gold.Protein.RotatedTorsions>
[ 6907 6896 6895 6894 ] final  -82.14 input  -60.11 | X-H torsion
[ 7974 7965 7964 7962 ] final -150.79 input  175.53 | X-H torsion
[ 8008 7997 7996 7995 ] final -164.70 input   59.86 | X-H torsion
[ 10167 10162 10161 10158 ] final  -89.94 input  -65.29 | X-H torsion
[ 10718 10713 10712 10709 ] final  -86.59 input   66.30 | X-H torsion
[ 10763 10752 10751 10750 ] final  -81.41 input  -60.55 | X-H torsion
[ 11005 11000 10999 10996 ] final  177.19 input  -57.11 | X-H torsion

> <Gold.Protein.ActiveResidues>
 VAL166  LYS551  ARG553  GLY616  TRP617  ASP618  TYR619  PRO620  LYS621  CYS622 
 ASP623  PHE694  ASN695  SER759  ASP760  ASP761  ALA762  ILE779  LEU786  VAL792 
 PHE793  MET794  SER795  GLU796  ALA797  LYS798  CYS799  TRP800  GLU811  SER814 

> <Gold.Protein.RotatedAtoms>
  150.6901  134.3710  159.4991 H   0  0  0  0  0  0  0  0  0  0  0  0  # atno 6907 bound_to 6896
  152.1526  134.8974  160.0556 H   0  0  0  0  0  0  0  0  0  0  0  0  # atno 6908 bound_to 6896
  152.0066  133.3810  159.4240 H   0  0  0  0  0  0  0  0  0  0  0  0  # atno 6909 bound_to 6896
  144.7887  140.4885  143.5788 H   0  0  0  0  0  0  0  0  0  0  0  0  # atno 7974 bound_to 7965
  155.8393  140.0946  157.1744 H   0  0  0  0  0  0  0  0  0  0  0  0  # atno 8008 bound_to 7997
  154.3981  140.1404  156.3770 H   0  0  0  0  0  0  0  0  0  0  0  0  # atno 8009 bound_to 7997
  155.8082  140.3450  155.5444 H   0  0  0  0  0  0  0  0  0  0  0  0  # atno 8010 bound_to 7997
  140.3598  143.2848  151.9628 H   0  0  0  0  0  0  0  0  0  0  0  0  # atno 10167 bound_to 10162
  155.9989  130.4770  150.4738 H   0  0  0  0  0  0  0  0  0  0  0  0  # atno 10718 bound_to 10713
  154.5633  135.5627  153.7027 H   0  0  0  0  0  0  0  0  0  0  0  0  # atno 10763 bound_to 10752
  153.0025  135.6279  154.2215 H   0  0  0  0  0  0  0  0  0  0  0  0  # atno 10764 bound_to 10752
  154.2154  135.2872  155.2923 H   0  0  0  0  0  0  0  0  0  0  0  0  # atno 10765 bound_to 10752
  140.3814  134.6943  157.4453 H   0  0  0  0  0  0  0  0  0  0  0  0  # atno 11005 bound_to 11000
  145.5852  139.1491  143.3213 LP  0  0  0  0  0  0  0  0  0  0  0  0  # atno 17320 bound_to 7965
  146.2130  140.5980  142.9051 LP  0  0  0  0  0  0  0  0  0  0  0  0  # atno 17321 bound_to 7965
  139.4815  144.6003  151.7618 LP  0  0  0  0  0  0  0  0  0  0  0  0  # atno 17342 bound_to 10162
  140.5138  144.0984  150.6002 LP  0  0  0  0  0  0  0  0  0  0  0  0  # atno 17343 bound_to 10162
  157.2750  131.0595  151.2235 LP  0  0  0  0  0  0  0  0  0  0  0  0  # atno 17370 bound_to 10713
  157.3301  130.6981  149.6320 LP  0  0  0  0  0  0  0  0  0  0  0  0  # atno 17371 bound_to 10713
  140.0475  134.6178  155.8902 LP  0  0  0  0  0  0  0  0  0  0  0  0  # atno 17394 bound_to 11000
  141.1922  133.6574  156.5491 LP  0  0  0  0  0  0  0  0  0  0  0  0  # atno 17395 bound_to 11000

$$$$
