AV-unprocessed.smi:1941|AV-procd|sdf|7847|dock6
  -GOLD-   22720 9593D 1   1.00000     0.00000
 Structure written by MMmdl.
 40 41  0  0  0  0  0  0  0  0  1 V2000
  152.7282  142.7389  161.6205 C   0  0  0  0  0  0  0  0  0  0  0  0
  152.1335  142.8298  160.2570 C   0  0  0  0  0  0  0  0  0  0  0  0
  151.8196  141.7653  159.5141 N   0  0  0  0  0  0  0  0  0  0  0  0
  151.2779  142.1159  158.2731 C   0  0  0  0  0  0  0  0  0  0  0  0
  150.8628  141.0482  157.3068 C   0  0  0  0  0  0  0  0  0  0  0  0
  151.1635  139.6358  157.8366 C   0  0  0  0  0  0  0  0  0  0  0  0
  149.9789  139.0166  158.4197 N   0  0  0  0  0  0  0  0  0  0  0  0
  149.8217  137.7000  158.6147 C   0  0  0  0  0  0  0  0  0  0  0  0
  150.6626  136.8543  158.3088 O   0  0  0  0  0  0  0  0  0  0  0  0
  148.6453  137.4212  159.1935 N   0  0  0  0  0  0  0  0  0  0  0  0
  148.1703  136.0911  159.5743 C   0  0  2  0  0  0  0  0  0  0  0  0
  147.3851  135.4717  158.4092 C   0  0  0  0  0  0  0  0  0  0  0  0
  147.3302  136.1603  160.8662 C   0  0  1  0  0  0  0  0  0  0  0  0
  146.9196  134.8049  161.4613 C   0  0  0  0  0  0  0  0  0  0  0  0
  146.9895  135.0181  162.9679 C   0  0  0  0  0  0  0  0  0  0  0  0
  147.3632  136.4908  163.1211 C   0  0  0  0  0  0  0  0  0  0  0  0
  148.0481  136.7925  161.9169 O   0  0  0  0  0  0  0  0  0  0  0  0
  151.1830  143.4727  158.0882 C   0  0  0  0  0  0  0  0  0  0  0  0
  151.7737  144.3596  159.4664 S   0  0  0  0  0  0  0  0  0  0  0  0
  152.9221  141.6993  161.8872 H   0  0  0  0  0  0  0  0  0  0  0  0
  152.0448  143.1666  162.3540 H   0  0  0  0  0  0  0  0  0  0  0  0
  153.6685  143.2893  161.6536 H   0  0  0  0  0  0  0  0  0  0  0  0
  149.7971  141.1423  157.0937 H   0  0  0  0  0  0  0  0  0  0  0  0
  151.3706  141.1939  156.3523 H   0  0  0  0  0  0  0  0  0  0  0  0
  151.5126  138.9994  157.0231 H   0  0  0  0  0  0  0  0  0  0  0  0
  151.9682  139.6675  158.5732 H   0  0  0  0  0  0  0  0  0  0  0  0
  149.2323  139.6345  158.7025 H   0  0  0  0  0  0  0  0  0  0  0  0
  148.0310  138.1928  159.4095 H   0  0  0  0  0  0  0  0  0  0  0  0
  149.0179  135.4332  159.7735 H   0  0  0  0  0  0  0  0  0  0  0  0
  147.0437  134.4664  158.6574 H   0  0  0  0  0  0  0  0  0  0  0  0
  148.0047  135.3959  157.5150 H   0  0  0  0  0  0  0  0  0  0  0  0
  146.5075  136.0682  158.1575 H   0  0  0  0  0  0  0  0  0  0  0  0
  146.4271  136.7448  160.6804 H   0  0  0  0  0  0  0  0  0  0  0  0
  145.9210  134.5164  161.1322 H   0  0  0  0  0  0  0  0  0  0  0  0
  147.6009  134.0042  161.1730 H   0  0  0  0  0  0  0  0  0  0  0  0
  146.0524  134.7798  163.4719 H   0  0  0  0  0  0  0  0  0  0  0  0
  147.7700  134.3865  163.3936 H   0  0  0  0  0  0  0  0  0  0  0  0
  146.4698  137.1127  163.1958 H   0  0  0  0  0  0  0  0  0  0  0  0
  147.9857  136.6785  163.9963 H   0  0  0  0  0  0  0  0  0  0  0  0
  150.8008  144.0019  157.2277 H   0  0  0  0  0  0  0  0  0  0  0  0
  1  2  1  0  0  0  0
  1 20  1  0  0  0  0
  1 21  1  0  0  0  0
  1 22  1  0  0  0  0
  2 19  1  0  0  0  0
  2  3  2  0  0  0  0
  3  4  1  0  0  0  0
  4  5  1  0  0  0  0
  4 18  2  0  0  0  0
  5  6  1  0  0  0  0
  5 23  1  0  0  0  0
  5 24  1  0  0  0  0
  6  7  1  0  0  0  0
  6 25  1  0  0  0  0
  6 26  1  0  0  0  0
  7  8  1  0  0  0  0
  7 27  1  0  0  0  0
  8  9  2  0  0  0  0
  8 10  1  0  0  0  0
 10 11  1  0  0  0  0
 10 28  1  0  0  0  0
 11 12  1  0  0  0  0
 11 13  1  0  0  0  0
 11 29  1  0  0  0  0
 12 30  1  0  0  0  0
 12 31  1  0  0  0  0
 12 32  1  0  0  0  0
 13 17  1  0  0  0  0
 13 14  1  0  0  0  0
 13 33  1  0  0  0  0
 14 15  1  0  0  0  0
 14 34  1  0  0  0  0
 14 35  1  0  0  0  0
 15 16  1  0  0  0  0
 15 36  1  0  0  0  0
 15 37  1  0  0  0  0
 16 17  1  0  0  0  0
 16 38  1  0  0  0  0
 16 39  1  0  0  0  0
 18 19  1  0  0  0  0
 18 40  1  0  0  0  0
M  END
> <s_m_source_file>
AV-unprocessed.smi

> <i_m_source_file_index>
1941

> <i_lp_mmshare_version>
43012

> <i_f3d_flags>
0

> <s_epik_input>
W0NIM11jMW5jKFtjSF1zMSlbQ0gyXVtDSDJdW05IXUMoPU8pW05IXVtDQEhdKFtDSDNdKVtDQEBIXTJbQ0gyXVtDSDJdW0NIMl1PMg==

> <s_epik_cmdline>
J2VwaWtfcHl0aG9uJywgJy1waCcsICc3LjAnLCAnLXRuJywgJzgnLCAnLW1hJywgJzIwMCcsICctbWV0YWxfYmluZGluZycsICctaW1hZScsICc8aW5maWxlLm1hZT4nLCAnLW9tYWUnLCAnPG91dGZpbGUubWFlPic=

> <r_epik_Ionization_Penalty>
0.00195486

> <r_epik_Ionization_Penalty_Charging>
0

> <r_epik_Ionization_Penalty_Neutral>
0.00195486

> <r_epik_State_Penalty>
0.00129472

> <r_epik_Charging_Adjusted_Penalty>
0.00129472

> <i_epik_Tot_Q>
0

> <i_epik_Tot_abs_Q>
0

> <r_epik_Metal_State_Penalty>
-0

> <b_epik_Metal_Only>
0

> <s_lp_Force_Field>
OPLS_2005

> <r_lp_Energy>
12.2091

> <b_lp_Chiralities_Consistent>
1

> <s_lp_Variant>
AV-unprocessed.smi:1941-3

> <Gold.Version>
5.8.1

> <Gold.Id.Protein>
6NUR|6NUR_protein|mol2

> <Gold.PLP.Fitness>
46.5769

> <Gold.PLP.PLP>
-42.1436

> <Gold.PLP.part.hbond>
-1.5485

> <Gold.PLP.part.metal>
0.0000

> <Gold.PLP.part.buried>
-6.5556

> <Gold.PLP.part.nonpolar>
-34.8166

> <Gold.PLP.part.repulsive>
0.3659

> <Gold.PLP.ligand.clash>
0.0000

> <Gold.PLP.ligand.torsion>
0.8033

> <Gold.PLP.Chemscore.Hbond>
0.9913

> <Gold.PLP.Chemscore.CHOScore>
1.0000

> <Gold.PLP.Chemscore.Metal>
0.0000

> <Gold.Chemscore.Hbonds>
donor molecule, donor type, donor heavy atom, donor atom, acceptor molecule, acceptor atom, score
      P1  H  6931  6943       L1    17  1.00
      L1  C    18    40       P1  8028  0.94

> <Gold.PLP.Chemscore.Internal.Correction>
0.0660

> <Gold.Rescore>
     Score         DG    S(hbond)    S(metal)    S(lipo)     H(rot)  DE(clash)    DE(int)     intcor
     16.27     -16.74       0.98        0.00     105.26       1.69       0.00       0.47       ----

> <Gold.Chemscore.Fitness>
16.2714

> <Gold.Chemscore.DG>
-16.7448

> <Gold.Chemscore.ZeroCoef>
-5.4800

> <Gold.Chemscore.Hbond>
0.9825

> <Gold.Chemscore.Metal>
0.0000

> <Gold.Chemscore.Lipo>
105.2607

> <Gold.Chemscore.Internal_Hbond>
0.0000

> <Gold.Chemscore.DEClash>
0.0009

> <Gold.Chemscore.DEInternal>
0.4725

> <Gold.Chemscore.Rot>
1.6923

> <Gold.Chemscore.Internal.Correction>
   9.000000E+99

> <Gold.Chemscore.Hbonds>
donor molecule, donor type, donor heavy atom, donor atom, acceptor molecule, acceptor atom, score
      P1  H  6931  6943       L1    17  0.93

> <Gold.Chemscore.Hbond.Weighted>
-3.2816

> <Gold.Chemscore.Metal.Weighted>
-0.0000

> <Gold.Chemscore.Lipo.Weighted>
-12.3155

> <Gold.Chemscore.Internal_Hbond.Weighted>
0.0000

> <Gold.Chemscore.DEClash.Weighted>
0.0009

> <Gold.Chemscore.DEInternal.Weighted>
0.4725

> <Gold.Chemscore.Rot.Weighted>
4.3323

> <Gold.Chemscore.Internal.Correction.Weighted>
   9.000000E+99

> <Gold.Protein.RotatedTorsions>
[ 6907 6896 6895 6894 ] final  156.99 input  -60.11 | X-H torsion
[ 7974 7965 7964 7962 ] final  167.19 input  175.53 | X-H torsion
[ 8008 7997 7996 7995 ] final  156.81 input   59.86 | X-H torsion
[ 10167 10162 10161 10158 ] final  -48.18 input  -65.29 | X-H torsion
[ 10718 10713 10712 10709 ] final    1.19 input   66.30 | X-H torsion
[ 10763 10752 10751 10750 ] final  135.06 input  -60.55 | X-H torsion
[ 11005 11000 10999 10996 ] final   27.46 input  -57.11 | X-H torsion

> <Gold.Protein.ActiveResidues>
 VAL166  LYS551  ARG553  GLY616  TRP617  ASP618  TYR619  PRO620  LYS621  CYS622 
 ASP623  PHE694  ASN695  SER759  ASP760  ASP761  ALA762  ILE779  LEU786  VAL792 
 PHE793  MET794  SER795  GLU796  ALA797  LYS798  CYS799  TRP800  GLU811  SER814 

> <Gold.Protein.RotatedAtoms>
  152.0216  133.3901  159.4260 H   0  0  0  0  0  0  0  0  0  0  0  0  # atno 6907 bound_to 6896
  150.6890  134.3619  159.4963 H   0  0  0  0  0  0  0  0  0  0  0  0  # atno 6908 bound_to 6896
  152.1394  134.9074  160.0605 H   0  0  0  0  0  0  0  0  0  0  0  0  # atno 6909 bound_to 6896
  144.7433  139.8725  143.6390 H   0  0  0  0  0  0  0  0  0  0  0  0  # atno 7974 bound_to 7965
  156.2400  140.1902  156.7013 H   0  0  0  0  0  0  0  0  0  0  0  0  # atno 8008 bound_to 7997
  154.6180  140.0612  156.9605 H   0  0  0  0  0  0  0  0  0  0  0  0  # atno 8009 bound_to 7997
  155.1908  140.3284  155.4361 H   0  0  0  0  0  0  0  0  0  0  0  0  # atno 8010 bound_to 7997
  140.6742  143.2751  151.4033 H   0  0  0  0  0  0  0  0  0  0  0  0  # atno 10167 bound_to 10162
  156.8446  130.5532  149.5674 H   0  0  0  0  0  0  0  0  0  0  0  0  # atno 10718 bound_to 10713
  153.8339  135.3100  155.3421 H   0  0  0  0  0  0  0  0  0  0  0  0  # atno 10763 bound_to 10752
  154.7961  135.4754  154.0168 H   0  0  0  0  0  0  0  0  0  0  0  0  # atno 10764 bound_to 10752
  153.1617  135.6862  153.8824 H   0  0  0  0  0  0  0  0  0  0  0  0  # atno 10765 bound_to 10752
  140.3260  134.2491  155.7709 H   0  0  0  0  0  0  0  0  0  0  0  0  # atno 11005 bound_to 11000
  146.1270  139.4298  143.0192 LP  0  0  0  0  0  0  0  0  0  0  0  0  # atno 17320 bound_to 7965
  145.7220  141.0072  143.1397 LP  0  0  0  0  0  0  0  0  0  0  0  0  # atno 17321 bound_to 7965
  139.6026  144.1263  152.2215 LP  0  0  0  0  0  0  0  0  0  0  0  0  # atno 17342 bound_to 10162
  140.0652  144.5824  150.7233 LP  0  0  0  0  0  0  0  0  0  0  0  0  # atno 17343 bound_to 10162
  156.0862  130.5860  150.9652 LP  0  0  0  0  0  0  0  0  0  0  0  0  # atno 17370 bound_to 10713
  157.6337  131.0918  150.8391 LP  0  0  0  0  0  0  0  0  0  0  0  0  # atno 17371 bound_to 10713
  141.2075  133.7804  157.0115 LP  0  0  0  0  0  0  0  0  0  0  0  0  # atno 17394 bound_to 11000
  140.0901  134.9597  157.1763 LP  0  0  0  0  0  0  0  0  0  0  0  0  # atno 17395 bound_to 11000

$$$$
