AV-unprocessed.smi:240|AV-procd|sdf|1833|dock3
  -GOLD-   2262020443D 1   1.00000     0.00000
 Structure written by MMmdl.
 55 59  0  0  0  0  0  0  0  0  1 V2000
  149.4581  141.0633  153.4778 O   0  0  0  0  0  0  0  0  0  0  0  0
  149.6572  140.1888  154.5699 C   0  0  1  0  0  0  0  0  0  0  0  0
  149.8764  141.0547  155.8162 C   0  0  0  0  0  0  0  0  0  0  0  0
  148.4724  141.3591  156.3681 C   0  0  0  0  0  0  0  0  0  0  0  0
  147.5062  140.3816  155.6779 C   0  0  0  0  0  0  0  0  0  0  0  0
  148.4062  139.3744  154.9470 C   0  0  1  0  0  0  0  0  0  0  0  0
  147.7320  138.4613  153.8686 C   0  0  2  0  0  0  0  0  0  0  0  0
  146.8435  139.2272  152.8509 C   0  0  0  0  0  0  0  0  0  0  0  0
  146.2267  138.3321  151.9334 O   0  0  0  0  0  0  0  0  0  0  0  0
  145.3684  137.4113  152.5880 C   0  0  0  0  0  0  0  0  0  0  0  0
  146.2151  136.5474  153.5267 C   0  0  0  0  0  0  0  0  0  0  0  0
  146.9337  137.3849  154.4808 N   0  0  0  0  0  0  0  0  0  0  0  0
  147.5402  136.6026  155.4036 C   0  0  0  0  0  0  0  0  0  0  0  0
  148.2625  135.5181  155.0156 N   0  0  0  0  0  0  0  0  0  0  0  0
  148.8522  134.7471  155.9344 C   0  0  0  0  0  0  0  0  0  0  0  0
  148.8403  134.8744  157.2636 N   0  0  0  0  0  0  0  0  0  0  0  0
  148.1055  135.9559  157.6532 C   0  0  0  0  0  0  0  0  0  0  0  0
  147.4284  136.8645  156.7937 C   0  0  0  0  0  0  0  0  0  0  0  0
  146.7901  137.8456  157.5403 N   0  0  0  0  0  0  0  0  0  0  0  0
  147.0743  137.5345  158.7757 C   0  0  0  0  0  0  0  0  0  0  0  0
  147.8511  136.4080  158.9365 N   0  0  0  0  0  0  0  0  0  0  0  0
  148.3123  135.8393  160.1946 C   0  0  0  0  0  0  0  0  0  0  0  0
  147.2969  135.9870  161.3537 C   0  0  2  0  0  0  0  0  0  0  0  0
  147.2881  137.3360  161.7855 O   0  0  0  0  0  0  0  0  0  0  0  0
  147.6354  135.0861  162.5436 C   0  0  0  0  0  0  0  0  0  0  0  0
  146.5582  134.0094  162.4952 C   0  0  0  0  0  0  0  0  0  0  0  0
  145.4254  134.7265  162.0392 O   0  0  0  0  0  0  0  0  0  0  0  0
  145.8620  135.5639  160.9782 C   0  0  0  0  0  0  0  0  0  0  0  0
  149.2329  140.5470  152.7188 H   0  0  0  0  0  0  0  0  0  0  0  0
  150.5154  139.5490  154.3617 H   0  0  0  0  0  0  0  0  0  0  0  0
  150.4306  140.4768  156.5572 H   0  0  0  0  0  0  0  0  0  0  0  0
  150.4572  141.9566  155.6177 H   0  0  0  0  0  0  0  0  0  0  0  0
  148.4528  141.2379  157.4517 H   0  0  0  0  0  0  0  0  0  0  0  0
  148.1844  142.3882  156.1510 H   0  0  0  0  0  0  0  0  0  0  0  0
  146.8408  139.8926  156.3901 H   0  0  0  0  0  0  0  0  0  0  0  0
  146.8825  140.9315  154.9744 H   0  0  0  0  0  0  0  0  0  0  0  0
  148.7804  138.7087  155.7251 H   0  0  0  0  0  0  0  0  0  0  0  0
  148.5296  137.9833  153.2977 H   0  0  0  0  0  0  0  0  0  0  0  0
  146.0735  139.8165  153.3490 H   0  0  0  0  0  0  0  0  0  0  0  0
  147.4344  139.9128  152.2488 H   0  0  0  0  0  0  0  0  0  0  0  0
  144.5844  137.9380  153.1347 H   0  0  0  0  0  0  0  0  0  0  0  0
  144.8777  136.7873  151.8412 H   0  0  0  0  0  0  0  0  0  0  0  0
  145.5713  135.8418  154.0542 H   0  0  0  0  0  0  0  0  0  0  0  0
  146.9286  135.9607  152.9459 H   0  0  0  0  0  0  0  0  0  0  0  0
  149.4117  133.9071  155.5500 H   0  0  0  0  0  0  0  0  0  0  0  0
  146.7183  138.1202  159.6109 H   0  0  0  0  0  0  0  0  0  0  0  0
  148.5383  134.7848  160.0313 H   0  0  0  0  0  0  0  0  0  0  0  0
  149.2583  136.3150  160.4567 H   0  0  0  0  0  0  0  0  0  0  0  0
  146.6856  137.4135  162.5096 H   0  0  0  0  0  0  0  0  0  0  0  0
  148.6415  134.6674  162.5016 H   0  0  0  0  0  0  0  0  0  0  0  0
  147.5480  135.6305  163.4855 H   0  0  0  0  0  0  0  0  0  0  0  0
  146.8156  133.2278  161.7781 H   0  0  0  0  0  0  0  0  0  0  0  0
  146.3804  133.5457  163.4657 H   0  0  0  0  0  0  0  0  0  0  0  0
  145.1823  136.4036  160.8269 H   0  0  0  0  0  0  0  0  0  0  0  0
  145.8528  134.9665  160.0664 H   0  0  0  0  0  0  0  0  0  0  0  0
  1  2  1  0  0  0  0
  1 29  1  0  0  0  0
  2  6  1  0  0  0  0
  2  3  1  0  0  0  0
  2 30  1  0  0  0  0
  3  4  1  0  0  0  0
  3 31  1  0  0  0  0
  3 32  1  0  0  0  0
  4  5  1  0  0  0  0
  4 33  1  0  0  0  0
  4 34  1  0  0  0  0
  5  6  1  0  0  0  0
  5 35  1  0  0  0  0
  5 36  1  0  0  0  0
  6  7  1  0  0  0  0
  6 37  1  0  0  0  0
  7 12  1  0  0  0  0
  7  8  1  0  0  0  0
  7 38  1  0  0  0  0
  8  9  1  0  0  0  0
  8 39  1  0  0  0  0
  8 40  1  0  0  0  0
  9 10  1  0  0  0  0
 10 11  1  0  0  0  0
 10 41  1  0  0  0  0
 10 42  1  0  0  0  0
 11 12  1  0  0  0  0
 11 43  1  0  0  0  0
 11 44  1  0  0  0  0
 12 13  1  0  0  0  0
 13 18  1  0  0  0  0
 13 14  2  0  0  0  0
 14 15  1  0  0  0  0
 15 16  2  0  0  0  0
 15 45  1  0  0  0  0
 16 17  1  0  0  0  0
 17 21  1  0  0  0  0
 17 18  2  0  0  0  0
 18 19  1  0  0  0  0
 19 20  2  0  0  0  0
 20 21  1  0  0  0  0
 20 46  1  0  0  0  0
 21 22  1  0  0  0  0
 22 23  1  0  0  0  0
 22 47  1  0  0  0  0
 22 48  1  0  0  0  0
 23 28  1  0  0  0  0
 23 24  1  0  0  0  0
 23 25  1  0  0  0  0
 24 49  1  0  0  0  0
 25 26  1  0  0  0  0
 25 50  1  0  0  0  0
 25 51  1  0  0  0  0
 26 27  1  0  0  0  0
 26 52  1  0  0  0  0
 26 53  1  0  0  0  0
 27 28  1  0  0  0  0
 28 54  1  0  0  0  0
 28 55  1  0  0  0  0
M  END
> <s_m_source_file>
AV-unprocessed.smi

> <i_m_source_file_index>
240

> <i_lp_mmshare_version>
43012

> <i_f3d_flags>
0

> <s_epik_input>
W09IXVtDQEBIXTFbQ0gyXVtDSDJdW0NIMl1bQ0BIXTFbQ0BASF0yW0NIMl1PW0NIMl1bQ0gyXU4yYyhuW2NIXW4zKWMoYzM0KW5bY0hdbjRbQ0gyXVtDQEBdNShbT0hdKVtDSDJdW0NIMl1PW0NIMl01

> <s_epik_cmdline>
J2VwaWtfcHl0aG9uJywgJy1waCcsICc3LjAnLCAnLXRuJywgJzgnLCAnLW1hJywgJzIwMCcsICctbWV0YWxfYmluZGluZycsICctaW1hZScsICc8aW5maWxlLm1hZT4nLCAnLW9tYWUnLCAnPG91dGZpbGUubWFlPic=

> <r_lp_tautomer_probability>
1

> <r_epik_Ionization_Penalty>
0.000130618

> <r_epik_Ionization_Penalty_Charging>
0

> <r_epik_Ionization_Penalty_Neutral>
0.000130618

> <r_epik_State_Penalty>
-0

> <r_epik_Charging_Adjusted_Penalty>
0

> <i_epik_Tot_Q>
0

> <i_epik_Tot_abs_Q>
0

> <r_epik_Metal_State_Penalty>
-0

> <b_epik_Metal_Only>
0

> <s_lp_Force_Field>
OPLS_2005

> <r_lp_Energy>
64.6726

> <b_lp_Chiralities_Consistent>
1

> <s_lp_Variant>
AV-unprocessed.smi:240-10

> <Gold.Version>
5.8.1

> <Gold.Id.Protein>
6NUR|6NUR_protein|mol2

> <Gold.PLP.Fitness>
39.8486

> <Gold.PLP.PLP>
-33.1241

> <Gold.PLP.part.hbond>
-4.8744

> <Gold.PLP.part.metal>
0.0000

> <Gold.PLP.part.buried>
-4.2374

> <Gold.PLP.part.nonpolar>
-24.8383

> <Gold.PLP.part.repulsive>
0.5227

> <Gold.PLP.ligand.clash>
0.0000

> <Gold.PLP.ligand.torsion>
1.2604

> <Gold.PLP.Chemscore.Hbond>
3.0019

> <Gold.PLP.Chemscore.CHOScore>
0.0000

> <Gold.PLP.Chemscore.Metal>
0.0000

> <Gold.Chemscore.Hbonds>
donor molecule, donor type, donor heavy atom, donor atom, acceptor molecule, acceptor atom, score
      L1  H     1    29       P1  7957  0.98
      P1  H  6931  6943       L1    24  0.82
      P1  H  6934  6947       L1    24  0.80
      P1  H  8011  8017       L1     1  0.35

> <Gold.PLP.Chemscore.Internal.Correction>
0.2396

> <Gold.Rescore>
     Score         DG    S(hbond)    S(metal)    S(lipo)     H(rot)  DE(clash)    DE(int)     intcor
     12.52     -14.67       2.30        0.00      78.67       3.00       0.06       2.09       ----

> <Gold.Chemscore.Fitness>
12.5232

> <Gold.Chemscore.DG>
-14.6702

> <Gold.Chemscore.ZeroCoef>
-5.4800

> <Gold.Chemscore.Hbond>
2.2980

> <Gold.Chemscore.Metal>
0.0000

> <Gold.Chemscore.Lipo>
78.6727

> <Gold.Chemscore.Internal_Hbond>
0.0000

> <Gold.Chemscore.DEClash>
0.0588

> <Gold.Chemscore.DEInternal>
2.0881

> <Gold.Chemscore.Rot>
3.0039

> <Gold.Chemscore.Internal.Correction>
   9.000000E+99

> <Gold.Chemscore.Hbonds>
donor molecule, donor type, donor heavy atom, donor atom, acceptor molecule, acceptor atom, score
      L1  H     1    29       P1  7957  0.92
      P1  H  6931  6943       L1    24  0.73
      P1  H  6934  6947       L1    24  0.32
      P1  H  8011  8017       L1     1  0.01

> <Gold.Chemscore.Hbond.Weighted>
-7.6754

> <Gold.Chemscore.Metal.Weighted>
-0.0000

> <Gold.Chemscore.Lipo.Weighted>
-9.2047

> <Gold.Chemscore.Internal_Hbond.Weighted>
0.0000

> <Gold.Chemscore.DEClash.Weighted>
0.0588

> <Gold.Chemscore.DEInternal.Weighted>
2.0881

> <Gold.Chemscore.Rot.Weighted>
7.6899

> <Gold.Chemscore.Internal.Correction.Weighted>
   9.000000E+99

> <Gold.Protein.RotatedTorsions>
[ 6907 6896 6895 6894 ] final  -55.98 input  -60.11 | X-H torsion
[ 7974 7965 7964 7962 ] final    5.81 input  175.53 | X-H torsion
[ 8008 7997 7996 7995 ] final   55.16 input   59.86 | X-H torsion
[ 10167 10162 10161 10158 ] final   82.08 input  -65.29 | X-H torsion
[ 10718 10713 10712 10709 ] final   46.50 input   66.30 | X-H torsion
[ 10763 10752 10751 10750 ] final  166.29 input  -60.55 | X-H torsion
[ 11005 11000 10999 10996 ] final  -75.23 input  -57.11 | X-H torsion

> <Gold.Protein.ActiveResidues>
 VAL166  LYS551  ARG553  GLY616  TRP617  ASP618  TYR619  PRO620  LYS621  CYS622 
 ASP623  PHE694  ASN695  SER759  ASP760  ASP761  ALA762  ILE779  LEU786  VAL792 
 PHE793  MET794  SER795  GLU796  ALA797  LYS798  CYS799  TRP800  GLU811  SER814 

> <Gold.Protein.RotatedAtoms>
  150.8206  134.7411  159.6768 H   0  0  0  0  0  0  0  0  0  0  0  0  # atno 6907 bound_to 6896
  152.4321  134.5753  159.9942 H   0  0  0  0  0  0  0  0  0  0  0  0  # atno 6908 bound_to 6896
  151.5939  133.3326  159.3069 H   0  0  0  0  0  0  0  0  0  0  0  0  # atno 6909 bound_to 6896
  146.2438  140.0328  142.8388 H   0  0  0  0  0  0  0  0  0  0  0  0  # atno 7974 bound_to 7965
  155.4966  140.3473  155.4364 H   0  0  0  0  0  0  0  0  0  0  0  0  # atno 8008 bound_to 7997
  156.0941  140.1418  156.9581 H   0  0  0  0  0  0  0  0  0  0  0  0  # atno 8009 bound_to 7997
  154.4653  140.0920  156.6980 H   0  0  0  0  0  0  0  0  0  0  0  0  # atno 8010 bound_to 7997
  139.9326  144.6142  150.8330 H   0  0  0  0  0  0  0  0  0  0  0  0  # atno 10167 bound_to 10162
  157.4488  130.8125  149.7767 H   0  0  0  0  0  0  0  0  0  0  0  0  # atno 10718 bound_to 10713
  154.3368  135.2754  155.2443 H   0  0  0  0  0  0  0  0  0  0  0  0  # atno 10763 bound_to 10752
  154.4731  135.5878  153.6339 H   0  0  0  0  0  0  0  0  0  0  0  0  # atno 10764 bound_to 10752
  152.9861  135.6093  154.3565 H   0  0  0  0  0  0  0  0  0  0  0  0  # atno 10765 bound_to 10752
  141.1643  133.6939  156.7485 H   0  0  0  0  0  0  0  0  0  0  0  0  # atno 11005 bound_to 11000
  145.1139  140.9422  143.4640 LP  0  0  0  0  0  0  0  0  0  0  0  0  # atno 17320 bound_to 7965
  145.0548  139.3152  143.5910 LP  0  0  0  0  0  0  0  0  0  0  0  0  # atno 17321 bound_to 7965
  140.7633  143.3220  151.2600 LP  0  0  0  0  0  0  0  0  0  0  0  0  # atno 17342 bound_to 10162
  139.6770  143.9921  152.2787 LP  0  0  0  0  0  0  0  0  0  0  0  0  # atno 17343 bound_to 10162
  155.9978  130.3898  150.2725 LP  0  0  0  0  0  0  0  0  0  0  0  0  # atno 17370 bound_to 10713
  157.0895  131.0166  151.3127 LP  0  0  0  0  0  0  0  0  0  0  0  0  # atno 17371 bound_to 10713
  140.2621  134.8458  157.3769 LP  0  0  0  0  0  0  0  0  0  0  0  0  # atno 17394 bound_to 11000
  140.1601  134.4740  155.7901 LP  0  0  0  0  0  0  0  0  0  0  0  0  # atno 17395 bound_to 11000

$$$$
