AV-unprocessed.smi:2062|AV-procd|sdf|8406|dock1
  -GOLD-   2272011 93D 1   1.00000     0.00000
 Structure written by MMmdl.
 41 42  0  0  0  0  0  0  0  0  2 V2000
  151.5898  144.9204  160.2077 C   0  0  0  0  0  0  0  0  0  0  0  0
  152.2478  143.8769  159.2930 C   0  0  0  0  0  0  0  0  0  0  0  0
  152.5665  144.4901  157.9197 C   0  0  0  0  0  0  0  0  0  0  0  0
  151.3488  142.6277  159.1671 C   0  0  0  0  0  0  0  0  0  0  0  0
  152.0294  141.3860  158.7965 N   0  0  0  0  0  0  0  0  0  0  0  0
  152.9722  140.9300  159.8155 C   0  0  0  0  0  0  0  0  0  0  0  0
  153.6469  139.6058  159.4202 C   0  0  0  0  0  0  0  0  0  0  0  0
  152.6507  138.6221  159.1658 O   0  0  0  0  0  0  0  0  0  0  0  0
  151.7480  139.0017  158.1292 C   0  0  1  0  0  0  0  0  0  0  0  0
  150.7280  137.8683  157.9260 C   0  0  0  0  0  0  0  0  0  0  0  0
  149.6557  137.9199  158.9144 N   0  0  0  0  0  0  0  0  0  0  0  0
  148.9786  136.8669  159.3939 C   0  0  0  0  0  0  0  0  0  0  0  0
  149.2423  135.7311  158.9921 O   0  0  0  0  0  0  0  0  0  0  0  0
  148.0397  137.1952  160.3105 N   0  5  0  0  0  0  0  0  0  0  0  0
  147.4601  136.2373  161.0520 C   0  0  0  0  0  0  0  0  0  0  0  0
  147.7194  134.9340  160.8932 N   0  0  0  0  0  0  0  0  0  0  0  0
  147.0001  134.1145  161.7652 C   0  0  0  0  0  0  0  0  0  0  0  0
  146.1663  134.8092  162.6011 C   0  0  0  0  0  0  0  0  0  0  0  0
  146.2611  136.5238  162.3169 S   0  0  0  0  0  0  0  0  0  0  0  0
  151.0650  140.3223  158.5352 C   0  0  0  0  0  0  0  0  0  0  0  0
  150.6380  145.2620  159.7996 H   0  0  0  0  0  0  0  0  0  0  0  0
  152.2302  145.7940  160.3333 H   0  0  0  0  0  0  0  0  0  0  0  0
  151.3987  144.5093  161.1993 H   0  0  0  0  0  0  0  0  0  0  0  0
  153.1890  143.5988  159.7658 H   0  0  0  0  0  0  0  0  0  0  0  0
  151.6570  144.7941  157.4008 H   0  0  0  0  0  0  0  0  0  0  0  0
  153.0931  143.7809  157.2804 H   0  0  0  0  0  0  0  0  0  0  0  0
  153.2020  145.3702  158.0208 H   0  0  0  0  0  0  0  0  0  0  0  0
  150.8124  142.4742  160.1048 H   0  0  0  0  0  0  0  0  0  0  0  0
  150.5819  142.8460  158.4223 H   0  0  0  0  0  0  0  0  0  0  0  0
  153.7483  141.6766  159.9782 H   0  0  0  0  0  0  0  0  0  0  0  0
  152.4551  140.8006  160.7675 H   0  0  0  0  0  0  0  0  0  0  0  0
  154.2725  139.7387  158.5361 H   0  0  0  0  0  0  0  0  0  0  0  0
  154.2961  139.2563  160.2230 H   0  0  0  0  0  0  0  0  0  0  0  0
  152.3075  139.1586  157.2051 H   0  0  0  0  0  0  0  0  0  0  0  0
  150.2829  137.9388  156.9332 H   0  0  0  0  0  0  0  0  0  0  0  0
  151.2237  136.8974  157.9729 H   0  0  0  0  0  0  0  0  0  0  0  0
  149.4102  138.8308  159.2738 H   0  0  0  0  0  0  0  0  0  0  0  0
  147.1429  133.0452  161.7202 H   0  0  0  0  0  0  0  0  0  0  0  0
  145.5057  134.4206  163.3611 H   0  0  0  0  0  0  0  0  0  0  0  0
  150.4515  140.1553  159.4221 H   0  0  0  0  0  0  0  0  0  0  0  0
  150.3846  140.6314  157.7407 H   0  0  0  0  0  0  0  0  0  0  0  0
  1  2  1  0  0  0  0
  1 21  1  0  0  0  0
  1 22  1  0  0  0  0
  1 23  1  0  0  0  0
  2  3  1  0  0  0  0
  2  4  1  0  0  0  0
  2 24  1  0  0  0  0
  3 25  1  0  0  0  0
  3 26  1  0  0  0  0
  3 27  1  0  0  0  0
  4  5  1  0  0  0  0
  4 28  1  0  0  0  0
  4 29  1  0  0  0  0
  5 20  1  0  0  0  0
  5  6  1  0  0  0  0
  6  7  1  0  0  0  0
  6 30  1  0  0  0  0
  6 31  1  0  0  0  0
  7  8  1  0  0  0  0
  7 32  1  0  0  0  0
  7 33  1  0  0  0  0
  8  9  1  0  0  0  0
  9 10  1  0  0  0  0
  9 20  1  0  0  0  0
  9 34  1  0  0  0  0
 10 11  1  0  0  0  0
 10 35  1  0  0  0  0
 10 36  1  0  0  0  0
 11 12  1  0  0  0  0
 11 37  1  0  0  0  0
 12 13  2  0  0  0  0
 12 14  1  0  0  0  0
 14 15  1  0  0  0  0
 15 19  1  0  0  0  0
 15 16  2  0  0  0  0
 16 17  1  0  0  0  0
 17 18  2  0  0  0  0
 17 38  1  0  0  0  0
 18 19  1  0  0  0  0
 18 39  1  0  0  0  0
 20 40  1  0  0  0  0
 20 41  1  0  0  0  0
M  CHG  1  14  -1
M  END
> <s_m_source_file>
AV-unprocessed.smi

> <i_m_source_file_index>
2062

> <i_lp_mmshare_version>
43012

> <i_f3d_flags>
0

> <s_epik_input>
W0NIM11bQ0hdKFtDSDNdKVtDSDJdTjFbQ0gyXVtDSDJdT1tDQEhdKFtDSDJdMSlbQ0gyXVtOSF1DKD1PKVtOSF1jMm5bY0hdW2NIXXMy

> <s_epik_cmdline>
J2VwaWtfcHl0aG9uJywgJy1waCcsICc3LjAnLCAnLXRuJywgJzgnLCAnLW1hJywgJzIwMCcsICctbWV0YWxfYmluZGluZycsICctaW1hZScsICc8aW5maWxlLm1hZT4nLCAnLW9tYWUnLCAnPG91dGZpbGUubWFlPic=

> <r_lp_tautomer_probability>
0.999

> <r_epik_Ionization_Penalty>
7.76343

> <r_epik_Ionization_Penalty_Charging>
5.65212

> <r_epik_Ionization_Penalty_Neutral>
2.11131

> <r_epik_State_Penalty>
6.82229

> <r_epik_Charging_Adjusted_Penalty>
12.4744

> <i_epik_Tot_Q>
-1

> <i_epik_Tot_abs_Q>
1

> <r_epik_Metal_State_Penalty>
2.82401

> <b_epik_Metal_Only>
1

> <s_lp_Force_Field>
OPLS_2005

> <r_lp_Energy>
19.1571

> <b_lp_Chiralities_Consistent>
1

> <s_lp_Variant>
AV-unprocessed.smi:2062-11

> <Gold.Version>
5.8.1

> <Gold.Id.Protein>
6NUR|6NUR_protein|mol2

> <Gold.PLP.Fitness>
51.1123

> <Gold.PLP.PLP>
-41.2722

> <Gold.PLP.part.hbond>
-3.0000

> <Gold.PLP.part.metal>
0.0000

> <Gold.PLP.part.buried>
-6.2170

> <Gold.PLP.part.nonpolar>
-34.0675

> <Gold.PLP.part.repulsive>
0.2290

> <Gold.PLP.ligand.clash>
0.0000

> <Gold.PLP.ligand.torsion>
0.6693

> <Gold.PLP.Chemscore.Hbond>
3.7075

> <Gold.PLP.Chemscore.CHOScore>
0.0000

> <Gold.PLP.Chemscore.Metal>
0.0000

> <Gold.Chemscore.Hbonds>
donor molecule, donor type, donor heavy atom, donor atom, acceptor molecule, acceptor atom, score
      P1  H  6896  6909       L1    13  1.00
      P1  H  6931  6943       L1    14  0.96
      P1  H  6934  6947       L1    14  1.20

> <Gold.PLP.Chemscore.Internal.Correction>
0.0560

> <Gold.Rescore>
     Score         DG    S(hbond)    S(metal)    S(lipo)     H(rot)  DE(clash)    DE(int)     intcor
     16.72     -19.03       1.80        0.00     101.09       1.68       0.01       2.30       ----

> <Gold.Chemscore.Fitness>
16.7177

> <Gold.Chemscore.DG>
-19.0348

> <Gold.Chemscore.ZeroCoef>
-5.4800

> <Gold.Chemscore.Hbond>
1.8032

> <Gold.Chemscore.Metal>
0.0000

> <Gold.Chemscore.Lipo>
101.0882

> <Gold.Chemscore.Internal_Hbond>
0.0000

> <Gold.Chemscore.DEClash>
0.0127

> <Gold.Chemscore.DEInternal>
2.3044

> <Gold.Chemscore.Rot>
1.6779

> <Gold.Chemscore.Internal.Correction>
   9.000000E+99

> <Gold.Chemscore.Hbonds>
donor molecule, donor type, donor heavy atom, donor atom, acceptor molecule, acceptor atom, score
      P1  H  6896  6909       L1    13  1.00
      P1  H  6931  6943       L1    14  0.06
      P1  H  6934  6947       L1    14  0.36

> <Gold.Chemscore.Hbond.Weighted>
-6.0228

> <Gold.Chemscore.Metal.Weighted>
-0.0000

> <Gold.Chemscore.Lipo.Weighted>
-11.8273

> <Gold.Chemscore.Internal_Hbond.Weighted>
0.0000

> <Gold.Chemscore.DEClash.Weighted>
0.0127

> <Gold.Chemscore.DEInternal.Weighted>
2.3044

> <Gold.Chemscore.Rot.Weighted>
4.2953

> <Gold.Chemscore.Internal.Correction.Weighted>
   9.000000E+99

> <Gold.Protein.RotatedTorsions>
[ 6907 6896 6895 6894 ] final   52.38 input  -60.11 | X-H torsion
[ 7974 7965 7964 7962 ] final  137.46 input  175.53 | X-H torsion
[ 8008 7997 7996 7995 ] final   30.22 input   59.86 | X-H torsion
[ 10167 10162 10161 10158 ] final    9.82 input  -65.29 | X-H torsion
[ 10718 10713 10712 10709 ] final  112.55 input   66.30 | X-H torsion
[ 10763 10752 10751 10750 ] final   59.07 input  -60.55 | X-H torsion
[ 11005 11000 10999 10996 ] final   70.68 input  -57.11 | X-H torsion

> <Gold.Protein.ActiveResidues>
 VAL166  LYS551  ARG553  GLY616  TRP617  ASP618  TYR619  PRO620  LYS621  CYS622 
 ASP623  PHE694  ASN695  SER759  ASP760  ASP761  ALA762  ILE779  LEU786  VAL792 
 PHE793  MET794  SER795  GLU796  ALA797  LYS798  CYS799  TRP800  GLU811  SER814 

> <Gold.Protein.RotatedAtoms>
  152.3227  134.7360  160.0309 H   0  0  0  0  0  0  0  0  0  0  0  0  # atno 6907 bound_to 6896
  151.7803  133.3344  159.3477 H   0  0  0  0  0  0  0  0  0  0  0  0  # atno 6908 bound_to 6896
  150.7379  134.5868  159.6011 H   0  0  0  0  0  0  0  0  0  0  0  0  # atno 6909 bound_to 6896
  144.9465  139.4868  143.5546 H   0  0  0  0  0  0  0  0  0  0  0  0  # atno 7974 bound_to 7965
  155.0870  140.3216  155.4585 H   0  0  0  0  0  0  0  0  0  0  0  0  # atno 8008 bound_to 7997
  156.2752  140.2085  156.5943 H   0  0  0  0  0  0  0  0  0  0  0  0  # atno 8009 bound_to 7997
  154.6933  140.0514  157.0373 H   0  0  0  0  0  0  0  0  0  0  0  0  # atno 8010 bound_to 7997
  140.6232  143.8159  150.7200 H   0  0  0  0  0  0  0  0  0  0  0  0  # atno 10167 bound_to 10162
  157.6386  131.0969  150.6912 H   0  0  0  0  0  0  0  0  0  0  0  0  # atno 10718 bound_to 10713
  152.9885  135.5584  154.5654 H   0  0  0  0  0  0  0  0  0  0  0  0  # atno 10763 bound_to 10752
  154.5065  135.2800  155.1380 H   0  0  0  0  0  0  0  0  0  0  0  0  # atno 10764 bound_to 10752
  154.2789  135.6348  153.5392 H   0  0  0  0  0  0  0  0  0  0  0  0  # atno 10765 bound_to 10752
  139.9584  134.7103  156.0700 H   0  0  0  0  0  0  0  0  0  0  0  0  # atno 11005 bound_to 11000
  146.3305  139.8521  142.8871 LP  0  0  0  0  0  0  0  0  0  0  0  0  # atno 17320 bound_to 7965
  145.2909  141.0167  143.3663 LP  0  0  0  0  0  0  0  0  0  0  0  0  # atno 17321 bound_to 7965
  140.1754  143.4159  152.1971 LP  0  0  0  0  0  0  0  0  0  0  0  0  # atno 17342 bound_to 10162
  139.5457  144.7296  151.4592 LP  0  0  0  0  0  0  0  0  0  0  0  0  # atno 17343 bound_to 10162
  156.7239  130.4689  149.5516 LP  0  0  0  0  0  0  0  0  0  0  0  0  # atno 17370 bound_to 10713
  156.1647  130.6397  151.0763 LP  0  0  0  0  0  0  0  0  0  0  0  0  # atno 17371 bound_to 10713
  141.1259  133.6599  156.3335 LP  0  0  0  0  0  0  0  0  0  0  0  0  # atno 17394 bound_to 11000
  140.5555  134.5985  157.5419 LP  0  0  0  0  0  0  0  0  0  0  0  0  # atno 17395 bound_to 11000

$$$$
