AV-unprocessed.smi:3196|AV-procd|sdf|12224|dock1
  -GOLD-   2272018 53D 1   1.00000     0.00000
 Structure written by MMmdl.
 33 34  0  0  0  0  0  0  0  0  1 V2000
  153.2226  142.8440  162.6942 C   0  0  0  0  0  0  0  0  0  0  0  0
  152.3461  142.6345  161.4546 C   0  0  0  0  0  0  0  0  0  0  0  0
  152.9262  143.3077  160.2035 C   0  0  0  0  0  0  0  0  0  0  0  0
  151.8498  143.7398  159.2282 C   0  0  1  0  0  0  0  0  0  0  0  0
  152.0569  144.9425  158.3473 C   0  0  0  0  0  0  0  0  0  0  0  0
  152.0326  143.5558  157.7372 C   0  0  2  0  0  0  0  0  0  0  0  0
  150.8851  143.2226  156.9481 N   0  0  0  0  0  0  0  0  0  0  0  0
  150.6204  142.0578  156.3297 C   0  0  0  0  0  0  0  0  0  0  0  0
  151.4225  141.1274  156.3660 O   0  0  0  0  0  0  0  0  0  0  0  0
  149.4521  142.0444  155.6571 N   0  0  0  0  0  0  0  0  0  0  0  0
  148.8627  141.0093  154.8797 C   0  0  0  0  0  0  0  0  0  0  0  0
  149.3573  139.6847  154.7942 C   0  0  0  0  0  0  0  0  0  0  0  0
  148.6653  138.7563  153.9905 C   0  0  0  0  0  0  0  0  0  0  0  0
  147.5468  139.0581  153.2978 N   0  0  0  0  0  0  0  0  0  0  0  0
  147.0721  140.3182  153.3898 C   0  0  0  0  0  0  0  0  0  0  0  0
  147.6873  141.3224  154.1640 C   0  0  0  0  0  0  0  0  0  0  0  0
  147.1549  142.5677  154.2149 F   0  0  0  0  0  0  0  0  0  0  0  0
  152.7827  142.3612  163.5671 H   0  0  0  0  0  0  0  0  0  0  0  0
  153.3358  143.9041  162.9218 H   0  0  0  0  0  0  0  0  0  0  0  0
  154.2179  142.4238  162.5479 H   0  0  0  0  0  0  0  0  0  0  0  0
  152.2290  141.5654  161.2739 H   0  0  0  0  0  0  0  0  0  0  0  0
  151.3473  143.0261  161.6503 H   0  0  0  0  0  0  0  0  0  0  0  0
  153.5217  144.1754  160.4901 H   0  0  0  0  0  0  0  0  0  0  0  0
  153.5997  142.6215  159.6892 H   0  0  0  0  0  0  0  0  0  0  0  0
  150.8388  143.5950  159.6056 H   0  0  0  0  0  0  0  0  0  0  0  0
  151.1997  145.5917  158.1790 H   0  0  0  0  0  0  0  0  0  0  0  0
  153.0185  145.4494  158.3993 H   0  0  0  0  0  0  0  0  0  0  0  0
  153.0013  143.1925  157.3969 H   0  0  0  0  0  0  0  0  0  0  0  0
  150.2278  143.9732  156.7925 H   0  0  0  0  0  0  0  0  0  0  0  0
  148.9334  142.9106  155.6718 H   0  0  0  0  0  0  0  0  0  0  0  0
  150.2355  139.3562  155.3263 H   0  0  0  0  0  0  0  0  0  0  0  0
  149.0194  137.7395  153.9057 H   0  0  0  0  0  0  0  0  0  0  0  0
  146.1738  140.5330  152.8300 H   0  0  0  0  0  0  0  0  0  0  0  0
  1  2  1  0  0  0  0
  1 18  1  0  0  0  0
  1 19  1  0  0  0  0
  1 20  1  0  0  0  0
  2  3  1  0  0  0  0
  2 21  1  0  0  0  0
  2 22  1  0  0  0  0
  3  4  1  0  0  0  0
  3 23  1  0  0  0  0
  3 24  1  0  0  0  0
  4  6  1  0  0  0  0
  4  5  1  0  0  0  0
  4 25  1  0  0  0  0
  5  6  1  0  0  0  0
  5 26  1  0  0  0  0
  5 27  1  0  0  0  0
  6  7  1  0  0  0  0
  6 28  1  0  0  0  0
  7  8  1  0  0  0  0
  7 29  1  0  0  0  0
  8  9  2  0  0  0  0
  8 10  1  0  0  0  0
 10 11  1  0  0  0  0
 10 30  1  0  0  0  0
 11 16  1  0  0  0  0
 11 12  2  0  0  0  0
 12 13  1  0  0  0  0
 12 31  1  0  0  0  0
 13 14  2  0  0  0  0
 13 32  1  0  0  0  0
 14 15  1  0  0  0  0
 15 16  2  0  0  0  0
 15 33  1  0  0  0  0
 16 17  1  0  0  0  0
M  END
> <s_m_source_file>
AV-unprocessed.smi

> <i_m_source_file_index>
3196

> <i_lp_mmshare_version>
43012

> <i_f3d_flags>
0

> <s_epik_input>
W0NIM11bQ0gyXVtDSDJdW0NAQEhdMVtDSDJdW0NASF0xW05IXUMoPU8pW05IXWMyW2NIXVtjSF1uW2NIXWMyRg==

> <s_epik_cmdline>
J2VwaWtfcHl0aG9uJywgJy1waCcsICc3LjAnLCAnLXRuJywgJzgnLCAnLW1hJywgJzIwMCcsICctbWV0YWxfYmluZGluZycsICctaW1hZScsICc8aW5maWxlLm1hZT4nLCAnLW9tYWUnLCAnPG91dGZpbGUubWFlPic=

> <r_epik_Ionization_Penalty>
0.00341997

> <r_epik_Ionization_Penalty_Charging>
0

> <r_epik_Ionization_Penalty_Neutral>
0.00341997

> <r_epik_State_Penalty>
0.00239198

> <r_epik_Charging_Adjusted_Penalty>
0.00239198

> <i_epik_Tot_Q>
0

> <i_epik_Tot_abs_Q>
0

> <r_epik_Metal_State_Penalty>
-0

> <b_epik_Metal_Only>
0

> <s_lp_Force_Field>
OPLS_2005

> <r_lp_Energy>
34.2637

> <b_lp_Chiralities_Consistent>
1

> <s_lp_Variant>
AV-unprocessed.smi:3196-4

> <Gold.Version>
5.8.1

> <Gold.Id.Protein>
6NUR|6NUR_protein|mol2

> <Gold.PLP.Fitness>
52.1969

> <Gold.PLP.PLP>
-41.2255

> <Gold.PLP.part.hbond>
-2.0000

> <Gold.PLP.part.metal>
0.0000

> <Gold.PLP.part.buried>
-3.3182

> <Gold.PLP.part.nonpolar>
-36.4995

> <Gold.PLP.part.repulsive>
0.9415

> <Gold.PLP.ligand.clash>
0.0000

> <Gold.PLP.ligand.torsion>
0.7226

> <Gold.PLP.Chemscore.Hbond>
1.9600

> <Gold.PLP.Chemscore.CHOScore>
1.9889

> <Gold.PLP.Chemscore.Metal>
0.0000

> <Gold.Chemscore.Hbonds>
donor molecule, donor type, donor heavy atom, donor atom, acceptor molecule, acceptor atom, score
      L1  H     7    29       P1  8028  0.96
      L1  H    10    30       P1  8028  1.00
      L1  C    13    32       P1  7948  0.96
      L1  C    15    33       P1 10175  1.00

> <Gold.PLP.Chemscore.Internal.Correction>
0.5698

> <Gold.Rescore>
     Score         DG    S(hbond)    S(metal)    S(lipo)     H(rot)  DE(clash)    DE(int)     intcor
     18.32     -20.40       1.83        0.00     105.54       1.39       0.27       1.82       ----

> <Gold.Chemscore.Fitness>
18.3194

> <Gold.Chemscore.DG>
-20.4025

> <Gold.Chemscore.ZeroCoef>
-5.4800

> <Gold.Chemscore.Hbond>
1.8324

> <Gold.Chemscore.Metal>
0.0000

> <Gold.Chemscore.Lipo>
105.5404

> <Gold.Chemscore.Internal_Hbond>
0.0000

> <Gold.Chemscore.DEClash>
0.2673

> <Gold.Chemscore.DEInternal>
1.8158

> <Gold.Chemscore.Rot>
1.3852

> <Gold.Chemscore.Internal.Correction>
   9.000000E+99

> <Gold.Chemscore.Hbonds>
donor molecule, donor type, donor heavy atom, donor atom, acceptor molecule, acceptor atom, score
      L1  H     7    29       P1  8028  0.92
      L1  H    10    30       P1  8028  0.95

> <Gold.Chemscore.Hbond.Weighted>
-6.1203

> <Gold.Chemscore.Metal.Weighted>
-0.0000

> <Gold.Chemscore.Lipo.Weighted>
-12.3482

> <Gold.Chemscore.Internal_Hbond.Weighted>
0.0000

> <Gold.Chemscore.DEClash.Weighted>
0.2673

> <Gold.Chemscore.DEInternal.Weighted>
1.8158

> <Gold.Chemscore.Rot.Weighted>
3.5460

> <Gold.Chemscore.Internal.Correction.Weighted>
   9.000000E+99

> <Gold.Protein.RotatedTorsions>
[ 6907 6896 6895 6894 ] final  153.62 input  -60.11 | X-H torsion
[ 7974 7965 7964 7962 ] final -108.02 input  175.53 | X-H torsion
[ 8008 7997 7996 7995 ] final  134.32 input   59.86 | X-H torsion
[ 10167 10162 10161 10158 ] final -156.44 input  -65.29 | X-H torsion
[ 10718 10713 10712 10709 ] final  107.16 input   66.30 | X-H torsion
[ 10763 10752 10751 10750 ] final  -53.54 input  -60.55 | X-H torsion
[ 11005 11000 10999 10996 ] final   60.08 input  -57.11 | X-H torsion

> <Gold.Protein.ActiveResidues>
 VAL166  LYS551  ARG553  GLY616  TRP617  ASP618  TYR619  PRO620  LYS621  CYS622 
 ASP623  PHE694  ASN695  SER759  ASP760  ASP761  ALA762  ILE779  LEU786  VAL792 
 PHE793  MET794  SER795  GLU796  ALA797  LYS798  CYS799  TRP800  GLU811  SER814 

> <Gold.Protein.RotatedAtoms>
  152.0701  133.4102  159.4455 H   0  0  0  0  0  0  0  0  0  0  0  0  # atno 6907 bound_to 6896
  150.6864  134.3101  159.4752 H   0  0  0  0  0  0  0  0  0  0  0  0  # atno 6908 bound_to 6896
  152.0932  134.9392  160.0622 H   0  0  0  0  0  0  0  0  0  0  0  0  # atno 6909 bound_to 6896
  145.1981  140.9044  143.3385 H   0  0  0  0  0  0  0  0  0  0  0  0  # atno 7974 bound_to 7965
  156.2998  140.2499  156.3398 H   0  0  0  0  0  0  0  0  0  0  0  0  # atno 8008 bound_to 7997
  154.9066  140.0404  157.1942 H   0  0  0  0  0  0  0  0  0  0  0  0  # atno 8009 bound_to 7997
  154.8447  140.2896  155.5641 H   0  0  0  0  0  0  0  0  0  0  0  0  # atno 8010 bound_to 7997
  139.6850  143.9517  152.2356 H   0  0  0  0  0  0  0  0  0  0  0  0  # atno 10167 bound_to 10162
  157.6639  131.0867  150.6115 H   0  0  0  0  0  0  0  0  0  0  0  0  # atno 10718 bound_to 10713
  154.1605  135.6475  153.4985 H   0  0  0  0  0  0  0  0  0  0  0  0  # atno 10763 bound_to 10752
  153.0112  135.5359  154.6716 H   0  0  0  0  0  0  0  0  0  0  0  0  # atno 10764 bound_to 10752
  154.6028  135.2945  155.0489 H   0  0  0  0  0  0  0  0  0  0  0  0  # atno 10765 bound_to 10752
  140.0257  134.6086  155.9576 H   0  0  0  0  0  0  0  0  0  0  0  0  # atno 11005 bound_to 11000
  144.9974  139.3630  143.6184 LP  0  0  0  0  0  0  0  0  0  0  0  0  # atno 17320 bound_to 7965
  146.3423  139.9183  142.8770 LP  0  0  0  0  0  0  0  0  0  0  0  0  # atno 17321 bound_to 7965
  139.9317  144.6737  150.8356 LP  0  0  0  0  0  0  0  0  0  0  0  0  # atno 17342 bound_to 10162
  140.7664  143.3304  151.2423 LP  0  0  0  0  0  0  0  0  0  0  0  0  # atno 17343 bound_to 10162
  156.6417  130.4460  149.5750 LP  0  0  0  0  0  0  0  0  0  0  0  0  # atno 17370 bound_to 10713
  156.2204  130.6734  151.1362 LP  0  0  0  0  0  0  0  0  0  0  0  0  # atno 17371 bound_to 10713
  141.1801  133.6545  156.4986 LP  0  0  0  0  0  0  0  0  0  0  0  0  # atno 17394 bound_to 11000
  140.4311  134.7101  157.4942 LP  0  0  0  0  0  0  0  0  0  0  0  0  # atno 17395 bound_to 11000

$$$$
