AV-unprocessed.smi:1246|AV-procd|sdf|5241|dock3
  -GOLD-   22720 4353D 1   1.00000     0.00000
 Structure written by MMmdl.
 35 36  0  0  0  0  0  0  0  0  1 V2000
  150.1108  142.4107  155.6350 C   0  0  0  0  0  0  0  0  0  0  0  0
  149.9115  141.0875  154.9567 C   0  0  0  0  0  0  0  0  0  0  0  0
  148.7387  140.6007  154.3093 C   0  0  0  0  0  0  0  0  0  0  0  0
  149.1248  139.3597  153.8813 C   0  0  0  0  0  0  0  0  0  0  0  0
  148.4063  138.4273  153.2011 N   0  0  0  0  0  0  0  0  0  0  0  0
  147.0817  138.3868  152.9747 C   0  0  0  0  0  0  0  0  0  0  0  0
  146.2649  139.2258  153.3554 O   0  0  0  0  0  0  0  0  0  0  0  0
  146.7472  137.3012  152.2635 N   0  0  0  0  0  0  0  0  0  0  0  0
  145.3957  136.9677  151.8292 C   0  0  0  0  0  0  0  0  0  0  0  0
  145.3820  135.7172  150.9347 C   0  0  2  0  0  0  0  0  0  0  0  0
  143.9932  135.1168  150.7376 C   0  0  0  0  0  0  0  0  0  0  0  0
  144.3338  133.7033  150.3215 C   0  0  0  0  0  0  0  0  0  0  0  0
  145.5731  133.4008  151.1635 C   0  0  0  0  0  0  0  0  0  0  0  0
  146.1288  134.6619  151.5310 O   0  0  0  0  0  0  0  0  0  0  0  0
  150.4322  139.1460  154.2571 N   0  0  0  0  0  0  0  0  0  0  0  0
  151.2759  137.9879  154.0359 C   0  0  0  0  0  0  0  0  0  0  0  0
  150.9149  140.2177  154.9223 N   0  0  0  0  0  0  0  0  0  0  0  0
  149.2046  143.0153  155.5935 H   0  0  0  0  0  0  0  0  0  0  0  0
  150.9106  142.9787  155.1594 H   0  0  0  0  0  0  0  0  0  0  0  0
  150.3731  142.2785  156.6848 H   0  0  0  0  0  0  0  0  0  0  0  0
  147.7860  141.0945  154.1921 H   0  0  0  0  0  0  0  0  0  0  0  0
  148.9464  137.6687  152.8117 H   0  0  0  0  0  0  0  0  0  0  0  0
  147.4812  136.6658  151.9874 H   0  0  0  0  0  0  0  0  0  0  0  0
  144.7809  136.8026  152.7142 H   0  0  0  0  0  0  0  0  0  0  0  0
  144.9566  137.8155  151.3007 H   0  0  0  0  0  0  0  0  0  0  0  0
  145.8166  135.9370  149.9577 H   0  0  0  0  0  0  0  0  0  0  0  0
  143.4404  135.1071  151.6782 H   0  0  0  0  0  0  0  0  0  0  0  0
  143.3998  135.6503  149.9947 H   0  0  0  0  0  0  0  0  0  0  0  0
  143.5201  132.9980  150.4918 H   0  0  0  0  0  0  0  0  0  0  0  0
  144.5878  133.6808  149.2608 H   0  0  0  0  0  0  0  0  0  0  0  0
  145.3038  132.8617  152.0724 H   0  0  0  0  0  0  0  0  0  0  0  0
  146.2975  132.7983  150.6149 H   0  0  0  0  0  0  0  0  0  0  0  0
  151.2970  137.7466  152.9732 H   0  0  0  0  0  0  0  0  0  0  0  0
  150.8779  137.1361  154.5875 H   0  0  0  0  0  0  0  0  0  0  0  0
  152.2946  138.1839  154.3733 H   0  0  0  0  0  0  0  0  0  0  0  0
  1  2  1  0  0  0  0
  1 18  1  0  0  0  0
  1 19  1  0  0  0  0
  1 20  1  0  0  0  0
  2 17  2  0  0  0  0
  2  3  1  0  0  0  0
  3  4  2  0  0  0  0
  3 21  1  0  0  0  0
  4  5  1  0  0  0  0
  4 15  1  0  0  0  0
  5  6  1  0  0  0  0
  5 22  1  0  0  0  0
  6  7  2  0  0  0  0
  6  8  1  0  0  0  0
  8  9  1  0  0  0  0
  8 23  1  0  0  0  0
  9 10  1  0  0  0  0
  9 24  1  0  0  0  0
  9 25  1  0  0  0  0
 10 14  1  0  0  0  0
 10 11  1  0  0  0  0
 10 26  1  0  0  0  0
 11 12  1  0  0  0  0
 11 27  1  0  0  0  0
 11 28  1  0  0  0  0
 12 13  1  0  0  0  0
 12 29  1  0  0  0  0
 12 30  1  0  0  0  0
 13 14  1  0  0  0  0
 13 31  1  0  0  0  0
 13 32  1  0  0  0  0
 15 16  1  0  0  0  0
 15 17  1  0  0  0  0
 16 33  1  0  0  0  0
 16 34  1  0  0  0  0
 16 35  1  0  0  0  0
M  END
> <s_m_source_file>
AV-unprocessed.smi

> <i_m_source_file_index>
1246

> <i_lp_mmshare_version>
43012

> <i_f3d_flags>
0

> <s_epik_input>
W0NIM11jMVtjSF1jKG4objEpW0NIM10pW05IXUMoPU8pW05IXVtDSDJdW0NAQEhdMltDSDJdW0NIMl1bQ0gyXU8y

> <s_epik_cmdline>
J2VwaWtfcHl0aG9uJywgJy1waCcsICc3LjAnLCAnLXRuJywgJzgnLCAnLW1hJywgJzIwMCcsICctbWV0YWxfYmluZGluZycsICctaW1hZScsICc8aW5maWxlLm1hZT4nLCAnLW9tYWUnLCAnPG91dGZpbGUubWFlPic=

> <r_lp_tautomer_probability>
1

> <r_epik_Ionization_Penalty>
9.6187e-05

> <r_epik_Ionization_Penalty_Charging>
0

> <r_epik_Ionization_Penalty_Neutral>
9.6187e-05

> <r_epik_State_Penalty>
-0

> <r_epik_Charging_Adjusted_Penalty>
0

> <i_epik_Tot_Q>
0

> <i_epik_Tot_abs_Q>
0

> <r_epik_Metal_State_Penalty>
-0

> <b_epik_Metal_Only>
0

> <s_lp_Force_Field>
OPLS_2005

> <r_lp_Energy>
17.9178

> <b_lp_Chiralities_Consistent>
1

> <s_lp_Variant>
AV-unprocessed.smi:1246-1

> <Gold.Version>
5.8.1

> <Gold.Id.Protein>
6NUR|6NUR_protein|mol2

> <Gold.PLP.Fitness>
35.6499

> <Gold.PLP.PLP>
-28.8754

> <Gold.PLP.part.hbond>
-3.7863

> <Gold.PLP.part.metal>
0.0000

> <Gold.PLP.part.buried>
0.6153

> <Gold.PLP.part.nonpolar>
-27.5998

> <Gold.PLP.part.repulsive>
0.5332

> <Gold.PLP.ligand.clash>
0.0000

> <Gold.PLP.ligand.torsion>
0.1310

> <Gold.PLP.Chemscore.Hbond>
2.3438

> <Gold.PLP.Chemscore.CHOScore>
0.0000

> <Gold.PLP.Chemscore.Metal>
0.0000

> <Gold.Chemscore.Hbonds>
donor molecule, donor type, donor heavy atom, donor atom, acceptor molecule, acceptor atom, score
      L1  H     5    22       P1  7948  0.98
      L1  H     8    23       P1  7948  0.98
      P1  H  7989  7998       L1    17  0.49

> <Gold.PLP.Chemscore.Internal.Correction>
0.0053

> <Gold.Rescore>
     Score         DG    S(hbond)    S(metal)    S(lipo)     H(rot)  DE(clash)    DE(int)     intcor
     14.42     -15.71       1.93        0.00      59.50       1.25       0.10       1.19       ----

> <Gold.Chemscore.Fitness>
14.4199

> <Gold.Chemscore.DG>
-15.7092

> <Gold.Chemscore.ZeroCoef>
-5.4800

> <Gold.Chemscore.Hbond>
1.9346

> <Gold.Chemscore.Metal>
0.0000

> <Gold.Chemscore.Lipo>
59.5047

> <Gold.Chemscore.Internal_Hbond>
0.0000

> <Gold.Chemscore.DEClash>
0.1026

> <Gold.Chemscore.DEInternal>
1.1867

> <Gold.Chemscore.Rot>
1.2478

> <Gold.Chemscore.Internal.Correction>
   9.000000E+99

> <Gold.Chemscore.Hbonds>
donor molecule, donor type, donor heavy atom, donor atom, acceptor molecule, acceptor atom, score
      L1  H     5    22       P1  7948  0.92
      L1  H     8    23       P1  7948  0.89
      P1  H  7989  7998       L1    17  0.01

> <Gold.Chemscore.Hbond.Weighted>
-6.4615

> <Gold.Chemscore.Metal.Weighted>
-0.0000

> <Gold.Chemscore.Lipo.Weighted>
-6.9620

> <Gold.Chemscore.Internal_Hbond.Weighted>
0.0000

> <Gold.Chemscore.DEClash.Weighted>
0.1026

> <Gold.Chemscore.DEInternal.Weighted>
1.1867

> <Gold.Chemscore.Rot.Weighted>
3.1944

> <Gold.Chemscore.Internal.Correction.Weighted>
   9.000000E+99

> <Gold.Protein.RotatedTorsions>
[ 6907 6896 6895 6894 ] final  148.39 input  -60.11 | X-H torsion
[ 7974 7965 7964 7962 ] final  108.24 input  175.53 | X-H torsion
[ 8008 7997 7996 7995 ] final   77.55 input   59.86 | X-H torsion
[ 10167 10162 10161 10158 ] final   96.97 input  -65.29 | X-H torsion
[ 10718 10713 10712 10709 ] final -173.80 input   66.30 | X-H torsion
[ 10763 10752 10751 10750 ] final  134.91 input  -60.55 | X-H torsion
[ 11005 11000 10999 10996 ] final  161.87 input  -57.11 | X-H torsion

> <Gold.Protein.ActiveResidues>
 VAL166  LYS551  ARG553  GLY616  TRP617  ASP618  TYR619  PRO620  LYS621  CYS622 
 ASP623  PHE694  ASN695  SER759  ASP760  ASP761  ALA762  ILE779  LEU786  VAL792 
 PHE793  MET794  SER795  GLU796  ALA797  LYS798  CYS799  TRP800  GLU811  SER814 

> <Gold.Protein.RotatedAtoms>
  152.1422  133.4470  159.4771 H   0  0  0  0  0  0  0  0  0  0  0  0  # atno 6907 bound_to 6896
  150.6887  134.2292  159.4436 H   0  0  0  0  0  0  0  0  0  0  0  0  # atno 6908 bound_to 6896
  152.0183  134.9837  160.0620 H   0  0  0  0  0  0  0  0  0  0  0  0  # atno 6909 bound_to 6896
  145.2832  139.2625  143.3904 H   0  0  0  0  0  0  0  0  0  0  0  0  # atno 7974 bound_to 7965
  155.8431  140.3461  155.5645 H   0  0  0  0  0  0  0  0  0  0  0  0  # atno 8008 bound_to 7997
  155.8119  140.0900  157.1919 H   0  0  0  0  0  0  0  0  0  0  0  0  # atno 8009 bound_to 7997
  154.4005  140.1446  156.3384 H   0  0  0  0  0  0  0  0  0  0  0  0  # atno 8010 bound_to 7997
  139.7845  144.6876  150.9977 H   0  0  0  0  0  0  0  0  0  0  0  0  # atno 10167 bound_to 10162
  156.7757  130.9465  151.3120 H   0  0  0  0  0  0  0  0  0  0  0  0  # atno 10718 bound_to 10713
  153.8313  135.3103  155.3419 H   0  0  0  0  0  0  0  0  0  0  0  0  # atno 10763 bound_to 10752
  154.7972  135.4748  154.0192 H   0  0  0  0  0  0  0  0  0  0  0  0  # atno 10764 bound_to 10752
  153.1633  135.6865  153.8803 H   0  0  0  0  0  0  0  0  0  0  0  0  # atno 10765 bound_to 10752
  140.2201  134.8202  157.3211 H   0  0  0  0  0  0  0  0  0  0  0  0  # atno 11005 bound_to 11000
  146.3209  140.3305  142.8640 LP  0  0  0  0  0  0  0  0  0  0  0  0  # atno 17320 bound_to 7965
  144.9235  140.7895  143.5733 LP  0  0  0  0  0  0  0  0  0  0  0  0  # atno 17321 bound_to 7965
  140.7819  143.4447  151.0500 LP  0  0  0  0  0  0  0  0  0  0  0  0  # atno 17342 bound_to 10162
  139.8126  143.7929  152.3172 LP  0  0  0  0  0  0  0  0  0  0  0  0  # atno 17343 bound_to 10162
  157.6670  130.9017  149.9954 LP  0  0  0  0  0  0  0  0  0  0  0  0  # atno 17370 bound_to 10713
  156.1250  130.3645  149.9825 LP  0  0  0  0  0  0  0  0  0  0  0  0  # atno 17371 bound_to 10713
  140.1859  134.4432  155.7744 LP  0  0  0  0  0  0  0  0  0  0  0  0  # atno 17394 bound_to 11000
  141.2223  133.7004  156.7946 LP  0  0  0  0  0  0  0  0  0  0  0  0  # atno 17395 bound_to 11000

$$$$
