AV-unprocessed.smi:3|AV-procd|sdf|27|dock1
  -GOLD-   2262015143D 1   1.00000     0.00000
 Structure written by MMmdl.
 33 35  0  0  0  0  0  0  0  0  1 V2000
  150.3857  141.5175  157.0413 C   0  0  0  0  0  0  0  0  0  0  0  0
  151.5592  140.7795  157.4858 N   0  0  0  0  0  0  0  0  0  0  0  0
  152.0911  141.0826  158.8165 C   0  0  0  0  0  0  0  0  0  0  0  0
  152.5203  142.5432  158.9529 C   0  0  1  0  0  0  0  0  0  0  0  0
  151.4846  143.6703  158.8225 C   0  0  0  0  0  0  0  0  0  0  0  0
  152.2519  144.4507  159.8943 C   0  0  1  0  0  0  0  0  0  0  0  0
  151.4907  145.1748  160.8349 O   0  0  0  0  0  0  0  0  0  0  0  0
  152.8289  143.1053  160.3477 C   0  0  0  0  0  0  0  0  0  0  0  0
  151.9721  139.6197  156.7832 C   0  0  0  0  0  0  0  0  0  0  0  0
  153.0392  138.9351  157.2730 N   0  0  0  0  0  0  0  0  0  0  0  0
  153.4794  137.8330  156.6629 C   0  0  0  0  0  0  0  0  0  0  0  0
  153.0096  137.2484  155.5613 N   0  0  0  0  0  0  0  0  0  0  0  0
  151.9448  137.9309  155.0568 C   0  0  0  0  0  0  0  0  0  0  0  0
  151.2249  137.6068  153.9266 N   0  0  0  0  0  0  0  0  0  0  0  0
  150.2173  138.5289  153.7193 C   0  0  0  0  0  0  0  0  0  0  0  0
  150.2647  139.4711  154.7142 C   0  0  0  0  0  0  0  0  0  0  0  0
  151.3581  139.1181  155.5911 C   0  0  0  0  0  0  0  0  0  0  0  0
  153.3707  142.7655  158.3047 H   0  0  0  0  0  0  0  0  0  0  0  0
  153.0186  145.0940  159.4591 H   0  0  0  0  0  0  0  0  0  0  0  0
  151.3910  136.8168  153.3200 H   0  0  0  0  0  0  0  0  0  0  0  0
  150.5825  142.0084  156.0884 H   0  0  0  0  0  0  0  0  0  0  0  0
  150.1166  142.2930  157.7588 H   0  0  0  0  0  0  0  0  0  0  0  0
  149.5265  140.8547  156.9378 H   0  0  0  0  0  0  0  0  0  0  0  0
  151.3865  140.8088  159.6018 H   0  0  0  0  0  0  0  0  0  0  0  0
  152.9528  140.4353  158.9824 H   0  0  0  0  0  0  0  0  0  0  0  0
  151.4584  144.1443  157.8409 H   0  0  0  0  0  0  0  0  0  0  0  0
  150.4862  143.3758  159.1504 H   0  0  0  0  0  0  0  0  0  0  0  0
  152.0957  145.7060  161.3298 H   0  0  0  0  0  0  0  0  0  0  0  0
  152.2403  142.6343  161.1372 H   0  0  0  0  0  0  0  0  0  0  0  0
  153.8896  143.1267  160.6000 H   0  0  0  0  0  0  0  0  0  0  0  0
  154.3295  137.3516  157.1233 H   0  0  0  0  0  0  0  0  0  0  0  0
  149.5460  138.4404  152.8775 H   0  0  0  0  0  0  0  0  0  0  0  0
  149.6007  140.3156  154.8119 H   0  0  0  0  0  0  0  0  0  0  0  0
  1  2  1  0  0  0  0
  1 21  1  0  0  0  0
  1 22  1  0  0  0  0
  1 23  1  0  0  0  0
  2  3  1  0  0  0  0
  2  9  1  0  0  0  0
  3  4  1  0  0  0  0
  3 24  1  0  0  0  0
  3 25  1  0  0  0  0
  4 18  1  0  0  0  0
  4  8  1  0  0  0  0
  4  5  1  0  0  0  0
  5  6  1  0  0  0  0
  5 26  1  0  0  0  0
  5 27  1  0  0  0  0
  6 19  1  0  0  0  0
  6  7  1  0  0  0  0
  6  8  1  0  0  0  0
  7 28  1  0  0  0  0
  8 29  1  0  0  0  0
  8 30  1  0  0  0  0
  9 17  1  0  0  0  0
  9 10  2  0  0  0  0
 10 11  1  0  0  0  0
 11 12  2  0  0  0  0
 11 31  1  0  0  0  0
 12 13  1  0  0  0  0
 13 17  2  0  0  0  0
 13 14  1  0  0  0  0
 14 20  1  0  0  0  0
 14 15  1  0  0  0  0
 15 16  2  0  0  0  0
 15 32  1  0  0  0  0
 16 17  1  0  0  0  0
 16 33  1  0  0  0  0
M  END
> <s_m_source_file>
AV-unprocessed.smi

> <i_m_source_file_index>
3

> <i_lp_mmshare_version>
43012

> <i_f3d_flags>
0

> <s_epik_input>
W25IXTFbY0hdW2NIXWMoYzEyKWMobltjSF1uMilOKFtDSDNdKVtDSDJdW0NASF0zW0NIMl1bQ0BASF0oW09IXSlbQ0gyXTM=

> <s_epik_cmdline>
J2VwaWtfcHl0aG9uJywgJy1waCcsICc3LjAnLCAnLXRuJywgJzgnLCAnLW1hJywgJzIwMCcsICctbWV0YWxfYmluZGluZycsICctaW1hZScsICc8aW5maWxlLm1hZT4nLCAnLW9tYWUnLCAnPG91dGZpbGUubWFlPic=

> <r_lp_tautomer_probability>
0.999998

> <r_epik_Ionization_Penalty>
0.0134605

> <r_epik_Ionization_Penalty_Charging>
0

> <r_epik_Ionization_Penalty_Neutral>
0.0134605

> <r_epik_State_Penalty>
0.00982199

> <r_epik_Charging_Adjusted_Penalty>
0.00982199

> <i_epik_Tot_Q>
0

> <i_epik_Tot_abs_Q>
0

> <r_epik_Metal_State_Penalty>
0.00963912

> <b_epik_Metal_Only>
0

> <s_lp_Force_Field>
OPLS_2005

> <r_lp_Energy>
10.8509

> <b_lp_Chiralities_Consistent>
1

> <s_lp_Variant>
AV-unprocessed.smi:3-1

> <Gold.Version>
5.8.1

> <Gold.Id.Protein>
6NUR|6NUR_protein|mol2

> <Gold.PLP.Fitness>
47.6333

> <Gold.PLP.PLP>
-35.7015

> <Gold.PLP.part.hbond>
-4.0641

> <Gold.PLP.part.metal>
0.0000

> <Gold.PLP.part.buried>
-3.4955

> <Gold.PLP.part.nonpolar>
-30.0639

> <Gold.PLP.part.repulsive>
0.1326

> <Gold.PLP.ligand.clash>
0.0000

> <Gold.PLP.ligand.torsion>
0.1520

> <Gold.PLP.Chemscore.Hbond>
2.3657

> <Gold.PLP.Chemscore.CHOScore>
1.6444

> <Gold.PLP.Chemscore.Metal>
0.0000

> <Gold.Chemscore.Hbonds>
donor molecule, donor type, donor heavy atom, donor atom, acceptor molecule, acceptor atom, score
      L1  H    14    20       P1  7949  0.96
      P1  H  7997  8010       L1    10  0.90
      P1  H 10752 10763       L1    12  0.43
      L1  C    15    32       P1  7948  0.85
      L1  C    15    32       P1  7957  0.81

> <Gold.PLP.Chemscore.Internal.Correction>
0.2055

> <Gold.Rescore>
     Score         DG    S(hbond)    S(metal)    S(lipo)     H(rot)  DE(clash)    DE(int)     intcor
     12.78     -14.40       1.27        0.00      80.27       1.84       1.42       0.19       ----

> <Gold.Chemscore.Fitness>
12.7841

> <Gold.Chemscore.DG>
-14.3952

> <Gold.Chemscore.ZeroCoef>
-5.4800

> <Gold.Chemscore.Hbond>
1.2676

> <Gold.Chemscore.Metal>
0.0000

> <Gold.Chemscore.Lipo>
80.2652

> <Gold.Chemscore.Internal_Hbond>
0.0000

> <Gold.Chemscore.DEClash>
1.4204

> <Gold.Chemscore.DEInternal>
0.1907

> <Gold.Chemscore.Rot>
1.8396

> <Gold.Chemscore.Internal.Correction>
   9.000000E+99

> <Gold.Chemscore.Hbonds>
donor molecule, donor type, donor heavy atom, donor atom, acceptor molecule, acceptor atom, score
      L1  H    14    20       P1  7949  0.68
      P1  H  7997  8010       L1    10  0.11
      P1  H 10752 10763       L1    12  0.39

> <Gold.Chemscore.Hbond.Weighted>
-4.2336

> <Gold.Chemscore.Metal.Weighted>
-0.0000

> <Gold.Chemscore.Lipo.Weighted>
-9.3910

> <Gold.Chemscore.Internal_Hbond.Weighted>
0.0000

> <Gold.Chemscore.DEClash.Weighted>
1.4204

> <Gold.Chemscore.DEInternal.Weighted>
0.1907

> <Gold.Chemscore.Rot.Weighted>
4.7095

> <Gold.Chemscore.Internal.Correction.Weighted>
   9.000000E+99

> <Gold.Protein.RotatedTorsions>
[ 6907 6896 6895 6894 ] final  -86.94 input  -60.11 | X-H torsion
[ 7974 7965 7964 7962 ] final   44.69 input  175.53 | X-H torsion
[ 8008 7997 7996 7995 ] final   35.65 input   59.86 | X-H torsion
[ 10167 10162 10161 10158 ] final   43.92 input  -65.29 | X-H torsion
[ 10718 10713 10712 10709 ] final -158.31 input   66.30 | X-H torsion
[ 10763 10752 10751 10750 ] final   85.41 input  -60.55 | X-H torsion
[ 11005 11000 10999 10996 ] final   26.93 input  -57.11 | X-H torsion

> <Gold.Protein.ActiveResidues>
 VAL166  LYS551  ARG553  GLY616  TRP617  ASP618  TYR619  PRO620  LYS621  CYS622 
 ASP623  PHE694  ASN695  SER759  ASP760  ASP761  ALA762  ILE779  LEU786  VAL792 
 PHE793  MET794  SER795  GLU796  ALA797  LYS798  CYS799  TRP800  GLU811  SER814 

> <Gold.Protein.RotatedAtoms>
  150.6866  134.2973  159.4691 H   0  0  0  0  0  0  0  0  0  0  0  0  # atno 6907 bound_to 6896
  152.0872  134.9429  160.0582 H   0  0  0  0  0  0  0  0  0  0  0  0  # atno 6908 bound_to 6896
  152.0758  133.4094  159.4516 H   0  0  0  0  0  0  0  0  0  0  0  0  # atno 6909 bound_to 6896
  146.0546  139.5046  142.9697 H   0  0  0  0  0  0  0  0  0  0  0  0  # atno 7974 bound_to 7965
  155.1746  140.3294  155.4386 H   0  0  0  0  0  0  0  0  0  0  0  0  # atno 8008 bound_to 7997
  156.2498  140.1937  156.6798 H   0  0  0  0  0  0  0  0  0  0  0  0  # atno 8009 bound_to 7997
  154.6313  140.0582  156.9722 H   0  0  0  0  0  0  0  0  0  0  0  0  # atno 8010 bound_to 7997
  140.3395  144.2488  150.6157 H   0  0  0  0  0  0  0  0  0  0  0  0  # atno 10167 bound_to 10162
  156.5524  130.8611  151.2784 H   0  0  0  0  0  0  0  0  0  0  0  0  # atno 10718 bound_to 10713
  153.1472  135.4618  154.9584 H   0  0  0  0  0  0  0  0  0  0  0  0  # atno 10763 bound_to 10752
  154.7796  135.3184  154.8021 H   0  0  0  0  0  0  0  0  0  0  0  0  # atno 10764 bound_to 10752
  153.8533  135.6919  153.4844 H   0  0  0  0  0  0  0  0  0  0  0  0  # atno 10765 bound_to 10752
  140.3317  134.2430  155.7701 H   0  0  0  0  0  0  0  0  0  0  0  0  # atno 11005 bound_to 11000
  145.6665  141.0227  143.1680 LP  0  0  0  0  0  0  0  0  0  0  0  0  # atno 17320 bound_to 7965
  144.7141  139.8261  143.7405 LP  0  0  0  0  0  0  0  0  0  0  0  0  # atno 17321 bound_to 7965
  140.5322  143.2241  151.8220 LP  0  0  0  0  0  0  0  0  0  0  0  0  # atno 17342 bound_to 10162
  139.4843  144.4705  151.9430 LP  0  0  0  0  0  0  0  0  0  0  0  0  # atno 17343 bound_to 10162
  157.7385  130.9814  150.2255 LP  0  0  0  0  0  0  0  0  0  0  0  0  # atno 17370 bound_to 10713
  156.2873  130.3741  149.7876 LP  0  0  0  0  0  0  0  0  0  0  0  0  # atno 17371 bound_to 10713
  141.2061  133.7841  157.0193 LP  0  0  0  0  0  0  0  0  0  0  0  0  # atno 17394 bound_to 11000
  140.0855  134.9623  157.1692 LP  0  0  0  0  0  0  0  0  0  0  0  0  # atno 17395 bound_to 11000

$$$$
