AV-unprocessed.smi:3345|AV-procd|sdf|12903|dock1
  -GOLD-   2272019313D 1   1.00000     0.00000
 Structure written by MMmdl.
 41 42  0  0  0  0  0  0  0  0  2 V2000
  150.8523  133.8506  156.0292 C   0  0  0  0  0  0  0  0  0  0  0  0
  149.8527  134.5228  155.0789 C   0  0  2  0  0  0  0  0  0  0  0  0
  149.3744  133.5536  153.9738 C   0  0  0  0  0  0  0  0  0  0  0  0
  148.1455  134.0166  153.2779 N   0  3  0  0  0  0  0  0  0  0  0  0
  147.6302  133.0304  152.2993 C   0  0  0  0  0  0  0  0  0  0  0  0
  146.4041  133.5963  151.5623 C   0  0  0  0  0  0  0  0  0  0  0  0
  145.4075  133.9774  152.5030 O   0  0  0  0  0  0  0  0  0  0  0  0
  145.8711  134.9840  153.3949 C   0  0  0  0  0  0  0  0  0  0  0  0
  147.0645  134.4432  154.1987 C   0  0  0  0  0  0  0  0  0  0  0  0
  150.4664  135.7117  154.4881 N   0  0  0  0  0  0  0  0  0  0  0  0
  150.7522  136.8547  155.1334 C   0  0  0  0  0  0  0  0  0  0  0  0
  150.6056  137.0012  156.3469 O   0  0  0  0  0  0  0  0  0  0  0  0
  151.2294  138.0210  154.2565 C   0  0  2  0  0  0  0  0  0  0  0  0
  152.6264  138.5368  154.6563 C   0  0  0  0  0  0  0  0  0  0  0  0
  150.2267  139.0795  154.2674 N   0  0  0  0  0  0  0  0  0  0  0  0
  148.9297  139.0355  153.9553 C   0  0  0  0  0  0  0  0  0  0  0  0
  148.2920  140.1827  154.1405 N   0  0  0  0  0  0  0  0  0  0  0  0
  149.3266  140.9484  154.5974 C   0  0  0  0  0  0  0  0  0  0  0  0
  150.5009  140.3301  154.7165 N   0  0  0  0  0  0  0  0  0  0  0  0
  150.4133  132.9701  156.4995 H   0  0  0  0  0  0  0  0  0  0  0  0
  151.1550  134.5314  156.8258 H   0  0  0  0  0  0  0  0  0  0  0  0
  151.7530  133.5326  155.5029 H   0  0  0  0  0  0  0  0  0  0  0  0
  148.9916  134.8115  155.6829 H   0  0  0  0  0  0  0  0  0  0  0  0
  150.1741  133.4631  153.2369 H   0  0  0  0  0  0  0  0  0  0  0  0
  149.2185  132.5523  154.3780 H   0  0  0  0  0  0  0  0  0  0  0  0
  148.4079  132.7832  151.5759 H   0  0  0  0  0  0  0  0  0  0  0  0
  147.3643  132.1069  152.8160 H   0  0  0  0  0  0  0  0  0  0  0  0
  146.6821  134.4513  150.9457 H   0  0  0  0  0  0  0  0  0  0  0  0
  145.9882  132.8439  150.8922 H   0  0  0  0  0  0  0  0  0  0  0  0
  146.1493  135.8819  152.8407 H   0  0  0  0  0  0  0  0  0  0  0  0
  145.0596  135.2621  154.0672 H   0  0  0  0  0  0  0  0  0  0  0  0
  146.7503  133.5988  154.8141 H   0  0  0  0  0  0  0  0  0  0  0  0
  147.4221  135.2158  154.8782 H   0  0  0  0  0  0  0  0  0  0  0  0
  150.6375  135.6816  153.4932 H   0  0  0  0  0  0  0  0  0  0  0  0
  151.3003  137.6534  153.2313 H   0  0  0  0  0  0  0  0  0  0  0  0
  153.3683  137.7388  154.6092 H   0  0  0  0  0  0  0  0  0  0  0  0
  152.6415  138.9418  155.6690 H   0  0  0  0  0  0  0  0  0  0  0  0
  152.9553  139.3273  153.9811 H   0  0  0  0  0  0  0  0  0  0  0  0
  148.4396  138.1433  153.5941 H   0  0  0  0  0  0  0  0  0  0  0  0
  149.2057  141.9861  154.8715 H   0  0  0  0  0  0  0  0  0  0  0  0
  148.4111  134.8314  152.7431 H   0  0  0  0  0  0  0  0  0  0  0  0
  1  2  1  0  0  0  0
  1 20  1  0  0  0  0
  1 21  1  0  0  0  0
  1 22  1  0  0  0  0
  2  3  1  0  0  0  0
  2 10  1  0  0  0  0
  2 23  1  0  0  0  0
  3  4  1  0  0  0  0
  3 24  1  0  0  0  0
  3 25  1  0  0  0  0
  4  9  1  0  0  0  0
  4  5  1  0  0  0  0
  4 41  1  0  0  0  0
  5  6  1  0  0  0  0
  5 26  1  0  0  0  0
  5 27  1  0  0  0  0
  6  7  1  0  0  0  0
  6 28  1  0  0  0  0
  6 29  1  0  0  0  0
  7  8  1  0  0  0  0
  8  9  1  0  0  0  0
  8 30  1  0  0  0  0
  8 31  1  0  0  0  0
  9 32  1  0  0  0  0
  9 33  1  0  0  0  0
 10 11  1  0  0  0  0
 10 34  1  0  0  0  0
 11 12  2  0  0  0  0
 11 13  1  0  0  0  0
 13 14  1  0  0  0  0
 13 15  1  0  0  0  0
 13 35  1  0  0  0  0
 14 36  1  0  0  0  0
 14 37  1  0  0  0  0
 14 38  1  0  0  0  0
 15 19  1  0  0  0  0
 15 16  1  0  0  0  0
 16 17  2  0  0  0  0
 16 39  1  0  0  0  0
 17 18  1  0  0  0  0
 18 19  2  0  0  0  0
 18 40  1  0  0  0  0
M  CHG  1   4   1
M  END
> <s_m_source_file>
AV-unprocessed.smi

> <i_m_source_file_index>
3345

> <i_lp_mmshare_version>
43012

> <i_f3d_flags>
0

> <s_epik_input>
W0NIMl0xW0NIMl1PW0NIMl1bQ0gyXU4xW0NIMl1bQ0BASF0oW0NIM10pW05IXUMoPU8pW0NASF0oW0NIM10pbjJbY0hdbltjSF1uMg==

> <s_epik_cmdline>
J2VwaWtfcHl0aG9uJywgJy1waCcsICc3LjAnLCAnLXRuJywgJzgnLCAnLW1hJywgJzIwMCcsICctbWV0YWxfYmluZGluZycsICctaW1hZScsICc8aW5maWxlLm1hZT4nLCAnLW9tYWUnLCAnPG91dGZpbGUubWFlPic=

> <r_lp_tautomer_probability>
1

> <r_epik_Ionization_Penalty>
0.71326

> <r_epik_Ionization_Penalty_Charging>
0.713252

> <r_epik_Ionization_Penalty_Neutral>
8.27671e-06

> <r_epik_State_Penalty>
0.737017

> <r_epik_Charging_Adjusted_Penalty>
1.45027

> <i_epik_Tot_Q>
1

> <i_epik_Tot_abs_Q>
1

> <r_epik_Metal_State_Penalty>
0.73702

> <b_epik_Metal_Only>
0

> <s_lp_Force_Field>
OPLS_2005

> <r_lp_Energy>
25.9312

> <b_lp_Chiralities_Consistent>
1

> <s_lp_Variant>
AV-unprocessed.smi:3345-5

> <Gold.Version>
5.8.1

> <Gold.Id.Protein>
6NUR|6NUR_protein|mol2

> <Gold.PLP.Fitness>
46.7439

> <Gold.PLP.PLP>
-33.5603

> <Gold.PLP.part.hbond>
-3.8700

> <Gold.PLP.part.metal>
0.0000

> <Gold.PLP.part.buried>
-1.7263

> <Gold.PLP.part.nonpolar>
-27.9031

> <Gold.PLP.part.repulsive>
0.3874

> <Gold.PLP.ligand.clash>
0.0000

> <Gold.PLP.ligand.torsion>
0.3513

> <Gold.PLP.Chemscore.Hbond>
3.4875

> <Gold.PLP.Chemscore.CHOScore>
1.0817

> <Gold.PLP.Chemscore.Metal>
0.0000

> <Gold.Chemscore.Hbonds>
donor molecule, donor type, donor heavy atom, donor atom, acceptor molecule, acceptor atom, score
      L1  H     4    41       P1  7948  2.00
      L1  H    10    34       P1  7949  0.31
      P1  H  7989  7998       L1    19  1.00
      L1  C    16    39       P1  7948  0.79
      L1  C    18    40       P1  8028  0.19

> <Gold.PLP.Chemscore.Internal.Correction>
0.1786

> <Gold.Rescore>
     Score         DG    S(hbond)    S(metal)    S(lipo)     H(rot)  DE(clash)    DE(int)     intcor
      9.80     -10.43       1.77        0.00      49.02       2.61       0.06       0.57       ----

> <Gold.Chemscore.Fitness>
9.7967

> <Gold.Chemscore.DG>
-10.4273

> <Gold.Chemscore.ZeroCoef>
-5.4800

> <Gold.Chemscore.Hbond>
1.7674

> <Gold.Chemscore.Metal>
0.0000

> <Gold.Chemscore.Lipo>
49.0221

> <Gold.Chemscore.Internal_Hbond>
0.0000

> <Gold.Chemscore.DEClash>
0.0597

> <Gold.Chemscore.DEInternal>
0.5709

> <Gold.Chemscore.Rot>
2.6138

> <Gold.Chemscore.Internal.Correction>
   9.000000E+99

> <Gold.Chemscore.Hbonds>
donor molecule, donor type, donor heavy atom, donor atom, acceptor molecule, acceptor atom, score
      L1  H     4    41       P1  7948  0.45
      L1  H    10    34       P1  7949  0.01
      P1  H  7989  7998       L1    19  0.23

> <Gold.Chemscore.Hbond.Weighted>
-5.9030

> <Gold.Chemscore.Metal.Weighted>
-0.0000

> <Gold.Chemscore.Lipo.Weighted>
-5.7356

> <Gold.Chemscore.Internal_Hbond.Weighted>
0.0000

> <Gold.Chemscore.DEClash.Weighted>
0.0597

> <Gold.Chemscore.DEInternal.Weighted>
0.5709

> <Gold.Chemscore.Rot.Weighted>
6.6912

> <Gold.Chemscore.Internal.Correction.Weighted>
   9.000000E+99

> <Gold.Protein.RotatedTorsions>
[ 6907 6896 6895 6894 ] final   21.53 input  -60.11 | X-H torsion
[ 7974 7965 7964 7962 ] final -130.86 input  175.53 | X-H torsion
[ 8008 7997 7996 7995 ] final   18.08 input   59.86 | X-H torsion
[ 10167 10162 10161 10158 ] final   -5.52 input  -65.29 | X-H torsion
[ 10718 10713 10712 10709 ] final   31.58 input   66.30 | X-H torsion
[ 10763 10752 10751 10750 ] final   81.85 input  -60.55 | X-H torsion
[ 11005 11000 10999 10996 ] final   27.68 input  -57.11 | X-H torsion

> <Gold.Protein.ActiveResidues>
 VAL166  LYS551  ARG553  GLY616  TRP617  ASP618  TYR619  PRO620  LYS621  CYS622 
 ASP623  PHE694  ASN695  SER759  ASP760  ASP761  ALA762  ILE779  LEU786  VAL792 
 PHE793  MET794  SER795  GLU796  ALA797  LYS798  CYS799  TRP800  GLU811  SER814 

> <Gold.Protein.RotatedAtoms>
  151.9133  135.0330  160.0515 H   0  0  0  0  0  0  0  0  0  0  0  0  # atno 6907 bound_to 6896
  152.2261  133.5017  159.5198 H   0  0  0  0  0  0  0  0  0  0  0  0  # atno 6908 bound_to 6896
  150.7013  134.1194  159.4072 H   0  0  0  0  0  0  0  0  0  0  0  0  # atno 6909 bound_to 6896
  144.9434  140.7264  143.4832 H   0  0  0  0  0  0  0  0  0  0  0  0  # atno 7974 bound_to 7965
  154.9008  140.3000  155.5319 H   0  0  0  0  0  0  0  0  0  0  0  0  # atno 8008 bound_to 7997
  156.3018  140.2407  156.3971 H   0  0  0  0  0  0  0  0  0  0  0  0  # atno 8009 bound_to 7997
  154.8523  140.0409  157.1601 H   0  0  0  0  0  0  0  0  0  0  0  0  # atno 8010 bound_to 7997
  140.6966  143.6298  150.8533 H   0  0  0  0  0  0  0  0  0  0  0  0  # atno 10167 bound_to 10162
  157.2743  130.7223  149.6521 H   0  0  0  0  0  0  0  0  0  0  0  0  # atno 10718 bound_to 10713
  153.1152  135.4750  154.9103 H   0  0  0  0  0  0  0  0  0  0  0  0  # atno 10763 bound_to 10752
  154.7521  135.3109  154.8540 H   0  0  0  0  0  0  0  0  0  0  0  0  # atno 10764 bound_to 10752
  153.9118  135.6864  153.4804 H   0  0  0  0  0  0  0  0  0  0  0  0  # atno 10765 bound_to 10752
  140.3237  134.2515  155.7713 H   0  0  0  0  0  0  0  0  0  0  0  0  # atno 11005 bound_to 11000
  145.2955  139.1868  143.4717 LP  0  0  0  0  0  0  0  0  0  0  0  0  # atno 17320 bound_to 7965
  146.3294  140.2939  142.8617 LP  0  0  0  0  0  0  0  0  0  0  0  0  # atno 17321 bound_to 7965
  140.0017  143.5737  152.2873 LP  0  0  0  0  0  0  0  0  0  0  0  0  # atno 17342 bound_to 10162
  139.6429  144.7656  151.2303 LP  0  0  0  0  0  0  0  0  0  0  0  0  # atno 17343 bound_to 10162
  155.9663  130.4358  150.5105 LP  0  0  0  0  0  0  0  0  0  0  0  0  # atno 17370 bound_to 10713
  157.3036  131.0650  151.2051 LP  0  0  0  0  0  0  0  0  0  0  0  0  # atno 17371 bound_to 10713
  141.2080  133.7789  157.0083 LP  0  0  0  0  0  0  0  0  0  0  0  0  # atno 17394 bound_to 11000
  140.0920  134.9587  157.1791 LP  0  0  0  0  0  0  0  0  0  0  0  0  # atno 17395 bound_to 11000

$$$$
