AV-unprocessed.smi:2663|AV-procd|sdf|10322|dock4
  -GOLD-   2272014333D 1   1.00000     0.00000
 Structure written by MMmdl.
 39 40  0  0  0  0  0  0  0  0  1 V2000
  144.6938  135.3934  154.1622 C   0  0  0  0  0  0  0  0  0  0  0  0
  144.9199  135.9866  152.7518 C   0  0  1  0  0  0  0  0  0  0  0  0
  143.7637  136.9816  152.4369 C   0  0  0  0  0  0  0  0  0  0  0  0
  143.4557  137.8174  153.5368 O   0  0  0  0  0  0  0  0  0  0  0  0
  146.1980  136.7168  152.8113 N   0  0  0  0  0  0  0  0  0  0  0  0
  146.5397  137.7473  153.6050 C   0  0  0  0  0  0  0  0  0  0  0  0
  145.7828  138.2651  154.4260 O   0  0  0  0  0  0  0  0  0  0  0  0
  147.8083  138.1289  153.3756 N   0  0  0  0  0  0  0  0  0  0  0  0
  148.5423  139.1703  154.0030 C   0  0  0  0  0  0  0  0  0  0  0  0
  149.8187  139.0476  154.4003 N   0  0  0  0  0  0  0  0  0  0  0  0
  150.2960  140.2139  154.9838 N   0  0  0  0  0  0  0  0  0  0  0  0
  149.3622  141.1691  155.0041 C   0  0  0  0  0  0  0  0  0  0  0  0
  147.8082  140.7375  154.3119 S   0  0  0  0  0  0  0  0  0  0  0  0
  144.9909  134.8512  151.6661 C   0  0  0  0  0  0  0  0  0  0  0  0
  143.6863  134.0270  151.5140 C   0  0  0  0  0  0  0  0  0  0  0  0
  143.7766  133.0188  150.3564 C   0  0  0  0  0  0  0  0  0  0  0  0
  144.9759  132.0768  150.5278 C   0  0  0  0  0  0  0  0  0  0  0  0
  146.2796  132.8724  150.6782 C   0  0  0  0  0  0  0  0  0  0  0  0
  146.1889  133.8782  151.8371 C   0  0  0  0  0  0  0  0  0  0  0  0
  143.7284  134.8947  154.2444 H   0  0  0  0  0  0  0  0  0  0  0  0
  144.7109  136.1702  154.9274 H   0  0  0  0  0  0  0  0  0  0  0  0
  145.4639  134.6719  154.4331 H   0  0  0  0  0  0  0  0  0  0  0  0
  144.0040  137.6127  151.5812 H   0  0  0  0  0  0  0  0  0  0  0  0
  142.8497  136.4489  152.1775 H   0  0  0  0  0  0  0  0  0  0  0  0
  143.3271  138.6973  153.2174 H   0  0  0  0  0  0  0  0  0  0  0  0
  146.9096  136.3812  152.1795 H   0  0  0  0  0  0  0  0  0  0  0  0
  148.3101  137.6106  152.6698 H   0  0  0  0  0  0  0  0  0  0  0  0
  149.5905  142.1350  155.4295 H   0  0  0  0  0  0  0  0  0  0  0  0
  145.1374  135.3456  150.7052 H   0  0  0  0  0  0  0  0  0  0  0  0
  143.4716  133.4843  152.4345 H   0  0  0  0  0  0  0  0  0  0  0  0
  142.8324  134.6771  151.3305 H   0  0  0  0  0  0  0  0  0  0  0  0
  142.8555  132.4384  150.2978 H   0  0  0  0  0  0  0  0  0  0  0  0
  143.8639  133.5547  149.4104 H   0  0  0  0  0  0  0  0  0  0  0  0
  144.8262  131.4485  151.4066 H   0  0  0  0  0  0  0  0  0  0  0  0
  145.0467  131.4036  149.6730 H   0  0  0  0  0  0  0  0  0  0  0  0
  147.1134  132.1896  150.8437 H   0  0  0  0  0  0  0  0  0  0  0  0
  146.4951  133.4030  149.7499 H   0  0  0  0  0  0  0  0  0  0  0  0
  147.1325  134.4203  151.8902 H   0  0  0  0  0  0  0  0  0  0  0  0
  146.0984  133.3286  152.7739 H   0  0  0  0  0  0  0  0  0  0  0  0
  1  2  1  0  0  0  0
  1 20  1  0  0  0  0
  1 21  1  0  0  0  0
  1 22  1  0  0  0  0
  2  3  1  0  0  0  0
  2  5  1  0  0  0  0
  2 14  1  0  0  0  0
  3  4  1  0  0  0  0
  3 23  1  0  0  0  0
  3 24  1  0  0  0  0
  4 25  1  0  0  0  0
  5  6  1  0  0  0  0
  5 26  1  0  0  0  0
  6  7  2  0  0  0  0
  6  8  1  0  0  0  0
  8  9  1  0  0  0  0
  8 27  1  0  0  0  0
  9 13  1  0  0  0  0
  9 10  2  0  0  0  0
 10 11  1  0  0  0  0
 11 12  2  0  0  0  0
 12 13  1  0  0  0  0
 12 28  1  0  0  0  0
 14 19  1  0  0  0  0
 14 15  1  0  0  0  0
 14 29  1  0  0  0  0
 15 16  1  0  0  0  0
 15 30  1  0  0  0  0
 15 31  1  0  0  0  0
 16 17  1  0  0  0  0
 16 32  1  0  0  0  0
 16 33  1  0  0  0  0
 17 18  1  0  0  0  0
 17 34  1  0  0  0  0
 17 35  1  0  0  0  0
 18 19  1  0  0  0  0
 18 36  1  0  0  0  0
 18 37  1  0  0  0  0
 19 38  1  0  0  0  0
 19 39  1  0  0  0  0
M  END
> <s_m_source_file>
AV-unprocessed.smi

> <i_m_source_file_index>
2663

> <i_lp_mmshare_version>
43012

> <i_f3d_flags>
0

> <s_epik_input>
W0NIMl0xW0NIMl1bQ0gyXVtDSDJdW0NIMl1bQ0hdMVtDQF0oW0NIM10pKFtDSDJdW09IXSlbTkhdQyg9TylbTkhdYzJubltjSF1zMg==

> <s_epik_cmdline>
J2VwaWtfcHl0aG9uJywgJy1waCcsICc3LjAnLCAnLXRuJywgJzgnLCAnLW1hJywgJzIwMCcsICctbWV0YWxfYmluZGluZycsICctaW1hZScsICc8aW5maWxlLm1hZT4nLCAnLW9tYWUnLCAnPG91dGZpbGUubWFlPic=

> <r_lp_tautomer_probability>
1

> <r_epik_Ionization_Penalty>
0.000410407

> <r_epik_Ionization_Penalty_Charging>
0

> <r_epik_Ionization_Penalty_Neutral>
0.000410407

> <r_epik_State_Penalty>
-0

> <r_epik_Charging_Adjusted_Penalty>
0

> <i_epik_Tot_Q>
0

> <i_epik_Tot_abs_Q>
0

> <r_epik_Metal_State_Penalty>
0.197604

> <b_epik_Metal_Only>
0

> <s_lp_Force_Field>
OPLS_2005

> <r_lp_Energy>
19.5674

> <b_lp_Chiralities_Consistent>
1

> <s_lp_Variant>
AV-unprocessed.smi:2663-1

> <Gold.Version>
5.8.1

> <Gold.Id.Protein>
6NUR|6NUR_protein|mol2

> <Gold.PLP.Fitness>
43.5756

> <Gold.PLP.PLP>
-29.7221

> <Gold.PLP.part.hbond>
-4.0056

> <Gold.PLP.part.metal>
0.0000

> <Gold.PLP.part.buried>
-2.9108

> <Gold.PLP.part.nonpolar>
-23.3489

> <Gold.PLP.part.repulsive>
0.4309

> <Gold.PLP.ligand.clash>
0.0000

> <Gold.PLP.ligand.torsion>
0.5311

> <Gold.PLP.Chemscore.Hbond>
3.9520

> <Gold.PLP.Chemscore.CHOScore>
1.0000

> <Gold.PLP.Chemscore.Metal>
0.0000

> <Gold.Chemscore.Hbonds>
donor molecule, donor type, donor heavy atom, donor atom, acceptor molecule, acceptor atom, score
      L1  H     4    25       P1 10175  1.00
      L1  H     5    26       P1  7948  0.86
      L1  H     8    27       P1  7948  1.00
      P1  H  7989  7998       L1    11  0.83
      L1  C    12    28       P1  8028  0.61

> <Gold.PLP.Chemscore.Internal.Correction>
0.0597

> <Gold.Rescore>
     Score         DG    S(hbond)    S(metal)    S(lipo)     H(rot)  DE(clash)    DE(int)     intcor
     12.93     -16.58       2.97        0.00      58.51       2.21       0.24       3.42       ----

> <Gold.Chemscore.Fitness>
12.9275

> <Gold.Chemscore.DG>
-16.5818

> <Gold.Chemscore.ZeroCoef>
-5.4800

> <Gold.Chemscore.Hbond>
2.9697

> <Gold.Chemscore.Metal>
0.0000

> <Gold.Chemscore.Lipo>
58.5104

> <Gold.Chemscore.Internal_Hbond>
0.0000

> <Gold.Chemscore.DEClash>
0.2357

> <Gold.Chemscore.DEInternal>
3.4186

> <Gold.Chemscore.Rot>
2.2120

> <Gold.Chemscore.Internal.Correction>
   9.000000E+99

> <Gold.Chemscore.Hbonds>
donor molecule, donor type, donor heavy atom, donor atom, acceptor molecule, acceptor atom, score
      L1  H     4    25       P1 10175  1.00
      L1  H     5    26       P1  7948  0.81
      L1  H     8    27       P1  7948  0.99
      P1  H  7989  7998       L1    11  0.09

> <Gold.Chemscore.Hbond.Weighted>
-9.9188

> <Gold.Chemscore.Metal.Weighted>
-0.0000

> <Gold.Chemscore.Lipo.Weighted>
-6.8457

> <Gold.Chemscore.Internal_Hbond.Weighted>
0.0000

> <Gold.Chemscore.DEClash.Weighted>
0.2357

> <Gold.Chemscore.DEInternal.Weighted>
3.4186

> <Gold.Chemscore.Rot.Weighted>
5.6627

> <Gold.Chemscore.Internal.Correction.Weighted>
   9.000000E+99

> <Gold.Protein.RotatedTorsions>
[ 6907 6896 6895 6894 ] final  145.52 input  -60.11 | X-H torsion
[ 7974 7965 7964 7962 ] final   99.27 input  175.53 | X-H torsion
[ 8008 7997 7996 7995 ] final   -4.43 input   59.86 | X-H torsion
[ 10167 10162 10161 10158 ] final -117.61 input  -65.29 | X-H torsion
[ 10718 10713 10712 10709 ] final   90.52 input   66.30 | X-H torsion
[ 10763 10752 10751 10750 ] final  -57.89 input  -60.55 | X-H torsion
[ 11005 11000 10999 10996 ] final  -33.61 input  -57.11 | X-H torsion

> <Gold.Protein.ActiveResidues>
 VAL166  LYS551  ARG553  GLY616  TRP617  ASP618  TYR619  PRO620  LYS621  CYS622 
 ASP623  PHE694  ASN695  SER759  ASP760  ASP761  ALA762  ILE779  LEU786  VAL792 
 PHE793  MET794  SER795  GLU796  ALA797  LYS798  CYS799  TRP800  GLU811  SER814 

> <Gold.Protein.RotatedAtoms>
  152.1798  133.4699  159.4951 H   0  0  0  0  0  0  0  0  0  0  0  0  # atno 6907 bound_to 6896
  150.6932  134.1848  159.4271 H   0  0  0  0  0  0  0  0  0  0  0  0  # atno 6908 bound_to 6896
  151.9759  135.0053  160.0606 H   0  0  0  0  0  0  0  0  0  0  0  0  # atno 6909 bound_to 6896
  145.4011  139.2347  143.3299 H   0  0  0  0  0  0  0  0  0  0  0  0  # atno 7974 bound_to 7965
  154.6144  140.2484  155.7628 H   0  0  0  0  0  0  0  0  0  0  0  0  # atno 8008 bound_to 7997
  156.2390  140.2940  156.0340 H   0  0  0  0  0  0  0  0  0  0  0  0  # atno 8009 bound_to 7997
  155.1999  140.0394  157.2906 H   0  0  0  0  0  0  0  0  0  0  0  0  # atno 8010 bound_to 7997
  140.0664  143.4918  152.2004 H   0  0  0  0  0  0  0  0  0  0  0  0  # atno 10167 bound_to 10162
  157.6959  131.0373  150.3590 H   0  0  0  0  0  0  0  0  0  0  0  0  # atno 10718 bound_to 10713
  154.2295  135.6363  153.5171 H   0  0  0  0  0  0  0  0  0  0  0  0  # atno 10763 bound_to 10752
  152.9952  135.5516  154.6027 H   0  0  0  0  0  0  0  0  0  0  0  0  # atno 10764 bound_to 10752
  154.5507  135.2901  155.0985 H   0  0  0  0  0  0  0  0  0  0  0  0  # atno 10765 bound_to 10752
  140.9649  133.7143  156.1428 H   0  0  0  0  0  0  0  0  0  0  0  0  # atno 11005 bound_to 11000
  146.2751  140.4709  142.8798 LP  0  0  0  0  0  0  0  0  0  0  0  0  # atno 17320 bound_to 7965
  144.8373  140.6802  143.6252 LP  0  0  0  0  0  0  0  0  0  0  0  0  # atno 17321 bound_to 7965
  139.5862  144.7532  151.3514 LP  0  0  0  0  0  0  0  0  0  0  0  0  # atno 17342 bound_to 10162
  140.7147  143.7298  150.7632 LP  0  0  0  0  0  0  0  0  0  0  0  0  # atno 17343 bound_to 10162
  156.4029  130.3919  149.6947 LP  0  0  0  0  0  0  0  0  0  0  0  0  # atno 17370 bound_to 10713
  156.4258  130.7791  151.2809 LP  0  0  0  0  0  0  0  0  0  0  0  0  # atno 17371 bound_to 10713
  140.7414  134.4146  157.5554 LP  0  0  0  0  0  0  0  0  0  0  0  0  # atno 17394 bound_to 11000
  139.8891  134.8839  156.2440 LP  0  0  0  0  0  0  0  0  0  0  0  0  # atno 17395 bound_to 11000

$$$$
