AV-unprocessed.smi:2095|AV-procd|sdf|8554|dock2
  -GOLD-   2272011273D 1   1.00000     0.00000
 Structure written by MMmdl.
 42 43  0  0  0  0  0  0  0  0  2 V2000
  143.7720  135.5749  151.2724 C   0  0  0  0  0  0  0  0  0  0  0  0
  145.2082  135.0623  151.4515 C   0  0  2  0  0  0  0  0  0  0  0  0
  145.3752  133.6545  150.8610 C   0  0  0  0  0  0  0  0  0  0  0  0
  146.8084  133.1631  151.0797 C   0  0  0  0  0  0  0  0  0  0  0  0
  147.1775  133.2144  152.5691 C   0  0  0  0  0  0  0  0  0  0  0  0
  147.0306  134.5899  153.1255 N   0  3  2  0  0  0  0  0  0  0  0  0
  147.5838  134.6935  154.5173 C   0  0  2  0  0  0  0  0  0  0  0  0
  147.0635  133.6026  155.4872 C   0  0  0  0  0  0  0  0  0  0  0  0
  147.3102  136.1104  155.0855 C   0  0  0  0  0  0  0  0  0  0  0  0
  148.1021  137.1384  154.4165 N   0  0  0  0  0  0  0  0  0  0  0  0
  148.4662  138.3160  154.9497 C   0  0  0  0  0  0  0  0  0  0  0  0
  148.1042  138.7017  156.0604 O   0  0  0  0  0  0  0  0  0  0  0  0
  149.4097  139.1780  154.1109 C   0  0  0  0  0  0  0  0  0  0  0  0
  150.7933  138.8837  154.4357 N   0  0  0  0  0  0  0  0  0  0  0  0
  151.4829  137.7424  154.3812 C   0  0  0  0  0  0  0  0  0  0  0  0
  152.7269  137.9017  154.8054 N   0  0  0  0  0  0  0  0  0  0  0  0
  152.7778  139.2464  155.1328 N   0  0  0  0  0  0  0  0  0  0  0  0
  151.6333  139.8343  154.9162 N   0  0  0  0  0  0  0  0  0  0  0  0
  145.6355  135.0876  152.9346 C   0  0  0  0  0  0  0  0  0  0  0  0
  143.0563  134.9410  151.7968 H   0  0  0  0  0  0  0  0  0  0  0  0
  143.4901  135.5937  150.2191 H   0  0  0  0  0  0  0  0  0  0  0  0
  143.6642  136.5886  151.6593 H   0  0  0  0  0  0  0  0  0  0  0  0
  145.8668  135.7370  150.9019 H   0  0  0  0  0  0  0  0  0  0  0  0
  144.6729  132.9647  151.3313 H   0  0  0  0  0  0  0  0  0  0  0  0
  145.1431  133.6593  149.7952 H   0  0  0  0  0  0  0  0  0  0  0  0
  146.9120  132.1440  150.7052 H   0  0  0  0  0  0  0  0  0  0  0  0
  147.5033  133.7772  150.5053 H   0  0  0  0  0  0  0  0  0  0  0  0
  146.5433  132.5271  153.1315 H   0  0  0  0  0  0  0  0  0  0  0  0
  148.1980  132.8527  152.6805 H   0  0  0  0  0  0  0  0  0  0  0  0
  148.6643  134.5517  154.4531 H   0  0  0  0  0  0  0  0  0  0  0  0
  147.5010  133.7011  156.4802 H   0  0  0  0  0  0  0  0  0  0  0  0
  147.3278  132.5983  155.1565 H   0  0  0  0  0  0  0  0  0  0  0  0
  145.9802  133.6537  155.6031 H   0  0  0  0  0  0  0  0  0  0  0  0
  146.2681  136.3959  154.9541 H   0  0  0  0  0  0  0  0  0  0  0  0
  147.4853  136.1150  156.1626 H   0  0  0  0  0  0  0  0  0  0  0  0
  148.4425  136.9166  153.4920 H   0  0  0  0  0  0  0  0  0  0  0  0
  149.2454  138.9903  153.0490 H   0  0  0  0  0  0  0  0  0  0  0  0
  149.2158  140.2372  154.2878 H   0  0  0  0  0  0  0  0  0  0  0  0
  151.0731  136.8009  154.0463 H   0  0  0  0  0  0  0  0  0  0  0  0
  145.5508  136.1212  153.2684 H   0  0  0  0  0  0  0  0  0  0  0  0
  144.9499  134.4923  153.5400 H   0  0  0  0  0  0  0  0  0  0  0  0
  147.6068  135.1957  152.5584 H   0  0  0  0  0  0  0  0  0  0  0  0
  1  2  1  0  0  0  0
  1 20  1  0  0  0  0
  1 21  1  0  0  0  0
  1 22  1  0  0  0  0
  2 19  1  0  0  0  0
  2  3  1  0  0  0  0
  2 23  1  0  0  0  0
  3  4  1  0  0  0  0
  3 24  1  0  0  0  0
  3 25  1  0  0  0  0
  4  5  1  0  0  0  0
  4 26  1  0  0  0  0
  4 27  1  0  0  0  0
  5  6  1  0  0  0  0
  5 28  1  0  0  0  0
  5 29  1  0  0  0  0
  6  7  1  0  0  0  0
  6 19  1  0  0  0  0
  6 42  1  0  0  0  0
  7  8  1  0  0  0  0
  7  9  1  0  0  0  0
  7 30  1  0  0  0  0
  8 31  1  0  0  0  0
  8 32  1  0  0  0  0
  8 33  1  0  0  0  0
  9 10  1  0  0  0  0
  9 34  1  0  0  0  0
  9 35  1  0  0  0  0
 10 11  1  0  0  0  0
 10 36  1  0  0  0  0
 11 12  2  0  0  0  0
 11 13  1  0  0  0  0
 13 14  1  0  0  0  0
 13 37  1  0  0  0  0
 13 38  1  0  0  0  0
 14 18  1  0  0  0  0
 14 15  1  0  0  0  0
 15 16  2  0  0  0  0
 15 39  1  0  0  0  0
 16 17  1  0  0  0  0
 17 18  2  0  0  0  0
 19 40  1  0  0  0  0
 19 41  1  0  0  0  0
M  CHG  1   6   1
M  END
> <s_m_source_file>
AV-unprocessed.smi

> <i_m_source_file_index>
2095

> <i_lp_mmshare_version>
43012

> <i_f3d_flags>
0

> <s_epik_input>
W0NIM11bQ0BASF0xW0NIMl1bQ0gyXVtDSDJdTihbQ0gyXTEpW0NASF0oW0NIM10pW0NIMl1bTkhdQyg9TylbQ0gyXW4yW2NIXW5ubjI=

> <s_epik_cmdline>
J2VwaWtfcHl0aG9uJywgJy1waCcsICc3LjAnLCAnLXRuJywgJzgnLCAnLW1hJywgJzIwMCcsICctbWV0YWxfYmluZGluZycsICctaW1hZScsICc8aW5maWxlLm1hZT4nLCAnLW9tYWUnLCAnPG91dGZpbGUubWFlPic=

> <r_lp_tautomer_probability>
1

> <r_epik_Ionization_Penalty>
0.00268321

> <r_epik_Ionization_Penalty_Charging>
0.00267875

> <r_epik_Ionization_Penalty_Neutral>
4.46125e-06

> <r_epik_State_Penalty>
0.00186642

> <r_epik_Charging_Adjusted_Penalty>
0.00454517

> <i_epik_Tot_Q>
1

> <i_epik_Tot_abs_Q>
1

> <r_epik_Metal_State_Penalty>
-0

> <b_epik_Metal_Only>
0

> <s_lp_Force_Field>
OPLS_2005

> <r_lp_Energy>
25.312

> <b_lp_Chiralities_Consistent>
1

> <s_lp_Variant>
AV-unprocessed.smi:2095-1

> <Gold.Version>
5.8.1

> <Gold.Id.Protein>
6NUR|6NUR_protein|mol2

> <Gold.PLP.Fitness>
45.2505

> <Gold.PLP.PLP>
-29.2603

> <Gold.PLP.part.hbond>
-5.8625

> <Gold.PLP.part.metal>
0.0000

> <Gold.PLP.part.buried>
-4.9452

> <Gold.PLP.part.nonpolar>
-18.8252

> <Gold.PLP.part.repulsive>
0.1123

> <Gold.PLP.ligand.clash>
0.0000

> <Gold.PLP.ligand.torsion>
0.7774

> <Gold.PLP.Chemscore.Hbond>
4.8250

> <Gold.PLP.Chemscore.CHOScore>
1.0000

> <Gold.PLP.Chemscore.Metal>
0.0000

> <Gold.Chemscore.Hbonds>
donor molecule, donor type, donor heavy atom, donor atom, acceptor molecule, acceptor atom, score
      L1  H     6    42       P1  7948  2.00
      L1  H    10    36       P1  7948  1.00
      P1  H  7989  7998       L1    18  0.90
      P1  H  7997  8010       L1    17  0.93
      P1  H 10752 10763       L1    16  0.05
      L1  C    15    39       P1  7949  0.54

> <Gold.PLP.Chemscore.Internal.Correction>
0.0700

> <Gold.Rescore>
     Score         DG    S(hbond)    S(metal)    S(lipo)     H(rot)  DE(clash)    DE(int)     intcor
     14.28     -15.09       3.31        0.00      45.35       2.64       0.12       0.69       ----

> <Gold.Chemscore.Fitness>
14.2845

> <Gold.Chemscore.DG>
-15.0885

> <Gold.Chemscore.ZeroCoef>
-5.4800

> <Gold.Chemscore.Hbond>
3.3148

> <Gold.Chemscore.Metal>
0.0000

> <Gold.Chemscore.Lipo>
45.3454

> <Gold.Chemscore.Internal_Hbond>
0.0000

> <Gold.Chemscore.DEClash>
0.1166

> <Gold.Chemscore.DEInternal>
0.6874

> <Gold.Chemscore.Rot>
2.6439

> <Gold.Chemscore.Internal.Correction>
   9.000000E+99

> <Gold.Chemscore.Hbonds>
donor molecule, donor type, donor heavy atom, donor atom, acceptor molecule, acceptor atom, score
      L1  H     6    42       P1  7948  1.00
      L1  H    10    36       P1  7948  1.00
      P1  H  7989  7998       L1    18  0.15
      P1  H  7997  8010       L1    17  0.88

> <Gold.Chemscore.Hbond.Weighted>
-11.0715

> <Gold.Chemscore.Metal.Weighted>
-0.0000

> <Gold.Chemscore.Lipo.Weighted>
-5.3054

> <Gold.Chemscore.Internal_Hbond.Weighted>
0.0000

> <Gold.Chemscore.DEClash.Weighted>
0.1166

> <Gold.Chemscore.DEInternal.Weighted>
0.6874

> <Gold.Chemscore.Rot.Weighted>
6.7685

> <Gold.Chemscore.Internal.Correction.Weighted>
   9.000000E+99

> <Gold.Protein.RotatedTorsions>
[ 6907 6896 6895 6894 ] final   75.38 input  -60.11 | X-H torsion
[ 7974 7965 7964 7962 ] final   -0.92 input  175.53 | X-H torsion
[ 8008 7997 7996 7995 ] final   96.39 input   59.86 | X-H torsion
[ 10167 10162 10161 10158 ] final  -69.84 input  -65.29 | X-H torsion
[ 10718 10713 10712 10709 ] final   72.96 input   66.30 | X-H torsion
[ 10763 10752 10751 10750 ] final   66.12 input  -60.55 | X-H torsion
[ 11005 11000 10999 10996 ] final  159.65 input  -57.11 | X-H torsion

> <Gold.Protein.ActiveResidues>
 VAL166  LYS551  ARG553  GLY616  TRP617  ASP618  TYR619  PRO620  LYS621  CYS622 
 ASP623  PHE694  ASN695  SER759  ASP760  ASP761  ALA762  ILE779  LEU786  VAL792 
 PHE793  MET794  SER795  GLU796  ALA797  LYS798  CYS799  TRP800  GLU811  SER814 

> <Gold.Protein.RotatedAtoms>
  152.5023  134.4128  159.9454 H   0  0  0  0  0  0  0  0  0  0  0  0  # atno 6907 bound_to 6896
  151.4097  133.3725  159.2750 H   0  0  0  0  0  0  0  0  0  0  0  0  # atno 6908 bound_to 6896
  150.9300  134.8737  159.7604 H   0  0  0  0  0  0  0  0  0  0  0  0  # atno 6909 bound_to 6896
  146.2422  140.1342  142.8337 H   0  0  0  0  0  0  0  0  0  0  0  0  # atno 7974 bound_to 7965
  156.0790  140.3273  155.7670 H   0  0  0  0  0  0  0  0  0  0  0  0  # atno 8008 bound_to 7997
  155.5183  140.0583  157.2929 H   0  0  0  0  0  0  0  0  0  0  0  0  # atno 8009 bound_to 7997
  154.4572  140.1948  156.0364 H   0  0  0  0  0  0  0  0  0  0  0  0  # atno 8010 bound_to 7997
  140.5399  143.2315  151.7109 H   0  0  0  0  0  0  0  0  0  0  0  0  # atno 10167 bound_to 10162
  157.6525  130.9604  150.1001 H   0  0  0  0  0  0  0  0  0  0  0  0  # atno 10718 bound_to 10713
  153.0126  135.5332  154.6774 H   0  0  0  0  0  0  0  0  0  0  0  0  # atno 10763 bound_to 10752
  154.5942  135.2862  155.0605 H   0  0  0  0  0  0  0  0  0  0  0  0  # atno 10764 bound_to 10752
  154.1687  135.6535  153.5056 H   0  0  0  0  0  0  0  0  0  0  0  0  # atno 10765 bound_to 10752
  140.1983  134.8357  157.2989 H   0  0  0  0  0  0  0  0  0  0  0  0  # atno 11005 bound_to 11000
  145.0301  140.8863  143.5115 LP  0  0  0  0  0  0  0  0  0  0  0  0  # atno 17320 bound_to 7965
  145.1405  139.2575  143.5493 LP  0  0  0  0  0  0  0  0  0  0  0  0  # atno 17321 bound_to 7965
  139.4985  144.3985  152.0206 LP  0  0  0  0  0  0  0  0  0  0  0  0  # atno 17342 bound_to 10162
  140.3093  144.3556  150.6038 LP  0  0  0  0  0  0  0  0  0  0  0  0  # atno 17343 bound_to 10162
  156.1926  130.3655  149.8890 LP  0  0  0  0  0  0  0  0  0  0  0  0  # atno 17370 bound_to 10713
  156.6814  130.8860  151.3576 LP  0  0  0  0  0  0  0  0  0  0  0  0  # atno 17371 bound_to 10713
  140.2083  134.4170  155.7626 LP  0  0  0  0  0  0  0  0  0  0  0  0  # atno 17394 bound_to 11000
  141.2227  133.7105  156.8296 LP  0  0  0  0  0  0  0  0  0  0  0  0  # atno 17395 bound_to 11000

$$$$
