AV-unprocessed.smi:2736|AV-procd|sdf|10545|dock1
  -GOLD-   2272014593D 1   1.00000     0.00000
 Structure written by MMmdl.
 38 40  0  0  0  0  0  0  0  0  1 V2000
  157.0842  139.7153  165.8728 C   0  0  0  0  0  0  0  0  0  0  0  0
  156.3920  138.9605  164.8114 N   0  0  0  0  0  0  0  0  0  0  0  0
  155.7716  139.6662  163.8142 C   0  0  0  0  0  0  0  0  0  0  0  0
  155.7448  140.8942  163.7299 O   0  0  0  0  0  0  0  0  0  0  0  0
  155.1151  138.8236  162.8120 C   0  0  0  0  0  0  0  0  0  0  0  0
  155.1246  137.4700  162.8653 C   0  0  0  0  0  0  0  0  0  0  0  0
  154.4330  136.9160  161.7940 N   0  0  0  0  0  0  0  0  0  0  0  0
  154.0288  138.0023  161.1336 C   0  0  0  0  0  0  0  0  0  0  0  0
  154.3915  139.1828  161.6770 N   0  0  0  0  0  0  0  0  0  0  0  0
  154.0754  140.5062  161.1599 C   0  0  0  0  0  0  0  0  0  0  0  0
  153.2703  140.4606  159.8446 C   0  0  2  0  0  0  0  0  0  0  0  0
  154.1137  140.0482  158.7847 O   0  0  0  0  0  0  0  0  0  0  0  0
  152.6044  141.8051  159.5612 C   0  0  0  0  0  0  0  0  0  0  0  0
  152.7364  142.8525  160.5024 C   0  0  0  0  0  0  0  0  0  0  0  0
  152.1299  144.1026  160.2782 C   0  0  0  0  0  0  0  0  0  0  0  0
  151.3797  144.3191  159.1088 C   0  0  0  0  0  0  0  0  0  0  0  0
  151.2340  143.2824  158.1690 C   0  0  0  0  0  0  0  0  0  0  0  0
  151.8377  142.0277  158.3884 C   0  0  0  0  0  0  0  0  0  0  0  0
  151.6066  140.7930  157.2006 Cl  0  0  0  0  0  0  0  0  0  0  0  0
  155.7957  136.8371  163.9409 N   0  0  0  0  0  0  0  0  0  0  0  0
  155.7810  135.3717  163.9687 C   0  0  0  0  0  0  0  0  0  0  0  0
  156.4253  137.5793  164.9110 C   0  0  0  0  0  0  0  0  0  0  0  0
  157.0064  137.0266  165.8489 O   0  0  0  0  0  0  0  0  0  0  0  0
  157.0549  140.7996  165.7597 H   0  0  0  0  0  0  0  0  0  0  0  0
  158.1389  139.4383  165.9115 H   0  0  0  0  0  0  0  0  0  0  0  0
  156.6431  139.4932  166.8458 H   0  0  0  0  0  0  0  0  0  0  0  0
  153.4450  137.9372  160.2271 H   0  0  0  0  0  0  0  0  0  0  0  0
  153.5303  141.0595  161.9247 H   0  0  0  0  0  0  0  0  0  0  0  0
  155.0115  141.0454  161.0075 H   0  0  0  0  0  0  0  0  0  0  0  0
  152.5111  139.6839  159.9220 H   0  0  0  0  0  0  0  0  0  0  0  0
  154.9849  139.9208  159.1281 H   0  0  0  0  0  0  0  0  0  0  0  0
  153.3042  142.7003  161.4087 H   0  0  0  0  0  0  0  0  0  0  0  0
  152.2391  144.8944  161.0048 H   0  0  0  0  0  0  0  0  0  0  0  0
  150.9133  145.2774  158.9344 H   0  0  0  0  0  0  0  0  0  0  0  0
  150.6524  143.4510  157.2746 H   0  0  0  0  0  0  0  0  0  0  0  0
  156.3220  134.9301  164.8060 H   0  0  0  0  0  0  0  0  0  0  0  0
  156.2260  134.9793  163.0539 H   0  0  0  0  0  0  0  0  0  0  0  0
  154.7531  135.0114  164.0212 H   0  0  0  0  0  0  0  0  0  0  0  0
  1  2  1  0  0  0  0
  1 24  1  0  0  0  0
  1 25  1  0  0  0  0
  1 26  1  0  0  0  0
  2 22  1  0  0  0  0
  2  3  1  0  0  0  0
  3  4  2  0  0  0  0
  3  5  1  0  0  0  0
  5  9  1  0  0  0  0
  5  6  2  0  0  0  0
  6  7  1  0  0  0  0
  6 20  1  0  0  0  0
  7  8  2  0  0  0  0
  8  9  1  0  0  0  0
  8 27  1  0  0  0  0
  9 10  1  0  0  0  0
 10 11  1  0  0  0  0
 10 28  1  0  0  0  0
 10 29  1  0  0  0  0
 11 12  1  0  0  0  0
 11 13  1  0  0  0  0
 11 30  1  0  0  0  0
 12 31  1  0  0  0  0
 13 18  1  0  0  0  0
 13 14  2  0  0  0  0
 14 15  1  0  0  0  0
 14 32  1  0  0  0  0
 15 16  2  0  0  0  0
 15 33  1  0  0  0  0
 16 17  1  0  0  0  0
 16 34  1  0  0  0  0
 17 18  2  0  0  0  0
 17 35  1  0  0  0  0
 18 19  1  0  0  0  0
 20 21  1  0  0  0  0
 20 22  1  0  0  0  0
 21 36  1  0  0  0  0
 21 37  1  0  0  0  0
 21 38  1  0  0  0  0
 22 23  2  0  0  0  0
M  END
> <s_m_source_file>
AV-unprocessed.smi

> <i_m_source_file_index>
2736

> <i_lp_mmshare_version>
43012

> <i_f3d_flags>
0

> <s_epik_input>
Tz1jMW4oW0NIM10pYyg9TyluKFtDSDNdKWMoYzEyKW5bY0hdbjJbQ0gyXVtDQEhdKFtPSF0pYzNbY0hdW2NIXVtjSF1bY0hdYzNDbA==

> <s_epik_cmdline>
J2VwaWtfcHl0aG9uJywgJy1waCcsICc3LjAnLCAnLXRuJywgJzgnLCAnLW1hJywgJzIwMCcsICctbWV0YWxfYmluZGluZycsICctaW1hZScsICc8aW5maWxlLm1hZT4nLCAnLW9tYWUnLCAnPG91dGZpbGUubWFlPic=

> <r_lp_tautomer_probability>
1

> <r_epik_Ionization_Penalty>
1.63404e-06

> <r_epik_Ionization_Penalty_Charging>
3.74189e-09

> <r_epik_Ionization_Penalty_Neutral>
1.63029e-06

> <r_epik_State_Penalty>
-0

> <r_epik_Charging_Adjusted_Penalty>
3.74189e-09

> <i_epik_Tot_Q>
0

> <i_epik_Tot_abs_Q>
0

> <r_epik_Metal_State_Penalty>
-0

> <b_epik_Metal_Only>
0

> <s_lp_Force_Field>
OPLS_2005

> <r_lp_Energy>
36.4155

> <b_lp_Chiralities_Consistent>
1

> <s_lp_Variant>
AV-unprocessed.smi:2736-1

> <Gold.Version>
5.8.1

> <Gold.Id.Protein>
6NUR|6NUR_protein|mol2

> <Gold.PLP.Fitness>
45.2975

> <Gold.PLP.PLP>
-43.4286

> <Gold.PLP.part.hbond>
-2.2072

> <Gold.PLP.part.metal>
0.0000

> <Gold.PLP.part.buried>
-5.0315

> <Gold.PLP.part.nonpolar>
-35.8557

> <Gold.PLP.part.repulsive>
0.0997

> <Gold.PLP.ligand.clash>
0.0000

> <Gold.PLP.ligand.torsion>
0.1485

> <Gold.PLP.Chemscore.Hbond>
0.7144

> <Gold.PLP.Chemscore.CHOScore>
0.0000

> <Gold.PLP.Chemscore.Metal>
0.0000

> <Gold.Chemscore.Hbonds>
donor molecule, donor type, donor heavy atom, donor atom, acceptor molecule, acceptor atom, score
      P1  H  7997  8008       L1    12  0.55

> <Gold.PLP.Chemscore.Internal.Correction>
0.0227

> <Gold.Rescore>
     Score         DG    S(hbond)    S(metal)    S(lipo)     H(rot)  DE(clash)    DE(int)     intcor
     11.10     -12.07       0.02        0.00     102.86       2.15       0.23       0.74       ----

> <Gold.Chemscore.Fitness>
11.0961

> <Gold.Chemscore.DG>
-12.0732

> <Gold.Chemscore.ZeroCoef>
-5.4800

> <Gold.Chemscore.Hbond>
0.0167

> <Gold.Chemscore.Metal>
0.0000

> <Gold.Chemscore.Lipo>
102.8624

> <Gold.Chemscore.Internal_Hbond>
0.0000

> <Gold.Chemscore.DEClash>
0.2338

> <Gold.Chemscore.DEInternal>
0.7433

> <Gold.Chemscore.Rot>
2.1474

> <Gold.Chemscore.Internal.Correction>
   9.000000E+99

> <Gold.Chemscore.Hbonds>
donor molecule, donor type, donor heavy atom, donor atom, acceptor molecule, acceptor atom, score
      P1  H  7997  8008       L1    12  0.08

> <Gold.Chemscore.Hbond.Weighted>
-0.0557

> <Gold.Chemscore.Metal.Weighted>
-0.0000

> <Gold.Chemscore.Lipo.Weighted>
-12.0349

> <Gold.Chemscore.Internal_Hbond.Weighted>
0.0000

> <Gold.Chemscore.DEClash.Weighted>
0.2338

> <Gold.Chemscore.DEInternal.Weighted>
0.7433

> <Gold.Chemscore.Rot.Weighted>
5.4974

> <Gold.Chemscore.Internal.Correction.Weighted>
   9.000000E+99

> <Gold.Protein.RotatedTorsions>
[ 6907 6896 6895 6894 ] final -104.49 input  -60.11 | X-H torsion
[ 7974 7965 7964 7962 ] final   91.30 input  175.53 | X-H torsion
[ 8008 7997 7996 7995 ] final  -82.85 input   59.86 | X-H torsion
[ 10167 10162 10161 10158 ] final   27.32 input  -65.29 | X-H torsion
[ 10718 10713 10712 10709 ] final -119.80 input   66.30 | X-H torsion
[ 10763 10752 10751 10750 ] final  149.86 input  -60.55 | X-H torsion
[ 11005 11000 10999 10996 ] final   62.47 input  -57.11 | X-H torsion

> <Gold.Protein.ActiveResidues>
 VAL166  LYS551  ARG553  GLY616  TRP617  ASP618  TYR619  PRO620  LYS621  CYS622 
 ASP623  PHE694  ASN695  SER759  ASP760  ASP761  ALA762  ILE779  LEU786  VAL792 
 PHE793  MET794  SER795  GLU796  ALA797  LYS798  CYS799  TRP800  GLU811  SER814 

> <Gold.Protein.RotatedAtoms>
  150.7290  134.0270  159.3720 H   0  0  0  0  0  0  0  0  0  0  0  0  # atno 6907 bound_to 6896
  151.8238  135.0641  160.0437 H   0  0  0  0  0  0  0  0  0  0  0  0  # atno 6908 bound_to 6896
  152.2984  133.5595  159.5639 H   0  0  0  0  0  0  0  0  0  0  0  0  # atno 6909 bound_to 6896
  145.5074  139.2276  143.2743 H   0  0  0  0  0  0  0  0  0  0  0  0  # atno 7974 bound_to 7965
  154.6129  140.0627  156.9517 H   0  0  0  0  0  0  0  0  0  0  0  0  # atno 8008 bound_to 7997
  155.1943  140.3310  155.4335 H   0  0  0  0  0  0  0  0  0  0  0  0  # atno 8009 bound_to 7997
  156.2387  140.1875  156.7031 H   0  0  0  0  0  0  0  0  0  0  0  0  # atno 8010 bound_to 7997
  140.4948  144.0409  150.6310 H   0  0  0  0  0  0  0  0  0  0  0  0  # atno 10167 bound_to 10162
  156.1209  130.6322  150.9462 H   0  0  0  0  0  0  0  0  0  0  0  0  # atno 10718 bound_to 10713
  154.0780  135.2861  155.3296 H   0  0  0  0  0  0  0  0  0  0  0  0  # atno 10763 bound_to 10752
  154.6703  135.5302  153.8132 H   0  0  0  0  0  0  0  0  0  0  0  0  # atno 10764 bound_to 10752
  153.0460  135.6556  154.0957 H   0  0  0  0  0  0  0  0  0  0  0  0  # atno 10765 bound_to 10752
  140.0090  134.6326  155.9811 H   0  0  0  0  0  0  0  0  0  0  0  0  # atno 11005 bound_to 11000
  146.2188  140.5879  142.9026 LP  0  0  0  0  0  0  0  0  0  0  0  0  # atno 17320 bound_to 7965
  144.7746  140.5712  143.6647 LP  0  0  0  0  0  0  0  0  0  0  0  0  # atno 17321 bound_to 7965
  140.3689  143.2866  152.0301 LP  0  0  0  0  0  0  0  0  0  0  0  0  # atno 17342 bound_to 10162
  139.4859  144.6245  151.7190 LP  0  0  0  0  0  0  0  0  0  0  0  0  # atno 17343 bound_to 10162
  157.6392  131.0912  150.8286 LP  0  0  0  0  0  0  0  0  0  0  0  0  # atno 17370 bound_to 10713
  156.8382  130.5039  149.5324 LP  0  0  0  0  0  0  0  0  0  0  0  0  # atno 17371 bound_to 10713
  141.1697  133.6537  156.4607 LP  0  0  0  0  0  0  0  0  0  0  0  0  # atno 17394 bound_to 11000
  140.4589  134.6859  157.5076 LP  0  0  0  0  0  0  0  0  0  0  0  0  # atno 17395 bound_to 11000

$$$$
