AV-unprocessed.smi:540|AV-procd|sdf|2869|dock3
  -GOLD-   2262023363D 1   1.00000     0.00000
 Structure written by MMmdl.
 49 51  0  0  0  0  0  0  0  0  1 V2000
  150.0634  139.2215  155.0578 C   0  0  0  0  0  0  0  0  0  0  0  0
  151.4226  139.5007  155.7030 C   0  0  0  0  0  0  0  0  0  0  0  0
  151.6491  138.5463  156.7262 O   0  0  0  0  0  0  0  0  0  0  0  0
  152.7549  138.8776  157.5481 C   0  0  0  0  0  0  0  0  0  0  0  0
  152.2591  139.7313  158.7210 C   0  0  0  0  0  0  0  0  0  0  0  0
  153.2640  139.8247  159.7766 N   0  0  0  0  0  0  0  0  0  0  0  0
  153.7032  140.9346  160.4334 C   0  0  0  0  0  0  0  0  0  0  0  0
  153.2293  142.2155  160.1407 N   0  0  0  0  0  0  0  0  0  0  0  0
  152.8047  142.7119  158.8318 C   0  0  0  0  0  0  0  0  0  0  0  0
  151.4017  143.3421  158.8940 C   0  0  0  0  0  0  0  0  0  0  0  0
  151.3657  144.4946  159.9128 C   0  0  0  0  0  0  0  0  0  0  0  0
  149.9529  145.0748  160.0667 C   0  0  0  0  0  0  0  0  0  0  0  0
  151.9352  144.0085  161.2576 C   0  0  0  0  0  0  0  0  0  0  0  0
  153.3094  143.3404  161.0700 C   0  0  0  0  0  0  0  0  0  0  0  0
  154.5801  140.6902  161.4110 N   0  0  0  0  0  0  0  0  0  0  0  0
  154.7337  139.3138  161.3608 C   0  0  0  0  0  0  0  0  0  0  0  0
  153.9433  138.7738  160.3980 C   0  0  0  0  0  0  0  0  0  0  0  0
  153.8729  137.3239  160.1632 C   0  0  0  0  0  0  0  0  0  0  0  0
  153.1454  136.8044  159.3201 O   0  0  0  0  0  0  0  0  0  0  0  0
  154.6871  136.6119  160.9795 N   0  0  0  0  0  0  0  0  0  0  0  0
  155.5115  137.0936  161.9586 C   0  0  0  0  0  0  0  0  0  0  0  0
  156.1916  136.3159  162.6279 O   0  0  0  0  0  0  0  0  0  0  0  0
  155.5400  138.4502  162.1563 N   0  0  0  0  0  0  0  0  0  0  0  0
  156.3959  139.0209  163.1982 C   0  0  0  0  0  0  0  0  0  0  0  0
  154.6790  135.6101  160.8555 H   0  0  0  0  0  0  0  0  0  0  0  0
  149.8550  139.9377  154.2627 H   0  0  0  0  0  0  0  0  0  0  0  0
  149.2599  139.2925  155.7913 H   0  0  0  0  0  0  0  0  0  0  0  0
  150.0349  138.2218  154.6238 H   0  0  0  0  0  0  0  0  0  0  0  0
  152.2096  139.4394  154.9497 H   0  0  0  0  0  0  0  0  0  0  0  0
  151.4392  140.5093  156.1189 H   0  0  0  0  0  0  0  0  0  0  0  0
  153.2238  137.9657  157.9204 H   0  0  0  0  0  0  0  0  0  0  0  0
  153.5048  139.4232  156.9731 H   0  0  0  0  0  0  0  0  0  0  0  0
  151.9830  140.7259  158.3776 H   0  0  0  0  0  0  0  0  0  0  0  0
  151.3391  139.3185  159.1227 H   0  0  0  0  0  0  0  0  0  0  0  0
  153.5251  143.4568  158.4908 H   0  0  0  0  0  0  0  0  0  0  0  0
  152.8416  141.9145  158.0907 H   0  0  0  0  0  0  0  0  0  0  0  0
  151.1186  143.7071  157.9063 H   0  0  0  0  0  0  0  0  0  0  0  0
  150.6658  142.5848  159.1656 H   0  0  0  0  0  0  0  0  0  0  0  0
  152.0145  145.2899  159.5429 H   0  0  0  0  0  0  0  0  0  0  0  0
  149.2535  144.3233  160.4348 H   0  0  0  0  0  0  0  0  0  0  0  0
  149.5748  145.4433  159.1127 H   0  0  0  0  0  0  0  0  0  0  0  0
  149.9463  145.9092  160.7684 H   0  0  0  0  0  0  0  0  0  0  0  0
  152.0241  144.8458  161.9504 H   0  0  0  0  0  0  0  0  0  0  0  0
  151.2467  143.2983  161.7176 H   0  0  0  0  0  0  0  0  0  0  0  0
  153.6779  142.9922  162.0355 H   0  0  0  0  0  0  0  0  0  0  0  0
  154.0383  144.0641  160.7030 H   0  0  0  0  0  0  0  0  0  0  0  0
  157.4237  138.6703  163.0920 H   0  0  0  0  0  0  0  0  0  0  0  0
  156.0365  138.7284  164.1855 H   0  0  0  0  0  0  0  0  0  0  0  0
  156.4244  140.1100  163.1666 H   0  0  0  0  0  0  0  0  0  0  0  0
  1  2  1  0  0  0  0
  1 26  1  0  0  0  0
  1 27  1  0  0  0  0
  1 28  1  0  0  0  0
  2  3  1  0  0  0  0
  2 29  1  0  0  0  0
  2 30  1  0  0  0  0
  3  4  1  0  0  0  0
  4  5  1  0  0  0  0
  4 31  1  0  0  0  0
  4 32  1  0  0  0  0
  5  6  1  0  0  0  0
  5 33  1  0  0  0  0
  5 34  1  0  0  0  0
  6 17  1  0  0  0  0
  6  7  1  0  0  0  0
  7  8  1  0  0  0  0
  7 15  2  0  0  0  0
  8 14  1  0  0  0  0
  8  9  1  0  0  0  0
  9 10  1  0  0  0  0
  9 35  1  0  0  0  0
  9 36  1  0  0  0  0
 10 11  1  0  0  0  0
 10 37  1  0  0  0  0
 10 38  1  0  0  0  0
 11 12  1  0  0  0  0
 11 13  1  0  0  0  0
 11 39  1  0  0  0  0
 12 40  1  0  0  0  0
 12 41  1  0  0  0  0
 12 42  1  0  0  0  0
 13 14  1  0  0  0  0
 13 43  1  0  0  0  0
 13 44  1  0  0  0  0
 14 45  1  0  0  0  0
 14 46  1  0  0  0  0
 15 16  1  0  0  0  0
 16 23  1  0  0  0  0
 16 17  2  0  0  0  0
 17 18  1  0  0  0  0
 18 19  2  0  0  0  0
 18 20  1  0  0  0  0
 20 25  1  0  0  0  0
 20 21  1  0  0  0  0
 21 22  2  0  0  0  0
 21 23  1  0  0  0  0
 23 24  1  0  0  0  0
 24 47  1  0  0  0  0
 24 48  1  0  0  0  0
 24 49  1  0  0  0  0
M  END
> <s_m_source_file>
AV-unprocessed.smi

> <i_m_source_file_index>
540

> <i_lp_mmshare_version>
43012

> <i_f3d_flags>
0

> <s_epik_input>
W0NIM11uMWMoPU8pW25IXWMoPU8pYyhjMTIpbihbQ0gyXVtDSDJdT1tDSDJdW0NIM10pYyhuMilOM1tDSDJdW0NIMl1bQ0hdKFtDSDNdKVtDSDJdW0NIMl0z

> <s_epik_cmdline>
J2VwaWtfcHl0aG9uJywgJy1waCcsICc3LjAnLCAnLXRuJywgJzgnLCAnLW1hJywgJzIwMCcsICctbWV0YWxfYmluZGluZycsICctaW1hZScsICc8aW5maWxlLm1hZT4nLCAnLW9tYWUnLCAnPG91dGZpbGUubWFlPic=

> <r_lp_tautomer_probability>
1

> <r_epik_Ionization_Penalty>
0.000763957

> <r_epik_Ionization_Penalty_Charging>
0.000121351

> <r_epik_Ionization_Penalty_Neutral>
0.000642606

> <r_epik_State_Penalty>
-0

> <r_epik_Charging_Adjusted_Penalty>
0.000121351

> <i_epik_Tot_Q>
0

> <i_epik_Tot_abs_Q>
0

> <r_epik_Metal_State_Penalty>
0.0930422

> <b_epik_Metal_Only>
0

> <s_lp_Force_Field>
OPLS_2005

> <r_lp_Energy>
38.5385

> <b_lp_Chiralities_Consistent>
1

> <s_lp_Variant>
AV-unprocessed.smi:540-1

> <Gold.Version>
5.8.1

> <Gold.Id.Protein>
6NUR|6NUR_protein|mol2

> <Gold.PLP.Fitness>
47.3389

> <Gold.PLP.PLP>
-45.2007

> <Gold.PLP.part.hbond>
-1.0000

> <Gold.PLP.part.metal>
0.0000

> <Gold.PLP.part.buried>
-4.4588

> <Gold.PLP.part.nonpolar>
-39.1177

> <Gold.PLP.part.repulsive>
0.0816

> <Gold.PLP.ligand.clash>
0.0000

> <Gold.PLP.ligand.torsion>
0.6679

> <Gold.PLP.Chemscore.Hbond>
1.0000

> <Gold.PLP.Chemscore.CHOScore>
0.0000

> <Gold.PLP.Chemscore.Metal>
0.0000

> <Gold.Chemscore.Hbonds>
donor molecule, donor type, donor heavy atom, donor atom, acceptor molecule, acceptor atom, score
      P1  H  6896  6908       L1    19  0.54

> <Gold.PLP.Chemscore.Internal.Correction>
0.4741

> <Gold.Rescore>
     Score         DG    S(hbond)    S(metal)    S(lipo)     H(rot)  DE(clash)    DE(int)     intcor
     13.97     -15.73       0.95        0.00      94.95       1.58       0.05       1.70       ----

> <Gold.Chemscore.Fitness>
13.9723

> <Gold.Chemscore.DG>
-15.7296

> <Gold.Chemscore.ZeroCoef>
-5.4800

> <Gold.Chemscore.Hbond>
0.9542

> <Gold.Chemscore.Metal>
0.0000

> <Gold.Chemscore.Lipo>
94.9481

> <Gold.Chemscore.Internal_Hbond>
0.0000

> <Gold.Chemscore.DEClash>
0.0530

> <Gold.Chemscore.DEInternal>
1.7044

> <Gold.Chemscore.Rot>
1.5806

> <Gold.Chemscore.Internal.Correction>
   9.000000E+99

> <Gold.Chemscore.Hbonds>
donor molecule, donor type, donor heavy atom, donor atom, acceptor molecule, acceptor atom, score
      P1  H  6896  6908       L1    19  0.46

> <Gold.Chemscore.Hbond.Weighted>
-3.1870

> <Gold.Chemscore.Metal.Weighted>
-0.0000

> <Gold.Chemscore.Lipo.Weighted>
-11.1089

> <Gold.Chemscore.Internal_Hbond.Weighted>
0.0000

> <Gold.Chemscore.DEClash.Weighted>
0.0530

> <Gold.Chemscore.DEInternal.Weighted>
1.7044

> <Gold.Chemscore.Rot.Weighted>
4.0463

> <Gold.Chemscore.Internal.Correction.Weighted>
   9.000000E+99

> <Gold.Protein.RotatedTorsions>
[ 6907 6896 6895 6894 ] final -101.48 input  -60.11 | X-H torsion
[ 7974 7965 7964 7962 ] final   39.46 input  175.53 | X-H torsion
[ 8008 7997 7996 7995 ] final  124.61 input   59.86 | X-H torsion
[ 10167 10162 10161 10158 ] final   57.28 input  -65.29 | X-H torsion
[ 10718 10713 10712 10709 ] final   -3.84 input   66.30 | X-H torsion
[ 10763 10752 10751 10750 ] final   38.18 input  -60.55 | X-H torsion
[ 11005 11000 10999 10996 ] final   40.75 input  -57.11 | X-H torsion

> <Gold.Protein.ActiveResidues>
 VAL166  LYS551  ARG553  GLY616  TRP617  ASP618  TYR619  PRO620  LYS621  CYS622 
 ASP623  PHE694  ASN695  SER759  ASP760  ASP761  ALA762  ILE779  LEU786  VAL792 
 PHE793  MET794  SER795  GLU796  ALA797  LYS798  CYS799  TRP800  GLU811  SER814 

> <Gold.Protein.RotatedAtoms>
  150.7156  134.0727  159.3869 H   0  0  0  0  0  0  0  0  0  0  0  0  # atno 6907 bound_to 6896
  151.8709  135.0487  160.0488 H   0  0  0  0  0  0  0  0  0  0  0  0  # atno 6908 bound_to 6896
  152.2643  133.5290  159.5437 H   0  0  0  0  0  0  0  0  0  0  0  0  # atno 6909 bound_to 6896
  146.0983  139.5649  142.9431 H   0  0  0  0  0  0  0  0  0  0  0  0  # atno 7974 bound_to 7965
  156.2807  140.2736  156.1816 H   0  0  0  0  0  0  0  0  0  0  0  0  # atno 8008 bound_to 7997
  155.0551  140.0386  157.2575 H   0  0  0  0  0  0  0  0  0  0  0  0  # atno 8009 bound_to 7997
  154.7163  140.2679  155.6588 H   0  0  0  0  0  0  0  0  0  0  0  0  # atno 8010 bound_to 7997
  140.1996  144.4001  150.6534 H   0  0  0  0  0  0  0  0  0  0  0  0  # atno 10167 bound_to 10162
  156.7701  130.5297  149.5769 H   0  0  0  0  0  0  0  0  0  0  0  0  # atno 10718 bound_to 10713
  153.0010  135.6256  154.2264 H   0  0  0  0  0  0  0  0  0  0  0  0  # atno 10763 bound_to 10752
  154.2007  135.2804  155.2993 H   0  0  0  0  0  0  0  0  0  0  0  0  # atno 10764 bound_to 10752
  154.5686  135.5683  153.7133 H   0  0  0  0  0  0  0  0  0  0  0  0  # atno 10765 bound_to 10752
  140.1901  134.3998  155.8151 H   0  0  0  0  0  0  0  0  0  0  0  0  # atno 11005 bound_to 11000
  145.5905  141.0370  143.2072 LP  0  0  0  0  0  0  0  0  0  0  0  0  # atno 17320 bound_to 7965
  144.7412  139.7443  143.7310 LP  0  0  0  0  0  0  0  0  0  0  0  0  # atno 17321 bound_to 7965
  140.6399  143.2201  151.6313 LP  0  0  0  0  0  0  0  0  0  0  0  0  # atno 17342 bound_to 10162
  139.5222  144.3169  152.0944 LP  0  0  0  0  0  0  0  0  0  0  0  0  # atno 17343 bound_to 10162
  156.1283  130.6160  151.0297 LP  0  0  0  0  0  0  0  0  0  0  0  0  # atno 17370 bound_to 10713
  157.6695  131.0864  150.7647 LP  0  0  0  0  0  0  0  0  0  0  0  0  # atno 17371 bound_to 10713
  141.2226  133.7042  156.8080 LP  0  0  0  0  0  0  0  0  0  0  0  0  # atno 17394 bound_to 11000
  140.2170  134.8785  157.3336 LP  0  0  0  0  0  0  0  0  0  0  0  0  # atno 17395 bound_to 11000

$$$$
