AV-unprocessed.smi:101|AV-procd|sdf|932|dock5
  -GOLD-   2262017443D 1   1.00000     0.00000
 Structure written by MMmdl.
 43 45  0  0  0  0  0  0  0  0  2 V2000
  153.4052  134.8867  152.5445 C   0  0  0  0  0  0  0  0  0  0  0  0
  152.1068  135.2384  153.2494 C   0  0  0  0  0  0  0  0  0  0  0  0
  151.9016  136.4448  153.8235 C   0  0  0  0  0  0  0  0  0  0  0  0
  150.7152  136.7602  154.4645 N   0  0  0  0  0  0  0  0  0  0  0  0
  150.4932  138.1175  155.1066 C   0  0  1  0  0  0  0  0  0  0  0  0
  151.6789  138.8601  155.0552 O   0  0  0  0  0  0  0  0  0  0  0  0
  151.5417  139.9342  154.1318 C   0  0  2  0  0  0  0  0  0  0  0  0
  152.5344  141.0446  154.4965 C   0  0  0  0  0  0  0  0  0  0  0  0
  152.1763  141.6142  155.7450 O   0  0  0  0  0  0  0  0  0  0  0  0
  153.1332  141.9932  156.6133 C   0  0  0  0  0  0  0  0  0  0  0  0
  154.3041  141.6138  156.5462 O   0  0  0  0  0  0  0  0  0  0  0  0
  152.6270  142.9217  157.6652 C   0  0  0  0  0  0  0  0  0  0  0  0
  153.4447  143.2163  158.7814 C   0  0  0  0  0  0  0  0  0  0  0  0
  152.9928  144.0871  159.7920 C   0  0  0  0  0  0  0  0  0  0  0  0
  151.7169  144.6727  159.6999 C   0  0  0  0  0  0  0  0  0  0  0  0
  150.8934  144.3871  158.5952 C   0  0  0  0  0  0  0  0  0  0  0  0
  151.3441  143.5175  157.5826 C   0  0  0  0  0  0  0  0  0  0  0  0
  150.0706  140.3148  154.2893 C   0  0  1  0  0  0  0  0  0  0  0  0
  149.5706  141.0976  153.2213 O   0  0  0  0  0  0  0  0  0  0  0  0
  149.3949  138.9523  154.4027 C   0  0  1  0  0  0  0  0  0  0  0  0
  149.0217  138.4413  153.1308 O   0  0  0  0  0  0  0  0  0  0  0  0
  149.6726  135.7992  154.5209 C   0  0  0  0  0  0  0  0  0  0  0  0
  148.6238  136.1202  155.0807 O   0  0  0  0  0  0  0  0  0  0  0  0
  149.8715  134.5786  153.9476 N   0  5  0  0  0  0  0  0  0  0  0  0
  151.0312  134.2417  153.3136 C   0  0  0  0  0  0  0  0  0  0  0  0
  151.1972  133.1363  152.7987 O   0  0  0  0  0  0  0  0  0  0  0  0
  154.1150  135.7135  152.5840 H   0  0  0  0  0  0  0  0  0  0  0  0
  153.2178  134.6524  151.4962 H   0  0  0  0  0  0  0  0  0  0  0  0
  153.8705  134.0192  153.0137 H   0  0  0  0  0  0  0  0  0  0  0  0
  152.6933  137.1759  153.7726 H   0  0  0  0  0  0  0  0  0  0  0  0
  150.2784  137.9159  156.1574 H   0  0  0  0  0  0  0  0  0  0  0  0
  151.7365  139.5586  153.1256 H   0  0  0  0  0  0  0  0  0  0  0  0
  153.5501  140.6482  154.5352 H   0  0  0  0  0  0  0  0  0  0  0  0
  152.5153  141.8225  153.7318 H   0  0  0  0  0  0  0  0  0  0  0  0
  154.4280  142.7780  158.8743 H   0  0  0  0  0  0  0  0  0  0  0  0
  153.6264  144.3053  160.6392 H   0  0  0  0  0  0  0  0  0  0  0  0
  151.3702  145.3398  160.4756 H   0  0  0  0  0  0  0  0  0  0  0  0
  149.9131  144.8348  158.5239 H   0  0  0  0  0  0  0  0  0  0  0  0
  150.6858  143.3177  156.7496 H   0  0  0  0  0  0  0  0  0  0  0  0
  149.9362  140.8626  155.2232 H   0  0  0  0  0  0  0  0  0  0  0  0
  149.6187  140.5802  152.4315 H   0  0  0  0  0  0  0  0  0  0  0  0
  148.5061  138.9948  155.0333 H   0  0  0  0  0  0  0  0  0  0  0  0
  149.2672  139.0761  152.4743 H   0  0  0  0  0  0  0  0  0  0  0  0
  1  2  1  0  0  0  0
  1 27  1  0  0  0  0
  1 28  1  0  0  0  0
  1 29  1  0  0  0  0
  2 25  1  0  0  0  0
  2  3  2  0  0  0  0
  3  4  1  0  0  0  0
  3 30  1  0  0  0  0
  4  5  1  0  0  0  0
  4 22  1  0  0  0  0
  5 20  1  0  0  0  0
  5  6  1  0  0  0  0
  5 31  1  0  0  0  0
  6  7  1  0  0  0  0
  7  8  1  0  0  0  0
  7 18  1  0  0  0  0
  7 32  1  0  0  0  0
  8  9  1  0  0  0  0
  8 33  1  0  0  0  0
  8 34  1  0  0  0  0
  9 10  1  0  0  0  0
 10 11  2  0  0  0  0
 10 12  1  0  0  0  0
 12 17  1  0  0  0  0
 12 13  2  0  0  0  0
 13 14  1  0  0  0  0
 13 35  1  0  0  0  0
 14 15  2  0  0  0  0
 14 36  1  0  0  0  0
 15 16  1  0  0  0  0
 15 37  1  0  0  0  0
 16 17  2  0  0  0  0
 16 38  1  0  0  0  0
 17 39  1  0  0  0  0
 18 19  1  0  0  0  0
 18 20  1  0  0  0  0
 18 40  1  0  0  0  0
 19 41  1  0  0  0  0
 20 21  1  0  0  0  0
 20 42  1  0  0  0  0
 21 43  1  0  0  0  0
 22 23  2  0  0  0  0
 22 24  1  0  0  0  0
 24 25  1  0  0  0  0
 25 26  2  0  0  0  0
M  CHG  1  24  -1
M  END
> <s_m_source_file>
AV-unprocessed.smi

> <i_m_source_file_index>
101

> <i_lp_mmshare_version>
43012

> <i_f3d_flags>
0

> <s_epik_input>
Tz1jMVtuSF1jKD1PKW4oW2NIXWMxW0NIM10pW0NAQEhdMk9bQ0BIXShbQ0BASF0oW09IXSlbQ0BIXTJbT0hdKVtDSDJdT0MoPU8pYzNbY0hdW2NIXVtjSF1bY0hdW2NIXTM=

> <s_epik_cmdline>
J2VwaWtfcHl0aG9uJywgJy1waCcsICc3LjAnLCAnLXRuJywgJzgnLCAnLW1hJywgJzIwMCcsICctbWV0YWxfYmluZGluZycsICctaW1hZScsICc8aW5maWxlLm1hZT4nLCAnLW9tYWUnLCAnPG91dGZpbGUubWFlPic=

> <r_lp_tautomer_probability>
0.999537

> <r_epik_Ionization_Penalty>
3.21006

> <r_epik_Ionization_Penalty_Charging>
5.75142e-08

> <r_epik_Ionization_Penalty_Neutral>
3.21006

> <r_epik_State_Penalty>
3.20925

> <r_epik_Charging_Adjusted_Penalty>
3.20925

> <i_epik_Tot_Q>
-1

> <i_epik_Tot_abs_Q>
1

> <r_epik_Metal_State_Penalty>
0.119957

> <b_epik_Metal_Only>
1

> <s_epik_Chemistry_Notes>
This compound has an ester and may undergo hydrolysis at high or low pH. This compound contains an acetal/aminal-like group ( X-CH(R)-Y where X, Y are N, S, or O) that may be acid/base labile, releasing an aldehyde.

> <s_lp_Force_Field>
OPLS_2005

> <r_lp_Energy>
48.7646

> <b_lp_Chiralities_Consistent>
1

> <s_lp_Variant>
AV-unprocessed.smi:101-20

> <Gold.Version>
5.8.1

> <Gold.Id.Protein>
6NUR|6NUR_protein|mol2

> <Gold.PLP.Fitness>
49.7854

> <Gold.PLP.PLP>
-39.2368

> <Gold.PLP.part.hbond>
-4.3347

> <Gold.PLP.part.metal>
0.0000

> <Gold.PLP.part.buried>
-3.6263

> <Gold.PLP.part.nonpolar>
-31.1058

> <Gold.PLP.part.repulsive>
0.1856

> <Gold.PLP.ligand.clash>
0.0000

> <Gold.PLP.ligand.torsion>
0.6658

> <Gold.PLP.Chemscore.Hbond>
3.9161

> <Gold.PLP.Chemscore.CHOScore>
0.0000

> <Gold.PLP.Chemscore.Metal>
0.0000

> <Gold.Chemscore.Hbonds>
donor molecule, donor type, donor heavy atom, donor atom, acceptor molecule, acceptor atom, score
      L1  H    19    41       P1  7957  0.62
      L1  H    21    43       P1  7957  1.00
      P1  H  8011  8017       L1    19  0.40

> <Gold.PLP.Chemscore.Internal.Correction>
0.1320

> <Gold.Rescore>
     Score         DG    S(hbond)    S(metal)    S(lipo)     H(rot)  DE(clash)    DE(int)     intcor
     17.68     -18.77       2.91        0.00     101.81       3.27       0.24       0.85       ----

> <Gold.Chemscore.Fitness>
17.6781

> <Gold.Chemscore.DG>
-18.7658

> <Gold.Chemscore.ZeroCoef>
-5.4800

> <Gold.Chemscore.Hbond>
2.9144

> <Gold.Chemscore.Metal>
0.0000

> <Gold.Chemscore.Lipo>
101.8096

> <Gold.Chemscore.Internal_Hbond>
0.0000

> <Gold.Chemscore.DEClash>
0.2409

> <Gold.Chemscore.DEInternal>
0.8468

> <Gold.Chemscore.Rot>
3.2656

> <Gold.Chemscore.Internal.Correction>
   9.000000E+99

> <Gold.Chemscore.Hbonds>
donor molecule, donor type, donor heavy atom, donor atom, acceptor molecule, acceptor atom, score
      L1  H    19    41       P1  7957  0.60
      L1  H    21    43       P1  7957  0.98
      P1  H  8011  8017       L1    19  0.01

> <Gold.Chemscore.Hbond.Weighted>
-9.7339

> <Gold.Chemscore.Metal.Weighted>
-0.0000

> <Gold.Chemscore.Lipo.Weighted>
-11.9117

> <Gold.Chemscore.Internal_Hbond.Weighted>
0.0000

> <Gold.Chemscore.DEClash.Weighted>
0.2409

> <Gold.Chemscore.DEInternal.Weighted>
0.8468

> <Gold.Chemscore.Rot.Weighted>
8.3598

> <Gold.Chemscore.Internal.Correction.Weighted>
   9.000000E+99

> <Gold.Protein.RotatedTorsions>
[ 6907 6896 6895 6894 ] final  119.42 input  -60.11 | X-H torsion
[ 7974 7965 7964 7962 ] final -178.47 input  175.53 | X-H torsion
[ 8008 7997 7996 7995 ] final   41.48 input   59.86 | X-H torsion
[ 10167 10162 10161 10158 ] final -165.35 input  -65.29 | X-H torsion
[ 10718 10713 10712 10709 ] final  174.47 input   66.30 | X-H torsion
[ 10763 10752 10751 10750 ] final  -47.42 input  -60.55 | X-H torsion
[ 11005 11000 10999 10996 ] final  -63.12 input  -57.11 | X-H torsion

> <Gold.Protein.ActiveResidues>
 VAL166  LYS551  ARG553  GLY616  TRP617  ASP618  TYR619  PRO620  LYS621  CYS622 
 ASP623  PHE694  ASN695  SER759  ASP760  ASP761  ALA762  ILE779  LEU786  VAL792 
 PHE793  MET794  SER795  GLU796  ALA797  LYS798  CYS799  TRP800  GLU811  SER814 

> <Gold.Protein.RotatedAtoms>
  152.4473  133.7561  159.6720 H   0  0  0  0  0  0  0  0  0  0  0  0  # atno 6907 bound_to 6896
  150.8376  133.7978  159.3079 H   0  0  0  0  0  0  0  0  0  0  0  0  # atno 6908 bound_to 6896
  151.5612  135.1068  160.0025 H   0  0  0  0  0  0  0  0  0  0  0  0  # atno 6909 bound_to 6896
  144.7131  140.0863  143.6423 H   0  0  0  0  0  0  0  0  0  0  0  0  # atno 7974 bound_to 7965
  155.2703  140.3365  155.4266 H   0  0  0  0  0  0  0  0  0  0  0  0  # atno 8008 bound_to 7997
  156.2136  140.1780  156.7682 H   0  0  0  0  0  0  0  0  0  0  0  0  # atno 8009 bound_to 7997
  154.5721  140.0668  156.8964 H   0  0  0  0  0  0  0  0  0  0  0  0  # atno 8010 bound_to 7997
  139.6188  144.0666  152.1913 H   0  0  0  0  0  0  0  0  0  0  0  0  # atno 10167 bound_to 10162
  156.9492  131.0025  151.2952 H   0  0  0  0  0  0  0  0  0  0  0  0  # atno 10718 bound_to 10713
  154.0611  135.6618  153.4812 H   0  0  0  0  0  0  0  0  0  0  0  0  # atno 10763 bound_to 10752
  153.0426  135.5135  154.7658 H   0  0  0  0  0  0  0  0  0  0  0  0  # atno 10764 bound_to 10752
  154.6694  135.3027  154.9728 H   0  0  0  0  0  0  0  0  0  0  0  0  # atno 10765 bound_to 10752
  141.1382  133.6648  156.5632 H   0  0  0  0  0  0  0  0  0  0  0  0  # atno 11005 bound_to 11000
  145.9659  139.2834  143.1128 LP  0  0  0  0  0  0  0  0  0  0  0  0  # atno 17320 bound_to 7965
  145.9170  140.9141  143.0424 LP  0  0  0  0  0  0  0  0  0  0  0  0  # atno 17321 bound_to 7965
  140.0303  144.6086  150.7493 LP  0  0  0  0  0  0  0  0  0  0  0  0  # atno 17342 bound_to 10162
  140.7368  143.2758  151.3747 LP  0  0  0  0  0  0  0  0  0  0  0  0  # atno 17343 bound_to 10162
  157.5733  130.8326  149.8422 LP  0  0  0  0  0  0  0  0  0  0  0  0  # atno 17370 bound_to 10713
  156.0370  130.3748  150.1534 LP  0  0  0  0  0  0  0  0  0  0  0  0  # atno 17371 bound_to 10713
  140.3972  134.7388  157.4758 LP  0  0  0  0  0  0  0  0  0  0  0  0  # atno 17394 bound_to 11000
  140.0523  134.6113  155.8847 LP  0  0  0  0  0  0  0  0  0  0  0  0  # atno 17395 bound_to 11000

$$$$
