AV-unprocessed.smi:3243|AV-procd|sdf|12397|dock3
  -GOLD-   2272018273D 1   1.00000     0.00000
 Structure written by MMmdl.
 37 38  0  0  0  0  0  0  0  0  1 V2000
  154.0060  140.9923  160.6239 C   0  0  0  0  0  0  0  0  0  0  0  0
  153.4643  142.4177  160.8043 C   0  0  0  0  0  0  0  0  0  0  0  0
  152.8100  142.6445  162.1747 C   0  0  0  0  0  0  0  0  0  0  0  0
  152.5686  142.8263  159.6773 C   0  0  0  0  0  0  0  0  0  0  0  0
  151.6235  142.0376  159.1561 N   0  0  0  0  0  0  0  0  0  0  0  0
  150.9239  142.6491  158.1113 C   0  0  0  0  0  0  0  0  0  0  0  0
  149.8241  141.9083  157.4132 C   0  0  0  0  0  0  0  0  0  0  0  0
  150.0858  141.7628  155.9079 C   0  0  0  0  0  0  0  0  0  0  0  0
  149.1993  140.7639  155.3264 N   0  0  0  0  0  0  0  0  0  0  0  0
  149.6103  139.7128  154.6031 C   0  0  0  0  0  0  0  0  0  0  0  0
  150.7974  139.4889  154.3621 O   0  0  0  0  0  0  0  0  0  0  0  0
  148.4990  138.8404  154.1170 C   0  0  1  0  0  0  0  0  0  0  0  0
  147.1126  139.0989  154.6709 C   0  0  0  0  0  0  0  0  0  0  0  0
  147.4315  139.4734  153.2440 C   0  0  2  0  0  0  0  0  0  0  0  0
  146.8337  138.7027  152.0868 C   0  0  0  0  0  0  0  0  0  0  0  0
  151.3544  143.9251  157.8463 C   0  0  0  0  0  0  0  0  0  0  0  0
  152.6563  144.4035  158.9001 S   0  0  0  0  0  0  0  0  0  0  0  0
  154.5362  140.8912  159.6766 H   0  0  0  0  0  0  0  0  0  0  0  0
  153.2003  140.2576  160.6349 H   0  0  0  0  0  0  0  0  0  0  0  0
  154.7026  140.7329  161.4214 H   0  0  0  0  0  0  0  0  0  0  0  0
  154.3289  143.0815  160.7642 H   0  0  0  0  0  0  0  0  0  0  0  0
  152.5113  143.6858  162.2991 H   0  0  0  0  0  0  0  0  0  0  0  0
  153.4984  142.3999  162.9839 H   0  0  0  0  0  0  0  0  0  0  0  0
  151.9205  142.0255  162.2966 H   0  0  0  0  0  0  0  0  0  0  0  0
  149.7039  140.9195  157.8579 H   0  0  0  0  0  0  0  0  0  0  0  0
  148.8751  142.4233  157.5693 H   0  0  0  0  0  0  0  0  0  0  0  0
  149.9313  142.7187  155.4048 H   0  0  0  0  0  0  0  0  0  0  0  0
  151.1232  141.4709  155.7357 H   0  0  0  0  0  0  0  0  0  0  0  0
  148.2083  140.8813  155.4807 H   0  0  0  0  0  0  0  0  0  0  0  0
  148.7541  137.8022  153.9092 H   0  0  0  0  0  0  0  0  0  0  0  0
  146.4845  138.2284  154.8482 H   0  0  0  0  0  0  0  0  0  0  0  0
  146.9790  139.9121  155.3822 H   0  0  0  0  0  0  0  0  0  0  0  0
  147.5224  140.5402  153.0451 H   0  0  0  0  0  0  0  0  0  0  0  0
  146.7573  137.6414  152.3253 H   0  0  0  0  0  0  0  0  0  0  0  0
  147.4574  138.8157  151.2000 H   0  0  0  0  0  0  0  0  0  0  0  0
  145.8364  139.0808  151.8613 H   0  0  0  0  0  0  0  0  0  0  0  0
  150.9847  144.6110  157.0985 H   0  0  0  0  0  0  0  0  0  0  0  0
  1  2  1  0  0  0  0
  1 18  1  0  0  0  0
  1 19  1  0  0  0  0
  1 20  1  0  0  0  0
  2  3  1  0  0  0  0
  2  4  1  0  0  0  0
  2 21  1  0  0  0  0
  3 22  1  0  0  0  0
  3 23  1  0  0  0  0
  3 24  1  0  0  0  0
  4 17  1  0  0  0  0
  4  5  2  0  0  0  0
  5  6  1  0  0  0  0
  6  7  1  0  0  0  0
  6 16  2  0  0  0  0
  7  8  1  0  0  0  0
  7 25  1  0  0  0  0
  7 26  1  0  0  0  0
  8  9  1  0  0  0  0
  8 27  1  0  0  0  0
  8 28  1  0  0  0  0
  9 10  1  0  0  0  0
  9 29  1  0  0  0  0
 10 11  2  0  0  0  0
 10 12  1  0  0  0  0
 12 14  1  0  0  0  0
 12 13  1  0  0  0  0
 12 30  1  0  0  0  0
 13 14  1  0  0  0  0
 13 31  1  0  0  0  0
 13 32  1  0  0  0  0
 14 15  1  0  0  0  0
 14 33  1  0  0  0  0
 15 34  1  0  0  0  0
 15 35  1  0  0  0  0
 15 36  1  0  0  0  0
 16 17  1  0  0  0  0
 16 37  1  0  0  0  0
M  END
> <s_m_source_file>
AV-unprocessed.smi

> <i_m_source_file_index>
3243

> <i_lp_mmshare_version>
43012

> <i_f3d_flags>
0

> <s_epik_input>
W0NIM11bQ0hdKFtDSDNdKWMxbmMoW2NIXXMxKVtDSDJdW0NIMl1bTkhdQyg9TylbQ0BASF0yW0NIMl1bQ0BIXTJbQ0gzXQ==

> <s_epik_cmdline>
J2VwaWtfcHl0aG9uJywgJy1waCcsICc3LjAnLCAnLXRuJywgJzgnLCAnLW1hJywgJzIwMCcsICctbWV0YWxfYmluZGluZycsICctaW1hZScsICc8aW5maWxlLm1hZT4nLCAnLW9tYWUnLCAnPG91dGZpbGUubWFlPic=

> <r_epik_Ionization_Penalty>
0.00084212

> <r_epik_Ionization_Penalty_Charging>
0

> <r_epik_Ionization_Penalty_Neutral>
0.00084212

> <r_epik_State_Penalty>
0.000542609

> <r_epik_Charging_Adjusted_Penalty>
0.000542609

> <i_epik_Tot_Q>
0

> <i_epik_Tot_abs_Q>
0

> <r_epik_Metal_State_Penalty>
-0

> <b_epik_Metal_Only>
0

> <s_lp_Force_Field>
OPLS_2005

> <r_lp_Energy>
-2.05964

> <b_lp_Chiralities_Consistent>
1

> <s_lp_Variant>
AV-unprocessed.smi:3243-4

> <Gold.Version>
5.8.1

> <Gold.Id.Protein>
6NUR|6NUR_protein|mol2

> <Gold.PLP.Fitness>
45.8896

> <Gold.PLP.PLP>
-41.2071

> <Gold.PLP.part.hbond>
-1.0000

> <Gold.PLP.part.metal>
0.0000

> <Gold.PLP.part.buried>
-2.2854

> <Gold.PLP.part.nonpolar>
-38.5637

> <Gold.PLP.part.repulsive>
0.2436

> <Gold.PLP.ligand.clash>
0.0425

> <Gold.PLP.ligand.torsion>
0.7129

> <Gold.PLP.Chemscore.Hbond>
1.0000

> <Gold.PLP.Chemscore.CHOScore>
1.0000

> <Gold.PLP.Chemscore.Metal>
0.0000

> <Gold.Chemscore.Hbonds>
donor molecule, donor type, donor heavy atom, donor atom, acceptor molecule, acceptor atom, score
      P1  H  7989  7998       L1    11  1.00
      L1  C    16    37       P1  8028  1.00

> <Gold.PLP.Chemscore.Internal.Correction>
0.1508

> <Gold.Rescore>
     Score         DG    S(hbond)    S(metal)    S(lipo)     H(rot)  DE(clash)    DE(int)     intcor
     18.18     -18.69       0.99        0.00     117.02       1.49       0.10       0.41       ----

> <Gold.Chemscore.Fitness>
18.1792

> <Gold.Chemscore.DG>
-18.6860

> <Gold.Chemscore.ZeroCoef>
-5.4800

> <Gold.Chemscore.Hbond>
0.9942

> <Gold.Chemscore.Metal>
0.0000

> <Gold.Chemscore.Lipo>
117.0247

> <Gold.Chemscore.Internal_Hbond>
0.0000

> <Gold.Chemscore.DEClash>
0.0978

> <Gold.Chemscore.DEInternal>
0.4090

> <Gold.Chemscore.Rot>
1.4870

> <Gold.Chemscore.Internal.Correction>
   9.000000E+99

> <Gold.Chemscore.Hbonds>
donor molecule, donor type, donor heavy atom, donor atom, acceptor molecule, acceptor atom, score
      P1  H  7989  7998       L1    11  0.88

> <Gold.Chemscore.Hbond.Weighted>
-3.3208

> <Gold.Chemscore.Metal.Weighted>
-0.0000

> <Gold.Chemscore.Lipo.Weighted>
-13.6919

> <Gold.Chemscore.Internal_Hbond.Weighted>
0.0000

> <Gold.Chemscore.DEClash.Weighted>
0.0978

> <Gold.Chemscore.DEInternal.Weighted>
0.4090

> <Gold.Chemscore.Rot.Weighted>
3.8067

> <Gold.Chemscore.Internal.Correction.Weighted>
   9.000000E+99

> <Gold.Protein.RotatedTorsions>
[ 6907 6896 6895 6894 ] final  -82.52 input  -60.11 | X-H torsion
[ 7974 7965 7964 7962 ] final -104.03 input  175.53 | X-H torsion
[ 8008 7997 7996 7995 ] final   48.81 input   59.86 | X-H torsion
[ 10167 10162 10161 10158 ] final  -39.12 input  -65.29 | X-H torsion
[ 10718 10713 10712 10709 ] final   82.38 input   66.30 | X-H torsion
[ 10763 10752 10751 10750 ] final   74.85 input  -60.55 | X-H torsion
[ 11005 11000 10999 10996 ] final -149.03 input  -57.11 | X-H torsion

> <Gold.Protein.ActiveResidues>
 VAL166  LYS551  ARG553  GLY616  TRP617  ASP618  TYR619  PRO620  LYS621  CYS622 
 ASP623  PHE694  ASN695  SER759  ASP760  ASP761  ALA762  ILE779  LEU786  VAL792 
 PHE793  MET794  SER795  GLU796  ALA797  LYS798  CYS799  TRP800  GLU811  SER814 

> <Gold.Protein.RotatedAtoms>
  150.6896  134.3653  159.4967 H   0  0  0  0  0  0  0  0  0  0  0  0  # atno 6907 bound_to 6896
  152.1476  134.9011  160.0559 H   0  0  0  0  0  0  0  0  0  0  0  0  # atno 6908 bound_to 6896
  152.0121  133.3830  159.4261 H   0  0  0  0  0  0  0  0  0  0  0  0  # atno 6909 bound_to 6896
  145.2484  140.9229  143.3109 H   0  0  0  0  0  0  0  0  0  0  0  0  # atno 7974 bound_to 7965
  155.3918  140.3433  155.4252 H   0  0  0  0  0  0  0  0  0  0  0  0  # atno 8008 bound_to 7997
  156.1553  140.1583  156.8736 H   0  0  0  0  0  0  0  0  0  0  0  0  # atno 8009 bound_to 7997
  154.5089  140.0795  156.7932 H   0  0  0  0  0  0  0  0  0  0  0  0  # atno 8010 bound_to 7997
  140.7073  143.3234  151.2737 H   0  0  0  0  0  0  0  0  0  0  0  0  # atno 10167 bound_to 10162
  157.6856  131.0045  150.2367 H   0  0  0  0  0  0  0  0  0  0  0  0  # atno 10718 bound_to 10713
  153.0614  135.5010  154.8103 H   0  0  0  0  0  0  0  0  0  0  0  0  # atno 10763 bound_to 10752
  154.6889  135.2981  154.9510 H   0  0  0  0  0  0  0  0  0  0  0  0  # atno 10764 bound_to 10752
  154.0272  135.6734  153.4830 H   0  0  0  0  0  0  0  0  0  0  0  0  # atno 10765 bound_to 10752
  140.7550  134.3363  157.5116 H   0  0  0  0  0  0  0  0  0  0  0  0  # atno 11005 bound_to 11000
  144.9525  139.4067  143.6395 LP  0  0  0  0  0  0  0  0  0  0  0  0  # atno 17320 bound_to 7965
  146.3309  139.8540  142.8868 LP  0  0  0  0  0  0  0  0  0  0  0  0  # atno 17321 bound_to 7965
  139.6695  144.0045  152.2744 LP  0  0  0  0  0  0  0  0  0  0  0  0  # atno 17342 bound_to 10162
  139.9639  144.6539  150.8053 LP  0  0  0  0  0  0  0  0  0  0  0  0  # atno 17343 bound_to 10162
  156.2989  130.3756  149.7769 LP  0  0  0  0  0  0  0  0  0  0  0  0  # atno 17370 bound_to 10713
  156.5406  130.8298  151.3267 LP  0  0  0  0  0  0  0  0  0  0  0  0  # atno 17371 bound_to 10713
  139.8780  134.9166  156.3159 LP  0  0  0  0  0  0  0  0  0  0  0  0  # atno 17394 bound_to 11000
  140.9716  133.7324  156.0542 LP  0  0  0  0  0  0  0  0  0  0  0  0  # atno 17395 bound_to 11000

$$$$
