AV-unprocessed.smi:77|AV-procd|sdf|773|dock6
  -GOLD-   2262017123D 1   1.00000     0.00000
 Structure written by MMmdl.
 57 61  0  0  0  0  0  0  0  0  1 V2000
  149.5496  132.5866  154.1545 O   0  0  0  0  0  0  0  0  0  0  0  0
  149.2741  133.7404  153.8208 C   0  0  0  0  0  0  0  0  0  0  0  0
  150.0667  134.9339  154.3703 C   0  0  0  0  0  0  0  0  0  0  0  0
  149.9799  135.0621  155.8308 N   0  0  0  0  0  0  0  0  0  0  0  0
  150.3863  136.2376  156.3907 C   0  0  0  0  0  0  0  0  0  0  0  0
  150.8983  136.2258  157.6519 N   0  0  0  0  0  0  0  0  0  0  0  0
  151.3047  137.3550  158.2373 C   0  0  0  0  0  0  0  0  0  0  0  0
  151.2922  138.5960  157.7512 N   0  0  0  0  0  0  0  0  0  0  0  0
  150.7862  138.6233  156.4858 C   0  0  0  0  0  0  0  0  0  0  0  0
  150.3153  137.5054  155.7373 C   0  0  0  0  0  0  0  0  0  0  0  0
  149.8890  137.9356  154.4848 N   0  0  0  0  0  0  0  0  0  0  0  0
  150.0915  139.2240  154.4940 C   0  0  0  0  0  0  0  0  0  0  0  0
  150.6321  139.7205  155.6565 N   0  0  0  0  0  0  0  0  0  0  0  0
  150.9580  141.1084  155.9364 C   0  0  0  0  0  0  0  0  0  0  0  0
  150.7567  141.5034  157.4217 C   0  0  2  0  0  0  0  0  0  0  0  0
  149.2938  141.9412  157.6933 C   0  0  0  0  0  0  0  0  0  0  0  0
  148.3719  140.9167  157.3858 O   0  0  0  0  0  0  0  0  0  0  0  0
  151.7860  142.5956  157.8252 C   0  0  1  0  0  0  0  0  0  0  0  0
  151.3921  144.0293  157.5123 C   0  0  0  0  0  0  0  0  0  0  0  0
  152.3324  144.8260  158.4081 C   0  0  0  0  0  0  0  0  0  0  0  0
  152.4982  144.0350  159.5777 O   0  0  0  0  0  0  0  0  0  0  0  0
  152.0417  142.7080  159.3344 C   0  0  0  0  0  0  0  0  0  0  0  0
  148.9188  134.3079  156.4983 C   0  0  0  0  0  0  0  0  0  0  0  0
  148.7077  134.4886  157.9859 C   0  0  0  0  0  0  0  0  0  0  0  0
  149.2939  133.2014  157.4579 C   0  0  0  0  0  0  0  0  0  0  0  0
  148.2867  134.0435  152.9660 N   0  0  0  0  0  0  0  0  0  0  0  0
  147.4266  133.1019  152.3256 C   0  0  0  0  0  0  0  0  0  0  0  0
  146.4611  133.6284  151.2861 C   0  0  0  0  0  0  0  0  0  0  0  0
  145.9459  133.1827  152.6266 C   0  0  0  0  0  0  0  0  0  0  0  0
  151.1030  134.8642  154.0362 H   0  0  0  0  0  0  0  0  0  0  0  0
  149.6734  135.8425  153.9114 H   0  0  0  0  0  0  0  0  0  0  0  0
  151.6970  137.2476  159.2377 H   0  0  0  0  0  0  0  0  0  0  0  0
  149.8545  139.8508  153.6465 H   0  0  0  0  0  0  0  0  0  0  0  0
  151.9937  141.2593  155.6325 H   0  0  0  0  0  0  0  0  0  0  0  0
  150.3535  141.7482  155.2923 H   0  0  0  0  0  0  0  0  0  0  0  0
  150.9535  140.6111  158.0186 H   0  0  0  0  0  0  0  0  0  0  0  0
  149.1675  142.2510  158.7310 H   0  0  0  0  0  0  0  0  0  0  0  0
  149.0074  142.7915  157.0766 H   0  0  0  0  0  0  0  0  0  0  0  0
  148.5777  140.5754  156.5288 H   0  0  0  0  0  0  0  0  0  0  0  0
  152.7373  142.3902  157.3312 H   0  0  0  0  0  0  0  0  0  0  0  0
  151.5094  144.2905  156.4604 H   0  0  0  0  0  0  0  0  0  0  0  0
  150.3557  144.2131  157.7999 H   0  0  0  0  0  0  0  0  0  0  0  0
  153.3044  144.9446  157.9275 H   0  0  0  0  0  0  0  0  0  0  0  0
  151.9468  145.8179  158.6448 H   0  0  0  0  0  0  0  0  0  0  0  0
  151.1184  142.5593  159.8960 H   0  0  0  0  0  0  0  0  0  0  0  0
  152.7711  141.9787  159.6877 H   0  0  0  0  0  0  0  0  0  0  0  0
  148.0214  134.1371  155.9062 H   0  0  0  0  0  0  0  0  0  0  0  0
  149.3774  135.1629  158.5163 H   0  0  0  0  0  0  0  0  0  0  0  0
  147.6839  134.4641  158.3528 H   0  0  0  0  0  0  0  0  0  0  0  0
  148.6610  132.3167  157.4728 H   0  0  0  0  0  0  0  0  0  0  0  0
  150.3491  133.0208  157.6507 H   0  0  0  0  0  0  0  0  0  0  0  0
  148.1339  135.0178  152.7494 H   0  0  0  0  0  0  0  0  0  0  0  0
  147.8248  132.1049  152.1417 H   0  0  0  0  0  0  0  0  0  0  0  0
  146.4666  134.6972  151.0805 H   0  0  0  0  0  0  0  0  0  0  0  0
  146.2500  132.9910  150.4298 H   0  0  0  0  0  0  0  0  0  0  0  0
  145.3913  132.2473  152.6666 H   0  0  0  0  0  0  0  0  0  0  0  0
  145.6076  133.9536  153.3168 H   0  0  0  0  0  0  0  0  0  0  0  0
  1  2  2  0  0  0  0
  2  3  1  0  0  0  0
  2 26  1  0  0  0  0
  3  4  1  0  0  0  0
  3 30  1  0  0  0  0
  3 31  1  0  0  0  0
  4  5  1  0  0  0  0
  4 23  1  0  0  0  0
  5 10  1  0  0  0  0
  5  6  2  0  0  0  0
  6  7  1  0  0  0  0
  7  8  2  0  0  0  0
  7 32  1  0  0  0  0
  8  9  1  0  0  0  0
  9 13  1  0  0  0  0
  9 10  2  0  0  0  0
 10 11  1  0  0  0  0
 11 12  2  0  0  0  0
 12 13  1  0  0  0  0
 12 33  1  0  0  0  0
 13 14  1  0  0  0  0
 14 15  1  0  0  0  0
 14 34  1  0  0  0  0
 14 35  1  0  0  0  0
 15 16  1  0  0  0  0
 15 18  1  0  0  0  0
 15 36  1  0  0  0  0
 16 17  1  0  0  0  0
 16 37  1  0  0  0  0
 16 38  1  0  0  0  0
 17 39  1  0  0  0  0
 18 22  1  0  0  0  0
 18 19  1  0  0  0  0
 18 40  1  0  0  0  0
 19 20  1  0  0  0  0
 19 41  1  0  0  0  0
 19 42  1  0  0  0  0
 20 21  1  0  0  0  0
 20 43  1  0  0  0  0
 20 44  1  0  0  0  0
 21 22  1  0  0  0  0
 22 45  1  0  0  0  0
 22 46  1  0  0  0  0
 23 25  1  0  0  0  0
 23 24  1  0  0  0  0
 23 47  1  0  0  0  0
 24 25  1  0  0  0  0
 24 48  1  0  0  0  0
 24 49  1  0  0  0  0
 25 50  1  0  0  0  0
 25 51  1  0  0  0  0
 26 27  1  0  0  0  0
 26 52  1  0  0  0  0
 27 29  1  0  0  0  0
 27 28  1  0  0  0  0
 27 53  1  0  0  0  0
 28 29  1  0  0  0  0
 28 54  1  0  0  0  0
 28 55  1  0  0  0  0
 29 56  1  0  0  0  0
 29 57  1  0  0  0  0
M  END
> <s_m_source_file>
AV-unprocessed.smi

> <i_m_source_file_index>
77

> <i_lp_mmshare_version>
43012

> <i_f3d_flags>
0

> <s_epik_input>
W0NIMl0xW0NIMl1bQ0hdMVtOSF1DKD1PKVtDSDJdTihbQ0hdMltDSDJdW0NIMl0yKWMobltjSF1uMyljKGMzNCluW2NIXW40W0NIMl1bQ0BIXShbQ0gyXVtPSF0pW0NAQEhdNVtDSDJdW0NIMl1PW0NIMl01

> <s_epik_cmdline>
J2VwaWtfcHl0aG9uJywgJy1waCcsICc3LjAnLCAnLXRuJywgJzgnLCAnLW1hJywgJzIwMCcsICctbWV0YWxfYmluZGluZycsICctaW1hZScsICc8aW5maWxlLm1hZT4nLCAnLW9tYWUnLCAnPG91dGZpbGUubWFlPic=

> <r_lp_tautomer_probability>
1

> <r_epik_Ionization_Penalty>
0.000703847

> <r_epik_Ionization_Penalty_Charging>
0

> <r_epik_Ionization_Penalty_Neutral>
0.000703847

> <r_epik_State_Penalty>
0.00034025

> <r_epik_Charging_Adjusted_Penalty>
0.00034025

> <i_epik_Tot_Q>
0

> <i_epik_Tot_abs_Q>
0

> <r_epik_Metal_State_Penalty>
-0

> <b_epik_Metal_Only>
0

> <s_lp_Force_Field>
OPLS_2005

> <r_lp_Energy>
53.8068

> <b_lp_Chiralities_Consistent>
1

> <s_lp_Variant>
AV-unprocessed.smi:77-3

> <Gold.Version>
5.8.1

> <Gold.Id.Protein>
6NUR|6NUR_protein|mol2

> <Gold.PLP.Fitness>
48.5762

> <Gold.PLP.PLP>
-44.9271

> <Gold.PLP.part.hbond>
-2.0000

> <Gold.PLP.part.metal>
0.0000

> <Gold.PLP.part.buried>
-7.2782

> <Gold.PLP.part.nonpolar>
-36.1928

> <Gold.PLP.part.repulsive>
0.2347

> <Gold.PLP.ligand.clash>
0.0000

> <Gold.PLP.ligand.torsion>
2.4596

> <Gold.PLP.Chemscore.Hbond>
1.4839

> <Gold.PLP.Chemscore.CHOScore>
0.7643

> <Gold.PLP.Chemscore.Metal>
0.0000

> <Gold.Chemscore.Hbonds>
donor molecule, donor type, donor heavy atom, donor atom, acceptor molecule, acceptor atom, score
      L1  H    26    52       P1  7948  0.69
      L1  C    12    33       P1  7957  1.00

> <Gold.PLP.Chemscore.Internal.Correction>
1.8235

> <Gold.Rescore>
     Score         DG    S(hbond)    S(metal)    S(lipo)     H(rot)  DE(clash)    DE(int)     intcor
      4.35     -12.44       1.44        0.00      94.27       3.47       0.09       8.01       ----

> <Gold.Chemscore.Fitness>
4.3455

> <Gold.Chemscore.DG>
-12.4415

> <Gold.Chemscore.ZeroCoef>
-5.4800

> <Gold.Chemscore.Hbond>
1.4413

> <Gold.Chemscore.Metal>
0.0000

> <Gold.Chemscore.Lipo>
94.2694

> <Gold.Chemscore.Internal_Hbond>
0.0000

> <Gold.Chemscore.DEClash>
0.0901

> <Gold.Chemscore.DEInternal>
8.0060

> <Gold.Chemscore.Rot>
3.4695

> <Gold.Chemscore.Internal.Correction>
   9.000000E+99

> <Gold.Chemscore.Hbonds>
donor molecule, donor type, donor heavy atom, donor atom, acceptor molecule, acceptor atom, score
      L1  H    26    52       P1  7948  0.62

> <Gold.Chemscore.Hbond.Weighted>
-4.8140

> <Gold.Chemscore.Metal.Weighted>
-0.0000

> <Gold.Chemscore.Lipo.Weighted>
-11.0295

> <Gold.Chemscore.Internal_Hbond.Weighted>
0.0000

> <Gold.Chemscore.DEClash.Weighted>
0.0901

> <Gold.Chemscore.DEInternal.Weighted>
8.0060

> <Gold.Chemscore.Rot.Weighted>
8.8820

> <Gold.Chemscore.Internal.Correction.Weighted>
   9.000000E+99

> <Gold.Protein.RotatedTorsions>
[ 6907 6896 6895 6894 ] final -168.92 input  -60.11 | X-H torsion
[ 7974 7965 7964 7962 ] final   25.85 input  175.53 | X-H torsion
[ 8008 7997 7996 7995 ] final  114.74 input   59.86 | X-H torsion
[ 10167 10162 10161 10158 ] final  -92.45 input  -65.29 | X-H torsion
[ 10718 10713 10712 10709 ] final  -95.68 input   66.30 | X-H torsion
[ 10763 10752 10751 10750 ] final  -30.30 input  -60.55 | X-H torsion
[ 11005 11000 10999 10996 ] final -160.75 input  -57.11 | X-H torsion

> <Gold.Protein.ActiveResidues>
 VAL166  LYS551  ARG553  GLY616  TRP617  ASP618  TYR619  PRO620  LYS621  CYS622 
 ASP623  PHE694  ASN695  SER759  ASP760  ASP761  ALA762  ILE779  LEU786  VAL792 
 PHE793  MET794  SER795  GLU796  ALA797  LYS798  CYS799  TRP800  GLU811  SER814 

> <Gold.Protein.RotatedAtoms>
  151.4833  133.3541  159.2841 H   0  0  0  0  0  0  0  0  0  0  0  0  # atno 6907 bound_to 6896
  150.8882  134.8285  159.7285 H   0  0  0  0  0  0  0  0  0  0  0  0  # atno 6908 bound_to 6896
  152.4806  134.4740  159.9696 H   0  0  0  0  0  0  0  0  0  0  0  0  # atno 6909 bound_to 6896
  146.1868  139.7409  142.8861 H   0  0  0  0  0  0  0  0  0  0  0  0  # atno 7974 bound_to 7965
  156.2339  140.2953  156.0261 H   0  0  0  0  0  0  0  0  0  0  0  0  # atno 8008 bound_to 7997
  155.2146  140.0413  157.2956 H   0  0  0  0  0  0  0  0  0  0  0  0  # atno 8009 bound_to 7997
  154.6044  140.2435  155.7757 H   0  0  0  0  0  0  0  0  0  0  0  0  # atno 8010 bound_to 7997
  140.3347  143.2975  151.9903 H   0  0  0  0  0  0  0  0  0  0  0  0  # atno 10167 bound_to 10162
  156.0048  130.5119  150.6113 H   0  0  0  0  0  0  0  0  0  0  0  0  # atno 10718 bound_to 10713
  153.7787  135.6907  153.4892 H   0  0  0  0  0  0  0  0  0  0  0  0  # atno 10763 bound_to 10752
  153.1826  135.4501  155.0046 H   0  0  0  0  0  0  0  0  0  0  0  0  # atno 10764 bound_to 10752
  154.8090  135.3369  154.7292 H   0  0  0  0  0  0  0  0  0  0  0  0  # atno 10765 bound_to 10752
  140.6280  134.4680  157.5228 H   0  0  0  0  0  0  0  0  0  0  0  0  # atno 11005 bound_to 11000
  145.3915  141.0373  143.3121 LP  0  0  0  0  0  0  0  0  0  0  0  0  # atno 17320 bound_to 7965
  144.8411  139.5470  143.6900 LP  0  0  0  0  0  0  0  0  0  0  0  0  # atno 17321 bound_to 7965
  139.4850  144.6206  151.7262 LP  0  0  0  0  0  0  0  0  0  0  0  0  # atno 17342 bound_to 10162
  140.5365  144.0648  150.6072 LP  0  0  0  0  0  0  0  0  0  0  0  0  # atno 17343 bound_to 10162
  157.3945  131.0800  151.1364 LP  0  0  0  0  0  0  0  0  0  0  0  0  # atno 17370 bound_to 10713
  157.2046  130.6410  149.5751 LP  0  0  0  0  0  0  0  0  0  0  0  0  # atno 17371 bound_to 10713
  139.9127  134.8311  156.1472 LP  0  0  0  0  0  0  0  0  0  0  0  0  # atno 17394 bound_to 11000
  141.0695  133.6803  156.2112 LP  0  0  0  0  0  0  0  0  0  0  0  0  # atno 17395 bound_to 11000

$$$$
