AV-unprocessed.smi:1732|AV-procd|sdf|6976|dock7
  -GOLD-   22720 8193D 1   1.00000     0.00000
 Structure written by MMmdl.
 36 37  0  0  0  0  0  0  0  0  1 V2000
  149.9361  139.7048  158.5031 O   0  0  0  0  0  0  0  0  0  0  0  0
  150.7793  140.4783  158.0509 C   0  0  0  0  0  0  0  0  0  0  0  0
  152.0562  140.7398  158.8475 C   0  0  0  0  0  0  0  0  0  0  0  0
  151.7653  141.6633  159.8869 O   0  0  0  0  0  0  0  0  0  0  0  0
  152.3691  142.9357  159.7107 C   0  0  0  0  0  0  0  0  0  0  0  0
  151.7744  143.9443  160.6908 C   0  0  0  0  0  0  0  0  0  0  0  0
  152.0988  145.3043  160.0709 C   0  0  0  0  0  0  0  0  0  0  0  0
  152.1293  145.0754  158.5520 C   0  0  0  0  0  0  0  0  0  0  0  0
  152.0757  143.5555  158.3394 C   0  0  0  0  0  0  0  0  0  0  0  0
  150.6976  141.1179  156.8672 N   0  0  0  0  0  0  0  0  0  0  0  0
  149.6573  141.1237  155.9233 C   0  0  0  0  0  0  0  0  0  0  0  0
  148.4692  141.7640  156.0803 C   0  0  0  0  0  0  0  0  0  0  0  0
  147.4423  141.7473  155.0519 C   0  0  0  0  0  0  0  0  0  0  0  0
  146.0862  142.3997  155.2715 C   0  0  0  0  0  0  0  0  0  0  0  0
  146.0393  143.0385  156.4413 F   0  0  0  0  0  0  0  0  0  0  0  0
  145.8158  143.2768  154.3046 F   0  0  0  0  0  0  0  0  0  0  0  0
  145.1311  141.4708  155.2673 F   0  0  0  0  0  0  0  0  0  0  0  0
  147.7253  141.0566  153.9320 C   0  0  0  0  0  0  0  0  0  0  0  0
  148.9525  140.4143  153.7539 N   0  0  0  0  0  0  0  0  0  0  0  0
  149.9431  140.3995  154.6736 C   0  0  0  0  0  0  0  0  0  0  0  0
  150.9970  139.8077  154.4414 O   0  0  0  0  0  0  0  0  0  0  0  0
  149.0946  139.9304  152.8791 H   0  0  0  0  0  0  0  0  0  0  0  0
  152.4313  139.8045  159.2665 H   0  0  0  0  0  0  0  0  0  0  0  0
  152.8173  141.1337  158.1732 H   0  0  0  0  0  0  0  0  0  0  0  0
  153.4468  142.8788  159.8757 H   0  0  0  0  0  0  0  0  0  0  0  0
  150.6921  143.8166  160.7433 H   0  0  0  0  0  0  0  0  0  0  0  0
  152.1716  143.8349  161.7005 H   0  0  0  0  0  0  0  0  0  0  0  0
  151.3788  146.0697  160.3624 H   0  0  0  0  0  0  0  0  0  0  0  0
  153.0821  145.6338  160.4089 H   0  0  0  0  0  0  0  0  0  0  0  0
  151.2838  145.5594  158.0620 H   0  0  0  0  0  0  0  0  0  0  0  0
  153.0387  145.4988  158.1245 H   0  0  0  0  0  0  0  0  0  0  0  0
  152.7725  143.2181  157.5718 H   0  0  0  0  0  0  0  0  0  0  0  0
  151.0721  143.2736  158.0178 H   0  0  0  0  0  0  0  0  0  0  0  0
  151.5070  141.6610  156.6019 H   0  0  0  0  0  0  0  0  0  0  0  0
  148.2576  142.3318  156.9716 H   0  0  0  0  0  0  0  0  0  0  0  0
  147.0450  140.9393  153.1013 H   0  0  0  0  0  0  0  0  0  0  0  0
  1  2  2  0  0  0  0
  2  3  1  0  0  0  0
  2 10  1  0  0  0  0
  3  4  1  0  0  0  0
  3 23  1  0  0  0  0
  3 24  1  0  0  0  0
  4  5  1  0  0  0  0
  5  9  1  0  0  0  0
  5  6  1  0  0  0  0
  5 25  1  0  0  0  0
  6  7  1  0  0  0  0
  6 26  1  0  0  0  0
  6 27  1  0  0  0  0
  7  8  1  0  0  0  0
  7 28  1  0  0  0  0
  7 29  1  0  0  0  0
  8  9  1  0  0  0  0
  8 30  1  0  0  0  0
  8 31  1  0  0  0  0
  9 32  1  0  0  0  0
  9 33  1  0  0  0  0
 10 11  1  0  0  0  0
 10 34  1  0  0  0  0
 11 20  1  0  0  0  0
 11 12  2  0  0  0  0
 12 13  1  0  0  0  0
 12 35  1  0  0  0  0
 13 14  1  0  0  0  0
 13 18  2  0  0  0  0
 14 15  1  0  0  0  0
 14 16  1  0  0  0  0
 14 17  1  0  0  0  0
 18 19  1  0  0  0  0
 18 36  1  0  0  0  0
 19 22  1  0  0  0  0
 19 20  1  0  0  0  0
 20 21  2  0  0  0  0
M  END
> <s_m_source_file>
AV-unprocessed.smi

> <i_m_source_file_index>
1732

> <i_lp_mmshare_version>
43012

> <i_f3d_flags>
0

> <s_epik_input>
W0NIMl0xW0NIMl1bQ0gyXVtDSDJdW0NIXTFPW0NIMl1DKD1PKVtOSF1jMltjSF1jKEMoRikoRilGKVtjSF1bbkhdYzI9Tw==

> <s_epik_cmdline>
J2VwaWtfcHl0aG9uJywgJy1waCcsICc3LjAnLCAnLXRuJywgJzgnLCAnLW1hJywgJzIwMCcsICctbWV0YWxfYmluZGluZycsICctaW1hZScsICc8aW5maWxlLm1hZT4nLCAnLW9tYWUnLCAnPG91dGZpbGUubWFlPic=

> <r_lp_tautomer_probability>
0.999

> <r_epik_Ionization_Penalty>
0.0109735

> <r_epik_Ionization_Penalty_Charging>
0.0109734

> <r_epik_Ionization_Penalty_Neutral>
9.17026e-08

> <r_epik_State_Penalty>
0.0084206

> <r_epik_Charging_Adjusted_Penalty>
0.019394

> <i_epik_Tot_Q>
0

> <i_epik_Tot_abs_Q>
0

> <r_epik_Metal_State_Penalty>
0.328349

> <b_epik_Metal_Only>
0

> <s_lp_Force_Field>
OPLS_2005

> <r_lp_Energy>
36.3652

> <b_lp_Chiralities_Consistent>
1

> <s_lp_Variant>
AV-unprocessed.smi:1732-1

> <Gold.Version>
5.8.1

> <Gold.Id.Protein>
6NUR|6NUR_protein|mol2

> <Gold.PLP.Fitness>
45.9742

> <Gold.PLP.PLP>
-42.7682

> <Gold.PLP.part.hbond>
-2.5088

> <Gold.PLP.part.metal>
0.0000

> <Gold.PLP.part.buried>
-4.4905

> <Gold.PLP.part.nonpolar>
-36.5409

> <Gold.PLP.part.repulsive>
0.3237

> <Gold.PLP.ligand.clash>
0.0000

> <Gold.PLP.ligand.torsion>
1.3715

> <Gold.PLP.Chemscore.Hbond>
1.9600

> <Gold.PLP.Chemscore.CHOScore>
0.0000

> <Gold.PLP.Chemscore.Metal>
0.0000

> <Gold.Chemscore.Hbonds>
donor molecule, donor type, donor heavy atom, donor atom, acceptor molecule, acceptor atom, score
      L1  H    19    22       P1  7957  0.94
      P1  H  7989  7998       L1    21  0.90

> <Gold.PLP.Chemscore.Internal.Correction>
0.0690

> <Gold.Rescore>
     Score         DG    S(hbond)    S(metal)    S(lipo)     H(rot)  DE(clash)    DE(int)     intcor
     16.57     -17.93       1.84        0.00      88.91       1.60       0.04       1.32       ----

> <Gold.Chemscore.Fitness>
16.5708

> <Gold.Chemscore.DG>
-17.9336

> <Gold.Chemscore.ZeroCoef>
-5.4800

> <Gold.Chemscore.Hbond>
1.8413

> <Gold.Chemscore.Metal>
0.0000

> <Gold.Chemscore.Lipo>
88.9064

> <Gold.Chemscore.Internal_Hbond>
0.0000

> <Gold.Chemscore.DEClash>
0.0398

> <Gold.Chemscore.DEInternal>
1.3230

> <Gold.Chemscore.Rot>
1.6009

> <Gold.Chemscore.Internal.Correction>
   9.000000E+99

> <Gold.Chemscore.Hbonds>
donor molecule, donor type, donor heavy atom, donor atom, acceptor molecule, acceptor atom, score
      L1  H    19    22       P1  7957  0.91
      P1  H  7989  7998       L1    21  0.17

> <Gold.Chemscore.Hbond.Weighted>
-6.1498

> <Gold.Chemscore.Metal.Weighted>
-0.0000

> <Gold.Chemscore.Lipo.Weighted>
-10.4021

> <Gold.Chemscore.Internal_Hbond.Weighted>
0.0000

> <Gold.Chemscore.DEClash.Weighted>
0.0398

> <Gold.Chemscore.DEInternal.Weighted>
1.3230

> <Gold.Chemscore.Rot.Weighted>
4.0982

> <Gold.Chemscore.Internal.Correction.Weighted>
   9.000000E+99

> <Gold.Protein.RotatedTorsions>
[ 6907 6896 6895 6894 ] final -169.73 input  -60.11 | X-H torsion
[ 7974 7965 7964 7962 ] final  -38.53 input  175.53 | X-H torsion
[ 8008 7997 7996 7995 ] final -134.56 input   59.86 | X-H torsion
[ 10167 10162 10161 10158 ] final  160.97 input  -65.29 | X-H torsion
[ 10718 10713 10712 10709 ] final   31.37 input   66.30 | X-H torsion
[ 10763 10752 10751 10750 ] final  -48.38 input  -60.55 | X-H torsion
[ 11005 11000 10999 10996 ] final -135.28 input  -57.11 | X-H torsion

> <Gold.Protein.ActiveResidues>
 VAL166  LYS551  ARG553  GLY616  TRP617  ASP618  TYR619  PRO620  LYS621  CYS622 
 ASP623  PHE694  ASN695  SER759  ASP760  ASP761  ALA762  ILE779  LEU786  VAL792 
 PHE793  MET794  SER795  GLU796  ALA797  LYS798  CYS799  TRP800  GLU811  SER814 

> <Gold.Protein.RotatedAtoms>
  151.4963  133.3514  159.2861 H   0  0  0  0  0  0  0  0  0  0  0  0  # atno 6907 bound_to 6896
  150.8802  134.8194  159.7230 H   0  0  0  0  0  0  0  0  0  0  0  0  # atno 6908 bound_to 6896
  152.4757  134.4859  159.9732 H   0  0  0  0  0  0  0  0  0  0  0  0  # atno 6909 bound_to 6896
  146.0478  140.6522  142.9056 H   0  0  0  0  0  0  0  0  0  0  0  0  # atno 7974 bound_to 7965
  155.3641  140.0484  157.3046 H   0  0  0  0  0  0  0  0  0  0  0  0  # atno 8008 bound_to 7997
  154.5163  140.2209  155.9023 H   0  0  0  0  0  0  0  0  0  0  0  0  # atno 8009 bound_to 7997
  156.1640  140.3110  155.8862 H   0  0  0  0  0  0  0  0  0  0  0  0  # atno 8010 bound_to 7997
  139.4845  144.4582  151.8740 H   0  0  0  0  0  0  0  0  0  0  0  0  # atno 10167 bound_to 10162
  157.2716  130.7210  149.6507 H   0  0  0  0  0  0  0  0  0  0  0  0  # atno 10718 bound_to 10713
  154.0768  135.6597  153.4832 H   0  0  0  0  0  0  0  0  0  0  0  0  # atno 10763 bound_to 10752
  153.0370  135.5170  154.7512 H   0  0  0  0  0  0  0  0  0  0  0  0  # atno 10764 bound_to 10752
  154.6595  135.3013  154.9852 H   0  0  0  0  0  0  0  0  0  0  0  0  # atno 10765 bound_to 10752
  140.8913  134.1808  157.4525 H   0  0  0  0  0  0  0  0  0  0  0  0  # atno 11005 bound_to 11000
  144.7107  140.4027  143.7083 LP  0  0  0  0  0  0  0  0  0  0  0  0  # atno 17320 bound_to 7965
  145.6775  139.1611  143.2719 LP  0  0  0  0  0  0  0  0  0  0  0  0  # atno 17321 bound_to 7965
  140.4043  144.2453  150.5891 LP  0  0  0  0  0  0  0  0  0  0  0  0  # atno 17342 bound_to 10162
  140.5027  143.2313  151.8654 LP  0  0  0  0  0  0  0  0  0  0  0  0  # atno 17343 bound_to 10162
  155.9663  130.4366  150.5140 LP  0  0  0  0  0  0  0  0  0  0  0  0  # atno 17370 bound_to 10713
  157.3065  131.0655  151.2031 LP  0  0  0  0  0  0  0  0  0  0  0  0  # atno 17371 bound_to 10713
  139.8730  134.9859  156.5304 LP  0  0  0  0  0  0  0  0  0  0  0  0  # atno 17394 bound_to 11000
  140.8343  133.8254  155.9014 LP  0  0  0  0  0  0  0  0  0  0  0  0  # atno 17395 bound_to 11000

$$$$
