AV-unprocessed.smi:1919|AV-procd|sdf|7774|dock1
  -GOLD-   22720 9523D 1   1.00000     0.00000
 Structure written by MMmdl.
 36 38  0  0  0  0  0  0  0  0  1 V2000
  152.1851  137.1671  153.8622 O   0  0  0  0  0  0  0  0  0  0  0  0
  151.4929  137.7070  154.9697 C   0  0  0  0  0  0  0  0  0  0  0  0
  150.3563  138.6164  154.5966 C   0  0  0  0  0  0  0  0  0  0  0  0
  149.3562  138.2398  153.7957 N   0  0  0  0  0  0  0  0  0  0  0  0
  148.5698  139.3728  153.7320 C   0  0  0  0  0  0  0  0  0  0  0  0
  147.3602  139.6147  153.0424 C   0  0  0  0  0  0  0  0  0  0  0  0
  146.7296  140.8733  153.1272 C   0  0  0  0  0  0  0  0  0  0  0  0
  147.2984  141.9062  153.9004 C   0  0  0  0  0  0  0  0  0  0  0  0
  148.5030  141.6858  154.5958 C   0  0  0  0  0  0  0  0  0  0  0  0
  149.1275  140.4271  154.5081 C   0  0  0  0  0  0  0  0  0  0  0  0
  150.2893  139.8924  155.0548 N   0  0  0  0  0  0  0  0  0  0  0  0
  151.2189  140.5909  155.9325 C   0  0  0  0  0  0  0  0  0  0  0  0
  150.6526  140.7955  157.3519 C   0  0  1  0  0  0  0  0  0  0  0  0
  150.7548  139.5958  158.0942 O   0  0  0  0  0  0  0  0  0  0  0  0
  151.3272  141.9641  158.0522 C   0  0  0  0  0  0  0  0  0  0  0  0
  151.3513  143.2446  157.4562 C   0  0  0  0  0  0  0  0  0  0  0  0
  151.9742  144.3225  158.1151 C   0  0  0  0  0  0  0  0  0  0  0  0
  152.5736  144.1273  159.3742 C   0  0  0  0  0  0  0  0  0  0  0  0
  152.5474  142.8543  159.9754 C   0  0  0  0  0  0  0  0  0  0  0  0
  153.1196  142.6663  161.1879 F   0  0  0  0  0  0  0  0  0  0  0  0
  151.9251  141.7761  159.3167 C   0  0  0  0  0  0  0  0  0  0  0  0
  151.5541  136.9306  153.2001 H   0  0  0  0  0  0  0  0  0  0  0  0
  151.1145  136.8793  155.5688 H   0  0  0  0  0  0  0  0  0  0  0  0
  152.2012  138.2605  155.5862 H   0  0  0  0  0  0  0  0  0  0  0  0
  146.9175  138.8299  152.4472 H   0  0  0  0  0  0  0  0  0  0  0  0
  145.8051  141.0468  152.5962 H   0  0  0  0  0  0  0  0  0  0  0  0
  146.8093  142.8675  153.9592 H   0  0  0  0  0  0  0  0  0  0  0  0
  148.9411  142.4743  155.1894 H   0  0  0  0  0  0  0  0  0  0  0  0
  152.1667  140.0540  155.9678 H   0  0  0  0  0  0  0  0  0  0  0  0
  151.4394  141.5591  155.4810 H   0  0  0  0  0  0  0  0  0  0  0  0
  149.5873  141.0173  157.2743 H   0  0  0  0  0  0  0  0  0  0  0  0
  150.3276  138.9064  157.6092 H   0  0  0  0  0  0  0  0  0  0  0  0
  150.8909  143.4047  156.4922 H   0  0  0  0  0  0  0  0  0  0  0  0
  151.9913  145.2994  157.6549 H   0  0  0  0  0  0  0  0  0  0  0  0
  153.0509  144.9539  159.8797 H   0  0  0  0  0  0  0  0  0  0  0  0
  151.9083  140.8039  159.7874 H   0  0  0  0  0  0  0  0  0  0  0  0
  1  2  1  0  0  0  0
  1 22  1  0  0  0  0
  2  3  1  0  0  0  0
  2 23  1  0  0  0  0
  2 24  1  0  0  0  0
  3 11  1  0  0  0  0
  3  4  2  0  0  0  0
  4  5  1  0  0  0  0
  5 10  2  0  0  0  0
  5  6  1  0  0  0  0
  6  7  2  0  0  0  0
  6 25  1  0  0  0  0
  7  8  1  0  0  0  0
  7 26  1  0  0  0  0
  8  9  2  0  0  0  0
  8 27  1  0  0  0  0
  9 10  1  0  0  0  0
  9 28  1  0  0  0  0
 10 11  1  0  0  0  0
 11 12  1  0  0  0  0
 12 13  1  0  0  0  0
 12 29  1  0  0  0  0
 12 30  1  0  0  0  0
 13 14  1  0  0  0  0
 13 15  1  0  0  0  0
 13 31  1  0  0  0  0
 14 32  1  0  0  0  0
 15 21  1  0  0  0  0
 15 16  2  0  0  0  0
 16 17  1  0  0  0  0
 16 33  1  0  0  0  0
 17 18  2  0  0  0  0
 17 34  1  0  0  0  0
 18 19  1  0  0  0  0
 18 35  1  0  0  0  0
 19 20  1  0  0  0  0
 19 21  2  0  0  0  0
 21 36  1  0  0  0  0
M  END
> <s_m_source_file>
AV-unprocessed.smi

> <i_m_source_file_index>
1919

> <i_lp_mmshare_version>
43012

> <i_f3d_flags>
0

> <s_epik_input>
W2NIXTFbY0hdW2NIXVtjSF1jKGMxMiluKGMobjIpW0NIMl1bT0hdKVtDSDJdW0NASF0oW09IXSljM1tjSF1bY0hdW2NIXWMoRilbY0hdMw==

> <s_epik_cmdline>
J2VwaWtfcHl0aG9uJywgJy1waCcsICc3LjAnLCAnLXRuJywgJzgnLCAnLW1hJywgJzIwMCcsICctbWV0YWxfYmluZGluZycsICctaW1hZScsICc8aW5maWxlLm1hZT4nLCAnLW9tYWUnLCAnPG91dGZpbGUubWFlPic=

> <r_epik_Ionization_Penalty>
0.0634732

> <r_epik_Ionization_Penalty_Charging>
0

> <r_epik_Ionization_Penalty_Neutral>
0.0634732

> <r_epik_State_Penalty>
0.0551572

> <r_epik_Charging_Adjusted_Penalty>
0.0551572

> <i_epik_Tot_Q>
0

> <i_epik_Tot_abs_Q>
0

> <r_epik_Metal_State_Penalty>
5.78034e-05

> <b_epik_Metal_Only>
0

> <s_lp_Force_Field>
OPLS_2005

> <r_lp_Energy>
10.9494

> <b_lp_Chiralities_Consistent>
1

> <s_lp_Variant>
AV-unprocessed.smi:1919-2

> <Gold.Version>
5.8.1

> <Gold.Id.Protein>
6NUR|6NUR_protein|mol2

> <Gold.PLP.Fitness>
54.5684

> <Gold.PLP.PLP>
-49.4468

> <Gold.PLP.part.hbond>
-2.0000

> <Gold.PLP.part.metal>
0.0000

> <Gold.PLP.part.buried>
-0.6580

> <Gold.PLP.part.nonpolar>
-48.9524

> <Gold.PLP.part.repulsive>
2.2908

> <Gold.PLP.ligand.clash>
0.0000

> <Gold.PLP.ligand.torsion>
0.3940

> <Gold.PLP.Chemscore.Hbond>
1.9520

> <Gold.PLP.Chemscore.CHOScore>
0.0000

> <Gold.PLP.Chemscore.Metal>
0.0000

> <Gold.Chemscore.Hbonds>
donor molecule, donor type, donor heavy atom, donor atom, acceptor molecule, acceptor atom, score
      L1  H     1    22       P1  7949  0.96
      P1  H 10752 10765       L1     1  1.00

> <Gold.PLP.Chemscore.Internal.Correction>
0.0536

> <Gold.Rescore>
     Score         DG    S(hbond)    S(metal)    S(lipo)     H(rot)  DE(clash)    DE(int)     intcor
     14.90     -17.35       1.15        0.00     128.94       2.75       2.11       0.34       ----

> <Gold.Chemscore.Fitness>
14.8993

> <Gold.Chemscore.DG>
-17.3503

> <Gold.Chemscore.ZeroCoef>
-5.4800

> <Gold.Chemscore.Hbond>
1.1451

> <Gold.Chemscore.Metal>
0.0000

> <Gold.Chemscore.Lipo>
128.9379

> <Gold.Chemscore.Internal_Hbond>
0.0000

> <Gold.Chemscore.DEClash>
2.1116

> <Gold.Chemscore.DEInternal>
0.3394

> <Gold.Chemscore.Rot>
2.7500

> <Gold.Chemscore.Internal.Correction>
   9.000000E+99

> <Gold.Chemscore.Hbonds>
donor molecule, donor type, donor heavy atom, donor atom, acceptor molecule, acceptor atom, score
      L1  H     1    22       P1  7949  0.83
      P1  H 10752 10765       L1     1  0.27

> <Gold.Chemscore.Hbond.Weighted>
-3.8245

> <Gold.Chemscore.Metal.Weighted>
-0.0000

> <Gold.Chemscore.Lipo.Weighted>
-15.0857

> <Gold.Chemscore.Internal_Hbond.Weighted>
0.0000

> <Gold.Chemscore.DEClash.Weighted>
2.1116

> <Gold.Chemscore.DEInternal.Weighted>
0.3394

> <Gold.Chemscore.Rot.Weighted>
7.0399

> <Gold.Chemscore.Internal.Correction.Weighted>
   9.000000E+99

> <Gold.Protein.RotatedTorsions>
[ 6907 6896 6895 6894 ] final   30.12 input  -60.11 | X-H torsion
[ 7974 7965 7964 7962 ] final   84.77 input  175.53 | X-H torsion
[ 8008 7997 7996 7995 ] final  149.68 input   59.86 | X-H torsion
[ 10167 10162 10161 10158 ] final   69.26 input  -65.29 | X-H torsion
[ 10718 10713 10712 10709 ] final  112.20 input   66.30 | X-H torsion
[ 10763 10752 10751 10750 ] final  147.32 input  -60.55 | X-H torsion
[ 11005 11000 10999 10996 ] final -102.36 input  -57.11 | X-H torsion

> <Gold.Protein.ActiveResidues>
 VAL166  LYS551  ARG553  GLY616  TRP617  ASP618  TYR619  PRO620  LYS621  CYS622 
 ASP623  PHE694  ASN695  SER759  ASP760  ASP761  ALA762  ILE779  LEU786  VAL792 
 PHE793  MET794  SER795  GLU796  ALA797  LYS798  CYS799  TRP800  GLU811  SER814 

> <Gold.Protein.RotatedAtoms>
  152.0414  134.9709  160.0573 H   0  0  0  0  0  0  0  0  0  0  0  0  # atno 6907 bound_to 6896
  152.1146  133.4315  159.4655 H   0  0  0  0  0  0  0  0  0  0  0  0  # atno 6908 bound_to 6896
  150.6845  134.2526  159.4560 H   0  0  0  0  0  0  0  0  0  0  0  0  # atno 6909 bound_to 6896
  145.5943  139.2342  143.2282 H   0  0  0  0  0  0  0  0  0  0  0  0  # atno 7974 bound_to 7965
  156.2745  140.2095  156.5897 H   0  0  0  0  0  0  0  0  0  0  0  0  # atno 8008 bound_to 7997
  154.6992  140.0522  157.0464 H   0  0  0  0  0  0  0  0  0  0  0  0  # atno 8009 bound_to 7997
  155.0758  140.3181  155.4619 H   0  0  0  0  0  0  0  0  0  0  0  0  # atno 8010 bound_to 7997
  140.0698  144.5162  150.7235 H   0  0  0  0  0  0  0  0  0  0  0  0  # atno 10167 bound_to 10162
  157.6405  131.0964  150.6861 H   0  0  0  0  0  0  0  0  0  0  0  0  # atno 10718 bound_to 10713
  154.0364  135.2893  155.3361 H   0  0  0  0  0  0  0  0  0  0  0  0  # atno 10763 bound_to 10752
  154.6956  135.5209  153.8457 H   0  0  0  0  0  0  0  0  0  0  0  0  # atno 10764 bound_to 10752
  153.0618  135.6616  154.0573 H   0  0  0  0  0  0  0  0  0  0  0  0  # atno 10765 bound_to 10752
  141.1192  133.8552  157.1350 H   0  0  0  0  0  0  0  0  0  0  0  0  # atno 11005 bound_to 11000
  146.1624  140.6769  142.9271 LP  0  0  0  0  0  0  0  0  0  0  0  0  # atno 17320 bound_to 7965
  144.7337  140.4748  143.6919 LP  0  0  0  0  0  0  0  0  0  0  0  0  # atno 17321 bound_to 7965
  140.7131  143.2521  151.4519 LP  0  0  0  0  0  0  0  0  0  0  0  0  # atno 17342 bound_to 10162
  139.5843  144.1640  152.2008 LP  0  0  0  0  0  0  0  0  0  0  0  0  # atno 17343 bound_to 10162
  156.7185  130.4673  149.5529 LP  0  0  0  0  0  0  0  0  0  0  0  0  # atno 17370 bound_to 10713
  156.1681  130.6419  151.0804 LP  0  0  0  0  0  0  0  0  0  0  0  0  # atno 17371 bound_to 10713
  140.0136  134.9977  157.0448 LP  0  0  0  0  0  0  0  0  0  0  0  0  # atno 17394 bound_to 11000
  140.4557  134.1536  155.7186 LP  0  0  0  0  0  0  0  0  0  0  0  0  # atno 17395 bound_to 11000

$$$$
