AV-unprocessed.smi:1645|AV-procd|sdf|6603|dock3
  -GOLD-   22720 7303D 1   1.00000     0.00000
 Structure written by MMmdl.
 55 58  0  0  0  0  0  0  0  0  2 V2000
  149.9308  135.1248  156.2206 O   0  0  0  0  0  0  0  0  0  0  0  0
  149.6760  135.5260  155.0854 C   0  0  0  0  0  0  0  0  0  0  0  0
  149.8472  136.7838  154.6444 N   0  0  0  0  0  0  0  0  0  0  0  0
  150.3847  137.9018  155.3381 C   0  0  0  0  0  0  0  0  0  0  0  0
  150.7585  139.1204  154.7250 C   0  0  0  0  0  0  0  0  0  0  0  0
  151.2600  140.1620  155.5284 C   0  0  0  0  0  0  0  0  0  0  0  0
  151.3699  139.9689  156.9255 C   0  0  0  0  0  0  0  0  0  0  0  0
  151.8675  141.0034  157.7470 N   0  0  0  0  0  0  0  0  0  0  0  0
  151.1181  142.2604  157.6913 C   0  0  0  0  0  0  0  0  0  0  0  0
  151.9378  143.4228  158.2772 C   0  0  0  0  0  0  0  0  0  0  0  0
  152.4299  143.0928  159.6942 C   0  0  0  0  0  0  0  0  0  0  0  0
  153.2100  141.7701  159.6848 C   0  0  0  0  0  0  0  0  0  0  0  0
  152.3694  140.6359  159.0737 C   0  0  0  0  0  0  0  0  0  0  0  0
  151.0048  138.8016  157.5101 N   0  0  0  0  0  0  0  0  0  0  0  0
  150.5230  137.8066  156.7369 C   0  0  0  0  0  0  0  0  0  0  0  0
  149.1711  134.7390  154.1250 N   0  0  0  0  0  0  0  0  0  0  0  0
  148.8579  133.3215  154.2915 C   0  0  1  0  0  0  0  0  0  0  0  0
  147.8366  133.0504  155.4046 C   0  0  0  0  0  0  0  0  0  0  0  0
  147.0641  131.8010  154.9443 C   0  0  0  0  0  0  0  0  0  0  0  0
  147.6227  131.4349  153.6233 N   0  3  1  0  0  0  0  0  0  0  0  0
  146.7308  130.6683  152.7161 C   0  0  0  0  0  0  0  0  0  0  0  0
  145.6916  131.5582  152.0136 C   0  0  0  0  0  0  0  0  0  0  0  0
  146.3747  132.7305  151.3023 C   0  0  0  0  0  0  0  0  0  0  0  0
  147.1922  133.5400  152.3144 C   0  0  0  0  0  0  0  0  0  0  0  0
  148.2314  132.6571  153.0530 C   0  0  1  0  0  0  0  0  0  0  0  0
  149.5131  136.9773  153.7116 H   0  0  0  0  0  0  0  0  0  0  0  0
  150.6619  139.2843  153.6634 H   0  0  0  0  0  0  0  0  0  0  0  0
  151.5619  141.0897  155.0656 H   0  0  0  0  0  0  0  0  0  0  0  0
  150.8264  142.5122  156.6725 H   0  0  0  0  0  0  0  0  0  0  0  0
  150.1938  142.1372  158.2574 H   0  0  0  0  0  0  0  0  0  0  0  0
  152.7930  143.6272  157.6314 H   0  0  0  0  0  0  0  0  0  0  0  0
  151.3366  144.3322  158.2925 H   0  0  0  0  0  0  0  0  0  0  0  0
  153.0588  143.8987  160.0732 H   0  0  0  0  0  0  0  0  0  0  0  0
  151.5783  143.0139  160.3712 H   0  0  0  0  0  0  0  0  0  0  0  0
  154.1280  141.8930  159.1085 H   0  0  0  0  0  0  0  0  0  0  0  0
  153.5126  141.5057  160.6981 H   0  0  0  0  0  0  0  0  0  0  0  0
  151.5248  140.4054  159.7246 H   0  0  0  0  0  0  0  0  0  0  0  0
  152.9819  139.7358  159.0079 H   0  0  0  0  0  0  0  0  0  0  0  0
  150.2417  136.9016  157.2556 H   0  0  0  0  0  0  0  0  0  0  0  0
  148.9849  135.1480  153.2208 H   0  0  0  0  0  0  0  0  0  0  0  0
  149.7762  132.7867  154.5440 H   0  0  0  0  0  0  0  0  0  0  0  0
  148.3240  132.9006  156.3685 H   0  0  0  0  0  0  0  0  0  0  0  0
  147.1455  133.8879  155.5130 H   0  0  0  0  0  0  0  0  0  0  0  0
  147.1787  130.9703  155.6410 H   0  0  0  0  0  0  0  0  0  0  0  0
  146.0001  132.0284  154.8697 H   0  0  0  0  0  0  0  0  0  0  0  0
  147.3564  130.1875  151.9629 H   0  0  0  0  0  0  0  0  0  0  0  0
  146.2421  129.8659  153.2700 H   0  0  0  0  0  0  0  0  0  0  0  0
  145.1249  130.9666  151.2940 H   0  0  0  0  0  0  0  0  0  0  0  0
  144.9681  131.9358  152.7366 H   0  0  0  0  0  0  0  0  0  0  0  0
  147.0245  132.3601  150.5083 H   0  0  0  0  0  0  0  0  0  0  0  0
  145.6288  133.3680  150.8267 H   0  0  0  0  0  0  0  0  0  0  0  0
  147.6938  134.3599  151.7996 H   0  0  0  0  0  0  0  0  0  0  0  0
  146.5105  134.0007  153.0306 H   0  0  0  0  0  0  0  0  0  0  0  0
  149.0081  132.3637  152.3450 H   0  0  0  0  0  0  0  0  0  0  0  0
  148.3995  130.8245  153.8343 H   0  0  0  0  0  0  0  0  0  0  0  0
  1  2  2  0  0  0  0
  2  3  1  0  0  0  0
  2 16  1  0  0  0  0
  3  4  1  0  0  0  0
  3 26  1  0  0  0  0
  4 15  1  0  0  0  0
  4  5  2  0  0  0  0
  5  6  1  0  0  0  0
  5 27  1  0  0  0  0
  6  7  2  0  0  0  0
  6 28  1  0  0  0  0
  7  8  1  0  0  0  0
  7 14  1  0  0  0  0
  8 13  1  0  0  0  0
  8  9  1  0  0  0  0
  9 10  1  0  0  0  0
  9 29  1  0  0  0  0
  9 30  1  0  0  0  0
 10 11  1  0  0  0  0
 10 31  1  0  0  0  0
 10 32  1  0  0  0  0
 11 12  1  0  0  0  0
 11 33  1  0  0  0  0
 11 34  1  0  0  0  0
 12 13  1  0  0  0  0
 12 35  1  0  0  0  0
 12 36  1  0  0  0  0
 13 37  1  0  0  0  0
 13 38  1  0  0  0  0
 14 15  2  0  0  0  0
 15 39  1  0  0  0  0
 16 17  1  0  0  0  0
 16 40  1  0  0  0  0
 17 25  1  0  0  0  0
 17 18  1  0  0  0  0
 17 41  1  0  0  0  0
 18 19  1  0  0  0  0
 18 42  1  0  0  0  0
 18 43  1  0  0  0  0
 19 20  1  0  0  0  0
 19 44  1  0  0  0  0
 19 45  1  0  0  0  0
 20 25  1  0  0  0  0
 20 21  1  0  0  0  0
 20 55  1  0  0  0  0
 21 22  1  0  0  0  0
 21 46  1  0  0  0  0
 21 47  1  0  0  0  0
 22 23  1  0  0  0  0
 22 48  1  0  0  0  0
 22 49  1  0  0  0  0
 23 24  1  0  0  0  0
 23 50  1  0  0  0  0
 23 51  1  0  0  0  0
 24 25  1  0  0  0  0
 24 52  1  0  0  0  0
 24 53  1  0  0  0  0
 25 54  1  0  0  0  0
M  CHG  1  20   1
M  END
> <s_m_source_file>
AV-unprocessed.smi

> <i_m_source_file_index>
1645

> <i_lp_mmshare_version>
43012

> <i_f3d_flags>
0

> <s_epik_input>
W0NIMl0xW0NIMl1bQ0gyXVtDSDJdW0NASF0oTjEyKVtDQEBIXShbQ0gyXVtDSDJdMilbTkhdQyg9TylbTkhdYzNbY0hdW2NIXWMobltjSF0zKU40W0NIMl1bQ0gyXVtDSDJdW0NIMl1bQ0gyXTQ=

> <s_epik_cmdline>
J2VwaWtfcHl0aG9uJywgJy1waCcsICc3LjAnLCAnLXRuJywgJzgnLCAnLW1hJywgJzIwMCcsICctbWV0YWxfYmluZGluZycsICctaW1hZScsICc8aW5maWxlLm1hZT4nLCAnLW9tYWUnLCAnPG91dGZpbGUubWFlPic=

> <r_lp_tautomer_probability>
1

> <r_epik_Ionization_Penalty>
0.0808019

> <r_epik_Ionization_Penalty_Charging>
0.000974069

> <r_epik_Ionization_Penalty_Neutral>
0.0798278

> <r_epik_State_Penalty>
0.0653665

> <r_epik_Charging_Adjusted_Penalty>
0.0663406

> <i_epik_Tot_Q>
1

> <i_epik_Tot_abs_Q>
1

> <r_epik_Metal_State_Penalty>
0.0585673

> <b_epik_Metal_Only>
0

> <s_lp_Force_Field>
OPLS_2005

> <r_lp_Energy>
52.8365

> <b_lp_Chiralities_Consistent>
1

> <s_lp_Variant>
AV-unprocessed.smi:1645-4

> <Gold.Version>
5.8.1

> <Gold.Id.Protein>
6NUR|6NUR_protein|mol2

> <Gold.PLP.Fitness>
48.2336

> <Gold.PLP.PLP>
-42.6063

> <Gold.PLP.part.hbond>
-2.0000

> <Gold.PLP.part.metal>
0.0000

> <Gold.PLP.part.buried>
-3.2325

> <Gold.PLP.part.nonpolar>
-37.0477

> <Gold.PLP.part.repulsive>
0.0740

> <Gold.PLP.ligand.clash>
0.0000

> <Gold.PLP.ligand.torsion>
0.3195

> <Gold.PLP.Chemscore.Hbond>
1.9516

> <Gold.PLP.Chemscore.CHOScore>
0.0000

> <Gold.PLP.Chemscore.Metal>
0.0000

> <Gold.Chemscore.Hbonds>
donor molecule, donor type, donor heavy atom, donor atom, acceptor molecule, acceptor atom, score
      L1  H     3    26       P1  7948  0.91
      L1  H    16    40       P1  7948  1.00

> <Gold.PLP.Chemscore.Internal.Correction>
0.4116

> <Gold.Rescore>
     Score         DG    S(hbond)    S(metal)    S(lipo)     H(rot)  DE(clash)    DE(int)     intcor
     18.92     -20.83       1.42        0.00     116.22       1.17       0.11       1.80       ----

> <Gold.Chemscore.Fitness>
18.9207

> <Gold.Chemscore.DG>
-20.8333

> <Gold.Chemscore.ZeroCoef>
-5.4800

> <Gold.Chemscore.Hbond>
1.4249

> <Gold.Chemscore.Metal>
0.0000

> <Gold.Chemscore.Lipo>
116.2184

> <Gold.Chemscore.Internal_Hbond>
0.0000

> <Gold.Chemscore.DEClash>
0.1133

> <Gold.Chemscore.DEInternal>
1.7992

> <Gold.Chemscore.Rot>
1.1731

> <Gold.Chemscore.Internal.Correction>
   9.000000E+99

> <Gold.Chemscore.Hbonds>
donor molecule, donor type, donor heavy atom, donor atom, acceptor molecule, acceptor atom, score
      L1  H     3    26       P1  7948  0.74
      L1  H    16    40       P1  7948  0.30

> <Gold.Chemscore.Hbond.Weighted>
-4.7590

> <Gold.Chemscore.Metal.Weighted>
-0.0000

> <Gold.Chemscore.Lipo.Weighted>
-13.5976

> <Gold.Chemscore.Internal_Hbond.Weighted>
0.0000

> <Gold.Chemscore.DEClash.Weighted>
0.1133

> <Gold.Chemscore.DEInternal.Weighted>
1.7992

> <Gold.Chemscore.Rot.Weighted>
3.0032

> <Gold.Chemscore.Internal.Correction.Weighted>
   9.000000E+99

> <Gold.Protein.RotatedTorsions>
[ 6907 6896 6895 6894 ] final -175.23 input  -60.11 | X-H torsion
[ 7974 7965 7964 7962 ] final  -39.04 input  175.53 | X-H torsion
[ 8008 7997 7996 7995 ] final  -10.42 input   59.86 | X-H torsion
[ 10167 10162 10161 10158 ] final -168.69 input  -65.29 | X-H torsion
[ 10718 10713 10712 10709 ] final   25.76 input   66.30 | X-H torsion
[ 10763 10752 10751 10750 ] final  -93.34 input  -60.55 | X-H torsion
[ 11005 11000 10999 10996 ] final  -82.70 input  -57.11 | X-H torsion

> <Gold.Protein.ActiveResidues>
 VAL166  LYS551  ARG553  GLY616  TRP617  ASP618  TYR619  PRO620  LYS621  CYS622 
 ASP623  PHE694  ASN695  SER759  ASP760  ASP761  ALA762  ILE779  LEU786  VAL792 
 PHE793  MET794  SER795  GLU796  ALA797  LYS798  CYS799  TRP800  GLU811  SER814 

> <Gold.Protein.RotatedAtoms>
  151.5852  133.3373  159.3016 H   0  0  0  0  0  0  0  0  0  0  0  0  # atno 6907 bound_to 6896
  150.8291  134.7539  159.6849 H   0  0  0  0  0  0  0  0  0  0  0  0  # atno 6908 bound_to 6896
  152.4377  134.5660  159.9959 H   0  0  0  0  0  0  0  0  0  0  0  0  # atno 6909 bound_to 6896
  146.0432  140.6580  142.9077 H   0  0  0  0  0  0  0  0  0  0  0  0  # atno 7974 bound_to 7965
  154.5557  140.2329  155.8415 H   0  0  0  0  0  0  0  0  0  0  0  0  # atno 8008 bound_to 7997
  156.1986  140.3058  155.9438 H   0  0  0  0  0  0  0  0  0  0  0  0  # atno 8009 bound_to 7997
  155.2985  140.0430  157.3018 H   0  0  0  0  0  0  0  0  0  0  0  0  # atno 8010 bound_to 7997
  139.5969  144.1093  152.1699 H   0  0  0  0  0  0  0  0  0  0  0  0  # atno 10167 bound_to 10162
  157.1977  130.6875  149.6175 H   0  0  0  0  0  0  0  0  0  0  0  0  # atno 10718 bound_to 10713
  154.6949  135.5198  153.8444 H   0  0  0  0  0  0  0  0  0  0  0  0  # atno 10763 bound_to 10752
  153.0660  135.6585  154.0364 H   0  0  0  0  0  0  0  0  0  0  0  0  # atno 10764 bound_to 10752
  154.0232  135.2992  155.3358 H   0  0  0  0  0  0  0  0  0  0  0  0  # atno 10765 bound_to 10752
  141.1662  133.7257  156.8610 H   0  0  0  0  0  0  0  0  0  0  0  0  # atno 11005 bound_to 11000
  144.7085  140.3947  143.7099 LP  0  0  0  0  0  0  0  0  0  0  0  0  # atno 17320 bound_to 7965
  145.6849  139.1626  143.2680 LP  0  0  0  0  0  0  0  0  0  0  0  0  # atno 17321 bound_to 7965
  140.0680  144.5802  150.7213 LP  0  0  0  0  0  0  0  0  0  0  0  0  # atno 17342 bound_to 10162
  140.7219  143.2597  151.4250 LP  0  0  0  0  0  0  0  0  0  0  0  0  # atno 17343 bound_to 10162
  155.9704  130.4593  150.6032 LP  0  0  0  0  0  0  0  0  0  0  0  0  # atno 17370 bound_to 10713
  157.3798  131.0779  151.1486 LP  0  0  0  0  0  0  0  0  0  0  0  0  # atno 17371 bound_to 10713
  140.1848  134.9007  157.2992 LP  0  0  0  0  0  0  0  0  0  0  0  0  # atno 17394 bound_to 11000
  140.2354  134.3858  155.7503 LP  0  0  0  0  0  0  0  0  0  0  0  0  # atno 17395 bound_to 11000

$$$$
