AV-unprocessed.smi:2451|AV-procd|sdf|9669|dock2
  -GOLD-   2272013303D 1   1.00000     0.00000
 Structure written by MMmdl.
 38 39  0  0  0  0  0  0  0  0  1 V2000
  151.5842  145.8486  160.3574 C   0  0  0  0  0  0  0  0  0  0  0  0
  151.8286  144.3339  160.2348 C   0  0  2  0  0  0  0  0  0  0  0  0
  152.4798  143.8010  161.5271 C   0  0  0  0  0  0  0  0  0  0  0  0
  152.7092  142.2849  161.4719 C   0  0  0  0  0  0  0  0  0  0  0  0
  153.5627  141.8912  160.2575 C   0  0  0  0  0  0  0  0  0  0  0  0
  152.9789  142.4354  158.9414 C   0  0  1  0  0  0  0  0  0  0  0  0
  151.7809  141.6712  158.5707 N   0  0  0  0  0  0  0  0  0  0  0  0
  151.9663  140.0526  158.0058 S   0  0  0  0  0  0  0  0  0  0  0  0
  153.3708  139.6697  158.2159 O   0  0  0  0  0  0  0  0  0  0  0  0
  150.8887  139.2467  158.6003 O   0  0  0  0  0  0  0  0  0  0  0  0
  151.6472  140.2194  156.1991 C   0  0  0  0  0  0  0  0  0  0  0  0
  150.2624  140.7591  155.9802 C   0  0  0  0  0  0  0  0  0  0  0  0
  149.5677  140.9434  154.7527 C   0  0  0  0  0  0  0  0  0  0  0  0
  148.3648  141.4587  155.1410 C   0  0  0  0  0  0  0  0  0  0  0  0
  148.3134  141.5790  156.4914 O   0  0  0  0  0  0  0  0  0  0  0  0
  149.5290  141.1285  157.0186 N   0  0  0  0  0  0  0  0  0  0  0  0
  152.6859  143.9564  158.9963 C   0  0  1  0  0  0  0  0  0  0  0  0
  152.1132  144.4706  157.6604 C   0  0  0  0  0  0  0  0  0  0  0  0
  152.5233  146.4014  160.3935 H   0  0  0  0  0  0  0  0  0  0  0  0
  151.0277  146.0825  161.2654 H   0  0  0  0  0  0  0  0  0  0  0  0
  150.9995  146.2324  159.5217 H   0  0  0  0  0  0  0  0  0  0  0  0
  150.8531  143.8564  160.1325 H   0  0  0  0  0  0  0  0  0  0  0  0
  153.4320  144.3059  161.6963 H   0  0  0  0  0  0  0  0  0  0  0  0
  151.8508  144.0370  162.3862 H   0  0  0  0  0  0  0  0  0  0  0  0
  153.1940  141.9487  162.3889 H   0  0  0  0  0  0  0  0  0  0  0  0
  151.7480  141.7716  161.4276 H   0  0  0  0  0  0  0  0  0  0  0  0
  154.5689  142.2904  160.3907 H   0  0  0  0  0  0  0  0  0  0  0  0
  153.6716  140.8071  160.2076 H   0  0  0  0  0  0  0  0  0  0  0  0
  153.7274  142.2732  158.1642 H   0  0  0  0  0  0  0  0  0  0  0  0
  151.1796  142.2129  157.9503 H   0  0  0  0  0  0  0  0  0  0  0  0
  152.4000  140.8839  155.7751 H   0  0  0  0  0  0  0  0  0  0  0  0
  151.7699  139.2393  155.7375 H   0  0  0  0  0  0  0  0  0  0  0  0
  149.9021  140.7359  153.7470 H   0  0  0  0  0  0  0  0  0  0  0  0
  147.4839  141.7753  154.6024 H   0  0  0  0  0  0  0  0  0  0  0  0
  153.6521  144.4484  159.1213 H   0  0  0  0  0  0  0  0  0  0  0  0
  151.0898  144.1291  157.5034 H   0  0  0  0  0  0  0  0  0  0  0  0
  152.7123  144.1209  156.8190 H   0  0  0  0  0  0  0  0  0  0  0  0
  152.1111  145.5592  157.6155 H   0  0  0  0  0  0  0  0  0  0  0  0
  1  2  1  0  0  0  0
  1 19  1  0  0  0  0
  1 20  1  0  0  0  0
  1 21  1  0  0  0  0
  2 17  1  0  0  0  0
  2  3  1  0  0  0  0
  2 22  1  0  0  0  0
  3  4  1  0  0  0  0
  3 23  1  0  0  0  0
  3 24  1  0  0  0  0
  4  5  1  0  0  0  0
  4 25  1  0  0  0  0
  4 26  1  0  0  0  0
  5  6  1  0  0  0  0
  5 27  1  0  0  0  0
  5 28  1  0  0  0  0
  6  7  1  0  0  0  0
  6 17  1  0  0  0  0
  6 29  1  0  0  0  0
  7  8  1  0  0  0  0
  7 30  1  0  0  0  0
  8  9  2  0  0  0  0
  8 10  2  0  0  0  0
  8 11  1  0  0  0  0
 11 12  1  0  0  0  0
 11 31  1  0  0  0  0
 11 32  1  0  0  0  0
 12 16  2  0  0  0  0
 12 13  1  0  0  0  0
 13 14  2  0  0  0  0
 13 33  1  0  0  0  0
 14 15  1  0  0  0  0
 14 34  1  0  0  0  0
 15 16  1  0  0  0  0
 17 18  1  0  0  0  0
 17 35  1  0  0  0  0
 18 36  1  0  0  0  0
 18 37  1  0  0  0  0
 18 38  1  0  0  0  0
M  END
> <s_m_source_file>
AV-unprocessed.smi

> <i_m_source_file_index>
2451

> <i_lp_mmshare_version>
43012

> <i_f3d_flags>
0

> <s_epik_input>
W0NIM11bQ0BASF0xW0NIMl1bQ0gyXVtDSDJdW0NASF0oW0NASF0xW0NIM10pW05IXVMoPU8pKD1PKVtDSDJdYzJbY0hdW2NIXW9uMg==

> <s_epik_cmdline>
J2VwaWtfcHl0aG9uJywgJy1waCcsICc3LjAnLCAnLXRuJywgJzgnLCAnLW1hJywgJzIwMCcsICctbWV0YWxfYmluZGluZycsICctaW1hZScsICc8aW5maWxlLm1hZT4nLCAnLW9tYWUnLCAnPG91dGZpbGUubWFlPic=

> <r_lp_tautomer_probability>
1

> <r_epik_Ionization_Penalty>
8.73668e-05

> <r_epik_Ionization_Penalty_Charging>
0

> <r_epik_Ionization_Penalty_Neutral>
8.73668e-05

> <r_epik_State_Penalty>
-0

> <r_epik_Charging_Adjusted_Penalty>
0

> <i_epik_Tot_Q>
0

> <i_epik_Tot_abs_Q>
0

> <r_epik_Metal_State_Penalty>
0.0716439

> <b_epik_Metal_Only>
0

> <s_lp_Force_Field>
OPLS_2005

> <r_lp_Energy>
9.22722

> <b_lp_Chiralities_Consistent>
1

> <s_lp_Variant>
AV-unprocessed.smi:2451-1

> <Gold.Version>
5.8.1

> <Gold.Id.Protein>
6NUR|6NUR_protein|mol2

> <Gold.PLP.Fitness>
45.4954

> <Gold.PLP.PLP>
-43.2138

> <Gold.PLP.part.hbond>
-1.0000

> <Gold.PLP.part.metal>
0.0000

> <Gold.PLP.part.buried>
-2.2910

> <Gold.PLP.part.nonpolar>
-39.0981

> <Gold.PLP.part.repulsive>
0.1968

> <Gold.PLP.ligand.clash>
0.0000

> <Gold.PLP.ligand.torsion>
0.4326

> <Gold.PLP.Chemscore.Hbond>
1.0000

> <Gold.PLP.Chemscore.CHOScore>
0.0000

> <Gold.PLP.Chemscore.Metal>
0.0000

> <Gold.Chemscore.Hbonds>
donor molecule, donor type, donor heavy atom, donor atom, acceptor molecule, acceptor atom, score
      P1  H  7997  8009       L1     9  1.00

> <Gold.PLP.Chemscore.Internal.Correction>
0.1467

> <Gold.Rescore>
     Score         DG    S(hbond)    S(metal)    S(lipo)     H(rot)  DE(clash)    DE(int)     intcor
     15.62     -18.95       0.99        0.00     123.06       1.66       0.03       3.30       ----

> <Gold.Chemscore.Fitness>
15.6212

> <Gold.Chemscore.DG>
-18.9500

> <Gold.Chemscore.ZeroCoef>
-5.4800

> <Gold.Chemscore.Hbond>
0.9934

> <Gold.Chemscore.Metal>
0.0000

> <Gold.Chemscore.Lipo>
123.0642

> <Gold.Chemscore.Internal_Hbond>
0.0000

> <Gold.Chemscore.DEClash>
0.0272

> <Gold.Chemscore.DEInternal>
3.3016

> <Gold.Chemscore.Rot>
1.6588

> <Gold.Chemscore.Internal.Correction>
   9.000000E+99

> <Gold.Chemscore.Hbonds>
donor molecule, donor type, donor heavy atom, donor atom, acceptor molecule, acceptor atom, score
      P1  H  7997  8009       L1     9  0.99

> <Gold.Chemscore.Hbond.Weighted>
-3.3181

> <Gold.Chemscore.Metal.Weighted>
-0.0000

> <Gold.Chemscore.Lipo.Weighted>
-14.3985

> <Gold.Chemscore.Internal_Hbond.Weighted>
0.0000

> <Gold.Chemscore.DEClash.Weighted>
0.0272

> <Gold.Chemscore.DEInternal.Weighted>
3.3016

> <Gold.Chemscore.Rot.Weighted>
4.2466

> <Gold.Chemscore.Internal.Correction.Weighted>
   9.000000E+99

> <Gold.Protein.RotatedTorsions>
[ 6907 6896 6895 6894 ] final  103.14 input  -60.11 | X-H torsion
[ 7974 7965 7964 7962 ] final  125.95 input  175.53 | X-H torsion
[ 8008 7997 7996 7995 ] final  152.89 input   59.86 | X-H torsion
[ 10167 10162 10161 10158 ] final -112.96 input  -65.29 | X-H torsion
[ 10718 10713 10712 10709 ] final -156.10 input   66.30 | X-H torsion
[ 10763 10752 10751 10750 ] final   47.35 input  -60.55 | X-H torsion
[ 11005 11000 10999 10996 ] final   71.77 input  -57.11 | X-H torsion

> <Gold.Protein.ActiveResidues>
 VAL166  LYS551  ARG553  GLY616  TRP617  ASP618  TYR619  PRO620  LYS621  CYS622 
 ASP623  PHE694  ASN695  SER759  ASP760  ASP761  ALA762  ILE779  LEU786  VAL792 
 PHE793  MET794  SER795  GLU796  ALA797  LYS798  CYS799  TRP800  GLU811  SER814 

> <Gold.Protein.RotatedAtoms>
  152.5304  133.9869  159.7832 H   0  0  0  0  0  0  0  0  0  0  0  0  # atno 6907 bound_to 6896
  151.0113  133.5955  159.2689 H   0  0  0  0  0  0  0  0  0  0  0  0  # atno 6908 bound_to 6896
  151.3028  135.0780  159.9298 H   0  0  0  0  0  0  0  0  0  0  0  0  # atno 6909 bound_to 6896
  145.0672  139.3758  143.4976 H   0  0  0  0  0  0  0  0  0  0  0  0  # atno 7974 bound_to 7965
  156.2608  140.2008  156.6404 H   0  0  0  0  0  0  0  0  0  0  0  0  # atno 8008 bound_to 7997
  154.6613  140.0560  157.0090 H   0  0  0  0  0  0  0  0  0  0  0  0  # atno 8009 bound_to 7997
  155.1271  140.3230  155.4486 H   0  0  0  0  0  0  0  0  0  0  0  0  # atno 8010 bound_to 7997
  140.1170  143.4477  152.1716 H   0  0  0  0  0  0  0  0  0  0  0  0  # atno 10167 bound_to 10162
  156.5220  130.8482  151.2685 H   0  0  0  0  0  0  0  0  0  0  0  0  # atno 10718 bound_to 10713
  152.9801  135.5979  154.3748 H   0  0  0  0  0  0  0  0  0  0  0  0  # atno 10763 bound_to 10752
  154.3418  135.2767  155.2420 H   0  0  0  0  0  0  0  0  0  0  0  0  # atno 10764 bound_to 10752
  154.4498  135.5992  153.6239 H   0  0  0  0  0  0  0  0  0  0  0  0  # atno 10765 bound_to 10752
  139.9526  134.7201  156.0828 H   0  0  0  0  0  0  0  0  0  0  0  0  # atno 11005 bound_to 11000
  146.3527  140.0399  142.8644 LP  0  0  0  0  0  0  0  0  0  0  0  0  # atno 17320 bound_to 7965
  145.1337  140.9532  143.4529 LP  0  0  0  0  0  0  0  0  0  0  0  0  # atno 17321 bound_to 7965
  139.5589  144.7392  151.4213 LP  0  0  0  0  0  0  0  0  0  0  0  0  # atno 17342 bound_to 10162
  140.6894  143.7898  150.7232 LP  0  0  0  0  0  0  0  0  0  0  0  0  # atno 17343 bound_to 10162
  157.7435  130.9914  150.2600 LP  0  0  0  0  0  0  0  0  0  0  0  0  # atno 17370 bound_to 10713
  156.3141  130.3776  149.7635 LP  0  0  0  0  0  0  0  0  0  0  0  0  # atno 17371 bound_to 10713
  141.1191  133.6618  156.3170 LP  0  0  0  0  0  0  0  0  0  0  0  0  # atno 17394 bound_to 11000
  140.5684  134.5864  157.5451 LP  0  0  0  0  0  0  0  0  0  0  0  0  # atno 17395 bound_to 11000

$$$$
