AV-unprocessed.smi:1965|AV-procd|sdf|7939|dock8
  -GOLD-   2272010103D 1   1.00000     0.00000
 Structure written by MMmdl.
 37 39  0  0  0  0  0  0  0  0  2 V2000
  147.0958  129.8042  153.9514 O   0  0  0  0  0  0  0  0  0  0  0  0
  147.4896  130.0961  152.8235 C   0  0  0  0  0  0  0  0  0  0  0  0
  147.9777  129.1524  151.9903 N   0  0  0  0  0  0  0  0  0  0  0  0
  148.1489  127.7465  152.1508 C   0  0  0  0  0  0  0  0  0  0  0  0
  148.0923  127.0883  153.3161 N   0  0  0  0  0  0  0  0  0  0  0  0
  148.3125  125.7173  153.1602 C   0  0  0  0  0  0  0  0  0  0  0  0
  148.5441  125.3443  151.8603 C   0  0  0  0  0  0  0  0  0  0  0  0
  148.4938  126.7074  150.7751 S   0  0  0  0  0  0  0  0  0  0  0  0
  147.4671  131.3531  152.3509 N   0  0  0  0  0  0  0  0  0  0  0  0
  146.9855  132.5260  153.0730 C   0  0  1  0  0  0  0  0  0  0  0  0
  147.9742  133.0309  154.1172 C   0  0  0  0  0  0  0  0  0  0  0  0
  147.4995  134.4673  154.3431 C   0  0  0  0  0  0  0  0  0  0  0  0
  146.9829  134.9361  153.0365 N   0  3  2  0  0  0  0  0  0  0  0  0
  145.8198  135.8524  153.1260 C   0  0  0  0  0  0  0  0  0  0  0  0
  145.3672  136.2974  151.7228 C   0  0  0  0  0  0  0  0  0  0  0  0
  145.1828  135.1189  150.7439 C   0  0  0  0  0  0  0  0  0  0  0  0
  145.4446  133.7583  151.4078 C   0  0  0  0  0  0  0  0  0  0  0  0
  146.7965  133.7469  152.1571 C   0  0  2  0  0  0  0  0  0  0  0  0
  148.2986  129.5087  151.1015 H   0  0  0  0  0  0  0  0  0  0  0  0
  148.2885  125.0785  154.0306 H   0  0  0  0  0  0  0  0  0  0  0  0
  148.7417  124.3541  151.4769 H   0  0  0  0  0  0  0  0  0  0  0  0
  147.8110  131.5034  151.4126 H   0  0  0  0  0  0  0  0  0  0  0  0
  146.0481  132.2984  153.5853 H   0  0  0  0  0  0  0  0  0  0  0  0
  147.9711  132.4352  155.0305 H   0  0  0  0  0  0  0  0  0  0  0  0
  148.9889  133.0314  153.7148 H   0  0  0  0  0  0  0  0  0  0  0  0
  146.6964  134.4668  155.0821 H   0  0  0  0  0  0  0  0  0  0  0  0
  148.2929  135.1165  154.7143 H   0  0  0  0  0  0  0  0  0  0  0  0
  144.9984  135.3554  153.6449 H   0  0  0  0  0  0  0  0  0  0  0  0
  146.0880  136.7232  153.7252 H   0  0  0  0  0  0  0  0  0  0  0  0
  144.4377  136.8620  151.8036 H   0  0  0  0  0  0  0  0  0  0  0  0
  146.1022  136.9901  151.3107 H   0  0  0  0  0  0  0  0  0  0  0  0
  144.1783  135.1364  150.3195 H   0  0  0  0  0  0  0  0  0  0  0  0
  145.8671  135.2425  149.9037 H   0  0  0  0  0  0  0  0  0  0  0  0
  144.6312  133.5336  152.0992 H   0  0  0  0  0  0  0  0  0  0  0  0
  145.4256  132.9698  150.6551 H   0  0  0  0  0  0  0  0  0  0  0  0
  147.6077  133.7821  151.4278 H   0  0  0  0  0  0  0  0  0  0  0  0
  147.7273  135.4688  152.6093 H   0  0  0  0  0  0  0  0  0  0  0  0
  1  2  2  0  0  0  0
  2  3  1  0  0  0  0
  2  9  1  0  0  0  0
  3  4  1  0  0  0  0
  3 19  1  0  0  0  0
  4  8  1  0  0  0  0
  4  5  2  0  0  0  0
  5  6  1  0  0  0  0
  6  7  2  0  0  0  0
  6 20  1  0  0  0  0
  7  8  1  0  0  0  0
  7 21  1  0  0  0  0
  9 10  1  0  0  0  0
  9 22  1  0  0  0  0
 10 18  1  0  0  0  0
 10 11  1  0  0  0  0
 10 23  1  0  0  0  0
 11 12  1  0  0  0  0
 11 24  1  0  0  0  0
 11 25  1  0  0  0  0
 12 13  1  0  0  0  0
 12 26  1  0  0  0  0
 12 27  1  0  0  0  0
 13 18  1  0  0  0  0
 13 14  1  0  0  0  0
 13 37  1  0  0  0  0
 14 15  1  0  0  0  0
 14 28  1  0  0  0  0
 14 29  1  0  0  0  0
 15 16  1  0  0  0  0
 15 30  1  0  0  0  0
 15 31  1  0  0  0  0
 16 17  1  0  0  0  0
 16 32  1  0  0  0  0
 16 33  1  0  0  0  0
 17 18  1  0  0  0  0
 17 34  1  0  0  0  0
 17 35  1  0  0  0  0
 18 36  1  0  0  0  0
M  CHG  1  13   1
M  END
> <s_m_source_file>
AV-unprocessed.smi

> <i_m_source_file_index>
1965

> <i_lp_mmshare_version>
43012

> <i_f3d_flags>
0

> <s_epik_input>
czFbY0hdW2NIXW5jMVtOSF1DKD1PKVtOSF1bQ0BIXShbQ0gyXVtDSDJdMilbQ0BASF0oTjIzKVtDSDJdW0NIMl1bQ0gyXVtDSDJdMw==

> <s_epik_cmdline>
J2VwaWtfcHl0aG9uJywgJy1waCcsICc3LjAnLCAnLXRuJywgJzgnLCAnLW1hJywgJzIwMCcsICctbWV0YWxfYmluZGluZycsICctaW1hZScsICc8aW5maWxlLm1hZT4nLCAnLW9tYWUnLCAnPG91dGZpbGUubWFlPic=

> <r_lp_tautomer_probability>
1

> <r_epik_Ionization_Penalty>
0.00125962

> <r_epik_Ionization_Penalty_Charging>
0.00107044

> <r_epik_Ionization_Penalty_Neutral>
0.000189176

> <r_epik_State_Penalty>
-0

> <r_epik_Charging_Adjusted_Penalty>
0.00107044

> <i_epik_Tot_Q>
1

> <i_epik_Tot_abs_Q>
1

> <r_epik_Metal_State_Penalty>
0.0179285

> <b_epik_Metal_Only>
0

> <s_lp_Force_Field>
OPLS_2005

> <r_lp_Energy>
40.5286

> <b_lp_Chiralities_Consistent>
1

> <s_lp_Variant>
AV-unprocessed.smi:1965-8

> <Gold.Version>
5.8.1

> <Gold.Id.Protein>
6NUR|6NUR_protein|mol2

> <Gold.PLP.Fitness>
38.7556

> <Gold.PLP.PLP>
-27.9300

> <Gold.PLP.part.hbond>
-3.0000

> <Gold.PLP.part.metal>
0.0000

> <Gold.PLP.part.buried>
-2.1705

> <Gold.PLP.part.nonpolar>
-22.4296

> <Gold.PLP.part.repulsive>
0.2172

> <Gold.PLP.ligand.clash>
0.0000

> <Gold.PLP.ligand.torsion>
0.2311

> <Gold.PLP.Chemscore.Hbond>
3.7600

> <Gold.PLP.Chemscore.CHOScore>
0.0000

> <Gold.PLP.Chemscore.Metal>
0.0000

> <Gold.Chemscore.Hbonds>
donor molecule, donor type, donor heavy atom, donor atom, acceptor molecule, acceptor atom, score
      L1  H     3    19       P1 10747  0.94
      L1  H     9    22       P1 10747  0.82
      L1  H    13    37       P1  7948  2.00

> <Gold.PLP.Chemscore.Internal.Correction>
0.0078

> <Gold.Rescore>
     Score         DG    S(hbond)    S(metal)    S(lipo)     H(rot)  DE(clash)    DE(int)     intcor
     16.20     -17.75       2.49        0.00      55.61       1.00       0.15       1.40       ----

> <Gold.Chemscore.Fitness>
16.2021

> <Gold.Chemscore.DG>
-17.7530

> <Gold.Chemscore.ZeroCoef>
-5.4800

> <Gold.Chemscore.Hbond>
2.4929

> <Gold.Chemscore.Metal>
0.0000

> <Gold.Chemscore.Lipo>
55.6126

> <Gold.Chemscore.Internal_Hbond>
0.0000

> <Gold.Chemscore.DEClash>
0.1493

> <Gold.Chemscore.DEInternal>
1.4015

> <Gold.Chemscore.Rot>
1.0000

> <Gold.Chemscore.Internal.Correction>
   9.000000E+99

> <Gold.Chemscore.Hbonds>
donor molecule, donor type, donor heavy atom, donor atom, acceptor molecule, acceptor atom, score
      L1  H     3    19       P1 10747  0.32
      L1  H     9    22       P1 10747  0.80
      L1  H    13    37       P1  7948  0.99

> <Gold.Chemscore.Hbond.Weighted>
-8.3263

> <Gold.Chemscore.Metal.Weighted>
-0.0000

> <Gold.Chemscore.Lipo.Weighted>
-6.5067

> <Gold.Chemscore.Internal_Hbond.Weighted>
0.0000

> <Gold.Chemscore.DEClash.Weighted>
0.1493

> <Gold.Chemscore.DEInternal.Weighted>
1.4015

> <Gold.Chemscore.Rot.Weighted>
2.5600

> <Gold.Chemscore.Internal.Correction.Weighted>
   9.000000E+99

> <Gold.Protein.RotatedTorsions>
[ 6907 6896 6895 6894 ] final  158.34 input  -60.11 | X-H torsion
[ 7974 7965 7964 7962 ] final   12.67 input  175.53 | X-H torsion
[ 8008 7997 7996 7995 ] final   57.08 input   59.86 | X-H torsion
[ 10167 10162 10161 10158 ] final   70.14 input  -65.29 | X-H torsion
[ 10718 10713 10712 10709 ] final -160.57 input   66.30 | X-H torsion
[ 10763 10752 10751 10750 ] final  -34.86 input  -60.55 | X-H torsion
[ 11005 11000 10999 10996 ] final  109.57 input  -57.11 | X-H torsion

> <Gold.Protein.ActiveResidues>
 VAL166  LYS551  ARG553  GLY616  TRP617  ASP618  TYR619  PRO620  LYS621  CYS622 
 ASP623  PHE694  ASN695  SER759  ASP760  ASP761  ALA762  ILE779  LEU786  VAL792 
 PHE793  MET794  SER795  GLU796  ALA797  LYS798  CYS799  TRP800  GLU811  SER814 

> <Gold.Protein.RotatedAtoms>
  152.0019  133.3828  159.4184 H   0  0  0  0  0  0  0  0  0  0  0  0  # atno 6907 bound_to 6896
  150.6909  134.3825  159.5049 H   0  0  0  0  0  0  0  0  0  0  0  0  # atno 6908 bound_to 6896
  152.1573  134.8940  160.0595 H   0  0  0  0  0  0  0  0  0  0  0  0  # atno 6909 bound_to 6896
  146.2346  139.9301  142.8497 H   0  0  0  0  0  0  0  0  0  0  0  0  # atno 7974 bound_to 7965
  155.5280  140.3481  155.4420 H   0  0  0  0  0  0  0  0  0  0  0  0  # atno 8008 bound_to 7997
  156.0738  140.1369  156.9823 H   0  0  0  0  0  0  0  0  0  0  0  0  # atno 8009 bound_to 7997
  154.4542  140.0960  156.6684 H   0  0  0  0  0  0  0  0  0  0  0  0  # atno 8010 bound_to 7997
  140.0602  144.5239  150.7299 H   0  0  0  0  0  0  0  0  0  0  0  0  # atno 10167 bound_to 10162
  156.5840  130.8742  151.2872 H   0  0  0  0  0  0  0  0  0  0  0  0  # atno 10718 bound_to 10713
  153.8537  135.6846  153.4789 H   0  0  0  0  0  0  0  0  0  0  0  0  # atno 10763 bound_to 10752
  153.1382  135.4668  154.9453 H   0  0  0  0  0  0  0  0  0  0  0  0  # atno 10764 bound_to 10752
  154.7790  135.3263  154.7978 H   0  0  0  0  0  0  0  0  0  0  0  0  # atno 10765 bound_to 10752
  139.8864  134.9461  156.6146 H   0  0  0  0  0  0  0  0  0  0  0  0  # atno 11005 bound_to 11000
  145.2052  140.9872  143.4132 LP  0  0  0  0  0  0  0  0  0  0  0  0  # atno 17320 bound_to 7965
  144.9739  139.3852  143.6295 LP  0  0  0  0  0  0  0  0  0  0  0  0  # atno 17321 bound_to 7965
  140.7175  143.2558  151.4386 LP  0  0  0  0  0  0  0  0  0  0  0  0  # atno 17342 bound_to 10162
  139.5898  144.1523  152.2074 LP  0  0  0  0  0  0  0  0  0  0  0  0  # atno 17343 bound_to 10162
  157.7320  130.9708  150.1905 LP  0  0  0  0  0  0  0  0  0  0  0  0  # atno 17370 bound_to 10713
  156.2607  130.3710  149.8134 LP  0  0  0  0  0  0  0  0  0  0  0  0  # atno 17371 bound_to 10713
  140.7786  133.8679  155.8549 LP  0  0  0  0  0  0  0  0  0  0  0  0  # atno 17394 bound_to 11000
  140.9780  134.1443  157.4519 LP  0  0  0  0  0  0  0  0  0  0  0  0  # atno 17395 bound_to 11000

$$$$
