AV-unprocessed.smi:3147|AV-procd|sdf|11989|dock5
  -GOLD-   2272017393D 1   1.00000     0.00000
 Structure written by MMmdl.
 36 37  0  0  0  0  0  0  0  0  1 V2000
  147.2891  138.8648  153.1153 C   0  0  0  0  0  0  0  0  0  0  0  0
  148.0756  139.8063  153.9734 C   0  0  0  0  0  0  0  0  0  0  0  0
  147.5421  141.0234  154.3909 N   0  0  0  0  0  0  0  0  0  0  0  0
  148.5111  141.5601  155.1193 C   0  0  0  0  0  0  0  0  0  0  0  0
  149.6193  140.8116  155.2110 N   0  0  0  0  0  0  0  0  0  0  0  0
  150.8342  141.1477  155.9385 C   0  0  0  0  0  0  0  0  0  0  0  0
  150.5783  142.0674  157.1387 C   0  0  0  0  0  0  0  0  0  0  0  0
  149.8185  141.7319  158.0486 O   0  0  0  0  0  0  0  0  0  0  0  0
  151.2347  143.2372  157.1232 N   0  0  0  0  0  0  0  0  0  0  0  0
  151.1830  144.2481  158.1754 C   0  0  0  0  0  0  0  0  0  0  0  0
  152.2503  144.0257  159.2647 C   0  0  2  0  0  0  0  0  0  0  0  0
  152.5000  142.5687  159.6652 C   0  0  0  0  0  0  0  0  0  0  0  0
  153.0579  142.7326  161.0606 C   0  0  0  0  0  0  0  0  0  0  0  0
  152.2090  143.8808  161.5971 C   0  0  0  0  0  0  0  0  0  0  0  0
  151.9156  144.7057  160.4729 O   0  0  0  0  0  0  0  0  0  0  0  0
  149.3534  139.6608  154.4707 C   0  0  0  0  0  0  0  0  0  0  0  0
  150.3283  138.5389  154.3145 C   0  0  0  0  0  0  0  0  0  0  0  0
  147.8236  138.6350  152.1935 H   0  0  0  0  0  0  0  0  0  0  0  0
  146.3218  139.2852  152.8390 H   0  0  0  0  0  0  0  0  0  0  0  0
  147.1039  137.9243  153.6344 H   0  0  0  0  0  0  0  0  0  0  0  0
  148.4123  142.5234  155.5980 H   0  0  0  0  0  0  0  0  0  0  0  0
  151.3081  140.2246  156.2743 H   0  0  0  0  0  0  0  0  0  0  0  0
  151.5316  141.6348  155.2558 H   0  0  0  0  0  0  0  0  0  0  0  0
  151.8336  143.4332  156.3345 H   0  0  0  0  0  0  0  0  0  0  0  0
  151.3412  145.2203  157.7082 H   0  0  0  0  0  0  0  0  0  0  0  0
  150.1893  144.2860  158.6245 H   0  0  0  0  0  0  0  0  0  0  0  0
  153.1942  144.4521  158.9217 H   0  0  0  0  0  0  0  0  0  0  0  0
  151.5714  141.9987  159.7097 H   0  0  0  0  0  0  0  0  0  0  0  0
  153.1832  142.0541  158.9891 H   0  0  0  0  0  0  0  0  0  0  0  0
  152.9822  141.8277  161.6641 H   0  0  0  0  0  0  0  0  0  0  0  0
  154.1068  143.0284  161.0138 H   0  0  0  0  0  0  0  0  0  0  0  0
  151.2707  143.4991  161.9999 H   0  0  0  0  0  0  0  0  0  0  0  0
  152.7124  144.4423  162.3842 H   0  0  0  0  0  0  0  0  0  0  0  0
  149.9386  137.7674  153.6506 H   0  0  0  0  0  0  0  0  0  0  0  0
  150.5373  138.0746  155.2782 H   0  0  0  0  0  0  0  0  0  0  0  0
  151.2699  138.8948  153.8967 H   0  0  0  0  0  0  0  0  0  0  0  0
  1  2  1  0  0  0  0
  1 18  1  0  0  0  0
  1 19  1  0  0  0  0
  1 20  1  0  0  0  0
  2 16  2  0  0  0  0
  2  3  1  0  0  0  0
  3  4  2  0  0  0  0
  4  5  1  0  0  0  0
  4 21  1  0  0  0  0
  5  6  1  0  0  0  0
  5 16  1  0  0  0  0
  6  7  1  0  0  0  0
  6 22  1  0  0  0  0
  6 23  1  0  0  0  0
  7  8  2  0  0  0  0
  7  9  1  0  0  0  0
  9 10  1  0  0  0  0
  9 24  1  0  0  0  0
 10 11  1  0  0  0  0
 10 25  1  0  0  0  0
 10 26  1  0  0  0  0
 11 15  1  0  0  0  0
 11 12  1  0  0  0  0
 11 27  1  0  0  0  0
 12 13  1  0  0  0  0
 12 28  1  0  0  0  0
 12 29  1  0  0  0  0
 13 14  1  0  0  0  0
 13 30  1  0  0  0  0
 13 31  1  0  0  0  0
 14 15  1  0  0  0  0
 14 32  1  0  0  0  0
 14 33  1  0  0  0  0
 16 17  1  0  0  0  0
 17 34  1  0  0  0  0
 17 35  1  0  0  0  0
 17 36  1  0  0  0  0
M  END
> <s_m_source_file>
AV-unprocessed.smi

> <i_m_source_file_index>
3147

> <i_lp_mmshare_version>
43012

> <i_f3d_flags>
0

> <s_epik_input>
W0NIM11jMW5bY0hdbihjMVtDSDNdKVtDSDJdQyg9TylbTkhdW0NIMl1bQ0BASF0yW0NIMl1bQ0gyXVtDSDJdTzI=

> <s_epik_cmdline>
J2VwaWtfcHl0aG9uJywgJy1waCcsICc3LjAnLCAnLXRuJywgJzgnLCAnLW1hJywgJzIwMCcsICctbWV0YWxfYmluZGluZycsICctaW1hZScsICc8aW5maWxlLm1hZT4nLCAnLW9tYWUnLCAnPG91dGZpbGUubWFlPic=

> <r_lp_tautomer_probability>
1

> <r_epik_Ionization_Penalty>
0.957393

> <r_epik_Ionization_Penalty_Charging>
0.957393

> <r_epik_Ionization_Penalty_Neutral>
1.43432e-07

> <r_epik_State_Penalty>
1.0022

> <r_epik_Charging_Adjusted_Penalty>
1.9596

> <i_epik_Tot_Q>
0

> <i_epik_Tot_abs_Q>
0

> <r_epik_Metal_State_Penalty>
0.374967

> <b_epik_Metal_Only>
0

> <s_lp_Force_Field>
OPLS_2005

> <r_lp_Energy>
19.2408

> <b_lp_Chiralities_Consistent>
1

> <s_lp_Variant>
AV-unprocessed.smi:3147-3

> <Gold.Version>
5.8.1

> <Gold.Id.Protein>
6NUR|6NUR_protein|mol2

> <Gold.PLP.Fitness>
42.3756

> <Gold.PLP.PLP>
-40.8719

> <Gold.PLP.part.hbond>
-0.6882

> <Gold.PLP.part.metal>
0.0000

> <Gold.PLP.part.buried>
-1.2875

> <Gold.PLP.part.nonpolar>
-38.4506

> <Gold.PLP.part.repulsive>
0.3704

> <Gold.PLP.ligand.clash>
0.0000

> <Gold.PLP.ligand.torsion>
0.7525

> <Gold.PLP.Chemscore.Hbond>
0.0000

> <Gold.PLP.Chemscore.CHOScore>
1.0000

> <Gold.PLP.Chemscore.Metal>
0.0000

> <Gold.Chemscore.Hbonds>
donor molecule, donor type, donor heavy atom, donor atom, acceptor molecule, acceptor atom, score
      L1  C     4    21       P1  8028  1.00

> <Gold.PLP.Chemscore.Internal.Correction>
0.0088

> <Gold.Rescore>
     Score         DG    S(hbond)    S(metal)    S(lipo)     H(rot)  DE(clash)    DE(int)     intcor
     11.65     -12.44       0.00        0.00      96.78       1.70       0.04       0.75       ----

> <Gold.Chemscore.Fitness>
11.6491

> <Gold.Chemscore.DG>
-12.4431

> <Gold.Chemscore.ZeroCoef>
-5.4800

> <Gold.Chemscore.Hbond>
0.0000

> <Gold.Chemscore.Metal>
0.0000

> <Gold.Chemscore.Lipo>
96.7842

> <Gold.Chemscore.Internal_Hbond>
0.0000

> <Gold.Chemscore.DEClash>
0.0450

> <Gold.Chemscore.DEInternal>
0.7489

> <Gold.Chemscore.Rot>
1.7034

> <Gold.Chemscore.Internal.Correction>
   9.000000E+99

> <Gold.Chemscore.Hbond.Weighted>
-0.0000

> <Gold.Chemscore.Metal.Weighted>
-0.0000

> <Gold.Chemscore.Lipo.Weighted>
-11.3238

> <Gold.Chemscore.Internal_Hbond.Weighted>
0.0000

> <Gold.Chemscore.DEClash.Weighted>
0.0450

> <Gold.Chemscore.DEInternal.Weighted>
0.7489

> <Gold.Chemscore.Rot.Weighted>
4.3607

> <Gold.Chemscore.Internal.Correction.Weighted>
   9.000000E+99

> <Gold.Protein.RotatedTorsions>
[ 6907 6896 6895 6894 ] final -101.53 input  -60.11 | X-H torsion
[ 7974 7965 7964 7962 ] final   63.68 input  175.53 | X-H torsion
[ 8008 7997 7996 7995 ] final  -57.02 input   59.86 | X-H torsion
[ 10167 10162 10161 10158 ] final   37.37 input  -65.29 | X-H torsion
[ 10718 10713 10712 10709 ] final  137.74 input   66.30 | X-H torsion
[ 10763 10752 10751 10750 ] final  -81.49 input  -60.55 | X-H torsion
[ 11005 11000 10999 10996 ] final   29.77 input  -57.11 | X-H torsion

> <Gold.Protein.ActiveResidues>
 VAL166  LYS551  ARG553  GLY616  TRP617  ASP618  TYR619  PRO620  LYS621  CYS622 
 ASP623  PHE694  ASN695  SER759  ASP760  ASP761  ALA762  ILE779  LEU786  VAL792 
 PHE793  MET794  SER795  GLU796  ALA797  LYS798  CYS799  TRP800  GLU811  SER814 

> <Gold.Protein.RotatedAtoms>
  150.7158  134.0720  159.3867 H   0  0  0  0  0  0  0  0  0  0  0  0  # atno 6907 bound_to 6896
  151.8702  135.0490  160.0488 H   0  0  0  0  0  0  0  0  0  0  0  0  # atno 6908 bound_to 6896
  152.2649  133.5294  159.5440 H   0  0  0  0  0  0  0  0  0  0  0  0  # atno 6909 bound_to 6896
  145.8590  139.3302  143.0830 H   0  0  0  0  0  0  0  0  0  0  0  0  # atno 7974 bound_to 7965
  154.4252  140.1116  156.5731 H   0  0  0  0  0  0  0  0  0  0  0  0  # atno 8008 bound_to 7997
  155.6192  140.3495  155.4627 H   0  0  0  0  0  0  0  0  0  0  0  0  # atno 8009 bound_to 7997
  156.0038  140.1204  157.0511 H   0  0  0  0  0  0  0  0  0  0  0  0  # atno 8010 bound_to 7997
  140.4039  144.1686  150.6135 H   0  0  0  0  0  0  0  0  0  0  0  0  # atno 10167 bound_to 10162
  157.4328  131.1050  151.0230 H   0  0  0  0  0  0  0  0  0  0  0  0  # atno 10718 bound_to 10713
  154.5642  135.5624  153.7035 H   0  0  0  0  0  0  0  0  0  0  0  0  # atno 10763 bound_to 10752
  153.0027  135.6281  154.2203 H   0  0  0  0  0  0  0  0  0  0  0  0  # atno 10764 bound_to 10752
  154.2141  135.2872  155.2928 H   0  0  0  0  0  0  0  0  0  0  0  0  # atno 10765 bound_to 10752
  140.3014  134.2752  155.7753 H   0  0  0  0  0  0  0  0  0  0  0  0  # atno 11005 bound_to 11000
  145.9270  140.9075  143.0375 LP  0  0  0  0  0  0  0  0  0  0  0  0  # atno 17320 bound_to 7965
  144.6727  140.1367  143.7440 LP  0  0  0  0  0  0  0  0  0  0  0  0  # atno 17321 bound_to 7965
  140.4711  143.2413  151.9088 LP  0  0  0  0  0  0  0  0  0  0  0  0  # atno 17342 bound_to 10162
  139.4784  144.5369  151.8585 LP  0  0  0  0  0  0  0  0  0  0  0  0  # atno 17343 bound_to 10162
  157.1121  130.6026  149.5484 LP  0  0  0  0  0  0  0  0  0  0  0  0  # atno 17370 bound_to 10713
  155.9919  130.4976  150.7320 LP  0  0  0  0  0  0  0  0  0  0  0  0  # atno 17371 bound_to 10713
  141.2127  133.7649  156.9772 LP  0  0  0  0  0  0  0  0  0  0  0  0  # atno 17394 bound_to 11000
  140.1106  134.9479  157.2059 LP  0  0  0  0  0  0  0  0  0  0  0  0  # atno 17395 bound_to 11000

$$$$
