AV-unprocessed.smi:1354|AV-procd|sdf|5534|dock8
  -GOLD-   22720 5123D 1   1.00000     0.00000
 Structure written by MMmdl.
 39 41  0  0  0  0  0  0  0  0  1 V2000
  154.0966  139.8257  154.6257 O   0  0  0  0  0  0  0  0  0  0  0  0
  153.5036  138.6353  154.1509 C   0  0  0  0  0  0  0  0  0  0  0  0
  152.2818  138.2445  155.0007 C   0  0  0  0  0  0  0  0  0  0  0  0
  151.0422  139.0216  154.6559 C   0  0  0  0  0  0  0  0  0  0  0  0
  150.0489  138.4640  153.9610 N   0  0  0  0  0  0  0  0  0  0  0  0
  149.1377  139.4944  153.8458 C   0  0  0  0  0  0  0  0  0  0  0  0
  147.8824  139.5414  153.1981 C   0  0  0  0  0  0  0  0  0  0  0  0
  147.1181  140.7264  153.2081 C   0  0  0  0  0  0  0  0  0  0  0  0
  147.5959  141.8776  153.8666 C   0  0  0  0  0  0  0  0  0  0  0  0
  148.8420  141.8501  154.5217 C   0  0  0  0  0  0  0  0  0  0  0  0
  149.6023  140.6649  154.5079 C   0  0  0  0  0  0  0  0  0  0  0  0
  150.8392  140.3095  155.0400 N   0  0  0  0  0  0  0  0  0  0  0  0
  151.7035  141.1787  155.8290 C   0  0  0  0  0  0  0  0  0  0  0  0
  151.0141  141.6853  157.1032 C   0  0  0  0  0  0  0  0  0  0  0  0
  151.8690  141.4453  158.2130 O   0  0  0  0  0  0  0  0  0  0  0  0
  151.8072  142.2998  159.2917 C   0  0  0  0  0  0  0  0  0  0  0  0
  151.0659  143.5085  159.3003 C   0  0  0  0  0  0  0  0  0  0  0  0
  151.0538  144.3297  160.4444 C   0  0  0  0  0  0  0  0  0  0  0  0
  151.7803  143.9564  161.5898 C   0  0  0  0  0  0  0  0  0  0  0  0
  152.5209  142.7601  161.5899 C   0  0  0  0  0  0  0  0  0  0  0  0
  152.5348  141.9368  160.4468 C   0  0  0  0  0  0  0  0  0  0  0  0
  153.4463  140.4691  160.4719 Cl  0  0  0  0  0  0  0  0  0  0  0  0
  153.7092  140.5573  154.1697 H   0  0  0  0  0  0  0  0  0  0  0  0
  153.2348  138.7495  153.1005 H   0  0  0  0  0  0  0  0  0  0  0  0
  154.2540  137.8463  154.2031 H   0  0  0  0  0  0  0  0  0  0  0  0
  152.0614  137.1891  154.8376 H   0  0  0  0  0  0  0  0  0  0  0  0
  152.5256  138.3354  156.0577 H   0  0  0  0  0  0  0  0  0  0  0  0
  147.5089  138.6650  152.6896 H   0  0  0  0  0  0  0  0  0  0  0  0
  146.1616  140.7527  152.7072 H   0  0  0  0  0  0  0  0  0  0  0  0
  147.0061  142.7824  153.8678 H   0  0  0  0  0  0  0  0  0  0  0  0
  149.2111  142.7326  155.0224 H   0  0  0  0  0  0  0  0  0  0  0  0
  152.5969  140.6166  156.1014 H   0  0  0  0  0  0  0  0  0  0  0  0
  152.0529  142.0077  155.2140 H   0  0  0  0  0  0  0  0  0  0  0  0
  150.8027  142.7514  157.0116 H   0  0  0  0  0  0  0  0  0  0  0  0
  150.0639  141.1683  157.2319 H   0  0  0  0  0  0  0  0  0  0  0  0
  150.5003  143.8291  158.4388 H   0  0  0  0  0  0  0  0  0  0  0  0
  150.4860  145.2485  160.4422 H   0  0  0  0  0  0  0  0  0  0  0  0
  151.7702  144.5867  162.4668 H   0  0  0  0  0  0  0  0  0  0  0  0
  153.0786  142.4733  162.4694 H   0  0  0  0  0  0  0  0  0  0  0  0
  1  2  1  0  0  0  0
  1 23  1  0  0  0  0
  2  3  1  0  0  0  0
  2 24  1  0  0  0  0
  2 25  1  0  0  0  0
  3  4  1  0  0  0  0
  3 26  1  0  0  0  0
  3 27  1  0  0  0  0
  4 12  1  0  0  0  0
  4  5  2  0  0  0  0
  5  6  1  0  0  0  0
  6 11  2  0  0  0  0
  6  7  1  0  0  0  0
  7  8  2  0  0  0  0
  7 28  1  0  0  0  0
  8  9  1  0  0  0  0
  8 29  1  0  0  0  0
  9 10  2  0  0  0  0
  9 30  1  0  0  0  0
 10 11  1  0  0  0  0
 10 31  1  0  0  0  0
 11 12  1  0  0  0  0
 12 13  1  0  0  0  0
 13 14  1  0  0  0  0
 13 32  1  0  0  0  0
 13 33  1  0  0  0  0
 14 15  1  0  0  0  0
 14 34  1  0  0  0  0
 14 35  1  0  0  0  0
 15 16  1  0  0  0  0
 16 21  1  0  0  0  0
 16 17  2  0  0  0  0
 17 18  1  0  0  0  0
 17 36  1  0  0  0  0
 18 19  2  0  0  0  0
 18 37  1  0  0  0  0
 19 20  1  0  0  0  0
 19 38  1  0  0  0  0
 20 21  2  0  0  0  0
 20 39  1  0  0  0  0
 21 22  1  0  0  0  0
M  END
> <s_m_source_file>
AV-unprocessed.smi

> <i_m_source_file_index>
1354

> <i_lp_mmshare_version>
43012

> <i_f3d_flags>
0

> <s_epik_input>
W2NIXTFbY0hdW2NIXVtjSF1jKGMxMiluKGMobjIpW0NIMl1bQ0gyXVtPSF0pW0NIMl1bQ0gyXU9jM1tjSF1bY0hdW2NIXVtjSF1jM0Ns

> <s_epik_cmdline>
J2VwaWtfcHl0aG9uJywgJy1waCcsICc3LjAnLCAnLXRuJywgJzgnLCAnLW1hJywgJzIwMCcsICctbWV0YWxfYmluZGluZycsICctaW1hZScsICc8aW5maWxlLm1hZT4nLCAnLW9tYWUnLCAnPG91dGZpbGUubWFlPic=

> <r_lp_tautomer_probability>
1

> <r_epik_Ionization_Penalty>
0.195126

> <r_epik_Ionization_Penalty_Charging>
0

> <r_epik_Ionization_Penalty_Neutral>
0.195126

> <r_epik_State_Penalty>
0.184862

> <r_epik_Charging_Adjusted_Penalty>
0.184862

> <i_epik_Tot_Q>
0

> <i_epik_Tot_abs_Q>
0

> <r_epik_Metal_State_Penalty>
0.000216911

> <b_epik_Metal_Only>
0

> <s_lp_Force_Field>
OPLS_2005

> <r_lp_Energy>
15.3671

> <b_lp_Chiralities_Consistent>
1

> <s_lp_Variant>
AV-unprocessed.smi:1354-1

> <Gold.Version>
5.8.1

> <Gold.Id.Protein>
6NUR|6NUR_protein|mol2

> <Gold.PLP.Fitness>
51.0465

> <Gold.PLP.PLP>
-49.7327

> <Gold.PLP.part.hbond>
-1.0523

> <Gold.PLP.part.metal>
0.0000

> <Gold.PLP.part.buried>
-3.1683

> <Gold.PLP.part.nonpolar>
-45.5529

> <Gold.PLP.part.repulsive>
0.2112

> <Gold.PLP.ligand.clash>
0.0000

> <Gold.PLP.ligand.torsion>
0.8948

> <Gold.PLP.Chemscore.Hbond>
1.0000

> <Gold.PLP.Chemscore.CHOScore>
0.0000

> <Gold.PLP.Chemscore.Metal>
0.0000

> <Gold.Chemscore.Hbonds>
donor molecule, donor type, donor heavy atom, donor atom, acceptor molecule, acceptor atom, score
      P1  H  7997  8008       L1     1  0.44

> <Gold.PLP.Chemscore.Internal.Correction>
0.1035

> <Gold.Rescore>
     Score         DG    S(hbond)    S(metal)    S(lipo)     H(rot)  DE(clash)    DE(int)     intcor
     16.04     -18.89       0.69        0.00     145.57       2.31       0.92       1.92       ----

> <Gold.Chemscore.Fitness>
16.0437

> <Gold.Chemscore.DG>
-18.8876

> <Gold.Chemscore.ZeroCoef>
-5.4800

> <Gold.Chemscore.Hbond>
0.6852

> <Gold.Chemscore.Metal>
0.0000

> <Gold.Chemscore.Lipo>
145.5742

> <Gold.Chemscore.Internal_Hbond>
0.0000

> <Gold.Chemscore.DEClash>
0.9247

> <Gold.Chemscore.DEInternal>
1.9192

> <Gold.Chemscore.Rot>
2.3098

> <Gold.Chemscore.Internal.Correction>
   9.000000E+99

> <Gold.Chemscore.Hbonds>
donor molecule, donor type, donor heavy atom, donor atom, acceptor molecule, acceptor atom, score
      P1  H  7997  8008       L1     1  0.33

> <Gold.Chemscore.Hbond.Weighted>
-2.2886

> <Gold.Chemscore.Metal.Weighted>
-0.0000

> <Gold.Chemscore.Lipo.Weighted>
-17.0322

> <Gold.Chemscore.Internal_Hbond.Weighted>
0.0000

> <Gold.Chemscore.DEClash.Weighted>
0.9247

> <Gold.Chemscore.DEInternal.Weighted>
1.9192

> <Gold.Chemscore.Rot.Weighted>
5.9131

> <Gold.Chemscore.Internal.Correction.Weighted>
   9.000000E+99

> <Gold.Protein.RotatedTorsions>
[ 6907 6896 6895 6894 ] final  -52.79 input  -60.11 | X-H torsion
[ 7974 7965 7964 7962 ] final   74.61 input  175.53 | X-H torsion
[ 8008 7997 7996 7995 ] final  -16.03 input   59.86 | X-H torsion
[ 10167 10162 10161 10158 ] final   85.70 input  -65.29 | X-H torsion
[ 10718 10713 10712 10709 ] final   46.85 input   66.30 | X-H torsion
[ 10763 10752 10751 10750 ] final  -20.01 input  -60.55 | X-H torsion
[ 11005 11000 10999 10996 ] final -136.57 input  -57.11 | X-H torsion

> <Gold.Protein.ActiveResidues>
 VAL166  LYS551  ARG553  GLY616  TRP617  ASP618  TYR619  PRO620  LYS621  CYS622 
 ASP623  PHE694  ASN695  SER759  ASP760  ASP761  ALA762  ILE779  LEU786  VAL792 
 PHE793  MET794  SER795  GLU796  ALA797  LYS798  CYS799  TRP800  GLU811  SER814 

> <Gold.Protein.RotatedAtoms>
  150.8486  134.7803  159.6989 H   0  0  0  0  0  0  0  0  0  0  0  0  # atno 6907 bound_to 6896
  152.4556  134.5295  159.9816 H   0  0  0  0  0  0  0  0  0  0  0  0  # atno 6908 bound_to 6896
  151.5420  133.3393  159.2973 H   0  0  0  0  0  0  0  0  0  0  0  0  # atno 6909 bound_to 6896
  145.7261  139.2666  143.1568 H   0  0  0  0  0  0  0  0  0  0  0  0  # atno 7974 bound_to 7965
  154.5084  140.2180  155.9205 H   0  0  0  0  0  0  0  0  0  0  0  0  # atno 8008 bound_to 7997
  156.1522  140.3159  155.8633 H   0  0  0  0  0  0  0  0  0  0  0  0  # atno 8009 bound_to 7997
  155.3916  140.0478  157.3031 H   0  0  0  0  0  0  0  0  0  0  0  0  # atno 8010 bound_to 7997
  139.8950  144.6363  150.8698 H   0  0  0  0  0  0  0  0  0  0  0  0  # atno 10167 bound_to 10162
  157.4524  130.8146  149.7801 H   0  0  0  0  0  0  0  0  0  0  0  0  # atno 10718 bound_to 10713
  153.6138  135.6995  153.5336 H   0  0  0  0  0  0  0  0  0  0  0  0  # atno 10763 bound_to 10752
  153.2994  135.4133  155.1239 H   0  0  0  0  0  0  0  0  0  0  0  0  # atno 10764 bound_to 10752
  154.8558  135.3645  154.5677 H   0  0  0  0  0  0  0  0  0  0  0  0  # atno 10765 bound_to 10752
  140.8793  134.1952  157.4601 H   0  0  0  0  0  0  0  0  0  0  0  0  # atno 11005 bound_to 11000
  146.0581  140.7999  142.9748 LP  0  0  0  0  0  0  0  0  0  0  0  0  # atno 17320 bound_to 7965
  144.6904  140.3155  143.7241 LP  0  0  0  0  0  0  0  0  0  0  0  0  # atno 17321 bound_to 7965
  140.7719  143.3480  151.2071 LP  0  0  0  0  0  0  0  0  0  0  0  0  # atno 17342 bound_to 10162
  139.7076  143.9430  152.2933 LP  0  0  0  0  0  0  0  0  0  0  0  0  # atno 17343 bound_to 10162
  155.9992  130.3890  150.2671 LP  0  0  0  0  0  0  0  0  0  0  0  0  # atno 17370 bound_to 10713
  157.0843  131.0152  151.3145 LP  0  0  0  0  0  0  0  0  0  0  0  0  # atno 17371 bound_to 10713
  139.8718  134.9810  156.5098 LP  0  0  0  0  0  0  0  0  0  0  0  0  # atno 17394 bound_to 11000
  140.8481  133.8153  155.9141 LP  0  0  0  0  0  0  0  0  0  0  0  0  # atno 17395 bound_to 11000

$$$$
