AV-unprocessed.smi:1206|AV-procd|sdf|5048|dock4
  -GOLD-   22720 4 73D 1   1.00000     0.00000
 Structure written by MMmdl.
 40 41  0  0  0  0  0  0  0  0  3 V2000
  146.7306  138.3941  155.7688 C   0  0  0  0  0  0  0  0  0  0  0  0
  147.5578  139.4844  156.3486 N   0  3  0  0  0  0  0  0  0  0  0  0
  147.1379  140.7959  155.7934 C   0  0  0  0  0  0  0  0  0  0  0  0
  149.0434  139.2101  156.4044 C   0  0  0  0  0  0  0  0  0  0  0  0
  149.2545  137.8657  157.1720 C   0  0  0  0  0  0  0  0  0  0  0  0
  148.6883  137.8891  158.5214 N   0  0  0  0  0  0  0  0  0  0  0  0
  148.8104  136.9379  159.4581 C   0  0  0  0  0  0  0  0  0  0  0  0
  149.4958  135.9376  159.2369 O   0  0  0  0  0  0  0  0  0  0  0  0
  148.1129  137.1956  160.5857 N   0  5  0  0  0  0  0  0  0  0  0  0
  147.7381  136.1842  161.3865 C   0  0  0  0  0  0  0  0  0  0  0  0
  147.6342  136.3250  162.7177 N   0  0  0  0  0  0  0  0  0  0  0  0
  147.2314  135.1617  163.3596 N   0  0  0  0  0  0  0  0  0  0  0  0
  147.0511  134.1657  162.4924 C   0  0  0  0  0  0  0  0  0  0  0  0
  147.3564  134.5584  160.8135 S   0  0  0  0  0  0  0  0  0  0  0  0
  149.6444  139.1090  154.9697 C   0  0  0  0  0  0  0  0  0  0  0  0
  151.1792  138.9706  154.9411 C   0  0  0  0  0  0  0  0  0  0  0  0
  151.8696  140.1026  155.7127 C   0  0  0  0  0  0  0  0  0  0  0  0
  151.3374  140.2015  157.1482 C   0  0  0  0  0  0  0  0  0  0  0  0
  149.8053  140.3541  157.1547 C   0  0  0  0  0  0  0  0  0  0  0  0
  146.8216  138.3618  154.6826 H   0  0  0  0  0  0  0  0  0  0  0  0
  145.6790  138.5566  156.0065 H   0  0  0  0  0  0  0  0  0  0  0  0
  146.9939  137.4136  156.1612 H   0  0  0  0  0  0  0  0  0  0  0  0
  147.5192  140.9402  154.7821 H   0  0  0  0  0  0  0  0  0  0  0  0
  147.4690  141.6234  156.4209 H   0  0  0  0  0  0  0  0  0  0  0  0
  146.0505  140.8661  155.7528 H   0  0  0  0  0  0  0  0  0  0  0  0
  148.8571  137.0221  156.6077 H   0  0  0  0  0  0  0  0  0  0  0  0
  150.3108  137.6317  157.2834 H   0  0  0  0  0  0  0  0  0  0  0  0
  148.1259  138.6932  158.7602 H   0  0  0  0  0  0  0  0  0  0  0  0
  146.7396  133.1933  162.8435 H   0  0  0  0  0  0  0  0  0  0  0  0
  149.2234  138.2594  154.4320 H   0  0  0  0  0  0  0  0  0  0  0  0
  149.3701  139.9960  154.3971 H   0  0  0  0  0  0  0  0  0  0  0  0
  151.4783  138.0073  155.3544 H   0  0  0  0  0  0  0  0  0  0  0  0
  151.5252  138.9708  153.9070 H   0  0  0  0  0  0  0  0  0  0  0  0
  152.9482  139.9437  155.7241 H   0  0  0  0  0  0  0  0  0  0  0  0
  151.7018  141.0482  155.1957 H   0  0  0  0  0  0  0  0  0  0  0  0
  151.6461  139.3317  157.7272 H   0  0  0  0  0  0  0  0  0  0  0  0
  151.7904  141.0608  157.6436 H   0  0  0  0  0  0  0  0  0  0  0  0
  149.6119  141.3164  156.6813 H   0  0  0  0  0  0  0  0  0  0  0  0
  149.4512  140.4485  158.1817 H   0  0  0  0  0  0  0  0  0  0  0  0
  147.2829  139.5258  157.3207 H   0  0  0  0  0  0  0  0  0  0  0  0
  1  2  1  0  0  0  0
  1 20  1  0  0  0  0
  1 21  1  0  0  0  0
  1 22  1  0  0  0  0
  2  3  1  0  0  0  0
  2  4  1  0  0  0  0
  2 40  1  0  0  0  0
  3 23  1  0  0  0  0
  3 24  1  0  0  0  0
  3 25  1  0  0  0  0
  4 19  1  0  0  0  0
  4  5  1  0  0  0  0
  4 15  1  0  0  0  0
  5  6  1  0  0  0  0
  5 26  1  0  0  0  0
  5 27  1  0  0  0  0
  6  7  1  0  0  0  0
  6 28  1  0  0  0  0
  7  8  2  0  0  0  0
  7  9  1  0  0  0  0
  9 10  1  0  0  0  0
 10 14  1  0  0  0  0
 10 11  2  0  0  0  0
 11 12  1  0  0  0  0
 12 13  2  0  0  0  0
 13 14  1  0  0  0  0
 13 29  1  0  0  0  0
 15 16  1  0  0  0  0
 15 30  1  0  0  0  0
 15 31  1  0  0  0  0
 16 17  1  0  0  0  0
 16 32  1  0  0  0  0
 16 33  1  0  0  0  0
 17 18  1  0  0  0  0
 17 34  1  0  0  0  0
 17 35  1  0  0  0  0
 18 19  1  0  0  0  0
 18 36  1  0  0  0  0
 18 37  1  0  0  0  0
 19 38  1  0  0  0  0
 19 39  1  0  0  0  0
M  CHG  1   2   1
M  CHG  1   9  -1
M  END
> <s_m_source_file>
AV-unprocessed.smi

> <i_m_source_file_index>
1206

> <i_lp_mmshare_version>
43012

> <i_f3d_flags>
0

> <s_epik_input>
W0NIMl0xW0NIMl1bQ0gyXVtDSDJdW0NIMl1DMShOKFtDSDNdKVtDSDNdKVtDSDJdW05IXUMoPU8pW05IXWMybm5bY0hdczI=

> <s_epik_cmdline>
J2VwaWtfcHl0aG9uJywgJy1waCcsICc3LjAnLCAnLXRuJywgJzgnLCAnLW1hJywgJzIwMCcsICctbWV0YWxfYmluZGluZycsICctaW1hZScsICc8aW5maWxlLm1hZT4nLCAnLW9tYWUnLCAnPG91dGZpbGUubWFlPic=

> <r_lp_tautomer_probability>
1

> <r_epik_Ionization_Penalty>
3.99546

> <r_epik_Ionization_Penalty_Charging>
3.96229

> <r_epik_Ionization_Penalty_Neutral>
0.0331711

> <r_epik_State_Penalty>
3.95985

> <r_epik_Charging_Adjusted_Penalty>
7.92214

> <i_epik_Tot_Q>
0

> <i_epik_Tot_abs_Q>
2

> <r_epik_Metal_State_Penalty>
0.609364

> <b_epik_Metal_Only>
1

> <s_lp_Force_Field>
OPLS_2005

> <r_lp_Energy>
23.6676

> <b_lp_Chiralities_Consistent>
1

> <s_lp_Variant>
AV-unprocessed.smi:1206-2

> <Gold.Version>
5.8.1

> <Gold.Id.Protein>
6NUR|6NUR_protein|mol2

> <Gold.PLP.Fitness>
38.0749

> <Gold.PLP.PLP>
-27.3717

> <Gold.PLP.part.hbond>
-3.4357

> <Gold.PLP.part.metal>
0.0000

> <Gold.PLP.part.buried>
-4.2543

> <Gold.PLP.part.nonpolar>
-19.5359

> <Gold.PLP.part.repulsive>
0.1905

> <Gold.PLP.ligand.clash>
0.0000

> <Gold.PLP.ligand.torsion>
0.4035

> <Gold.PLP.Chemscore.Hbond>
3.7851

> <Gold.PLP.Chemscore.CHOScore>
0.0000

> <Gold.PLP.Chemscore.Metal>
0.0000

> <Gold.Chemscore.Hbonds>
donor molecule, donor type, donor heavy atom, donor atom, acceptor molecule, acceptor atom, score
      P1  H  6896  6907       L1     8  1.00
      P1  H  6931  6943       L1     9  1.49
      P1  H  6934  6947       L1     9  1.26

> <Gold.PLP.Chemscore.Internal.Correction>
0.1550

> <Gold.Rescore>
     Score         DG    S(hbond)    S(metal)    S(lipo)     H(rot)  DE(clash)    DE(int)     intcor
     11.83     -13.60       1.87        0.00      51.76       1.64       0.09       1.68       ----

> <Gold.Chemscore.Fitness>
11.8343

> <Gold.Chemscore.DG>
-13.6012

> <Gold.Chemscore.ZeroCoef>
-5.4800

> <Gold.Chemscore.Hbond>
1.8732

> <Gold.Chemscore.Metal>
0.0000

> <Gold.Chemscore.Lipo>
51.7588

> <Gold.Chemscore.Internal_Hbond>
0.0000

> <Gold.Chemscore.DEClash>
0.0885

> <Gold.Chemscore.DEInternal>
1.6784

> <Gold.Chemscore.Rot>
1.6371

> <Gold.Chemscore.Internal.Correction>
   9.000000E+99

> <Gold.Chemscore.Hbonds>
donor molecule, donor type, donor heavy atom, donor atom, acceptor molecule, acceptor atom, score
      P1  H  6896  6907       L1     8  1.00
      P1  H  6931  6943       L1     9  0.15
      P1  H  6934  6947       L1     9  0.57

> <Gold.Chemscore.Hbond.Weighted>
-6.2563

> <Gold.Chemscore.Metal.Weighted>
-0.0000

> <Gold.Chemscore.Lipo.Weighted>
-6.0558

> <Gold.Chemscore.Internal_Hbond.Weighted>
0.0000

> <Gold.Chemscore.DEClash.Weighted>
0.0885

> <Gold.Chemscore.DEInternal.Weighted>
1.6784

> <Gold.Chemscore.Rot.Weighted>
4.1909

> <Gold.Chemscore.Internal.Correction.Weighted>
   9.000000E+99

> <Gold.Protein.RotatedTorsions>
[ 6907 6896 6895 6894 ] final  -58.48 input  -60.11 | X-H torsion
[ 7974 7965 7964 7962 ] final  110.36 input  175.53 | X-H torsion
[ 8008 7997 7996 7995 ] final  -85.33 input   59.86 | X-H torsion
[ 10167 10162 10161 10158 ] final -157.49 input  -65.29 | X-H torsion
[ 10718 10713 10712 10709 ] final  -37.75 input   66.30 | X-H torsion
[ 10763 10752 10751 10750 ] final   65.29 input  -60.55 | X-H torsion
[ 11005 11000 10999 10996 ] final -128.82 input  -57.11 | X-H torsion

> <Gold.Protein.ActiveResidues>
 VAL166  LYS551  ARG553  GLY616  TRP617  ASP618  TYR619  PRO620  LYS621  CYS622 
 ASP623  PHE694  ASN695  SER759  ASP760  ASP761  ALA762  ILE779  LEU786  VAL792 
 PHE793  MET794  SER795  GLU796  ALA797  LYS798  CYS799  TRP800  GLU811  SER814 

> <Gold.Protein.RotatedAtoms>
  150.8004  134.7093  159.6594 H   0  0  0  0  0  0  0  0  0  0  0  0  # atno 6907 bound_to 6896
  152.4120  134.6104  160.0034 H   0  0  0  0  0  0  0  0  0  0  0  0  # atno 6908 bound_to 6896
  151.6344  133.3293  159.3152 H   0  0  0  0  0  0  0  0  0  0  0  0  # atno 6909 bound_to 6896
  145.2560  139.2721  143.4042 H   0  0  0  0  0  0  0  0  0  0  0  0  # atno 7974 bound_to 7965
  154.6396  140.0593  156.9829 H   0  0  0  0  0  0  0  0  0  0  0  0  # atno 8008 bound_to 7997
  155.1538  140.3276  155.4407 H   0  0  0  0  0  0  0  0  0  0  0  0  # atno 8009 bound_to 7997
  156.2524  140.1943  156.6648 H   0  0  0  0  0  0  0  0  0  0  0  0  # atno 8010 bound_to 7997
  139.6766  143.9652  152.2314 H   0  0  0  0  0  0  0  0  0  0  0  0  # atno 10167 bound_to 10162
  156.3116  130.4253  149.8045 H   0  0  0  0  0  0  0  0  0  0  0  0  # atno 10718 bound_to 10713
  153.0090  135.5362  154.6645 H   0  0  0  0  0  0  0  0  0  0  0  0  # atno 10763 bound_to 10752
  154.5845  135.2853  155.0701 H   0  0  0  0  0  0  0  0  0  0  0  0  # atno 10764 bound_to 10752
  154.1818  135.6515  153.5088 H   0  0  0  0  0  0  0  0  0  0  0  0  # atno 10765 bound_to 10752
  140.9484  134.1099  157.4086 H   0  0  0  0  0  0  0  0  0  0  0  0  # atno 11005 bound_to 11000
  146.3289  140.2963  142.8618 LP  0  0  0  0  0  0  0  0  0  0  0  0  # atno 17320 bound_to 7965
  144.9461  140.8129  143.5601 LP  0  0  0  0  0  0  0  0  0  0  0  0  # atno 17321 bound_to 7965
  139.9431  144.6669  150.8246 LP  0  0  0  0  0  0  0  0  0  0  0  0  # atno 17342 bound_to 10162
  140.7637  143.3231  151.2577 LP  0  0  0  0  0  0  0  0  0  0  0  0  # atno 17343 bound_to 10162
  156.5386  130.8289  151.3261 LP  0  0  0  0  0  0  0  0  0  0  0  0  # atno 17370 bound_to 10713
  157.7392  130.9827  150.2300 LP  0  0  0  0  0  0  0  0  0  0  0  0  # atno 17371 bound_to 10713
  139.8840  135.0058  156.6339 LP  0  0  0  0  0  0  0  0  0  0  0  0  # atno 17394 bound_to 11000
  140.7637  133.8796  155.8438 LP  0  0  0  0  0  0  0  0  0  0  0  0  # atno 17395 bound_to 11000

$$$$
