AV-unprocessed.smi:2550|AV-procd|sdf|10011|dock1
  -GOLD-   2272014 53D 1   1.00000     0.00000
 Structure written by MMmdl.
 28 29  0  0  0  0  0  0  0  0  2 V2000
  151.4119  137.1432  156.0683 C   0  0  0  0  0  0  0  0  0  0  0  0
  151.6183  138.0230  154.8246 C   0  0  0  0  0  0  0  0  0  0  0  0
  152.7842  139.0093  155.0010 C   0  0  0  0  0  0  0  0  0  0  0  0
  151.9607  137.1590  153.7570 O   0  0  0  0  0  0  0  0  0  0  0  0
  150.3454  138.7287  154.4219 C   0  0  0  0  0  0  0  0  0  0  0  0
  149.1539  138.2224  153.9767 C   0  0  0  0  0  0  0  0  0  0  0  0
  148.3764  139.3440  153.7857 N   0  0  0  0  0  0  0  0  0  0  0  0
  147.0471  139.4084  153.2563 C   0  0  0  0  0  0  0  0  0  0  0  0
  146.2670  138.1402  152.9091 C   0  0  0  0  0  0  0  0  0  0  0  0
  145.6632  138.8864  151.8122 N   0  3  0  0  0  0  0  0  0  0  0  0
  146.8065  139.7905  151.7974 C   0  0  0  0  0  0  0  0  0  0  0  0
  149.0645  140.4784  154.0486 N   0  0  0  0  0  0  0  0  0  0  0  0
  150.2426  140.1219  154.4522 N   0  0  0  0  0  0  0  0  0  0  0  0
  151.1410  137.7451  156.9364 H   0  0  0  0  0  0  0  0  0  0  0  0
  152.3184  136.5927  156.3220 H   0  0  0  0  0  0  0  0  0  0  0  0
  150.6151  136.4150  155.9119 H   0  0  0  0  0  0  0  0  0  0  0  0
  152.5830  139.7185  155.8046 H   0  0  0  0  0  0  0  0  0  0  0  0
  152.9585  139.5847  154.0908 H   0  0  0  0  0  0  0  0  0  0  0  0
  153.7110  138.4901  155.2470 H   0  0  0  0  0  0  0  0  0  0  0  0
  151.2864  137.2170  153.0974 H   0  0  0  0  0  0  0  0  0  0  0  0
  148.8131  137.2142  153.7918 H   0  0  0  0  0  0  0  0  0  0  0  0
  146.4734  140.0500  153.9290 H   0  0  0  0  0  0  0  0  0  0  0  0
  146.8952  137.3219  152.5511 H   0  0  0  0  0  0  0  0  0  0  0  0
  145.5574  137.8127  153.6694 H   0  0  0  0  0  0  0  0  0  0  0  0
  145.5504  138.3514  150.9629 H   0  0  0  0  0  0  0  0  0  0  0  0
  146.5456  140.8362  151.6324 H   0  0  0  0  0  0  0  0  0  0  0  0
  147.5923  139.4498  151.1202 H   0  0  0  0  0  0  0  0  0  0  0  0
  144.8209  139.3600  152.1068 H   0  0  0  0  0  0  0  0  0  0  0  0
  1  2  1  0  0  0  0
  1 14  1  0  0  0  0
  1 15  1  0  0  0  0
  1 16  1  0  0  0  0
  2  3  1  0  0  0  0
  2  4  1  0  0  0  0
  2  5  1  0  0  0  0
  3 17  1  0  0  0  0
  3 18  1  0  0  0  0
  3 19  1  0  0  0  0
  4 20  1  0  0  0  0
  5 13  1  0  0  0  0
  5  6  2  0  0  0  0
  6  7  1  0  0  0  0
  6 21  1  0  0  0  0
  7  8  1  0  0  0  0
  7 12  1  0  0  0  0
  8 11  1  0  0  0  0
  8  9  1  0  0  0  0
  8 22  1  0  0  0  0
  9 10  1  0  0  0  0
  9 23  1  0  0  0  0
  9 24  1  0  0  0  0
 10 11  1  0  0  0  0
 10 25  1  0  0  0  0
 10 28  1  0  0  0  0
 11 26  1  0  0  0  0
 11 27  1  0  0  0  0
 12 13  2  0  0  0  0
M  CHG  1  10   1
M  END
> <s_m_source_file>
AV-unprocessed.smi

> <i_m_source_file_index>
2550

> <i_lp_mmshare_version>
43012

> <i_f3d_flags>
0

> <s_epik_input>
W0NIM11DKFtDSDNdKShbT0hdKWMxW2NIXW4obm4xKVtDSF0yW0NIMl1bTkhdW0NIMl0y

> <s_epik_cmdline>
J2VwaWtfcHl0aG9uJywgJy1waCcsICc3LjAnLCAnLXRuJywgJzgnLCAnLW1hJywgJzIwMCcsICctbWV0YWxfYmluZGluZycsICctaW1hZScsICc8aW5maWxlLm1hZT4nLCAnLW9tYWUnLCAnPG91dGZpbGUubWFlPic=

> <r_lp_tautomer_probability>
1

> <r_epik_Ionization_Penalty>
0.215038

> <r_epik_Ionization_Penalty_Charging>
0.215038

> <r_epik_Ionization_Penalty_Neutral>
3.71976e-07

> <r_epik_State_Penalty>
0.20523

> <r_epik_Charging_Adjusted_Penalty>
0.420268

> <i_epik_Tot_Q>
1

> <i_epik_Tot_abs_Q>
1

> <r_epik_Metal_State_Penalty>
0.20531

> <b_epik_Metal_Only>
0

> <s_lp_Force_Field>
OPLS_2005

> <r_lp_Energy>
9.80929

> <b_lp_Chiralities_Consistent>
1

> <s_lp_Variant>
AV-unprocessed.smi:2550-1

> <Gold.Version>
5.8.1

> <Gold.Id.Protein>
6NUR|6NUR_protein|mol2

> <Gold.PLP.Fitness>
40.0224

> <Gold.PLP.PLP>
-23.1488

> <Gold.PLP.part.hbond>
-5.0000

> <Gold.PLP.part.metal>
0.0000

> <Gold.PLP.part.buried>
2.5908

> <Gold.PLP.part.nonpolar>
-22.1395

> <Gold.PLP.part.repulsive>
1.0602

> <Gold.PLP.ligand.clash>
0.0000

> <Gold.PLP.ligand.torsion>
0.4113

> <Gold.PLP.Chemscore.Hbond>
4.8800

> <Gold.PLP.Chemscore.CHOScore>
0.9109

> <Gold.PLP.Chemscore.Metal>
0.0000

> <Gold.Chemscore.Hbonds>
donor molecule, donor type, donor heavy atom, donor atom, acceptor molecule, acceptor atom, score
      L1  H     4    20       P1  7949  0.48
      L1  H    10    25       P1 10171  0.39
      L1  H    10    28       P1 10175  2.00
      P1  H  7989  7998       L1    13  1.00
      P1  H 10752 10764       L1     4  1.00
      L1  C     6    21       P1  7948  0.86

> <Gold.PLP.Chemscore.Internal.Correction>
0.3237

> <Gold.Rescore>
     Score         DG    S(hbond)    S(metal)    S(lipo)     H(rot)  DE(clash)    DE(int)     intcor
     17.23     -18.46       3.33        0.00      54.84       1.78       0.91       0.32       ----

> <Gold.Chemscore.Fitness>
17.2307

> <Gold.Chemscore.DG>
-18.4597

> <Gold.Chemscore.ZeroCoef>
-5.4800

> <Gold.Chemscore.Hbond>
3.3274

> <Gold.Chemscore.Metal>
0.0000

> <Gold.Chemscore.Lipo>
54.8427

> <Gold.Chemscore.Internal_Hbond>
0.0000

> <Gold.Chemscore.DEClash>
0.9087

> <Gold.Chemscore.DEInternal>
0.3203

> <Gold.Chemscore.Rot>
1.7775

> <Gold.Chemscore.Internal.Correction>
   9.000000E+99

> <Gold.Chemscore.Hbonds>
donor molecule, donor type, donor heavy atom, donor atom, acceptor molecule, acceptor atom, score
      L1  H     4    20       P1  7949  0.31
      L1  H    10    25       P1 10171  0.36
      L1  H    10    28       P1 10175  0.99
      P1  H  7989  7998       L1    13  0.64
      P1  H 10752 10764       L1     4  0.96

> <Gold.Chemscore.Hbond.Weighted>
-11.1134

> <Gold.Chemscore.Metal.Weighted>
-0.0000

> <Gold.Chemscore.Lipo.Weighted>
-6.4166

> <Gold.Chemscore.Internal_Hbond.Weighted>
0.0000

> <Gold.Chemscore.DEClash.Weighted>
0.9087

> <Gold.Chemscore.DEInternal.Weighted>
0.3203

> <Gold.Chemscore.Rot.Weighted>
4.5503

> <Gold.Chemscore.Internal.Correction.Weighted>
   9.000000E+99

> <Gold.Protein.RotatedTorsions>
[ 6907 6896 6895 6894 ] final -110.59 input  -60.11 | X-H torsion
[ 7974 7965 7964 7962 ] final  128.66 input  175.53 | X-H torsion
[ 8008 7997 7996 7995 ] final  119.65 input   59.86 | X-H torsion
[ 10167 10162 10161 10158 ] final   18.56 input  -65.29 | X-H torsion
[ 10718 10713 10712 10709 ] final  103.90 input   66.30 | X-H torsion
[ 10763 10752 10751 10750 ] final  -91.70 input  -60.55 | X-H torsion
[ 11005 11000 10999 10996 ] final  149.90 input  -57.11 | X-H torsion

> <Gold.Protein.ActiveResidues>
 VAL166  LYS551  ARG553  GLY616  TRP617  ASP618  TYR619  PRO620  LYS621  CYS622 
 ASP623  PHE694  ASN695  SER759  ASP760  ASP761  ALA762  ILE779  LEU786  VAL792 
 PHE793  MET794  SER795  GLU796  ALA797  LYS798  CYS799  TRP800  GLU811  SER814 

> <Gold.Protein.RotatedAtoms>
  150.7635  133.9359  159.3440 H   0  0  0  0  0  0  0  0  0  0  0  0  # atno 6907 bound_to 6896
  151.7262  135.0882  160.0302 H   0  0  0  0  0  0  0  0  0  0  0  0  # atno 6908 bound_to 6896
  152.3618  133.6269  159.6057 H   0  0  0  0  0  0  0  0  0  0  0  0  # atno 6909 bound_to 6896
  145.0371  139.3995  143.5120 H   0  0  0  0  0  0  0  0  0  0  0  0  # atno 7974 bound_to 7965
  156.2606  140.2848  156.1025 H   0  0  0  0  0  0  0  0  0  0  0  0  # atno 8008 bound_to 7997
  155.1344  140.0394  157.2800 H   0  0  0  0  0  0  0  0  0  0  0  0  # atno 8009 bound_to 7997
  154.6576  140.2559  155.7151 H   0  0  0  0  0  0  0  0  0  0  0  0  # atno 8010 bound_to 7997
  140.5644  143.9277  150.6666 H   0  0  0  0  0  0  0  0  0  0  0  0  # atno 10167 bound_to 10162
  157.6758  131.0790  150.5625 H   0  0  0  0  0  0  0  0  0  0  0  0  # atno 10718 bound_to 10713
  154.6787  135.5258  153.8233 H   0  0  0  0  0  0  0  0  0  0  0  0  # atno 10763 bound_to 10752
  153.0549  135.6547  154.0610 H   0  0  0  0  0  0  0  0  0  0  0  0  # atno 10764 bound_to 10752
  154.0500  135.2970  155.3321 H   0  0  0  0  0  0  0  0  0  0  0  0  # atno 10765 bound_to 10752
  140.1084  134.8939  157.1901 H   0  0  0  0  0  0  0  0  0  0  0  0  # atno 11005 bound_to 11000
  146.3505  139.9952  142.8681 LP  0  0  0  0  0  0  0  0  0  0  0  0  # atno 17320 bound_to 7965
  145.1695  140.9714  143.4330 LP  0  0  0  0  0  0  0  0  0  0  0  0  # atno 17321 bound_to 7965
  140.2736  143.3438  152.1215 LP  0  0  0  0  0  0  0  0  0  0  0  0  # atno 17342 bound_to 10162
  139.5086  144.6852  151.5905 LP  0  0  0  0  0  0  0  0  0  0  0  0  # atno 17343 bound_to 10162
  156.5927  130.4333  149.5930 LP  0  0  0  0  0  0  0  0  0  0  0  0  # atno 17370 bound_to 10713
  156.2570  130.6940  151.1697 LP  0  0  0  0  0  0  0  0  0  0  0  0  # atno 17371 bound_to 10713
  140.3124  134.3009  155.7264 LP  0  0  0  0  0  0  0  0  0  0  0  0  # atno 17394 bound_to 11000
  141.2124  133.7658  156.9795 LP  0  0  0  0  0  0  0  0  0  0  0  0  # atno 17395 bound_to 11000

$$$$
