AV-unprocessed.smi:1209|AV-procd|sdf|5069|dock1
  -GOLD-   22720 4113D 1   1.00000     0.00000
 Structure written by MMmdl.
 48 50  0  0  0  0  0  0  0  0  1 V2000
  145.3112  134.8886  150.5141 C   0  0  0  0  0  0  0  0  0  0  0  0
  145.8127  136.0468  151.3063 C   0  0  0  0  0  0  0  0  0  0  0  0
  146.2722  137.2844  150.9568 C   0  0  0  0  0  0  0  0  0  0  0  0
  146.5888  137.8904  152.2044 C   0  0  0  0  0  0  0  0  0  0  0  0
  147.1414  139.2675  152.4635 C   0  0  0  0  0  0  0  0  0  0  0  0
  147.5999  139.4639  153.8402 N   0  0  0  0  0  0  0  0  0  0  0  0
  148.7192  138.5741  154.1513 C   0  0  0  0  0  0  0  0  0  0  0  0
  147.9459  140.8704  154.0667 C   0  0  0  0  0  0  0  0  0  0  0  0
  148.6506  141.1830  155.4031 C   0  0  2  0  0  0  0  0  0  0  0  0
  147.9347  142.2130  156.0574 O   0  0  0  0  0  0  0  0  0  0  0  0
  150.1042  141.6417  155.1781 C   0  0  0  0  0  0  0  0  0  0  0  0
  150.9763  141.2980  156.2878 N   0  0  0  0  0  0  0  0  0  0  0  0
  151.7662  140.2120  156.3912 C   0  0  0  0  0  0  0  0  0  0  0  0
  152.4899  140.0887  157.5002 N   0  0  0  0  0  0  0  0  0  0  0  0
  152.1278  141.2282  158.1981 C   0  0  0  0  0  0  0  0  0  0  0  0
  152.5413  141.6991  159.4636 C   0  0  0  0  0  0  0  0  0  0  0  0
  152.0294  142.9066  159.9903 C   0  0  0  0  0  0  0  0  0  0  0  0
  152.5002  143.3754  161.3558 C   0  0  0  0  0  0  0  0  0  0  0  0
  151.0884  143.6635  159.2470 C   0  0  0  0  0  0  0  0  0  0  0  0
  150.5229  144.9625  159.7930 C   0  0  0  0  0  0  0  0  0  0  0  0
  150.6663  143.2086  157.9803 C   0  0  0  0  0  0  0  0  0  0  0  0
  151.1826  142.0058  157.4672 C   0  0  0  0  0  0  0  0  0  0  0  0
  146.3413  137.0793  153.2199 N   0  0  0  0  0  0  0  0  0  0  0  0
  145.8447  135.8989  152.6558 O   0  0  0  0  0  0  0  0  0  0  0  0
  144.9713  135.2096  149.5294 H   0  0  0  0  0  0  0  0  0  0  0  0
  144.4744  134.4050  151.0184 H   0  0  0  0  0  0  0  0  0  0  0  0
  146.0982  134.1472  150.3756 H   0  0  0  0  0  0  0  0  0  0  0  0
  146.3666  137.6966  149.9632 H   0  0  0  0  0  0  0  0  0  0  0  0
  147.9547  139.4886  151.7702 H   0  0  0  0  0  0  0  0  0  0  0  0
  146.3565  139.9908  152.2390 H   0  0  0  0  0  0  0  0  0  0  0  0
  149.0142  138.6507  155.1964 H   0  0  0  0  0  0  0  0  0  0  0  0
  149.5884  138.8039  153.5338 H   0  0  0  0  0  0  0  0  0  0  0  0
  148.4532  137.5306  153.9818 H   0  0  0  0  0  0  0  0  0  0  0  0
  148.5715  141.2161  153.2421 H   0  0  0  0  0  0  0  0  0  0  0  0
  147.0413  141.4789  154.0210 H   0  0  0  0  0  0  0  0  0  0  0  0
  148.6668  140.3086  156.0519 H   0  0  0  0  0  0  0  0  0  0  0  0
  148.4615  142.9976  156.0467 H   0  0  0  0  0  0  0  0  0  0  0  0
  150.5070  141.1815  154.2748 H   0  0  0  0  0  0  0  0  0  0  0  0
  150.1470  142.7205  155.0211 H   0  0  0  0  0  0  0  0  0  0  0  0
  151.8115  139.4693  155.6080 H   0  0  0  0  0  0  0  0  0  0  0  0
  153.2574  141.1217  160.0298 H   0  0  0  0  0  0  0  0  0  0  0  0
  152.9730  144.3549  161.2812 H   0  0  0  0  0  0  0  0  0  0  0  0
  153.2268  142.6852  161.7851 H   0  0  0  0  0  0  0  0  0  0  0  0
  151.6592  143.4474  162.0457 H   0  0  0  0  0  0  0  0  0  0  0  0
  149.7992  145.4010  159.1055 H   0  0  0  0  0  0  0  0  0  0  0  0
  151.3195  145.6901  159.9495 H   0  0  0  0  0  0  0  0  0  0  0  0
  150.0180  144.7906  160.7437 H   0  0  0  0  0  0  0  0  0  0  0  0
  149.9485  143.7743  157.4046 H   0  0  0  0  0  0  0  0  0  0  0  0
  1  2  1  0  0  0  0
  1 25  1  0  0  0  0
  1 26  1  0  0  0  0
  1 27  1  0  0  0  0
  2 24  1  0  0  0  0
  2  3  2  0  0  0  0
  3  4  1  0  0  0  0
  3 28  1  0  0  0  0
  4  5  1  0  0  0  0
  4 23  2  0  0  0  0
  5  6  1  0  0  0  0
  5 29  1  0  0  0  0
  5 30  1  0  0  0  0
  6  7  1  0  0  0  0
  6  8  1  0  0  0  0
  7 31  1  0  0  0  0
  7 32  1  0  0  0  0
  7 33  1  0  0  0  0
  8  9  1  0  0  0  0
  8 34  1  0  0  0  0
  8 35  1  0  0  0  0
  9 10  1  0  0  0  0
  9 11  1  0  0  0  0
  9 36  1  0  0  0  0
 10 37  1  0  0  0  0
 11 12  1  0  0  0  0
 11 38  1  0  0  0  0
 11 39  1  0  0  0  0
 12 22  1  0  0  0  0
 12 13  1  0  0  0  0
 13 14  2  0  0  0  0
 13 40  1  0  0  0  0
 14 15  1  0  0  0  0
 15 22  2  0  0  0  0
 15 16  1  0  0  0  0
 16 17  2  0  0  0  0
 16 41  1  0  0  0  0
 17 18  1  0  0  0  0
 17 19  1  0  0  0  0
 18 42  1  0  0  0  0
 18 43  1  0  0  0  0
 18 44  1  0  0  0  0
 19 20  1  0  0  0  0
 19 21  2  0  0  0  0
 20 45  1  0  0  0  0
 20 46  1  0  0  0  0
 20 47  1  0  0  0  0
 21 22  1  0  0  0  0
 21 48  1  0  0  0  0
 23 24  1  0  0  0  0
M  END
> <s_m_source_file>
AV-unprocessed.smi

> <i_m_source_file_index>
1209

> <i_lp_mmshare_version>
43012

> <i_f3d_flags>
0

> <s_epik_input>
W0NIM11jMVtjSF1jKG5vMSlbQ0gyXU4oW0NIM10pW0NIMl1bQ0BIXShbT0hdKVtDSDJdbihbY0hdbjIpYyhjMjMpW2NIXWMoW0NIM10pYyhbY0hdMylbQ0gzXQ==

> <s_epik_cmdline>
J2VwaWtfcHl0aG9uJywgJy1waCcsICc3LjAnLCAnLXRuJywgJzgnLCAnLW1hJywgJzIwMCcsICctbWV0YWxfYmluZGluZycsICctaW1hZScsICc8aW5maWxlLm1hZT4nLCAnLW9tYWUnLCAnPG91dGZpbGUubWFlPic=

> <r_epik_Ionization_Penalty>
0.103258

> <r_epik_Ionization_Penalty_Charging>
0

> <r_epik_Ionization_Penalty_Neutral>
0.103258

> <r_epik_State_Penalty>
0.0919675

> <r_epik_Charging_Adjusted_Penalty>
0.0919675

> <i_epik_Tot_Q>
0

> <i_epik_Tot_abs_Q>
0

> <r_epik_Metal_State_Penalty>
0.0812522

> <b_epik_Metal_Only>
0

> <s_lp_Force_Field>
OPLS_2005

> <r_lp_Energy>
18.8485

> <b_lp_Chiralities_Consistent>
1

> <s_lp_Variant>
AV-unprocessed.smi:1209-1

> <Gold.Version>
5.8.1

> <Gold.Id.Protein>
6NUR|6NUR_protein|mol2

> <Gold.PLP.Fitness>
49.7308

> <Gold.PLP.PLP>
-46.7787

> <Gold.PLP.part.hbond>
-2.0000

> <Gold.PLP.part.metal>
0.0000

> <Gold.PLP.part.buried>
0.6727

> <Gold.PLP.part.nonpolar>
-46.3212

> <Gold.PLP.part.repulsive>
0.4604

> <Gold.PLP.ligand.clash>
0.0000

> <Gold.PLP.ligand.torsion>
1.6458

> <Gold.PLP.Chemscore.Hbond>
2.0000

> <Gold.PLP.Chemscore.CHOScore>
0.0000

> <Gold.PLP.Chemscore.Metal>
0.0000

> <Gold.Chemscore.Hbonds>
donor molecule, donor type, donor heavy atom, donor atom, acceptor molecule, acceptor atom, score
      L1  H    10    37       P1  8028  1.00
      P1  H  7997  8009       L1    14  0.86

> <Gold.PLP.Chemscore.Internal.Correction>
0.2436

> <Gold.Rescore>
     Score         DG    S(hbond)    S(metal)    S(lipo)     H(rot)  DE(clash)    DE(int)     intcor
     16.45     -20.53       1.60        0.00     136.59       2.45       1.59       2.49       ----

> <Gold.Chemscore.Fitness>
16.4498

> <Gold.Chemscore.DG>
-20.5317

> <Gold.Chemscore.ZeroCoef>
-5.4800

> <Gold.Chemscore.Hbond>
1.5968

> <Gold.Chemscore.Metal>
0.0000

> <Gold.Chemscore.Lipo>
136.5877

> <Gold.Chemscore.Internal_Hbond>
0.0000

> <Gold.Chemscore.DEClash>
1.5889

> <Gold.Chemscore.DEInternal>
2.4930

> <Gold.Chemscore.Rot>
2.4462

> <Gold.Chemscore.Internal.Correction>
   9.000000E+99

> <Gold.Chemscore.Hbonds>
donor molecule, donor type, donor heavy atom, donor atom, acceptor molecule, acceptor atom, score
      L1  H    10    37       P1  8028  0.94
      P1  H  7997  8009       L1    14  0.17

> <Gold.Chemscore.Hbond.Weighted>
-5.3332

> <Gold.Chemscore.Metal.Weighted>
-0.0000

> <Gold.Chemscore.Lipo.Weighted>
-15.9808

> <Gold.Chemscore.Internal_Hbond.Weighted>
0.0000

> <Gold.Chemscore.DEClash.Weighted>
1.5889

> <Gold.Chemscore.DEInternal.Weighted>
2.4930

> <Gold.Chemscore.Rot.Weighted>
6.2623

> <Gold.Chemscore.Internal.Correction.Weighted>
   9.000000E+99

> <Gold.Protein.RotatedTorsions>
[ 6907 6896 6895 6894 ] final  120.55 input  -60.11 | X-H torsion
[ 7974 7965 7964 7962 ] final   18.56 input  175.53 | X-H torsion
[ 8008 7997 7996 7995 ] final  179.55 input   59.86 | X-H torsion
[ 10167 10162 10161 10158 ] final  -74.29 input  -65.29 | X-H torsion
[ 10718 10713 10712 10709 ] final -156.61 input   66.30 | X-H torsion
[ 10763 10752 10751 10750 ] final   80.61 input  -60.55 | X-H torsion
[ 11005 11000 10999 10996 ] final   17.24 input  -57.11 | X-H torsion

> <Gold.Protein.ActiveResidues>
 VAL166  LYS551  ARG553  GLY616  TRP617  ASP618  TYR619  PRO620  LYS621  CYS622 
 ASP623  PHE694  ASN695  SER759  ASP760  ASP761  ALA762  ILE779  LEU786  VAL792 
 PHE793  MET794  SER795  GLU796  ALA797  LYS798  CYS799  TRP800  GLU811  SER814 

> <Gold.Protein.RotatedAtoms>
  152.4390  133.7413  159.6641 H   0  0  0  0  0  0  0  0  0  0  0  0  # atno 6907 bound_to 6896
  150.8277  133.8133  159.3117 H   0  0  0  0  0  0  0  0  0  0  0  0  # atno 6908 bound_to 6896
  151.5796  135.1061  160.0066 H   0  0  0  0  0  0  0  0  0  0  0  0  # atno 6909 bound_to 6896
  146.2181  139.8440  142.8635 H   0  0  0  0  0  0  0  0  0  0  0  0  # atno 7974 bound_to 7965
  156.0421  140.1306  157.0144 H   0  0  0  0  0  0  0  0  0  0  0  0  # atno 8008 bound_to 7997
  154.4396  140.1028  156.6323 H   0  0  0  0  0  0  0  0  0  0  0  0  # atno 8009 bound_to 7997
  155.5650  140.3465  155.4503 H   0  0  0  0  0  0  0  0  0  0  0  0  # atno 8010 bound_to 7997
  140.5039  143.2356  151.7706 H   0  0  0  0  0  0  0  0  0  0  0  0  # atno 10167 bound_to 10162
  156.5288  130.8511  151.2709 H   0  0  0  0  0  0  0  0  0  0  0  0  # atno 10718 bound_to 10713
  153.1048  135.4796  154.8931 H   0  0  0  0  0  0  0  0  0  0  0  0  # atno 10763 bound_to 10752
  154.7418  135.3084  154.8718 H   0  0  0  0  0  0  0  0  0  0  0  0  # atno 10764 bound_to 10752
  153.9323  135.6843  153.4799 H   0  0  0  0  0  0  0  0  0  0  0  0  # atno 10765 bound_to 10752
  140.4382  134.1349  155.7687 H   0  0  0  0  0  0  0  0  0  0  0  0  # atno 11005 bound_to 11000
  145.2870  141.0156  143.3685 LP  0  0  0  0  0  0  0  0  0  0  0  0  # atno 17320 bound_to 7965
  144.9106  139.4533  143.6588 LP  0  0  0  0  0  0  0  0  0  0  0  0  # atno 17321 bound_to 7965
  139.4879  144.4484  151.9683 LP  0  0  0  0  0  0  0  0  0  0  0  0  # atno 17342 bound_to 10162
  140.3574  144.3015  150.5939 LP  0  0  0  0  0  0  0  0  0  0  0  0  # atno 17343 bound_to 10162
  157.7425  130.9892  150.2521 LP  0  0  0  0  0  0  0  0  0  0  0  0  # atno 17370 bound_to 10713
  156.3079  130.3767  149.7689 LP  0  0  0  0  0  0  0  0  0  0  0  0  # atno 17371 bound_to 10713
  141.1717  133.8596  157.1550 LP  0  0  0  0  0  0  0  0  0  0  0  0  # atno 17394 bound_to 11000
  140.0088  134.9997  157.0350 LP  0  0  0  0  0  0  0  0  0  0  0  0  # atno 17395 bound_to 11000

$$$$
