AV-unprocessed.smi:1483|AV-procd|sdf|5991|dock1
  -GOLD-   22720 6 83D 1   1.00000     0.00000
 Structure written by MMmdl.
 50 51  0  0  0  0  0  0  0  0  3 V2000
  150.5753  143.5208  158.5242 C   0  0  0  0  0  0  0  0  0  0  0  0
  150.6511  142.4074  157.5012 C   0  0  0  0  0  0  0  0  0  0  0  0
  151.5117  141.2994  157.6557 C   0  0  0  0  0  0  0  0  0  0  0  0
  151.5293  140.2973  156.6637 C   0  0  0  0  0  0  0  0  0  0  0  0
  150.6882  140.4226  155.5358 C   0  0  0  0  0  0  0  0  0  0  0  0
  150.6866  139.3615  154.4498 C   0  0  0  0  0  0  0  0  0  0  0  0
  149.4177  138.5132  154.5384 C   0  0  0  0  0  0  0  0  0  0  0  0
  149.1688  137.8873  155.5681 O   0  0  0  0  0  0  0  0  0  0  0  0
  148.6231  138.5060  153.4563 N   0  0  0  0  0  0  0  0  0  0  0  0
  147.3653  137.7740  153.3410 C   0  0  2  0  0  0  0  0  0  0  0  0
  146.6286  138.1549  152.0450 C   0  0  0  0  0  0  0  0  0  0  0  0
  145.2542  137.4697  151.9642 C   0  0  0  0  0  0  0  0  0  0  0  0
  144.4199  137.7896  153.1517 N   0  3  1  0  0  0  0  0  0  0  0  0
  143.0413  137.2483  153.0306 C   0  0  0  0  0  0  0  0  0  0  0  0
  142.9784  135.7104  153.1581 C   0  0  0  0  0  0  0  0  0  0  0  0
  143.4785  135.0421  151.8690 C   0  0  0  0  0  0  0  0  0  0  0  0
  141.5615  135.2208  153.5019 C   0  0  0  0  0  0  0  0  0  0  0  0
  145.0987  137.3947  154.4152 C   0  0  0  0  0  0  0  0  0  0  0  0
  146.4679  138.0820  154.5496 C   0  0  0  0  0  0  0  0  0  0  0  0
  149.8467  141.5523  155.4364 C   0  0  0  0  0  0  0  0  0  0  0  0
  149.8591  142.4906  156.4087 N   0  3  0  0  0  0  0  0  0  0  0  0
  151.3399  143.4006  159.2924 H   0  0  0  0  0  0  0  0  0  0  0  0
  149.6000  143.5217  159.0114 H   0  0  0  0  0  0  0  0  0  0  0  0
  150.7238  144.4897  158.0467 H   0  0  0  0  0  0  0  0  0  0  0  0
  152.1510  141.2158  158.5225 H   0  0  0  0  0  0  0  0  0  0  0  0
  152.1837  139.4442  156.7689 H   0  0  0  0  0  0  0  0  0  0  0  0
  150.7592  139.8285  153.4665 H   0  0  0  0  0  0  0  0  0  0  0  0
  151.5636  138.7219  154.5588 H   0  0  0  0  0  0  0  0  0  0  0  0
  148.9103  139.0483  152.6543 H   0  0  0  0  0  0  0  0  0  0  0  0
  147.5700  136.7014  153.3332 H   0  0  0  0  0  0  0  0  0  0  0  0
  146.4960  139.2370  151.9967 H   0  0  0  0  0  0  0  0  0  0  0  0
  147.2269  137.8782  151.1760 H   0  0  0  0  0  0  0  0  0  0  0  0
  144.7464  137.7995  151.0570 H   0  0  0  0  0  0  0  0  0  0  0  0
  145.3764  136.3881  151.8846 H   0  0  0  0  0  0  0  0  0  0  0  0
  142.4110  137.6783  153.8105 H   0  0  0  0  0  0  0  0  0  0  0  0
  142.6113  137.5749  152.0824 H   0  0  0  0  0  0  0  0  0  0  0  0
  143.6468  135.3868  153.9551 H   0  0  0  0  0  0  0  0  0  0  0  0
  142.8543  135.3072  151.0150 H   0  0  0  0  0  0  0  0  0  0  0  0
  143.4718  133.9554  151.9607 H   0  0  0  0  0  0  0  0  0  0  0  0
  144.5011  135.3440  151.6402 H   0  0  0  0  0  0  0  0  0  0  0  0
  140.8426  135.5153  152.7364 H   0  0  0  0  0  0  0  0  0  0  0  0
  141.2185  135.6246  154.4545 H   0  0  0  0  0  0  0  0  0  0  0  0
  141.5318  134.1338  153.5823 H   0  0  0  0  0  0  0  0  0  0  0  0
  144.4883  137.6623  155.2765 H   0  0  0  0  0  0  0  0  0  0  0  0
  145.2199  136.3106  154.4417 H   0  0  0  0  0  0  0  0  0  0  0  0
  146.9544  137.7548  155.4696 H   0  0  0  0  0  0  0  0  0  0  0  0
  146.3233  139.1596  154.6424 H   0  0  0  0  0  0  0  0  0  0  0  0
  149.1713  141.7350  154.6130 H   0  0  0  0  0  0  0  0  0  0  0  0
  144.3280  138.7953  153.1662 H   0  0  0  0  0  0  0  0  0  0  0  0
  149.2433  143.2985  156.3135 H   0  0  0  0  0  0  0  0  0  0  0  0
  1  2  1  0  0  0  0
  1 22  1  0  0  0  0
  1 23  1  0  0  0  0
  1 24  1  0  0  0  0
  2 21  1  0  0  0  0
  2  3  2  0  0  0  0
  3  4  1  0  0  0  0
  3 25  1  0  0  0  0
  4  5  2  0  0  0  0
  4 26  1  0  0  0  0
  5  6  1  0  0  0  0
  5 20  1  0  0  0  0
  6  7  1  0  0  0  0
  6 27  1  0  0  0  0
  6 28  1  0  0  0  0
  7  8  2  0  0  0  0
  7  9  1  0  0  0  0
  9 10  1  0  0  0  0
  9 29  1  0  0  0  0
 10 19  1  0  0  0  0
 10 11  1  0  0  0  0
 10 30  1  0  0  0  0
 11 12  1  0  0  0  0
 11 31  1  0  0  0  0
 11 32  1  0  0  0  0
 12 13  1  0  0  0  0
 12 33  1  0  0  0  0
 12 34  1  0  0  0  0
 13 14  1  0  0  0  0
 13 18  1  0  0  0  0
 13 49  1  0  0  0  0
 14 15  1  0  0  0  0
 14 35  1  0  0  0  0
 14 36  1  0  0  0  0
 15 16  1  0  0  0  0
 15 17  1  0  0  0  0
 15 37  1  0  0  0  0
 16 38  1  0  0  0  0
 16 39  1  0  0  0  0
 16 40  1  0  0  0  0
 17 41  1  0  0  0  0
 17 42  1  0  0  0  0
 17 43  1  0  0  0  0
 18 19  1  0  0  0  0
 18 44  1  0  0  0  0
 18 45  1  0  0  0  0
 19 46  1  0  0  0  0
 19 47  1  0  0  0  0
 20 21  2  0  0  0  0
 20 48  1  0  0  0  0
 21 50  1  0  0  0  0
M  CHG  1  13   1
M  CHG  1  21   1
M  END
> <s_m_source_file>
AV-unprocessed.smi

> <i_m_source_file_index>
1483

> <i_lp_mmshare_version>
43012

> <i_f3d_flags>
0

> <s_epik_input>
W0NIM11jMVtjSF1bY0hdYyhbY0hdbjEpW0NIMl1DKD1PKVtOSF1bQ0hdMltDSDJdW0NIMl1OKFtDSDJdW0NIMl0yKVtDSDJdW0NIXShbQ0gzXSlbQ0gzXQ==

> <s_epik_cmdline>
J2VwaWtfcHl0aG9uJywgJy1waCcsICc3LjAnLCAnLXRuJywgJzgnLCAnLW1hJywgJzIwMCcsICctbWV0YWxfYmluZGluZycsICctaW1hZScsICc8aW5maWxlLm1hZT4nLCAnLW9tYWUnLCAnPG91dGZpbGUubWFlPic=

> <r_epik_Ionization_Penalty>
2.20554

> <r_epik_Ionization_Penalty_Charging>
2.20554

> <r_epik_Ionization_Penalty_Neutral>
2.83835e-07

> <r_epik_State_Penalty>
2.34446

> <r_epik_Charging_Adjusted_Penalty>
4.55

> <i_epik_Tot_Q>
2

> <i_epik_Tot_abs_Q>
2

> <r_epik_Metal_State_Penalty>
2.35906

> <b_epik_Metal_Only>
0

> <s_lp_Force_Field>
OPLS_2005

> <r_lp_Energy>
27.324

> <b_lp_Chiralities_Consistent>
1

> <s_lp_Variant>
AV-unprocessed.smi:1483-3

> <Gold.Version>
5.8.1

> <Gold.Id.Protein>
6NUR|6NUR_protein|mol2

> <Gold.PLP.Fitness>
46.4757

> <Gold.PLP.PLP>
-32.2574

> <Gold.PLP.part.hbond>
-4.0000

> <Gold.PLP.part.metal>
0.0000

> <Gold.PLP.part.buried>
4.6600

> <Gold.PLP.part.nonpolar>
-33.3692

> <Gold.PLP.part.repulsive>
0.1857

> <Gold.PLP.ligand.clash>
0.0000

> <Gold.PLP.ligand.torsion>
0.4195

> <Gold.PLP.Chemscore.Hbond>
5.0000

> <Gold.PLP.Chemscore.CHOScore>
0.0000

> <Gold.PLP.Chemscore.Metal>
0.0000

> <Gold.Chemscore.Hbonds>
donor molecule, donor type, donor heavy atom, donor atom, acceptor molecule, acceptor atom, score
      L1  H     9    29       P1  7957  1.00
      L1  H    13    49       P1 10175  2.00
      L1  H    21    50       P1  8028  2.00

> <Gold.PLP.Chemscore.Internal.Correction>
0.0574

> <Gold.Rescore>
     Score         DG    S(hbond)    S(metal)    S(lipo)     H(rot)  DE(clash)    DE(int)     intcor
     16.46     -21.70       2.89        0.00      90.17       1.55       3.25       1.99       ----

> <Gold.Chemscore.Fitness>
16.4624

> <Gold.Chemscore.DG>
-21.7037

> <Gold.Chemscore.ZeroCoef>
-5.4800

> <Gold.Chemscore.Hbond>
2.8884

> <Gold.Chemscore.Metal>
0.0000

> <Gold.Chemscore.Lipo>
90.1674

> <Gold.Chemscore.Internal_Hbond>
0.0000

> <Gold.Chemscore.DEClash>
3.2529

> <Gold.Chemscore.DEInternal>
1.9883

> <Gold.Chemscore.Rot>
1.5520

> <Gold.Chemscore.Internal.Correction>
   9.000000E+99

> <Gold.Chemscore.Hbonds>
donor molecule, donor type, donor heavy atom, donor atom, acceptor molecule, acceptor atom, score
      L1  H     9    29       P1  7957  1.00
      L1  H    13    49       P1 10175  0.96
      L1  H    21    50       P1  8028  0.94

> <Gold.Chemscore.Hbond.Weighted>
-9.6471

> <Gold.Chemscore.Metal.Weighted>
-0.0000

> <Gold.Chemscore.Lipo.Weighted>
-10.5496

> <Gold.Chemscore.Internal_Hbond.Weighted>
0.0000

> <Gold.Chemscore.DEClash.Weighted>
3.2529

> <Gold.Chemscore.DEInternal.Weighted>
1.9883

> <Gold.Chemscore.Rot.Weighted>
3.9730

> <Gold.Chemscore.Internal.Correction.Weighted>
   9.000000E+99

> <Gold.Protein.RotatedTorsions>
[ 6907 6896 6895 6894 ] final  -52.12 input  -60.11 | X-H torsion
[ 7974 7965 7964 7962 ] final -156.65 input  175.53 | X-H torsion
[ 8008 7997 7996 7995 ] final -150.80 input   59.86 | X-H torsion
[ 10167 10162 10161 10158 ] final -120.61 input  -65.29 | X-H torsion
[ 10718 10713 10712 10709 ] final  -16.62 input   66.30 | X-H torsion
[ 10763 10752 10751 10750 ] final -162.12 input  -60.55 | X-H torsion
[ 11005 11000 10999 10996 ] final  -20.39 input  -57.11 | X-H torsion

> <Gold.Protein.ActiveResidues>
 VAL166  LYS551  ARG553  GLY616  TRP617  ASP618  TYR619  PRO620  LYS621  CYS622 
 ASP623  PHE694  ASN695  SER759  ASP760  ASP761  ALA762  ILE779  LEU786  VAL792 
 PHE793  MET794  SER795  GLU796  ALA797  LYS798  CYS799  TRP800  GLU811  SER814 

> <Gold.Protein.RotatedAtoms>
  150.8547  134.7883  159.7036 H   0  0  0  0  0  0  0  0  0  0  0  0  # atno 6907 bound_to 6896
  152.4602  134.5198  159.9789 H   0  0  0  0  0  0  0  0  0  0  0  0  # atno 6908 bound_to 6896
  151.5312  133.3410  159.2954 H   0  0  0  0  0  0  0  0  0  0  0  0  # atno 6909 bound_to 6896
  144.7584  140.4080  143.5995 H   0  0  0  0  0  0  0  0  0  0  0  0  # atno 7974 bound_to 7965
  155.6293  140.0690  157.2654 H   0  0  0  0  0  0  0  0  0  0  0  0  # atno 8008 bound_to 7997
  154.4210  140.1770  156.1504 H   0  0  0  0  0  0  0  0  0  0  0  0  # atno 8009 bound_to 7997
  155.9946  140.3342  155.6789 H   0  0  0  0  0  0  0  0  0  0  0  0  # atno 8010 bound_to 7997
  140.0339  143.5220  152.2163 H   0  0  0  0  0  0  0  0  0  0  0  0  # atno 10167 bound_to 10162
  156.5850  130.4784  149.6304 H   0  0  0  0  0  0  0  0  0  0  0  0  # atno 10718 bound_to 10713
  154.7243  135.3032  154.8997 H   0  0  0  0  0  0  0  0  0  0  0  0  # atno 10763 bound_to 10752
  153.9859  135.6724  153.4756 H   0  0  0  0  0  0  0  0  0  0  0  0  # atno 10764 bound_to 10752
  153.0861  135.4983  154.8518 H   0  0  0  0  0  0  0  0  0  0  0  0  # atno 10765 bound_to 10752
  140.8460  133.7891  155.9913 H   0  0  0  0  0  0  0  0  0  0  0  0  # atno 11005 bound_to 11000
  145.6702  139.1598  143.2758 LP  0  0  0  0  0  0  0  0  0  0  0  0  # atno 17320 bound_to 7965
  146.1619  140.6774  142.9273 LP  0  0  0  0  0  0  0  0  0  0  0  0  # atno 17321 bound_to 7965
  139.6058  144.7595  151.3066 LP  0  0  0  0  0  0  0  0  0  0  0  0  # atno 17342 bound_to 10162
  140.7290  143.6920  150.7914 LP  0  0  0  0  0  0  0  0  0  0  0  0  # atno 17343 bound_to 10162
  156.2598  130.6956  151.1721 LP  0  0  0  0  0  0  0  0  0  0  0  0  # atno 17370 bound_to 10713
  157.7317  131.0605  150.5663 LP  0  0  0  0  0  0  0  0  0  0  0  0  # atno 17371 bound_to 10713
  140.8843  134.2573  157.5128 LP  0  0  0  0  0  0  0  0  0  0  0  0  # atno 17394 bound_to 11000
  139.8703  134.9630  156.4449 LP  0  0  0  0  0  0  0  0  0  0  0  0  # atno 17395 bound_to 11000

$$$$
