AV-unprocessed.smi:1047|AV-procd|sdf|4569|dock7
  -GOLD-   22720 3 23D 1   1.00000     0.00000
 Structure written by MMmdl.
 56 58  0  0  0  0  0  0  0  0  2 V2000
  146.5485  133.7572  150.8450 C   0  0  0  0  0  0  0  0  0  0  0  0
  147.2238  132.4033  151.1070 C   0  0  0  0  0  0  0  0  0  0  0  0
  147.8512  132.2711  152.4211 N   0  0  0  0  0  0  0  0  0  0  0  0
  146.8471  132.2548  153.4788 C   0  0  0  0  0  0  0  0  0  0  0  0
  147.4840  132.1189  154.8713 C   0  0  0  0  0  0  0  0  0  0  0  0
  148.4160  133.1765  155.0703 O   0  0  0  0  0  0  0  0  0  0  0  0
  149.4516  133.1990  154.0907 C   0  0  2  0  0  0  0  0  0  0  0  0
  150.3862  134.3734  154.4100 C   0  0  0  0  0  0  0  0  0  0  0  0
  149.6382  135.6429  154.5027 N   0  3  0  0  0  0  0  0  0  0  0  0
  150.2309  136.6169  155.4399 C   0  0  0  0  0  0  0  0  0  0  0  0
  151.1066  137.6492  154.7054 C   0  0  2  0  0  0  0  0  0  0  0  0
  152.0418  136.9610  153.8972 O   0  0  0  0  0  0  0  0  0  0  0  0
  151.8640  138.6032  155.6556 C   0  0  0  0  0  0  0  0  0  0  0  0
  151.0986  139.7829  156.0273 N   0  0  0  0  0  0  0  0  0  0  0  0
  150.0703  140.3292  155.3495 C   0  0  0  0  0  0  0  0  0  0  0  0
  149.5157  141.4237  155.8614 N   0  0  0  0  0  0  0  0  0  0  0  0
  150.2631  141.6035  157.0124 C   0  0  0  0  0  0  0  0  0  0  0  0
  150.1850  142.6002  158.0097 C   0  0  0  0  0  0  0  0  0  0  0  0
  151.0665  142.5913  159.1140 C   0  0  0  0  0  0  0  0  0  0  0  0
  150.9520  143.6870  160.1591 C   0  0  0  0  0  0  0  0  0  0  0  0
  152.0427  141.5701  159.2355 C   0  0  0  0  0  0  0  0  0  0  0  0
  153.0006  141.5404  160.4136 C   0  0  0  0  0  0  0  0  0  0  0  0
  152.1324  140.5652  158.2499 C   0  0  0  0  0  0  0  0  0  0  0  0
  151.2555  140.5893  157.1507 C   0  0  0  0  0  0  0  0  0  0  0  0
  148.8105  133.3385  152.6947 C   0  0  0  0  0  0  0  0  0  0  0  0
  146.2059  133.8192  149.8119 H   0  0  0  0  0  0  0  0  0  0  0  0
  147.2420  134.5817  151.0129 H   0  0  0  0  0  0  0  0  0  0  0  0
  145.6785  133.9106  151.4830 H   0  0  0  0  0  0  0  0  0  0  0  0
  146.4996  131.6007  150.9580 H   0  0  0  0  0  0  0  0  0  0  0  0
  147.9856  132.2655  150.3386 H   0  0  0  0  0  0  0  0  0  0  0  0
  146.2551  133.1708  153.4416 H   0  0  0  0  0  0  0  0  0  0  0  0
  146.1526  131.4290  153.3189 H   0  0  0  0  0  0  0  0  0  0  0  0
  146.7182  132.1676  155.6453 H   0  0  0  0  0  0  0  0  0  0  0  0
  147.9866  131.1560  154.9753 H   0  0  0  0  0  0  0  0  0  0  0  0
  150.0149  132.2650  154.1370 H   0  0  0  0  0  0  0  0  0  0  0  0
  150.8893  134.1972  155.3617 H   0  0  0  0  0  0  0  0  0  0  0  0
  151.1611  134.4559  153.6466 H   0  0  0  0  0  0  0  0  0  0  0  0
  149.6082  136.0647  153.5849 H   0  0  0  0  0  0  0  0  0  0  0  0
  149.4181  137.1289  155.9561 H   0  0  0  0  0  0  0  0  0  0  0  0
  150.8092  136.0861  156.1977 H   0  0  0  0  0  0  0  0  0  0  0  0
  150.4771  138.2511  154.0487 H   0  0  0  0  0  0  0  0  0  0  0  0
  151.7703  137.0301  152.9943 H   0  0  0  0  0  0  0  0  0  0  0  0
  152.1521  138.0771  156.5670 H   0  0  0  0  0  0  0  0  0  0  0  0
  152.7928  138.9319  155.1884 H   0  0  0  0  0  0  0  0  0  0  0  0
  149.7149  139.9042  154.4217 H   0  0  0  0  0  0  0  0  0  0  0  0
  149.4404  143.3773  157.9177 H   0  0  0  0  0  0  0  0  0  0  0  0
  150.7616  143.2598  161.1440 H   0  0  0  0  0  0  0  0  0  0  0  0
  150.1357  144.3725  159.9298 H   0  0  0  0  0  0  0  0  0  0  0  0
  151.8737  144.2677  160.2048 H   0  0  0  0  0  0  0  0  0  0  0  0
  153.6775  140.6876  160.3555 H   0  0  0  0  0  0  0  0  0  0  0  0
  152.4507  141.4662  161.3520 H   0  0  0  0  0  0  0  0  0  0  0  0
  153.6055  142.4471  160.4368 H   0  0  0  0  0  0  0  0  0  0  0  0
  152.8715  139.7826  158.3331 H   0  0  0  0  0  0  0  0  0  0  0  0
  149.6021  133.3313  151.9456 H   0  0  0  0  0  0  0  0  0  0  0  0
  148.3153  134.3079  152.6165 H   0  0  0  0  0  0  0  0  0  0  0  0
  148.6926  135.4430  154.7958 H   0  0  0  0  0  0  0  0  0  0  0  0
  1  2  1  0  0  0  0
  1 26  1  0  0  0  0
  1 27  1  0  0  0  0
  1 28  1  0  0  0  0
  2  3  1  0  0  0  0
  2 29  1  0  0  0  0
  2 30  1  0  0  0  0
  3 25  1  0  0  0  0
  3  4  1  0  0  0  0
  4  5  1  0  0  0  0
  4 31  1  0  0  0  0
  4 32  1  0  0  0  0
  5  6  1  0  0  0  0
  5 33  1  0  0  0  0
  5 34  1  0  0  0  0
  6  7  1  0  0  0  0
  7  8  1  0  0  0  0
  7 25  1  0  0  0  0
  7 35  1  0  0  0  0
  8  9  1  0  0  0  0
  8 36  1  0  0  0  0
  8 37  1  0  0  0  0
  9 10  1  0  0  0  0
  9 38  1  0  0  0  0
  9 56  1  0  0  0  0
 10 11  1  0  0  0  0
 10 39  1  0  0  0  0
 10 40  1  0  0  0  0
 11 12  1  0  0  0  0
 11 13  1  0  0  0  0
 11 41  1  0  0  0  0
 12 42  1  0  0  0  0
 13 14  1  0  0  0  0
 13 43  1  0  0  0  0
 13 44  1  0  0  0  0
 14 24  1  0  0  0  0
 14 15  1  0  0  0  0
 15 16  2  0  0  0  0
 15 45  1  0  0  0  0
 16 17  1  0  0  0  0
 17 24  2  0  0  0  0
 17 18  1  0  0  0  0
 18 19  2  0  0  0  0
 18 46  1  0  0  0  0
 19 20  1  0  0  0  0
 19 21  1  0  0  0  0
 20 47  1  0  0  0  0
 20 48  1  0  0  0  0
 20 49  1  0  0  0  0
 21 22  1  0  0  0  0
 21 23  2  0  0  0  0
 22 50  1  0  0  0  0
 22 51  1  0  0  0  0
 22 52  1  0  0  0  0
 23 24  1  0  0  0  0
 23 53  1  0  0  0  0
 25 54  1  0  0  0  0
 25 55  1  0  0  0  0
M  CHG  1   9   1
M  END
> <s_m_source_file>
AV-unprocessed.smi

> <i_m_source_file_index>
1047

> <i_lp_mmshare_version>
43012

> <i_f3d_flags>
0

> <s_epik_input>
W0NIM11bQ0gyXU4xW0NIMl1bQ0gyXU9bQ0BIXShbQ0gyXTEpW0NIMl1bTkhdW0NIMl1bQ0BIXShbT0hdKVtDSDJdbihbY0hdbjIpYyhjMjMpW2NIXWMoW0NIM10pYyhbY0hdMylbQ0gzXQ==

> <s_epik_cmdline>
J2VwaWtfcHl0aG9uJywgJy1waCcsICc3LjAnLCAnLXRuJywgJzgnLCAnLW1hJywgJzIwMCcsICctbWV0YWxfYmluZGluZycsICctaW1hZScsICc8aW5maWxlLm1hZT4nLCAnLW9tYWUnLCAnPG91dGZpbGUubWFlPic=

> <r_epik_Ionization_Penalty>
0.692425

> <r_epik_Ionization_Penalty_Charging>
0.0243549

> <r_epik_Ionization_Penalty_Neutral>
0.66807

> <r_epik_State_Penalty>
0.592789

> <r_epik_Charging_Adjusted_Penalty>
0.617144

> <i_epik_Tot_Q>
1

> <i_epik_Tot_abs_Q>
1

> <r_epik_Metal_State_Penalty>
0.508021

> <b_epik_Metal_Only>
0

> <s_lp_Force_Field>
OPLS_2005

> <r_lp_Energy>
30.0257

> <b_lp_Chiralities_Consistent>
1

> <s_lp_Variant>
AV-unprocessed.smi:1047-10

> <Gold.Version>
5.8.1

> <Gold.Id.Protein>
6NUR|6NUR_protein|mol2

> <Gold.PLP.Fitness>
56.9111

> <Gold.PLP.PLP>
-46.9596

> <Gold.PLP.part.hbond>
-3.0000

> <Gold.PLP.part.metal>
0.0000

> <Gold.PLP.part.buried>
-4.1407

> <Gold.PLP.part.nonpolar>
-40.1209

> <Gold.PLP.part.repulsive>
0.2613

> <Gold.PLP.ligand.clash>
0.0000

> <Gold.PLP.ligand.torsion>
1.1789

> <Gold.PLP.Chemscore.Hbond>
4.0000

> <Gold.PLP.Chemscore.CHOScore>
0.0000

> <Gold.PLP.Chemscore.Metal>
0.0000

> <Gold.Chemscore.Hbonds>
donor molecule, donor type, donor heavy atom, donor atom, acceptor molecule, acceptor atom, score
      L1  H     9    38       P1  7948  2.00
      L1  H    12    42       P1  7949  0.86
      P1  H 10752 10765       L1    12  1.00

> <Gold.PLP.Chemscore.Internal.Correction>
0.3093

> <Gold.Rescore>
     Score         DG    S(hbond)    S(metal)    S(lipo)     H(rot)  DE(clash)    DE(int)     intcor
     20.29     -21.32       2.61        0.00     117.98       2.60       0.02       1.01       ----

> <Gold.Chemscore.Fitness>
20.2898

> <Gold.Chemscore.DG>
-21.3199

> <Gold.Chemscore.ZeroCoef>
-5.4800

> <Gold.Chemscore.Hbond>
2.6062

> <Gold.Chemscore.Metal>
0.0000

> <Gold.Chemscore.Lipo>
117.9802

> <Gold.Chemscore.Internal_Hbond>
0.0000

> <Gold.Chemscore.DEClash>
0.0174

> <Gold.Chemscore.DEInternal>
1.0127

> <Gold.Chemscore.Rot>
2.6049

> <Gold.Chemscore.Internal.Correction>
   9.000000E+99

> <Gold.Chemscore.Hbonds>
donor molecule, donor type, donor heavy atom, donor atom, acceptor molecule, acceptor atom, score
      L1  H     9    38       P1  7948  0.34
      L1  H    12    42       P1  7949  0.84
      P1  H 10752 10765       L1    12  0.58

> <Gold.Chemscore.Hbond.Weighted>
-8.7047

> <Gold.Chemscore.Metal.Weighted>
-0.0000

> <Gold.Chemscore.Lipo.Weighted>
-13.8037

> <Gold.Chemscore.Internal_Hbond.Weighted>
0.0000

> <Gold.Chemscore.DEClash.Weighted>
0.0174

> <Gold.Chemscore.DEInternal.Weighted>
1.0127

> <Gold.Chemscore.Rot.Weighted>
6.6685

> <Gold.Chemscore.Internal.Correction.Weighted>
   9.000000E+99

> <Gold.Protein.RotatedTorsions>
[ 6907 6896 6895 6894 ] final  130.83 input  -60.11 | X-H torsion
[ 7974 7965 7964 7962 ] final  -94.79 input  175.53 | X-H torsion
[ 8008 7997 7996 7995 ] final  -12.51 input   59.86 | X-H torsion
[ 10167 10162 10161 10158 ] final  137.37 input  -65.29 | X-H torsion
[ 10718 10713 10712 10709 ] final   -1.74 input   66.30 | X-H torsion
[ 10763 10752 10751 10750 ] final  143.36 input  -60.55 | X-H torsion
[ 11005 11000 10999 10996 ] final   77.71 input  -57.11 | X-H torsion

> <Gold.Protein.ActiveResidues>
 VAL166  LYS551  ARG553  GLY616  TRP617  ASP618  TYR619  PRO620  LYS621  CYS622 
 ASP623  PHE694  ASN695  SER759  ASP760  ASP761  ALA762  ILE779  LEU786  VAL792 
 PHE793  MET794  SER795  GLU796  ALA797  LYS798  CYS799  TRP800  GLU811  SER814 

> <Gold.Protein.RotatedAtoms>
  152.3487  133.6153  159.5928 H   0  0  0  0  0  0  0  0  0  0  0  0  # atno 6907 bound_to 6896
  150.7524  133.9609  159.3524 H   0  0  0  0  0  0  0  0  0  0  0  0  # atno 6908 bound_to 6896
  151.7464  135.0843  160.0375 H   0  0  0  0  0  0  0  0  0  0  0  0  # atno 6909 bound_to 6896
  145.3687  140.9502  143.2460 H   0  0  0  0  0  0  0  0  0  0  0  0  # atno 7974 bound_to 7965
  154.5371  140.2274  155.8704 H   0  0  0  0  0  0  0  0  0  0  0  0  # atno 8008 bound_to 7997
  156.1822  140.3097  155.9133 H   0  0  0  0  0  0  0  0  0  0  0  0  # atno 8009 bound_to 7997
  155.3333  140.0446  157.3034 H   0  0  0  0  0  0  0  0  0  0  0  0  # atno 8010 bound_to 7997
  139.5147  144.6413  151.5560 H   0  0  0  0  0  0  0  0  0  0  0  0  # atno 10167 bound_to 10162
  156.8011  130.5393  149.5721 H   0  0  0  0  0  0  0  0  0  0  0  0  # atno 10718 bound_to 10713
  153.9711  135.2950  155.3427 H   0  0  0  0  0  0  0  0  0  0  0  0  # atno 10763 bound_to 10752
  154.7321  135.5063  153.8985 H   0  0  0  0  0  0  0  0  0  0  0  0  # atno 10764 bound_to 10752
  153.0899  135.6704  153.9986 H   0  0  0  0  0  0  0  0  0  0  0  0  # atno 10765 bound_to 10752
  139.9243  134.7705  156.1556 H   0  0  0  0  0  0  0  0  0  0  0  0  # atno 11005 bound_to 11000
  144.8593  139.5202  143.6820 LP  0  0  0  0  0  0  0  0  0  0  0  0  # atno 17320 bound_to 7965
  146.2895  139.7099  142.9171 LP  0  0  0  0  0  0  0  0  0  0  0  0  # atno 17321 bound_to 7965
  140.6181  143.9309  150.6505 LP  0  0  0  0  0  0  0  0  0  0  0  0  # atno 17342 bound_to 10162
  140.2574  143.3549  152.1353 LP  0  0  0  0  0  0  0  0  0  0  0  0  # atno 17343 bound_to 10162
  156.1100  130.6033  151.0033 LP  0  0  0  0  0  0  0  0  0  0  0  0  # atno 17370 bound_to 10713
  157.6553  131.0890  150.7961 LP  0  0  0  0  0  0  0  0  0  0  0  0  # atno 17371 bound_to 10713
  141.0788  133.6763  156.2293 LP  0  0  0  0  0  0  0  0  0  0  0  0  # atno 17394 bound_to 11000
  140.6382  134.5193  157.5567 LP  0  0  0  0  0  0  0  0  0  0  0  0  # atno 17395 bound_to 11000

$$$$
