AV-unprocessed.smi:261|AV-procd|sdf|1989|dock10
  -GOLD-   2262021173D 1   1.00000     0.00000
 Structure written by MMmdl.
 51 54  0  0  0  0  0  0  0  0  1 V2000
  154.0251  141.3545  162.0735 C   0  0  0  0  0  0  0  0  0  0  0  0
  153.8340  142.4380  161.1787 O   0  0  0  0  0  0  0  0  0  0  0  0
  152.7083  142.2785  160.3275 C   0  0  1  0  0  0  0  0  0  0  0  0
  152.7320  143.2059  159.1090 C   0  0  0  0  0  0  0  0  0  0  0  0
  151.8719  142.4813  158.0592 C   0  0  2  0  0  0  0  0  0  0  0  0
  150.3930  142.8990  158.1543 C   0  0  0  0  0  0  0  0  0  0  0  0
  150.1329  144.2055  158.0665 N   0  0  0  0  0  0  0  0  0  0  0  0
  149.5019  142.0660  158.3146 O   0  0  0  0  0  0  0  0  0  0  0  0
  152.0666  141.0679  158.3846 N   0  0  0  0  0  0  0  0  0  0  0  0
  151.8766  140.0300  157.5228 C   0  0  0  0  0  0  0  0  0  0  0  0
  152.2907  140.1919  156.2377 N   0  0  0  0  0  0  0  0  0  0  0  0
  152.1362  139.2166  155.3391 C   0  0  0  0  0  0  0  0  0  0  0  0
  151.5987  138.0088  155.5058 N   0  0  0  0  0  0  0  0  0  0  0  0
  151.1786  137.8303  156.7901 C   0  0  0  0  0  0  0  0  0  0  0  0
  151.2759  138.7759  157.8539 C   0  0  0  0  0  0  0  0  0  0  0  0
  150.7367  138.2197  159.0104 N   0  0  0  0  0  0  0  0  0  0  0  0
  150.3499  137.0264  158.6543 C   0  0  0  0  0  0  0  0  0  0  0  0
  150.5734  136.7119  157.3355 N   0  0  0  0  0  0  0  0  0  0  0  0
  150.2395  135.4619  156.6746 C   0  0  0  0  0  0  0  0  0  0  0  0
  149.2025  135.6479  155.5493 C   0  0  1  0  0  0  0  0  0  0  0  0
  149.8145  136.2797  154.4399 O   0  0  0  0  0  0  0  0  0  0  0  0
  148.5719  134.3081  155.1170 C   0  0  2  0  0  0  0  0  0  0  0  0
  149.5206  133.2598  154.5062 C   0  0  0  0  0  0  0  0  0  0  0  0
  148.9170  132.9806  153.1409 C   0  0  0  0  0  0  0  0  0  0  0  0
  147.4614  133.3895  153.3257 C   0  0  0  0  0  0  0  0  0  0  0  0
  147.5574  134.5423  154.1458 O   0  0  0  0  0  0  0  0  0  0  0  0
  152.7082  140.8919  159.6840 C   0  0  0  0  0  0  0  0  0  0  0  0
  151.7784  142.4128  160.8837 H   0  0  0  0  0  0  0  0  0  0  0  0
  152.2622  142.7114  157.0674 H   0  0  0  0  0  0  0  0  0  0  0  0
  154.9144  141.5346  162.6770 H   0  0  0  0  0  0  0  0  0  0  0  0
  154.1707  140.4181  161.5337 H   0  0  0  0  0  0  0  0  0  0  0  0
  153.1799  141.2400  162.7527 H   0  0  0  0  0  0  0  0  0  0  0  0
  152.3803  144.2126  159.3394 H   0  0  0  0  0  0  0  0  0  0  0  0
  153.7538  143.2965  158.7373 H   0  0  0  0  0  0  0  0  0  0  0  0
  149.1808  144.5353  158.1299 H   0  0  0  0  0  0  0  0  0  0  0  0
  150.8922  144.8595  157.9442 H   0  0  0  0  0  0  0  0  0  0  0  0
  152.4948  139.4361  154.3443 H   0  0  0  0  0  0  0  0  0  0  0  0
  149.8842  136.3403  159.3467 H   0  0  0  0  0  0  0  0  0  0  0  0
  151.1541  135.0155  156.2825 H   0  0  0  0  0  0  0  0  0  0  0  0
  149.8578  134.7732  157.4288 H   0  0  0  0  0  0  0  0  0  0  0  0
  148.4115  136.3049  155.9131 H   0  0  0  0  0  0  0  0  0  0  0  0
  149.3800  135.9858  153.6537 H   0  0  0  0  0  0  0  0  0  0  0  0
  148.0699  133.8609  155.9767 H   0  0  0  0  0  0  0  0  0  0  0  0
  150.5566  133.5914  154.4289 H   0  0  0  0  0  0  0  0  0  0  0  0
  149.5140  132.3555  155.1160 H   0  0  0  0  0  0  0  0  0  0  0  0
  149.3855  133.6200  152.3914 H   0  0  0  0  0  0  0  0  0  0  0  0
  149.0325  131.9436  152.8244 H   0  0  0  0  0  0  0  0  0  0  0  0
  146.9598  133.6058  152.3823 H   0  0  0  0  0  0  0  0  0  0  0  0
  146.8999  132.6130  153.8479 H   0  0  0  0  0  0  0  0  0  0  0  0
  153.7288  140.5382  159.5293 H   0  0  0  0  0  0  0  0  0  0  0  0
  152.1836  140.1677  160.3083 H   0  0  0  0  0  0  0  0  0  0  0  0
  1  2  1  0  0  0  0
  1 30  1  0  0  0  0
  1 31  1  0  0  0  0
  1 32  1  0  0  0  0
  2  3  1  0  0  0  0
  3 28  1  0  0  0  0
  3 27  1  0  0  0  0
  3  4  1  0  0  0  0
  4  5  1  0  0  0  0
  4 33  1  0  0  0  0
  4 34  1  0  0  0  0
  5 29  1  0  0  0  0
  5  6  1  0  0  0  0
  5  9  1  0  0  0  0
  6  7  1  0  0  0  0
  6  8  2  0  0  0  0
  7 35  1  0  0  0  0
  7 36  1  0  0  0  0
  9 10  1  0  0  0  0
  9 27  1  0  0  0  0
 10 15  1  0  0  0  0
 10 11  2  0  0  0  0
 11 12  1  0  0  0  0
 12 13  2  0  0  0  0
 12 37  1  0  0  0  0
 13 14  1  0  0  0  0
 14 18  1  0  0  0  0
 14 15  2  0  0  0  0
 15 16  1  0  0  0  0
 16 17  2  0  0  0  0
 17 18  1  0  0  0  0
 17 38  1  0  0  0  0
 18 19  1  0  0  0  0
 19 20  1  0  0  0  0
 19 39  1  0  0  0  0
 19 40  1  0  0  0  0
 20 21  1  0  0  0  0
 20 22  1  0  0  0  0
 20 41  1  0  0  0  0
 21 42  1  0  0  0  0
 22 26  1  0  0  0  0
 22 23  1  0  0  0  0
 22 43  1  0  0  0  0
 23 24  1  0  0  0  0
 23 44  1  0  0  0  0
 23 45  1  0  0  0  0
 24 25  1  0  0  0  0
 24 46  1  0  0  0  0
 24 47  1  0  0  0  0
 25 26  1  0  0  0  0
 25 48  1  0  0  0  0
 25 49  1  0  0  0  0
 27 50  1  0  0  0  0
 27 51  1  0  0  0  0
M  END
> <s_m_source_file>
AV-unprocessed.smi

> <i_m_source_file_index>
261

> <i_lp_mmshare_version>
43012

> <i_f3d_flags>
0

> <s_epik_input>
W0NIM11PW0NASF0xW0NIMl1bQ0BASF0oQyg9TylbTkgyXSlOKFtDSDJdMSljKG5bY0hdbjIpYyhjMjMpbltjSF1uM1tDSDJdW0NASF0oW09IXSlbQ0BASF00W0NIMl1bQ0gyXVtDSDJdTzQ=

> <s_epik_cmdline>
J2VwaWtfcHl0aG9uJywgJy1waCcsICc3LjAnLCAnLXRuJywgJzgnLCAnLW1hJywgJzIwMCcsICctbWV0YWxfYmluZGluZycsICctaW1hZScsICc8aW5maWxlLm1hZT4nLCAnLW9tYWUnLCAnPG91dGZpbGUubWFlPic=

> <r_lp_tautomer_probability>
1

> <r_epik_Ionization_Penalty>
0.000713824

> <r_epik_Ionization_Penalty_Charging>
0

> <r_epik_Ionization_Penalty_Neutral>
0.000713824

> <r_epik_State_Penalty>
0.000402132

> <r_epik_Charging_Adjusted_Penalty>
0.000402132

> <i_epik_Tot_Q>
0

> <i_epik_Tot_abs_Q>
0

> <r_epik_Metal_State_Penalty>
-0

> <b_epik_Metal_Only>
0

> <s_lp_Force_Field>
OPLS_2005

> <r_lp_Energy>
44.9421

> <b_lp_Chiralities_Consistent>
1

> <s_lp_Variant>
AV-unprocessed.smi:261-7

> <Gold.Version>
5.8.1

> <Gold.Id.Protein>
6NUR|6NUR_protein|mol2

> <Gold.PLP.Fitness>
45.6362

> <Gold.PLP.PLP>
-39.7328

> <Gold.PLP.part.hbond>
-4.8596

> <Gold.PLP.part.metal>
0.0000

> <Gold.PLP.part.buried>
-1.4115

> <Gold.PLP.part.nonpolar>
-32.9616

> <Gold.PLP.part.repulsive>
0.5570

> <Gold.PLP.ligand.clash>
0.0000

> <Gold.PLP.ligand.torsion>
1.0829

> <Gold.PLP.Chemscore.Hbond>
2.6442

> <Gold.PLP.Chemscore.CHOScore>
0.0000

> <Gold.PLP.Chemscore.Metal>
0.0000

> <Gold.Chemscore.Hbonds>
donor molecule, donor type, donor heavy atom, donor atom, acceptor molecule, acceptor atom, score
      L1  H     7    35       P1  8029  0.62
      L1  H    21    42       P1  7948  0.99
      P1  H  7997  8009       L1    11  0.93

> <Gold.PLP.Chemscore.Internal.Correction>
0.1366

> <Gold.Rescore>
     Score         DG    S(hbond)    S(metal)    S(lipo)     H(rot)  DE(clash)    DE(int)     intcor
      9.65     -10.75       1.19        0.00      80.62       3.18       0.06       1.04       ----

> <Gold.Chemscore.Fitness>
9.6462

> <Gold.Chemscore.DG>
-10.7466

> <Gold.Chemscore.ZeroCoef>
-5.4800

> <Gold.Chemscore.Hbond>
1.1925

> <Gold.Chemscore.Metal>
0.0000

> <Gold.Chemscore.Lipo>
80.6178

> <Gold.Chemscore.Internal_Hbond>
0.0000

> <Gold.Chemscore.DEClash>
0.0640

> <Gold.Chemscore.DEInternal>
1.0364

> <Gold.Chemscore.Rot>
3.1831

> <Gold.Chemscore.Internal.Correction>
   9.000000E+99

> <Gold.Chemscore.Hbonds>
donor molecule, donor type, donor heavy atom, donor atom, acceptor molecule, acceptor atom, score
      L1  H     7    35       P1  8029  0.12
      L1  H    21    42       P1  7948  0.62
      P1  H  7997  8009       L1    11  0.07

> <Gold.Chemscore.Hbond.Weighted>
-3.9829

> <Gold.Chemscore.Metal.Weighted>
-0.0000

> <Gold.Chemscore.Lipo.Weighted>
-9.4323

> <Gold.Chemscore.Internal_Hbond.Weighted>
0.0000

> <Gold.Chemscore.DEClash.Weighted>
0.0640

> <Gold.Chemscore.DEInternal.Weighted>
1.0364

> <Gold.Chemscore.Rot.Weighted>
8.1486

> <Gold.Chemscore.Internal.Correction.Weighted>
   9.000000E+99

> <Gold.Protein.RotatedTorsions>
[ 6907 6896 6895 6894 ] final -110.83 input  -60.11 | X-H torsion
[ 7974 7965 7964 7962 ] final -116.44 input  175.53 | X-H torsion
[ 8008 7997 7996 7995 ] final -171.01 input   59.86 | X-H torsion
[ 10167 10162 10161 10158 ] final  139.36 input  -65.29 | X-H torsion
[ 10718 10713 10712 10709 ] final  -21.70 input   66.30 | X-H torsion
[ 10763 10752 10751 10750 ] final  145.35 input  -60.55 | X-H torsion
[ 11005 11000 10999 10996 ] final  -51.89 input  -57.11 | X-H torsion

> <Gold.Protein.ActiveResidues>
 VAL166  LYS551  ARG553  GLY616  TRP617  ASP618  TYR619  PRO620  LYS621  CYS622 
 ASP623  PHE694  ASN695  SER759  ASP760  ASP761  ALA762  ILE779  LEU786  VAL792 
 PHE793  MET794  SER795  GLU796  ALA797  LYS798  CYS799  TRP800  GLU811  SER814 

> <Gold.Protein.RotatedAtoms>
  150.7650  133.9325  159.3431 H   0  0  0  0  0  0  0  0  0  0  0  0  # atno 6907 bound_to 6896
  151.7225  135.0889  160.0296 H   0  0  0  0  0  0  0  0  0  0  0  0  # atno 6908 bound_to 6896
  152.3641  133.6296  159.6073 H   0  0  0  0  0  0  0  0  0  0  0  0  # atno 6909 bound_to 6896
  145.0967  140.8525  143.3950 H   0  0  0  0  0  0  0  0  0  0  0  0  # atno 7974 bound_to 7965
  155.9260  140.1082  157.1170 H   0  0  0  0  0  0  0  0  0  0  0  0  # atno 8008 bound_to 7997
  154.4062  140.1247  156.4806 H   0  0  0  0  0  0  0  0  0  0  0  0  # atno 8009 bound_to 7997
  155.7138  140.3470  155.4988 H   0  0  0  0  0  0  0  0  0  0  0  0  # atno 8010 bound_to 7997
  139.5081  144.6299  151.5843 H   0  0  0  0  0  0  0  0  0  0  0  0  # atno 10167 bound_to 10162
  156.5145  130.4618  149.6630 H   0  0  0  0  0  0  0  0  0  0  0  0  # atno 10718 bound_to 10713
  154.0039  135.2920  155.3400 H   0  0  0  0  0  0  0  0  0  0  0  0  # atno 10763 bound_to 10752
  154.7143  135.5136  153.8717 H   0  0  0  0  0  0  0  0  0  0  0  0  # atno 10764 bound_to 10752
  153.0753  135.6661  154.0278 H   0  0  0  0  0  0  0  0  0  0  0  0  # atno 10765 bound_to 10752
  141.0895  133.6635  156.3944 H   0  0  0  0  0  0  0  0  0  0  0  0  # atno 11005 bound_to 11000
  145.1002  139.2828  143.5690 LP  0  0  0  0  0  0  0  0  0  0  0  0  # atno 17320 bound_to 7965
  146.3530  140.0567  142.8632 LP  0  0  0  0  0  0  0  0  0  0  0  0  # atno 17321 bound_to 7965
  140.6028  143.9578  150.6398 LP  0  0  0  0  0  0  0  0  0  0  0  0  # atno 17342 bound_to 10162
  140.2795  143.3399  152.1164 LP  0  0  0  0  0  0  0  0  0  0  0  0  # atno 17343 bound_to 10162
  156.3208  130.7279  151.2191 LP  0  0  0  0  0  0  0  0  0  0  0  0  # atno 17370 bound_to 10713
  157.7446  131.0456  150.4851 LP  0  0  0  0  0  0  0  0  0  0  0  0  # atno 17371 bound_to 10713
  140.5284  134.6236  157.5342 LP  0  0  0  0  0  0  0  0  0  0  0  0  # atno 17394 bound_to 11000
  139.9719  134.7279  156.0025 LP  0  0  0  0  0  0  0  0  0  0  0  0  # atno 17395 bound_to 11000

$$$$
