AV-unprocessed.smi:2731|AV-procd|sdf|10530|dock4
  -GOLD-   2272014573D 1   1.00000     0.00000
 Structure written by MMmdl.
 45 46  0  0  0  0  0  0  0  0  1 V2000
  153.6345  138.3300  160.6345 C   0  0  0  0  0  0  0  0  0  0  0  0
  153.2445  139.7193  160.2197 C   0  0  0  0  0  0  0  0  0  0  0  0
  153.8458  140.7509  160.7880 N   0  0  0  0  0  0  0  0  0  0  0  0
  153.2742  141.8350  160.2275 N   0  0  0  0  0  0  0  0  0  0  0  0
  153.7168  143.1570  160.6271 C   0  0  0  0  0  0  0  0  0  0  0  0
  152.3057  141.4874  159.3057 C   0  0  0  0  0  0  0  0  0  0  0  0
  151.5156  142.5114  158.5558 C   0  0  0  0  0  0  0  0  0  0  0  0
  152.2613  140.1188  159.2669 C   0  0  0  0  0  0  0  0  0  0  0  0
  151.3698  139.2275  158.4342 C   0  0  0  0  0  0  0  0  0  0  0  0
  149.8697  139.4095  158.7394 C   0  0  0  0  0  0  0  0  0  0  0  0
  149.1296  138.1545  158.6269 N   0  0  0  0  0  0  0  0  0  0  0  0
  149.3609  137.0509  159.3551 C   0  0  0  0  0  0  0  0  0  0  0  0
  150.2894  136.9555  160.1592 O   0  0  0  0  0  0  0  0  0  0  0  0
  148.3830  135.8881  159.1439 C   0  0  0  0  0  0  0  0  0  0  0  0
  147.9907  135.2515  160.4081 N   0  0  0  0  0  0  0  0  0  0  0  0
  147.8782  133.7876  160.4124 C   0  0  0  0  0  0  0  0  0  0  0  0
  146.5446  133.3485  161.0398 C   0  0  0  0  0  0  0  0  0  0  0  0
  146.3144  133.9783  162.4286 C   0  0  0  0  0  0  0  0  0  0  0  0
  147.2515  135.1630  162.7553 C   0  0  0  0  0  0  0  0  0  0  0  0
  147.6700  135.9620  161.5141 C   0  0  0  0  0  0  0  0  0  0  0  0
  147.7114  137.1909  161.5709 O   0  0  0  0  0  0  0  0  0  0  0  0
  153.1597  138.0596  161.5779 H   0  0  0  0  0  0  0  0  0  0  0  0
  154.7135  138.2431  160.7659 H   0  0  0  0  0  0  0  0  0  0  0  0
  153.3341  137.5934  159.8898 H   0  0  0  0  0  0  0  0  0  0  0  0
  152.8625  143.7503  160.9536 H   0  0  0  0  0  0  0  0  0  0  0  0
  154.1934  143.6533  159.7813 H   0  0  0  0  0  0  0  0  0  0  0  0
  154.4320  143.0921  161.4488 H   0  0  0  0  0  0  0  0  0  0  0  0
  150.6246  142.0731  158.1070 H   0  0  0  0  0  0  0  0  0  0  0  0
  152.1142  142.9516  157.7584 H   0  0  0  0  0  0  0  0  0  0  0  0
  151.1858  143.3141  159.2154 H   0  0  0  0  0  0  0  0  0  0  0  0
  151.5328  139.4088  157.3719 H   0  0  0  0  0  0  0  0  0  0  0  0
  151.6326  138.1801  158.5838 H   0  0  0  0  0  0  0  0  0  0  0  0
  149.7448  139.7959  159.7511 H   0  0  0  0  0  0  0  0  0  0  0  0
  149.4466  140.1653  158.0757 H   0  0  0  0  0  0  0  0  0  0  0  0
  148.3523  138.1416  157.9828 H   0  0  0  0  0  0  0  0  0  0  0  0
  147.4882  136.2542  158.6377 H   0  0  0  0  0  0  0  0  0  0  0  0
  148.8348  135.1679  158.4600 H   0  0  0  0  0  0  0  0  0  0  0  0
  147.9512  133.3894  159.3998 H   0  0  0  0  0  0  0  0  0  0  0  0
  148.7161  133.3691  160.9716 H   0  0  0  0  0  0  0  0  0  0  0  0
  145.7351  133.6532  160.3748 H   0  0  0  0  0  0  0  0  0  0  0  0
  146.4898  132.2615  161.1020 H   0  0  0  0  0  0  0  0  0  0  0  0
  145.2746  134.2980  162.5085 H   0  0  0  0  0  0  0  0  0  0  0  0
  146.4465  133.2136  163.1947 H   0  0  0  0  0  0  0  0  0  0  0  0
  146.7855  135.8213  163.4895 H   0  0  0  0  0  0  0  0  0  0  0  0
  148.1647  134.7856  163.2166 H   0  0  0  0  0  0  0  0  0  0  0  0
  1  2  1  0  0  0  0
  1 22  1  0  0  0  0
  1 23  1  0  0  0  0
  1 24  1  0  0  0  0
  2  8  1  0  0  0  0
  2  3  2  0  0  0  0
  3  4  1  0  0  0  0
  4  5  1  0  0  0  0
  4  6  1  0  0  0  0
  5 25  1  0  0  0  0
  5 26  1  0  0  0  0
  5 27  1  0  0  0  0
  6  7  1  0  0  0  0
  6  8  2  0  0  0  0
  7 28  1  0  0  0  0
  7 29  1  0  0  0  0
  7 30  1  0  0  0  0
  8  9  1  0  0  0  0
  9 10  1  0  0  0  0
  9 31  1  0  0  0  0
  9 32  1  0  0  0  0
 10 11  1  0  0  0  0
 10 33  1  0  0  0  0
 10 34  1  0  0  0  0
 11 12  1  0  0  0  0
 11 35  1  0  0  0  0
 12 13  2  0  0  0  0
 12 14  1  0  0  0  0
 14 15  1  0  0  0  0
 14 36  1  0  0  0  0
 14 37  1  0  0  0  0
 15 20  1  0  0  0  0
 15 16  1  0  0  0  0
 16 17  1  0  0  0  0
 16 38  1  0  0  0  0
 16 39  1  0  0  0  0
 17 18  1  0  0  0  0
 17 40  1  0  0  0  0
 17 41  1  0  0  0  0
 18 19  1  0  0  0  0
 18 42  1  0  0  0  0
 18 43  1  0  0  0  0
 19 20  1  0  0  0  0
 19 44  1  0  0  0  0
 19 45  1  0  0  0  0
 20 21  2  0  0  0  0
M  END
> <s_m_source_file>
AV-unprocessed.smi

> <i_m_source_file_index>
2731

> <i_lp_mmshare_version>
43012

> <i_f3d_flags>
0

> <s_epik_input>
W0NIM11jMW5uKFtDSDNdKWMoW0NIM10pYzFbQ0gyXVtDSDJdW05IXUMoPU8pW0NIMl1OMltDSDJdW0NIMl1bQ0gyXVtDSDJdQzI9Tw==

> <s_epik_cmdline>
J2VwaWtfcHl0aG9uJywgJy1waCcsICc3LjAnLCAnLXRuJywgJzgnLCAnLW1hJywgJzIwMCcsICctbWV0YWxfYmluZGluZycsICctaW1hZScsICc8aW5maWxlLm1hZT4nLCAnLW9tYWUnLCAnPG91dGZpbGUubWFlPic=

> <r_lp_tautomer_probability>
1

> <r_epik_Ionization_Penalty>
0.0111965

> <r_epik_Ionization_Penalty_Charging>
0

> <r_epik_Ionization_Penalty_Neutral>
0.0111965

> <r_epik_State_Penalty>
0.00860379

> <r_epik_Charging_Adjusted_Penalty>
0.00860379

> <i_epik_Tot_Q>
0

> <i_epik_Tot_abs_Q>
0

> <r_epik_Metal_State_Penalty>
0.00844338

> <b_epik_Metal_Only>
0

> <s_lp_Force_Field>
OPLS_2005

> <r_lp_Energy>
7.02137

> <b_lp_Chiralities_Consistent>
1

> <s_lp_Variant>
AV-unprocessed.smi:2731-1

> <Gold.Version>
5.8.1

> <Gold.Id.Protein>
6NUR|6NUR_protein|mol2

> <Gold.PLP.Fitness>
48.3812

> <Gold.PLP.PLP>
-41.7944

> <Gold.PLP.part.hbond>
-3.2536

> <Gold.PLP.part.metal>
0.0000

> <Gold.PLP.part.buried>
-5.8321

> <Gold.PLP.part.nonpolar>
-32.8264

> <Gold.PLP.part.repulsive>
0.1073

> <Gold.PLP.ligand.clash>
0.0000

> <Gold.PLP.ligand.torsion>
0.7258

> <Gold.PLP.Chemscore.Hbond>
2.6688

> <Gold.PLP.Chemscore.CHOScore>
0.0000

> <Gold.PLP.Chemscore.Metal>
0.0000

> <Gold.Chemscore.Hbonds>
donor molecule, donor type, donor heavy atom, donor atom, acceptor molecule, acceptor atom, score
      P1  H  6896  6907       L1    13  0.91
      P1  H  6931  6943       L1    21  1.00
      P1  H  6934  6947       L1    21  0.75

> <Gold.PLP.Chemscore.Internal.Correction>
0.0323

> <Gold.Rescore>
     Score         DG    S(hbond)    S(metal)    S(lipo)     H(rot)  DE(clash)    DE(int)     intcor
     17.14     -19.19       2.61        0.00      81.48       1.78       0.01       2.04       ----

> <Gold.Chemscore.Fitness>
17.1355

> <Gold.Chemscore.DG>
-19.1876

> <Gold.Chemscore.ZeroCoef>
-5.4800

> <Gold.Chemscore.Hbond>
2.6117

> <Gold.Chemscore.Metal>
0.0000

> <Gold.Chemscore.Lipo>
81.4764

> <Gold.Chemscore.Internal_Hbond>
0.0000

> <Gold.Chemscore.DEClash>
0.0121

> <Gold.Chemscore.DEInternal>
2.0399

> <Gold.Chemscore.Rot>
1.7767

> <Gold.Chemscore.Internal.Correction>
   9.000000E+99

> <Gold.Chemscore.Hbonds>
donor molecule, donor type, donor heavy atom, donor atom, acceptor molecule, acceptor atom, score
      P1  H  6896  6907       L1    13  0.48
      P1  H  6931  6943       L1    21  0.95
      P1  H  6934  6947       L1    21  0.71

> <Gold.Chemscore.Hbond.Weighted>
-8.7231

> <Gold.Chemscore.Metal.Weighted>
-0.0000

> <Gold.Chemscore.Lipo.Weighted>
-9.5327

> <Gold.Chemscore.Internal_Hbond.Weighted>
0.0000

> <Gold.Chemscore.DEClash.Weighted>
0.0121

> <Gold.Chemscore.DEInternal.Weighted>
2.0399

> <Gold.Chemscore.Rot.Weighted>
4.5483

> <Gold.Chemscore.Internal.Correction.Weighted>
   9.000000E+99

> <Gold.Protein.RotatedTorsions>
[ 6907 6896 6895 6894 ] final  -27.69 input  -60.11 | X-H torsion
[ 7974 7965 7964 7962 ] final -109.28 input  175.53 | X-H torsion
[ 8008 7997 7996 7995 ] final   56.13 input   59.86 | X-H torsion
[ 10167 10162 10161 10158 ] final   90.24 input  -65.29 | X-H torsion
[ 10718 10713 10712 10709 ] final -122.42 input   66.30 | X-H torsion
[ 10763 10752 10751 10750 ] final -103.03 input  -60.55 | X-H torsion
[ 11005 11000 10999 10996 ] final  157.31 input  -57.11 | X-H torsion

> <Gold.Protein.ActiveResidues>
 VAL166  LYS551  ARG553  GLY616  TRP617  ASP618  TYR619  PRO620  LYS621  CYS622 
 ASP623  PHE694  ASN695  SER759  ASP760  ASP761  ALA762  ILE779  LEU786  VAL792 
 PHE793  MET794  SER795  GLU796  ALA797  LYS798  CYS799  TRP800  GLU811  SER814 

> <Gold.Protein.RotatedAtoms>
  151.1434  135.0191  159.8635 H   0  0  0  0  0  0  0  0  0  0  0  0  # atno 6907 bound_to 6896
  152.5452  134.1473  159.8514 H   0  0  0  0  0  0  0  0  0  0  0  0  # atno 6908 bound_to 6896
  151.1550  133.4836  159.2627 H   0  0  0  0  0  0  0  0  0  0  0  0  # atno 6909 bound_to 6896
  145.1825  140.8978  143.3471 H   0  0  0  0  0  0  0  0  0  0  0  0  # atno 7974 bound_to 7965
  155.5125  140.3477  155.4391 H   0  0  0  0  0  0  0  0  0  0  0  0  # atno 8008 bound_to 7997
  156.0840  140.1393  156.9704 H   0  0  0  0  0  0  0  0  0  0  0  0  # atno 8009 bound_to 7997
  154.4596  140.0940  156.6831 H   0  0  0  0  0  0  0  0  0  0  0  0  # atno 8010 bound_to 7997
  139.8493  144.6601  150.9189 H   0  0  0  0  0  0  0  0  0  0  0  0  # atno 10167 bound_to 10162
  156.1417  130.6471  150.9781 H   0  0  0  0  0  0  0  0  0  0  0  0  # atno 10718 bound_to 10713
  154.7777  135.4838  153.9779 H   0  0  0  0  0  0  0  0  0  0  0  0  # atno 10763 bound_to 10752
  153.1451  135.6780  153.8974 H   0  0  0  0  0  0  0  0  0  0  0  0  # atno 10764 bound_to 10752
  153.8636  135.3152  155.3417 H   0  0  0  0  0  0  0  0  0  0  0  0  # atno 10765 bound_to 10752
  140.1757  134.8511  157.2743 H   0  0  0  0  0  0  0  0  0  0  0  0  # atno 11005 bound_to 11000
  145.0122  139.3500  143.6114 LP  0  0  0  0  0  0  0  0  0  0  0  0  # atno 17320 bound_to 7965
  146.3450  139.9389  142.8743 LP  0  0  0  0  0  0  0  0  0  0  0  0  # atno 17321 bound_to 7965
  140.7789  143.3841  151.1424 LP  0  0  0  0  0  0  0  0  0  0  0  0  # atno 17342 bound_to 10162
  139.7481  143.8821  152.3069 LP  0  0  0  0  0  0  0  0  0  0  0  0  # atno 17343 bound_to 10162
  157.6581  131.0885  150.7900 LP  0  0  0  0  0  0  0  0  0  0  0  0  # atno 17370 bound_to 10713
  156.7975  130.4910  149.5375 LP  0  0  0  0  0  0  0  0  0  0  0  0  # atno 17371 bound_to 10713
  140.2325  134.3892  155.7515 LP  0  0  0  0  0  0  0  0  0  0  0  0  # atno 17394 bound_to 11000
  141.2220  133.7222  156.8663 LP  0  0  0  0  0  0  0  0  0  0  0  0  # atno 17395 bound_to 11000

$$$$
