AV-unprocessed.smi:2850|AV-procd|sdf|10969|dock9
  -GOLD-   2272015423D 1   1.00000     0.00000
 Structure written by MMmdl.
 44 45  0  0  0  0  0  0  0  0  1 V2000
  146.3759  133.9426  162.4359 C   0  0  0  0  0  0  0  0  0  0  0  0
  146.9029  135.6784  162.4833 S   0  0  0  0  0  0  0  0  0  0  0  0
  147.7755  136.0020  160.9808 C   0  0  0  0  0  0  0  0  0  0  0  0
  147.8195  135.0394  159.9563 C   0  0  0  0  0  0  0  0  0  0  0  0
  148.5351  135.3761  158.7942 C   0  0  0  0  0  0  0  0  0  0  0  0
  149.1476  136.6449  158.7461 C   0  0  0  0  0  0  0  0  0  0  0  0
  149.8683  137.0062  157.6005 N   0  0  0  0  0  0  0  0  0  0  0  0
  151.1894  137.6082  157.7131 C   0  0  0  0  0  0  0  0  0  0  0  0
  151.1468  139.1188  157.4473 C   0  0  2  0  0  0  0  0  0  0  0  0
  151.9445  139.9057  158.5057 C   0  0  0  0  0  0  0  0  0  0  0  0
  151.8496  141.3484  158.3084 N   0  0  0  0  0  0  0  0  0  0  0  0
  152.6300  142.0654  159.3188 C   0  0  0  0  0  0  0  0  0  0  0  0
  152.0419  143.4112  159.7951 C   0  0  0  0  0  0  0  0  0  0  0  0
  152.4264  144.5662  158.8558 C   0  0  0  0  0  0  0  0  0  0  0  0
  152.4925  143.7147  161.2313 C   0  0  0  0  0  0  0  0  0  0  0  0
  150.4401  141.7327  158.3043 C   0  0  0  0  0  0  0  0  0  0  0  0
  149.6340  140.9410  157.2610 C   0  0  0  0  0  0  0  0  0  0  0  0
  149.7874  139.5460  157.4976 O   0  0  0  0  0  0  0  0  0  0  0  0
  149.0619  137.5230  159.7779 N   0  0  0  0  0  0  0  0  0  0  0  0
  148.3821  137.2068  160.8859 N   0  0  0  0  0  0  0  0  0  0  0  0
  145.8292  133.6919  163.3449 H   0  0  0  0  0  0  0  0  0  0  0  0
  147.2398  133.2823  162.3605 H   0  0  0  0  0  0  0  0  0  0  0  0
  145.7229  133.7648  161.5812 H   0  0  0  0  0  0  0  0  0  0  0  0
  147.3266  134.0836  160.0562 H   0  0  0  0  0  0  0  0  0  0  0  0
  148.6098  134.6828  157.9693 H   0  0  0  0  0  0  0  0  0  0  0  0
  149.4260  136.9697  156.6936 H   0  0  0  0  0  0  0  0  0  0  0  0
  151.6027  137.4124  158.7034 H   0  0  0  0  0  0  0  0  0  0  0  0
  151.8486  137.1301  156.9874 H   0  0  0  0  0  0  0  0  0  0  0  0
  151.5586  139.3257  156.4576 H   0  0  0  0  0  0  0  0  0  0  0  0
  151.5814  139.6454  159.5015 H   0  0  0  0  0  0  0  0  0  0  0  0
  152.9902  139.5984  158.4669 H   0  0  0  0  0  0  0  0  0  0  0  0
  152.7814  141.4139  160.1811 H   0  0  0  0  0  0  0  0  0  0  0  0
  153.6268  142.2622  158.9213 H   0  0  0  0  0  0  0  0  0  0  0  0
  150.9549  143.3417  159.8188 H   0  0  0  0  0  0  0  0  0  0  0  0
  153.5087  144.6829  158.7933 H   0  0  0  0  0  0  0  0  0  0  0  0
  152.0090  145.5115  159.2037 H   0  0  0  0  0  0  0  0  0  0  0  0
  152.0514  144.3979  157.8460 H   0  0  0  0  0  0  0  0  0  0  0  0
  153.5764  143.8155  161.2939 H   0  0  0  0  0  0  0  0  0  0  0  0
  152.1921  142.9193  161.9138 H   0  0  0  0  0  0  0  0  0  0  0  0
  152.0505  144.6429  161.5948 H   0  0  0  0  0  0  0  0  0  0  0  0
  150.0091  141.5696  159.2933 H   0  0  0  0  0  0  0  0  0  0  0  0
  150.3351  142.7946  158.0867 H   0  0  0  0  0  0  0  0  0  0  0  0
  148.5767  141.1991  157.3232 H   0  0  0  0  0  0  0  0  0  0  0  0
  149.9650  141.1844  156.2502 H   0  0  0  0  0  0  0  0  0  0  0  0
  1  2  1  0  0  0  0
  1 21  1  0  0  0  0
  1 22  1  0  0  0  0
  1 23  1  0  0  0  0
  2  3  1  0  0  0  0
  3 20  1  0  0  0  0
  3  4  2  0  0  0  0
  4  5  1  0  0  0  0
  4 24  1  0  0  0  0
  5  6  2  0  0  0  0
  5 25  1  0  0  0  0
  6  7  1  0  0  0  0
  6 19  1  0  0  0  0
  7  8  1  0  0  0  0
  7 26  1  0  0  0  0
  8  9  1  0  0  0  0
  8 27  1  0  0  0  0
  8 28  1  0  0  0  0
  9 18  1  0  0  0  0
  9 10  1  0  0  0  0
  9 29  1  0  0  0  0
 10 11  1  0  0  0  0
 10 30  1  0  0  0  0
 10 31  1  0  0  0  0
 11 12  1  0  0  0  0
 11 16  1  0  0  0  0
 12 13  1  0  0  0  0
 12 32  1  0  0  0  0
 12 33  1  0  0  0  0
 13 14  1  0  0  0  0
 13 15  1  0  0  0  0
 13 34  1  0  0  0  0
 14 35  1  0  0  0  0
 14 36  1  0  0  0  0
 14 37  1  0  0  0  0
 15 38  1  0  0  0  0
 15 39  1  0  0  0  0
 15 40  1  0  0  0  0
 16 17  1  0  0  0  0
 16 41  1  0  0  0  0
 16 42  1  0  0  0  0
 17 18  1  0  0  0  0
 17 43  1  0  0  0  0
 17 44  1  0  0  0  0
 19 20  2  0  0  0  0
M  END
> <s_m_source_file>
AV-unprocessed.smi

> <i_m_source_file_index>
2850

> <i_lp_mmshare_version>
43012

> <i_f3d_flags>
0

> <s_epik_input>
W0NIM11TYzFbY0hdW2NIXWMobm4xKVtOSF1bQ0gyXVtDQEBIXTJbQ0gyXU4oW0NIMl1bQ0gyXU8yKVtDSDJdW0NIXShbQ0gzXSlbQ0gzXQ==

> <s_epik_cmdline>
J2VwaWtfcHl0aG9uJywgJy1waCcsICc3LjAnLCAnLXRuJywgJzgnLCAnLW1hJywgJzIwMCcsICctbWV0YWxfYmluZGluZycsICctaW1hZScsICc8aW5maWxlLm1hZT4nLCAnLW9tYWUnLCAnPG91dGZpbGUubWFlPic=

> <r_lp_tautomer_probability>
0.999978

> <r_epik_Ionization_Penalty>
1.20939

> <r_epik_Ionization_Penalty_Charging>
0

> <r_epik_Ionization_Penalty_Neutral>
1.20939

> <r_epik_State_Penalty>
1.27042

> <r_epik_Charging_Adjusted_Penalty>
1.27042

> <i_epik_Tot_Q>
0

> <i_epik_Tot_abs_Q>
0

> <r_epik_Metal_State_Penalty>
1.26998

> <b_epik_Metal_Only>
0

> <s_lp_Force_Field>
OPLS_2005

> <r_lp_Energy>
30.5151

> <b_lp_Chiralities_Consistent>
1

> <s_lp_Variant>
AV-unprocessed.smi:2850-5

> <Gold.Version>
5.8.1

> <Gold.Id.Protein>
6NUR|6NUR_protein|mol2

> <Gold.PLP.Fitness>
38.7901

> <Gold.PLP.PLP>
-39.2810

> <Gold.PLP.part.hbond>
-3.3644

> <Gold.PLP.part.metal>
0.0000

> <Gold.PLP.part.buried>
-4.1703

> <Gold.PLP.part.nonpolar>
-31.2560

> <Gold.PLP.part.repulsive>
0.0531

> <Gold.PLP.ligand.clash>
0.0000

> <Gold.PLP.ligand.torsion>
1.9927

> <Gold.PLP.Chemscore.Hbond>
1.1410

> <Gold.PLP.Chemscore.CHOScore>
0.0000

> <Gold.PLP.Chemscore.Metal>
0.0000

> <Gold.Chemscore.Hbonds>
donor molecule, donor type, donor heavy atom, donor atom, acceptor molecule, acceptor atom, score
      P1  H  6931  6943       L1    20  0.87
      P1  H  6934  6947       L1    20  0.28

> <Gold.PLP.Chemscore.Internal.Correction>
0.0716

> <Gold.Rescore>
     Score         DG    S(hbond)    S(metal)    S(lipo)     H(rot)  DE(clash)    DE(int)     intcor
     14.30     -16.00       0.71        0.00     103.64       1.55       0.00       1.70       ----

> <Gold.Chemscore.Fitness>
14.2963

> <Gold.Chemscore.DG>
-15.9999

> <Gold.Chemscore.ZeroCoef>
-5.4800

> <Gold.Chemscore.Hbond>
0.7050

> <Gold.Chemscore.Metal>
0.0000

> <Gold.Chemscore.Lipo>
103.6416

> <Gold.Chemscore.Internal_Hbond>
0.0000

> <Gold.Chemscore.DEClash>
0.0004

> <Gold.Chemscore.DEInternal>
1.7032

> <Gold.Chemscore.Rot>
1.5473

> <Gold.Chemscore.Internal.Correction>
   9.000000E+99

> <Gold.Chemscore.Hbonds>
donor molecule, donor type, donor heavy atom, donor atom, acceptor molecule, acceptor atom, score
      P1  H  6931  6943       L1    20  0.19
      P1  H  6934  6947       L1    20  0.03

> <Gold.Chemscore.Hbond.Weighted>
-2.3549

> <Gold.Chemscore.Metal.Weighted>
-0.0000

> <Gold.Chemscore.Lipo.Weighted>
-12.1261

> <Gold.Chemscore.Internal_Hbond.Weighted>
0.0000

> <Gold.Chemscore.DEClash.Weighted>
0.0004

> <Gold.Chemscore.DEInternal.Weighted>
1.7032

> <Gold.Chemscore.Rot.Weighted>
3.9610

> <Gold.Chemscore.Internal.Correction.Weighted>
   9.000000E+99

> <Gold.Protein.RotatedTorsions>
[ 6907 6896 6895 6894 ] final   75.00 input  -60.11 | X-H torsion
[ 7974 7965 7964 7962 ] final   61.09 input  175.53 | X-H torsion
[ 8008 7997 7996 7995 ] final -174.71 input   59.86 | X-H torsion
[ 10167 10162 10161 10158 ] final   52.56 input  -65.29 | X-H torsion
[ 10718 10713 10712 10709 ] final  101.00 input   66.30 | X-H torsion
[ 10763 10752 10751 10750 ] final  101.97 input  -60.55 | X-H torsion
[ 11005 11000 10999 10996 ] final -108.61 input  -57.11 | X-H torsion

> <Gold.Protein.ActiveResidues>
 VAL166  LYS551  ARG553  GLY616  TRP617  ASP618  TYR619  PRO620  LYS621  CYS622 
 ASP623  PHE694  ASN695  SER759  ASP760  ASP761  ALA762  ILE779  LEU786  VAL792 
 PHE793  MET794  SER795  GLU796  ALA797  LYS798  CYS799  TRP800  GLU811  SER814 

> <Gold.Protein.RotatedAtoms>
  152.5004  134.4187  159.9472 H   0  0  0  0  0  0  0  0  0  0  0  0  # atno 6907 bound_to 6896
  151.4159  133.3707  159.2757 H   0  0  0  0  0  0  0  0  0  0  0  0  # atno 6908 bound_to 6896
  150.9258  134.8697  159.7578 H   0  0  0  0  0  0  0  0  0  0  0  0  # atno 6909 bound_to 6896
  145.8886  139.3495  143.0663 H   0  0  0  0  0  0  0  0  0  0  0  0  # atno 7974 bound_to 7965
  155.9735  140.1167  157.0791 H   0  0  0  0  0  0  0  0  0  0  0  0  # atno 8008 bound_to 7997
  154.4163  140.1158  156.5406 H   0  0  0  0  0  0  0  0  0  0  0  0  # atno 8009 bound_to 7997
  155.6566  140.3473  155.4769 H   0  0  0  0  0  0  0  0  0  0  0  0  # atno 8010 bound_to 7997
  140.2500  144.3489  150.6351 H   0  0  0  0  0  0  0  0  0  0  0  0  # atno 10167 bound_to 10162
  157.6840  131.0714  150.5186 H   0  0  0  0  0  0  0  0  0  0  0  0  # atno 10718 bound_to 10713
  153.3336  135.4026  155.1515 H   0  0  0  0  0  0  0  0  0  0  0  0  # atno 10763 bound_to 10752
  154.8628  135.3616  154.5438 H   0  0  0  0  0  0  0  0  0  0  0  0  # atno 10764 bound_to 10752
  153.5878  135.7075  153.5495 H   0  0  0  0  0  0  0  0  0  0  0  0  # atno 10765 bound_to 10752
  141.0892  133.9084  157.2114 H   0  0  0  0  0  0  0  0  0  0  0  0  # atno 11005 bound_to 11000
  145.8936  140.9288  143.0539 LP  0  0  0  0  0  0  0  0  0  0  0  0  # atno 17320 bound_to 7965
  144.6729  140.0938  143.7464 LP  0  0  0  0  0  0  0  0  0  0  0  0  # atno 17321 bound_to 7965
  140.6048  143.2167  151.7003 LP  0  0  0  0  0  0  0  0  0  0  0  0  # atno 17342 bound_to 10162
  139.5049  144.3736  152.0445 LP  0  0  0  0  0  0  0  0  0  0  0  0  # atno 17343 bound_to 10162
  156.5501  130.4229  149.6112 LP  0  0  0  0  0  0  0  0  0  0  0  0  # atno 17370 bound_to 10713
  156.2910  130.7124  151.1973 LP  0  0  0  0  0  0  0  0  0  0  0  0  # atno 17371 bound_to 10713
  139.9715  135.0126  156.9525 LP  0  0  0  0  0  0  0  0  0  0  0  0  # atno 17394 bound_to 11000
  140.5291  134.0831  155.7311 LP  0  0  0  0  0  0  0  0  0  0  0  0  # atno 17395 bound_to 11000

$$$$
