AV-unprocessed.smi:1503|AV-procd|sdf|6070|dock9
  -GOLD-   22720 6193D 1   1.00000     0.00000
 Structure written by MMmdl.
 43 44  0  0  0  0  0  0  0  0  2 V2000
  146.6408  134.4892  164.8440 C   0  0  0  0  0  0  0  0  0  0  0  0
  147.1633  134.9392  163.6906 C   0  0  0  0  0  0  0  0  0  0  0  0
  147.8890  136.2593  163.4706 C   0  0  0  0  0  0  0  0  0  0  0  0
  149.1822  136.1324  162.8025 N   0  0  0  0  0  0  0  0  0  0  0  0
  149.4631  136.5785  161.5680 C   0  0  0  0  0  0  0  0  0  0  0  0
  148.6339  137.1371  160.8489 O   0  0  0  0  0  0  0  0  0  0  0  0
  150.9003  136.3578  161.0857 C   0  0  0  0  0  0  0  0  0  0  0  0
  151.9557  137.0598  161.9622 C   0  0  0  0  0  0  0  0  0  0  0  0
  151.9705  138.5714  161.7430 C   0  0  0  0  0  0  0  0  0  0  0  0
  151.7869  139.4748  162.7463 C   0  0  0  0  0  0  0  0  0  0  0  0
  151.5263  139.0721  164.1868 C   0  0  0  0  0  0  0  0  0  0  0  0
  151.8257  140.8543  162.4927 N   0  0  0  0  0  0  0  0  0  0  0  0
  152.0419  141.2932  161.2890 C   0  0  0  0  0  0  0  0  0  0  0  0
  152.0958  142.6603  160.9974 N   0  0  0  0  0  0  0  0  0  0  0  0
  152.0491  143.1504  159.6170 C   0  0  0  0  0  0  0  0  0  0  0  0
  152.6927  144.5414  159.4943 C   0  0  0  0  0  0  0  0  0  0  0  0
  152.0621  145.4429  160.3941 O   0  0  0  0  0  0  0  0  0  0  0  0
  152.2233  145.0228  161.7419 C   0  0  0  0  0  0  0  0  0  0  0  0
  151.5663  143.6467  161.9403 C   0  0  0  0  0  0  0  0  0  0  0  0
  152.2455  140.4406  160.2151 N   0  5  0  0  0  0  0  0  0  0  0  0
  152.2143  139.0887  160.3854 C   0  0  0  0  0  0  0  0  0  0  0  0
  152.3771  138.3093  159.4473 O   0  0  0  0  0  0  0  0  0  0  0  0
  146.6970  135.0576  165.7607 H   0  0  0  0  0  0  0  0  0  0  0  0
  146.1431  133.5315  164.8836 H   0  0  0  0  0  0  0  0  0  0  0  0
  147.0687  134.3176  162.8122 H   0  0  0  0  0  0  0  0  0  0  0  0
  147.2374  136.9327  162.9117 H   0  0  0  0  0  0  0  0  0  0  0  0
  148.0530  136.7253  164.4421 H   0  0  0  0  0  0  0  0  0  0  0  0
  149.9226  135.6840  163.3226 H   0  0  0  0  0  0  0  0  0  0  0  0
  151.0894  135.2841  161.0614 H   0  0  0  0  0  0  0  0  0  0  0  0
  150.9881  136.7133  160.0579 H   0  0  0  0  0  0  0  0  0  0  0  0
  151.7682  136.8377  163.0129 H   0  0  0  0  0  0  0  0  0  0  0  0
  152.9499  136.6576  161.7608 H   0  0  0  0  0  0  0  0  0  0  0  0
  150.7133  138.3481  164.2442 H   0  0  0  0  0  0  0  0  0  0  0  0
  151.2478  139.9342  164.7938 H   0  0  0  0  0  0  0  0  0  0  0  0
  152.4205  138.6269  164.6232 H   0  0  0  0  0  0  0  0  0  0  0  0
  152.5526  142.4712  158.9289 H   0  0  0  0  0  0  0  0  0  0  0  0
  151.0064  143.1958  159.3002 H   0  0  0  0  0  0  0  0  0  0  0  0
  153.7640  144.4926  159.6971 H   0  0  0  0  0  0  0  0  0  0  0  0
  152.5783  144.9182  158.4780 H   0  0  0  0  0  0  0  0  0  0  0  0
  153.2830  144.9882  162.0007 H   0  0  0  0  0  0  0  0  0  0  0  0
  151.7591  145.7573  162.4001 H   0  0  0  0  0  0  0  0  0  0  0  0
  150.4872  143.7236  161.8012 H   0  0  0  0  0  0  0  0  0  0  0  0
  151.7330  143.3216  162.9680 H   0  0  0  0  0  0  0  0  0  0  0  0
  1  2  2  0  0  0  0
  1 23  1  0  0  0  0
  1 24  1  0  0  0  0
  2  3  1  0  0  0  0
  2 25  1  0  0  0  0
  3  4  1  0  0  0  0
  3 26  1  0  0  0  0
  3 27  1  0  0  0  0
  4  5  1  0  0  0  0
  4 28  1  0  0  0  0
  5  6  2  0  0  0  0
  5  7  1  0  0  0  0
  7  8  1  0  0  0  0
  7 29  1  0  0  0  0
  7 30  1  0  0  0  0
  8  9  1  0  0  0  0
  8 31  1  0  0  0  0
  8 32  1  0  0  0  0
  9 21  1  0  0  0  0
  9 10  2  0  0  0  0
 10 11  1  0  0  0  0
 10 12  1  0  0  0  0
 11 33  1  0  0  0  0
 11 34  1  0  0  0  0
 11 35  1  0  0  0  0
 12 13  2  0  0  0  0
 13 14  1  0  0  0  0
 13 20  1  0  0  0  0
 14 19  1  0  0  0  0
 14 15  1  0  0  0  0
 15 16  1  0  0  0  0
 15 36  1  0  0  0  0
 15 37  1  0  0  0  0
 16 17  1  0  0  0  0
 16 38  1  0  0  0  0
 16 39  1  0  0  0  0
 17 18  1  0  0  0  0
 18 19  1  0  0  0  0
 18 40  1  0  0  0  0
 18 41  1  0  0  0  0
 19 42  1  0  0  0  0
 19 43  1  0  0  0  0
 20 21  1  0  0  0  0
 21 22  2  0  0  0  0
M  CHG  1  20  -1
M  END
> <s_m_source_file>
AV-unprocessed.smi

> <i_m_source_file_index>
1503

> <i_lp_mmshare_version>
43012

> <i_f3d_flags>
0

> <s_epik_input>
W0NIMl09W0NIXVtDSDJdW05IXUMoPU8pW0NIMl1bQ0gyXWMxYyhbQ0gzXSluYyhbbkhdYzE9TylOMltDSDJdW0NIMl1PW0NIMl1bQ0gyXTI=

> <s_epik_cmdline>
J2VwaWtfcHl0aG9uJywgJy1waCcsICc3LjAnLCAnLXRuJywgJzgnLCAnLW1hJywgJzIwMCcsICctbWV0YWxfYmluZGluZycsICctaW1hZScsICc8aW5maWxlLm1hZT4nLCAnLW9tYWUnLCAnPG91dGZpbGUubWFlPic=

> <r_lp_tautomer_probability>
1

> <r_epik_Ionization_Penalty>
5.02457

> <r_epik_Ionization_Penalty_Charging>
9.64055e-08

> <r_epik_Ionization_Penalty_Neutral>
5.02457

> <r_epik_State_Penalty>
2.56428

> <r_epik_Charging_Adjusted_Penalty>
2.56428

> <i_epik_Tot_Q>
-1

> <i_epik_Tot_abs_Q>
1

> <r_epik_Metal_State_Penalty>
0.122481

> <b_epik_Metal_Only>
0

> <s_lp_Force_Field>
OPLS_2005

> <r_lp_Energy>
26.3767

> <b_lp_Chiralities_Consistent>
1

> <s_lp_Variant>
AV-unprocessed.smi:1503-3

> <Gold.Version>
5.8.1

> <Gold.Id.Protein>
6NUR|6NUR_protein|mol2

> <Gold.PLP.Fitness>
45.9573

> <Gold.PLP.PLP>
-41.2176

> <Gold.PLP.part.hbond>
-3.1730

> <Gold.PLP.part.metal>
0.0000

> <Gold.PLP.part.buried>
-4.8799

> <Gold.PLP.part.nonpolar>
-33.5544

> <Gold.PLP.part.repulsive>
0.1036

> <Gold.PLP.ligand.clash>
0.0000

> <Gold.PLP.ligand.torsion>
0.2226

> <Gold.PLP.Chemscore.Hbond>
1.6500

> <Gold.PLP.Chemscore.CHOScore>
0.0000

> <Gold.PLP.Chemscore.Metal>
0.0000

> <Gold.Chemscore.Hbonds>
donor molecule, donor type, donor heavy atom, donor atom, acceptor molecule, acceptor atom, score
      P1  H  6933  6945       L1    12  0.15
      P1  H  6934  6947       L1     6  0.08

> <Gold.PLP.Chemscore.Internal.Correction>
0.2348

> <Gold.Rescore>
     Score         DG    S(hbond)    S(metal)    S(lipo)     H(rot)  DE(clash)    DE(int)     intcor
     15.32     -16.90       1.58        0.00      93.57       1.87       0.14       1.44       ----

> <Gold.Chemscore.Fitness>
15.3166

> <Gold.Chemscore.DG>
-16.8959

> <Gold.Chemscore.ZeroCoef>
-5.4800

> <Gold.Chemscore.Hbond>
1.5754

> <Gold.Chemscore.Metal>
0.0000

> <Gold.Chemscore.Lipo>
93.5737

> <Gold.Chemscore.Internal_Hbond>
0.0000

> <Gold.Chemscore.DEClash>
0.1373

> <Gold.Chemscore.DEInternal>
1.4420

> <Gold.Chemscore.Rot>
1.8727

> <Gold.Chemscore.Internal.Correction>
   9.000000E+99

> <Gold.Chemscore.Hbonds>
donor molecule, donor type, donor heavy atom, donor atom, acceptor molecule, acceptor atom, score
      P1  H  6934  6947       L1     6  0.08

> <Gold.Chemscore.Hbond.Weighted>
-5.2620

> <Gold.Chemscore.Metal.Weighted>
-0.0000

> <Gold.Chemscore.Lipo.Weighted>
-10.9481

> <Gold.Chemscore.Internal_Hbond.Weighted>
0.0000

> <Gold.Chemscore.DEClash.Weighted>
0.1373

> <Gold.Chemscore.DEInternal.Weighted>
1.4420

> <Gold.Chemscore.Rot.Weighted>
4.7942

> <Gold.Chemscore.Internal.Correction.Weighted>
   9.000000E+99

> <Gold.Protein.RotatedTorsions>
[ 6907 6896 6895 6894 ] final   44.60 input  -60.11 | X-H torsion
[ 7974 7965 7964 7962 ] final -176.29 input  175.53 | X-H torsion
[ 8008 7997 7996 7995 ] final   97.34 input   59.86 | X-H torsion
[ 10167 10162 10161 10158 ] final   90.25 input  -65.29 | X-H torsion
[ 10718 10713 10712 10709 ] final    9.15 input   66.30 | X-H torsion
[ 10763 10752 10751 10750 ] final  147.77 input  -60.55 | X-H torsion
[ 11005 11000 10999 10996 ] final  140.81 input  -57.11 | X-H torsion

> <Gold.Protein.ActiveResidues>
 VAL166  LYS551  ARG553  GLY616  TRP617  ASP618  TYR619  PRO620  LYS621  CYS622 
 ASP623  PHE694  ASN695  SER759  ASP760  ASP761  ALA762  ILE779  LEU786  VAL792 
 PHE793  MET794  SER795  GLU796  ALA797  LYS798  CYS799  TRP800  GLU811  SER814 

> <Gold.Protein.RotatedAtoms>
  152.2345  134.8290  160.0468 H   0  0  0  0  0  0  0  0  0  0  0  0  # atno 6907 bound_to 6896
  151.9027  133.3537  159.3844 H   0  0  0  0  0  0  0  0  0  0  0  0  # atno 6908 bound_to 6896
  150.7035  134.4738  159.5482 H   0  0  0  0  0  0  0  0  0  0  0  0  # atno 6909 bound_to 6896
  144.7127  140.1192  143.6406 H   0  0  0  0  0  0  0  0  0  0  0  0  # atno 7974 bound_to 7965
  156.0891  140.3260  155.7792 H   0  0  0  0  0  0  0  0  0  0  0  0  # atno 8008 bound_to 7997
  155.5027  140.0570  157.2954 H   0  0  0  0  0  0  0  0  0  0  0  0  # atno 8009 bound_to 7997
  154.4626  140.1974  156.0218 H   0  0  0  0  0  0  0  0  0  0  0  0  # atno 8010 bound_to 7997
  139.8492  144.6602  150.9190 H   0  0  0  0  0  0  0  0  0  0  0  0  # atno 10167 bound_to 10162
  156.9621  130.5937  149.5663 H   0  0  0  0  0  0  0  0  0  0  0  0  # atno 10718 bound_to 10713
  154.0438  135.2887  155.3351 H   0  0  0  0  0  0  0  0  0  0  0  0  # atno 10763 bound_to 10752
  154.6912  135.5225  153.8398 H   0  0  0  0  0  0  0  0  0  0  0  0  # atno 10764 bound_to 10752
  153.0589  135.6606  154.0640 H   0  0  0  0  0  0  0  0  0  0  0  0  # atno 10765 bound_to 10752
  140.0355  134.9331  157.0744 H   0  0  0  0  0  0  0  0  0  0  0  0  # atno 11005 bound_to 11000
  145.9386  139.2654  143.1282 LP  0  0  0  0  0  0  0  0  0  0  0  0  # atno 17320 bound_to 7965
  145.9447  140.8953  143.0289 LP  0  0  0  0  0  0  0  0  0  0  0  0  # atno 17321 bound_to 7965
  140.7789  143.3842  151.1422 LP  0  0  0  0  0  0  0  0  0  0  0  0  # atno 17342 bound_to 10162
  139.7482  143.8819  152.3069 LP  0  0  0  0  0  0  0  0  0  0  0  0  # atno 17343 bound_to 10162
  156.0318  130.5408  150.8553 LP  0  0  0  0  0  0  0  0  0  0  0  0  # atno 17370 bound_to 10713
  157.5650  131.0946  150.9502 LP  0  0  0  0  0  0  0  0  0  0  0  0  # atno 17371 bound_to 10713
  140.4155  134.1936  155.7163 LP  0  0  0  0  0  0  0  0  0  0  0  0  # atno 17394 bound_to 11000
  141.1855  133.8322  157.1103 LP  0  0  0  0  0  0  0  0  0  0  0  0  # atno 17395 bound_to 11000

$$$$
