AV-unprocessed.smi:2071|AV-procd|sdf|8441|dock2
  -GOLD-   2272011143D 1   1.00000     0.00000
 Structure written by MMmdl.
 44 46  0  0  0  0  0  0  0  0  2 V2000
  146.3194  133.8206  154.4638 O   0  0  0  0  0  0  0  0  0  0  0  0
  147.0688  134.2733  153.5989 C   0  0  0  0  0  0  0  0  0  0  0  0
  148.1867  134.9615  153.8722 N   0  0  0  0  0  0  0  0  0  0  0  0
  148.6768  135.2853  155.2091 C   0  0  0  0  0  0  0  0  0  0  0  0
  149.3374  136.6726  155.2589 C   0  0  0  0  0  0  0  0  0  0  0  0
  150.8747  136.6317  155.3528 C   0  0  0  0  0  0  0  0  0  0  0  0
  151.4252  137.9639  155.6220 N   0  0  0  0  0  0  0  0  0  0  0  0
  152.5625  138.4550  155.0917 C   0  0  0  0  0  0  0  0  0  0  0  0
  153.2679  137.7976  154.3272 O   0  0  0  0  0  0  0  0  0  0  0  0
  152.7887  139.7237  155.5074 N   0  5  0  0  0  0  0  0  0  0  0  0
  151.7023  140.1247  156.3771 C   0  0  0  0  0  0  0  0  0  0  0  0
  152.1877  140.5560  157.7698 C   0  0  0  0  0  0  0  0  0  0  0  0
  151.0894  141.4822  158.3124 C   0  0  0  0  0  0  0  0  0  0  0  0
  150.3005  141.9893  157.0928 C   0  0  0  0  0  0  0  0  0  0  0  0
  150.9620  141.3662  155.8560 C   0  0  0  0  0  0  0  0  0  0  0  0
  150.8338  138.8752  156.4012 C   0  0  0  0  0  0  0  0  0  0  0  0
  149.7772  138.7589  157.0244 O   0  0  0  0  0  0  0  0  0  0  0  0
  146.8963  134.1362  152.2728 N   0  0  0  0  0  0  0  0  0  0  0  0
  145.8544  133.4615  151.5797 C   0  0  0  0  0  0  0  0  0  0  0  0
  144.4857  133.5233  151.9383 C   0  0  0  0  0  0  0  0  0  0  0  0
  143.5466  132.8192  151.1605 C   0  0  0  0  0  0  0  0  0  0  0  0
  144.0069  132.0861  150.0497 C   0  0  0  0  0  0  0  0  0  0  0  0
  145.3057  132.0298  149.6874 N   0  0  0  0  0  0  0  0  0  0  0  0
  146.2004  132.7078  150.4378 C   0  0  0  0  0  0  0  0  0  0  0  0
  148.7393  135.2953  153.0962 H   0  0  0  0  0  0  0  0  0  0  0  0
  147.8826  135.2226  155.9547 H   0  0  0  0  0  0  0  0  0  0  0  0
  149.4098  134.5274  155.4854 H   0  0  0  0  0  0  0  0  0  0  0  0
  149.0496  137.2242  154.3628 H   0  0  0  0  0  0  0  0  0  0  0  0
  148.9338  137.2354  156.1017 H   0  0  0  0  0  0  0  0  0  0  0  0
  151.1883  135.9443  156.1399 H   0  0  0  0  0  0  0  0  0  0  0  0
  151.2941  136.2292  154.4294 H   0  0  0  0  0  0  0  0  0  0  0  0
  152.3776  139.7143  158.4378 H   0  0  0  0  0  0  0  0  0  0  0  0
  153.1210  141.1154  157.6853 H   0  0  0  0  0  0  0  0  0  0  0  0
  150.4244  140.9280  158.9757 H   0  0  0  0  0  0  0  0  0  0  0  0
  151.5147  142.3031  158.8905 H   0  0  0  0  0  0  0  0  0  0  0  0
  149.2626  141.6626  157.1656 H   0  0  0  0  0  0  0  0  0  0  0  0
  150.2948  143.0779  157.0337 H   0  0  0  0  0  0  0  0  0  0  0  0
  151.6731  142.0770  155.4318 H   0  0  0  0  0  0  0  0  0  0  0  0
  150.2338  141.1362  155.0767 H   0  0  0  0  0  0  0  0  0  0  0  0
  147.6344  134.5045  151.6906 H   0  0  0  0  0  0  0  0  0  0  0  0
  144.1362  134.1022  152.7787 H   0  0  0  0  0  0  0  0  0  0  0  0
  142.4957  132.8445  151.4084 H   0  0  0  0  0  0  0  0  0  0  0  0
  143.3125  131.5354  149.4324 H   0  0  0  0  0  0  0  0  0  0  0  0
  147.2299  132.6412  150.1170 H   0  0  0  0  0  0  0  0  0  0  0  0
  1  2  2  0  0  0  0
  2  3  1  0  0  0  0
  2 18  1  0  0  0  0
  3  4  1  0  0  0  0
  3 25  1  0  0  0  0
  4  5  1  0  0  0  0
  4 26  1  0  0  0  0
  4 27  1  0  0  0  0
  5  6  1  0  0  0  0
  5 28  1  0  0  0  0
  5 29  1  0  0  0  0
  6  7  1  0  0  0  0
  6 30  1  0  0  0  0
  6 31  1  0  0  0  0
  7 16  1  0  0  0  0
  7  8  1  0  0  0  0
  8  9  2  0  0  0  0
  8 10  1  0  0  0  0
 10 11  1  0  0  0  0
 11 15  1  0  0  0  0
 11 12  1  0  0  0  0
 11 16  1  0  0  0  0
 12 13  1  0  0  0  0
 12 32  1  0  0  0  0
 12 33  1  0  0  0  0
 13 14  1  0  0  0  0
 13 34  1  0  0  0  0
 13 35  1  0  0  0  0
 14 15  1  0  0  0  0
 14 36  1  0  0  0  0
 14 37  1  0  0  0  0
 15 38  1  0  0  0  0
 15 39  1  0  0  0  0
 16 17  2  0  0  0  0
 18 19  1  0  0  0  0
 18 40  1  0  0  0  0
 19 24  1  0  0  0  0
 19 20  2  0  0  0  0
 20 21  1  0  0  0  0
 20 41  1  0  0  0  0
 21 22  2  0  0  0  0
 21 42  1  0  0  0  0
 22 23  1  0  0  0  0
 22 43  1  0  0  0  0
 23 24  2  0  0  0  0
 24 44  1  0  0  0  0
M  CHG  1  10  -1
M  END
> <s_m_source_file>
AV-unprocessed.smi

> <i_m_source_file_index>
2071

> <i_lp_mmshare_version>
43012

> <i_f3d_flags>
0

> <s_epik_input>
W2NIXTFuW2NIXVtjSF1bY0hdYzFbTkhdQyg9TylbTkhdW0NIMl1bQ0gyXVtDSDJdTihDMj1PKUMoPU8pW05IXUMyM1tDSDJdW0NIMl1bQ0gyXVtDSDJdMw==

> <s_epik_cmdline>
J2VwaWtfcHl0aG9uJywgJy1waCcsICc3LjAnLCAnLXRuJywgJzgnLCAnLW1hJywgJzIwMCcsICctbWV0YWxfYmluZGluZycsICctaW1hZScsICc8aW5maWxlLm1hZT4nLCAnLW9tYWUnLCAnPG91dGZpbGUubWFlPic=

> <r_lp_tautomer_probability>
1

> <r_epik_Ionization_Penalty>
6.36845

> <r_epik_Ionization_Penalty_Charging>
6.36366

> <r_epik_Ionization_Penalty_Neutral>
0.00479069

> <r_epik_State_Penalty>
6.36709

> <r_epik_Charging_Adjusted_Penalty>
12.7307

> <i_epik_Tot_Q>
-1

> <i_epik_Tot_abs_Q>
1

> <r_epik_Metal_State_Penalty>
2.30065

> <b_epik_Metal_Only>
1

> <s_lp_Force_Field>
OPLS_2005

> <r_lp_Energy>
36.3369

> <b_lp_Chiralities_Consistent>
1

> <s_lp_Variant>
AV-unprocessed.smi:2071-2

> <Gold.Version>
5.8.1

> <Gold.Id.Protein>
6NUR|6NUR_protein|mol2

> <Gold.PLP.Fitness>
51.8002

> <Gold.PLP.PLP>
-38.2926

> <Gold.PLP.part.hbond>
-3.9776

> <Gold.PLP.part.metal>
0.0000

> <Gold.PLP.part.buried>
-6.2755

> <Gold.PLP.part.nonpolar>
-28.1741

> <Gold.PLP.part.repulsive>
0.2869

> <Gold.PLP.ligand.clash>
0.0000

> <Gold.PLP.ligand.torsion>
1.1659

> <Gold.PLP.Chemscore.Hbond>
3.7267

> <Gold.PLP.Chemscore.CHOScore>
1.5158

> <Gold.PLP.Chemscore.Metal>
0.0000

> <Gold.Chemscore.Hbonds>
donor molecule, donor type, donor heavy atom, donor atom, acceptor molecule, acceptor atom, score
      L1  H     3    25       P1  7948  1.00
      L1  H    18    40       P1  7948  0.55
      P1  H  7997  8010       L1    10  2.00
      P1  H 10752 10763       L1     9  0.19
      L1  C    22    43       P1 10952  0.41
      L1  C    24    44       P1 10747  1.00

> <Gold.PLP.Chemscore.Internal.Correction>
0.1118

> <Gold.Rescore>
     Score         DG    S(hbond)    S(metal)    S(lipo)     H(rot)  DE(clash)    DE(int)     intcor
     16.53     -19.05       2.90        0.00      75.22       1.92       0.01       2.51       ----

> <Gold.Chemscore.Fitness>
16.5276

> <Gold.Chemscore.DG>
-19.0465

> <Gold.Chemscore.ZeroCoef>
-5.4800

> <Gold.Chemscore.Hbond>
2.8966

> <Gold.Chemscore.Metal>
0.0000

> <Gold.Chemscore.Lipo>
75.2216

> <Gold.Chemscore.Internal_Hbond>
0.0000

> <Gold.Chemscore.DEClash>
0.0073

> <Gold.Chemscore.DEInternal>
2.5117

> <Gold.Chemscore.Rot>
1.9176

> <Gold.Chemscore.Internal.Correction>
   9.000000E+99

> <Gold.Chemscore.Hbonds>
donor molecule, donor type, donor heavy atom, donor atom, acceptor molecule, acceptor atom, score
      L1  H     3    25       P1  7948  0.63
      L1  H    18    40       P1  7948  0.14
      P1  H  7997  8010       L1    10  0.73
      P1  H 10752 10763       L1     9  0.18

> <Gold.Chemscore.Hbond.Weighted>
-9.6747

> <Gold.Chemscore.Metal.Weighted>
-0.0000

> <Gold.Chemscore.Lipo.Weighted>
-8.8009

> <Gold.Chemscore.Internal_Hbond.Weighted>
0.0000

> <Gold.Chemscore.DEClash.Weighted>
0.0073

> <Gold.Chemscore.DEInternal.Weighted>
2.5117

> <Gold.Chemscore.Rot.Weighted>
4.9090

> <Gold.Chemscore.Internal.Correction.Weighted>
   9.000000E+99

> <Gold.Protein.RotatedTorsions>
[ 6907 6896 6895 6894 ] final  134.84 input  -60.11 | X-H torsion
[ 7974 7965 7964 7962 ] final  -88.24 input  175.53 | X-H torsion
[ 8008 7997 7996 7995 ] final   80.50 input   59.86 | X-H torsion
[ 10167 10162 10161 10158 ] final  -49.19 input  -65.29 | X-H torsion
[ 10718 10713 10712 10709 ] final -111.02 input   66.30 | X-H torsion
[ 10763 10752 10751 10750 ] final   27.14 input  -60.55 | X-H torsion
[ 11005 11000 10999 10996 ] final -172.11 input  -57.11 | X-H torsion

> <Gold.Protein.ActiveResidues>
 VAL166  LYS551  ARG553  GLY616  TRP617  ASP618  TYR619  PRO620  LYS621  CYS622 
 ASP623  PHE694  ASN695  SER759  ASP760  ASP761  ALA762  ILE779  LEU786  VAL792 
 PHE793  MET794  SER795  GLU796  ALA797  LYS798  CYS799  TRP800  GLU811  SER814 

> <Gold.Protein.RotatedAtoms>
  152.3069  133.5713  159.5654 H   0  0  0  0  0  0  0  0  0  0  0  0  # atno 6907 bound_to 6896
  150.7304  134.0209  159.3710 H   0  0  0  0  0  0  0  0  0  0  0  0  # atno 6908 bound_to 6896
  151.8105  135.0682  160.0463 H   0  0  0  0  0  0  0  0  0  0  0  0  # atno 6909 bound_to 6896
  145.4558  140.9561  143.1997 H   0  0  0  0  0  0  0  0  0  0  0  0  # atno 7974 bound_to 7965
  155.8843  140.3442  155.5910 H   0  0  0  0  0  0  0  0  0  0  0  0  # atno 8008 bound_to 7997
  155.7684  140.0842  157.2139 H   0  0  0  0  0  0  0  0  0  0  0  0  # atno 8009 bound_to 7997
  154.4027  140.1523  156.2900 H   0  0  0  0  0  0  0  0  0  0  0  0  # atno 8010 bound_to 7997
  140.6696  143.2708  151.4180 H   0  0  0  0  0  0  0  0  0  0  0  0  # atno 10167 bound_to 10162
  156.0623  130.5846  150.8317 H   0  0  0  0  0  0  0  0  0  0  0  0  # atno 10718 bound_to 10713
  153.0575  135.6544  154.0542 H   0  0  0  0  0  0  0  0  0  0  0  0  # atno 10763 bound_to 10752
  154.0217  135.2919  155.3381 H   0  0  0  0  0  0  0  0  0  0  0  0  # atno 10764 bound_to 10752
  154.6897  135.5287  153.8443 H   0  0  0  0  0  0  0  0  0  0  0  0  # atno 10765 bound_to 10752
  140.5006  134.5897  157.4986 H   0  0  0  0  0  0  0  0  0  0  0  0  # atno 11005 bound_to 11000
  144.8033  139.6099  143.7062 LP  0  0  0  0  0  0  0  0  0  0  0  0  # atno 17320 bound_to 7965
  146.2479  139.6137  142.9447 LP  0  0  0  0  0  0  0  0  0  0  0  0  # atno 17321 bound_to 7965
  139.5959  144.1399  152.2143 LP  0  0  0  0  0  0  0  0  0  0  0  0  # atno 17342 bound_to 10162
  140.0768  144.5734  150.7151 LP  0  0  0  0  0  0  0  0  0  0  0  0  # atno 17343 bound_to 10162
  157.5641  131.0946  150.9515 LP  0  0  0  0  0  0  0  0  0  0  0  0  # atno 17370 bound_to 10713
  156.9746  130.5504  149.5292 LP  0  0  0  0  0  0  0  0  0  0  0  0  # atno 17371 bound_to 10713
  139.9715  134.7284  156.0032 LP  0  0  0  0  0  0  0  0  0  0  0  0  # atno 17394 bound_to 11000
  141.1437  133.6560  156.3805 LP  0  0  0  0  0  0  0  0  0  0  0  0  # atno 17395 bound_to 11000

$$$$
