AV-unprocessed.smi:2923|AV-procd|sdf|11217|dock5
  -GOLD-   2272016103D 1   1.00000     0.00000
 Structure written by MMmdl.
 46 48  0  0  0  0  0  0  0  0  1 V2000
  151.9741  140.6484  158.3014 C   0  0  0  0  0  0  0  0  0  0  0  0
  151.3616  141.0290  157.0378 N   0  0  0  0  0  0  0  0  0  0  0  0
  150.6463  142.2956  157.0241 C   0  0  0  0  0  0  0  0  0  0  0  0
  150.6366  139.9872  156.4448 C   0  0  0  0  0  0  0  0  0  0  0  0
  149.5884  139.3359  157.1338 C   0  0  0  0  0  0  0  0  0  0  0  0
  148.8966  138.2937  156.4875 C   0  0  0  0  0  0  0  0  0  0  0  0
  149.2698  137.9402  155.1691 C   0  0  0  0  0  0  0  0  0  0  0  0
  148.6685  136.8930  154.4208 N   0  0  0  0  0  0  0  0  0  0  0  0
  147.6575  136.0828  154.7772 C   0  0  0  0  0  0  0  0  0  0  0  0
  147.0374  136.1385  155.8388 O   0  0  0  0  0  0  0  0  0  0  0  0
  147.3877  135.1963  153.8104 N   0  0  0  0  0  0  0  0  0  0  0  0
  146.3260  134.1864  153.8758 C   0  0  1  0  0  0  0  0  0  0  0  0
  145.5091  134.1119  152.5833 C   0  0  1  0  0  0  0  0  0  0  0  0
  145.2985  134.9927  151.4050 C   0  0  0  0  0  0  0  0  0  0  0  0
  145.3531  133.8824  150.3205 C   0  0  0  0  0  0  0  0  0  0  0  0
  145.8113  132.6841  150.9982 O   0  0  0  0  0  0  0  0  0  0  0  0
  146.5866  133.1770  152.0729 C   0  0  2  0  0  0  0  0  0  0  0  0
  146.7654  132.7065  153.5337 C   0  0  0  0  0  0  0  0  0  0  0  0
  148.1887  132.2903  153.9213 C   0  0  0  0  0  0  0  0  0  0  0  0
  145.8502  131.5681  154.0206 C   0  0  0  0  0  0  0  0  0  0  0  0
  150.3373  138.6466  154.5774 C   0  0  0  0  0  0  0  0  0  0  0  0
  151.0039  139.6472  155.1905 N   0  0  0  0  0  0  0  0  0  0  0  0
  152.4994  139.6970  158.2073 H   0  0  0  0  0  0  0  0  0  0  0  0
  151.2247  140.5524  159.0877 H   0  0  0  0  0  0  0  0  0  0  0  0
  152.6981  141.4027  158.6106 H   0  0  0  0  0  0  0  0  0  0  0  0
  150.2221  142.4919  156.0385 H   0  0  0  0  0  0  0  0  0  0  0  0
  151.3255  143.1132  157.2666 H   0  0  0  0  0  0  0  0  0  0  0  0
  149.8366  142.2957  157.7545 H   0  0  0  0  0  0  0  0  0  0  0  0
  149.3198  139.6228  158.1400 H   0  0  0  0  0  0  0  0  0  0  0  0
  148.1101  137.7811  157.0190 H   0  0  0  0  0  0  0  0  0  0  0  0
  149.0189  136.7779  153.4811 H   0  0  0  0  0  0  0  0  0  0  0  0
  147.9434  135.2220  152.9681 H   0  0  0  0  0  0  0  0  0  0  0  0
  145.7012  134.2586  154.7677 H   0  0  0  0  0  0  0  0  0  0  0  0
  144.5705  133.5968  152.8016 H   0  0  0  0  0  0  0  0  0  0  0  0
  144.3399  135.5116  151.4273 H   0  0  0  0  0  0  0  0  0  0  0  0
  146.0999  135.7229  151.2853 H   0  0  0  0  0  0  0  0  0  0  0  0
  144.3749  133.6991  149.8751 H   0  0  0  0  0  0  0  0  0  0  0  0
  146.0437  134.1545  149.5213 H   0  0  0  0  0  0  0  0  0  0  0  0
  147.4788  133.6867  151.6946 H   0  0  0  0  0  0  0  0  0  0  0  0
  148.4324  131.2959  153.5459 H   0  0  0  0  0  0  0  0  0  0  0  0
  148.3173  132.2748  155.0040 H   0  0  0  0  0  0  0  0  0  0  0  0
  148.9388  132.9698  153.5166 H   0  0  0  0  0  0  0  0  0  0  0  0
  146.0614  130.6394  153.4895 H   0  0  0  0  0  0  0  0  0  0  0  0
  144.7897  131.7722  153.8840 H   0  0  0  0  0  0  0  0  0  0  0  0
  145.9919  131.3738  155.0842 H   0  0  0  0  0  0  0  0  0  0  0  0
  150.6670  138.4050  153.5776 H   0  0  0  0  0  0  0  0  0  0  0  0
  1  2  1  0  0  0  0
  1 23  1  0  0  0  0
  1 24  1  0  0  0  0
  1 25  1  0  0  0  0
  2  3  1  0  0  0  0
  2  4  1  0  0  0  0
  3 26  1  0  0  0  0
  3 27  1  0  0  0  0
  3 28  1  0  0  0  0
  4 22  1  0  0  0  0
  4  5  2  0  0  0  0
  5  6  1  0  0  0  0
  5 29  1  0  0  0  0
  6  7  2  0  0  0  0
  6 30  1  0  0  0  0
  7  8  1  0  0  0  0
  7 21  1  0  0  0  0
  8  9  1  0  0  0  0
  8 31  1  0  0  0  0
  9 10  2  0  0  0  0
  9 11  1  0  0  0  0
 11 12  1  0  0  0  0
 11 32  1  0  0  0  0
 12 18  1  0  0  0  0
 12 13  1  0  0  0  0
 12 33  1  0  0  0  0
 13 17  1  0  0  0  0
 13 14  1  0  0  0  0
 13 34  1  0  0  0  0
 14 15  1  0  0  0  0
 14 35  1  0  0  0  0
 14 36  1  0  0  0  0
 15 16  1  0  0  0  0
 15 37  1  0  0  0  0
 15 38  1  0  0  0  0
 16 17  1  0  0  0  0
 17 18  1  0  0  0  0
 17 39  1  0  0  0  0
 18 19  1  0  0  0  0
 18 20  1  0  0  0  0
 19 40  1  0  0  0  0
 19 41  1  0  0  0  0
 19 42  1  0  0  0  0
 20 43  1  0  0  0  0
 20 44  1  0  0  0  0
 20 45  1  0  0  0  0
 21 22  2  0  0  0  0
 21 46  1  0  0  0  0
M  END
> <s_m_source_file>
AV-unprocessed.smi

> <i_m_source_file_index>
2923

> <i_lp_mmshare_version>
43012

> <i_f3d_flags>
0

> <s_epik_input>
W0NIM11OKFtDSDNdKWMxW2NIXVtjSF1jKFtjSF1uMSlbTkhdQyg9TylbTkhdW0NASF0yQyhbQ0gzXSkoW0NIM10pW0NAQEhdKFtDQEhdMjMpT1tDSDJdW0NIMl0z

> <s_epik_cmdline>
J2VwaWtfcHl0aG9uJywgJy1waCcsICc3LjAnLCAnLXRuJywgJzgnLCAnLW1hJywgJzIwMCcsICctbWV0YWxfYmluZGluZycsICctaW1hZScsICc8aW5maWxlLm1hZT4nLCAnLW9tYWUnLCAnPG91dGZpbGUubWFlPic=

> <r_lp_tautomer_probability>
1

> <r_epik_Ionization_Penalty>
0.628785

> <r_epik_Ionization_Penalty_Charging>
0

> <r_epik_Ionization_Penalty_Neutral>
0.628785

> <r_epik_State_Penalty>
0.644286

> <r_epik_Charging_Adjusted_Penalty>
0.644286

> <i_epik_Tot_Q>
0

> <i_epik_Tot_abs_Q>
0

> <r_epik_Metal_State_Penalty>
0.308404

> <b_epik_Metal_Only>
0

> <s_lp_Force_Field>
OPLS_2005

> <r_lp_Energy>
70.0187

> <b_lp_Chiralities_Consistent>
1

> <s_lp_Variant>
AV-unprocessed.smi:2923-16

> <Gold.Version>
5.8.1

> <Gold.Id.Protein>
6NUR|6NUR_protein|mol2

> <Gold.PLP.Fitness>
38.9246

> <Gold.PLP.PLP>
-27.5218

> <Gold.PLP.part.hbond>
-3.0000

> <Gold.PLP.part.metal>
0.0000

> <Gold.PLP.part.buried>
-3.6148

> <Gold.PLP.part.nonpolar>
-21.0970

> <Gold.PLP.part.repulsive>
0.2265

> <Gold.PLP.ligand.clash>
0.0000

> <Gold.PLP.ligand.torsion>
0.3900

> <Gold.PLP.Chemscore.Hbond>
2.9040

> <Gold.PLP.Chemscore.CHOScore>
1.0000

> <Gold.PLP.Chemscore.Metal>
0.0000

> <Gold.Chemscore.Hbonds>
donor molecule, donor type, donor heavy atom, donor atom, acceptor molecule, acceptor atom, score
      L1  H     8    31       P1  7948  1.00
      L1  H    11    32       P1  7948  0.96
      P1  H  7989  7998       L1    22  0.63

> <Gold.PLP.Chemscore.Internal.Correction>
0.4708

> <Gold.Rescore>
     Score         DG    S(hbond)    S(metal)    S(lipo)     H(rot)  DE(clash)    DE(int)     intcor
     16.70     -18.74       2.64        0.00      64.04       1.19       0.04       2.00       ----

> <Gold.Chemscore.Fitness>
16.7024

> <Gold.Chemscore.DG>
-18.7417

> <Gold.Chemscore.ZeroCoef>
-5.4800

> <Gold.Chemscore.Hbond>
2.6421

> <Gold.Chemscore.Metal>
0.0000

> <Gold.Chemscore.Lipo>
64.0414

> <Gold.Chemscore.Internal_Hbond>
0.0000

> <Gold.Chemscore.DEClash>
0.0437

> <Gold.Chemscore.DEInternal>
1.9955

> <Gold.Chemscore.Rot>
1.1937

> <Gold.Chemscore.Internal.Correction>
   9.000000E+99

> <Gold.Chemscore.Hbonds>
donor molecule, donor type, donor heavy atom, donor atom, acceptor molecule, acceptor atom, score
      L1  H     8    31       P1  7948  0.98
      L1  H    11    32       P1  7948  0.92
      P1  H  7989  7998       L1    22  0.22

> <Gold.Chemscore.Hbond.Weighted>
-8.8247

> <Gold.Chemscore.Metal.Weighted>
-0.0000

> <Gold.Chemscore.Lipo.Weighted>
-7.4928

> <Gold.Chemscore.Internal_Hbond.Weighted>
0.0000

> <Gold.Chemscore.DEClash.Weighted>
0.0437

> <Gold.Chemscore.DEInternal.Weighted>
1.9955

> <Gold.Chemscore.Rot.Weighted>
3.0559

> <Gold.Chemscore.Internal.Correction.Weighted>
   9.000000E+99

> <Gold.Protein.RotatedTorsions>
[ 6907 6896 6895 6894 ] final  -85.59 input  -60.11 | X-H torsion
[ 7974 7965 7964 7962 ] final  -37.83 input  175.53 | X-H torsion
[ 8008 7997 7996 7995 ] final -102.02 input   59.86 | X-H torsion
[ 10167 10162 10161 10158 ] final   89.76 input  -65.29 | X-H torsion
[ 10718 10713 10712 10709 ] final -157.11 input   66.30 | X-H torsion
[ 10763 10752 10751 10750 ] final  106.96 input  -60.55 | X-H torsion
[ 11005 11000 10999 10996 ] final -149.07 input  -57.11 | X-H torsion

> <Gold.Protein.ActiveResidues>
 VAL166  LYS551  ARG553  GLY616  TRP617  ASP618  TYR619  PRO620  LYS621  CYS622 
 ASP623  PHE694  ASN695  SER759  ASP760  ASP761  ALA762  ILE779  LEU786  VAL792 
 PHE793  MET794  SER795  GLU796  ALA797  LYS798  CYS799  TRP800  GLU811  SER814 

> <Gold.Protein.RotatedAtoms>
  150.6869  134.3181  159.4774 H   0  0  0  0  0  0  0  0  0  0  0  0  # atno 6907 bound_to 6896
  152.1059  134.9306  160.0577 H   0  0  0  0  0  0  0  0  0  0  0  0  # atno 6908 bound_to 6896
  152.0567  133.4009  159.4437 H   0  0  0  0  0  0  0  0  0  0  0  0  # atno 6909 bound_to 6896
  146.0540  140.6441  142.9028 H   0  0  0  0  0  0  0  0  0  0  0  0  # atno 7974 bound_to 7965
  154.8508  140.0431  157.1602 H   0  0  0  0  0  0  0  0  0  0  0  0  # atno 8008 bound_to 7997
  154.8945  140.2991  155.5331 H   0  0  0  0  0  0  0  0  0  0  0  0  # atno 8009 bound_to 7997
  156.2996  140.2387  156.3965 H   0  0  0  0  0  0  0  0  0  0  0  0  # atno 8010 bound_to 7997
  139.8540  144.6578  150.9135 H   0  0  0  0  0  0  0  0  0  0  0  0  # atno 10167 bound_to 10162
  156.5358  130.8541  151.2732 H   0  0  0  0  0  0  0  0  0  0  0  0  # atno 10718 bound_to 10713
  153.4001  135.3860  155.1982 H   0  0  0  0  0  0  0  0  0  0  0  0  # atno 10763 bound_to 10752
  154.8728  135.3769  154.4629 H   0  0  0  0  0  0  0  0  0  0  0  0  # atno 10764 bound_to 10752
  153.5126  135.7087  153.5835 H   0  0  0  0  0  0  0  0  0  0  0  0  # atno 10765 bound_to 10752
  140.7546  134.3368  157.5117 H   0  0  0  0  0  0  0  0  0  0  0  0  # atno 11005 bound_to 11000
  144.7138  140.4136  143.7060 LP  0  0  0  0  0  0  0  0  0  0  0  0  # atno 17320 bound_to 7965
  145.6675  139.1593  143.2773 LP  0  0  0  0  0  0  0  0  0  0  0  0  # atno 17321 bound_to 7965
  140.7784  143.3802  151.1491 LP  0  0  0  0  0  0  0  0  0  0  0  0  # atno 17342 bound_to 10162
  139.7437  143.8885  152.3057 LP  0  0  0  0  0  0  0  0  0  0  0  0  # atno 17343 bound_to 10162
  157.7414  130.9869  150.2442 LP  0  0  0  0  0  0  0  0  0  0  0  0  # atno 17370 bound_to 10713
  156.3017  130.3759  149.7744 LP  0  0  0  0  0  0  0  0  0  0  0  0  # atno 17371 bound_to 10713
  139.8781  134.9163  156.3152 LP  0  0  0  0  0  0  0  0  0  0  0  0  # atno 17394 bound_to 11000
  140.9719  133.7321  156.0547 LP  0  0  0  0  0  0  0  0  0  0  0  0  # atno 17395 bound_to 11000

$$$$
