AV-unprocessed.smi:1175|AV-procd|sdf|4950|dock6
  -GOLD-   22720 3543D 1   1.00000     0.00000
 Structure written by MMmdl.
 36 37  0  0  0  0  0  0  0  0  1 V2000
  149.9095  142.6720  157.6507 O   0  0  0  0  0  0  0  0  0  0  0  0
  151.0923  142.3843  157.8410 C   0  0  0  0  0  0  0  0  0  0  0  0
  152.0439  143.3663  158.5397 C   0  0  0  0  0  0  0  0  0  0  0  0
  152.5944  142.8503  159.8044 N   0  0  0  0  0  0  0  0  0  0  0  0
  153.5342  141.8047  159.7134 C   0  0  0  0  0  0  0  0  0  0  0  0
  154.1074  141.2380  160.7925 C   0  0  0  0  0  0  0  0  0  0  0  0
  155.1659  140.1539  160.6600 C   0  0  0  0  0  0  0  0  0  0  0  0
  156.1902  140.5718  159.9157 F   0  0  0  0  0  0  0  0  0  0  0  0
  155.6336  139.8287  161.8646 F   0  0  0  0  0  0  0  0  0  0  0  0
  154.6619  139.0535  160.0997 F   0  0  0  0  0  0  0  0  0  0  0  0
  153.7318  141.7825  162.0826 C   0  0  0  0  0  0  0  0  0  0  0  0
  152.8460  142.7924  162.1866 C   0  0  0  0  0  0  0  0  0  0  0  0
  152.2194  143.3876  161.0038 C   0  0  0  0  0  0  0  0  0  0  0  0
  151.4099  144.3118  161.0856 O   0  0  0  0  0  0  0  0  0  0  0  0
  151.6352  141.2214  157.4510 N   0  0  0  0  0  0  0  0  0  0  0  0
  150.9170  140.1475  156.7732 C   0  0  0  0  0  0  0  0  0  0  0  0
  151.8701  139.2078  156.0112 C   0  0  2  0  0  0  0  0  0  0  0  0
  152.7426  139.8896  154.9755 C   0  0  0  0  0  0  0  0  0  0  0  0
  153.1678  138.7127  154.1036 C   0  0  0  0  0  0  0  0  0  0  0  0
  152.0783  137.7953  154.1329 O   0  0  0  0  0  0  0  0  0  0  0  0
  151.1562  138.1614  155.1557 C   0  0  0  0  0  0  0  0  0  0  0  0
  152.8522  143.6291  157.8548 H   0  0  0  0  0  0  0  0  0  0  0  0
  151.5050  144.2988  158.7135 H   0  0  0  0  0  0  0  0  0  0  0  0
  153.7689  141.4995  158.7039 H   0  0  0  0  0  0  0  0  0  0  0  0
  154.1657  141.3716  162.9823 H   0  0  0  0  0  0  0  0  0  0  0  0
  152.5892  143.1722  163.1646 H   0  0  0  0  0  0  0  0  0  0  0  0
  152.6144  141.0652  157.6429 H   0  0  0  0  0  0  0  0  0  0  0  0
  150.3255  139.5812  157.4947 H   0  0  0  0  0  0  0  0  0  0  0  0
  150.2053  140.6014  156.0828 H   0  0  0  0  0  0  0  0  0  0  0  0
  152.5163  138.6873  156.7206 H   0  0  0  0  0  0  0  0  0  0  0  0
  152.1567  140.5982  154.3883 H   0  0  0  0  0  0  0  0  0  0  0  0
  153.5896  140.4223  155.4092 H   0  0  0  0  0  0  0  0  0  0  0  0
  153.4093  139.0143  153.0841 H   0  0  0  0  0  0  0  0  0  0  0  0
  154.0444  138.2224  154.5288 H   0  0  0  0  0  0  0  0  0  0  0  0
  150.8413  137.2941  155.7366 H   0  0  0  0  0  0  0  0  0  0  0  0
  150.2716  138.5871  154.6800 H   0  0  0  0  0  0  0  0  0  0  0  0
  1  2  2  0  0  0  0
  2  3  1  0  0  0  0
  2 15  1  0  0  0  0
  3  4  1  0  0  0  0
  3 22  1  0  0  0  0
  3 23  1  0  0  0  0
  4 13  1  0  0  0  0
  4  5  1  0  0  0  0
  5  6  2  0  0  0  0
  5 24  1  0  0  0  0
  6  7  1  0  0  0  0
  6 11  1  0  0  0  0
  7  8  1  0  0  0  0
  7  9  1  0  0  0  0
  7 10  1  0  0  0  0
 11 12  2  0  0  0  0
 11 25  1  0  0  0  0
 12 13  1  0  0  0  0
 12 26  1  0  0  0  0
 13 14  2  0  0  0  0
 15 16  1  0  0  0  0
 15 27  1  0  0  0  0
 16 17  1  0  0  0  0
 16 28  1  0  0  0  0
 16 29  1  0  0  0  0
 17 21  1  0  0  0  0
 17 18  1  0  0  0  0
 17 30  1  0  0  0  0
 18 19  1  0  0  0  0
 18 31  1  0  0  0  0
 18 32  1  0  0  0  0
 19 20  1  0  0  0  0
 19 33  1  0  0  0  0
 19 34  1  0  0  0  0
 20 21  1  0  0  0  0
 21 35  1  0  0  0  0
 21 36  1  0  0  0  0
M  END
> <s_m_source_file>
AV-unprocessed.smi

> <i_m_source_file_index>
1175

> <i_lp_mmshare_version>
43012

> <i_f3d_flags>
0

> <s_epik_input>
W0NIMl0xT1tDSDJdW0NIMl1bQ0BIXTFbQ0gyXVtOSF1DKD1PKVtDSDJdbjJbY0hdYyhDKEYpKEYpRilbY0hdW2NIXWMyPU8=

> <s_epik_cmdline>
J2VwaWtfcHl0aG9uJywgJy1waCcsICc3LjAnLCAnLXRuJywgJzgnLCAnLW1hJywgJzIwMCcsICctbWV0YWxfYmluZGluZycsICctaW1hZScsICc8aW5maWxlLm1hZT4nLCAnLW9tYWUnLCAnPG91dGZpbGUubWFlPic=

> <r_lp_tautomer_probability>
1

> <r_epik_Ionization_Penalty>
3.67963e-08

> <r_epik_Ionization_Penalty_Charging>
1.809e-08

> <r_epik_Ionization_Penalty_Neutral>
1.87063e-08

> <r_epik_State_Penalty>
-0

> <r_epik_Charging_Adjusted_Penalty>
1.809e-08

> <i_epik_Tot_Q>
0

> <i_epik_Tot_abs_Q>
0

> <r_epik_Metal_State_Penalty>
-0

> <b_epik_Metal_Only>
0

> <s_lp_Force_Field>
OPLS_2005

> <r_lp_Energy>
30.0254

> <b_lp_Chiralities_Consistent>
1

> <s_lp_Variant>
AV-unprocessed.smi:1175-1

> <Gold.Version>
5.8.1

> <Gold.Id.Protein>
6NUR|6NUR_protein|mol2

> <Gold.PLP.Fitness>
47.2223

> <Gold.PLP.PLP>
-45.7180

> <Gold.PLP.part.hbond>
-1.0000

> <Gold.PLP.part.metal>
0.0000

> <Gold.PLP.part.buried>
-2.7816

> <Gold.PLP.part.nonpolar>
-42.0592

> <Gold.PLP.part.repulsive>
0.8146

> <Gold.PLP.ligand.clash>
0.5344

> <Gold.PLP.ligand.torsion>
0.2903

> <Gold.PLP.Chemscore.Hbond>
0.8580

> <Gold.PLP.Chemscore.CHOScore>
0.0000

> <Gold.PLP.Chemscore.Metal>
0.0000

> <Gold.Chemscore.Hbonds>
donor molecule, donor type, donor heavy atom, donor atom, acceptor molecule, acceptor atom, score
      P1  H 10752 10764       L1    20  0.29

> <Gold.PLP.Chemscore.Internal.Correction>
0.0453

> <Gold.Rescore>
     Score         DG    S(hbond)    S(metal)    S(lipo)     H(rot)  DE(clash)    DE(int)     intcor
     10.72     -12.08       0.02        0.00      96.82       1.87       0.77       0.60       ----

> <Gold.Chemscore.Fitness>
10.7178

> <Gold.Chemscore.DG>
-12.0814

> <Gold.Chemscore.ZeroCoef>
-5.4800

> <Gold.Chemscore.Hbond>
0.0166

> <Gold.Chemscore.Metal>
0.0000

> <Gold.Chemscore.Lipo>
96.8215

> <Gold.Chemscore.Internal_Hbond>
0.0000

> <Gold.Chemscore.DEClash>
0.7670

> <Gold.Chemscore.DEInternal>
0.5966

> <Gold.Chemscore.Rot>
1.8681

> <Gold.Chemscore.Internal.Correction>
   9.000000E+99

> <Gold.Chemscore.Hbonds>
donor molecule, donor type, donor heavy atom, donor atom, acceptor molecule, acceptor atom, score
      P1  H 10752 10764       L1    20  0.17

> <Gold.Chemscore.Hbond.Weighted>
-0.0555

> <Gold.Chemscore.Metal.Weighted>
-0.0000

> <Gold.Chemscore.Lipo.Weighted>
-11.3281

> <Gold.Chemscore.Internal_Hbond.Weighted>
0.0000

> <Gold.Chemscore.DEClash.Weighted>
0.7670

> <Gold.Chemscore.DEInternal.Weighted>
0.5966

> <Gold.Chemscore.Rot.Weighted>
4.7822

> <Gold.Chemscore.Internal.Correction.Weighted>
   9.000000E+99

> <Gold.Protein.RotatedTorsions>
[ 6907 6896 6895 6894 ] final  -53.46 input  -60.11 | X-H torsion
[ 7974 7965 7964 7962 ] final  134.14 input  175.53 | X-H torsion
[ 8008 7997 7996 7995 ] final   96.14 input   59.86 | X-H torsion
[ 10167 10162 10161 10158 ] final -146.01 input  -65.29 | X-H torsion
[ 10718 10713 10712 10709 ] final -145.86 input   66.30 | X-H torsion
[ 10763 10752 10751 10750 ] final  -81.82 input  -60.55 | X-H torsion
[ 11005 11000 10999 10996 ] final  100.62 input  -57.11 | X-H torsion

> <Gold.Protein.ActiveResidues>
 VAL166  LYS551  ARG553  GLY616  TRP617  ASP618  TYR619  PRO620  LYS621  CYS622 
 ASP623  PHE694  ASN695  SER759  ASP760  ASP761  ALA762  ILE779  LEU786  VAL792 
 PHE793  MET794  SER795  GLU796  ALA797  LYS798  CYS799  TRP800  GLU811  SER814 

> <Gold.Protein.RotatedAtoms>
  150.8425  134.7721  159.6943 H   0  0  0  0  0  0  0  0  0  0  0  0  # atno 6907 bound_to 6896
  152.4509  134.5392  159.9844 H   0  0  0  0  0  0  0  0  0  0  0  0  # atno 6908 bound_to 6896
  151.5530  133.3377  159.2992 H   0  0  0  0  0  0  0  0  0  0  0  0  # atno 6909 bound_to 6896
  144.9794  139.4520  143.5394 H   0  0  0  0  0  0  0  0  0  0  0  0  # atno 7974 bound_to 7965
  156.0764  140.3277  155.7639 H   0  0  0  0  0  0  0  0  0  0  0  0  # atno 8008 bound_to 7997
  155.5223  140.0586  157.2922 H   0  0  0  0  0  0  0  0  0  0  0  0  # atno 8009 bound_to 7997
  154.4558  140.1942  156.0402 H   0  0  0  0  0  0  0  0  0  0  0  0  # atno 8010 bound_to 7997
  139.7752  143.8180  152.2631 H   0  0  0  0  0  0  0  0  0  0  0  0  # atno 10167 bound_to 10162
  156.3877  130.7870  151.2069 H   0  0  0  0  0  0  0  0  0  0  0  0  # atno 10718 bound_to 10713
  154.5682  135.5613  153.7070 H   0  0  0  0  0  0  0  0  0  0  0  0  # atno 10763 bound_to 10752
  153.0040  135.6290  154.2151 H   0  0  0  0  0  0  0  0  0  0  0  0  # atno 10764 bound_to 10752
  154.2090  135.2874  155.2944 H   0  0  0  0  0  0  0  0  0  0  0  0  # atno 10765 bound_to 10752
  139.8771  134.9148  156.4783 H   0  0  0  0  0  0  0  0  0  0  0  0  # atno 11005 bound_to 11000
  146.3404  139.9057  142.8787 LP  0  0  0  0  0  0  0  0  0  0  0  0  # atno 17320 bound_to 7965
  145.2443  141.0021  143.3918 LP  0  0  0  0  0  0  0  0  0  0  0  0  # atno 17321 bound_to 7965
  139.8226  144.7289  150.9553 LP  0  0  0  0  0  0  0  0  0  0  0  0  # atno 17342 bound_to 10162
  140.7816  143.4145  151.0940 LP  0  0  0  0  0  0  0  0  0  0  0  0  # atno 17343 bound_to 10162
  157.7497  131.0325  150.4229 LP  0  0  0  0  0  0  0  0  0  0  0  0  # atno 17370 bound_to 10713
  156.4485  130.4006  149.6651 LP  0  0  0  0  0  0  0  0  0  0  0  0  # atno 17371 bound_to 10713
  140.8746  133.7963  155.9401 LP  0  0  0  0  0  0  0  0  0  0  0  0  # atno 17394 bound_to 11000
  140.8917  134.2487  157.5090 LP  0  0  0  0  0  0  0  0  0  0  0  0  # atno 17395 bound_to 11000

$$$$
