AV-unprocessed.smi:2855|AV-procd|sdf|10981|dock4
  -GOLD-   2272015433D 1   1.00000     0.00000
 Structure written by MMmdl.
 47 48  0  0  0  0  0  0  0  0  1 V2000
  151.9351  145.6025  159.8667 C   0  0  0  0  0  0  0  0  0  0  0  0
  152.0642  144.2939  159.0741 C   0  0  2  0  0  0  0  0  0  0  0  0
  150.7666  143.9629  158.3175 C   0  0  0  0  0  0  0  0  0  0  0  0
  150.8957  142.6556  157.5206 C   0  0  0  0  0  0  0  0  0  0  0  0
  151.2902  141.4642  158.4253 C   0  0  1  0  0  0  0  0  0  0  0  0
  151.3338  140.1019  157.6685 C   0  0  0  0  0  0  0  0  0  0  0  0
  151.9058  140.1924  156.2417 C   0  0  0  0  0  0  0  0  0  0  0  0
  149.9713  139.3880  157.6629 C   0  0  0  0  0  0  0  0  0  0  0  0
  152.5956  141.8009  159.1988 C   0  0  2  0  0  0  0  0  0  0  0  0
  152.9410  140.7289  160.1309 N   0  0  0  0  0  0  0  0  0  0  0  0
  154.0205  139.9354  160.0535 C   0  0  0  0  0  0  0  0  0  0  0  0
  154.8992  140.0627  159.2000 O   0  0  0  0  0  0  0  0  0  0  0  0
  154.1239  138.8306  161.1131 C   0  0  0  0  0  0  0  0  0  0  0  0
  155.2219  137.8926  160.8390 N   0  0  0  0  0  0  0  0  0  0  0  0
  156.5420  138.3123  160.9216 C   0  0  0  0  0  0  0  0  0  0  0  0
  157.5985  137.5031  160.6709 C   0  0  0  0  0  0  0  0  0  0  0  0
  157.3885  136.1102  160.2904 C   0  0  0  0  0  0  0  0  0  0  0  0
  158.2794  135.2998  160.0456 O   0  0  0  0  0  0  0  0  0  0  0  0
  156.0468  135.7267  160.2156 N   0  0  0  0  0  0  0  0  0  0  0  0
  154.9533  136.5555  160.4711 C   0  0  0  0  0  0  0  0  0  0  0  0
  153.8079  136.1163  160.3720 O   0  0  0  0  0  0  0  0  0  0  0  0
  152.4589  143.1187  159.9857 C   0  0  0  0  0  0  0  0  0  0  0  0
  155.8520  134.7714  159.9535 H   0  0  0  0  0  0  0  0  0  0  0  0
  151.1524  145.5331  160.6225 H   0  0  0  0  0  0  0  0  0  0  0  0
  151.6902  146.4369  159.2091 H   0  0  0  0  0  0  0  0  0  0  0  0
  152.8684  145.8470  160.3749 H   0  0  0  0  0  0  0  0  0  0  0  0
  152.8582  144.4322  158.3385 H   0  0  0  0  0  0  0  0  0  0  0  0
  149.9378  143.8790  159.0219 H   0  0  0  0  0  0  0  0  0  0  0  0
  150.5126  144.7782  157.6391 H   0  0  0  0  0  0  0  0  0  0  0  0
  149.9484  142.4610  157.0195 H   0  0  0  0  0  0  0  0  0  0  0  0
  151.6385  142.7923  156.7345 H   0  0  0  0  0  0  0  0  0  0  0  0
  150.5036  141.3691  159.1761 H   0  0  0  0  0  0  0  0  0  0  0  0
  151.9961  139.4386  158.2248 H   0  0  0  0  0  0  0  0  0  0  0  0
  151.2768  140.7991  155.5907 H   0  0  0  0  0  0  0  0  0  0  0  0
  151.9778  139.2017  155.7921 H   0  0  0  0  0  0  0  0  0  0  0  0
  152.9084  140.6179  156.2329 H   0  0  0  0  0  0  0  0  0  0  0  0
  149.2416  139.9064  157.0413 H   0  0  0  0  0  0  0  0  0  0  0  0
  149.5608  139.3104  158.6700 H   0  0  0  0  0  0  0  0  0  0  0  0
  150.0666  138.3746  157.2718 H   0  0  0  0  0  0  0  0  0  0  0  0
  153.3980  141.9414  158.4733 H   0  0  0  0  0  0  0  0  0  0  0  0
  152.2824  140.5509  160.8749 H   0  0  0  0  0  0  0  0  0  0  0  0
  154.2583  139.3059  162.0856 H   0  0  0  0  0  0  0  0  0  0  0  0
  153.1804  138.2849  161.1855 H   0  0  0  0  0  0  0  0  0  0  0  0
  156.7461  139.3376  161.1956 H   0  0  0  0  0  0  0  0  0  0  0  0
  158.6045  137.8888  160.7513 H   0  0  0  0  0  0  0  0  0  0  0  0
  153.4018  143.3451  160.4859 H   0  0  0  0  0  0  0  0  0  0  0  0
  151.7133  143.0018  160.7739 H   0  0  0  0  0  0  0  0  0  0  0  0
  1  2  1  0  0  0  0
  1 24  1  0  0  0  0
  1 25  1  0  0  0  0
  1 26  1  0  0  0  0
  2 22  1  0  0  0  0
  2  3  1  0  0  0  0
  2 27  1  0  0  0  0
  3  4  1  0  0  0  0
  3 28  1  0  0  0  0
  3 29  1  0  0  0  0
  4  5  1  0  0  0  0
  4 30  1  0  0  0  0
  4 31  1  0  0  0  0
  5  6  1  0  0  0  0
  5  9  1  0  0  0  0
  5 32  1  0  0  0  0
  6  7  1  0  0  0  0
  6  8  1  0  0  0  0
  6 33  1  0  0  0  0
  7 34  1  0  0  0  0
  7 35  1  0  0  0  0
  7 36  1  0  0  0  0
  8 37  1  0  0  0  0
  8 38  1  0  0  0  0
  8 39  1  0  0  0  0
  9 10  1  0  0  0  0
  9 22  1  0  0  0  0
  9 40  1  0  0  0  0
 10 11  1  0  0  0  0
 10 41  1  0  0  0  0
 11 12  2  0  0  0  0
 11 13  1  0  0  0  0
 13 14  1  0  0  0  0
 13 42  1  0  0  0  0
 13 43  1  0  0  0  0
 14 20  1  0  0  0  0
 14 15  1  0  0  0  0
 15 16  2  0  0  0  0
 15 44  1  0  0  0  0
 16 17  1  0  0  0  0
 16 45  1  0  0  0  0
 17 18  2  0  0  0  0
 17 19  1  0  0  0  0
 19 23  1  0  0  0  0
 19 20  1  0  0  0  0
 20 21  2  0  0  0  0
 22 46  1  0  0  0  0
 22 47  1  0  0  0  0
M  END
> <s_m_source_file>
AV-unprocessed.smi

> <i_m_source_file_index>
2855

> <i_lp_mmshare_version>
43012

> <i_f3d_flags>
0

> <s_epik_input>
W0NIM11bQ0BASF0xW0NIMl1bQ0gyXVtDQEBIXShbQ0hdKFtDSDNdKVtDSDNdKVtDQEhdKFtDSDJdMSlbTkhdQyg9TylbQ0gyXW4yW2NIXVtjSF1jKD1PKVtuSF1jMj1P

> <s_epik_cmdline>
J2VwaWtfcHl0aG9uJywgJy1waCcsICc3LjAnLCAnLXRuJywgJzgnLCAnLW1hJywgJzIwMCcsICctbWV0YWxfYmluZGluZycsICctaW1hZScsICc8aW5maWxlLm1hZT4nLCAnLW9tYWUnLCAnPG91dGZpbGUubWFlPic=

> <r_lp_tautomer_probability>
0.999537

> <r_epik_Ionization_Penalty>
0.00306256

> <r_epik_Ionization_Penalty_Charging>
0.00306254

> <r_epik_Ionization_Penalty_Neutral>
2.0223e-08

> <r_epik_State_Penalty>
0.0021533

> <r_epik_Charging_Adjusted_Penalty>
0.00521583

> <i_epik_Tot_Q>
0

> <i_epik_Tot_abs_Q>
0

> <r_epik_Metal_State_Penalty>
0.362116

> <b_epik_Metal_Only>
0

> <s_lp_Force_Field>
OPLS_2005

> <r_lp_Energy>
14.402

> <b_lp_Chiralities_Consistent>
1

> <s_lp_Variant>
AV-unprocessed.smi:2855-5

> <Gold.Version>
5.8.1

> <Gold.Id.Protein>
6NUR|6NUR_protein|mol2

> <Gold.PLP.Fitness>
38.5954

> <Gold.PLP.PLP>
-34.2159

> <Gold.PLP.part.hbond>
-2.0000

> <Gold.PLP.part.metal>
0.0000

> <Gold.PLP.part.buried>
-4.1713

> <Gold.PLP.part.nonpolar>
-28.7346

> <Gold.PLP.part.repulsive>
0.1391

> <Gold.PLP.ligand.clash>
0.0000

> <Gold.PLP.ligand.torsion>
0.8397

> <Gold.PLP.Chemscore.Hbond>
2.0000

> <Gold.PLP.Chemscore.CHOScore>
0.0000

> <Gold.PLP.Chemscore.Metal>
0.0000

> <Gold.Chemscore.Hbonds>
donor molecule, donor type, donor heavy atom, donor atom, acceptor molecule, acceptor atom, score
      P1  H  6896  6909       L1    21  1.00
      P1  H  7997  8009       L1    12  1.00

> <Gold.PLP.Chemscore.Internal.Correction>
0.0589

> <Gold.Rescore>
     Score         DG    S(hbond)    S(metal)    S(lipo)     H(rot)  DE(clash)    DE(int)     intcor
     16.96     -18.49       1.99        0.00      94.90       1.85       0.06       1.47       ----

> <Gold.Chemscore.Fitness>
16.9569

> <Gold.Chemscore.DG>
-18.4852

> <Gold.Chemscore.ZeroCoef>
-5.4800

> <Gold.Chemscore.Hbond>
1.9903

> <Gold.Chemscore.Metal>
0.0000

> <Gold.Chemscore.Lipo>
94.9021

> <Gold.Chemscore.Internal_Hbond>
0.0000

> <Gold.Chemscore.DEClash>
0.0630

> <Gold.Chemscore.DEInternal>
1.4653

> <Gold.Chemscore.Rot>
1.8539

> <Gold.Chemscore.Internal.Correction>
   9.000000E+99

> <Gold.Chemscore.Hbonds>
donor molecule, donor type, donor heavy atom, donor atom, acceptor molecule, acceptor atom, score
      P1  H  6896  6909       L1    21  0.97
      P1  H  7997  8009       L1    12  0.95

> <Gold.Chemscore.Hbond.Weighted>
-6.6476

> <Gold.Chemscore.Metal.Weighted>
-0.0000

> <Gold.Chemscore.Lipo.Weighted>
-11.1035

> <Gold.Chemscore.Internal_Hbond.Weighted>
0.0000

> <Gold.Chemscore.DEClash.Weighted>
0.0630

> <Gold.Chemscore.DEInternal.Weighted>
1.4653

> <Gold.Chemscore.Rot.Weighted>
4.7460

> <Gold.Chemscore.Internal.Correction.Weighted>
   9.000000E+99

> <Gold.Protein.RotatedTorsions>
[ 6907 6896 6895 6894 ] final  166.91 input  -60.11 | X-H torsion
[ 7974 7965 7964 7962 ] final  -93.66 input  175.53 | X-H torsion
[ 8008 7997 7996 7995 ] final  115.35 input   59.86 | X-H torsion
[ 10167 10162 10161 10158 ] final  -64.62 input  -65.29 | X-H torsion
[ 10718 10713 10712 10709 ] final    7.85 input   66.30 | X-H torsion
[ 10763 10752 10751 10750 ] final  -20.72 input  -60.55 | X-H torsion
[ 11005 11000 10999 10996 ] final  -99.84 input  -57.11 | X-H torsion

> <Gold.Protein.ActiveResidues>
 VAL166  LYS551  ARG553  GLY616  TRP617  ASP618  TYR619  PRO620  LYS621  CYS622 
 ASP623  PHE694  ASN695  SER759  ASP760  ASP761  ALA762  ILE779  LEU786  VAL792 
 PHE793  MET794  SER795  GLU796  ALA797  LYS798  CYS799  TRP800  GLU811  SER814 

> <Gold.Protein.RotatedAtoms>
  151.8715  133.3476  159.3736 H   0  0  0  0  0  0  0  0  0  0  0  0  # atno 6907 bound_to 6896
  150.7151  134.5108  159.5616 H   0  0  0  0  0  0  0  0  0  0  0  0  # atno 6908 bound_to 6896
  152.2642  134.8003  160.0476 H   0  0  0  0  0  0  0  0  0  0  0  0  # atno 6909 bound_to 6896
  145.3836  140.9520  143.2380 H   0  0  0  0  0  0  0  0  0  0  0  0  # atno 7974 bound_to 7965
  156.2376  140.2940  156.0356 H   0  0  0  0  0  0  0  0  0  0  0  0  # atno 8008 bound_to 7997
  155.2045  140.0410  157.2940 H   0  0  0  0  0  0  0  0  0  0  0  0  # atno 8009 bound_to 7997
  154.6108  140.2451  155.7678 H   0  0  0  0  0  0  0  0  0  0  0  0  # atno 8010 bound_to 7997
  140.5788  143.2325  151.6386 H   0  0  0  0  0  0  0  0  0  0  0  0  # atno 10167 bound_to 10162
  156.9430  130.5868  149.5653 H   0  0  0  0  0  0  0  0  0  0  0  0  # atno 10718 bound_to 10713
  153.6248  135.6991  153.5297 H   0  0  0  0  0  0  0  0  0  0  0  0  # atno 10763 bound_to 10752
  153.2908  135.4158  155.1164 H   0  0  0  0  0  0  0  0  0  0  0  0  # atno 10764 bound_to 10752
  154.8535  135.3625  154.5790 H   0  0  0  0  0  0  0  0  0  0  0  0  # atno 10765 bound_to 10752
  141.1293  133.8352  157.1024 H   0  0  0  0  0  0  0  0  0  0  0  0  # atno 11005 bound_to 11000
  144.8490  139.5351  143.6865 LP  0  0  0  0  0  0  0  0  0  0  0  0  # atno 17320 bound_to 7965
  146.2831  139.6930  142.9215 LP  0  0  0  0  0  0  0  0  0  0  0  0  # atno 17321 bound_to 7965
  139.5158  144.3367  152.0777 LP  0  0  0  0  0  0  0  0  0  0  0  0  # atno 17342 bound_to 10162
  140.2515  144.4164  150.6220 LP  0  0  0  0  0  0  0  0  0  0  0  0  # atno 17343 bound_to 10162
  156.0396  130.5480  150.8738 LP  0  0  0  0  0  0  0  0  0  0  0  0  # atno 17370 bound_to 10713
  157.5772  131.0946  150.9327 LP  0  0  0  0  0  0  0  0  0  0  0  0  # atno 17371 bound_to 10713
  140.0325  134.9894  157.0808 LP  0  0  0  0  0  0  0  0  0  0  0  0  # atno 17394 bound_to 11000
  140.4262  134.1828  155.7166 LP  0  0  0  0  0  0  0  0  0  0  0  0  # atno 17395 bound_to 11000

$$$$
