AV-unprocessed.smi:1047|AV-procd|sdf|4563|dock9
  -GOLD-   22720 3 13D 1   1.00000     0.00000
 Structure written by MMmdl.
 57 59  0  0  0  0  0  0  0  0  3 V2000
  145.2148  132.2371  151.7689 C   0  0  0  0  0  0  0  0  0  0  0  0
  146.5484  132.2458  151.0082 C   0  0  0  0  0  0  0  0  0  0  0  0
  147.7151  132.0336  151.9014 N   0  3  2  0  0  0  0  0  0  0  0  0
  147.5990  130.7857  152.6933 C   0  0  0  0  0  0  0  0  0  0  0  0
  148.8536  130.5748  153.5575 C   0  0  0  0  0  0  0  0  0  0  0  0
  149.0498  131.7020  154.4034 O   0  0  0  0  0  0  0  0  0  0  0  0
  149.2412  132.9033  153.6637 C   0  0  2  0  0  0  0  0  0  0  0  0
  149.5815  134.0438  154.6385 C   0  0  0  0  0  0  0  0  0  0  0  0
  150.4003  135.0988  154.0046 N   0  3  0  0  0  0  0  0  0  0  0  0
  151.2267  135.8685  154.9558 C   0  0  0  0  0  0  0  0  0  0  0  0
  151.4704  137.3055  154.4549 C   0  0  2  0  0  0  0  0  0  0  0  0
  152.2821  137.2551  153.2986 O   0  0  0  0  0  0  0  0  0  0  0  0
  152.1761  138.2145  155.4820 C   0  0  0  0  0  0  0  0  0  0  0  0
  151.4859  139.4752  155.6850 N   0  0  0  0  0  0  0  0  0  0  0  0
  150.4766  139.9733  154.9451 C   0  0  0  0  0  0  0  0  0  0  0  0
  149.9761  141.1493  155.3120 N   0  0  0  0  0  0  0  0  0  0  0  0
  150.7552  141.4535  156.4150 C   0  0  0  0  0  0  0  0  0  0  0  0
  150.7304  142.5729  157.2750 C   0  0  0  0  0  0  0  0  0  0  0  0
  151.6284  142.6722  158.3616 C   0  0  0  0  0  0  0  0  0  0  0  0
  151.5640  143.8922  159.2637 C   0  0  0  0  0  0  0  0  0  0  0  0
  152.5734  141.6418  158.5991 C   0  0  0  0  0  0  0  0  0  0  0  0
  153.5474  141.7271  159.7607 C   0  0  0  0  0  0  0  0  0  0  0  0
  152.6139  140.5179  157.7478 C   0  0  0  0  0  0  0  0  0  0  0  0
  151.7123  140.4288  156.6723 C   0  0  0  0  0  0  0  0  0  0  0  0
  147.9986  133.1861  152.7930 C   0  0  0  0  0  0  0  0  0  0  0  0
  144.3909  132.4839  151.0987 H   0  0  0  0  0  0  0  0  0  0  0  0
  145.2151  132.9727  152.5738 H   0  0  0  0  0  0  0  0  0  0  0  0
  144.9956  131.2617  152.2022 H   0  0  0  0  0  0  0  0  0  0  0  0
  146.5427  131.4986  150.2132 H   0  0  0  0  0  0  0  0  0  0  0  0
  146.6465  133.2161  150.5193 H   0  0  0  0  0  0  0  0  0  0  0  0
  146.7118  130.8342  153.3266 H   0  0  0  0  0  0  0  0  0  0  0  0
  147.4696  129.9330  152.0255 H   0  0  0  0  0  0  0  0  0  0  0  0
  148.7371  129.6852  154.1770 H   0  0  0  0  0  0  0  0  0  0  0  0
  149.7345  130.4141  152.9338 H   0  0  0  0  0  0  0  0  0  0  0  0
  150.1026  132.7686  153.0066 H   0  0  0  0  0  0  0  0  0  0  0  0
  148.6607  134.4901  155.0160 H   0  0  0  0  0  0  0  0  0  0  0  0
  150.1156  133.6434  155.5011 H   0  0  0  0  0  0  0  0  0  0  0  0
  151.0169  134.6730  153.3272 H   0  0  0  0  0  0  0  0  0  0  0  0
  150.7006  135.8852  155.9104 H   0  0  0  0  0  0  0  0  0  0  0  0
  152.1757  135.3563  155.1216 H   0  0  0  0  0  0  0  0  0  0  0  0
  150.5166  137.7574  154.1789 H   0  0  0  0  0  0  0  0  0  0  0  0
  151.7675  136.9179  152.5808 H   0  0  0  0  0  0  0  0  0  0  0  0
  152.2620  137.7093  156.4451 H   0  0  0  0  0  0  0  0  0  0  0  0
  153.1942  138.4331  155.1560 H   0  0  0  0  0  0  0  0  0  0  0  0
  150.0838  139.4394  154.0921 H   0  0  0  0  0  0  0  0  0  0  0  0
  150.0107  143.3579  157.0939 H   0  0  0  0  0  0  0  0  0  0  0  0
  152.5134  144.4277  159.2503 H   0  0  0  0  0  0  0  0  0  0  0  0
  151.3460  143.5976  160.2904 H   0  0  0  0  0  0  0  0  0  0  0  0
  150.7852  144.5847  158.9428 H   0  0  0  0  0  0  0  0  0  0  0  0
  154.1903  140.8477  159.8073 H   0  0  0  0  0  0  0  0  0  0  0  0
  153.0099  141.7978  160.7065 H   0  0  0  0  0  0  0  0  0  0  0  0
  154.1865  142.6043  159.6590 H   0  0  0  0  0  0  0  0  0  0  0  0
  153.3291  139.7269  157.9181 H   0  0  0  0  0  0  0  0  0  0  0  0
  148.1703  134.0862  152.2034 H   0  0  0  0  0  0  0  0  0  0  0  0
  147.1264  133.3765  153.4202 H   0  0  0  0  0  0  0  0  0  0  0  0
  149.7858  135.7397  153.5225 H   0  0  0  0  0  0  0  0  0  0  0  0
  148.5188  131.9145  151.3009 H   0  0  0  0  0  0  0  0  0  0  0  0
  1  2  1  0  0  0  0
  1 26  1  0  0  0  0
  1 27  1  0  0  0  0
  1 28  1  0  0  0  0
  2  3  1  0  0  0  0
  2 29  1  0  0  0  0
  2 30  1  0  0  0  0
  3 25  1  0  0  0  0
  3  4  1  0  0  0  0
  3 57  1  0  0  0  0
  4  5  1  0  0  0  0
  4 31  1  0  0  0  0
  4 32  1  0  0  0  0
  5  6  1  0  0  0  0
  5 33  1  0  0  0  0
  5 34  1  0  0  0  0
  6  7  1  0  0  0  0
  7  8  1  0  0  0  0
  7 25  1  0  0  0  0
  7 35  1  0  0  0  0
  8  9  1  0  0  0  0
  8 36  1  0  0  0  0
  8 37  1  0  0  0  0
  9 10  1  0  0  0  0
  9 38  1  0  0  0  0
  9 56  1  0  0  0  0
 10 11  1  0  0  0  0
 10 39  1  0  0  0  0
 10 40  1  0  0  0  0
 11 12  1  0  0  0  0
 11 13  1  0  0  0  0
 11 41  1  0  0  0  0
 12 42  1  0  0  0  0
 13 14  1  0  0  0  0
 13 43  1  0  0  0  0
 13 44  1  0  0  0  0
 14 24  1  0  0  0  0
 14 15  1  0  0  0  0
 15 16  2  0  0  0  0
 15 45  1  0  0  0  0
 16 17  1  0  0  0  0
 17 24  2  0  0  0  0
 17 18  1  0  0  0  0
 18 19  2  0  0  0  0
 18 46  1  0  0  0  0
 19 20  1  0  0  0  0
 19 21  1  0  0  0  0
 20 47  1  0  0  0  0
 20 48  1  0  0  0  0
 20 49  1  0  0  0  0
 21 22  1  0  0  0  0
 21 23  2  0  0  0  0
 22 50  1  0  0  0  0
 22 51  1  0  0  0  0
 22 52  1  0  0  0  0
 23 24  1  0  0  0  0
 23 53  1  0  0  0  0
 25 54  1  0  0  0  0
 25 55  1  0  0  0  0
M  CHG  1   3   1
M  CHG  1   9   1
M  END
> <s_m_source_file>
AV-unprocessed.smi

> <i_m_source_file_index>
1047

> <i_lp_mmshare_version>
43012

> <i_f3d_flags>
0

> <s_epik_input>
W0NIM11bQ0gyXU4xW0NIMl1bQ0gyXU9bQ0BIXShbQ0gyXTEpW0NIMl1bTkhdW0NIMl1bQ0BIXShbT0hdKVtDSDJdbihbY0hdbjIpYyhjMjMpW2NIXWMoW0NIM10pYyhbY0hdMylbQ0gzXQ==

> <s_epik_cmdline>
J2VwaWtfcHl0aG9uJywgJy1waCcsICc3LjAnLCAnLXRuJywgJzgnLCAnLW1hJywgJzIwMCcsICctbWV0YWxfYmluZGluZycsICctaW1hZScsICc8aW5maWxlLm1hZT4nLCAnLW9tYWUnLCAnPG91dGZpbGUubWFlPic=

> <r_epik_Ionization_Penalty>
0.528991

> <r_epik_Ionization_Penalty_Charging>
0.438567

> <r_epik_Ionization_Penalty_Neutral>
0.0904237

> <r_epik_State_Penalty>
0.533036

> <r_epik_Charging_Adjusted_Penalty>
0.971603

> <i_epik_Tot_Q>
2

> <i_epik_Tot_abs_Q>
2

> <r_epik_Metal_State_Penalty>
0.448985

> <b_epik_Metal_Only>
0

> <s_lp_Force_Field>
OPLS_2005

> <r_lp_Energy>
33.7981

> <b_lp_Chiralities_Consistent>
1

> <s_lp_Variant>
AV-unprocessed.smi:1047-4

> <Gold.Version>
5.8.1

> <Gold.Id.Protein>
6NUR|6NUR_protein|mol2

> <Gold.PLP.Fitness>
60.3766

> <Gold.PLP.PLP>
-48.7335

> <Gold.PLP.part.hbond>
-5.6750

> <Gold.PLP.part.metal>
0.0000

> <Gold.PLP.part.buried>
-0.7040

> <Gold.PLP.part.nonpolar>
-42.6011

> <Gold.PLP.part.repulsive>
0.1919

> <Gold.PLP.ligand.clash>
0.0000

> <Gold.PLP.ligand.torsion>
1.4964

> <Gold.PLP.Chemscore.Hbond>
4.8560

> <Gold.PLP.Chemscore.CHOScore>
0.0000

> <Gold.PLP.Chemscore.Metal>
0.0000

> <Gold.Chemscore.Hbonds>
donor molecule, donor type, donor heavy atom, donor atom, acceptor molecule, acceptor atom, score
      L1  H     3    57       P1 10747  0.74
      L1  H     9    38       P1  7949  0.14
      L1  H     9    56       P1  7948  1.19
      L1  H    12    42       P1  7949  1.00
      P1  H 10752 10764       L1    12  0.22

> <Gold.PLP.Chemscore.Internal.Correction>
0.0679

> <Gold.Rescore>
     Score         DG    S(hbond)    S(metal)    S(lipo)     H(rot)  DE(clash)    DE(int)     intcor
     19.57     -21.12       2.35        0.00     125.67       2.70       0.01       1.54       ----

> <Gold.Chemscore.Fitness>
19.5729

> <Gold.Chemscore.DG>
-21.1170

> <Gold.Chemscore.ZeroCoef>
-5.4800

> <Gold.Chemscore.Hbond>
2.3477

> <Gold.Chemscore.Metal>
0.0000

> <Gold.Chemscore.Lipo>
125.6740

> <Gold.Chemscore.Internal_Hbond>
0.0000

> <Gold.Chemscore.DEClash>
0.0071

> <Gold.Chemscore.DEInternal>
1.5371

> <Gold.Chemscore.Rot>
2.6985

> <Gold.Chemscore.Internal.Correction>
   9.000000E+99

> <Gold.Chemscore.Hbonds>
donor molecule, donor type, donor heavy atom, donor atom, acceptor molecule, acceptor atom, score
      L1  H     3    57       P1 10747  0.69
      L1  H     9    56       P1  7948  0.05
      L1  H    12    42       P1  7949  0.94

> <Gold.Chemscore.Hbond.Weighted>
-7.8413

> <Gold.Chemscore.Metal.Weighted>
-0.0000

> <Gold.Chemscore.Lipo.Weighted>
-14.7039

> <Gold.Chemscore.Internal_Hbond.Weighted>
0.0000

> <Gold.Chemscore.DEClash.Weighted>
0.0071

> <Gold.Chemscore.DEInternal.Weighted>
1.5371

> <Gold.Chemscore.Rot.Weighted>
6.9081

> <Gold.Chemscore.Internal.Correction.Weighted>
   9.000000E+99

> <Gold.Protein.RotatedTorsions>
[ 6907 6896 6895 6894 ] final   35.15 input  -60.11 | X-H torsion
[ 7974 7965 7964 7962 ] final  -70.02 input  175.53 | X-H torsion
[ 8008 7997 7996 7995 ] final  177.13 input   59.86 | X-H torsion
[ 10167 10162 10161 10158 ] final  150.99 input  -65.29 | X-H torsion
[ 10718 10713 10712 10709 ] final  134.26 input   66.30 | X-H torsion
[ 10763 10752 10751 10750 ] final  -88.81 input  -60.55 | X-H torsion
[ 11005 11000 10999 10996 ] final  165.60 input  -57.11 | X-H torsion

> <Gold.Protein.ActiveResidues>
 VAL166  LYS551  ARG553  GLY616  TRP617  ASP618  TYR619  PRO620  LYS621  CYS622 
 ASP623  PHE694  ASN695  SER759  ASP760  ASP761  ALA762  ILE779  LEU786  VAL792 
 PHE793  MET794  SER795  GLU796  ALA797  LYS798  CYS799  TRP800  GLU811  SER814 

> <Gold.Protein.RotatedAtoms>
  152.1123  134.9266  160.0565 H   0  0  0  0  0  0  0  0  0  0  0  0  # atno 6907 bound_to 6896
  152.0439  133.3984  159.4356 H   0  0  0  0  0  0  0  0  0  0  0  0  # atno 6908 bound_to 6896
  150.6844  134.3305  159.4868 H   0  0  0  0  0  0  0  0  0  0  0  0  # atno 6909 bound_to 6896
  145.6964  140.9133  143.0754 H   0  0  0  0  0  0  0  0  0  0  0  0  # atno 7974 bound_to 7965
  156.0690  140.1366  156.9851 H   0  0  0  0  0  0  0  0  0  0  0  0  # atno 8008 bound_to 7997
  154.4521  140.0976  156.6702 H   0  0  0  0  0  0  0  0  0  0  0  0  # atno 8009 bound_to 7997
  155.5258  140.3457  155.4418 H   0  0  0  0  0  0  0  0  0  0  0  0  # atno 8010 bound_to 7997
  139.4845  144.5478  151.7454 H   0  0  0  0  0  0  0  0  0  0  0  0  # atno 10167 bound_to 10162
  157.4690  131.1079  150.9826 H   0  0  0  0  0  0  0  0  0  0  0  0  # atno 10718 bound_to 10713
  154.6485  135.5364  153.7873 H   0  0  0  0  0  0  0  0  0  0  0  0  # atno 10763 bound_to 10752
  153.0373  135.6476  154.1052 H   0  0  0  0  0  0  0  0  0  0  0  0  # atno 10764 bound_to 10752
  154.0971  135.2936  155.3239 H   0  0  0  0  0  0  0  0  0  0  0  0  # atno 10765 bound_to 10752
  140.2578  134.7926  157.3562 H   0  0  0  0  0  0  0  0  0  0  0  0  # atno 11005 bound_to 11000
  144.6981  139.8889  143.7452 LP  0  0  0  0  0  0  0  0  0  0  0  0  # atno 17320 bound_to 7965
  146.0837  139.3825  143.0449 LP  0  0  0  0  0  0  0  0  0  0  0  0  # atno 17321 bound_to 7965
  140.5027  144.1145  150.5975 LP  0  0  0  0  0  0  0  0  0  0  0  0  # atno 17342 bound_to 10162
  140.4044  143.2688  151.9909 LP  0  0  0  0  0  0  0  0  0  0  0  0  # atno 17343 bound_to 10162
  157.0597  130.5820  149.5384 LP  0  0  0  0  0  0  0  0  0  0  0  0  # atno 17370 bound_to 10713
  156.0064  130.5151  150.7845 LP  0  0  0  0  0  0  0  0  0  0  0  0  # atno 17371 bound_to 10713
  140.1494  134.4869  155.7972 LP  0  0  0  0  0  0  0  0  0  0  0  0  # atno 17394 bound_to 11000
  141.2194  133.6856  156.7352 LP  0  0  0  0  0  0  0  0  0  0  0  0  # atno 17395 bound_to 11000

$$$$
