AV-unprocessed.smi:3191|AV-procd|sdf|12199|dock10
  -GOLD-   2272018 33D 1   1.00000     0.00000
 Structure written by MMmdl.
 35 36  0  0  0  0  0  0  0  0  1 V2000
  149.0027  138.8415  154.0052 C   0  0  0  0  0  0  0  0  0  0  0  0
  150.1696  138.4262  154.7575 N   0  0  0  0  0  0  0  0  0  0  0  0
  150.9548  137.3700  154.5057 C   0  0  0  0  0  0  0  0  0  0  0  0
  151.9614  137.2187  155.3553 N   0  0  0  0  0  0  0  0  0  0  0  0
  151.8085  138.2817  156.2410 C   0  0  0  0  0  0  0  0  0  0  0  0
  150.7088  139.0351  155.8875 C   0  0  0  0  0  0  0  0  0  0  0  0
  150.1223  140.2661  156.5079 C   0  0  0  0  0  0  0  0  0  0  0  0
  150.2147  141.5238  155.6258 C   0  0  0  0  0  0  0  0  0  0  0  0
  150.4897  142.7167  156.4185 N   0  0  0  0  0  0  0  0  0  0  0  0
  151.3294  142.7717  157.4635 C   0  0  0  0  0  0  0  0  0  0  0  0
  151.9660  141.7942  157.8585 O   0  0  0  0  0  0  0  0  0  0  0  0
  151.4222  144.1292  158.0891 C   0  0  2  0  0  0  0  0  0  0  0  0
  152.7616  144.8363  158.0585 C   0  0  0  0  0  0  0  0  0  0  0  0
  152.2172  144.3340  159.3773 C   0  0  0  0  0  0  0  0  0  0  0  0
  151.6787  145.3257  160.3936 C   0  0  0  0  0  0  0  0  0  0  0  0
  152.9358  143.1993  160.0975 C   0  0  0  0  0  0  0  0  0  0  0  0
  150.5386  144.7554  157.9727 H   0  0  0  0  0  0  0  0  0  0  0  0
  148.8456  138.1783  153.1540 H   0  0  0  0  0  0  0  0  0  0  0  0
  149.1436  139.8588  153.6391 H   0  0  0  0  0  0  0  0  0  0  0  0
  148.1214  138.8097  154.6462 H   0  0  0  0  0  0  0  0  0  0  0  0
  150.7855  136.6950  153.6794 H   0  0  0  0  0  0  0  0  0  0  0  0
  152.4984  138.4213  157.0604 H   0  0  0  0  0  0  0  0  0  0  0  0
  149.0774  140.0715  156.7526 H   0  0  0  0  0  0  0  0  0  0  0  0
  150.6242  140.4581  157.4569 H   0  0  0  0  0  0  0  0  0  0  0  0
  151.0201  141.4113  154.8994 H   0  0  0  0  0  0  0  0  0  0  0  0
  149.2952  141.6612  155.0542 H   0  0  0  0  0  0  0  0  0  0  0  0
  150.0047  143.5620  156.1542 H   0  0  0  0  0  0  0  0  0  0  0  0
  153.6178  144.3147  157.6338 H   0  0  0  0  0  0  0  0  0  0  0  0
  152.7465  145.9081  157.8711 H   0  0  0  0  0  0  0  0  0  0  0  0
  152.4929  145.7465  160.9847 H   0  0  0  0  0  0  0  0  0  0  0  0
  150.9759  144.8343  161.0671 H   0  0  0  0  0  0  0  0  0  0  0  0
  151.1604  146.1468  159.8973 H   0  0  0  0  0  0  0  0  0  0  0  0
  153.6232  143.5976  160.8442 H   0  0  0  0  0  0  0  0  0  0  0  0
  153.5225  142.5928  159.4087 H   0  0  0  0  0  0  0  0  0  0  0  0
  152.2146  142.5549  160.6009 H   0  0  0  0  0  0  0  0  0  0  0  0
  1  2  1  0  0  0  0
  1 18  1  0  0  0  0
  1 19  1  0  0  0  0
  1 20  1  0  0  0  0
  2  6  1  0  0  0  0
  2  3  1  0  0  0  0
  3  4  2  0  0  0  0
  3 21  1  0  0  0  0
  4  5  1  0  0  0  0
  5  6  2  0  0  0  0
  5 22  1  0  0  0  0
  6  7  1  0  0  0  0
  7  8  1  0  0  0  0
  7 23  1  0  0  0  0
  7 24  1  0  0  0  0
  8  9  1  0  0  0  0
  8 25  1  0  0  0  0
  8 26  1  0  0  0  0
  9 10  1  0  0  0  0
  9 27  1  0  0  0  0
 10 11  2  0  0  0  0
 10 12  1  0  0  0  0
 12 17  1  0  0  0  0
 12 14  1  0  0  0  0
 12 13  1  0  0  0  0
 13 14  1  0  0  0  0
 13 28  1  0  0  0  0
 13 29  1  0  0  0  0
 14 15  1  0  0  0  0
 14 16  1  0  0  0  0
 15 30  1  0  0  0  0
 15 31  1  0  0  0  0
 15 32  1  0  0  0  0
 16 33  1  0  0  0  0
 16 34  1  0  0  0  0
 16 35  1  0  0  0  0
M  END
> <s_m_source_file>
AV-unprocessed.smi

> <i_m_source_file_index>
3191

> <i_lp_mmshare_version>
43012

> <i_f3d_flags>
0

> <s_epik_input>
W0NIM11uMVtjSF1uW2NIXWMxW0NIMl1bQ0gyXVtOSF1DKD1PKVtDQEBIXShbQ0gyXTIpQzIoW0NIM10pW0NIM10=

> <s_epik_cmdline>
J2VwaWtfcHl0aG9uJywgJy1waCcsICc3LjAnLCAnLXRuJywgJzgnLCAnLW1hJywgJzIwMCcsICctbWV0YWxfYmluZGluZycsICctaW1hZScsICc8aW5maWxlLm1hZT4nLCAnLW9tYWUnLCAnPG91dGZpbGUubWFlPic=

> <r_lp_tautomer_probability>
1

> <r_epik_Ionization_Penalty>
0.874249

> <r_epik_Ionization_Penalty_Charging>
0.874249

> <r_epik_Ionization_Penalty_Neutral>
1.97773e-08

> <r_epik_State_Penalty>
0.911868

> <r_epik_Charging_Adjusted_Penalty>
1.78612

> <i_epik_Tot_Q>
0

> <i_epik_Tot_abs_Q>
0

> <r_epik_Metal_State_Penalty>
0.361186

> <b_epik_Metal_Only>
0

> <s_lp_Force_Field>
OPLS_2005

> <r_lp_Energy>
11.6999

> <b_lp_Chiralities_Consistent>
1

> <s_lp_Variant>
AV-unprocessed.smi:3191-4

> <Gold.Version>
5.8.1

> <Gold.Id.Protein>
6NUR|6NUR_protein|mol2

> <Gold.PLP.Fitness>
45.3153

> <Gold.PLP.PLP>
-37.3847

> <Gold.PLP.part.hbond>
-2.0000

> <Gold.PLP.part.metal>
0.0000

> <Gold.PLP.part.buried>
-3.9375

> <Gold.PLP.part.nonpolar>
-32.6682

> <Gold.PLP.part.repulsive>
0.1442

> <Gold.PLP.ligand.clash>
0.0266

> <Gold.PLP.ligand.torsion>
0.4959

> <Gold.PLP.Chemscore.Hbond>
1.9600

> <Gold.PLP.Chemscore.CHOScore>
0.9928

> <Gold.PLP.Chemscore.Metal>
0.0000

> <Gold.Chemscore.Hbonds>
donor molecule, donor type, donor heavy atom, donor atom, acceptor molecule, acceptor atom, score
      L1  H     9    27       P1  8028  1.00
      P1  H 10752 10765       L1     4  0.94
      L1  C     3    21       P1  7948  0.22
      L1  C     3    21       P1  7949  0.77

> <Gold.PLP.Chemscore.Internal.Correction>
0.0904

> <Gold.Rescore>
     Score         DG    S(hbond)    S(metal)    S(lipo)     H(rot)  DE(clash)    DE(int)     intcor
     15.11     -18.45       1.93        0.00      92.74       1.69       0.02       3.32       ----

> <Gold.Chemscore.Fitness>
15.1149

> <Gold.Chemscore.DG>
-18.4524

> <Gold.Chemscore.ZeroCoef>
-5.4800

> <Gold.Chemscore.Hbond>
1.9319

> <Gold.Chemscore.Metal>
0.0000

> <Gold.Chemscore.Lipo>
92.7429

> <Gold.Chemscore.Internal_Hbond>
0.0000

> <Gold.Chemscore.DEClash>
0.0197

> <Gold.Chemscore.DEInternal>
3.3177

> <Gold.Chemscore.Rot>
1.6919

> <Gold.Chemscore.Internal.Correction>
   9.000000E+99

> <Gold.Chemscore.Hbonds>
donor molecule, donor type, donor heavy atom, donor atom, acceptor molecule, acceptor atom, score
      L1  H     9    27       P1  8028  1.00
      P1  H 10752 10765       L1     4  0.42

> <Gold.Chemscore.Hbond.Weighted>
-6.4526

> <Gold.Chemscore.Metal.Weighted>
-0.0000

> <Gold.Chemscore.Lipo.Weighted>
-10.8509

> <Gold.Chemscore.Internal_Hbond.Weighted>
0.0000

> <Gold.Chemscore.DEClash.Weighted>
0.0197

> <Gold.Chemscore.DEInternal.Weighted>
3.3177

> <Gold.Chemscore.Rot.Weighted>
4.3312

> <Gold.Chemscore.Internal.Correction.Weighted>
   9.000000E+99

> <Gold.Protein.RotatedTorsions>
[ 6907 6896 6895 6894 ] final   36.53 input  -60.11 | X-H torsion
[ 7974 7965 7964 7962 ] final  -95.30 input  175.53 | X-H torsion
[ 8008 7997 7996 7995 ] final  154.13 input   59.86 | X-H torsion
[ 10167 10162 10161 10158 ] final -145.93 input  -65.29 | X-H torsion
[ 10718 10713 10712 10709 ] final  107.59 input   66.30 | X-H torsion
[ 10763 10752 10751 10750 ] final -174.01 input  -60.55 | X-H torsion
[ 11005 11000 10999 10996 ] final  -15.10 input  -57.11 | X-H torsion

> <Gold.Protein.ActiveResidues>
 VAL166  LYS551  ARG553  GLY616  TRP617  ASP618  TYR619  PRO620  LYS621  CYS622 
 ASP623  PHE694  ASN695  SER759  ASP760  ASP761  ALA762  ILE779  LEU786  VAL792 
 PHE793  MET794  SER795  GLU796  ALA797  LYS798  CYS799  TRP800  GLU811  SER814 

> <Gold.Protein.RotatedAtoms>
  152.1310  134.9135  160.0558 H   0  0  0  0  0  0  0  0  0  0  0  0  # atno 6907 bound_to 6896
  152.0239  133.3905  159.4277 H   0  0  0  0  0  0  0  0  0  0  0  0  # atno 6908 bound_to 6896
  150.6856  134.3517  159.4955 H   0  0  0  0  0  0  0  0  0  0  0  0  # atno 6909 bound_to 6896
  145.3619  140.9493  143.2496 H   0  0  0  0  0  0  0  0  0  0  0  0  # atno 7974 bound_to 7965
  156.2547  140.1975  156.6599 H   0  0  0  0  0  0  0  0  0  0  0  0  # atno 8008 bound_to 7997
  154.6472  140.0576  156.9940 H   0  0  0  0  0  0  0  0  0  0  0  0  # atno 8009 bound_to 7997
  155.1472  140.3248  155.4442 H   0  0  0  0  0  0  0  0  0  0  0  0  # atno 8010 bound_to 7997
  139.7760  143.8169  152.2632 H   0  0  0  0  0  0  0  0  0  0  0  0  # atno 10167 bound_to 10162
  157.6622  131.0876  150.6179 H   0  0  0  0  0  0  0  0  0  0  0  0  # atno 10718 bound_to 10713
  154.6012  135.2854  155.0533 H   0  0  0  0  0  0  0  0  0  0  0  0  # atno 10763 bound_to 10752
  154.1798  135.6458  153.5035 H   0  0  0  0  0  0  0  0  0  0  0  0  # atno 10764 bound_to 10752
  153.0157  135.5421  154.6731 H   0  0  0  0  0  0  0  0  0  0  0  0  # atno 10765 bound_to 10752
  140.7932  133.8271  155.9399 H   0  0  0  0  0  0  0  0  0  0  0  0  # atno 11005 bound_to 11000
  144.8640  139.5135  143.6799 LP  0  0  0  0  0  0  0  0  0  0  0  0  # atno 17320 bound_to 7965
  146.2923  139.7176  142.9152 LP  0  0  0  0  0  0  0  0  0  0  0  0  # atno 17321 bound_to 7965
  139.8217  144.7292  150.9564 LP  0  0  0  0  0  0  0  0  0  0  0  0  # atno 17342 bound_to 10162
  140.7816  143.4152  151.0928 LP  0  0  0  0  0  0  0  0  0  0  0  0  # atno 17343 bound_to 10162
  156.6482  130.4477  149.5728 LP  0  0  0  0  0  0  0  0  0  0  0  0  # atno 17370 bound_to 10713
  156.2158  130.6707  151.1317 LP  0  0  0  0  0  0  0  0  0  0  0  0  # atno 17371 bound_to 10713
  140.9369  134.1951  157.4825 LP  0  0  0  0  0  0  0  0  0  0  0  0  # atno 17394 bound_to 11000
  139.8729  134.9856  156.5287 LP  0  0  0  0  0  0  0  0  0  0  0  0  # atno 17395 bound_to 11000

$$$$
