AV-unprocessed.smi:2454|AV-procd|sdf|9695|dock6
  -GOLD-   2272013333D 1   1.00000     0.00000
 Structure written by MMmdl.
 42 43  0  0  0  0  0  0  0  0  1 V2000
  150.7879  140.3985  155.8010 C   0  0  0  0  0  0  0  0  0  0  0  0
  150.9845  139.5499  154.6837 O   0  0  0  0  0  0  0  0  0  0  0  0
  150.2603  138.3326  154.7882 C   0  0  0  0  0  0  0  0  0  0  0  0
  150.3966  137.6734  156.1498 C   0  0  0  0  0  0  0  0  0  0  0  0
  149.2576  137.4200  156.9432 C   0  0  0  0  0  0  0  0  0  0  0  0
  149.4619  136.8111  158.2022 C   0  0  0  0  0  0  0  0  0  0  0  0
  148.2786  136.5656  158.9590 N   0  0  0  0  0  0  0  0  0  0  0  0
  148.0677  136.5309  160.2923 C   0  0  0  0  0  0  0  0  0  0  0  0
  148.9854  136.7262  161.0874 O   0  0  0  0  0  0  0  0  0  0  0  0
  146.8103  136.2669  160.6831 N   0  0  0  0  0  0  0  0  0  0  0  0
  146.3290  136.2051  162.0609 C   0  0  2  0  0  0  0  0  0  0  0  0
  147.1599  135.1867  162.8640 C   0  0  0  0  0  0  0  0  0  0  0  0
  146.8848  133.7397  162.4211 C   0  0  0  0  0  0  0  0  0  0  0  0
  145.3854  133.4097  162.4898 C   0  0  0  0  0  0  0  0  0  0  0  0
  144.5421  134.3999  161.6586 C   0  0  1  0  0  0  0  0  0  0  0  0
  143.0375  134.0644  161.7130 C   0  0  0  0  0  0  0  0  0  0  0  0
  142.5606  134.2167  162.9491 F   0  0  0  0  0  0  0  0  0  0  0  0
  142.3613  134.8645  160.8885 F   0  0  0  0  0  0  0  0  0  0  0  0
  142.8364  132.8047  161.3259 F   0  0  0  0  0  0  0  0  0  0  0  0
  144.8273  135.8506  162.1107 C   0  0  0  0  0  0  0  0  0  0  0  0
  150.7210  136.4913  158.5968 N   0  0  0  0  0  0  0  0  0  0  0  0
  151.7307  136.7742  157.7708 C   0  0  0  0  0  0  0  0  0  0  0  0
  151.6385  137.3481  156.5715 N   0  0  0  0  0  0  0  0  0  0  0  0
  151.3598  141.3167  155.6687 H   0  0  0  0  0  0  0  0  0  0  0  0
  151.1251  139.9218  156.7223 H   0  0  0  0  0  0  0  0  0  0  0  0
  149.7372  140.6697  155.9107 H   0  0  0  0  0  0  0  0  0  0  0  0
  149.2013  138.5169  154.6015 H   0  0  0  0  0  0  0  0  0  0  0  0
  150.6083  137.6309  154.0285 H   0  0  0  0  0  0  0  0  0  0  0  0
  148.2688  137.6844  156.5967 H   0  0  0  0  0  0  0  0  0  0  0  0
  147.4669  136.3409  158.4020 H   0  0  0  0  0  0  0  0  0  0  0  0
  146.1218  136.1172  159.9586 H   0  0  0  0  0  0  0  0  0  0  0  0
  146.4721  137.1864  162.5168 H   0  0  0  0  0  0  0  0  0  0  0  0
  148.2236  135.4099  162.7721 H   0  0  0  0  0  0  0  0  0  0  0  0
  146.9202  135.2861  163.9234 H   0  0  0  0  0  0  0  0  0  0  0  0
  147.2472  133.5875  161.4036 H   0  0  0  0  0  0  0  0  0  0  0  0
  147.4446  133.0482  163.0515 H   0  0  0  0  0  0  0  0  0  0  0  0
  145.2247  132.3911  162.1358 H   0  0  0  0  0  0  0  0  0  0  0  0
  145.0584  133.4289  163.5301 H   0  0  0  0  0  0  0  0  0  0  0  0
  144.8537  134.3057  160.6171 H   0  0  0  0  0  0  0  0  0  0  0  0
  144.4681  135.9856  163.1316 H   0  0  0  0  0  0  0  0  0  0  0  0
  144.2602  136.5543  161.5001 H   0  0  0  0  0  0  0  0  0  0  0  0
  152.7220  136.5107  158.1091 H   0  0  0  0  0  0  0  0  0  0  0  0
  1  2  1  0  0  0  0
  1 24  1  0  0  0  0
  1 25  1  0  0  0  0
  1 26  1  0  0  0  0
  2  3  1  0  0  0  0
  3  4  1  0  0  0  0
  3 27  1  0  0  0  0
  3 28  1  0  0  0  0
  4 23  1  0  0  0  0
  4  5  2  0  0  0  0
  5  6  1  0  0  0  0
  5 29  1  0  0  0  0
  6  7  1  0  0  0  0
  6 21  2  0  0  0  0
  7  8  1  0  0  0  0
  7 30  1  0  0  0  0
  8  9  2  0  0  0  0
  8 10  1  0  0  0  0
 10 11  1  0  0  0  0
 10 31  1  0  0  0  0
 11 20  1  0  0  0  0
 11 12  1  0  0  0  0
 11 32  1  0  0  0  0
 12 13  1  0  0  0  0
 12 33  1  0  0  0  0
 12 34  1  0  0  0  0
 13 14  1  0  0  0  0
 13 35  1  0  0  0  0
 13 36  1  0  0  0  0
 14 15  1  0  0  0  0
 14 37  1  0  0  0  0
 14 38  1  0  0  0  0
 15 16  1  0  0  0  0
 15 20  1  0  0  0  0
 15 39  1  0  0  0  0
 16 17  1  0  0  0  0
 16 18  1  0  0  0  0
 16 19  1  0  0  0  0
 20 40  1  0  0  0  0
 20 41  1  0  0  0  0
 21 22  1  0  0  0  0
 22 23  2  0  0  0  0
 22 42  1  0  0  0  0
M  END
> <s_m_source_file>
AV-unprocessed.smi

> <i_m_source_file_index>
2454

> <i_lp_mmshare_version>
43012

> <i_f3d_flags>
0

> <s_epik_input>
W0NIM11PW0NIMl1jMVtjSF1jKG5bY0hdbjEpW05IXUMoPU8pW05IXVtDQEBIXTJbQ0gyXVtDSDJdW0NIMl1bQ0BASF0oQyhGKShGKUYpW0NIMl0y

> <s_epik_cmdline>
J2VwaWtfcHl0aG9uJywgJy1waCcsICc3LjAnLCAnLXRuJywgJzgnLCAnLW1hJywgJzIwMCcsICctbWV0YWxfYmluZGluZycsICctaW1hZScsICc8aW5maWxlLm1hZT4nLCAnLW9tYWUnLCAnPG91dGZpbGUubWFlPic=

> <r_lp_tautomer_probability>
1

> <r_epik_Ionization_Penalty>
3.01554e-05

> <r_epik_Ionization_Penalty_Charging>
0

> <r_epik_Ionization_Penalty_Neutral>
3.01554e-05

> <r_epik_State_Penalty>
-0

> <r_epik_Charging_Adjusted_Penalty>
0

> <i_epik_Tot_Q>
0

> <i_epik_Tot_abs_Q>
0

> <r_epik_Metal_State_Penalty>
-0

> <b_epik_Metal_Only>
0

> <s_lp_Force_Field>
OPLS_2005

> <r_lp_Energy>
13.8487

> <b_lp_Chiralities_Consistent>
1

> <s_lp_Variant>
AV-unprocessed.smi:2454-1

> <Gold.Version>
5.8.1

> <Gold.Id.Protein>
6NUR|6NUR_protein|mol2

> <Gold.PLP.Fitness>
43.3714

> <Gold.PLP.PLP>
-34.9196

> <Gold.PLP.part.hbond>
-2.8346

> <Gold.PLP.part.metal>
0.0000

> <Gold.PLP.part.buried>
-5.8299

> <Gold.PLP.part.nonpolar>
-27.9275

> <Gold.PLP.part.repulsive>
0.3301

> <Gold.PLP.ligand.clash>
0.0000

> <Gold.PLP.ligand.torsion>
0.2754

> <Gold.PLP.Chemscore.Hbond>
2.9920

> <Gold.PLP.Chemscore.CHOScore>
0.0000

> <Gold.PLP.Chemscore.Metal>
0.0000

> <Gold.Chemscore.Hbonds>
donor molecule, donor type, donor heavy atom, donor atom, acceptor molecule, acceptor atom, score
      P1  H  6896  6909       L1    21  0.91
      P1  H  6931  6943       L1     9  1.00
      P1  H  7989  7998       L1     2  0.90

> <Gold.PLP.Chemscore.Internal.Correction>
0.0266

> <Gold.Rescore>
     Score         DG    S(hbond)    S(metal)    S(lipo)     H(rot)  DE(clash)    DE(int)     intcor
     16.02     -18.05       2.78        0.00      63.03       1.60       0.04       1.98       ----

> <Gold.Chemscore.Fitness>
16.0201

> <Gold.Chemscore.DG>
-18.0479

> <Gold.Chemscore.ZeroCoef>
-5.4800

> <Gold.Chemscore.Hbond>
2.7839

> <Gold.Chemscore.Metal>
0.0000

> <Gold.Chemscore.Lipo>
63.0320

> <Gold.Chemscore.Internal_Hbond>
0.0000

> <Gold.Chemscore.DEClash>
0.0439

> <Gold.Chemscore.DEInternal>
1.9839

> <Gold.Chemscore.Rot>
1.6035

> <Gold.Chemscore.Internal.Correction>
   9.000000E+99

> <Gold.Chemscore.Hbonds>
donor molecule, donor type, donor heavy atom, donor atom, acceptor molecule, acceptor atom, score
      P1  H  6896  6909       L1    21  0.80
      P1  H  6931  6943       L1     9  0.92
      P1  H  7989  7998       L1     2  0.18

> <Gold.Chemscore.Hbond.Weighted>
-9.2982

> <Gold.Chemscore.Metal.Weighted>
-0.0000

> <Gold.Chemscore.Lipo.Weighted>
-7.3747

> <Gold.Chemscore.Internal_Hbond.Weighted>
0.0000

> <Gold.Chemscore.DEClash.Weighted>
0.0439

> <Gold.Chemscore.DEInternal.Weighted>
1.9839

> <Gold.Chemscore.Rot.Weighted>
4.1050

> <Gold.Chemscore.Internal.Correction.Weighted>
   9.000000E+99

> <Gold.Protein.RotatedTorsions>
[ 6907 6896 6895 6894 ] final   85.83 input  -60.11 | X-H torsion
[ 7974 7965 7964 7962 ] final  -20.48 input  175.53 | X-H torsion
[ 8008 7997 7996 7995 ] final -148.33 input   59.86 | X-H torsion
[ 10167 10162 10161 10158 ] final  124.92 input  -65.29 | X-H torsion
[ 10718 10713 10712 10709 ] final -102.90 input   66.30 | X-H torsion
[ 10763 10752 10751 10750 ] final  130.71 input  -60.55 | X-H torsion
[ 11005 11000 10999 10996 ] final  -94.25 input  -57.11 | X-H torsion

> <Gold.Protein.ActiveResidues>
 VAL166  LYS551  ARG553  GLY616  TRP617  ASP618  TYR619  PRO620  LYS621  CYS622 
 ASP623  PHE694  ASN695  SER759  ASP760  ASP761  ALA762  ILE779  LEU786  VAL792 
 PHE793  MET794  SER795  GLU796  ALA797  LYS798  CYS799  TRP800  GLU811  SER814 

> <Gold.Protein.RotatedAtoms>
  152.5382  134.2526  159.8904 H   0  0  0  0  0  0  0  0  0  0  0  0  # atno 6907 bound_to 6896
  151.2489  133.4354  159.2618 H   0  0  0  0  0  0  0  0  0  0  0  0  # atno 6908 bound_to 6896
  151.0558  134.9717  159.8291 H   0  0  0  0  0  0  0  0  0  0  0  0  # atno 6909 bound_to 6896
  146.1786  140.4208  142.8504 H   0  0  0  0  0  0  0  0  0  0  0  0  # atno 7974 bound_to 7965
  155.5899  140.0651  157.2761 H   0  0  0  0  0  0  0  0  0  0  0  0  # atno 8008 bound_to 7997
  154.4308  140.1837  156.1110 H   0  0  0  0  0  0  0  0  0  0  0  0  # atno 8009 bound_to 7997
  156.0241  140.3313  155.7073 H   0  0  0  0  0  0  0  0  0  0  0  0  # atno 8010 bound_to 7997
  139.5714  144.6941  151.3767 H   0  0  0  0  0  0  0  0  0  0  0  0  # atno 10167 bound_to 10162
  156.0245  130.5442  150.7175 H   0  0  0  0  0  0  0  0  0  0  0  0  # atno 10718 bound_to 10713
  153.7624  135.3194  155.3339 H   0  0  0  0  0  0  0  0  0  0  0  0  # atno 10763 bound_to 10752
  154.8225  135.4593  154.0824 H   0  0  0  0  0  0  0  0  0  0  0  0  # atno 10764 bound_to 10752
  153.2059  135.6929  153.8257 H   0  0  0  0  0  0  0  0  0  0  0  0  # atno 10765 bound_to 10752
  141.1475  133.7943  157.0272 H   0  0  0  0  0  0  0  0  0  0  0  0  # atno 11005 bound_to 11000
  144.8276  140.6655  143.6312 LP  0  0  0  0  0  0  0  0  0  0  0  0  # atno 17320 bound_to 7965
  145.4142  139.1575  143.4109 LP  0  0  0  0  0  0  0  0  0  0  0  0  # atno 17321 bound_to 7965
  140.6999  143.7658  150.7385 LP  0  0  0  0  0  0  0  0  0  0  0  0  # atno 17342 bound_to 10162
  140.1165  143.4651  152.2338 LP  0  0  0  0  0  0  0  0  0  0  0  0  # atno 17343 bound_to 10162
  157.4798  131.0901  151.0549 LP  0  0  0  0  0  0  0  0  0  0  0  0  # atno 17370 bound_to 10713
  157.0985  130.5972  149.5455 LP  0  0  0  0  0  0  0  0  0  0  0  0  # atno 17371 bound_to 10713
  140.0778  134.9666  157.1574 LP  0  0  0  0  0  0  0  0  0  0  0  0  # atno 17394 bound_to 11000
  140.3620  134.2484  155.7186 LP  0  0  0  0  0  0  0  0  0  0  0  0  # atno 17395 bound_to 11000

$$$$
