AV-unprocessed.smi:4|AV-procd|sdf|34|dock1
  -GOLD-   2262015143D 1   1.00000     0.00000
 Structure written by MMmdl.
 43 44  0  0  0  0  0  0  0  0  1 V2000
  141.1440  137.3786  155.5189 C   0  0  0  0  0  0  0  0  0  0  0  0
  141.2540  137.4092  153.9721 C   0  0  0  0  0  0  0  0  0  0  0  0
  139.8345  137.0587  153.4537 C   0  0  0  0  0  0  0  0  0  0  0  0
  141.6262  138.8702  153.6115 C   0  0  0  0  0  0  0  0  0  0  0  0
  142.2643  136.4614  153.4557 N   0  0  0  0  0  0  0  0  0  0  0  0
  143.3929  136.8439  152.7252 C   0  0  0  0  0  0  0  0  0  0  0  0
  144.3323  135.9883  152.2471 C   0  0  0  0  0  0  0  0  0  0  0  0
  145.5198  136.4742  151.4273 C   0  0  0  0  0  0  0  0  0  0  0  0
  146.5032  137.1570  152.2636 N   0  0  0  0  0  0  0  0  0  0  0  0
  146.5379  138.6006  152.0447 C   0  0  0  0  0  0  0  0  0  0  0  0
  147.2949  139.3181  153.1658 C   0  0  0  0  0  0  0  0  0  0  0  0
  148.6197  138.8275  153.0973 O   0  0  0  0  0  0  0  0  0  0  0  0
  147.2097  140.8551  153.1941 C   0  0  0  0  0  0  0  0  0  0  0  0
  147.0759  140.8016  154.7166 C   0  0  0  0  0  0  0  0  0  0  0  0
  146.6750  139.3328  154.5760 C   0  0  0  0  0  0  0  0  0  0  0  0
  144.1768  134.5513  152.4745 C   0  0  0  0  0  0  0  0  0  0  0  0
  144.9467  133.6763  152.0817 O   0  0  0  0  0  0  0  0  0  0  0  0
  143.0434  134.1946  153.2015 N   0  0  0  0  0  0  0  0  0  0  0  0
  142.0825  135.0702  153.7019 C   0  0  0  0  0  0  0  0  0  0  0  0
  141.1334  134.5933  154.3218 O   0  0  0  0  0  0  0  0  0  0  0  0
  142.9054  133.2108  153.3811 H   0  0  0  0  0  0  0  0  0  0  0  0
  140.3868  138.0776  155.8764 H   0  0  0  0  0  0  0  0  0  0  0  0
  142.0787  137.6676  156.0015 H   0  0  0  0  0  0  0  0  0  0  0  0
  140.8532  136.3939  155.8878 H   0  0  0  0  0  0  0  0  0  0  0  0
  139.5929  136.0122  153.6440 H   0  0  0  0  0  0  0  0  0  0  0  0
  139.7016  137.2395  152.3888 H   0  0  0  0  0  0  0  0  0  0  0  0
  139.0741  137.6612  153.9520 H   0  0  0  0  0  0  0  0  0  0  0  0
  140.9583  139.5786  154.1027 H   0  0  0  0  0  0  0  0  0  0  0  0
  141.5591  139.0852  152.5466 H   0  0  0  0  0  0  0  0  0  0  0  0
  142.6411  139.1079  153.9325 H   0  0  0  0  0  0  0  0  0  0  0  0
  143.5745  137.8816  152.5009 H   0  0  0  0  0  0  0  0  0  0  0  0
  145.9759  135.6197  150.9260 H   0  0  0  0  0  0  0  0  0  0  0  0
  145.1714  137.1446  150.6408 H   0  0  0  0  0  0  0  0  0  0  0  0
  147.4259  136.7787  152.0715 H   0  0  0  0  0  0  0  0  0  0  0  0
  146.9906  138.8240  151.0773 H   0  0  0  0  0  0  0  0  0  0  0  0
  145.5152  138.9754  151.9886 H   0  0  0  0  0  0  0  0  0  0  0  0
  149.0945  139.3964  152.5109 H   0  0  0  0  0  0  0  0  0  0  0  0
  148.1035  141.3718  152.8423 H   0  0  0  0  0  0  0  0  0  0  0  0
  146.3125  141.2433  152.7094 H   0  0  0  0  0  0  0  0  0  0  0  0
  148.0301  140.9308  155.2294 H   0  0  0  0  0  0  0  0  0  0  0  0
  146.3009  141.4477  155.1299 H   0  0  0  0  0  0  0  0  0  0  0  0
  145.5926  139.1933  154.5657 H   0  0  0  0  0  0  0  0  0  0  0  0
  147.1542  138.6662  155.2938 H   0  0  0  0  0  0  0  0  0  0  0  0
  1  2  1  0  0  0  0
  1 22  1  0  0  0  0
  1 23  1  0  0  0  0
  1 24  1  0  0  0  0
  2  3  1  0  0  0  0
  2  4  1  0  0  0  0
  2  5  1  0  0  0  0
  3 25  1  0  0  0  0
  3 26  1  0  0  0  0
  3 27  1  0  0  0  0
  4 28  1  0  0  0  0
  4 29  1  0  0  0  0
  4 30  1  0  0  0  0
  5 19  1  0  0  0  0
  5  6  1  0  0  0  0
  6  7  2  0  0  0  0
  6 31  1  0  0  0  0
  7  8  1  0  0  0  0
  7 16  1  0  0  0  0
  8  9  1  0  0  0  0
  8 32  1  0  0  0  0
  8 33  1  0  0  0  0
  9 10  1  0  0  0  0
  9 34  1  0  0  0  0
 10 11  1  0  0  0  0
 10 35  1  0  0  0  0
 10 36  1  0  0  0  0
 11 15  1  0  0  0  0
 11 12  1  0  0  0  0
 11 13  1  0  0  0  0
 12 37  1  0  0  0  0
 13 14  1  0  0  0  0
 13 38  1  0  0  0  0
 13 39  1  0  0  0  0
 14 15  1  0  0  0  0
 14 40  1  0  0  0  0
 14 41  1  0  0  0  0
 15 42  1  0  0  0  0
 15 43  1  0  0  0  0
 16 17  2  0  0  0  0
 16 18  1  0  0  0  0
 18 21  1  0  0  0  0
 18 19  1  0  0  0  0
 19 20  2  0  0  0  0
M  END
> <s_m_source_file>
AV-unprocessed.smi

> <i_m_source_file_index>
4

> <i_lp_mmshare_version>
43012

> <i_f3d_flags>
0

> <s_epik_input>
W0NIM11DKFtDSDNdKShbQ0gzXSluMVtjSF1jKGMoPU8pW25IXWMxPU8pW0NIMl1bTkhdW0NIMl1DMihbT0hdKVtDSDJdW0NIMl1bQ0gyXTI=

> <s_epik_cmdline>
J2VwaWtfcHl0aG9uJywgJy1waCcsICc3LjAnLCAnLXRuJywgJzgnLCAnLW1hJywgJzIwMCcsICctbWV0YWxfYmluZGluZycsICctaW1hZScsICc8aW5maWxlLm1hZT4nLCAnLW9tYWUnLCAnPG91dGZpbGUubWFlPic=

> <r_lp_tautomer_probability>
0.999537

> <r_epik_Ionization_Penalty>
2.11381

> <r_epik_Ionization_Penalty_Charging>
0.000786845

> <r_epik_Ionization_Penalty_Neutral>
2.11303

> <r_epik_State_Penalty>
2.25008

> <r_epik_Charging_Adjusted_Penalty>
2.25087

> <i_epik_Tot_Q>
0

> <i_epik_Tot_abs_Q>
0

> <r_epik_Metal_State_Penalty>
2.75188

> <b_epik_Metal_Only>
0

> <s_lp_Force_Field>
OPLS_2005

> <r_lp_Energy>
31.2144

> <b_lp_Chiralities_Consistent>
1

> <s_lp_Variant>
AV-unprocessed.smi:4-2

> <Gold.Version>
5.8.1

> <Gold.Id.Protein>
6NUR|6NUR_protein|mol2

> <Gold.PLP.Fitness>
49.1668

> <Gold.PLP.PLP>
-33.5807

> <Gold.PLP.part.hbond>
-5.6759

> <Gold.PLP.part.metal>
0.0000

> <Gold.PLP.part.buried>
-0.4684

> <Gold.PLP.part.nonpolar>
-26.8685

> <Gold.PLP.part.repulsive>
0.2547

> <Gold.PLP.ligand.clash>
0.0000

> <Gold.PLP.ligand.torsion>
0.5876

> <Gold.PLP.Chemscore.Hbond>
3.9750

> <Gold.PLP.Chemscore.CHOScore>
1.5622

> <Gold.PLP.Chemscore.Metal>
0.0000

> <Gold.Chemscore.Hbonds>
donor molecule, donor type, donor heavy atom, donor atom, acceptor molecule, acceptor atom, score
      L1  H     9    34       P1  7948  1.00
      L1  H    12    37       P1  7957  1.00
      L1  H    18    21       P1 10957  0.94
      P1  H 11000 11005       L1    20  1.00
      L1  C     6    31       P1 10171  0.28
      L1  C     6    31       P1 10175  0.95

> <Gold.PLP.Chemscore.Internal.Correction>
0.1496

> <Gold.Rescore>
     Score         DG    S(hbond)    S(metal)    S(lipo)     H(rot)  DE(clash)    DE(int)     intcor
     16.58     -20.24       3.93        0.00      67.71       2.46       1.52       2.14       ----

> <Gold.Chemscore.Fitness>
16.5755

> <Gold.Chemscore.DG>
-20.2395

> <Gold.Chemscore.ZeroCoef>
-5.4800

> <Gold.Chemscore.Hbond>
3.9336

> <Gold.Chemscore.Metal>
0.0000

> <Gold.Chemscore.Lipo>
67.7076

> <Gold.Chemscore.Internal_Hbond>
0.0000

> <Gold.Chemscore.DEClash>
1.5242

> <Gold.Chemscore.DEInternal>
2.1398

> <Gold.Chemscore.Rot>
2.4612

> <Gold.Chemscore.Internal.Correction>
   9.000000E+99

> <Gold.Chemscore.Hbonds>
donor molecule, donor type, donor heavy atom, donor atom, acceptor molecule, acceptor atom, score
      L1  H     9    34       P1  7948  0.99
      L1  H    12    37       P1  7957  0.97
      L1  H    18    21       P1 10957  0.80
      P1  H 11000 11005       L1    20  0.97

> <Gold.Chemscore.Hbond.Weighted>
-13.1383

> <Gold.Chemscore.Metal.Weighted>
-0.0000

> <Gold.Chemscore.Lipo.Weighted>
-7.9218

> <Gold.Chemscore.Internal_Hbond.Weighted>
0.0000

> <Gold.Chemscore.DEClash.Weighted>
1.5242

> <Gold.Chemscore.DEInternal.Weighted>
2.1398

> <Gold.Chemscore.Rot.Weighted>
6.3006

> <Gold.Chemscore.Internal.Correction.Weighted>
   9.000000E+99

> <Gold.Protein.RotatedTorsions>
[ 6907 6896 6895 6894 ] final   92.35 input  -60.11 | X-H torsion
[ 7974 7965 7964 7962 ] final  -86.79 input  175.53 | X-H torsion
[ 8008 7997 7996 7995 ] final  -92.00 input   59.86 | X-H torsion
[ 10167 10162 10161 10158 ] final   30.11 input  -65.29 | X-H torsion
[ 10718 10713 10712 10709 ] final  -78.65 input   66.30 | X-H torsion
[ 10763 10752 10751 10750 ] final -131.50 input  -60.55 | X-H torsion
[ 11005 11000 10999 10996 ] final   21.81 input  -57.11 | X-H torsion

> <Gold.Protein.ActiveResidues>
 VAL166  LYS551  ARG553  GLY616  TRP617  ASP618  TYR619  PRO620  LYS621  CYS622 
 ASP623  PHE694  ASN695  SER759  ASP760  ASP761  ALA762  ILE779  LEU786  VAL792 
 PHE793  MET794  SER795  GLU796  ALA797  LYS798  CYS799  TRP800  GLU811  SER814 

> <Gold.Protein.RotatedAtoms>
  152.5452  134.1516  159.8520 H   0  0  0  0  0  0  0  0  0  0  0  0  # atno 6907 bound_to 6896
  151.1543  133.4880  159.2602 H   0  0  0  0  0  0  0  0  0  0  0  0  # atno 6908 bound_to 6896
  151.1440  135.0204  159.8693 H   0  0  0  0  0  0  0  0  0  0  0  0  # atno 6909 bound_to 6896
  145.4751  140.9558  143.1895 H   0  0  0  0  0  0  0  0  0  0  0  0  # atno 7974 bound_to 7965
  154.7177  140.0513  157.0610 H   0  0  0  0  0  0  0  0  0  0  0  0  # atno 8008 bound_to 7997
  155.0469  140.3175  155.4686 H   0  0  0  0  0  0  0  0  0  0  0  0  # atno 8009 bound_to 7997
  156.2807  140.2123  156.5594 H   0  0  0  0  0  0  0  0  0  0  0  0  # atno 8010 bound_to 7997
  140.4707  144.0767  150.6236 H   0  0  0  0  0  0  0  0  0  0  0  0  # atno 10167 bound_to 10162
  156.0112  130.4524  150.3529 H   0  0  0  0  0  0  0  0  0  0  0  0  # atno 10718 bound_to 10713
  154.8750  135.3828  154.4257 H   0  0  0  0  0  0  0  0  0  0  0  0  # atno 10763 bound_to 10752
  153.4956  135.7030  153.5865 H   0  0  0  0  0  0  0  0  0  0  0  0  # atno 10764 bound_to 10752
  153.4219  135.3899  155.2083 H   0  0  0  0  0  0  0  0  0  0  0  0  # atno 10765 bound_to 10752
  140.3875  134.1854  155.7663 H   0  0  0  0  0  0  0  0  0  0  0  0  # atno 11005 bound_to 11000
  144.7922  139.6306  143.7108 LP  0  0  0  0  0  0  0  0  0  0  0  0  # atno 17320 bound_to 7965
  146.2374  139.5932  142.9515 LP  0  0  0  0  0  0  0  0  0  0  0  0  # atno 17321 bound_to 7965
  140.3981  143.2718  151.9981 LP  0  0  0  0  0  0  0  0  0  0  0  0  # atno 17342 bound_to 10162
  139.4818  144.6021  151.7587 LP  0  0  0  0  0  0  0  0  0  0  0  0  # atno 17343 bound_to 10162
  157.1620  131.0347  151.2836 LP  0  0  0  0  0  0  0  0  0  0  0  0  # atno 17370 bound_to 10713
  157.4302  130.7486  149.6984 LP  0  0  0  0  0  0  0  0  0  0  0  0  # atno 17371 bound_to 10713
  141.1902  133.8221  157.0926 LP  0  0  0  0  0  0  0  0  0  0  0  0  # atno 17394 bound_to 11000
  140.0432  134.9844  157.1000 LP  0  0  0  0  0  0  0  0  0  0  0  0  # atno 17395 bound_to 11000

$$$$
