AV-unprocessed.smi:467|AV-procd|sdf|2644|dock2
  -GOLD-   2262023 53D 1   1.00000     0.00000
 Structure written by MMmdl.
 44 46  0  0  0  0  0  0  0  0  1 V2000
  152.9990  142.9864  161.8133 C   0  0  0  0  0  0  0  0  0  0  0  0
  152.4786  142.6216  160.4342 C   0  0  0  0  0  0  0  0  0  0  0  0
  152.9155  141.4211  159.8298 C   0  0  0  0  0  0  0  0  0  0  0  0
  152.4501  141.0428  158.5513 C   0  0  0  0  0  0  0  0  0  0  0  0
  152.7357  139.9255  157.7849 N   0  0  0  0  0  0  0  0  0  0  0  0
  151.9950  140.1469  156.7026 C   0  0  0  0  0  0  0  0  0  0  0  0
  151.2640  141.2777  156.6759 N   0  0  0  0  0  0  0  0  0  0  0  0
  150.3873  141.7255  155.6081 C   0  0  0  0  0  0  0  0  0  0  0  0
  148.9294  141.2691  155.8086 C   0  0  1  0  0  0  0  0  0  0  0  0
  148.0544  142.2671  155.3202 O   0  0  0  0  0  0  0  0  0  0  0  0
  148.6394  139.9576  155.0519 C   0  0  0  0  0  0  0  0  0  0  0  0
  149.6148  138.8838  155.2506 N   0  0  0  0  0  0  0  0  0  0  0  0
  150.7101  138.9229  154.2827 C   0  0  0  0  0  0  0  0  0  0  0  0
  151.7049  137.7680  154.4950 C   0  0  0  0  0  0  0  0  0  0  0  0
  151.0161  136.5237  154.4329 O   0  0  0  0  0  0  0  0  0  0  0  0
  149.9705  136.4278  155.3943 C   0  0  0  0  0  0  0  0  0  0  0  0
  148.9700  137.5765  155.1807 C   0  0  0  0  0  0  0  0  0  0  0  0
  151.5330  141.9081  157.8861 C   0  0  0  0  0  0  0  0  0  0  0  0
  151.0933  143.1062  158.4759 C   0  0  0  0  0  0  0  0  0  0  0  0
  151.5630  143.4662  159.7563 C   0  0  0  0  0  0  0  0  0  0  0  0
  151.0724  144.7563  160.3889 C   0  0  0  0  0  0  0  0  0  0  0  0
  153.7326  142.2615  162.1671 H   0  0  0  0  0  0  0  0  0  0  0  0
  152.1809  143.0146  162.5334 H   0  0  0  0  0  0  0  0  0  0  0  0
  153.4792  143.9648  161.7960 H   0  0  0  0  0  0  0  0  0  0  0  0
  153.6114  140.7766  160.3463 H   0  0  0  0  0  0  0  0  0  0  0  0
  151.9821  139.4463  155.8805 H   0  0  0  0  0  0  0  0  0  0  0  0
  150.4446  142.8129  155.5421 H   0  0  0  0  0  0  0  0  0  0  0  0
  150.7750  141.3370  154.6653 H   0  0  0  0  0  0  0  0  0  0  0  0
  148.7530  141.1465  156.8765 H   0  0  0  0  0  0  0  0  0  0  0  0
  148.3876  143.1103  155.5876 H   0  0  0  0  0  0  0  0  0  0  0  0
  147.6526  139.6062  155.3576 H   0  0  0  0  0  0  0  0  0  0  0  0
  148.5582  140.1704  153.9847 H   0  0  0  0  0  0  0  0  0  0  0  0
  150.3104  138.8728  153.2688 H   0  0  0  0  0  0  0  0  0  0  0  0
  151.2546  139.8629  154.3586 H   0  0  0  0  0  0  0  0  0  0  0  0
  152.4776  137.7868  153.7265 H   0  0  0  0  0  0  0  0  0  0  0  0
  152.2084  137.8649  155.4584 H   0  0  0  0  0  0  0  0  0  0  0  0
  149.4717  135.4649  155.2849 H   0  0  0  0  0  0  0  0  0  0  0  0
  150.3879  136.4611  156.4020 H   0  0  0  0  0  0  0  0  0  0  0  0
  148.1834  137.5107  155.9335 H   0  0  0  0  0  0  0  0  0  0  0  0
  148.4842  137.4545  154.2111 H   0  0  0  0  0  0  0  0  0  0  0  0
  150.3939  143.7381  157.9485 H   0  0  0  0  0  0  0  0  0  0  0  0
  150.3590  145.2693  159.7433 H   0  0  0  0  0  0  0  0  0  0  0  0
  151.9063  145.4341  160.5722 H   0  0  0  0  0  0  0  0  0  0  0  0
  150.5760  144.5514  161.3378 H   0  0  0  0  0  0  0  0  0  0  0  0
  1  2  1  0  0  0  0
  1 22  1  0  0  0  0
  1 23  1  0  0  0  0
  1 24  1  0  0  0  0
  2 20  1  0  0  0  0
  2  3  2  0  0  0  0
  3  4  1  0  0  0  0
  3 25  1  0  0  0  0
  4 18  2  0  0  0  0
  4  5  1  0  0  0  0
  5  6  2  0  0  0  0
  6  7  1  0  0  0  0
  6 26  1  0  0  0  0
  7  8  1  0  0  0  0
  7 18  1  0  0  0  0
  8  9  1  0  0  0  0
  8 27  1  0  0  0  0
  8 28  1  0  0  0  0
  9 10  1  0  0  0  0
  9 11  1  0  0  0  0
  9 29  1  0  0  0  0
 10 30  1  0  0  0  0
 11 12  1  0  0  0  0
 11 31  1  0  0  0  0
 11 32  1  0  0  0  0
 12 17  1  0  0  0  0
 12 13  1  0  0  0  0
 13 14  1  0  0  0  0
 13 33  1  0  0  0  0
 13 34  1  0  0  0  0
 14 15  1  0  0  0  0
 14 35  1  0  0  0  0
 14 36  1  0  0  0  0
 15 16  1  0  0  0  0
 16 17  1  0  0  0  0
 16 37  1  0  0  0  0
 16 38  1  0  0  0  0
 17 39  1  0  0  0  0
 17 40  1  0  0  0  0
 18 19  1  0  0  0  0
 19 20  2  0  0  0  0
 19 41  1  0  0  0  0
 20 21  1  0  0  0  0
 21 42  1  0  0  0  0
 21 43  1  0  0  0  0
 21 44  1  0  0  0  0
M  END
> <s_m_source_file>
AV-unprocessed.smi

> <i_m_source_file_index>
467

> <i_lp_mmshare_version>
43012

> <i_f3d_flags>
0

> <s_epik_input>
W0NIM11jKFtjSF0xKWMoW0NIM10pW2NIXWMoYzEyKW4oW2NIXW4yKVtDSDJdW0NASF0oW09IXSlbQ0gyXU4zW0NIMl1bQ0gyXU9bQ0gyXVtDSDJdMw==

> <s_epik_cmdline>
J2VwaWtfcHl0aG9uJywgJy1waCcsICc3LjAnLCAnLXRuJywgJzgnLCAnLW1hJywgJzIwMCcsICctbWV0YWxfYmluZGluZycsICctaW1hZScsICc8aW5maWxlLm1hZT4nLCAnLW9tYWUnLCAnPG91dGZpbGUubWFlPic=

> <r_epik_Ionization_Penalty>
0.345029

> <r_epik_Ionization_Penalty_Charging>
0

> <r_epik_Ionization_Penalty_Neutral>
0.345029

> <r_epik_State_Penalty>
0.314465

> <r_epik_Charging_Adjusted_Penalty>
0.314465

> <i_epik_Tot_Q>
0

> <i_epik_Tot_abs_Q>
0

> <r_epik_Metal_State_Penalty>
0.239717

> <b_epik_Metal_Only>
0

> <s_lp_Force_Field>
OPLS_2005

> <r_lp_Energy>
29.8688

> <b_lp_Chiralities_Consistent>
1

> <s_lp_Variant>
AV-unprocessed.smi:467-2

> <Gold.Version>
5.8.1

> <Gold.Id.Protein>
6NUR|6NUR_protein|mol2

> <Gold.PLP.Fitness>
45.2483

> <Gold.PLP.PLP>
-41.7566

> <Gold.PLP.part.hbond>
-2.6514

> <Gold.PLP.part.metal>
0.0000

> <Gold.PLP.part.buried>
-6.4124

> <Gold.PLP.part.nonpolar>
-32.7566

> <Gold.PLP.part.repulsive>
1.2086

> <Gold.PLP.ligand.clash>
0.0000

> <Gold.PLP.ligand.torsion>
1.2859

> <Gold.PLP.Chemscore.Hbond>
2.0000

> <Gold.PLP.Chemscore.CHOScore>
0.0000

> <Gold.PLP.Chemscore.Metal>
0.0000

> <Gold.Chemscore.Hbonds>
donor molecule, donor type, donor heavy atom, donor atom, acceptor molecule, acceptor atom, score
      L1  H    10    30       P1  8028  1.00
      P1  H  7997  8008       L1     5  1.00

> <Gold.PLP.Chemscore.Internal.Correction>
0.0636

> <Gold.Rescore>
     Score         DG    S(hbond)    S(metal)    S(lipo)     H(rot)  DE(clash)    DE(int)     intcor
     17.19     -18.76       1.41        0.00     117.54       2.02       0.22       1.35       ----

> <Gold.Chemscore.Fitness>
17.1865

> <Gold.Chemscore.DG>
-18.7622

> <Gold.Chemscore.ZeroCoef>
-5.4800

> <Gold.Chemscore.Hbond>
1.4095

> <Gold.Chemscore.Metal>
0.0000

> <Gold.Chemscore.Lipo>
117.5431

> <Gold.Chemscore.Internal_Hbond>
0.0000

> <Gold.Chemscore.DEClash>
0.2209

> <Gold.Chemscore.DEInternal>
1.3548

> <Gold.Chemscore.Rot>
2.0227

> <Gold.Chemscore.Internal.Correction>
   9.000000E+99

> <Gold.Chemscore.Hbonds>
donor molecule, donor type, donor heavy atom, donor atom, acceptor molecule, acceptor atom, score
      L1  H    10    30       P1  8028  0.98
      P1  H  7997  8008       L1     5  0.19

> <Gold.Chemscore.Hbond.Weighted>
-4.7076

> <Gold.Chemscore.Metal.Weighted>
-0.0000

> <Gold.Chemscore.Lipo.Weighted>
-13.7525

> <Gold.Chemscore.Internal_Hbond.Weighted>
0.0000

> <Gold.Chemscore.DEClash.Weighted>
0.2209

> <Gold.Chemscore.DEInternal.Weighted>
1.3548

> <Gold.Chemscore.Rot.Weighted>
5.1780

> <Gold.Chemscore.Internal.Correction.Weighted>
   9.000000E+99

> <Gold.Protein.RotatedTorsions>
[ 6907 6896 6895 6894 ] final   39.00 input  -60.11 | X-H torsion
[ 7974 7965 7964 7962 ] final -146.97 input  175.53 | X-H torsion
[ 8008 7997 7996 7995 ] final  -84.40 input   59.86 | X-H torsion
[ 10167 10162 10161 10158 ] final  -97.13 input  -65.29 | X-H torsion
[ 10718 10713 10712 10709 ] final  109.46 input   66.30 | X-H torsion
[ 10763 10752 10751 10750 ] final   -5.79 input  -60.55 | X-H torsion
[ 11005 11000 10999 10996 ] final  -96.78 input  -57.11 | X-H torsion

> <Gold.Protein.ActiveResidues>
 VAL166  LYS551  ARG553  GLY616  TRP617  ASP618  TYR619  PRO620  LYS621  CYS622 
 ASP623  PHE694  ASN695  SER759  ASP760  ASP761  ALA762  ILE779  LEU786  VAL792 
 PHE793  MET794  SER795  GLU796  ALA797  LYS798  CYS799  TRP800  GLU811  SER814 

> <Gold.Protein.RotatedAtoms>
  152.1638  134.8891  160.0539 H   0  0  0  0  0  0  0  0  0  0  0  0  # atno 6907 bound_to 6896
  151.9876  133.3775  159.4140 H   0  0  0  0  0  0  0  0  0  0  0  0  # atno 6908 bound_to 6896
  150.6891  134.3893  159.5113 H   0  0  0  0  0  0  0  0  0  0  0  0  # atno 6909 bound_to 6896
  144.8124  140.5387  143.5633 H   0  0  0  0  0  0  0  0  0  0  0  0  # atno 7974 bound_to 7965
  154.6294  140.0605  156.9714 H   0  0  0  0  0  0  0  0  0  0  0  0  # atno 8008 bound_to 7997
  155.1689  140.3289  155.4378 H   0  0  0  0  0  0  0  0  0  0  0  0  # atno 8009 bound_to 7997
  156.2475  140.1917  156.6793 H   0  0  0  0  0  0  0  0  0  0  0  0  # atno 8010 bound_to 7997
  140.2866  143.3247  152.0387 H   0  0  0  0  0  0  0  0  0  0  0  0  # atno 10167 bound_to 10162
  157.6540  131.0914  150.6457 H   0  0  0  0  0  0  0  0  0  0  0  0  # atno 10718 bound_to 10713
  153.4034  135.7005  153.6410 H   0  0  0  0  0  0  0  0  0  0  0  0  # atno 10763 bound_to 10752
  153.4934  135.3668  155.2504 H   0  0  0  0  0  0  0  0  0  0  0  0  # atno 10764 bound_to 10752
  154.8712  135.4094  154.3373 H   0  0  0  0  0  0  0  0  0  0  0  0  # atno 10765 bound_to 10752
  141.1400  133.8123  157.0618 H   0  0  0  0  0  0  0  0  0  0  0  0  # atno 11005 bound_to 11000
  145.5293  139.1475  143.3508 LP  0  0  0  0  0  0  0  0  0  0  0  0  # atno 17320 bound_to 7965
  146.2424  140.5434  142.8928 LP  0  0  0  0  0  0  0  0  0  0  0  0  # atno 17321 bound_to 7965
  139.4948  144.6554  151.6584 LP  0  0  0  0  0  0  0  0  0  0  0  0  # atno 17342 bound_to 10162
  140.5767  144.0016  150.6245 LP  0  0  0  0  0  0  0  0  0  0  0  0  # atno 17343 bound_to 10162
  156.6765  130.4555  149.5641 LP  0  0  0  0  0  0  0  0  0  0  0  0  # atno 17370 bound_to 10713
  156.1959  130.6589  151.1114 LP  0  0  0  0  0  0  0  0  0  0  0  0  # atno 17371 bound_to 10713
  140.0566  134.9777  157.1232 LP  0  0  0  0  0  0  0  0  0  0  0  0  # atno 17394 bound_to 11000
  140.3910  134.2185  155.7166 LP  0  0  0  0  0  0  0  0  0  0  0  0  # atno 17395 bound_to 11000

$$$$
