AV-unprocessed.smi:2314|AV-procd|sdf|9267|dock2
  -GOLD-   2272012493D 1   1.00000     0.00000
 Structure written by MMmdl.
 37 38  0  0  0  0  0  0  0  0  1 V2000
  152.4632  143.7067  162.2403 C   0  0  0  0  0  0  0  0  0  0  0  0
  152.4711  142.6265  161.1437 C   0  0  0  0  0  0  0  0  0  0  0  0
  153.6998  141.7101  161.2524 C   0  0  0  0  0  0  0  0  0  0  0  0
  152.3750  143.1913  159.7901 N   0  0  0  0  0  0  0  0  0  0  0  0
  152.1881  144.6131  159.5491 C   0  0  0  0  0  0  0  0  0  0  0  0
  152.3974  144.7884  158.0418 C   0  0  0  0  0  0  0  0  0  0  0  0
  152.3083  143.3864  157.4175 C   0  0  2  0  0  0  0  0  0  0  0  0
  151.0021  143.2044  156.7883 N   0  0  0  0  0  0  0  0  0  0  0  0
  150.5892  142.0868  156.1731 C   0  0  0  0  0  0  0  0  0  0  0  0
  151.2946  141.0891  156.0240 O   0  0  0  0  0  0  0  0  0  0  0  0
  149.3269  142.2096  155.7310 N   0  0  0  0  0  0  0  0  0  0  0  0
  148.5618  141.2285  155.0497 C   0  0  0  0  0  0  0  0  0  0  0  0
  149.2442  140.1510  154.4479 C   0  0  0  0  0  0  0  0  0  0  0  0
  148.4969  139.1824  153.7484 C   0  0  0  0  0  0  0  0  0  0  0  0
  147.1554  139.2379  153.6094 N   0  0  0  0  0  0  0  0  0  0  0  0
  146.5075  140.2847  154.1640 C   0  0  0  0  0  0  0  0  0  0  0  0
  147.1572  141.3088  154.8828 C   0  0  0  0  0  0  0  0  0  0  0  0
  146.4382  142.3512  155.3644 F   0  0  0  0  0  0  0  0  0  0  0  0
  152.4202  142.4895  158.6492 C   0  0  0  0  0  0  0  0  0  0  0  0
  152.5541  141.2690  158.5640 O   0  0  0  0  0  0  0  0  0  0  0  0
  152.4457  143.2514  163.2310 H   0  0  0  0  0  0  0  0  0  0  0  0
  151.5819  144.3435  162.1600 H   0  0  0  0  0  0  0  0  0  0  0  0
  153.3468  144.3436  162.1917 H   0  0  0  0  0  0  0  0  0  0  0  0
  151.5856  142.0109  161.3118 H   0  0  0  0  0  0  0  0  0  0  0  0
  153.7602  141.2511  162.2395 H   0  0  0  0  0  0  0  0  0  0  0  0
  154.6236  142.2649  161.0861 H   0  0  0  0  0  0  0  0  0  0  0  0
  153.6586  140.9038  160.5190 H   0  0  0  0  0  0  0  0  0  0  0  0
  151.1744  144.9019  159.8305 H   0  0  0  0  0  0  0  0  0  0  0  0
  152.8919  145.2153  160.1252 H   0  0  0  0  0  0  0  0  0  0  0  0
  151.6896  145.4981  157.6108 H   0  0  0  0  0  0  0  0  0  0  0  0
  153.3950  145.1931  157.8647 H   0  0  0  0  0  0  0  0  0  0  0  0
  153.1277  143.2080  156.7189 H   0  0  0  0  0  0  0  0  0  0  0  0
  150.3556  143.9767  156.8563 H   0  0  0  0  0  0  0  0  0  0  0  0
  148.9084  143.1252  155.8024 H   0  0  0  0  0  0  0  0  0  0  0  0
  150.3175  140.0590  154.5265 H   0  0  0  0  0  0  0  0  0  0  0  0
  148.9912  138.3414  153.2854 H   0  0  0  0  0  0  0  0  0  0  0  0
  145.4380  140.3155  154.0178 H   0  0  0  0  0  0  0  0  0  0  0  0
  1  2  1  0  0  0  0
  1 21  1  0  0  0  0
  1 22  1  0  0  0  0
  1 23  1  0  0  0  0
  2  3  1  0  0  0  0
  2  4  1  0  0  0  0
  2 24  1  0  0  0  0
  3 25  1  0  0  0  0
  3 26  1  0  0  0  0
  3 27  1  0  0  0  0
  4 19  1  0  0  0  0
  4  5  1  0  0  0  0
  5  6  1  0  0  0  0
  5 28  1  0  0  0  0
  5 29  1  0  0  0  0
  6  7  1  0  0  0  0
  6 30  1  0  0  0  0
  6 31  1  0  0  0  0
  7  8  1  0  0  0  0
  7 19  1  0  0  0  0
  7 32  1  0  0  0  0
  8  9  1  0  0  0  0
  8 33  1  0  0  0  0
  9 10  2  0  0  0  0
  9 11  1  0  0  0  0
 11 12  1  0  0  0  0
 11 34  1  0  0  0  0
 12 17  1  0  0  0  0
 12 13  2  0  0  0  0
 13 14  1  0  0  0  0
 13 35  1  0  0  0  0
 14 15  2  0  0  0  0
 14 36  1  0  0  0  0
 15 16  1  0  0  0  0
 16 17  2  0  0  0  0
 16 37  1  0  0  0  0
 17 18  1  0  0  0  0
 19 20  2  0  0  0  0
M  END
> <s_m_source_file>
AV-unprocessed.smi

> <i_m_source_file_index>
2314

> <i_lp_mmshare_version>
43012

> <i_f3d_flags>
0

> <s_epik_input>
W0NIM11bQ0hdKFtDSDNdKU4xW0NIMl1bQ0gyXVtDQEhdKEMxPU8pW05IXUMoPU8pW05IXWMyW2NIXVtjSF1uW2NIXWMyRg==

> <s_epik_cmdline>
J2VwaWtfcHl0aG9uJywgJy1waCcsICc3LjAnLCAnLXRuJywgJzgnLCAnLW1hJywgJzIwMCcsICctbWV0YWxfYmluZGluZycsICctaW1hZScsICc8aW5maWxlLm1hZT4nLCAnLW9tYWUnLCAnPG91dGZpbGUubWFlPic=

> <r_epik_Ionization_Penalty>
0.00267735

> <r_epik_Ionization_Penalty_Charging>
0

> <r_epik_Ionization_Penalty_Neutral>
0.00267735

> <r_epik_State_Penalty>
0.00184148

> <r_epik_Charging_Adjusted_Penalty>
0.00184148

> <i_epik_Tot_Q>
0

> <i_epik_Tot_abs_Q>
0

> <r_epik_Metal_State_Penalty>
-0

> <b_epik_Metal_Only>
0

> <s_lp_Force_Field>
OPLS_2005

> <r_lp_Energy>
28.4638

> <b_lp_Chiralities_Consistent>
1

> <s_lp_Variant>
AV-unprocessed.smi:2314-2

> <Gold.Version>
5.8.1

> <Gold.Id.Protein>
6NUR|6NUR_protein|mol2

> <Gold.PLP.Fitness>
53.8976

> <Gold.PLP.PLP>
-42.8261

> <Gold.PLP.part.hbond>
-2.0806

> <Gold.PLP.part.metal>
0.0000

> <Gold.PLP.part.buried>
-4.0631

> <Gold.PLP.part.nonpolar>
-36.6017

> <Gold.PLP.part.repulsive>
0.3921

> <Gold.PLP.ligand.clash>
0.0000

> <Gold.PLP.ligand.torsion>
0.1932

> <Gold.PLP.Chemscore.Hbond>
1.7200

> <Gold.PLP.Chemscore.CHOScore>
2.0311

> <Gold.PLP.Chemscore.Metal>
0.0000

> <Gold.Chemscore.Hbonds>
donor molecule, donor type, donor heavy atom, donor atom, acceptor molecule, acceptor atom, score
      L1  H     8    33       P1  8028  0.72
      L1  H    11    34       P1  8028  1.00
      L1  C    14    36       P1  7948  1.00
      L1  C    14    36       P1  7957  0.06
      L1  C    16    37       P1 10175  1.00

> <Gold.PLP.Chemscore.Internal.Correction>
0.2047

> <Gold.Rescore>
     Score         DG    S(hbond)    S(metal)    S(lipo)     H(rot)  DE(clash)    DE(int)     intcor
     15.18     -20.01       1.87        0.00      98.55       1.26       1.76       3.07       ----

> <Gold.Chemscore.Fitness>
15.1759

> <Gold.Chemscore.DG>
-20.0084

> <Gold.Chemscore.ZeroCoef>
-5.4800

> <Gold.Chemscore.Hbond>
1.8655

> <Gold.Chemscore.Metal>
0.0000

> <Gold.Chemscore.Lipo>
98.5462

> <Gold.Chemscore.Internal_Hbond>
0.0000

> <Gold.Chemscore.DEClash>
1.7645

> <Gold.Chemscore.DEInternal>
3.0680

> <Gold.Chemscore.Rot>
1.2626

> <Gold.Chemscore.Internal.Correction>
   9.000000E+99

> <Gold.Chemscore.Hbonds>
donor molecule, donor type, donor heavy atom, donor atom, acceptor molecule, acceptor atom, score
      L1  H     8    33       P1  8028  0.67
      L1  H    11    34       P1  8028  0.96

> <Gold.Chemscore.Hbond.Weighted>
-6.2307

> <Gold.Chemscore.Metal.Weighted>
-0.0000

> <Gold.Chemscore.Lipo.Weighted>
-11.5299

> <Gold.Chemscore.Internal_Hbond.Weighted>
0.0000

> <Gold.Chemscore.DEClash.Weighted>
1.7645

> <Gold.Chemscore.DEInternal.Weighted>
3.0680

> <Gold.Chemscore.Rot.Weighted>
3.2322

> <Gold.Chemscore.Internal.Correction.Weighted>
   9.000000E+99

> <Gold.Protein.RotatedTorsions>
[ 6907 6896 6895 6894 ] final  151.98 input  -60.11 | X-H torsion
[ 7974 7965 7964 7962 ] final  -58.82 input  175.53 | X-H torsion
[ 8008 7997 7996 7995 ] final   49.19 input   59.86 | X-H torsion
[ 10167 10162 10161 10158 ] final  -24.87 input  -65.29 | X-H torsion
[ 10718 10713 10712 10709 ] final   26.26 input   66.30 | X-H torsion
[ 10763 10752 10751 10750 ] final   81.53 input  -60.55 | X-H torsion
[ 11005 11000 10999 10996 ] final  157.20 input  -57.11 | X-H torsion

> <Gold.Protein.ActiveResidues>
 VAL166  LYS551  ARG553  GLY616  TRP617  ASP618  TYR619  PRO620  LYS621  CYS622 
 ASP623  PHE694  ASN695  SER759  ASP760  ASP761  ALA762  ILE779  LEU786  VAL792 
 PHE793  MET794  SER795  GLU796  ALA797  LYS798  CYS799  TRP800  GLU811  SER814 

> <Gold.Protein.RotatedAtoms>
  152.0931  133.4210  159.4552 H   0  0  0  0  0  0  0  0  0  0  0  0  # atno 6907 bound_to 6896
  150.6863  134.2849  159.4651 H   0  0  0  0  0  0  0  0  0  0  0  0  # atno 6908 bound_to 6896
  152.0702  134.9538  160.0625 H   0  0  0  0  0  0  0  0  0  0  0  0  # atno 6909 bound_to 6896
  145.8348  140.8456  143.0065 H   0  0  0  0  0  0  0  0  0  0  0  0  # atno 7974 bound_to 7965
  155.3981  140.3436  155.4255 H   0  0  0  0  0  0  0  0  0  0  0  0  # atno 8008 bound_to 7997
  156.1519  140.1573  156.8788 H   0  0  0  0  0  0  0  0  0  0  0  0  # atno 8009 bound_to 7997
  154.5060  140.0802  156.7876 H   0  0  0  0  0  0  0  0  0  0  0  0  # atno 8010 bound_to 7997
  140.7287  143.4314  151.0795 H   0  0  0  0  0  0  0  0  0  0  0  0  # atno 10167 bound_to 10162
  157.2044  130.6905  149.6202 H   0  0  0  0  0  0  0  0  0  0  0  0  # atno 10718 bound_to 10713
  153.1125  135.4762  154.9059 H   0  0  0  0  0  0  0  0  0  0  0  0  # atno 10763 bound_to 10752
  154.7495  135.3102  154.8586 H   0  0  0  0  0  0  0  0  0  0  0  0  # atno 10764 bound_to 10752
  153.9172  135.6859  153.4802 H   0  0  0  0  0  0  0  0  0  0  0  0  # atno 10765 bound_to 10752
  140.1747  134.8518  157.2732 H   0  0  0  0  0  0  0  0  0  0  0  0  # atno 11005 bound_to 11000
  144.6737  140.0724  143.7472 LP  0  0  0  0  0  0  0  0  0  0  0  0  # atno 17320 bound_to 7965
  145.9531  139.2748  143.1200 LP  0  0  0  0  0  0  0  0  0  0  0  0  # atno 17321 bound_to 7965
  139.7972  143.8135  152.3159 LP  0  0  0  0  0  0  0  0  0  0  0  0  # atno 17342 bound_to 10162
  139.8139  144.7324  150.9661 LP  0  0  0  0  0  0  0  0  0  0  0  0  # atno 17343 bound_to 10162
  155.9697  130.4572  150.5953 LP  0  0  0  0  0  0  0  0  0  0  0  0  # atno 17370 bound_to 10713
  157.3735  131.0769  151.1538 LP  0  0  0  0  0  0  0  0  0  0  0  0  # atno 17371 bound_to 10713
  140.2337  134.3879  155.7511 LP  0  0  0  0  0  0  0  0  0  0  0  0  # atno 17394 bound_to 11000
  141.2219  133.7228  156.8680 LP  0  0  0  0  0  0  0  0  0  0  0  0  # atno 17395 bound_to 11000

$$$$
