AV-unprocessed.smi:447|AV-procd|sdf|2599|dock6
  -GOLD-   2262022593D 1   1.00000     0.00000
 Structure written by MMmdl.
 45 47  0  0  0  0  0  0  0  0  1 V2000
  152.5416  137.5284  158.9512 C   0  0  0  0  0  0  0  0  0  0  0  0
  152.4890  137.2143  157.4596 C   0  0  0  0  0  0  0  0  0  0  0  0
  152.6796  136.0627  157.0707 O   0  0  0  0  0  0  0  0  0  0  0  0
  152.2272  138.2422  156.6368 N   0  0  0  0  0  0  0  0  0  0  0  0
  152.1120  138.1538  155.1812 C   0  0  2  0  0  0  0  0  0  0  0  0
  153.3241  138.8179  154.5156 C   0  0  0  0  0  0  0  0  0  0  0  0
  150.8132  138.7904  154.7482 C   0  0  0  0  0  0  0  0  0  0  0  0
  149.8998  138.1328  154.0276 N   0  0  0  0  0  0  0  0  0  0  0  0
  148.8984  139.0691  153.8699 C   0  0  0  0  0  0  0  0  0  0  0  0
  147.6630  138.9851  153.1889 C   0  0  0  0  0  0  0  0  0  0  0  0
  146.7855  140.0888  153.1637 C   0  0  0  0  0  0  0  0  0  0  0  0
  147.1305  141.2893  153.8176 C   0  0  0  0  0  0  0  0  0  0  0  0
  148.3564  141.3928  154.5028 C   0  0  0  0  0  0  0  0  0  0  0  0
  149.2289  140.2880  154.5249 C   0  0  0  0  0  0  0  0  0  0  0  0
  150.4790  140.0610  155.0932 N   0  0  0  0  0  0  0  0  0  0  0  0
  151.2430  141.0109  155.8915 C   0  0  0  0  0  0  0  0  0  0  0  0
  150.4460  141.5600  157.0920 C   0  0  1  0  0  0  0  0  0  0  0  0
  149.9636  140.4907  157.8820 O   0  0  0  0  0  0  0  0  0  0  0  0
  151.2741  142.5465  157.8995 C   0  0  0  0  0  0  0  0  0  0  0  0
  151.6007  143.8154  157.3720 C   0  0  0  0  0  0  0  0  0  0  0  0
  152.3622  144.7249  158.1317 C   0  0  0  0  0  0  0  0  0  0  0  0
  152.7987  144.3722  159.4231 C   0  0  0  0  0  0  0  0  0  0  0  0
  152.4720  143.1103  159.9555 C   0  0  0  0  0  0  0  0  0  0  0  0
  151.7107  142.2004  159.1964 C   0  0  0  0  0  0  0  0  0  0  0  0
  152.2691  138.5648  159.1535 H   0  0  0  0  0  0  0  0  0  0  0  0
  153.5472  137.3571  159.3359 H   0  0  0  0  0  0  0  0  0  0  0  0
  151.8524  136.8829  159.4960 H   0  0  0  0  0  0  0  0  0  0  0  0
  152.0744  139.1511  157.0489 H   0  0  0  0  0  0  0  0  0  0  0  0
  152.1198  137.0985  154.9096 H   0  0  0  0  0  0  0  0  0  0  0  0
  153.2662  138.7332  153.4301 H   0  0  0  0  0  0  0  0  0  0  0  0
  154.2543  138.3467  154.8340 H   0  0  0  0  0  0  0  0  0  0  0  0
  153.3838  139.8781  154.7636 H   0  0  0  0  0  0  0  0  0  0  0  0
  147.3908  138.0699  152.6844 H   0  0  0  0  0  0  0  0  0  0  0  0
  145.8441  140.0139  152.6391 H   0  0  0  0  0  0  0  0  0  0  0  0
  146.4544  142.1312  153.7920 H   0  0  0  0  0  0  0  0  0  0  0  0
  148.6258  142.3121  155.0012 H   0  0  0  0  0  0  0  0  0  0  0  0
  152.1550  140.5222  156.2360 H   0  0  0  0  0  0  0  0  0  0  0  0
  151.5713  141.8250  155.2447 H   0  0  0  0  0  0  0  0  0  0  0  0
  149.5658  142.0859  156.7243 H   0  0  0  0  0  0  0  0  0  0  0  0
  150.6962  140.0981  158.3318 H   0  0  0  0  0  0  0  0  0  0  0  0
  151.2667  144.0958  156.3837 H   0  0  0  0  0  0  0  0  0  0  0  0
  152.6106  145.6937  157.7239 H   0  0  0  0  0  0  0  0  0  0  0  0
  153.3825  145.0697  160.0056 H   0  0  0  0  0  0  0  0  0  0  0  0
  152.8047  142.8401  160.9469 H   0  0  0  0  0  0  0  0  0  0  0  0
  151.4624  141.2353  159.6140 H   0  0  0  0  0  0  0  0  0  0  0  0
  1  2  1  0  0  0  0
  1 25  1  0  0  0  0
  1 26  1  0  0  0  0
  1 27  1  0  0  0  0
  2  3  2  0  0  0  0
  2  4  1  0  0  0  0
  4  5  1  0  0  0  0
  4 28  1  0  0  0  0
  5  6  1  0  0  0  0
  5  7  1  0  0  0  0
  5 29  1  0  0  0  0
  6 30  1  0  0  0  0
  6 31  1  0  0  0  0
  6 32  1  0  0  0  0
  7 15  1  0  0  0  0
  7  8  2  0  0  0  0
  8  9  1  0  0  0  0
  9 14  2  0  0  0  0
  9 10  1  0  0  0  0
 10 11  2  0  0  0  0
 10 33  1  0  0  0  0
 11 12  1  0  0  0  0
 11 34  1  0  0  0  0
 12 13  2  0  0  0  0
 12 35  1  0  0  0  0
 13 14  1  0  0  0  0
 13 36  1  0  0  0  0
 14 15  1  0  0  0  0
 15 16  1  0  0  0  0
 16 17  1  0  0  0  0
 16 37  1  0  0  0  0
 16 38  1  0  0  0  0
 17 18  1  0  0  0  0
 17 19  1  0  0  0  0
 17 39  1  0  0  0  0
 18 40  1  0  0  0  0
 19 24  1  0  0  0  0
 19 20  2  0  0  0  0
 20 21  1  0  0  0  0
 20 41  1  0  0  0  0
 21 22  2  0  0  0  0
 21 42  1  0  0  0  0
 22 23  1  0  0  0  0
 22 43  1  0  0  0  0
 23 24  2  0  0  0  0
 23 44  1  0  0  0  0
 24 45  1  0  0  0  0
M  END
> <s_m_source_file>
AV-unprocessed.smi

> <i_m_source_file_index>
447

> <i_lp_mmshare_version>
43012

> <i_f3d_flags>
0

> <s_epik_input>
W0NIM11DKD1PKVtOSF1bQ0BIXShbQ0gzXSljKG4xKW4oYyhjMTIpW2NIXVtjSF1bY0hdW2NIXTIpW0NIMl1bQ0BIXShbT0hdKWMzW2NIXVtjSF1bY0hdW2NIXVtjSF0z

> <s_epik_cmdline>
J2VwaWtfcHl0aG9uJywgJy1waCcsICc3LjAnLCAnLXRuJywgJzgnLCAnLW1hJywgJzIwMCcsICctbWV0YWxfYmluZGluZycsICctaW1hZScsICc8aW5maWxlLm1hZT4nLCAnLW9tYWUnLCAnPG91dGZpbGUubWFlPic=

> <r_epik_Ionization_Penalty>
0.13301

> <r_epik_Ionization_Penalty_Charging>
0

> <r_epik_Ionization_Penalty_Neutral>
0.13301

> <r_epik_State_Penalty>
0.122384

> <r_epik_Charging_Adjusted_Penalty>
0.122384

> <i_epik_Tot_Q>
0

> <i_epik_Tot_abs_Q>
0

> <r_epik_Metal_State_Penalty>
0.0997374

> <b_epik_Metal_Only>
0

> <s_lp_Force_Field>
OPLS_2005

> <r_lp_Energy>
6.23771

> <b_lp_Chiralities_Consistent>
1

> <s_lp_Variant>
AV-unprocessed.smi:447-3

> <Gold.Version>
5.8.1

> <Gold.Id.Protein>
6NUR|6NUR_protein|mol2

> <Gold.PLP.Fitness>
50.9485

> <Gold.PLP.PLP>
-48.7662

> <Gold.PLP.part.hbond>
-1.0000

> <Gold.PLP.part.metal>
0.0000

> <Gold.PLP.part.buried>
-0.1906

> <Gold.PLP.part.nonpolar>
-47.2419

> <Gold.PLP.part.repulsive>
1.2074

> <Gold.PLP.ligand.clash>
0.0000

> <Gold.PLP.ligand.torsion>
0.4329

> <Gold.PLP.Chemscore.Hbond>
1.0000

> <Gold.PLP.Chemscore.CHOScore>
0.0000

> <Gold.PLP.Chemscore.Metal>
0.0000

> <Gold.Chemscore.Hbonds>
donor molecule, donor type, donor heavy atom, donor atom, acceptor molecule, acceptor atom, score
      P1  H 10752 10765       L1     3  0.98

> <Gold.PLP.Chemscore.Internal.Correction>
0.0482

> <Gold.Rescore>
     Score         DG    S(hbond)    S(metal)    S(lipo)     H(rot)  DE(clash)    DE(int)     intcor
     18.91     -19.71       1.00        0.00     144.56       2.35       0.46       0.33       ----

> <Gold.Chemscore.Fitness>
18.9143

> <Gold.Chemscore.DG>
-19.7081

> <Gold.Chemscore.ZeroCoef>
-5.4800

> <Gold.Chemscore.Hbond>
0.9992

> <Gold.Chemscore.Metal>
0.0000

> <Gold.Chemscore.Lipo>
144.5621

> <Gold.Chemscore.Internal_Hbond>
0.0000

> <Gold.Chemscore.DEClash>
0.4645

> <Gold.Chemscore.DEInternal>
0.3293

> <Gold.Chemscore.Rot>
2.3528

> <Gold.Chemscore.Internal.Correction>
   9.000000E+99

> <Gold.Chemscore.Hbonds>
donor molecule, donor type, donor heavy atom, donor atom, acceptor molecule, acceptor atom, score
      P1  H 10752 10765       L1     3  0.91

> <Gold.Chemscore.Hbond.Weighted>
-3.3374

> <Gold.Chemscore.Metal.Weighted>
-0.0000

> <Gold.Chemscore.Lipo.Weighted>
-16.9138

> <Gold.Chemscore.Internal_Hbond.Weighted>
0.0000

> <Gold.Chemscore.DEClash.Weighted>
0.4645

> <Gold.Chemscore.DEInternal.Weighted>
0.3293

> <Gold.Chemscore.Rot.Weighted>
6.0231

> <Gold.Chemscore.Internal.Correction.Weighted>
   9.000000E+99

> <Gold.Protein.RotatedTorsions>
[ 6907 6896 6895 6894 ] final  -55.33 input  -60.11 | X-H torsion
[ 7974 7965 7964 7962 ] final   11.98 input  175.53 | X-H torsion
[ 8008 7997 7996 7995 ] final  113.73 input   59.86 | X-H torsion
[ 10167 10162 10161 10158 ] final   76.90 input  -65.29 | X-H torsion
[ 10718 10713 10712 10709 ] final -127.58 input   66.30 | X-H torsion
[ 10763 10752 10751 10750 ] final -127.17 input  -60.55 | X-H torsion
[ 11005 11000 10999 10996 ] final   41.91 input  -57.11 | X-H torsion

> <Gold.Protein.ActiveResidues>
 VAL166  LYS551  ARG553  GLY616  TRP617  ASP618  TYR619  PRO620  LYS621  CYS622 
 ASP623  PHE694  ASN695  SER759  ASP760  ASP761  ALA762  ILE779  LEU786  VAL792 
 PHE793  MET794  SER795  GLU796  ALA797  LYS798  CYS799  TRP800  GLU811  SER814 

> <Gold.Protein.RotatedAtoms>
  150.8261  134.7492  159.6813 H   0  0  0  0  0  0  0  0  0  0  0  0  # atno 6907 bound_to 6896
  152.4372  134.5660  159.9917 H   0  0  0  0  0  0  0  0  0  0  0  0  # atno 6908 bound_to 6896
  151.5832  133.3337  159.3048 H   0  0  0  0  0  0  0  0  0  0  0  0  # atno 6909 bound_to 6896
  146.2360  139.9405  142.8484 H   0  0  0  0  0  0  0  0  0  0  0  0  # atno 7974 bound_to 7965
  156.2276  140.2973  156.0107 H   0  0  0  0  0  0  0  0  0  0  0  0  # atno 8008 bound_to 7997
  155.2313  140.0419  157.2979 H   0  0  0  0  0  0  0  0  0  0  0  0  # atno 8009 bound_to 7997
  154.5942  140.2409  155.7887 H   0  0  0  0  0  0  0  0  0  0  0  0  # atno 8010 bound_to 7997
  139.9873  144.5783  150.7848 H   0  0  0  0  0  0  0  0  0  0  0  0  # atno 10167 bound_to 10162
  156.1871  130.6770  151.0377 H   0  0  0  0  0  0  0  0  0  0  0  0  # atno 10718 bound_to 10713
  154.8750  135.3971  154.3549 H   0  0  0  0  0  0  0  0  0  0  0  0  # atno 10763 bound_to 10752
  153.4330  135.7025  153.6224 H   0  0  0  0  0  0  0  0  0  0  0  0  # atno 10764 bound_to 10752
  153.4837  135.3763  155.2425 H   0  0  0  0  0  0  0  0  0  0  0  0  # atno 10765 bound_to 10752
  140.1790  134.4128  155.8211 H   0  0  0  0  0  0  0  0  0  0  0  0  # atno 11005 bound_to 11000
  145.1957  140.9832  143.4185 LP  0  0  0  0  0  0  0  0  0  0  0  0  # atno 17320 bound_to 7965
  144.9818  139.3776  143.6258 LP  0  0  0  0  0  0  0  0  0  0  0  0  # atno 17321 bound_to 7965
  140.7467  143.2896  151.3368 LP  0  0  0  0  0  0  0  0  0  0  0  0  # atno 17342 bound_to 10162
  139.6366  144.0619  152.2520 LP  0  0  0  0  0  0  0  0  0  0  0  0  # atno 17343 bound_to 10162
  157.6905  131.0811  150.7120 LP  0  0  0  0  0  0  0  0  0  0  0  0  # atno 17370 bound_to 10713
  156.7176  130.4671  149.5531 LP  0  0  0  0  0  0  0  0  0  0  0  0  # atno 17371 bound_to 10713
  141.2222  133.6991  156.7897 LP  0  0  0  0  0  0  0  0  0  0  0  0  # atno 17394 bound_to 11000
  140.2290  134.8700  157.3456 LP  0  0  0  0  0  0  0  0  0  0  0  0  # atno 17395 bound_to 11000

$$$$
