AV-unprocessed.smi:3188|AV-procd|sdf|12186|dock1
  -GOLD-   2272018 23D 1   1.00000     0.00000
 Structure written by MMmdl.
 40 41  0  0  0  0  0  0  0  0  2 V2000
  152.7444  140.2743  159.5284 C   0  0  0  0  0  0  0  0  0  0  0  0
  152.5483  141.7345  159.9016 C   0  0  0  0  0  0  0  0  0  0  0  0
  152.6423  142.1351  161.1851 C   0  0  0  0  0  0  0  0  0  0  0  0
  152.5084  143.5723  161.6563 C   0  0  0  0  0  0  0  0  0  0  0  0
  152.0487  144.5302  160.5452 C   0  0  0  0  0  0  0  0  0  0  0  0
  152.6815  144.1637  159.1922 C   0  0  2  0  0  0  0  0  0  0  0  0
  152.4332  145.2448  158.1260 C   0  0  0  0  0  0  0  0  0  0  0  0
  152.2784  142.7250  158.7601 C   0  0  2  0  0  0  0  0  0  0  0  0
  150.8194  142.6315  158.2416 C   0  0  0  0  0  0  0  0  0  0  0  0
  150.7180  142.8511  156.7860 N   0  3  0  0  0  0  0  0  0  0  0  0
  150.6781  141.6116  155.9839 C   0  0  0  0  0  0  0  0  0  0  0  0
  151.6339  140.5454  156.5423 C   0  0  0  0  0  0  0  0  0  0  0  0
  151.8430  139.4564  155.6053 N   0  0  0  0  0  0  0  0  0  0  0  0
  150.8994  138.7079  154.9334 C   0  0  0  0  0  0  0  0  0  0  0  0
  151.6502  137.8204  154.2168 C   0  0  0  0  0  0  0  0  0  0  0  0
  152.9977  138.0622  154.4783 N   0  0  0  0  0  0  0  0  0  0  0  0
  153.1011  139.0514  155.3086 N   0  0  0  0  0  0  0  0  0  0  0  0
  153.4138  140.1807  158.6732 H   0  0  0  0  0  0  0  0  0  0  0  0
  151.7966  139.7970  159.2869 H   0  0  0  0  0  0  0  0  0  0  0  0
  153.1837  139.7148  160.3549 H   0  0  0  0  0  0  0  0  0  0  0  0
  152.8546  141.4092  161.9568 H   0  0  0  0  0  0  0  0  0  0  0  0
  151.8193  143.6168  162.4999 H   0  0  0  0  0  0  0  0  0  0  0  0
  153.4839  143.8853  162.0299 H   0  0  0  0  0  0  0  0  0  0  0  0
  150.9620  144.5035  160.4632 H   0  0  0  0  0  0  0  0  0  0  0  0
  152.3046  145.5532  160.8235 H   0  0  0  0  0  0  0  0  0  0  0  0
  153.7622  144.1491  159.3459 H   0  0  0  0  0  0  0  0  0  0  0  0
  151.3720  145.4564  157.9960 H   0  0  0  0  0  0  0  0  0  0  0  0
  152.8425  144.9497  157.1595 H   0  0  0  0  0  0  0  0  0  0  0  0
  152.9121  146.1820  158.4105 H   0  0  0  0  0  0  0  0  0  0  0  0
  152.9419  142.4537  157.9373 H   0  0  0  0  0  0  0  0  0  0  0  0
  150.3985  141.6555  158.4858 H   0  0  0  0  0  0  0  0  0  0  0  0
  150.1863  143.3795  158.7166 H   0  0  0  0  0  0  0  0  0  0  0  0
  149.8843  143.3894  156.5974 H   0  0  0  0  0  0  0  0  0  0  0  0
  149.6585  141.2240  155.9631 H   0  0  0  0  0  0  0  0  0  0  0  0
  150.9521  141.8458  154.9548 H   0  0  0  0  0  0  0  0  0  0  0  0
  152.6035  140.9941  156.7610 H   0  0  0  0  0  0  0  0  0  0  0  0
  151.2560  140.1451  157.4846 H   0  0  0  0  0  0  0  0  0  0  0  0
  149.8338  138.8612  155.0203 H   0  0  0  0  0  0  0  0  0  0  0  0
  151.3370  137.0356  153.5438 H   0  0  0  0  0  0  0  0  0  0  0  0
  151.5210  143.3897  156.4933 H   0  0  0  0  0  0  0  0  0  0  0  0
  1  2  1  0  0  0  0
  1 18  1  0  0  0  0
  1 19  1  0  0  0  0
  1 20  1  0  0  0  0
  2  8  1  0  0  0  0
  2  3  2  0  0  0  0
  3  4  1  0  0  0  0
  3 21  1  0  0  0  0
  4  5  1  0  0  0  0
  4 22  1  0  0  0  0
  4 23  1  0  0  0  0
  5  6  1  0  0  0  0
  5 24  1  0  0  0  0
  5 25  1  0  0  0  0
  6  7  1  0  0  0  0
  6  8  1  0  0  0  0
  6 26  1  0  0  0  0
  7 27  1  0  0  0  0
  7 28  1  0  0  0  0
  7 29  1  0  0  0  0
  8  9  1  0  0  0  0
  8 30  1  0  0  0  0
  9 10  1  0  0  0  0
  9 31  1  0  0  0  0
  9 32  1  0  0  0  0
 10 11  1  0  0  0  0
 10 33  1  0  0  0  0
 10 40  1  0  0  0  0
 11 12  1  0  0  0  0
 11 34  1  0  0  0  0
 11 35  1  0  0  0  0
 12 13  1  0  0  0  0
 12 36  1  0  0  0  0
 12 37  1  0  0  0  0
 13 17  1  0  0  0  0
 13 14  1  0  0  0  0
 14 15  2  0  0  0  0
 14 38  1  0  0  0  0
 15 16  1  0  0  0  0
 15 39  1  0  0  0  0
 16 17  2  0  0  0  0
M  CHG  1  10   1
M  END
> <s_m_source_file>
AV-unprocessed.smi

> <i_m_source_file_index>
3188

> <i_lp_mmshare_version>
43012

> <i_f3d_flags>
0

> <s_epik_input>
W0NIM11DMT1bQ0hdW0NIMl1bQ0gyXVtDQEBIXShbQ0gzXSlbQ0BIXTFbQ0gyXVtOSF1bQ0gyXVtDSDJdbjJbY0hdW2NIXW5uMg==

> <s_epik_cmdline>
J2VwaWtfcHl0aG9uJywgJy1waCcsICc3LjAnLCAnLXRuJywgJzgnLCAnLW1hJywgJzIwMCcsICctbWV0YWxfYmluZGluZycsICctaW1hZScsICc8aW5maWxlLm1hZT4nLCAnLW9tYWUnLCAnPG91dGZpbGUubWFlPic=

> <r_lp_tautomer_probability>
1

> <r_epik_Ionization_Penalty>
0.007268

> <r_epik_Ionization_Penalty_Charging>
0.00726786

> <r_epik_Ionization_Penalty_Neutral>
1.34882e-07

> <r_epik_State_Penalty>
0.00542069

> <r_epik_Charging_Adjusted_Penalty>
0.0126886

> <i_epik_Tot_Q>
1

> <i_epik_Tot_abs_Q>
1

> <r_epik_Metal_State_Penalty>
-0

> <b_epik_Metal_Only>
0

> <s_lp_Force_Field>
OPLS_2005

> <r_lp_Energy>
14.4229

> <b_lp_Chiralities_Consistent>
1

> <s_lp_Variant>
AV-unprocessed.smi:3188-4

> <Gold.Version>
5.8.1

> <Gold.Id.Protein>
6NUR|6NUR_protein|mol2

> <Gold.PLP.Fitness>
57.3753

> <Gold.PLP.PLP>
-47.1063

> <Gold.PLP.part.hbond>
-3.0000

> <Gold.PLP.part.metal>
0.0000

> <Gold.PLP.part.buried>
-7.4748

> <Gold.PLP.part.nonpolar>
-36.6958

> <Gold.PLP.part.repulsive>
0.0922

> <Gold.PLP.ligand.clash>
0.0000

> <Gold.PLP.ligand.torsion>
0.9132

> <Gold.PLP.Chemscore.Hbond>
3.0000

> <Gold.PLP.Chemscore.CHOScore>
1.0000

> <Gold.PLP.Chemscore.Metal>
0.0000

> <Gold.Chemscore.Hbonds>
donor molecule, donor type, donor heavy atom, donor atom, acceptor molecule, acceptor atom, score
      L1  H    10    33       P1  8028  2.00
      P1  H  7997  8010       L1    17  1.00
      L1  C    15    39       P1  7949  1.00

> <Gold.PLP.Chemscore.Internal.Correction>
0.0955

> <Gold.Rescore>
     Score         DG    S(hbond)    S(metal)    S(lipo)     H(rot)  DE(clash)    DE(int)     intcor
     21.26     -22.29       1.92        0.00     127.88       1.78       0.02       1.02       ----

> <Gold.Chemscore.Fitness>
21.2612

> <Gold.Chemscore.DG>
-22.2949

> <Gold.Chemscore.ZeroCoef>
-5.4800

> <Gold.Chemscore.Hbond>
1.9196

> <Gold.Chemscore.Metal>
0.0000

> <Gold.Chemscore.Lipo>
127.8848

> <Gold.Chemscore.Internal_Hbond>
0.0000

> <Gold.Chemscore.DEClash>
0.0186

> <Gold.Chemscore.DEInternal>
1.0151

> <Gold.Chemscore.Rot>
1.7809

> <Gold.Chemscore.Internal.Correction>
   9.000000E+99

> <Gold.Chemscore.Hbonds>
donor molecule, donor type, donor heavy atom, donor atom, acceptor molecule, acceptor atom, score
      L1  H    10    33       P1  8028  0.97
      P1  H  7997  8010       L1    17  0.85

> <Gold.Chemscore.Hbond.Weighted>
-6.4114

> <Gold.Chemscore.Metal.Weighted>
-0.0000

> <Gold.Chemscore.Lipo.Weighted>
-14.9625

> <Gold.Chemscore.Internal_Hbond.Weighted>
0.0000

> <Gold.Chemscore.DEClash.Weighted>
0.0186

> <Gold.Chemscore.DEInternal.Weighted>
1.0151

> <Gold.Chemscore.Rot.Weighted>
4.5590

> <Gold.Chemscore.Internal.Correction.Weighted>
   9.000000E+99

> <Gold.Protein.RotatedTorsions>
[ 6907 6896 6895 6894 ] final  -90.48 input  -60.11 | X-H torsion
[ 7974 7965 7964 7962 ] final   25.10 input  175.53 | X-H torsion
[ 8008 7997 7996 7995 ] final   96.99 input   59.86 | X-H torsion
[ 10167 10162 10161 10158 ] final   83.10 input  -65.29 | X-H torsion
[ 10718 10713 10712 10709 ] final  147.29 input   66.30 | X-H torsion
[ 10763 10752 10751 10750 ] final   48.13 input  -60.55 | X-H torsion
[ 11005 11000 10999 10996 ] final  -66.96 input  -57.11 | X-H torsion

> <Gold.Protein.ActiveResidues>
 VAL166  LYS551  ARG553  GLY616  TRP617  ASP618  TYR619  PRO620  LYS621  CYS622 
 ASP623  PHE694  ASN695  SER759  ASP760  ASP761  ALA762  ILE779  LEU786  VAL792 
 PHE793  MET794  SER795  GLU796  ALA797  LYS798  CYS799  TRP800  GLU811  SER814 

> <Gold.Protein.RotatedAtoms>
  150.6882  134.2426  159.4478 H   0  0  0  0  0  0  0  0  0  0  0  0  # atno 6907 bound_to 6896
  152.0369  134.9732  160.0582 H   0  0  0  0  0  0  0  0  0  0  0  0  # atno 6908 bound_to 6896
  152.1249  133.4340  159.4730 H   0  0  0  0  0  0  0  0  0  0  0  0  # atno 6909 bound_to 6896
  146.1905  139.7513  142.8835 H   0  0  0  0  0  0  0  0  0  0  0  0  # atno 7974 bound_to 7965
  156.0855  140.3265  155.7748 H   0  0  0  0  0  0  0  0  0  0  0  0  # atno 8008 bound_to 7997
  155.5083  140.0575  157.2945 H   0  0  0  0  0  0  0  0  0  0  0  0  # atno 8009 bound_to 7997
  154.4606  140.1965  156.0271 H   0  0  0  0  0  0  0  0  0  0  0  0  # atno 8010 bound_to 7997
  139.9219  144.6207  150.8432 H   0  0  0  0  0  0  0  0  0  0  0  0  # atno 10167 bound_to 10162
  157.3227  131.0907  151.1227 H   0  0  0  0  0  0  0  0  0  0  0  0  # atno 10718 bound_to 10713
  152.9794  135.5954  154.3876 H   0  0  0  0  0  0  0  0  0  0  0  0  # atno 10763 bound_to 10752
  154.3535  135.2767  155.2361 H   0  0  0  0  0  0  0  0  0  0  0  0  # atno 10764 bound_to 10752
  154.4390  135.6018  153.6172 H   0  0  0  0  0  0  0  0  0  0  0  0  # atno 10765 bound_to 10752
  141.1496  133.6709  156.6220 H   0  0  0  0  0  0  0  0  0  0  0  0  # atno 11005 bound_to 11000
  145.3806  141.0357  143.3179 LP  0  0  0  0  0  0  0  0  0  0  0  0  # atno 17320 bound_to 7965
  144.8478  139.5369  143.6870 LP  0  0  0  0  0  0  0  0  0  0  0  0  # atno 17321 bound_to 7965
  140.7660  143.3291  151.2450 LP  0  0  0  0  0  0  0  0  0  0  0  0  # atno 17342 bound_to 10162
  139.6854  143.9782  152.2831 LP  0  0  0  0  0  0  0  0  0  0  0  0  # atno 17343 bound_to 10162
  157.2506  130.6612  149.5929 LP  0  0  0  0  0  0  0  0  0  0  0  0  # atno 17370 bound_to 10713
  155.9687  130.4540  150.5832 LP  0  0  0  0  0  0  0  0  0  0  0  0  # atno 17371 bound_to 10713
  140.3533  134.7750  157.4482 LP  0  0  0  0  0  0  0  0  0  0  0  0  # atno 17394 bound_to 11000
  140.0843  134.5688  155.8508 LP  0  0  0  0  0  0  0  0  0  0  0  0  # atno 17395 bound_to 11000

$$$$
