AV-unprocessed.smi:1323|AV-procd|sdf|5465|dock5
  -GOLD-   22720 5 33D 1   1.00000     0.00000
 Structure written by MMmdl.
 45 46  0  0  0  0  0  0  0  0  1 V2000
  151.7685  145.8899  160.0678 C   0  0  0  0  0  0  0  0  0  0  0  0
  151.8394  144.3767  160.3305 C   0  0  2  0  0  0  0  0  0  0  0  0
  152.7560  144.0774  161.5341 C   0  0  0  0  0  0  0  0  0  0  0  0
  152.8525  142.5707  161.8168 C   0  0  0  0  0  0  0  0  0  0  0  0
  153.3320  141.8085  160.5739 C   0  0  0  0  0  0  0  0  0  0  0  0
  152.4189  142.0882  159.3711 C   0  0  0  0  0  0  0  0  0  0  0  0
  152.3071  143.5999  159.0786 C   0  0  1  0  0  0  0  0  0  0  0  0
  151.3451  143.8049  158.0515 O   0  0  0  0  0  0  0  0  0  0  0  0
  151.6486  143.1576  156.8245 C   0  0  0  0  0  0  0  0  0  0  0  0
  150.9264  141.8069  156.7840 C   0  0  0  0  0  0  0  0  0  0  0  0
  149.6788  141.9192  156.0415 N   0  0  0  0  0  0  0  0  0  0  0  0
  149.4034  141.2548  154.9109 C   0  0  0  0  0  0  0  0  0  0  0  0
  150.1936  140.4713  154.3819 O   0  0  0  0  0  0  0  0  0  0  0  0
  148.0273  141.5386  154.2909 C   0  0  0  0  0  0  0  0  0  0  0  0
  147.2167  140.3291  154.0706 N   0  0  0  0  0  0  0  0  0  0  0  0
  147.1133  139.8623  152.7451 C   0  0  0  0  0  0  0  0  0  0  0  0
  146.4013  138.7686  152.4310 C   0  0  0  0  0  0  0  0  0  0  0  0
  145.7273  138.0639  153.4955 C   0  0  0  0  0  0  0  0  0  0  0  0
  145.8234  138.4992  154.7677 C   0  0  0  0  0  0  0  0  0  0  0  0
  146.6044  139.6920  155.1161 C   0  0  0  0  0  0  0  0  0  0  0  0
  146.7017  140.0934  156.2762 O   0  0  0  0  0  0  0  0  0  0  0  0
  152.7450  146.2915  159.7952 H   0  0  0  0  0  0  0  0  0  0  0  0
  151.4240  146.4255  160.9528 H   0  0  0  0  0  0  0  0  0  0  0  0
  151.0762  146.1209  159.2580 H   0  0  0  0  0  0  0  0  0  0  0  0
  150.8342  144.0368  160.5843 H   0  0  0  0  0  0  0  0  0  0  0  0
  153.7546  144.4741  161.3451 H   0  0  0  0  0  0  0  0  0  0  0  0
  152.3846  144.5900  162.4223 H   0  0  0  0  0  0  0  0  0  0  0  0
  153.5331  142.3908  162.6495 H   0  0  0  0  0  0  0  0  0  0  0  0
  151.8773  142.1927  162.1258 H   0  0  0  0  0  0  0  0  0  0  0  0
  154.3547  142.1023  160.3344 H   0  0  0  0  0  0  0  0  0  0  0  0
  153.3573  140.7384  160.7812 H   0  0  0  0  0  0  0  0  0  0  0  0
  152.7995  141.5557  158.4997 H   0  0  0  0  0  0  0  0  0  0  0  0
  151.4263  141.6816  159.5695 H   0  0  0  0  0  0  0  0  0  0  0  0
  153.2802  143.9897  158.7727 H   0  0  0  0  0  0  0  0  0  0  0  0
  151.3113  143.7800  155.9944 H   0  0  0  0  0  0  0  0  0  0  0  0
  152.7227  143.0113  156.7058 H   0  0  0  0  0  0  0  0  0  0  0  0
  151.5644  141.0493  156.3264 H   0  0  0  0  0  0  0  0  0  0  0  0
  150.7098  141.4759  157.8007 H   0  0  0  0  0  0  0  0  0  0  0  0
  148.9821  142.5507  156.4096 H   0  0  0  0  0  0  0  0  0  0  0  0
  147.4900  142.2441  154.9275 H   0  0  0  0  0  0  0  0  0  0  0  0
  148.1807  142.0672  153.3488 H   0  0  0  0  0  0  0  0  0  0  0  0
  147.6522  140.4421  152.0099 H   0  0  0  0  0  0  0  0  0  0  0  0
  146.3379  138.4230  151.4097 H   0  0  0  0  0  0  0  0  0  0  0  0
  145.1445  137.1828  153.2705 H   0  0  0  0  0  0  0  0  0  0  0  0
  145.3134  137.9584  155.5512 H   0  0  0  0  0  0  0  0  0  0  0  0
  1  2  1  0  0  0  0
  1 22  1  0  0  0  0
  1 23  1  0  0  0  0
  1 24  1  0  0  0  0
  2  7  1  0  0  0  0
  2  3  1  0  0  0  0
  2 25  1  0  0  0  0
  3  4  1  0  0  0  0
  3 26  1  0  0  0  0
  3 27  1  0  0  0  0
  4  5  1  0  0  0  0
  4 28  1  0  0  0  0
  4 29  1  0  0  0  0
  5  6  1  0  0  0  0
  5 30  1  0  0  0  0
  5 31  1  0  0  0  0
  6  7  1  0  0  0  0
  6 32  1  0  0  0  0
  6 33  1  0  0  0  0
  7  8  1  0  0  0  0
  7 34  1  0  0  0  0
  8  9  1  0  0  0  0
  9 10  1  0  0  0  0
  9 35  1  0  0  0  0
  9 36  1  0  0  0  0
 10 11  1  0  0  0  0
 10 37  1  0  0  0  0
 10 38  1  0  0  0  0
 11 12  1  0  0  0  0
 11 39  1  0  0  0  0
 12 13  2  0  0  0  0
 12 14  1  0  0  0  0
 14 15  1  0  0  0  0
 14 40  1  0  0  0  0
 14 41  1  0  0  0  0
 15 20  1  0  0  0  0
 15 16  1  0  0  0  0
 16 17  2  0  0  0  0
 16 42  1  0  0  0  0
 17 18  1  0  0  0  0
 17 43  1  0  0  0  0
 18 19  2  0  0  0  0
 18 44  1  0  0  0  0
 19 20  1  0  0  0  0
 19 45  1  0  0  0  0
 20 21  2  0  0  0  0
M  END
> <s_m_source_file>
AV-unprocessed.smi

> <i_m_source_file_index>
1323

> <i_lp_mmshare_version>
43012

> <i_f3d_flags>
0

> <s_epik_input>
W0NIM11bQ0BASF0xW0NIMl1bQ0gyXVtDSDJdW0NIMl1bQ0BIXTFPW0NIMl1bQ0gyXVtOSF1DKD1PKVtDSDJdbjJbY0hdW2NIXVtjSF1bY0hdYzI9Tw==

> <s_epik_cmdline>
J2VwaWtfcHl0aG9uJywgJy1waCcsICc3LjAnLCAnLXRuJywgJzgnLCAnLW1hJywgJzIwMCcsICctbWV0YWxfYmluZGluZycsICctaW1hZScsICc8aW5maWxlLm1hZT4nLCAnLW9tYWUnLCAnPG91dGZpbGUubWFlPic=

> <r_lp_tautomer_probability>
1

> <r_epik_Ionization_Penalty>
4.02412e-07

> <r_epik_Ionization_Penalty_Charging>
3.74552e-07

> <r_epik_Ionization_Penalty_Neutral>
2.78599e-08

> <r_epik_State_Penalty>
-0

> <r_epik_Charging_Adjusted_Penalty>
3.74552e-07

> <i_epik_Tot_Q>
0

> <i_epik_Tot_abs_Q>
0

> <r_epik_Metal_State_Penalty>
-0

> <b_epik_Metal_Only>
0

> <s_lp_Force_Field>
OPLS_2005

> <r_lp_Energy>
21.1571

> <b_lp_Chiralities_Consistent>
1

> <s_lp_Variant>
AV-unprocessed.smi:1323-1

> <Gold.Version>
5.8.1

> <Gold.Id.Protein>
6NUR|6NUR_protein|mol2

> <Gold.PLP.Fitness>
50.3157

> <Gold.PLP.PLP>
-45.4684

> <Gold.PLP.part.hbond>
-2.0000

> <Gold.PLP.part.metal>
0.0000

> <Gold.PLP.part.buried>
-3.3977

> <Gold.PLP.part.nonpolar>
-40.2120

> <Gold.PLP.part.repulsive>
0.3547

> <Gold.PLP.ligand.clash>
0.0015

> <Gold.PLP.ligand.torsion>
0.7122

> <Gold.PLP.Chemscore.Hbond>
1.0902

> <Gold.PLP.Chemscore.CHOScore>
0.9798

> <Gold.PLP.Chemscore.Metal>
0.0000

> <Gold.Chemscore.Hbonds>
donor molecule, donor type, donor heavy atom, donor atom, acceptor molecule, acceptor atom, score
      L1  H    11    39       P1  8028  0.14
      P1  H  7989  7998       L1    13  0.91
      L1  C    16    42       P1  7957  0.98

> <Gold.PLP.Chemscore.Internal.Correction>
0.0631

> <Gold.Rescore>
     Score         DG    S(hbond)    S(metal)    S(lipo)     H(rot)  DE(clash)    DE(int)     intcor
     16.07     -19.65       1.39        0.00     123.92       1.94       1.72       1.85       ----

> <Gold.Chemscore.Fitness>
16.0732

> <Gold.Chemscore.DG>
-19.6500

> <Gold.Chemscore.ZeroCoef>
-5.4800

> <Gold.Chemscore.Hbond>
1.3883

> <Gold.Chemscore.Metal>
0.0000

> <Gold.Chemscore.Lipo>
123.9237

> <Gold.Chemscore.Internal_Hbond>
0.0000

> <Gold.Chemscore.DEClash>
1.7229

> <Gold.Chemscore.DEInternal>
1.8539

> <Gold.Chemscore.Rot>
1.9398

> <Gold.Chemscore.Internal.Correction>
   9.000000E+99

> <Gold.Chemscore.Hbonds>
donor molecule, donor type, donor heavy atom, donor atom, acceptor molecule, acceptor atom, score
      L1  H    11    39       P1  8028  0.14
      P1  H  7989  7998       L1    13  0.88

> <Gold.Chemscore.Hbond.Weighted>
-4.6368

> <Gold.Chemscore.Metal.Weighted>
-0.0000

> <Gold.Chemscore.Lipo.Weighted>
-14.4991

> <Gold.Chemscore.Internal_Hbond.Weighted>
0.0000

> <Gold.Chemscore.DEClash.Weighted>
1.7229

> <Gold.Chemscore.DEInternal.Weighted>
1.8539

> <Gold.Chemscore.Rot.Weighted>
4.9659

> <Gold.Chemscore.Internal.Correction.Weighted>
   9.000000E+99

> <Gold.Protein.RotatedTorsions>
[ 6907 6896 6895 6894 ] final  101.95 input  -60.11 | X-H torsion
[ 7974 7965 7964 7962 ] final  -32.29 input  175.53 | X-H torsion
[ 8008 7997 7996 7995 ] final  -53.39 input   59.86 | X-H torsion
[ 10167 10162 10161 10158 ] final -124.30 input  -65.29 | X-H torsion
[ 10718 10713 10712 10709 ] final  -53.52 input   66.30 | X-H torsion
[ 10763 10752 10751 10750 ] final   95.10 input  -60.55 | X-H torsion
[ 11005 11000 10999 10996 ] final  147.61 input  -57.11 | X-H torsion

> <Gold.Protein.ActiveResidues>
 VAL166  LYS551  ARG553  GLY616  TRP617  ASP618  TYR619  PRO620  LYS621  CYS622 
 ASP623  PHE694  ASN695  SER759  ASP760  ASP761  ALA762  ILE779  LEU786  VAL792 
 PHE793  MET794  SER795  GLU796  ALA797  LYS798  CYS799  TRP800  GLU811  SER814 

> <Gold.Protein.RotatedAtoms>
  152.5336  134.0049  159.7911 H   0  0  0  0  0  0  0  0  0  0  0  0  # atno 6907 bound_to 6896
  151.0261  133.5824  159.2673 H   0  0  0  0  0  0  0  0  0  0  0  0  # atno 6908 bound_to 6896
  151.2846  135.0731  159.9235 H   0  0  0  0  0  0  0  0  0  0  0  0  # atno 6909 bound_to 6896
  146.1002  140.5773  142.8824 H   0  0  0  0  0  0  0  0  0  0  0  0  # atno 7974 bound_to 7965
  154.4132  140.1201  156.5146 H   0  0  0  0  0  0  0  0  0  0  0  0  # atno 8008 bound_to 7997
  155.6764  140.3496  155.4819 H   0  0  0  0  0  0  0  0  0  0  0  0  # atno 8009 bound_to 7997
  155.9589  140.1119  157.0903 H   0  0  0  0  0  0  0  0  0  0  0  0  # atno 8010 bound_to 7997
  139.9943  143.5607  152.2329 H   0  0  0  0  0  0  0  0  0  0  0  0  # atno 10167 bound_to 10162
  156.1528  130.4151  149.9917 H   0  0  0  0  0  0  0  0  0  0  0  0  # atno 10718 bound_to 10713
  153.2492  135.4266  155.0780 H   0  0  0  0  0  0  0  0  0  0  0  0  # atno 10763 bound_to 10752
  154.8374  135.3422  154.6537 H   0  0  0  0  0  0  0  0  0  0  0  0  # atno 10764 bound_to 10752
  153.6958  135.7031  153.5133 H   0  0  0  0  0  0  0  0  0  0  0  0  # atno 10765 bound_to 10752
  140.0890  134.9052  157.1621 H   0  0  0  0  0  0  0  0  0  0  0  0  # atno 11005 bound_to 11000
  144.7426  140.4984  143.6858 LP  0  0  0  0  0  0  0  0  0  0  0  0  # atno 17320 bound_to 7965
  145.5870  139.1493  143.3203 LP  0  0  0  0  0  0  0  0  0  0  0  0  # atno 17321 bound_to 7965
  139.6317  144.7645  151.2522 LP  0  0  0  0  0  0  0  0  0  0  0  0  # atno 17342 bound_to 10162
  140.7443  143.6468  150.8285 LP  0  0  0  0  0  0  0  0  0  0  0  0  # atno 17343 bound_to 10162
  156.7769  130.9207  151.3645 LP  0  0  0  0  0  0  0  0  0  0  0  0  # atno 17370 bound_to 10713
  157.6671  130.9017  149.9956 LP  0  0  0  0  0  0  0  0  0  0  0  0  # atno 17371 bound_to 10713
  140.3379  134.2736  155.7217 LP  0  0  0  0  0  0  0  0  0  0  0  0  # atno 17394 bound_to 11000
  141.2072  133.7813  157.0134 LP  0  0  0  0  0  0  0  0  0  0  0  0  # atno 17395 bound_to 11000

$$$$
