AV-unprocessed.smi:155|AV-procd|sdf|1285|dock3
  -GOLD-   2262018563D 1   1.00000     0.00000
 Structure written by MMmdl.
 64 67  0  0  0  0  0  0  0  0  3 V2000
  144.2680  132.9341  149.2179 C   0  0  0  0  0  0  0  0  0  0  0  0
  143.8656  133.7899  150.3581 N   0  3  0  0  0  0  0  0  0  0  0  0
  143.9169  133.0481  151.6376 C   0  0  0  0  0  0  0  0  0  0  0  0
  144.6150  135.0705  150.4260 C   0  0  0  0  0  0  0  0  0  0  0  0
  146.0207  134.9078  151.0434 C   0  0  0  0  0  0  0  0  0  0  0  0
  146.1959  135.6758  152.3055 N   0  3  2  0  0  0  0  0  0  0  0  0
  145.6534  134.9599  153.4909 C   0  0  0  0  0  0  0  0  0  0  0  0
  146.6138  135.0892  154.6848 C   0  0  0  0  0  0  0  0  0  0  0  0
  146.6190  136.4687  155.3607 C   0  0  0  0  0  0  0  0  0  0  0  0
  146.8483  137.5555  154.4067 N   0  0  0  0  0  0  0  0  0  0  0  0
  147.7348  138.5444  154.6942 C   0  0  0  0  0  0  0  0  0  0  0  0
  147.9825  139.5144  153.7744 N   0  0  0  0  0  0  0  0  0  0  0  0
  148.8604  140.4876  154.0346 C   0  0  0  0  0  0  0  0  0  0  0  0
  149.5911  140.6793  155.1340 N   0  0  0  0  0  0  0  0  0  0  0  0
  149.3448  139.7133  156.0639 C   0  0  0  0  0  0  0  0  0  0  0  0
  148.4421  138.6205  155.9287 C   0  0  0  0  0  0  0  0  0  0  0  0
  148.4532  137.8552  157.0901 N   0  0  0  0  0  0  0  0  0  0  0  0
  149.3197  138.4546  157.8609 C   0  0  0  0  0  0  0  0  0  0  0  0
  149.9002  139.5801  157.3231 N   0  0  0  0  0  0  0  0  0  0  0  0
  150.8850  140.4423  157.9523 C   0  0  0  0  0  0  0  0  0  0  0  0
  150.9143  141.8538  157.3274 C   0  0  1  0  0  0  0  0  0  0  0  0
  149.6075  142.3922  157.4015 O   0  0  0  0  0  0  0  0  0  0  0  0
  151.8666  142.8201  158.0599 C   0  0  1  0  0  0  0  0  0  0  0  0
  151.7508  144.2843  157.6274 C   0  0  0  0  0  0  0  0  0  0  0  0
  152.2233  145.0642  158.8440 C   0  0  0  0  0  0  0  0  0  0  0  0
  152.1817  144.0379  159.9777 C   0  0  0  0  0  0  0  0  0  0  0  0
  151.5051  142.9160  159.4297 O   0  0  0  0  0  0  0  0  0  0  0  0
  145.7455  137.8932  153.5083 C   0  0  0  0  0  0  0  0  0  0  0  0
  145.7348  137.0880  152.1921 C   0  0  0  0  0  0  0  0  0  0  0  0
  145.3227  132.6635  149.2837 H   0  0  0  0  0  0  0  0  0  0  0  0
  144.1007  133.4357  148.2652 H   0  0  0  0  0  0  0  0  0  0  0  0
  143.6827  132.0139  149.2037 H   0  0  0  0  0  0  0  0  0  0  0  0
  144.9397  132.7555  151.8793 H   0  0  0  0  0  0  0  0  0  0  0  0
  143.3066  132.1456  151.5857 H   0  0  0  0  0  0  0  0  0  0  0  0
  143.5324  133.6574  152.4563 H   0  0  0  0  0  0  0  0  0  0  0  0
  144.7293  135.4524  149.4101 H   0  0  0  0  0  0  0  0  0  0  0  0
  144.0264  135.8079  150.9735 H   0  0  0  0  0  0  0  0  0  0  0  0
  146.2533  133.8572  151.2217 H   0  0  0  0  0  0  0  0  0  0  0  0
  146.7469  135.2728  150.3153 H   0  0  0  0  0  0  0  0  0  0  0  0
  144.6474  135.3022  153.7382 H   0  0  0  0  0  0  0  0  0  0  0  0
  145.5550  133.8960  153.2725 H   0  0  0  0  0  0  0  0  0  0  0  0
  146.3435  134.3463  155.4361 H   0  0  0  0  0  0  0  0  0  0  0  0
  147.6257  134.8340  154.3670 H   0  0  0  0  0  0  0  0  0  0  0  0
  145.6661  136.6382  155.8635 H   0  0  0  0  0  0  0  0  0  0  0  0
  147.3771  136.4514  156.1438 H   0  0  0  0  0  0  0  0  0  0  0  0
  148.9980  141.2162  153.2489 H   0  0  0  0  0  0  0  0  0  0  0  0
  149.5568  138.0945  158.8516 H   0  0  0  0  0  0  0  0  0  0  0  0
  150.6702  140.5003  159.0204 H   0  0  0  0  0  0  0  0  0  0  0  0
  151.8565  139.9566  157.8567 H   0  0  0  0  0  0  0  0  0  0  0  0
  151.2049  141.7779  156.2786 H   0  0  0  0  0  0  0  0  0  0  0  0
  149.5266  143.0728  156.7513 H   0  0  0  0  0  0  0  0  0  0  0  0
  152.9045  142.4910  157.9733 H   0  0  0  0  0  0  0  0  0  0  0  0
  152.3325  144.5072  156.7324 H   0  0  0  0  0  0  0  0  0  0  0  0
  150.7086  144.5333  157.4216 H   0  0  0  0  0  0  0  0  0  0  0  0
  153.2361  145.4454  158.7084 H   0  0  0  0  0  0  0  0  0  0  0  0
  151.5671  145.9122  159.0418 H   0  0  0  0  0  0  0  0  0  0  0  0
  153.1916  143.7432  160.2662 H   0  0  0  0  0  0  0  0  0  0  0  0
  151.6687  144.4111  160.8642 H   0  0  0  0  0  0  0  0  0  0  0  0
  144.8143  137.7003  154.0422 H   0  0  0  0  0  0  0  0  0  0  0  0
  145.7235  138.9616  153.2890 H   0  0  0  0  0  0  0  0  0  0  0  0
  146.3825  137.5978  151.4805 H   0  0  0  0  0  0  0  0  0  0  0  0
  144.7307  137.1175  151.7670 H   0  0  0  0  0  0  0  0  0  0  0  0
  142.8942  134.0277  150.2142 H   0  0  0  0  0  0  0  0  0  0  0  0
  147.1927  135.7183  152.4638 H   0  0  0  0  0  0  0  0  0  0  0  0
  1  2  1  0  0  0  0
  1 30  1  0  0  0  0
  1 31  1  0  0  0  0
  1 32  1  0  0  0  0
  2  3  1  0  0  0  0
  2  4  1  0  0  0  0
  2 63  1  0  0  0  0
  3 33  1  0  0  0  0
  3 34  1  0  0  0  0
  3 35  1  0  0  0  0
  4  5  1  0  0  0  0
  4 36  1  0  0  0  0
  4 37  1  0  0  0  0
  5  6  1  0  0  0  0
  5 38  1  0  0  0  0
  5 39  1  0  0  0  0
  6 29  1  0  0  0  0
  6  7  1  0  0  0  0
  6 64  1  0  0  0  0
  7  8  1  0  0  0  0
  7 40  1  0  0  0  0
  7 41  1  0  0  0  0
  8  9  1  0  0  0  0
  8 42  1  0  0  0  0
  8 43  1  0  0  0  0
  9 10  1  0  0  0  0
  9 44  1  0  0  0  0
  9 45  1  0  0  0  0
 10 11  1  0  0  0  0
 10 28  1  0  0  0  0
 11 16  1  0  0  0  0
 11 12  2  0  0  0  0
 12 13  1  0  0  0  0
 13 14  2  0  0  0  0
 13 46  1  0  0  0  0
 14 15  1  0  0  0  0
 15 19  1  0  0  0  0
 15 16  2  0  0  0  0
 16 17  1  0  0  0  0
 17 18  2  0  0  0  0
 18 19  1  0  0  0  0
 18 47  1  0  0  0  0
 19 20  1  0  0  0  0
 20 21  1  0  0  0  0
 20 48  1  0  0  0  0
 20 49  1  0  0  0  0
 21 22  1  0  0  0  0
 21 23  1  0  0  0  0
 21 50  1  0  0  0  0
 22 51  1  0  0  0  0
 23 27  1  0  0  0  0
 23 24  1  0  0  0  0
 23 52  1  0  0  0  0
 24 25  1  0  0  0  0
 24 53  1  0  0  0  0
 24 54  1  0  0  0  0
 25 26  1  0  0  0  0
 25 55  1  0  0  0  0
 25 56  1  0  0  0  0
 26 27  1  0  0  0  0
 26 57  1  0  0  0  0
 26 58  1  0  0  0  0
 28 29  1  0  0  0  0
 28 59  1  0  0  0  0
 28 60  1  0  0  0  0
 29 61  1  0  0  0  0
 29 62  1  0  0  0  0
M  CHG  1   2   1
M  CHG  1   6   1
M  END
> <s_m_source_file>
AV-unprocessed.smi

> <i_m_source_file_index>
155

> <i_lp_mmshare_version>
43012

> <i_f3d_flags>
0

> <s_epik_input>
W0NIM11OKFtDSDNdKVtDSDJdW0NIMl1OMVtDSDJdW0NIMl1bQ0gyXU4oW0NIMl1bQ0gyXTEpYyhuW2NIXW4yKWMoYzIzKW5bY0hdbjNbQ0gyXVtDQEhdKFtPSF0pW0NAQEhdNFtDSDJdW0NIMl1bQ0gyXU80

> <s_epik_cmdline>
J2VwaWtfcHl0aG9uJywgJy1waCcsICc3LjAnLCAnLXRuJywgJzgnLCAnLW1hJywgJzIwMCcsICctbWV0YWxfYmluZGluZycsICctaW1hZScsICc8aW5maWxlLm1hZT4nLCAnLW9tYWUnLCAnPG91dGZpbGUubWFlPic=

> <r_lp_tautomer_probability>
1

> <r_epik_Ionization_Penalty>
3.0333

> <r_epik_Ionization_Penalty_Charging>
3.03317

> <r_epik_Ionization_Penalty_Neutral>
0.000131872

> <r_epik_State_Penalty>
1.99939

> <r_epik_Charging_Adjusted_Penalty>
5.03256

> <i_epik_Tot_Q>
2

> <i_epik_Tot_abs_Q>
2

> <r_epik_Metal_State_Penalty>
2.00021

> <b_epik_Metal_Only>
0

> <s_lp_Force_Field>
OPLS_2005

> <r_lp_Energy>
63.1179

> <b_lp_Chiralities_Consistent>
1

> <s_lp_Variant>
AV-unprocessed.smi:155-19

> <Gold.Version>
5.8.1

> <Gold.Id.Protein>
6NUR|6NUR_protein|mol2

> <Gold.PLP.Fitness>
58.2386

> <Gold.PLP.PLP>
-43.6087

> <Gold.PLP.part.hbond>
-3.0000

> <Gold.PLP.part.metal>
0.0000

> <Gold.PLP.part.buried>
-7.0224

> <Gold.PLP.part.nonpolar>
-34.6812

> <Gold.PLP.part.repulsive>
0.2905

> <Gold.PLP.ligand.clash>
0.0000

> <Gold.PLP.ligand.torsion>
1.2096

> <Gold.PLP.Chemscore.Hbond>
5.0000

> <Gold.PLP.Chemscore.CHOScore>
0.5730

> <Gold.PLP.Chemscore.Metal>
0.0000

> <Gold.Chemscore.Hbonds>
donor molecule, donor type, donor heavy atom, donor atom, acceptor molecule, acceptor atom, score
      L1  H     2    63       P1 10186  1.98
      L1  H     6    64       P1  7948  1.95
      L1  H    22    51       P1  8028  0.89
      L1  C    13    46       P1  7957  0.59

> <Gold.PLP.Chemscore.Internal.Correction>
0.3302

> <Gold.Rescore>
     Score         DG    S(hbond)    S(metal)    S(lipo)     H(rot)  DE(clash)    DE(int)     intcor
     16.51     -20.79       2.94        0.00     106.99       2.75       0.49       3.79       ----

> <Gold.Chemscore.Fitness>
16.5134

> <Gold.Chemscore.DG>
-20.7895

> <Gold.Chemscore.ZeroCoef>
-5.4800

> <Gold.Chemscore.Hbond>
2.9430

> <Gold.Chemscore.Metal>
0.0000

> <Gold.Chemscore.Lipo>
106.9934

> <Gold.Chemscore.Internal_Hbond>
0.0000

> <Gold.Chemscore.DEClash>
0.4899

> <Gold.Chemscore.DEInternal>
3.7862

> <Gold.Chemscore.Rot>
2.7493

> <Gold.Chemscore.Internal.Correction>
   9.000000E+99

> <Gold.Chemscore.Hbonds>
donor molecule, donor type, donor heavy atom, donor atom, acceptor molecule, acceptor atom, score
      L1  H     2    63       P1 10186  0.90
      L1  H     6    64       P1  7948  0.93
      L1  H    22    51       P1  8028  0.85

> <Gold.Chemscore.Hbond.Weighted>
-9.8295

> <Gold.Chemscore.Metal.Weighted>
-0.0000

> <Gold.Chemscore.Lipo.Weighted>
-12.5182

> <Gold.Chemscore.Internal_Hbond.Weighted>
0.0000

> <Gold.Chemscore.DEClash.Weighted>
0.4899

> <Gold.Chemscore.DEInternal.Weighted>
3.7862

> <Gold.Chemscore.Rot.Weighted>
7.0383

> <Gold.Chemscore.Internal.Correction.Weighted>
   9.000000E+99

> <Gold.Protein.RotatedTorsions>
[ 6907 6896 6895 6894 ] final   67.18 input  -60.11 | X-H torsion
[ 7974 7965 7964 7962 ] final   14.19 input  175.53 | X-H torsion
[ 8008 7997 7996 7995 ] final   74.53 input   59.86 | X-H torsion
[ 10167 10162 10161 10158 ] final  109.12 input  -65.29 | X-H torsion
[ 10718 10713 10712 10709 ] final -173.85 input   66.30 | X-H torsion
[ 10763 10752 10751 10750 ] final  -44.14 input  -60.55 | X-H torsion
[ 11005 11000 10999 10996 ] final  119.41 input  -57.11 | X-H torsion

> <Gold.Protein.ActiveResidues>
 VAL166  LYS551  ARG553  GLY616  TRP617  ASP618  TYR619  PRO620  LYS621  CYS622 
 ASP623  PHE694  ASN695  SER759  ASP760  ASP761  ALA762  ILE779  LEU786  VAL792 
 PHE793  MET794  SER795  GLU796  ALA797  LYS798  CYS799  TRP800  GLU811  SER814 

> <Gold.Protein.RotatedAtoms>
  152.4534  134.5344  159.9820 H   0  0  0  0  0  0  0  0  0  0  0  0  # atno 6907 bound_to 6896
  151.5411  133.3427  159.2943 H   0  0  0  0  0  0  0  0  0  0  0  0  # atno 6908 bound_to 6896
  150.8470  134.7814  159.7041 H   0  0  0  0  0  0  0  0  0  0  0  0  # atno 6909 bound_to 6896
  146.2311  139.9077  142.8529 H   0  0  0  0  0  0  0  0  0  0  0  0  # atno 7974 bound_to 7965
  155.7998  140.3476  155.5396 H   0  0  0  0  0  0  0  0  0  0  0  0  # atno 8008 bound_to 7997
  155.8550  140.0962  157.1671 H   0  0  0  0  0  0  0  0  0  0  0  0  # atno 8009 bound_to 7997
  154.4009  140.1369  156.3878 H   0  0  0  0  0  0  0  0  0  0  0  0  # atno 8010 bound_to 7997
  139.6792  144.7119  151.1547 H   0  0  0  0  0  0  0  0  0  0  0  0  # atno 10167 bound_to 10162
  156.7764  130.9467  151.3120 H   0  0  0  0  0  0  0  0  0  0  0  0  # atno 10718 bound_to 10713
  154.0071  135.6686  153.4763 H   0  0  0  0  0  0  0  0  0  0  0  0  # atno 10763 bound_to 10752
  153.0637  135.5013  154.8147 H   0  0  0  0  0  0  0  0  0  0  0  0  # atno 10764 bound_to 10752
  154.7018  135.3080  154.9294 H   0  0  0  0  0  0  0  0  0  0  0  0  # atno 10765 bound_to 10752
  139.9145  134.9628  156.7651 H   0  0  0  0  0  0  0  0  0  0  0  0  # atno 11005 bound_to 11000
  145.2260  140.9954  143.4018 LP  0  0  0  0  0  0  0  0  0  0  0  0  # atno 17320 bound_to 7965
  144.9570  139.4021  143.6374 LP  0  0  0  0  0  0  0  0  0  0  0  0  # atno 17321 bound_to 7965
  140.7646  143.5725  150.8980 LP  0  0  0  0  0  0  0  0  0  0  0  0  # atno 17342 bound_to 10162
  139.9396  143.6397  152.3057 LP  0  0  0  0  0  0  0  0  0  0  0  0  # atno 17343 bound_to 10162
  157.6667  130.9014  149.9947 LP  0  0  0  0  0  0  0  0  0  0  0  0  # atno 17370 bound_to 10713
  156.1245  130.3645  149.9832 LP  0  0  0  0  0  0  0  0  0  0  0  0  # atno 17371 bound_to 10713
  140.6666  133.9597  155.7834 LP  0  0  0  0  0  0  0  0  0  0  0  0  # atno 17394 bound_to 11000
  141.0606  134.0351  157.3663 LP  0  0  0  0  0  0  0  0  0  0  0  0  # atno 17395 bound_to 11000

$$$$
