AV-unprocessed.smi:284|AV-procd|sdf|2161|dock7
  -GOLD-   2262021513D 1   1.00000     0.00000
 Structure written by MMmdl.
 60 62  0  0  0  0  0  0  0  0  1 V2000
  147.4061  135.4700  163.1162 C   0  0  0  0  0  0  0  0  0  0  0  0
  147.7027  134.9932  161.7028 C   0  0  0  0  0  0  0  0  0  0  0  0
  147.8427  133.6822  161.3997 C   0  0  0  0  0  0  0  0  0  0  0  0
  148.1093  133.2103  160.1259 N   0  0  0  0  0  0  0  0  0  0  0  0
  148.3507  131.7371  159.8545 C   0  0  2  0  0  0  0  0  0  0  0  0
  148.0297  130.8113  161.0370 C   0  0  0  0  0  0  0  0  0  0  0  0
  149.4129  130.4065  161.5158 C   0  0  1  0  0  0  0  0  0  0  0  0
  149.3852  129.1178  162.0954 O   0  0  0  0  0  0  0  0  0  0  0  0
  150.2298  130.4481  160.2213 C   0  0  2  0  0  0  0  0  0  0  0  0
  151.7364  130.6397  160.4526 C   0  0  0  0  0  0  0  0  0  0  0  0
  152.2783  129.5040  161.0920 O   0  0  0  0  0  0  0  0  0  0  0  0
  149.6996  131.5800  159.5380 O   0  0  0  0  0  0  0  0  0  0  0  0
  148.3563  134.1368  159.0893 C   0  0  0  0  0  0  0  0  0  0  0  0
  148.7047  133.7580  157.9687 O   0  0  0  0  0  0  0  0  0  0  0  0
  148.1930  135.5132  159.3658 N   0  0  0  0  0  0  0  0  0  0  0  0
  148.4162  136.4868  158.2731 C   0  0  0  0  0  0  0  0  0  0  0  0
  149.3367  137.6556  158.6601 C   0  0  0  0  0  0  0  0  0  0  0  0
  150.2032  137.5112  159.5233 O   0  0  0  0  0  0  0  0  0  0  0  0
  149.0905  138.8089  158.0121 N   0  0  0  0  0  0  0  0  0  0  0  0
  149.7638  140.0556  158.1239 C   0  0  0  0  0  0  0  0  0  0  0  0
  149.1822  141.2966  157.7764 C   0  0  0  0  0  0  0  0  0  0  0  0
  149.9060  142.4939  157.9391 C   0  0  0  0  0  0  0  0  0  0  0  0
  151.2235  142.4845  158.4600 C   0  0  0  0  0  0  0  0  0  0  0  0
  152.0442  143.7739  158.6549 C   0  0  0  0  0  0  0  0  0  0  0  0
  152.2040  144.4933  157.2996 C   0  0  0  0  0  0  0  0  0  0  0  0
  153.4599  143.5092  159.2155 C   0  0  0  0  0  0  0  0  0  0  0  0
  151.3180  144.7087  159.6450 C   0  0  0  0  0  0  0  0  0  0  0  0
  151.7881  141.2379  158.8185 C   0  0  0  0  0  0  0  0  0  0  0  0
  151.0669  140.0402  158.6571 C   0  0  0  0  0  0  0  0  0  0  0  0
  147.8600  136.0006  160.6526 C   0  0  0  0  0  0  0  0  0  0  0  0
  147.7321  137.2100  160.8535 O   0  0  0  0  0  0  0  0  0  0  0  0
  147.3012  134.6380  163.8130 H   0  0  0  0  0  0  0  0  0  0  0  0
  146.4777  136.0417  163.1389 H   0  0  0  0  0  0  0  0  0  0  0  0
  148.2115  136.1092  163.4793 H   0  0  0  0  0  0  0  0  0  0  0  0
  147.7492  132.9786  162.2108 H   0  0  0  0  0  0  0  0  0  0  0  0
  147.7258  131.4740  159.0002 H   0  0  0  0  0  0  0  0  0  0  0  0
  147.3983  131.2758  161.7945 H   0  0  0  0  0  0  0  0  0  0  0  0
  147.4945  129.9462  160.6420 H   0  0  0  0  0  0  0  0  0  0  0  0
  149.7986  131.1285  162.2357 H   0  0  0  0  0  0  0  0  0  0  0  0
  148.5657  129.0102  162.5538 H   0  0  0  0  0  0  0  0  0  0  0  0
  150.0277  129.5509  159.6323 H   0  0  0  0  0  0  0  0  0  0  0  0
  152.2593  130.8366  159.5161 H   0  0  0  0  0  0  0  0  0  0  0  0
  151.9112  131.4943  161.1066 H   0  0  0  0  0  0  0  0  0  0  0  0
  152.8066  129.0305  160.4677 H   0  0  0  0  0  0  0  0  0  0  0  0
  148.8339  135.9914  157.3950 H   0  0  0  0  0  0  0  0  0  0  0  0
  147.4718  136.8989  157.9142 H   0  0  0  0  0  0  0  0  0  0  0  0
  148.2860  138.8064  157.4023 H   0  0  0  0  0  0  0  0  0  0  0  0
  148.1742  141.3592  157.3969 H   0  0  0  0  0  0  0  0  0  0  0  0
  149.4153  143.4124  157.6581 H   0  0  0  0  0  0  0  0  0  0  0  0
  152.7964  145.4033  157.4005 H   0  0  0  0  0  0  0  0  0  0  0  0
  151.2437  144.7834  156.8730 H   0  0  0  0  0  0  0  0  0  0  0  0
  152.7064  143.8549  156.5719 H   0  0  0  0  0  0  0  0  0  0  0  0
  154.0500  142.8834  158.5447 H   0  0  0  0  0  0  0  0  0  0  0  0
  153.4230  143.0209  160.1901 H   0  0  0  0  0  0  0  0  0  0  0  0
  154.0126  144.4402  159.3470 H   0  0  0  0  0  0  0  0  0  0  0  0
  151.8881  145.6218  159.8193 H   0  0  0  0  0  0  0  0  0  0  0  0
  151.1735  144.2241  160.6113 H   0  0  0  0  0  0  0  0  0  0  0  0
  150.3367  145.0125  159.2807 H   0  0  0  0  0  0  0  0  0  0  0  0
  152.7863  141.1877  159.2265 H   0  0  0  0  0  0  0  0  0  0  0  0
  151.5243  139.1041  158.9425 H   0  0  0  0  0  0  0  0  0  0  0  0
  1  2  1  0  0  0  0
  1 32  1  0  0  0  0
  1 33  1  0  0  0  0
  1 34  1  0  0  0  0
  2 30  1  0  0  0  0
  2  3  2  0  0  0  0
  3  4  1  0  0  0  0
  3 35  1  0  0  0  0
  4  5  1  0  0  0  0
  4 13  1  0  0  0  0
  5 12  1  0  0  0  0
  5  6  1  0  0  0  0
  5 36  1  0  0  0  0
  6  7  1  0  0  0  0
  6 37  1  0  0  0  0
  6 38  1  0  0  0  0
  7  8  1  0  0  0  0
  7  9  1  0  0  0  0
  7 39  1  0  0  0  0
  8 40  1  0  0  0  0
  9 10  1  0  0  0  0
  9 12  1  0  0  0  0
  9 41  1  0  0  0  0
 10 11  1  0  0  0  0
 10 42  1  0  0  0  0
 10 43  1  0  0  0  0
 11 44  1  0  0  0  0
 13 14  2  0  0  0  0
 13 15  1  0  0  0  0
 15 16  1  0  0  0  0
 15 30  1  0  0  0  0
 16 17  1  0  0  0  0
 16 45  1  0  0  0  0
 16 46  1  0  0  0  0
 17 18  2  0  0  0  0
 17 19  1  0  0  0  0
 19 20  1  0  0  0  0
 19 47  1  0  0  0  0
 20 29  1  0  0  0  0
 20 21  2  0  0  0  0
 21 22  1  0  0  0  0
 21 48  1  0  0  0  0
 22 23  2  0  0  0  0
 22 49  1  0  0  0  0
 23 24  1  0  0  0  0
 23 28  1  0  0  0  0
 24 25  1  0  0  0  0
 24 26  1  0  0  0  0
 24 27  1  0  0  0  0
 25 50  1  0  0  0  0
 25 51  1  0  0  0  0
 25 52  1  0  0  0  0
 26 53  1  0  0  0  0
 26 54  1  0  0  0  0
 26 55  1  0  0  0  0
 27 56  1  0  0  0  0
 27 57  1  0  0  0  0
 27 58  1  0  0  0  0
 28 29  2  0  0  0  0
 28 59  1  0  0  0  0
 29 60  1  0  0  0  0
 30 31  2  0  0  0  0
M  END
> <s_m_source_file>
AV-unprocessed.smi

> <i_m_source_file_index>
284

> <i_lp_mmshare_version>
43012

> <i_f3d_flags>
0

> <s_epik_input>
W09IXVtDSDJdW0NAQEhdKE8xKVtDQEhdKFtPSF0pW0NIMl1bQ0BIXTFuKFtjSF1jMltDSDNdKWMoPU8pbihjMj1PKVtDSDJdQyg9TylbTkhdYzNbY0hdW2NIXWMoQyhbQ0gzXSkoW0NIM10pW0NIM10pW2NIXVtjSF0z

> <s_epik_cmdline>
J2VwaWtfcHl0aG9uJywgJy1waCcsICc3LjAnLCAnLXRuJywgJzgnLCAnLW1hJywgJzIwMCcsICctbWV0YWxfYmluZGluZycsICctaW1hZScsICc8aW5maWxlLm1hZT4nLCAnLW9tYWUnLCAnPG91dGZpbGUubWFlPic=

> <r_lp_tautomer_probability>
1

> <r_epik_Ionization_Penalty>
4.92358e-06

> <r_epik_Ionization_Penalty_Charging>
1.29777e-07

> <r_epik_Ionization_Penalty_Neutral>
4.79381e-06

> <r_epik_State_Penalty>
-0

> <r_epik_Charging_Adjusted_Penalty>
1.29777e-07

> <i_epik_Tot_Q>
0

> <i_epik_Tot_abs_Q>
0

> <r_epik_Metal_State_Penalty>
-0

> <b_epik_Metal_Only>
0

> <s_epik_Chemistry_Notes>
This compound contains an acetal/aminal-like group ( X-CH(R)-Y where X, Y are N, S, or O) that may be acid/base labile, releasing an aldehyde.

> <s_lp_Force_Field>
OPLS_2005

> <r_lp_Energy>
40.5501

> <b_lp_Chiralities_Consistent>
1

> <s_lp_Variant>
AV-unprocessed.smi:284-5

> <Gold.Version>
5.8.1

> <Gold.Id.Protein>
6NUR|6NUR_protein|mol2

> <Gold.PLP.Fitness>
51.4879

> <Gold.PLP.PLP>
-47.3609

> <Gold.PLP.part.hbond>
-3.0623

> <Gold.PLP.part.metal>
0.0000

> <Gold.PLP.part.buried>
-7.2984

> <Gold.PLP.part.nonpolar>
-36.4026

> <Gold.PLP.part.repulsive>
0.1536

> <Gold.PLP.ligand.clash>
0.0000

> <Gold.PLP.ligand.torsion>
0.7183

> <Gold.PLP.Chemscore.Hbond>
1.7760

> <Gold.PLP.Chemscore.CHOScore>
0.0000

> <Gold.PLP.Chemscore.Metal>
0.0000

> <Gold.Chemscore.Hbonds>
donor molecule, donor type, donor heavy atom, donor atom, acceptor molecule, acceptor atom, score
      P1  H  6896  6907       L1    12  0.12
      P1  H  6931  6943       L1    31  0.85
      P1  H  6934  6947       L1    31  0.88

> <Gold.PLP.Chemscore.Internal.Correction>
0.2356

> <Gold.Rescore>
     Score         DG    S(hbond)    S(metal)    S(lipo)     H(rot)  DE(clash)    DE(int)     intcor
     12.84     -18.67       2.23        0.00     120.73       3.27       0.13       5.70       ----

> <Gold.Chemscore.Fitness>
12.8393

> <Gold.Chemscore.DG>
-18.6691

> <Gold.Chemscore.ZeroCoef>
-5.4800

> <Gold.Chemscore.Hbond>
2.2285

> <Gold.Chemscore.Metal>
0.0000

> <Gold.Chemscore.Lipo>
120.7344

> <Gold.Chemscore.Internal_Hbond>
0.0000

> <Gold.Chemscore.DEClash>
0.1319

> <Gold.Chemscore.DEInternal>
5.6978

> <Gold.Chemscore.Rot>
3.2735

> <Gold.Chemscore.Internal.Correction>
   9.000000E+99

> <Gold.Chemscore.Hbonds>
donor molecule, donor type, donor heavy atom, donor atom, acceptor molecule, acceptor atom, score
      P1  H  6896  6907       L1    12  0.13
      P1  H  6931  6943       L1    31  0.81
      P1  H  6934  6947       L1    31  0.86

> <Gold.Chemscore.Hbond.Weighted>
-7.4433

> <Gold.Chemscore.Metal.Weighted>
-0.0000

> <Gold.Chemscore.Lipo.Weighted>
-14.1259

> <Gold.Chemscore.Internal_Hbond.Weighted>
0.0000

> <Gold.Chemscore.DEClash.Weighted>
0.1319

> <Gold.Chemscore.DEInternal.Weighted>
5.6978

> <Gold.Chemscore.Rot.Weighted>
8.3801

> <Gold.Chemscore.Internal.Correction.Weighted>
   9.000000E+99

> <Gold.Protein.RotatedTorsions>
[ 6907 6896 6895 6894 ] final -144.62 input  -60.11 | X-H torsion
[ 7974 7965 7964 7962 ] final    0.28 input  175.53 | X-H torsion
[ 8008 7997 7996 7995 ] final   -5.61 input   59.86 | X-H torsion
[ 10167 10162 10161 10158 ] final  140.41 input  -65.29 | X-H torsion
[ 10718 10713 10712 10709 ] final   79.67 input   66.30 | X-H torsion
[ 10763 10752 10751 10750 ] final -128.83 input  -60.55 | X-H torsion
[ 11005 11000 10999 10996 ] final  156.27 input  -57.11 | X-H torsion

> <Gold.Protein.ActiveResidues>
 VAL166  LYS551  ARG553  GLY616  TRP617  ASP618  TYR619  PRO620  LYS621  CYS622 
 ASP623  PHE694  ASN695  SER759  ASP760  ASP761  ALA762  ILE779  LEU786  VAL792 
 PHE793  MET794  SER795  GLU796  ALA797  LYS798  CYS799  TRP800  GLU811  SER814 

> <Gold.Protein.RotatedAtoms>
  151.1165  133.5135  159.2603 H   0  0  0  0  0  0  0  0  0  0  0  0  # atno 6907 bound_to 6896
  151.1909  135.0401  159.8842 H   0  0  0  0  0  0  0  0  0  0  0  0  # atno 6908 bound_to 6896
  152.5453  134.1006  159.8369 H   0  0  0  0  0  0  0  0  0  0  0  0  # atno 6909 bound_to 6896
  146.2433  140.1161  142.8342 H   0  0  0  0  0  0  0  0  0  0  0  0  # atno 7974 bound_to 7965
  154.6022  140.2454  155.7778 H   0  0  0  0  0  0  0  0  0  0  0  0  # atno 8008 bound_to 7997
  156.2318  140.2964  156.0160 H   0  0  0  0  0  0  0  0  0  0  0  0  # atno 8009 bound_to 7997
  155.2192  140.0400  157.2936 H   0  0  0  0  0  0  0  0  0  0  0  0  # atno 8010 bound_to 7997
  139.5049  144.6235  151.5993 H   0  0  0  0  0  0  0  0  0  0  0  0  # atno 10167 bound_to 10162
  157.6783  130.9925  150.1966 H   0  0  0  0  0  0  0  0  0  0  0  0  # atno 10718 bound_to 10713
  154.8757  135.3915  154.3820 H   0  0  0  0  0  0  0  0  0  0  0  0  # atno 10763 bound_to 10752
  153.4566  135.7029  153.6081 H   0  0  0  0  0  0  0  0  0  0  0  0  # atno 10764 bound_to 10752
  153.4597  135.3815  155.2300 H   0  0  0  0  0  0  0  0  0  0  0  0  # atno 10765 bound_to 10752
  140.1660  134.8577  157.2632 H   0  0  0  0  0  0  0  0  0  0  0  0  # atno 11005 bound_to 11000
  145.0446  140.8971  143.5032 LP  0  0  0  0  0  0  0  0  0  0  0  0  # atno 17320 bound_to 7965
  145.1247  139.2670  143.5570 LP  0  0  0  0  0  0  0  0  0  0  0  0  # atno 17321 bound_to 7965
  140.5945  143.9720  150.6346 LP  0  0  0  0  0  0  0  0  0  0  0  0  # atno 17342 bound_to 10162
  140.2912  143.3323  152.1061 LP  0  0  0  0  0  0  0  0  0  0  0  0  # atno 17343 bound_to 10162
  156.2666  130.3717  149.8075 LP  0  0  0  0  0  0  0  0  0  0  0  0  # atno 17370 bound_to 10713
  156.5804  130.8463  151.3381 LP  0  0  0  0  0  0  0  0  0  0  0  0  # atno 17371 bound_to 10713
  140.2434  134.3769  155.7471 LP  0  0  0  0  0  0  0  0  0  0  0  0  # atno 17394 bound_to 11000
  141.2213  133.7277  156.8824 LP  0  0  0  0  0  0  0  0  0  0  0  0  # atno 17395 bound_to 11000

$$$$
