AV-unprocessed.smi:3285|AV-procd|sdf|12586|dock3
  -GOLD-   2272018503D 1   1.00000     0.00000
 Structure written by MMmdl.
 45 46  0  0  0  0  0  0  0  0  2 V2000
  147.7360  140.5439  154.0778 C   0  0  0  0  0  0  0  0  0  0  0  0
  149.0716  139.8599  154.1321 C   0  0  0  0  0  0  0  0  0  0  0  0
  149.2520  138.7435  153.4476 N   0  0  0  0  0  0  0  0  0  0  0  0
  150.5700  138.3502  153.6946 O   0  0  0  0  0  0  0  0  0  0  0  0
  151.1397  139.2558  154.5285 C   0  0  0  0  0  0  0  0  0  0  0  0
  152.5611  139.0044  154.9039 C   0  0  0  0  0  0  0  0  0  0  0  0
  150.2455  140.2430  154.8440 C   0  0  0  0  0  0  0  0  0  0  0  0
  150.4429  141.4499  155.7265 C   0  0  0  0  0  0  0  0  0  0  0  0
  149.3918  141.5294  156.8443 C   0  0  0  0  0  0  0  0  0  0  0  0
  149.4234  142.8437  157.5215 N   0  3  0  0  0  0  0  0  0  0  0  0
  150.7669  143.3349  157.8968 C   0  0  2  0  0  0  0  0  0  0  0  0
  151.5656  142.1977  158.5577 C   0  0  0  0  0  0  0  0  0  0  0  0
  152.9594  142.6702  159.0042 C   0  0  0  0  0  0  0  0  0  0  0  0
  152.8884  143.8848  159.9519 C   0  0  2  0  0  0  0  0  0  0  0  0
  152.3798  143.4841  161.3517 C   0  0  0  0  0  0  0  0  0  0  0  0
  152.0819  145.0290  159.2858 C   0  0  2  0  0  0  0  0  0  0  0  0
  152.0059  146.3006  160.1472 C   0  0  0  0  0  0  0  0  0  0  0  0
  150.6838  144.5574  158.8357 C   0  0  0  0  0  0  0  0  0  0  0  0
  147.8006  141.5756  154.4223 H   0  0  0  0  0  0  0  0  0  0  0  0
  147.0096  140.0290  154.7063 H   0  0  0  0  0  0  0  0  0  0  0  0
  147.3423  140.5623  153.0611 H   0  0  0  0  0  0  0  0  0  0  0  0
  152.9302  139.7663  155.5903 H   0  0  0  0  0  0  0  0  0  0  0  0
  153.1996  139.0103  154.0206 H   0  0  0  0  0  0  0  0  0  0  0  0
  152.6650  138.0344  155.3905 H   0  0  0  0  0  0  0  0  0  0  0  0
  151.4346  141.4297  156.1796 H   0  0  0  0  0  0  0  0  0  0  0  0
  150.4157  142.3691  155.1405 H   0  0  0  0  0  0  0  0  0  0  0  0
  148.3980  141.3559  156.4290 H   0  0  0  0  0  0  0  0  0  0  0  0
  149.5776  140.7393  157.5716 H   0  0  0  0  0  0  0  0  0  0  0  0
  148.9721  143.5327  156.9369 H   0  0  0  0  0  0  0  0  0  0  0  0
  151.2911  143.6230  156.9839 H   0  0  0  0  0  0  0  0  0  0  0  0
  151.0172  141.8058  159.4151 H   0  0  0  0  0  0  0  0  0  0  0  0
  151.6724  141.3655  157.8608 H   0  0  0  0  0  0  0  0  0  0  0  0
  153.4967  141.8492  159.4802 H   0  0  0  0  0  0  0  0  0  0  0  0
  153.5422  142.9374  158.1216 H   0  0  0  0  0  0  0  0  0  0  0  0
  153.9106  144.2412  160.0880 H   0  0  0  0  0  0  0  0  0  0  0  0
  151.3392  143.1616  161.3364 H   0  0  0  0  0  0  0  0  0  0  0  0
  152.4596  144.3103  162.0577 H   0  0  0  0  0  0  0  0  0  0  0  0
  152.9711  142.6636  161.7590 H   0  0  0  0  0  0  0  0  0  0  0  0
  152.6261  145.3088  158.3823 H   0  0  0  0  0  0  0  0  0  0  0  0
  151.4003  146.1490  161.0408 H   0  0  0  0  0  0  0  0  0  0  0  0
  151.5601  147.1237  159.5882 H   0  0  0  0  0  0  0  0  0  0  0  0
  152.9986  146.6207  160.4647 H   0  0  0  0  0  0  0  0  0  0  0  0
  150.1809  145.3815  158.3298 H   0  0  0  0  0  0  0  0  0  0  0  0
  150.0724  144.3179  159.7064 H   0  0  0  0  0  0  0  0  0  0  0  0
  148.8886  142.7481  158.3732 H   0  0  0  0  0  0  0  0  0  0  0  0
  1  2  1  0  0  0  0
  1 19  1  0  0  0  0
  1 20  1  0  0  0  0
  1 21  1  0  0  0  0
  2  7  1  0  0  0  0
  2  3  2  0  0  0  0
  3  4  1  0  0  0  0
  4  5  1  0  0  0  0
  5  6  1  0  0  0  0
  5  7  2  0  0  0  0
  6 22  1  0  0  0  0
  6 23  1  0  0  0  0
  6 24  1  0  0  0  0
  7  8  1  0  0  0  0
  8  9  1  0  0  0  0
  8 25  1  0  0  0  0
  8 26  1  0  0  0  0
  9 10  1  0  0  0  0
  9 27  1  0  0  0  0
  9 28  1  0  0  0  0
 10 11  1  0  0  0  0
 10 29  1  0  0  0  0
 10 45  1  0  0  0  0
 11 18  1  0  0  0  0
 11 12  1  0  0  0  0
 11 30  1  0  0  0  0
 12 13  1  0  0  0  0
 12 31  1  0  0  0  0
 12 32  1  0  0  0  0
 13 14  1  0  0  0  0
 13 33  1  0  0  0  0
 13 34  1  0  0  0  0
 14 15  1  0  0  0  0
 14 16  1  0  0  0  0
 14 35  1  0  0  0  0
 15 36  1  0  0  0  0
 15 37  1  0  0  0  0
 15 38  1  0  0  0  0
 16 17  1  0  0  0  0
 16 18  1  0  0  0  0
 16 39  1  0  0  0  0
 17 40  1  0  0  0  0
 17 41  1  0  0  0  0
 17 42  1  0  0  0  0
 18 43  1  0  0  0  0
 18 44  1  0  0  0  0
M  CHG  1  10   1
M  END
> <s_m_source_file>
AV-unprocessed.smi

> <i_m_source_file_index>
3285

> <i_lp_mmshare_version>
43012

> <i_f3d_flags>
0

> <s_epik_input>
W0NIM11jMW5vYyhbQ0gzXSljMVtDSDJdW0NIMl1bTkhdW0NAQEhdMltDSDJdW0NIMl1bQ0BASF0oW0NIM10pW0NAQEhdKFtDSDNdKVtDSDJdMg==

> <s_epik_cmdline>
J2VwaWtfcHl0aG9uJywgJy1waCcsICc3LjAnLCAnLXRuJywgJzgnLCAnLW1hJywgJzIwMCcsICctbWV0YWxfYmluZGluZycsICctaW1hZScsICc8aW5maWxlLm1hZT4nLCAnLW9tYWUnLCAnPG91dGZpbGUubWFlPic=

> <r_lp_tautomer_probability>
1

> <r_epik_Ionization_Penalty>
0.000204615

> <r_epik_Ionization_Penalty_Charging>
0.000204615

> <r_epik_Ionization_Penalty_Neutral>
9.28663e-11

> <r_epik_State_Penalty>
-0

> <r_epik_Charging_Adjusted_Penalty>
0.000204615

> <i_epik_Tot_Q>
1

> <i_epik_Tot_abs_Q>
1

> <r_epik_Metal_State_Penalty>
-0

> <b_epik_Metal_Only>
0

> <s_lp_Force_Field>
OPLS_2005

> <r_lp_Energy>
13.9003

> <b_lp_Chiralities_Consistent>
1

> <s_lp_Variant>
AV-unprocessed.smi:3285-7

> <Gold.Version>
5.8.1

> <Gold.Id.Protein>
6NUR|6NUR_protein|mol2

> <Gold.PLP.Fitness>
46.2580

> <Gold.PLP.PLP>
-40.6204

> <Gold.PLP.part.hbond>
-1.0000

> <Gold.PLP.part.metal>
0.0000

> <Gold.PLP.part.buried>
-2.1210

> <Gold.PLP.part.nonpolar>
-40.1712

> <Gold.PLP.part.repulsive>
3.3292

> <Gold.PLP.ligand.clash>
0.0000

> <Gold.PLP.ligand.torsion>
0.1842

> <Gold.PLP.Chemscore.Hbond>
2.0000

> <Gold.PLP.Chemscore.CHOScore>
0.0000

> <Gold.PLP.Chemscore.Metal>
0.0000

> <Gold.Chemscore.Hbonds>
donor molecule, donor type, donor heavy atom, donor atom, acceptor molecule, acceptor atom, score
      L1  H    10    29       P1  8028  2.00

> <Gold.PLP.Chemscore.Internal.Correction>
0.0061

> <Gold.Rescore>
     Score         DG    S(hbond)    S(metal)    S(lipo)     H(rot)  DE(clash)    DE(int)     intcor
     18.96     -20.44       0.85        0.00     132.93       1.35       1.27       0.21       ----

> <Gold.Chemscore.Fitness>
18.9554

> <Gold.Chemscore.DG>
-20.4362

> <Gold.Chemscore.ZeroCoef>
-5.4800

> <Gold.Chemscore.Hbond>
0.8535

> <Gold.Chemscore.Metal>
0.0000

> <Gold.Chemscore.Lipo>
132.9269

> <Gold.Chemscore.Internal_Hbond>
0.0000

> <Gold.Chemscore.DEClash>
1.2702

> <Gold.Chemscore.DEInternal>
0.2106

> <Gold.Chemscore.Rot>
1.3465

> <Gold.Chemscore.Internal.Correction>
   9.000000E+99

> <Gold.Chemscore.Hbonds>
donor molecule, donor type, donor heavy atom, donor atom, acceptor molecule, acceptor atom, score
      L1  H    10    29       P1  8028  0.64

> <Gold.Chemscore.Hbond.Weighted>
-2.8508

> <Gold.Chemscore.Metal.Weighted>
-0.0000

> <Gold.Chemscore.Lipo.Weighted>
-15.5524

> <Gold.Chemscore.Internal_Hbond.Weighted>
0.0000

> <Gold.Chemscore.DEClash.Weighted>
1.2702

> <Gold.Chemscore.DEInternal.Weighted>
0.2106

> <Gold.Chemscore.Rot.Weighted>
3.4470

> <Gold.Chemscore.Internal.Correction.Weighted>
   9.000000E+99

> <Gold.Protein.RotatedTorsions>
[ 6907 6896 6895 6894 ] final  -58.48 input  -60.11 | X-H torsion
[ 7974 7965 7964 7962 ] final   74.40 input  175.53 | X-H torsion
[ 8008 7997 7996 7995 ] final   27.16 input   59.86 | X-H torsion
[ 10167 10162 10161 10158 ] final  173.75 input  -65.29 | X-H torsion
[ 10718 10713 10712 10709 ] final  -31.56 input   66.30 | X-H torsion
[ 10763 10752 10751 10750 ] final  -31.17 input  -60.55 | X-H torsion
[ 11005 11000 10999 10996 ] final  -61.51 input  -57.11 | X-H torsion

> <Gold.Protein.ActiveResidues>
 VAL166  LYS551  ARG553  GLY616  TRP617  ASP618  TYR619  PRO620  LYS621  CYS622 
 ASP623  PHE694  ASN695  SER759  ASP760  ASP761  ALA762  ILE779  LEU786  VAL792 
 PHE793  MET794  SER795  GLU796  ALA797  LYS798  CYS799  TRP800  GLU811  SER814 

> <Gold.Protein.RotatedAtoms>
  150.8004  134.7093  159.6594 H   0  0  0  0  0  0  0  0  0  0  0  0  # atno 6907 bound_to 6896
  152.4120  134.6104  160.0034 H   0  0  0  0  0  0  0  0  0  0  0  0  # atno 6908 bound_to 6896
  151.6344  133.3293  159.3152 H   0  0  0  0  0  0  0  0  0  0  0  0  # atno 6909 bound_to 6896
  145.7287  139.2675  143.1553 H   0  0  0  0  0  0  0  0  0  0  0  0  # atno 7974 bound_to 7965
  155.0385  140.3166  155.4733 H   0  0  0  0  0  0  0  0  0  0  0  0  # atno 8008 bound_to 7997
  156.2859  140.2167  156.5451 H   0  0  0  0  0  0  0  0  0  0  0  0  # atno 8009 bound_to 7997
  154.7310  140.0481  157.0714 H   0  0  0  0  0  0  0  0  0  0  0  0  # atno 8010 bound_to 7997
  139.5118  144.3225  152.0188 H   0  0  0  0  0  0  0  0  0  0  0  0  # atno 10167 bound_to 10162
  156.3858  130.4364  149.7433 H   0  0  0  0  0  0  0  0  0  0  0  0  # atno 10718 bound_to 10713
  153.7929  135.6896  153.4868 H   0  0  0  0  0  0  0  0  0  0  0  0  # atno 10763 bound_to 10752
  153.1738  135.4532  154.9936 H   0  0  0  0  0  0  0  0  0  0  0  0  # atno 10764 bound_to 10752
  154.8037  135.3348  154.7424 H   0  0  0  0  0  0  0  0  0  0  0  0  # atno 10765 bound_to 10752
  141.1327  133.6631  156.5386 H   0  0  0  0  0  0  0  0  0  0  0  0  # atno 11005 bound_to 11000
  146.0557  140.8023  142.9759 LP  0  0  0  0  0  0  0  0  0  0  0  0  # atno 17320 bound_to 7965
  144.6898  140.3121  143.7246 LP  0  0  0  0  0  0  0  0  0  0  0  0  # atno 17321 bound_to 7965
  140.2667  144.4008  150.6166 LP  0  0  0  0  0  0  0  0  0  0  0  0  # atno 17342 bound_to 10162
  140.6118  143.2170  151.6871 LP  0  0  0  0  0  0  0  0  0  0  0  0  # atno 17343 bound_to 10162
  156.4506  130.7904  151.2926 LP  0  0  0  0  0  0  0  0  0  0  0  0  # atno 17370 bound_to 10713
  157.7496  131.0097  150.3276 LP  0  0  0  0  0  0  0  0  0  0  0  0  # atno 17371 bound_to 10713
  140.4158  134.7232  157.4862 LP  0  0  0  0  0  0  0  0  0  0  0  0  # atno 17394 bound_to 11000
  140.0395  134.6288  155.8999 LP  0  0  0  0  0  0  0  0  0  0  0  0  # atno 17395 bound_to 11000

$$$$
