AV-unprocessed.smi:1139|AV-procd|sdf|4870|dock9
  -GOLD-   22720 3443D 1   1.00000     0.00000
 Structure written by MMmdl.
 43 44  0  0  0  0  0  0  0  0  2 V2000
  153.1877  140.7232  159.4161 C   0  0  0  0  0  0  0  0  0  0  0  0
  152.8259  142.0966  159.9045 C   0  0  0  0  0  0  0  0  0  0  0  0
  153.0889  142.4285  161.1570 N   0  0  0  0  0  0  0  0  0  0  0  0
  152.6328  143.7411  161.3100 O   0  0  0  0  0  0  0  0  0  0  0  0
  152.1032  144.1516  160.1295 C   0  0  0  0  0  0  0  0  0  0  0  0
  151.5499  145.5357  160.0862 C   0  0  0  0  0  0  0  0  0  0  0  0
  152.1936  143.1580  159.1940 C   0  0  0  0  0  0  0  0  0  0  0  0
  151.7299  143.1783  157.7604 C   0  0  0  0  0  0  0  0  0  0  0  0
  150.7239  142.0504  157.5331 C   0  0  0  0  0  0  0  0  0  0  0  0
  149.6754  142.0196  158.1768 O   0  0  0  0  0  0  0  0  0  0  0  0
  151.0586  141.1214  156.6262 N   0  0  0  0  0  0  0  0  0  0  0  0
  150.2525  139.9473  156.3162 C   0  0  0  0  0  0  0  0  0  0  0  0
  150.3164  139.5762  154.8143 C   0  0  1  0  0  0  0  0  0  0  0  0
  150.7459  138.1030  154.6287 C   0  0  0  0  0  0  0  0  0  0  0  0
  149.0132  139.8322  154.1341 N   0  3  0  0  0  0  0  0  0  0  0  0
  147.9486  138.8346  154.3796 C   0  0  0  0  0  0  0  0  0  0  0  0
  146.6501  139.5443  154.0152 C   0  0  0  0  0  0  0  0  0  0  0  0
  146.8925  140.9705  154.4942 C   0  0  0  0  0  0  0  0  0  0  0  0
  148.4121  141.1649  154.3974 C   0  0  0  0  0  0  0  0  0  0  0  0
  152.3688  140.0244  159.5866 H   0  0  0  0  0  0  0  0  0  0  0  0
  154.0686  140.3353  159.9291 H   0  0  0  0  0  0  0  0  0  0  0  0
  153.4050  140.7270  158.3481 H   0  0  0  0  0  0  0  0  0  0  0  0
  150.5422  145.5346  159.6707 H   0  0  0  0  0  0  0  0  0  0  0  0
  152.1716  146.1794  159.4641 H   0  0  0  0  0  0  0  0  0  0  0  0
  151.5025  145.9728  161.0839 H   0  0  0  0  0  0  0  0  0  0  0  0
  151.2506  144.1259  157.5115 H   0  0  0  0  0  0  0  0  0  0  0  0
  152.5672  143.0750  157.0693 H   0  0  0  0  0  0  0  0  0  0  0  0
  151.9377  141.2235  156.1399 H   0  0  0  0  0  0  0  0  0  0  0  0
  150.5963  139.1078  156.9233 H   0  0  0  0  0  0  0  0  0  0  0  0
  149.2277  140.1643  156.6200 H   0  0  0  0  0  0  0  0  0  0  0  0
  151.0664  140.2127  154.3411 H   0  0  0  0  0  0  0  0  0  0  0  0
  151.7239  137.9099  155.0691 H   0  0  0  0  0  0  0  0  0  0  0  0
  150.8266  137.8248  153.5784 H   0  0  0  0  0  0  0  0  0  0  0  0
  150.0335  137.4229  155.0970 H   0  0  0  0  0  0  0  0  0  0  0  0
  148.0936  137.9275  153.7920 H   0  0  0  0  0  0  0  0  0  0  0  0
  147.9347  138.5611  155.4362 H   0  0  0  0  0  0  0  0  0  0  0  0
  146.5129  139.5342  152.9329 H   0  0  0  0  0  0  0  0  0  0  0  0
  145.7722  139.0856  154.4710 H   0  0  0  0  0  0  0  0  0  0  0  0
  146.3374  141.7052  153.9102 H   0  0  0  0  0  0  0  0  0  0  0  0
  146.5757  141.0670  155.5335 H   0  0  0  0  0  0  0  0  0  0  0  0
  148.7839  141.5995  155.3266 H   0  0  0  0  0  0  0  0  0  0  0  0
  148.6743  141.8433  153.5848 H   0  0  0  0  0  0  0  0  0  0  0  0
  149.1896  139.7999  153.1399 H   0  0  0  0  0  0  0  0  0  0  0  0
  1  2  1  0  0  0  0
  1 20  1  0  0  0  0
  1 21  1  0  0  0  0
  1 22  1  0  0  0  0
  2  7  1  0  0  0  0
  2  3  2  0  0  0  0
  3  4  1  0  0  0  0
  4  5  1  0  0  0  0
  5  6  1  0  0  0  0
  5  7  2  0  0  0  0
  6 23  1  0  0  0  0
  6 24  1  0  0  0  0
  6 25  1  0  0  0  0
  7  8  1  0  0  0  0
  8  9  1  0  0  0  0
  8 26  1  0  0  0  0
  8 27  1  0  0  0  0
  9 10  2  0  0  0  0
  9 11  1  0  0  0  0
 11 12  1  0  0  0  0
 11 28  1  0  0  0  0
 12 13  1  0  0  0  0
 12 29  1  0  0  0  0
 12 30  1  0  0  0  0
 13 14  1  0  0  0  0
 13 15  1  0  0  0  0
 13 31  1  0  0  0  0
 14 32  1  0  0  0  0
 14 33  1  0  0  0  0
 14 34  1  0  0  0  0
 15 19  1  0  0  0  0
 15 16  1  0  0  0  0
 15 43  1  0  0  0  0
 16 17  1  0  0  0  0
 16 35  1  0  0  0  0
 16 36  1  0  0  0  0
 17 18  1  0  0  0  0
 17 37  1  0  0  0  0
 17 38  1  0  0  0  0
 18 19  1  0  0  0  0
 18 39  1  0  0  0  0
 18 40  1  0  0  0  0
 19 41  1  0  0  0  0
 19 42  1  0  0  0  0
M  CHG  1  15   1
M  END
> <s_m_source_file>
AV-unprocessed.smi

> <i_m_source_file_index>
1139

> <i_lp_mmshare_version>
43012

> <i_f3d_flags>
0

> <s_epik_input>
W0NIM11jMW5vYyhbQ0gzXSljMVtDSDJdQyg9TylbTkhdW0NIMl1bQ0BIXShbQ0gzXSlOMltDSDJdW0NIMl1bQ0gyXVtDSDJdMg==

> <s_epik_cmdline>
J2VwaWtfcHl0aG9uJywgJy1waCcsICc3LjAnLCAnLXRuJywgJzgnLCAnLW1hJywgJzIwMCcsICctbWV0YWxfYmluZGluZycsICctaW1hZScsICc8aW5maWxlLm1hZT4nLCAnLW9tYWUnLCAnPG91dGZpbGUubWFlPic=

> <r_epik_Ionization_Penalty>
0.0050436

> <r_epik_Ionization_Penalty_Charging>
0.0050435

> <r_epik_Ionization_Penalty_Neutral>
9.69799e-08

> <r_epik_State_Penalty>
0.00366867

> <r_epik_Charging_Adjusted_Penalty>
0.00871217

> <i_epik_Tot_Q>
1

> <i_epik_Tot_abs_Q>
1

> <r_epik_Metal_State_Penalty>
-0

> <b_epik_Metal_Only>
0

> <s_lp_Force_Field>
OPLS_2005

> <r_lp_Energy>
24.7849

> <b_lp_Chiralities_Consistent>
1

> <s_lp_Variant>
AV-unprocessed.smi:1139-2

> <Gold.Version>
5.8.1

> <Gold.Id.Protein>
6NUR|6NUR_protein|mol2

> <Gold.PLP.Fitness>
42.4866

> <Gold.PLP.PLP>
-41.5659

> <Gold.PLP.part.hbond>
-1.0000

> <Gold.PLP.part.metal>
0.0000

> <Gold.PLP.part.buried>
-2.9503

> <Gold.PLP.part.nonpolar>
-37.7735

> <Gold.PLP.part.repulsive>
0.5534

> <Gold.PLP.ligand.clash>
0.0000

> <Gold.PLP.ligand.torsion>
1.0571

> <Gold.PLP.Chemscore.Hbond>
1.0000

> <Gold.PLP.Chemscore.CHOScore>
0.0000

> <Gold.PLP.Chemscore.Metal>
0.0000

> <Gold.Chemscore.Hbonds>
donor molecule, donor type, donor heavy atom, donor atom, acceptor molecule, acceptor atom, score
      L1  H    15    43       P1  7957  0.98

> <Gold.PLP.Chemscore.Internal.Correction>
0.0349

> <Gold.Rescore>
     Score         DG    S(hbond)    S(metal)    S(lipo)     H(rot)  DE(clash)    DE(int)     intcor
     15.96     -17.17       0.99        0.00     109.18       1.72       0.34       0.87       ----

> <Gold.Chemscore.Fitness>
15.9594

> <Gold.Chemscore.DG>
-17.1716

> <Gold.Chemscore.ZeroCoef>
-5.4800

> <Gold.Chemscore.Hbond>
0.9937

> <Gold.Chemscore.Metal>
0.0000

> <Gold.Chemscore.Lipo>
109.1817

> <Gold.Chemscore.Internal_Hbond>
0.0000

> <Gold.Chemscore.DEClash>
0.3422

> <Gold.Chemscore.DEInternal>
0.8700

> <Gold.Chemscore.Rot>
1.7195

> <Gold.Chemscore.Internal.Correction>
   9.000000E+99

> <Gold.Chemscore.Hbonds>
donor molecule, donor type, donor heavy atom, donor atom, acceptor molecule, acceptor atom, score
      L1  H    15    43       P1  7957  0.92

> <Gold.Chemscore.Hbond.Weighted>
-3.3191

> <Gold.Chemscore.Metal.Weighted>
-0.0000

> <Gold.Chemscore.Lipo.Weighted>
-12.7743

> <Gold.Chemscore.Internal_Hbond.Weighted>
0.0000

> <Gold.Chemscore.DEClash.Weighted>
0.3422

> <Gold.Chemscore.DEInternal.Weighted>
0.8700

> <Gold.Chemscore.Rot.Weighted>
4.4018

> <Gold.Chemscore.Internal.Correction.Weighted>
   9.000000E+99

> <Gold.Protein.RotatedTorsions>
[ 6907 6896 6895 6894 ] final -107.92 input  -60.11 | X-H torsion
[ 7974 7965 7964 7962 ] final   21.78 input  175.53 | X-H torsion
[ 8008 7997 7996 7995 ] final   90.87 input   59.86 | X-H torsion
[ 10167 10162 10161 10158 ] final  127.08 input  -65.29 | X-H torsion
[ 10718 10713 10712 10709 ] final -165.84 input   66.30 | X-H torsion
[ 10763 10752 10751 10750 ] final   45.50 input  -60.55 | X-H torsion
[ 11005 11000 10999 10996 ] final -167.43 input  -57.11 | X-H torsion

> <Gold.Protein.ActiveResidues>
 VAL166  LYS551  ARG553  GLY616  TRP617  ASP618  TYR619  PRO620  LYS621  CYS622 
 ASP623  PHE694  ASN695  SER759  ASP760  ASP761  ALA762  ILE779  LEU786  VAL792 
 PHE793  MET794  SER795  GLU796  ALA797  LYS798  CYS799  TRP800  GLU811  SER814 

> <Gold.Protein.RotatedAtoms>
  150.7471  133.9755  159.3559 H   0  0  0  0  0  0  0  0  0  0  0  0  # atno 6907 bound_to 6896
  151.7692  135.0788  160.0367 H   0  0  0  0  0  0  0  0  0  0  0  0  # atno 6908 bound_to 6896
  152.3350  133.5965  159.5872 H   0  0  0  0  0  0  0  0  0  0  0  0  # atno 6909 bound_to 6896
  146.2057  139.7978  142.8728 H   0  0  0  0  0  0  0  0  0  0  0  0  # atno 7974 bound_to 7965
  156.0171  140.3344  155.7000 H   0  0  0  0  0  0  0  0  0  0  0  0  # atno 8008 bound_to 7997
  155.6075  140.0662  157.2733 H   0  0  0  0  0  0  0  0  0  0  0  0  # atno 8009 bound_to 7997
  154.4302  140.1799  156.1225 H   0  0  0  0  0  0  0  0  0  0  0  0  # atno 8010 bound_to 7997
  139.5597  144.6873  151.4079 H   0  0  0  0  0  0  0  0  0  0  0  0  # atno 10167 bound_to 10162
  156.6592  130.9039  151.3026 H   0  0  0  0  0  0  0  0  0  0  0  0  # atno 10718 bound_to 10713
  152.9823  135.6037  154.3447 H   0  0  0  0  0  0  0  0  0  0  0  0  # atno 10763 bound_to 10752
  154.3141  135.2770  155.2553 H   0  0  0  0  0  0  0  0  0  0  0  0  # atno 10764 bound_to 10752
  154.4749  135.5932  153.6404 H   0  0  0  0  0  0  0  0  0  0  0  0  # atno 10765 bound_to 10752
  140.5533  134.5406  157.5127 H   0  0  0  0  0  0  0  0  0  0  0  0  # atno 11005 bound_to 11000
  145.3329  141.0270  143.3436 LP  0  0  0  0  0  0  0  0  0  0  0  0  # atno 17320 bound_to 7965
  144.8786  139.4936  143.6734 LP  0  0  0  0  0  0  0  0  0  0  0  0  # atno 17321 bound_to 7965
  140.6875  143.7939  150.7207 LP  0  0  0  0  0  0  0  0  0  0  0  0  # atno 17342 bound_to 10162
  140.1412  143.4440  152.2192 LP  0  0  0  0  0  0  0  0  0  0  0  0  # atno 17343 bound_to 10162
  157.7115  130.9446  150.1106 LP  0  0  0  0  0  0  0  0  0  0  0  0  # atno 17370 bound_to 10713
  156.2024  130.3661  149.8771 LP  0  0  0  0  0  0  0  0  0  0  0  0  # atno 17371 bound_to 10713
  139.9444  134.7729  156.0598 LP  0  0  0  0  0  0  0  0  0  0  0  0  # atno 17394 bound_to 11000
  141.1158  133.6628  156.3091 LP  0  0  0  0  0  0  0  0  0  0  0  0  # atno 17395 bound_to 11000

$$$$
