AV-unprocessed.smi:1603|AV-procd|sdf|6443|dock4
  -GOLD-   22720 7 93D 1   1.00000     0.00000
 Structure written by MMmdl.
 45 47  0  0  0  0  0  0  0  0  2 V2000
  153.5907  139.3952  158.4703 O   0  0  0  0  0  0  0  0  0  0  0  0
  153.1539  140.4705  158.8821 C   0  0  0  0  0  0  0  0  0  0  0  0
  153.5919  141.0974  160.1383 C   0  0  0  0  0  0  0  0  0  0  0  0
  154.6114  140.3496  160.9935 C   0  0  0  0  0  0  0  0  0  0  0  0
  154.8260  140.9651  162.1573 F   0  0  0  0  0  0  0  0  0  0  0  0
  154.1856  139.1138  161.2588 F   0  0  0  0  0  0  0  0  0  0  0  0
  155.7791  140.2604  160.3561 F   0  0  0  0  0  0  0  0  0  0  0  0
  153.0801  142.2946  160.5144 C   0  0  0  0  0  0  0  0  0  0  0  0
  152.1048  142.9681  159.6805 C   0  0  0  0  0  0  0  0  0  0  0  0
  151.5180  144.3073  160.0233 C   0  0  0  0  0  0  0  0  0  0  0  0
  151.3979  145.4089  158.9965 C   0  0  0  0  0  0  0  0  0  0  0  0
  152.3697  145.5501  160.1450 C   0  0  0  0  0  0  0  0  0  0  0  0
  151.7077  142.4065  158.5884 N   0  0  0  0  0  0  0  0  0  0  0  0
  152.2058  141.1782  158.1998 N   0  0  0  0  0  0  0  0  0  0  0  0
  151.6361  140.6735  156.9428 C   0  0  0  0  0  0  0  0  0  0  0  0
  150.0932  140.7519  156.9093 C   0  0  2  0  0  0  0  0  0  0  0  0
  149.5936  139.5129  157.3721 O   0  0  0  0  0  0  0  0  0  0  0  0
  149.5268  141.0245  155.4979 C   0  0  0  0  0  0  0  0  0  0  0  0
  148.3121  141.8780  155.5239 N   0  3  0  0  0  0  0  0  0  0  0  0
  147.5109  141.8037  154.2761 C   0  0  0  0  0  0  0  0  0  0  0  0
  146.2937  142.7400  154.3627 C   0  0  0  0  0  0  0  0  0  0  0  0
  145.5104  142.4002  155.4999 O   0  0  0  0  0  0  0  0  0  0  0  0
  146.2392  142.5497  156.7118 C   0  0  0  0  0  0  0  0  0  0  0  0
  147.4552  141.6077  156.7026 C   0  0  0  0  0  0  0  0  0  0  0  0
  153.3844  142.7679  161.4359 H   0  0  0  0  0  0  0  0  0  0  0  0
  150.6995  144.1994  160.7325 H   0  0  0  0  0  0  0  0  0  0  0  0
  151.8161  145.2337  158.0067 H   0  0  0  0  0  0  0  0  0  0  0  0
  150.4984  146.0205  159.0207 H   0  0  0  0  0  0  0  0  0  0  0  0
  152.1171  146.2569  160.9329 H   0  0  0  0  0  0  0  0  0  0  0  0
  153.4298  145.4756  159.9091 H   0  0  0  0  0  0  0  0  0  0  0  0
  152.0469  141.2269  156.0956 H   0  0  0  0  0  0  0  0  0  0  0  0
  151.9598  139.6413  156.7943 H   0  0  0  0  0  0  0  0  0  0  0  0
  149.7645  141.5172  157.6107 H   0  0  0  0  0  0  0  0  0  0  0  0
  149.7658  139.4378  158.2979 H   0  0  0  0  0  0  0  0  0  0  0  0
  150.2684  141.5089  154.8618 H   0  0  0  0  0  0  0  0  0  0  0  0
  149.3035  140.0682  155.0215 H   0  0  0  0  0  0  0  0  0  0  0  0
  148.1157  142.0783  153.4127 H   0  0  0  0  0  0  0  0  0  0  0  0
  147.1762  140.7777  154.1152 H   0  0  0  0  0  0  0  0  0  0  0  0
  146.6073  143.7837  154.4191 H   0  0  0  0  0  0  0  0  0  0  0  0
  145.6788  142.6402  153.4681 H   0  0  0  0  0  0  0  0  0  0  0  0
  146.5509  143.5879  156.8382 H   0  0  0  0  0  0  0  0  0  0  0  0
  145.5842  142.3095  157.5496 H   0  0  0  0  0  0  0  0  0  0  0  0
  147.1232  140.5681  156.6840 H   0  0  0  0  0  0  0  0  0  0  0  0
  148.0310  141.7452  157.6185 H   0  0  0  0  0  0  0  0  0  0  0  0
  148.6298  142.8318  155.6201 H   0  0  0  0  0  0  0  0  0  0  0  0
  1  2  2  0  0  0  0
  2 14  1  0  0  0  0
  2  3  1  0  0  0  0
  3  4  1  0  0  0  0
  3  8  2  0  0  0  0
  4  5  1  0  0  0  0
  4  6  1  0  0  0  0
  4  7  1  0  0  0  0
  8  9  1  0  0  0  0
  8 25  1  0  0  0  0
  9 10  1  0  0  0  0
  9 13  2  0  0  0  0
 10 12  1  0  0  0  0
 10 11  1  0  0  0  0
 10 26  1  0  0  0  0
 11 12  1  0  0  0  0
 11 27  1  0  0  0  0
 11 28  1  0  0  0  0
 12 29  1  0  0  0  0
 12 30  1  0  0  0  0
 13 14  1  0  0  0  0
 14 15  1  0  0  0  0
 15 16  1  0  0  0  0
 15 31  1  0  0  0  0
 15 32  1  0  0  0  0
 16 17  1  0  0  0  0
 16 18  1  0  0  0  0
 16 33  1  0  0  0  0
 17 34  1  0  0  0  0
 18 19  1  0  0  0  0
 18 35  1  0  0  0  0
 18 36  1  0  0  0  0
 19 24  1  0  0  0  0
 19 20  1  0  0  0  0
 19 45  1  0  0  0  0
 20 21  1  0  0  0  0
 20 37  1  0  0  0  0
 20 38  1  0  0  0  0
 21 22  1  0  0  0  0
 21 39  1  0  0  0  0
 21 40  1  0  0  0  0
 22 23  1  0  0  0  0
 23 24  1  0  0  0  0
 23 41  1  0  0  0  0
 23 42  1  0  0  0  0
 24 43  1  0  0  0  0
 24 44  1  0  0  0  0
M  CHG  1  19   1
M  END
> <s_m_source_file>
AV-unprocessed.smi

> <i_m_source_file_index>
1603

> <i_lp_mmshare_version>
43012

> <i_f3d_flags>
0

> <s_epik_input>
Tz1jMWMoQyhGKShGKUYpW2NIXWMoW0NIXTJbQ0gyXVtDSDJdMilubjFbQ0gyXVtDQEhdKFtPSF0pW0NIMl1OM1tDSDJdW0NIMl1PW0NIMl1bQ0gyXTM=

> <s_epik_cmdline>
J2VwaWtfcHl0aG9uJywgJy1waCcsICc3LjAnLCAnLXRuJywgJzgnLCAnLW1hJywgJzIwMCcsICctbWV0YWxfYmluZGluZycsICctaW1hZScsICc8aW5maWxlLm1hZT4nLCAnLW9tYWUnLCAnPG91dGZpbGUubWFlPic=

> <r_lp_tautomer_probability>
1

> <r_epik_Ionization_Penalty>
0.373533

> <r_epik_Ionization_Penalty_Charging>
0.373533

> <r_epik_Ionization_Penalty_Neutral>
6.58334e-07

> <r_epik_State_Penalty>
0.37113

> <r_epik_Charging_Adjusted_Penalty>
0.744662

> <i_epik_Tot_Q>
1

> <i_epik_Tot_abs_Q>
1

> <r_epik_Metal_State_Penalty>
0.37113

> <b_epik_Metal_Only>
0

> <s_lp_Force_Field>
OPLS_2005

> <r_lp_Energy>
41.4102

> <b_lp_Chiralities_Consistent>
1

> <s_lp_Variant>
AV-unprocessed.smi:1603-1

> <Gold.Version>
5.8.1

> <Gold.Id.Protein>
6NUR|6NUR_protein|mol2

> <Gold.PLP.Fitness>
55.5147

> <Gold.PLP.PLP>
-49.1502

> <Gold.PLP.part.hbond>
-2.0000

> <Gold.PLP.part.metal>
0.0000

> <Gold.PLP.part.buried>
-6.0302

> <Gold.PLP.part.nonpolar>
-40.8533

> <Gold.PLP.part.repulsive>
0.3162

> <Gold.PLP.ligand.clash>
0.3145

> <Gold.PLP.ligand.torsion>
1.5095

> <Gold.PLP.Chemscore.Hbond>
3.0000

> <Gold.PLP.Chemscore.CHOScore>
0.0000

> <Gold.PLP.Chemscore.Metal>
0.0000

> <Gold.Chemscore.Hbonds>
donor molecule, donor type, donor heavy atom, donor atom, acceptor molecule, acceptor atom, score
      L1  H    19    45       P1  8028  2.00
      P1  H  7997  8008       L1     1  0.95

> <Gold.PLP.Chemscore.Internal.Correction>
0.6981

> <Gold.Rescore>
     Score         DG    S(hbond)    S(metal)    S(lipo)     H(rot)  DE(clash)    DE(int)     intcor
     14.06     -18.17       1.90        0.00     109.14       2.52       0.39       3.72       ----

> <Gold.Chemscore.Fitness>
14.0623

> <Gold.Chemscore.DG>
-18.1650

> <Gold.Chemscore.ZeroCoef>
-5.4800

> <Gold.Chemscore.Hbond>
1.9032

> <Gold.Chemscore.Metal>
0.0000

> <Gold.Chemscore.Lipo>
109.1391

> <Gold.Chemscore.Internal_Hbond>
0.0000

> <Gold.Chemscore.DEClash>
0.3865

> <Gold.Chemscore.DEInternal>
3.7162

> <Gold.Chemscore.Rot>
2.5160

> <Gold.Chemscore.Internal.Correction>
   9.000000E+99

> <Gold.Chemscore.Hbonds>
donor molecule, donor type, donor heavy atom, donor atom, acceptor molecule, acceptor atom, score
      L1  H    19    45       P1  8028  1.00
      P1  H  7997  8008       L1     1  0.22

> <Gold.Chemscore.Hbond.Weighted>
-6.3568

> <Gold.Chemscore.Metal.Weighted>
-0.0000

> <Gold.Chemscore.Lipo.Weighted>
-12.7693

> <Gold.Chemscore.Internal_Hbond.Weighted>
0.0000

> <Gold.Chemscore.DEClash.Weighted>
0.3865

> <Gold.Chemscore.DEInternal.Weighted>
3.7162

> <Gold.Chemscore.Rot.Weighted>
6.4411

> <Gold.Chemscore.Internal.Correction.Weighted>
   9.000000E+99

> <Gold.Protein.RotatedTorsions>
[ 6907 6896 6895 6894 ] final  155.93 input  -60.11 | X-H torsion
[ 7974 7965 7964 7962 ] final   58.16 input  175.53 | X-H torsion
[ 8008 7997 7996 7995 ] final  -95.22 input   59.86 | X-H torsion
[ 10167 10162 10161 10158 ] final -144.34 input  -65.29 | X-H torsion
[ 10718 10713 10712 10709 ] final  -96.29 input   66.30 | X-H torsion
[ 10763 10752 10751 10750 ] final  177.02 input  -60.55 | X-H torsion
[ 11005 11000 10999 10996 ] final  -35.85 input  -57.11 | X-H torsion

> <Gold.Protein.ActiveResidues>
 VAL166  LYS551  ARG553  GLY616  TRP617  ASP618  TYR619  PRO620  LYS621  CYS622 
 ASP623  PHE694  ASN695  SER759  ASP760  ASP761  ALA762  ILE779  LEU786  VAL792 
 PHE793  MET794  SER795  GLU796  ALA797  LYS798  CYS799  TRP800  GLU811  SER814 

> <Gold.Protein.RotatedAtoms>
  152.0371  133.3961  159.4321 H   0  0  0  0  0  0  0  0  0  0  0  0  # atno 6907 bound_to 6896
  150.6878  134.3456  159.4896 H   0  0  0  0  0  0  0  0  0  0  0  0  # atno 6908 bound_to 6896
  152.1250  134.9177  160.0612 H   0  0  0  0  0  0  0  0  0  0  0  0  # atno 6909 bound_to 6896
  145.9212  139.3731  143.0477 H   0  0  0  0  0  0  0  0  0  0  0  0  # atno 7974 bound_to 7965
  154.7586  140.0482  157.0954 H   0  0  0  0  0  0  0  0  0  0  0  0  # atno 8008 bound_to 7997
  154.9967  140.3119  155.4864 H   0  0  0  0  0  0  0  0  0  0  0  0  # atno 8009 bound_to 7997
  156.2899  140.2209  156.5074 H   0  0  0  0  0  0  0  0  0  0  0  0  # atno 8010 bound_to 7997
  139.7908  143.7968  152.2649 H   0  0  0  0  0  0  0  0  0  0  0  0  # atno 10167 bound_to 10162
  156.0059  130.5145  150.6204 H   0  0  0  0  0  0  0  0  0  0  0  0  # atno 10718 bound_to 10713
  154.4890  135.2778  155.1512 H   0  0  0  0  0  0  0  0  0  0  0  0  # atno 10763 bound_to 10752
  154.3191  135.6213  153.5503 H   0  0  0  0  0  0  0  0  0  0  0  0  # atno 10764 bound_to 10752
  152.9885  135.5738  154.5307 H   0  0  0  0  0  0  0  0  0  0  0  0  # atno 10765 bound_to 10752
  140.9828  133.7047  156.1714 H   0  0  0  0  0  0  0  0  0  0  0  0  # atno 11005 bound_to 11000
  145.8548  140.9509  143.0731 LP  0  0  0  0  0  0  0  0  0  0  0  0  # atno 17320 bound_to 7965
  144.6753  140.0453  143.7480 LP  0  0  0  0  0  0  0  0  0  0  0  0  # atno 17321 bound_to 7965
  139.8059  144.7355  150.9762 LP  0  0  0  0  0  0  0  0  0  0  0  0  # atno 17342 bound_to 10162
  140.7820  143.4298  151.0711 LP  0  0  0  0  0  0  0  0  0  0  0  0  # atno 17343 bound_to 10162
  157.4021  131.0811  151.1299 LP  0  0  0  0  0  0  0  0  0  0  0  0  # atno 17370 bound_to 10713
  157.1957  130.6372  149.5720 LP  0  0  0  0  0  0  0  0  0  0  0  0  # atno 17371 bound_to 10713
  140.7160  134.4410  157.5578 LP  0  0  0  0  0  0  0  0  0  0  0  0  # atno 17394 bound_to 11000
  139.8958  134.8675  156.2117 LP  0  0  0  0  0  0  0  0  0  0  0  0  # atno 17395 bound_to 11000

$$$$
