AV-unprocessed.smi:2083|AV-procd|sdf|8512|dock5
  -GOLD-   2272011223D 1   1.00000     0.00000
 Structure written by MMmdl.
 44 45  0  0  0  0  0  0  0  0  3 V2000
  149.0509  132.3917  161.8190 C   0  0  0  0  0  0  0  0  0  0  0  0
  149.2291  133.7982  161.3587 C   0  0  0  0  0  0  0  0  0  0  0  0
  149.5296  134.3451  160.1431 C   0  0  0  0  0  0  0  0  0  0  0  0
  149.5430  135.7395  160.4125 C   0  0  0  0  0  0  0  0  0  0  0  0
  149.8200  136.6734  159.3794 N   0  0  0  0  0  0  0  0  0  0  0  0
  150.4248  136.4653  158.1957 C   0  0  0  0  0  0  0  0  0  0  0  0
  150.8128  135.3335  157.8817 O   0  0  0  0  0  0  0  0  0  0  0  0
  150.5352  137.6089  157.4642 N   0  5  0  0  0  0  0  0  0  0  0  0
  150.6777  138.9522  158.0286 C   0  0  0  0  0  0  0  0  0  0  0  0
  151.5630  139.8528  157.1222 C   0  0  2  0  0  0  0  0  0  0  0  0
  152.5087  139.0699  156.1768 C   0  0  0  0  0  0  0  0  0  0  0  0
  152.2793  140.8803  157.9415 N   0  3  2  0  0  0  0  0  0  0  0  0
  153.0734  140.2935  159.0539 C   0  0  0  0  0  0  0  0  0  0  0  0
  153.9908  141.3496  159.6914 C   0  0  0  0  0  0  0  0  0  0  0  0
  153.1880  142.5664  160.1694 C   0  0  0  0  0  0  0  0  0  0  0  0
  152.3494  143.1408  159.0152 C   0  0  2  0  0  0  0  0  0  0  0  0
  151.5171  144.3471  159.4724 C   0  0  0  0  0  0  0  0  0  0  0  0
  151.4595  142.0378  158.4098 C   0  0  0  0  0  0  0  0  0  0  0  0
  149.2732  136.0178  161.6793 N   0  0  0  0  0  0  0  0  0  0  0  0
  149.0707  134.7755  162.2920 O   0  0  0  0  0  0  0  0  0  0  0  0
  149.8108  131.7431  161.3830 H   0  0  0  0  0  0  0  0  0  0  0  0
  148.0724  132.0119  161.5254 H   0  0  0  0  0  0  0  0  0  0  0  0
  149.1298  132.3209  162.9041 H   0  0  0  0  0  0  0  0  0  0  0  0
  149.7110  133.8290  159.2121 H   0  0  0  0  0  0  0  0  0  0  0  0
  149.5245  137.6216  159.5588 H   0  0  0  0  0  0  0  0  0  0  0  0
  149.7072  139.4328  158.1621 H   0  0  0  0  0  0  0  0  0  0  0  0
  151.1143  138.9167  159.0269 H   0  0  0  0  0  0  0  0  0  0  0  0
  150.8702  140.3992  156.4805 H   0  0  0  0  0  0  0  0  0  0  0  0
  151.9535  138.4427  155.4771 H   0  0  0  0  0  0  0  0  0  0  0  0
  153.2013  138.4196  156.7139 H   0  0  0  0  0  0  0  0  0  0  0  0
  153.1044  139.7538  155.5720 H   0  0  0  0  0  0  0  0  0  0  0  0
  152.4012  139.8719  159.8028 H   0  0  0  0  0  0  0  0  0  0  0  0
  153.6913  139.4742  158.6841 H   0  0  0  0  0  0  0  0  0  0  0  0
  154.5373  140.9127  160.5276 H   0  0  0  0  0  0  0  0  0  0  0  0
  154.7403  141.6678  158.9653 H   0  0  0  0  0  0  0  0  0  0  0  0
  152.5365  142.2742  160.9942 H   0  0  0  0  0  0  0  0  0  0  0  0
  153.8649  143.3266  160.5609 H   0  0  0  0  0  0  0  0  0  0  0  0
  153.0325  143.4881  158.2383 H   0  0  0  0  0  0  0  0  0  0  0  0
  150.8073  144.0677  160.2516 H   0  0  0  0  0  0  0  0  0  0  0  0
  150.9507  144.7705  158.6425 H   0  0  0  0  0  0  0  0  0  0  0  0
  152.1555  145.1362  159.8708 H   0  0  0  0  0  0  0  0  0  0  0  0
  150.8885  142.4566  157.5807 H   0  0  0  0  0  0  0  0  0  0  0  0
  150.7354  141.7037  159.1543 H   0  0  0  0  0  0  0  0  0  0  0  0
  152.9655  141.2658  157.3082 H   0  0  0  0  0  0  0  0  0  0  0  0
  1  2  1  0  0  0  0
  1 21  1  0  0  0  0
  1 22  1  0  0  0  0
  1 23  1  0  0  0  0
  2 20  1  0  0  0  0
  2  3  2  0  0  0  0
  3  4  1  0  0  0  0
  3 24  1  0  0  0  0
  4  5  1  0  0  0  0
  4 19  2  0  0  0  0
  5  6  1  0  0  0  0
  5 25  1  0  0  0  0
  6  7  2  0  0  0  0
  6  8  1  0  0  0  0
  8  9  1  0  0  0  0
  9 10  1  0  0  0  0
  9 26  1  0  0  0  0
  9 27  1  0  0  0  0
 10 11  1  0  0  0  0
 10 12  1  0  0  0  0
 10 28  1  0  0  0  0
 11 29  1  0  0  0  0
 11 30  1  0  0  0  0
 11 31  1  0  0  0  0
 12 18  1  0  0  0  0
 12 13  1  0  0  0  0
 12 44  1  0  0  0  0
 13 14  1  0  0  0  0
 13 32  1  0  0  0  0
 13 33  1  0  0  0  0
 14 15  1  0  0  0  0
 14 34  1  0  0  0  0
 14 35  1  0  0  0  0
 15 16  1  0  0  0  0
 15 36  1  0  0  0  0
 15 37  1  0  0  0  0
 16 17  1  0  0  0  0
 16 18  1  0  0  0  0
 16 38  1  0  0  0  0
 17 39  1  0  0  0  0
 17 40  1  0  0  0  0
 17 41  1  0  0  0  0
 18 42  1  0  0  0  0
 18 43  1  0  0  0  0
 19 20  1  0  0  0  0
M  CHG  1   8  -1
M  CHG  1  12   1
M  END
> <s_m_source_file>
AV-unprocessed.smi

> <i_m_source_file_index>
2083

> <i_lp_mmshare_version>
43012

> <i_f3d_flags>
0

> <s_epik_input>
W0NIM11jMVtjSF1jKG5vMSlbTkhdQyg9TylbTkhdW0NIMl1bQ0BIXShbQ0gzXSlOMltDSDJdW0NIMl1bQ0gyXVtDQEBIXShbQ0gzXSlbQ0gyXTI=

> <s_epik_cmdline>
J2VwaWtfcHl0aG9uJywgJy1waCcsICc3LjAnLCAnLXRuJywgJzgnLCAnLW1hJywgJzIwMCcsICctbWV0YWxfYmluZGluZycsICctaW1hZScsICc8aW5maWxlLm1hZT4nLCAnLW9tYWUnLCAnPG91dGZpbGUubWFlPic=

> <r_epik_Ionization_Penalty>
6.76934

> <r_epik_Ionization_Penalty_Charging>
6.76934

> <r_epik_Ionization_Penalty_Neutral>
5.77849e-06

> <r_epik_State_Penalty>
6.79457

> <r_epik_Charging_Adjusted_Penalty>
13.5639

> <i_epik_Tot_Q>
0

> <i_epik_Tot_abs_Q>
2

> <r_epik_Metal_State_Penalty>
2.72837

> <b_epik_Metal_Only>
1

> <s_lp_Force_Field>
OPLS_2005

> <r_lp_Energy>
16.9315

> <b_lp_Chiralities_Consistent>
1

> <s_lp_Variant>
AV-unprocessed.smi:2083-23

> <Gold.Version>
5.8.1

> <Gold.Id.Protein>
6NUR|6NUR_protein|mol2

> <Gold.PLP.Fitness>
45.5047

> <Gold.PLP.PLP>
-39.5856

> <Gold.PLP.part.hbond>
-3.0000

> <Gold.PLP.part.metal>
0.0000

> <Gold.PLP.part.buried>
-4.5387

> <Gold.PLP.part.nonpolar>
-31.6576

> <Gold.PLP.part.repulsive>
0.3170

> <Gold.PLP.ligand.clash>
0.0000

> <Gold.PLP.ligand.torsion>
1.1732

> <Gold.PLP.Chemscore.Hbond>
2.7020

> <Gold.PLP.Chemscore.CHOScore>
0.0000

> <Gold.PLP.Chemscore.Metal>
0.0000

> <Gold.Chemscore.Hbonds>
donor molecule, donor type, donor heavy atom, donor atom, acceptor molecule, acceptor atom, score
      P1  H  6896  6907       L1     7  0.21
      P1  H  6931  6943       L1    19  0.49

> <Gold.PLP.Chemscore.Internal.Correction>
0.1596

> <Gold.Rescore>
     Score         DG    S(hbond)    S(metal)    S(lipo)     H(rot)  DE(clash)    DE(int)     intcor
     14.53     -16.74       1.39        0.00      89.80       1.52       0.04       2.17       ----

> <Gold.Chemscore.Fitness>
14.5271

> <Gold.Chemscore.DG>
-16.7372

> <Gold.Chemscore.ZeroCoef>
-5.4800

> <Gold.Chemscore.Hbond>
1.3889

> <Gold.Chemscore.Metal>
0.0000

> <Gold.Chemscore.Lipo>
89.8037

> <Gold.Chemscore.Internal_Hbond>
0.0000

> <Gold.Chemscore.DEClash>
0.0427

> <Gold.Chemscore.DEInternal>
2.1674

> <Gold.Chemscore.Rot>
1.5190

> <Gold.Chemscore.Internal.Correction>
   9.000000E+99

> <Gold.Chemscore.Hbonds>
donor molecule, donor type, donor heavy atom, donor atom, acceptor molecule, acceptor atom, score
      P1  H  6896  6907       L1     7  0.02
      P1  H  6931  6943       L1    19  0.34

> <Gold.Chemscore.Hbond.Weighted>
-4.6388

> <Gold.Chemscore.Metal.Weighted>
-0.0000

> <Gold.Chemscore.Lipo.Weighted>
-10.5070

> <Gold.Chemscore.Internal_Hbond.Weighted>
0.0000

> <Gold.Chemscore.DEClash.Weighted>
0.0427

> <Gold.Chemscore.DEInternal.Weighted>
2.1674

> <Gold.Chemscore.Rot.Weighted>
3.8886

> <Gold.Chemscore.Internal.Correction.Weighted>
   9.000000E+99

> <Gold.Protein.RotatedTorsions>
[ 6907 6896 6895 6894 ] final  -53.91 input  -60.11 | X-H torsion
[ 7974 7965 7964 7962 ] final  -34.47 input  175.53 | X-H torsion
[ 8008 7997 7996 7995 ] final -119.91 input   59.86 | X-H torsion
[ 10167 10162 10161 10158 ] final  168.37 input  -65.29 | X-H torsion
[ 10718 10713 10712 10709 ] final  -31.19 input   66.30 | X-H torsion
[ 10763 10752 10751 10750 ] final  -79.50 input  -60.55 | X-H torsion
[ 11005 11000 10999 10996 ] final  111.63 input  -57.11 | X-H torsion

> <Gold.Protein.ActiveResidues>
 VAL166  LYS551  ARG553  GLY616  TRP617  ASP618  TYR619  PRO620  LYS621  CYS622 
 ASP623  PHE694  ASN695  SER759  ASP760  ASP761  ALA762  ILE779  LEU786  VAL792 
 PHE793  MET794  SER795  GLU796  ALA797  LYS798  CYS799  TRP800  GLU811  SER814 

> <Gold.Protein.RotatedAtoms>
  150.8384  134.7667  159.6912 H   0  0  0  0  0  0  0  0  0  0  0  0  # atno 6907 bound_to 6896
  152.4477  134.5457  159.9862 H   0  0  0  0  0  0  0  0  0  0  0  0  # atno 6908 bound_to 6896
  151.5602  133.3366  159.3005 H   0  0  0  0  0  0  0  0  0  0  0  0  # atno 6909 bound_to 6896
  146.0827  140.6042  142.8901 H   0  0  0  0  0  0  0  0  0  0  0  0  # atno 7974 bound_to 7965
  155.1233  140.0399  157.2755 H   0  0  0  0  0  0  0  0  0  0  0  0  # atno 8008 bound_to 7997
  154.6597  140.2588  155.7096 H   0  0  0  0  0  0  0  0  0  0  0  0  # atno 8009 bound_to 7997
  156.2614  140.2819  156.1065 H   0  0  0  0  0  0  0  0  0  0  0  0  # atno 8010 bound_to 7997
  139.4966  144.3822  151.9610 H   0  0  0  0  0  0  0  0  0  0  0  0  # atno 10167 bound_to 10162
  156.3904  130.4372  149.7399 H   0  0  0  0  0  0  0  0  0  0  0  0  # atno 10718 bound_to 10713
  154.5394  135.5693  153.6827 H   0  0  0  0  0  0  0  0  0  0  0  0  # atno 10763 bound_to 10752
  152.9959  135.6224  154.2522 H   0  0  0  0  0  0  0  0  0  0  0  0  # atno 10764 bound_to 10752
  154.2452  135.2861  155.2818 H   0  0  0  0  0  0  0  0  0  0  0  0  # atno 10765 bound_to 10752
  139.8908  134.9512  156.6462 H   0  0  0  0  0  0  0  0  0  0  0  0  # atno 11005 bound_to 11000
  144.7304  140.4654  143.6942 LP  0  0  0  0  0  0  0  0  0  0  0  0  # atno 17320 bound_to 7965
  145.6188  139.1521  143.3034 LP  0  0  0  0  0  0  0  0  0  0  0  0  # atno 17321 bound_to 7965
  140.3258  144.3374  150.5998 LP  0  0  0  0  0  0  0  0  0  0  0  0  # atno 17342 bound_to 10162
  140.5685  143.2183  151.7640 LP  0  0  0  0  0  0  0  0  0  0  0  0  # atno 17343 bound_to 10162
  156.4455  130.7881  151.2903 LP  0  0  0  0  0  0  0  0  0  0  0  0  # atno 17370 bound_to 10713
  157.7498  131.0112  150.3335 LP  0  0  0  0  0  0  0  0  0  0  0  0  # atno 17371 bound_to 10713
  140.7556  133.8861  155.8379 LP  0  0  0  0  0  0  0  0  0  0  0  0  # atno 17394 bound_to 11000
  140.9965  134.1208  157.4359 LP  0  0  0  0  0  0  0  0  0  0  0  0  # atno 17395 bound_to 11000

$$$$
