AV-unprocessed.smi:1351|AV-procd|sdf|5526|dock1
  -GOLD-   22720 5113D 1   1.00000     0.00000
 Structure written by MMmdl.
 35 36  0  0  0  0  0  0  0  0  2 V2000
  154.0796  141.2842  161.1418 C   0  0  0  0  0  0  0  0  0  0  0  0
  153.0410  142.2927  160.9614 N   0  0  0  0  0  0  0  0  0  0  0  0
  152.9014  143.3821  161.9189 C   0  0  0  0  0  0  0  0  0  0  0  0
  152.2487  142.2809  159.7928 C   0  0  0  0  0  0  0  0  0  0  0  0
  151.6277  143.4394  159.2646 C   0  0  0  0  0  0  0  0  0  0  0  0
  150.8560  143.3476  158.0879 C   0  0  0  0  0  0  0  0  0  0  0  0
  150.6958  142.1009  157.4483 C   0  0  0  0  0  0  0  0  0  0  0  0
  149.9282  142.0613  156.2532 N   0  0  0  0  0  0  0  0  0  0  0  0
  149.9342  141.1339  155.2766 C   0  0  0  0  0  0  0  0  0  0  0  0
  150.5885  140.0923  155.3159 O   0  0  0  0  0  0  0  0  0  0  0  0
  149.0139  141.3988  154.0746 C   0  0  2  0  0  0  0  0  0  0  0  0
  147.9793  142.5180  154.3050 C   0  0  0  0  0  0  0  0  0  0  0  0
  146.6406  141.8417  154.0633 C   0  0  0  0  0  0  0  0  0  0  0  0
  147.0195  140.6478  153.1987 C   0  0  0  0  0  0  0  0  0  0  0  0
  148.2460  140.2331  153.7744 O   0  0  0  0  0  0  0  0  0  0  0  0
  151.3410  140.9740  158.0104 C   0  0  0  0  0  0  0  0  0  0  0  0
  152.0736  141.1076  159.1370 N   0  3  0  0  0  0  0  0  0  0  0  0
  154.8153  141.3443  160.3391 H   0  0  0  0  0  0  0  0  0  0  0  0
  153.6467  140.2834  161.1429 H   0  0  0  0  0  0  0  0  0  0  0  0
  154.6046  141.4198  162.0874 H   0  0  0  0  0  0  0  0  0  0  0  0
  151.8925  143.4020  162.3316 H   0  0  0  0  0  0  0  0  0  0  0  0
  153.1028  144.3412  161.4408 H   0  0  0  0  0  0  0  0  0  0  0  0
  153.5981  143.2718  162.7499 H   0  0  0  0  0  0  0  0  0  0  0  0
  151.7323  144.4024  159.7415 H   0  0  0  0  0  0  0  0  0  0  0  0
  150.3876  144.2330  157.6834 H   0  0  0  0  0  0  0  0  0  0  0  0
  149.2705  142.8183  156.1306 H   0  0  0  0  0  0  0  0  0  0  0  0
  149.6294  141.6401  153.2068 H   0  0  0  0  0  0  0  0  0  0  0  0
  148.0173  142.9620  155.3009 H   0  0  0  0  0  0  0  0  0  0  0  0
  148.1358  143.3207  153.5836 H   0  0  0  0  0  0  0  0  0  0  0  0
  146.2242  141.4930  155.0093 H   0  0  0  0  0  0  0  0  0  0  0  0
  145.9092  142.4971  153.5898 H   0  0  0  0  0  0  0  0  0  0  0  0
  146.2722  139.8545  153.2220 H   0  0  0  0  0  0  0  0  0  0  0  0
  147.1794  140.9469  152.1616 H   0  0  0  0  0  0  0  0  0  0  0  0
  151.3174  139.9748  157.6027 H   0  0  0  0  0  0  0  0  0  0  0  0
  152.5257  140.2743  159.5139 H   0  0  0  0  0  0  0  0  0  0  0  0
  1  2  1  0  0  0  0
  1 18  1  0  0  0  0
  1 19  1  0  0  0  0
  1 20  1  0  0  0  0
  2  3  1  0  0  0  0
  2  4  1  0  0  0  0
  3 21  1  0  0  0  0
  3 22  1  0  0  0  0
  3 23  1  0  0  0  0
  4 17  1  0  0  0  0
  4  5  2  0  0  0  0
  5  6  1  0  0  0  0
  5 24  1  0  0  0  0
  6  7  2  0  0  0  0
  6 25  1  0  0  0  0
  7  8  1  0  0  0  0
  7 16  1  0  0  0  0
  8  9  1  0  0  0  0
  8 26  1  0  0  0  0
  9 10  2  0  0  0  0
  9 11  1  0  0  0  0
 11 15  1  0  0  0  0
 11 12  1  0  0  0  0
 11 27  1  0  0  0  0
 12 13  1  0  0  0  0
 12 28  1  0  0  0  0
 12 29  1  0  0  0  0
 13 14  1  0  0  0  0
 13 30  1  0  0  0  0
 13 31  1  0  0  0  0
 14 15  1  0  0  0  0
 14 32  1  0  0  0  0
 14 33  1  0  0  0  0
 16 17  2  0  0  0  0
 16 34  1  0  0  0  0
 17 35  1  0  0  0  0
M  CHG  1  17   1
M  END
> <s_m_source_file>
AV-unprocessed.smi

> <i_m_source_file_index>
1351

> <i_lp_mmshare_version>
43012

> <i_f3d_flags>
0

> <s_epik_input>
W0NIM11OKFtDSDNdKWMxW2NIXVtjSF1jKFtjSF1uMSlbTkhdQyg9TylbQ0BASF0yW0NIMl1bQ0gyXVtDSDJdTzI=

> <s_epik_cmdline>
J2VwaWtfcHl0aG9uJywgJy1waCcsICc3LjAnLCAnLXRuJywgJzgnLCAnLW1hJywgJzIwMCcsICctbWV0YWxfYmluZGluZycsICctaW1hZScsICc8aW5maWxlLm1hZT4nLCAnLW9tYWUnLCAnPG91dGZpbGUubWFlPic=

> <r_lp_tautomer_probability>
0.999994

> <r_epik_Ionization_Penalty>
0.682441

> <r_epik_Ionization_Penalty_Charging>
0.68244

> <r_epik_Ionization_Penalty_Neutral>
1.70545e-06

> <r_epik_State_Penalty>
0.703594

> <r_epik_Charging_Adjusted_Penalty>
1.38603

> <i_epik_Tot_Q>
1

> <i_epik_Tot_abs_Q>
1

> <r_epik_Metal_State_Penalty>
0.869714

> <b_epik_Metal_Only>
0

> <s_lp_Force_Field>
OPLS_2005

> <r_lp_Energy>
29.3142

> <b_lp_Chiralities_Consistent>
1

> <s_lp_Variant>
AV-unprocessed.smi:1351-3

> <Gold.Version>
5.8.1

> <Gold.Id.Protein>
6NUR|6NUR_protein|mol2

> <Gold.PLP.Fitness>
40.1204

> <Gold.PLP.PLP>
-36.4833

> <Gold.PLP.part.hbond>
-2.0000

> <Gold.PLP.part.metal>
0.0000

> <Gold.PLP.part.buried>
-0.2619

> <Gold.PLP.part.nonpolar>
-35.4462

> <Gold.PLP.part.repulsive>
1.7827

> <Gold.PLP.ligand.clash>
0.0000

> <Gold.PLP.ligand.torsion>
0.6464

> <Gold.PLP.Chemscore.Hbond>
1.6360

> <Gold.PLP.Chemscore.CHOScore>
0.0000

> <Gold.PLP.Chemscore.Metal>
0.0000

> <Gold.Chemscore.Hbonds>
donor molecule, donor type, donor heavy atom, donor atom, acceptor molecule, acceptor atom, score
      L1  H     8    26       P1  8028  1.00
      P1  H  7989  7998       L1    10  0.15

> <Gold.PLP.Chemscore.Internal.Correction>
0.0220

> <Gold.Rescore>
     Score         DG    S(hbond)    S(metal)    S(lipo)     H(rot)  DE(clash)    DE(int)     intcor
     11.72     -14.85       0.68        0.00      82.51       1.00       1.34       1.79       ----

> <Gold.Chemscore.Fitness>
11.7179

> <Gold.Chemscore.DG>
-14.8492

> <Gold.Chemscore.ZeroCoef>
-5.4800

> <Gold.Chemscore.Hbond>
0.6814

> <Gold.Chemscore.Metal>
0.0000

> <Gold.Chemscore.Lipo>
82.5058

> <Gold.Chemscore.Internal_Hbond>
0.0000

> <Gold.Chemscore.DEClash>
1.3377

> <Gold.Chemscore.DEInternal>
1.7936

> <Gold.Chemscore.Rot>
1.0000

> <Gold.Chemscore.Internal.Correction>
   9.000000E+99

> <Gold.Chemscore.Hbonds>
donor molecule, donor type, donor heavy atom, donor atom, acceptor molecule, acceptor atom, score
      L1  H     8    26       P1  8028  0.91

> <Gold.Chemscore.Hbond.Weighted>
-2.2760

> <Gold.Chemscore.Metal.Weighted>
-0.0000

> <Gold.Chemscore.Lipo.Weighted>
-9.6532

> <Gold.Chemscore.Internal_Hbond.Weighted>
0.0000

> <Gold.Chemscore.DEClash.Weighted>
1.3377

> <Gold.Chemscore.DEInternal.Weighted>
1.7936

> <Gold.Chemscore.Rot.Weighted>
2.5600

> <Gold.Chemscore.Internal.Correction.Weighted>
   9.000000E+99

> <Gold.Protein.RotatedTorsions>
[ 6907 6896 6895 6894 ] final  -56.55 input  -60.11 | X-H torsion
[ 7974 7965 7964 7962 ] final  163.60 input  175.53 | X-H torsion
[ 8008 7997 7996 7995 ] final  -97.68 input   59.86 | X-H torsion
[ 10167 10162 10161 10158 ] final  -56.79 input  -65.29 | X-H torsion
[ 10718 10713 10712 10709 ] final -110.81 input   66.30 | X-H torsion
[ 10763 10752 10751 10750 ] final -111.43 input  -60.55 | X-H torsion
[ 11005 11000 10999 10996 ] final   74.22 input  -57.11 | X-H torsion

> <Gold.Protein.ActiveResidues>
 VAL166  LYS551  ARG553  GLY616  TRP617  ASP618  TYR619  PRO620  LYS621  CYS622 
 ASP623  PHE694  ASN695  SER759  ASP760  ASP761  ALA762  ILE779  LEU786  VAL792 
 PHE793  MET794  SER795  GLU796  ALA797  LYS798  CYS799  TRP800  GLU811  SER814 

> <Gold.Protein.RotatedAtoms>
  150.8158  134.7339  159.6728 H   0  0  0  0  0  0  0  0  0  0  0  0  # atno 6907 bound_to 6896
  152.4277  134.5834  159.9964 H   0  0  0  0  0  0  0  0  0  0  0  0  # atno 6908 bound_to 6896
  151.6032  133.3317  159.3087 H   0  0  0  0  0  0  0  0  0  0  0  0  # atno 6909 bound_to 6896
  144.7582  139.8205  143.6342 H   0  0  0  0  0  0  0  0  0  0  0  0  # atno 7974 bound_to 7965
  154.7909  140.0461  157.1200 H   0  0  0  0  0  0  0  0  0  0  0  0  # atno 8008 bound_to 7997
  154.9591  140.3075  155.5019 H   0  0  0  0  0  0  0  0  0  0  0  0  # atno 8009 bound_to 7997
  156.2950  140.2274  156.4675 H   0  0  0  0  0  0  0  0  0  0  0  0  # atno 8010 bound_to 7997
  140.6296  143.2453  151.5274 H   0  0  0  0  0  0  0  0  0  0  0  0  # atno 10167 bound_to 10162
  156.0611  130.5834  150.8287 H   0  0  0  0  0  0  0  0  0  0  0  0  # atno 10718 bound_to 10713
  154.8300  135.4527  154.1038 H   0  0  0  0  0  0  0  0  0  0  0  0  # atno 10763 bound_to 10752
  153.2320  135.6906  153.7886 H   0  0  0  0  0  0  0  0  0  0  0  0  # atno 10764 bound_to 10752
  153.7265  135.3333  155.3253 H   0  0  0  0  0  0  0  0  0  0  0  0  # atno 10765 bound_to 10752
  139.9401  134.7414  156.1122 H   0  0  0  0  0  0  0  0  0  0  0  0  # atno 11005 bound_to 11000
  146.1617  139.4734  142.9984 LP  0  0  0  0  0  0  0  0  0  0  0  0  # atno 17320 bound_to 7965
  145.6706  141.0217  143.1660 LP  0  0  0  0  0  0  0  0  0  0  0  0  # atno 17321 bound_to 7965
  139.5512  144.2391  152.1533 LP  0  0  0  0  0  0  0  0  0  0  0  0  # atno 17342 bound_to 10162
  140.1631  144.5007  150.6621 LP  0  0  0  0  0  0  0  0  0  0  0  0  # atno 17343 bound_to 10162
  157.5620  131.0946  150.9544 LP  0  0  0  0  0  0  0  0  0  0  0  0  # atno 17370 bound_to 10713
  156.9780  130.5516  149.5294 LP  0  0  0  0  0  0  0  0  0  0  0  0  # atno 17371 bound_to 10713
  141.1032  133.6669  156.2803 LP  0  0  0  0  0  0  0  0  0  0  0  0  # atno 17394 bound_to 11000
  140.5973  134.5590  157.5511 LP  0  0  0  0  0  0  0  0  0  0  0  0  # atno 17395 bound_to 11000

$$$$
