AV-unprocessed.smi:2010|AV-procd|sdf|8151|dock10
  -GOLD-   2272010393D 1   1.00000     0.00000
 Structure written by MMmdl.
 40 41  0  0  0  0  0  0  0  0  2 V2000
  151.9431  145.5865  160.2545 C   0  0  0  0  0  0  0  0  0  0  0  0
  152.1973  144.4791  159.2220 C   0  0  0  0  0  0  0  0  0  0  0  0
  151.0026  144.2995  158.2753 C   0  0  0  0  0  0  0  0  0  0  0  0
  151.2629  143.1843  157.2501 C   0  0  0  0  0  0  0  0  0  0  0  0
  151.6126  141.9102  157.9136 N   0  0  0  0  0  0  0  0  0  0  0  0
  151.4651  140.4467  156.9799 S   0  0  0  0  0  0  0  0  0  0  0  0
  151.2426  140.8954  155.5967 O   0  0  0  0  0  0  0  0  0  0  0  0
  152.6719  139.6434  157.2432 O   0  0  0  0  0  0  0  0  0  0  0  0
  150.1105  139.8530  157.6683 N   0  5  0  0  0  0  0  0  0  0  0  0
  149.2911  138.8294  157.0182 C   0  0  2  0  0  0  0  0  0  0  0  0
  149.9215  137.4523  157.2795 C   0  0  0  0  0  0  0  0  0  0  0  0
  149.0913  139.1487  155.5104 C   0  0  0  0  0  0  0  0  0  0  0  0
  148.2811  140.3281  155.2146 N   0  0  0  0  0  0  0  0  0  0  0  0
  147.9846  140.8824  153.9837 C   0  0  0  0  0  0  0  0  0  0  0  0
  147.1707  141.9569  154.2006 C   0  0  0  0  0  0  0  0  0  0  0  0
  147.0057  141.9744  155.6133 C   0  0  0  0  0  0  0  0  0  0  0  0
  147.6576  140.9938  156.2147 N   0  0  0  0  0  0  0  0  0  0  0  0
  152.7411  142.0210  158.8576 C   0  0  0  0  0  0  0  0  0  0  0  0
  152.4954  143.1311  159.8933 C   0  0  0  0  0  0  0  0  0  0  0  0
  151.0789  145.3563  160.8784 H   0  0  0  0  0  0  0  0  0  0  0  0
  151.7558  146.5427  159.7652 H   0  0  0  0  0  0  0  0  0  0  0  0
  152.8038  145.7151  160.9114 H   0  0  0  0  0  0  0  0  0  0  0  0
  153.0664  144.7674  158.6290 H   0  0  0  0  0  0  0  0  0  0  0  0
  150.1052  144.0637  158.8489 H   0  0  0  0  0  0  0  0  0  0  0  0
  150.7958  145.2332  157.7517 H   0  0  0  0  0  0  0  0  0  0  0  0
  150.3821  143.0517  156.6233 H   0  0  0  0  0  0  0  0  0  0  0  0
  152.0770  143.4676  156.5821 H   0  0  0  0  0  0  0  0  0  0  0  0
  148.2941  138.7973  157.4577 H   0  0  0  0  0  0  0  0  0  0  0  0
  149.3516  136.6632  156.7887 H   0  0  0  0  0  0  0  0  0  0  0  0
  149.9401  137.2274  158.3464 H   0  0  0  0  0  0  0  0  0  0  0  0
  150.9482  137.3996  156.9155 H   0  0  0  0  0  0  0  0  0  0  0  0
  150.0701  139.3141  155.0590 H   0  0  0  0  0  0  0  0  0  0  0  0
  148.6745  138.2901  154.9839 H   0  0  0  0  0  0  0  0  0  0  0  0
  148.3799  140.4716  153.0665 H   0  0  0  0  0  0  0  0  0  0  0  0
  146.7545  142.6263  153.4627 H   0  0  0  0  0  0  0  0  0  0  0  0
  146.4307  142.6621  156.2154 H   0  0  0  0  0  0  0  0  0  0  0  0
  152.8814  141.0763  159.3818 H   0  0  0  0  0  0  0  0  0  0  0  0
  153.6561  142.2129  158.2960 H   0  0  0  0  0  0  0  0  0  0  0  0
  153.3663  143.2214  160.5433 H   0  0  0  0  0  0  0  0  0  0  0  0
  151.6600  142.8459  160.5348 H   0  0  0  0  0  0  0  0  0  0  0  0
  1  2  1  0  0  0  0
  1 20  1  0  0  0  0
  1 21  1  0  0  0  0
  1 22  1  0  0  0  0
  2 19  1  0  0  0  0
  2  3  1  0  0  0  0
  2 23  1  0  0  0  0
  3  4  1  0  0  0  0
  3 24  1  0  0  0  0
  3 25  1  0  0  0  0
  4  5  1  0  0  0  0
  4 26  1  0  0  0  0
  4 27  1  0  0  0  0
  5  6  1  0  0  0  0
  5 18  1  0  0  0  0
  6  7  2  0  0  0  0
  6  8  2  0  0  0  0
  6  9  1  0  0  0  0
  9 10  1  0  0  0  0
 10 11  1  0  0  0  0
 10 12  1  0  0  0  0
 10 28  1  0  0  0  0
 11 29  1  0  0  0  0
 11 30  1  0  0  0  0
 11 31  1  0  0  0  0
 12 13  1  0  0  0  0
 12 32  1  0  0  0  0
 12 33  1  0  0  0  0
 13 17  1  0  0  0  0
 13 14  1  0  0  0  0
 14 15  2  0  0  0  0
 14 34  1  0  0  0  0
 15 16  1  0  0  0  0
 15 35  1  0  0  0  0
 16 17  2  0  0  0  0
 16 36  1  0  0  0  0
 18 19  1  0  0  0  0
 18 37  1  0  0  0  0
 18 38  1  0  0  0  0
 19 39  1  0  0  0  0
 19 40  1  0  0  0  0
M  CHG  1   9  -1
M  END
> <s_m_source_file>
AV-unprocessed.smi

> <i_m_source_file_index>
2010

> <i_lp_mmshare_version>
43012

> <i_f3d_flags>
0

> <s_epik_input>
W0NIM11bQ0hdMVtDSDJdW0NIMl1OKFtDSDJdW0NIMl0xKVMoPU8pKD1PKVtOSF1bQ0BIXShbQ0gzXSlbQ0gyXW4yW2NIXVtjSF1bY0hdbjI=

> <s_epik_cmdline>
J2VwaWtfcHl0aG9uJywgJy1waCcsICc3LjAnLCAnLXRuJywgJzgnLCAnLW1hJywgJzIwMCcsICctbWV0YWxfYmluZGluZycsICctaW1hZScsICc8aW5maWxlLm1hZT4nLCAnLW9tYWUnLCAnPG91dGZpbGUubWFlPic=

> <r_lp_tautomer_probability>
1

> <r_epik_Ionization_Penalty>
1.75622

> <r_epik_Ionization_Penalty_Charging>
1.7562

> <r_epik_Ionization_Penalty_Neutral>
2.39925e-05

> <r_epik_State_Penalty>
1.86645

> <r_epik_Charging_Adjusted_Penalty>
3.62264

> <i_epik_Tot_Q>
-1

> <i_epik_Tot_abs_Q>
1

> <r_epik_Metal_State_Penalty>
0.460135

> <b_epik_Metal_Only>
0

> <s_lp_Force_Field>
OPLS_2005

> <r_lp_Energy>
7.98706

> <b_lp_Chiralities_Consistent>
1

> <s_lp_Variant>
AV-unprocessed.smi:2010-3

> <Gold.Version>
5.8.1

> <Gold.Id.Protein>
6NUR|6NUR_protein|mol2

> <Gold.PLP.Fitness>
41.7705

> <Gold.PLP.PLP>
-35.0555

> <Gold.PLP.part.hbond>
-2.0000

> <Gold.PLP.part.metal>
0.0000

> <Gold.PLP.part.buried>
-3.5764

> <Gold.PLP.part.nonpolar>
-29.4786

> <Gold.PLP.part.repulsive>
0.1095

> <Gold.PLP.ligand.clash>
0.0000

> <Gold.PLP.ligand.torsion>
1.3249

> <Gold.PLP.Chemscore.Hbond>
1.5478

> <Gold.PLP.Chemscore.CHOScore>
1.0000

> <Gold.PLP.Chemscore.Metal>
0.0000

> <Gold.Chemscore.Hbonds>
donor molecule, donor type, donor heavy atom, donor atom, acceptor molecule, acceptor atom, score
      P1  H  7989  7998       L1     7  0.54
      P1  H  7997  8009       L1     8  1.00
      L1  C    14    34       P1  7957  1.00

> <Gold.PLP.Chemscore.Internal.Correction>
1.7213

> <Gold.Rescore>
     Score         DG    S(hbond)    S(metal)    S(lipo)     H(rot)  DE(clash)    DE(int)     intcor
     15.09     -18.10       1.66        0.00      94.08       1.54       0.19       2.81       ----

> <Gold.Chemscore.Fitness>
15.0897

> <Gold.Chemscore.DG>
-18.0953

> <Gold.Chemscore.ZeroCoef>
-5.4800

> <Gold.Chemscore.Hbond>
1.6601

> <Gold.Chemscore.Metal>
0.0000

> <Gold.Chemscore.Lipo>
94.0781

> <Gold.Chemscore.Internal_Hbond>
0.0000

> <Gold.Chemscore.DEClash>
0.1906

> <Gold.Chemscore.DEInternal>
2.8149

> <Gold.Chemscore.Rot>
1.5377

> <Gold.Chemscore.Internal.Correction>
   9.000000E+99

> <Gold.Chemscore.Hbonds>
donor molecule, donor type, donor heavy atom, donor atom, acceptor molecule, acceptor atom, score
      P1  H  7989  7998       L1     7  0.54
      P1  H  7997  8009       L1     8  0.96

> <Gold.Chemscore.Hbond.Weighted>
-5.5447

> <Gold.Chemscore.Metal.Weighted>
-0.0000

> <Gold.Chemscore.Lipo.Weighted>
-11.0071

> <Gold.Chemscore.Internal_Hbond.Weighted>
0.0000

> <Gold.Chemscore.DEClash.Weighted>
0.1906

> <Gold.Chemscore.DEInternal.Weighted>
2.8149

> <Gold.Chemscore.Rot.Weighted>
3.9365

> <Gold.Chemscore.Internal.Correction.Weighted>
   9.000000E+99

> <Gold.Protein.RotatedTorsions>
[ 6907 6896 6895 6894 ] final  108.03 input  -60.11 | X-H torsion
[ 7974 7965 7964 7962 ] final -148.32 input  175.53 | X-H torsion
[ 8008 7997 7996 7995 ] final -167.88 input   59.86 | X-H torsion
[ 10167 10162 10161 10158 ] final  -28.50 input  -65.29 | X-H torsion
[ 10718 10713 10712 10709 ] final -167.75 input   66.30 | X-H torsion
[ 10763 10752 10751 10750 ] final   29.24 input  -60.55 | X-H torsion
[ 11005 11000 10999 10996 ] final  168.31 input  -57.11 | X-H torsion

> <Gold.Protein.ActiveResidues>
 VAL166  LYS551  ARG553  GLY616  TRP617  ASP618  TYR619  PRO620  LYS621  CYS622 
 ASP623  PHE694  ASN695  SER759  ASP760  ASP761  ALA762  ILE779  LEU786  VAL792 
 PHE793  MET794  SER795  GLU796  ALA797  LYS798  CYS799  TRP800  GLU811  SER814 

> <Gold.Protein.RotatedAtoms>
  152.5129  133.9148  159.7505 H   0  0  0  0  0  0  0  0  0  0  0  0  # atno 6907 bound_to 6896
  150.9533  133.6516  159.2774 H   0  0  0  0  0  0  0  0  0  0  0  0  # atno 6908 bound_to 6896
  151.3787  135.0941  159.9542 H   0  0  0  0  0  0  0  0  0  0  0  0  # atno 6909 bound_to 6896
  144.8036  140.5211  143.5690 H   0  0  0  0  0  0  0  0  0  0  0  0  # atno 7974 bound_to 7965
  155.8837  140.1013  157.1467 H   0  0  0  0  0  0  0  0  0  0  0  0  # atno 8008 bound_to 7997
  154.4008  140.1324  156.4292 H   0  0  0  0  0  0  0  0  0  0  0  0  # atno 8009 bound_to 7997
  155.7613  140.3463  155.5202 H   0  0  0  0  0  0  0  0  0  0  0  0  # atno 8010 bound_to 7997
  140.7269  143.4005  151.1273 H   0  0  0  0  0  0  0  0  0  0  0  0  # atno 10167 bound_to 10162
  156.6870  130.9144  151.3064 H   0  0  0  0  0  0  0  0  0  0  0  0  # atno 10718 bound_to 10713
  153.0442  135.6493  154.0861 H   0  0  0  0  0  0  0  0  0  0  0  0  # atno 10763 bound_to 10752
  154.0562  135.2891  155.3334 H   0  0  0  0  0  0  0  0  0  0  0  0  # atno 10764 bound_to 10752
  154.6688  135.5364  153.8176 H   0  0  0  0  0  0  0  0  0  0  0  0  # atno 10765 bound_to 10752
  140.2859  134.7713  157.3797 H   0  0  0  0  0  0  0  0  0  0  0  0  # atno 11005 bound_to 11000
  145.5491  139.1476  143.3404 LP  0  0  0  0  0  0  0  0  0  0  0  0  # atno 17320 bound_to 7965
  146.2323  140.5630  142.8970 LP  0  0  0  0  0  0  0  0  0  0  0  0  # atno 17321 bound_to 7965
  139.7624  143.8616  152.3103 LP  0  0  0  0  0  0  0  0  0  0  0  0  # atno 17342 bound_to 10162
  139.8506  144.7166  150.9219 LP  0  0  0  0  0  0  0  0  0  0  0  0  # atno 17343 bound_to 10162
  157.7023  130.9346  150.0823 LP  0  0  0  0  0  0  0  0  0  0  0  0  # atno 17370 bound_to 10713
  156.1826  130.3651  149.9015 LP  0  0  0  0  0  0  0  0  0  0  0  0  # atno 17371 bound_to 10713
  140.1240  134.5182  155.8160 LP  0  0  0  0  0  0  0  0  0  0  0  0  # atno 17394 bound_to 11000
  141.2155  133.6766  156.6918 LP  0  0  0  0  0  0  0  0  0  0  0  0  # atno 17395 bound_to 11000

$$$$
