AV-unprocessed.smi:1610|AV-procd|sdf|6473|dock9
  -GOLD-   22720 7133D 1   1.00000     0.00000
 Structure written by MMmdl.
 44 45  0  0  0  0  0  0  0  0  3 V2000
  147.2322  135.1662  160.5476 C   0  0  0  0  0  0  0  0  0  0  0  0
  148.0373  136.6402  159.8057 S   0  0  0  0  0  0  0  0  0  0  0  0
  147.1617  137.7783  160.1292 O   0  0  0  0  0  0  0  0  0  0  0  0
  149.4058  136.6643  160.3461 O   0  0  0  0  0  0  0  0  0  0  0  0
  147.9784  136.2489  158.2321 N   0  5  0  0  0  0  0  0  0  0  0  0
  149.1415  135.6982  157.5413 C   0  0  0  0  0  0  0  0  0  0  0  0
  149.0288  135.8551  155.9933 C   0  0  0  0  0  0  0  0  0  0  0  0
  150.0246  134.9744  155.1903 C   0  0  0  0  0  0  0  0  0  0  0  0
  149.8606  133.5586  155.5726 N   0  0  0  0  0  0  0  0  0  0  0  0
  149.0939  132.6371  154.9382 C   0  0  0  0  0  0  0  0  0  0  0  0
  148.9046  131.5026  155.3795 O   0  0  0  0  0  0  0  0  0  0  0  0
  148.5001  133.0809  153.8159 N   0  0  0  0  0  0  0  0  0  0  0  0
  147.4406  132.3885  153.0841 C   0  0  0  0  0  0  0  0  0  0  0  0
  146.1584  133.2419  152.9821 C   0  0  0  0  0  0  0  0  0  0  0  0
  145.3493  133.0042  151.7153 C   0  0  0  0  0  0  0  0  0  0  0  0
  145.6928  131.9650  150.8219 C   0  0  0  0  0  0  0  0  0  0  0  0
  144.8905  131.7352  149.6847 C   0  0  0  0  0  0  0  0  0  0  0  0
  143.7644  132.5536  149.4618 C   0  0  0  0  0  0  0  0  0  0  0  0
  143.4770  133.5488  150.3278 N   0  3  0  0  0  0  0  0  0  0  0  0
  144.2214  133.8029  151.4257 C   0  0  0  0  0  0  0  0  0  0  0  0
  150.2558  133.4018  156.9817 C   0  0  0  0  0  0  0  0  0  0  0  0
  149.2658  134.1856  157.8897 C   0  0  0  0  0  0  0  0  0  0  0  0
  147.1810  135.2896  161.6289 H   0  0  0  0  0  0  0  0  0  0  0  0
  147.8162  134.2768  160.3124 H   0  0  0  0  0  0  0  0  0  0  0  0
  146.2252  135.0585  160.1462 H   0  0  0  0  0  0  0  0  0  0  0  0
  150.0617  136.1896  157.8581 H   0  0  0  0  0  0  0  0  0  0  0  0
  148.0225  135.5972  155.6719 H   0  0  0  0  0  0  0  0  0  0  0  0
  149.1750  136.8995  155.7160 H   0  0  0  0  0  0  0  0  0  0  0  0
  149.8898  135.1402  154.1213 H   0  0  0  0  0  0  0  0  0  0  0  0
  151.0534  135.2844  155.3863 H   0  0  0  0  0  0  0  0  0  0  0  0
  148.7197  134.0189  153.5134 H   0  0  0  0  0  0  0  0  0  0  0  0
  147.8049  132.1490  152.0849 H   0  0  0  0  0  0  0  0  0  0  0  0
  147.2074  131.4321  153.5542 H   0  0  0  0  0  0  0  0  0  0  0  0
  145.5247  133.0357  153.8457 H   0  0  0  0  0  0  0  0  0  0  0  0
  146.4143  134.3002  153.0417 H   0  0  0  0  0  0  0  0  0  0  0  0
  146.5487  131.3355  151.0170 H   0  0  0  0  0  0  0  0  0  0  0  0
  145.1292  130.9351  148.9996 H   0  0  0  0  0  0  0  0  0  0  0  0
  143.0864  132.4410  148.6286 H   0  0  0  0  0  0  0  0  0  0  0  0
  143.8717  134.6128  152.0493 H   0  0  0  0  0  0  0  0  0  0  0  0
  150.2794  132.3536  157.2827 H   0  0  0  0  0  0  0  0  0  0  0  0
  151.2785  133.7589  157.1207 H   0  0  0  0  0  0  0  0  0  0  0  0
  149.5622  134.0740  158.9332 H   0  0  0  0  0  0  0  0  0  0  0  0
  148.2861  133.7116  157.8046 H   0  0  0  0  0  0  0  0  0  0  0  0
  142.6497  134.1226  150.1576 H   0  0  0  0  0  0  0  0  0  0  0  0
  1  2  1  0  0  0  0
  1 23  1  0  0  0  0
  1 24  1  0  0  0  0
  1 25  1  0  0  0  0
  2  3  2  0  0  0  0
  2  4  2  0  0  0  0
  2  5  1  0  0  0  0
  5  6  1  0  0  0  0
  6 22  1  0  0  0  0
  6  7  1  0  0  0  0
  6 26  1  0  0  0  0
  7  8  1  0  0  0  0
  7 27  1  0  0  0  0
  7 28  1  0  0  0  0
  8  9  1  0  0  0  0
  8 29  1  0  0  0  0
  8 30  1  0  0  0  0
  9 10  1  0  0  0  0
  9 21  1  0  0  0  0
 10 11  2  0  0  0  0
 10 12  1  0  0  0  0
 12 13  1  0  0  0  0
 12 31  1  0  0  0  0
 13 14  1  0  0  0  0
 13 32  1  0  0  0  0
 13 33  1  0  0  0  0
 14 15  1  0  0  0  0
 14 34  1  0  0  0  0
 14 35  1  0  0  0  0
 15 20  1  0  0  0  0
 15 16  2  0  0  0  0
 16 17  1  0  0  0  0
 16 36  1  0  0  0  0
 17 18  2  0  0  0  0
 17 37  1  0  0  0  0
 18 19  1  0  0  0  0
 18 38  1  0  0  0  0
 19 20  2  0  0  0  0
 19 44  1  0  0  0  0
 20 39  1  0  0  0  0
 21 22  1  0  0  0  0
 21 40  1  0  0  0  0
 21 41  1  0  0  0  0
 22 42  1  0  0  0  0
 22 43  1  0  0  0  0
M  CHG  1   5  -1
M  CHG  1  19   1
M  END
> <s_m_source_file>
AV-unprocessed.smi

> <i_m_source_file_index>
1610

> <i_lp_mmshare_version>
43012

> <i_f3d_flags>
0

> <s_epik_input>
W0NIM11TKD1PKSg9TylbTkhdW0NIXTFbQ0gyXVtDSDJdTihbQ0gyXVtDSDJdMSlDKD1PKVtOSF1bQ0gyXVtDSDJdYzJbY0hdW2NIXVtjSF1uW2NIXTI=

> <s_epik_cmdline>
J2VwaWtfcHl0aG9uJywgJy1waCcsICc3LjAnLCAnLXRuJywgJzgnLCAnLW1hJywgJzIwMCcsICctbWV0YWxfYmluZGluZycsICctaW1hZScsICc8aW5maWxlLm1hZT4nLCAnLW9tYWUnLCAnPG91dGZpbGUubWFlPic=

> <r_epik_Ionization_Penalty>
8.91489

> <r_epik_Ionization_Penalty_Charging>
8.91482

> <r_epik_Ionization_Penalty_Neutral>
6.17235e-05

> <r_epik_State_Penalty>
9.05939

> <r_epik_Charging_Adjusted_Penalty>
17.9742

> <i_epik_Tot_Q>
0

> <i_epik_Tot_abs_Q>
2

> <r_epik_Metal_State_Penalty>
4.99481

> <b_epik_Metal_Only>
1

> <s_lp_Force_Field>
OPLS_2005

> <r_lp_Energy>
23.4301

> <b_lp_Chiralities_Consistent>
1

> <s_lp_Variant>
AV-unprocessed.smi:1610-4

> <Gold.Version>
5.8.1

> <Gold.Id.Protein>
6NUR|6NUR_protein|mol2

> <Gold.PLP.Fitness>
47.7335

> <Gold.PLP.PLP>
-35.0809

> <Gold.PLP.part.hbond>
-4.0000

> <Gold.PLP.part.metal>
0.0000

> <Gold.PLP.part.buried>
-4.1235

> <Gold.PLP.part.nonpolar>
-26.8300

> <Gold.PLP.part.repulsive>
0.0414

> <Gold.PLP.ligand.clash>
0.0000

> <Gold.PLP.ligand.torsion>
1.0698

> <Gold.PLP.Chemscore.Hbond>
4.5520

> <Gold.PLP.Chemscore.CHOScore>
0.0000

> <Gold.PLP.Chemscore.Metal>
0.0000

> <Gold.Chemscore.Hbonds>
donor molecule, donor type, donor heavy atom, donor atom, acceptor molecule, acceptor atom, score
      L1  H    19    44       P1 10186  2.00
      P1  H  6931  6943       L1     4  0.27
      P1  H  6934  6947       L1     3  0.84

> <Gold.PLP.Chemscore.Internal.Correction>
1.1362

> <Gold.Rescore>
     Score         DG    S(hbond)    S(metal)    S(lipo)     H(rot)  DE(clash)    DE(int)     intcor
     18.10     -19.45       2.96        0.00      73.53       1.77       0.01       1.34       ----

> <Gold.Chemscore.Fitness>
18.0959

> <Gold.Chemscore.DG>
-19.4462

> <Gold.Chemscore.ZeroCoef>
-5.4800

> <Gold.Chemscore.Hbond>
2.9595

> <Gold.Chemscore.Metal>
0.0000

> <Gold.Chemscore.Lipo>
73.5258

> <Gold.Chemscore.Internal_Hbond>
0.0000

> <Gold.Chemscore.DEClash>
0.0064

> <Gold.Chemscore.DEInternal>
1.3439

> <Gold.Chemscore.Rot>
1.7661

> <Gold.Chemscore.Internal.Correction>
   9.000000E+99

> <Gold.Chemscore.Hbonds>
donor molecule, donor type, donor heavy atom, donor atom, acceptor molecule, acceptor atom, score
      L1  H    19    44       P1 10186  0.94
      P1  H  6931  6943       L1     4  0.05
      P1  H  6934  6947       L1     3  0.78

> <Gold.Chemscore.Hbond.Weighted>
-9.8848

> <Gold.Chemscore.Metal.Weighted>
-0.0000

> <Gold.Chemscore.Lipo.Weighted>
-8.6025

> <Gold.Chemscore.Internal_Hbond.Weighted>
0.0000

> <Gold.Chemscore.DEClash.Weighted>
0.0064

> <Gold.Chemscore.DEInternal.Weighted>
1.3439

> <Gold.Chemscore.Rot.Weighted>
4.5211

> <Gold.Chemscore.Internal.Correction.Weighted>
   9.000000E+99

> <Gold.Protein.RotatedTorsions>
[ 6907 6896 6895 6894 ] final  -70.69 input  -60.11 | X-H torsion
[ 7974 7965 7964 7962 ] final   -5.44 input  175.53 | X-H torsion
[ 8008 7997 7996 7995 ] final -152.08 input   59.86 | X-H torsion
[ 10167 10162 10161 10158 ] final  -77.96 input  -65.29 | X-H torsion
[ 10718 10713 10712 10709 ] final   32.06 input   66.30 | X-H torsion
[ 10763 10752 10751 10750 ] final -135.99 input  -60.55 | X-H torsion
[ 11005 11000 10999 10996 ] final  -38.25 input  -57.11 | X-H torsion

> <Gold.Protein.ActiveResidues>
 VAL166  LYS551  ARG553  GLY616  TRP617  ASP618  TYR619  PRO620  LYS621  CYS622 
 ASP623  PHE694  ASN695  SER759  ASP760  ASP761  ALA762  ILE779  LEU786  VAL792 
 PHE793  MET794  SER795  GLU796  ALA797  LYS798  CYS799  TRP800  GLU811  SER814 

> <Gold.Protein.RotatedAtoms>
  150.7246  134.5417  159.5750 H   0  0  0  0  0  0  0  0  0  0  0  0  # atno 6907 bound_to 6896
  152.2926  134.7701  160.0384 H   0  0  0  0  0  0  0  0  0  0  0  0  # atno 6908 bound_to 6896
  151.8310  133.3373  159.3650 H   0  0  0  0  0  0  0  0  0  0  0  0  # atno 6909 bound_to 6896
  146.2352  140.2022  142.8334 H   0  0  0  0  0  0  0  0  0  0  0  0  # atno 7974 bound_to 7965
  155.6495  140.0710  157.2592 H   0  0  0  0  0  0  0  0  0  0  0  0  # atno 8008 bound_to 7997
  154.4166  140.1736  156.1709 H   0  0  0  0  0  0  0  0  0  0  0  0  # atno 8009 bound_to 7997
  155.9789  140.3355  155.6647 H   0  0  0  0  0  0  0  0  0  0  0  0  # atno 8010 bound_to 7997
  140.4725  143.2423  151.8184 H   0  0  0  0  0  0  0  0  0  0  0  0  # atno 10167 bound_to 10162
  157.2805  130.7252  149.6554 H   0  0  0  0  0  0  0  0  0  0  0  0  # atno 10718 bound_to 10713
  154.8692  135.3686  154.4988 H   0  0  0  0  0  0  0  0  0  0  0  0  # atno 10763 bound_to 10752
  153.5630  135.7022  153.5544 H   0  0  0  0  0  0  0  0  0  0  0  0  # atno 10764 bound_to 10752
  153.3611  135.4046  155.1682 H   0  0  0  0  0  0  0  0  0  0  0  0  # atno 10765 bound_to 10752
  141.0014  133.6954  156.2029 H   0  0  0  0  0  0  0  0  0  0  0  0  # atno 11005 bound_to 11000
  144.9773  140.8426  143.5419 LP  0  0  0  0  0  0  0  0  0  0  0  0  # atno 17320 bound_to 7965
  145.2011  139.2252  143.5192 LP  0  0  0  0  0  0  0  0  0  0  0  0  # atno 17321 bound_to 7965
  139.4820  144.4875  151.9228 LP  0  0  0  0  0  0  0  0  0  0  0  0  # atno 17342 bound_to 10162
  140.3960  144.2555  150.5896 LP  0  0  0  0  0  0  0  0  0  0  0  0  # atno 17343 bound_to 10162
  155.9664  130.4339  150.5028 LP  0  0  0  0  0  0  0  0  0  0  0  0  # atno 17370 bound_to 10713
  157.2971  131.0638  151.2094 LP  0  0  0  0  0  0  0  0  0  0  0  0  # atno 17371 bound_to 10713
  140.6883  134.4693  157.5589 LP  0  0  0  0  0  0  0  0  0  0  0  0  # atno 17394 bound_to 11000
  139.9040  134.8490  156.1778 LP  0  0  0  0  0  0  0  0  0  0  0  0  # atno 17395 bound_to 11000

$$$$
