AV-unprocessed.smi:2062|AV-procd|sdf|8403|dock4
  -GOLD-   2272011 93D 1   1.00000     0.00000
 Structure written by MMmdl.
 42 43  0  0  0  0  0  0  0  0  3 V2000
  148.0586  140.2458  153.4857 C   0  0  0  0  0  0  0  0  0  0  0  0
  147.7278  141.3210  154.5312 C   0  0  0  0  0  0  0  0  0  0  0  0
  146.9272  142.4655  153.8872 C   0  0  0  0  0  0  0  0  0  0  0  0
  149.0169  141.8297  155.2131 C   0  0  0  0  0  0  0  0  0  0  0  0
  149.0546  141.5478  156.6740 N   0  3  2  0  0  0  0  0  0  0  0  0
  150.3180  141.9692  157.3265 C   0  0  0  0  0  0  0  0  0  0  0  0
  151.4444  140.9559  157.0608 C   0  0  0  0  0  0  0  0  0  0  0  0
  151.0303  139.6745  157.5127 O   0  0  0  0  0  0  0  0  0  0  0  0
  149.8932  139.1843  156.8088 C   0  0  1  0  0  0  0  0  0  0  0  0
  149.5741  137.7630  157.3052 C   0  0  0  0  0  0  0  0  0  0  0  0
  148.8268  137.7886  158.5581 N   0  0  0  0  0  0  0  0  0  0  0  0
  148.7665  136.7986  159.4594 C   0  0  0  0  0  0  0  0  0  0  0  0
  149.4045  135.7591  159.2776 O   0  0  0  0  0  0  0  0  0  0  0  0
  147.9660  137.0739  160.5133 N   0  5  0  0  0  0  0  0  0  0  0  0
  147.5181  136.0767  161.2936 C   0  0  0  0  0  0  0  0  0  0  0  0
  147.0801  134.9093  160.8075 N   0  0  0  0  0  0  0  0  0  0  0  0
  146.6578  134.0198  161.7971 C   0  0  0  0  0  0  0  0  0  0  0  0
  146.7676  134.5252  163.0655 C   0  0  0  0  0  0  0  0  0  0  0  0
  147.4103  136.1428  163.0547 S   0  0  0  0  0  0  0  0  0  0  0  0
  148.7136  140.1517  157.0531 C   0  0  0  0  0  0  0  0  0  0  0  0
  148.6861  140.6461  152.6885 H   0  0  0  0  0  0  0  0  0  0  0  0
  147.1516  139.8506  153.0270 H   0  0  0  0  0  0  0  0  0  0  0  0
  148.5884  139.4065  153.9373 H   0  0  0  0  0  0  0  0  0  0  0  0
  147.0910  140.8456  155.2766 H   0  0  0  0  0  0  0  0  0  0  0  0
  147.5133  142.9811  153.1257 H   0  0  0  0  0  0  0  0  0  0  0  0
  146.6180  143.2043  154.6268 H   0  0  0  0  0  0  0  0  0  0  0  0
  146.0221  142.0892  153.4093 H   0  0  0  0  0  0  0  0  0  0  0  0
  149.8964  141.4062  154.7283 H   0  0  0  0  0  0  0  0  0  0  0  0
  149.0789  142.9069  155.0526 H   0  0  0  0  0  0  0  0  0  0  0  0
  150.6087  142.9689  157.0019 H   0  0  0  0  0  0  0  0  0  0  0  0
  150.1428  142.0362  158.4010 H   0  0  0  0  0  0  0  0  0  0  0  0
  151.7098  140.9199  156.0031 H   0  0  0  0  0  0  0  0  0  0  0  0
  152.3443  141.2450  157.6039 H   0  0  0  0  0  0  0  0  0  0  0  0
  150.1206  139.1333  155.7429 H   0  0  0  0  0  0  0  0  0  0  0  0
  149.0407  137.1936  156.5421 H   0  0  0  0  0  0  0  0  0  0  0  0
  150.5027  137.2246  157.4960 H   0  0  0  0  0  0  0  0  0  0  0  0
  148.2942  138.6231  158.7555 H   0  0  0  0  0  0  0  0  0  0  0  0
  146.2916  133.0463  161.5073 H   0  0  0  0  0  0  0  0  0  0  0  0
  146.5109  134.0493  163.9997 H   0  0  0  0  0  0  0  0  0  0  0  0
  148.4601  140.1465  158.1141 H   0  0  0  0  0  0  0  0  0  0  0  0
  147.8218  139.8092  156.5302 H   0  0  0  0  0  0  0  0  0  0  0  0
  148.3350  142.1362  157.0693 H   0  0  0  0  0  0  0  0  0  0  0  0
  1  2  1  0  0  0  0
  1 21  1  0  0  0  0
  1 22  1  0  0  0  0
  1 23  1  0  0  0  0
  2  3  1  0  0  0  0
  2  4  1  0  0  0  0
  2 24  1  0  0  0  0
  3 25  1  0  0  0  0
  3 26  1  0  0  0  0
  3 27  1  0  0  0  0
  4  5  1  0  0  0  0
  4 28  1  0  0  0  0
  4 29  1  0  0  0  0
  5 20  1  0  0  0  0
  5  6  1  0  0  0  0
  5 42  1  0  0  0  0
  6  7  1  0  0  0  0
  6 30  1  0  0  0  0
  6 31  1  0  0  0  0
  7  8  1  0  0  0  0
  7 32  1  0  0  0  0
  7 33  1  0  0  0  0
  8  9  1  0  0  0  0
  9 10  1  0  0  0  0
  9 20  1  0  0  0  0
  9 34  1  0  0  0  0
 10 11  1  0  0  0  0
 10 35  1  0  0  0  0
 10 36  1  0  0  0  0
 11 12  1  0  0  0  0
 11 37  1  0  0  0  0
 12 13  2  0  0  0  0
 12 14  1  0  0  0  0
 14 15  1  0  0  0  0
 15 19  1  0  0  0  0
 15 16  2  0  0  0  0
 16 17  1  0  0  0  0
 17 18  2  0  0  0  0
 17 38  1  0  0  0  0
 18 19  1  0  0  0  0
 18 39  1  0  0  0  0
 20 40  1  0  0  0  0
 20 41  1  0  0  0  0
M  CHG  1   5   1
M  CHG  1  14  -1
M  END
> <s_m_source_file>
AV-unprocessed.smi

> <i_m_source_file_index>
2062

> <i_lp_mmshare_version>
43012

> <i_f3d_flags>
0

> <s_epik_input>
W0NIM11bQ0hdKFtDSDNdKVtDSDJdTjFbQ0gyXVtDSDJdT1tDQEhdKFtDSDJdMSlbQ0gyXVtOSF1DKD1PKVtOSF1jMm5bY0hdW2NIXXMy

> <s_epik_cmdline>
J2VwaWtfcHl0aG9uJywgJy1waCcsICc3LjAnLCAnLXRuJywgJzgnLCAnLW1hJywgJzIwMCcsICctbWV0YWxfYmluZGluZycsICctaW1hZScsICc8aW5maWxlLm1hZT4nLCAnLW9tYWUnLCAnPG91dGZpbGUubWFlPic=

> <r_lp_tautomer_probability>
0.999

> <r_epik_Ionization_Penalty>
6.35835

> <r_epik_Ionization_Penalty_Charging>
5.49938

> <r_epik_Ionization_Penalty_Neutral>
0.858963

> <r_epik_State_Penalty>
5.49328

> <r_epik_Charging_Adjusted_Penalty>
10.9927

> <i_epik_Tot_Q>
0

> <i_epik_Tot_abs_Q>
2

> <r_epik_Metal_State_Penalty>
1.51523

> <b_epik_Metal_Only>
1

> <s_lp_Force_Field>
OPLS_2005

> <r_lp_Energy>
10.4353

> <b_lp_Chiralities_Consistent>
1

> <s_lp_Variant>
AV-unprocessed.smi:2062-8

> <Gold.Version>
5.8.1

> <Gold.Id.Protein>
6NUR|6NUR_protein|mol2

> <Gold.PLP.Fitness>
41.6431

> <Gold.PLP.PLP>
-32.5286

> <Gold.PLP.part.hbond>
-3.6076

> <Gold.PLP.part.metal>
0.0000

> <Gold.PLP.part.buried>
0.3048

> <Gold.PLP.part.nonpolar>
-30.9637

> <Gold.PLP.part.repulsive>
0.1698

> <Gold.PLP.ligand.clash>
0.0000

> <Gold.PLP.ligand.torsion>
1.5520

> <Gold.PLP.Chemscore.Hbond>
4.0268

> <Gold.PLP.Chemscore.CHOScore>
0.0000

> <Gold.PLP.Chemscore.Metal>
0.0000

> <Gold.Chemscore.Hbonds>
donor molecule, donor type, donor heavy atom, donor atom, acceptor molecule, acceptor atom, score
      P1  H  6896  6907       L1    13  1.00
      P1  H  6931  6943       L1    14  1.33
      P1  H  6934  6947       L1    14  1.17

> <Gold.PLP.Chemscore.Internal.Correction>
0.1380

> <Gold.Rescore>
     Score         DG    S(hbond)    S(metal)    S(lipo)     H(rot)  DE(clash)    DE(int)     intcor
     12.30     -16.47       2.10        0.00      71.59       1.72       2.22       1.95       ----

> <Gold.Chemscore.Fitness>
12.2985

> <Gold.Chemscore.DG>
-16.4706

> <Gold.Chemscore.ZeroCoef>
-5.4800

> <Gold.Chemscore.Hbond>
2.1007

> <Gold.Chemscore.Metal>
0.0000

> <Gold.Chemscore.Lipo>
71.5880

> <Gold.Chemscore.Internal_Hbond>
0.0000

> <Gold.Chemscore.DEClash>
2.2209

> <Gold.Chemscore.DEInternal>
1.9512

> <Gold.Chemscore.Rot>
1.7194

> <Gold.Chemscore.Internal.Correction>
   9.000000E+99

> <Gold.Chemscore.Hbonds>
donor molecule, donor type, donor heavy atom, donor atom, acceptor molecule, acceptor atom, score
      P1  H  6896  6907       L1    13  1.00
      P1  H  6931  6943       L1    14  0.16
      P1  H  6934  6947       L1    14  0.54

> <Gold.Chemscore.Hbond.Weighted>
-7.0165

> <Gold.Chemscore.Metal.Weighted>
-0.0000

> <Gold.Chemscore.Lipo.Weighted>
-8.3758

> <Gold.Chemscore.Internal_Hbond.Weighted>
0.0000

> <Gold.Chemscore.DEClash.Weighted>
2.2209

> <Gold.Chemscore.DEInternal.Weighted>
1.9512

> <Gold.Chemscore.Rot.Weighted>
4.4017

> <Gold.Chemscore.Internal.Correction.Weighted>
   9.000000E+99

> <Gold.Protein.RotatedTorsions>
[ 6907 6896 6895 6894 ] final  -51.37 input  -60.11 | X-H torsion
[ 7974 7965 7964 7962 ] final   28.30 input  175.53 | X-H torsion
[ 8008 7997 7996 7995 ] final  -28.13 input   59.86 | X-H torsion
[ 10167 10162 10161 10158 ] final  120.09 input  -65.29 | X-H torsion
[ 10718 10713 10712 10709 ] final -176.06 input   66.30 | X-H torsion
[ 10763 10752 10751 10750 ] final   73.22 input  -60.55 | X-H torsion
[ 11005 11000 10999 10996 ] final   56.03 input  -57.11 | X-H torsion

> <Gold.Protein.ActiveResidues>
 VAL166  LYS551  ARG553  GLY616  TRP617  ASP618  TYR619  PRO620  LYS621  CYS622 
 ASP623  PHE694  ASN695  SER759  ASP760  ASP761  ALA762  ILE779  LEU786  VAL792 
 PHE793  MET794  SER795  GLU796  ALA797  LYS798  CYS799  TRP800  GLU811  SER814 

> <Gold.Protein.RotatedAtoms>
  150.8618  134.7971  159.7087 H   0  0  0  0  0  0  0  0  0  0  0  0  # atno 6907 bound_to 6896
  152.4652  134.5088  159.9757 H   0  0  0  0  0  0  0  0  0  0  0  0  # atno 6908 bound_to 6896
  151.5191  133.3431  159.2934 H   0  0  0  0  0  0  0  0  0  0  0  0  # atno 6909 bound_to 6896
  146.1736  139.7075  142.8950 H   0  0  0  0  0  0  0  0  0  0  0  0  # atno 7974 bound_to 7965
  154.4346  140.1853  156.1041 H   0  0  0  0  0  0  0  0  0  0  0  0  # atno 8008 bound_to 7997
  156.0269  140.3335  155.7072 H   0  0  0  0  0  0  0  0  0  0  0  0  # atno 8009 bound_to 7997
  155.5896  140.0629  157.2753 H   0  0  0  0  0  0  0  0  0  0  0  0  # atno 8010 bound_to 7997
  139.6004  144.7055  151.3076 H   0  0  0  0  0  0  0  0  0  0  0  0  # atno 10167 bound_to 10162
  156.8091  130.9579  151.3116 H   0  0  0  0  0  0  0  0  0  0  0  0  # atno 10718 bound_to 10713
  153.0508  135.5071  154.7862 H   0  0  0  0  0  0  0  0  0  0  0  0  # atno 10763 bound_to 10752
  154.6725  135.2955  154.9724 H   0  0  0  0  0  0  0  0  0  0  0  0  # atno 10764 bound_to 10752
  154.0538  135.6700  153.4856 H   0  0  0  0  0  0  0  0  0  0  0  0  # atno 10765 bound_to 10752
  140.0560  134.5669  155.9207 H   0  0  0  0  0  0  0  0  0  0  0  0  # atno 11005 bound_to 11000
  145.4272  141.0412  143.2931 LP  0  0  0  0  0  0  0  0  0  0  0  0  # atno 17320 bound_to 7965
  144.8202  139.5806  143.6990 LP  0  0  0  0  0  0  0  0  0  0  0  0  # atno 17321 bound_to 7965
  140.7245  143.7043  150.7820 LP  0  0  0  0  0  0  0  0  0  0  0  0  # atno 17342 bound_to 10162
  140.0618  143.5147  152.2624 LP  0  0  0  0  0  0  0  0  0  0  0  0  # atno 17343 bound_to 10162
  157.6515  130.8888  149.9643 LP  0  0  0  0  0  0  0  0  0  0  0  0  # atno 17370 bound_to 10713
  156.1055  130.3653  150.0141 LP  0  0  0  0  0  0  0  0  0  0  0  0  # atno 17371 bound_to 10713
  141.1952  133.6586  156.5633 LP  0  0  0  0  0  0  0  0  0  0  0  0  # atno 17394 bound_to 11000
  140.3843  134.7496  157.4681 LP  0  0  0  0  0  0  0  0  0  0  0  0  # atno 17395 bound_to 11000

$$$$
