AV-unprocessed.smi:403|AV-procd|sdf|2496|dock9
  -GOLD-   2262022443D 1   1.00000     0.00000
 Structure written by MMmdl.
 46 47  0  0  0  0  0  0  0  0  1 V2000
  152.5671  143.6055  161.6128 C   0  0  0  0  0  0  0  0  0  0  0  0
  152.7655  142.2585  160.8971 C   0  0  0  0  0  0  0  0  0  0  0  0
  154.1045  141.6278  161.3091 C   0  0  0  0  0  0  0  0  0  0  0  0
  152.6717  142.3848  159.3624 C   0  0  0  0  0  0  0  0  0  0  0  0
  151.2867  142.0234  158.7865 C   0  0  0  0  0  0  0  0  0  0  0  0
  151.0845  142.4716  157.3347 C   0  0  0  0  0  0  0  0  0  0  0  0
  151.3203  143.6295  156.9870 O   0  0  0  0  0  0  0  0  0  0  0  0
  150.6432  141.5279  156.4889 N   0  0  0  0  0  0  0  0  0  0  0  0
  150.3908  141.7324  155.0653 C   0  0  0  0  0  0  0  0  0  0  0  0
  149.0839  141.1283  154.5440 C   0  0  0  0  0  0  0  0  0  0  0  0
  148.0402  141.9538  154.0628 C   0  0  0  0  0  0  0  0  0  0  0  0
  146.8645  141.3641  153.5652 C   0  0  0  0  0  0  0  0  0  0  0  0
  146.7737  139.9614  153.5586 C   0  0  0  0  0  0  0  0  0  0  0  0
  147.7600  139.1576  154.0043 N   0  0  0  0  0  0  0  0  0  0  0  0
  148.8949  139.7212  154.4861 C   0  0  0  0  0  0  0  0  0  0  0  0
  149.8925  138.8508  154.9595 N   0  0  0  0  0  0  0  0  0  0  0  0
  149.4255  137.4762  155.0880 C   0  0  0  0  0  0  0  0  0  0  0  0
  150.4900  136.6262  155.8027 C   0  0  0  0  0  0  0  0  0  0  0  0
  151.7272  136.7180  155.1009 O   0  0  0  0  0  0  0  0  0  0  0  0
  152.2120  138.0568  155.0390 C   0  0  0  0  0  0  0  0  0  0  0  0
  151.1917  138.9412  154.3021 C   0  0  0  0  0  0  0  0  0  0  0  0
  153.3050  144.3397  161.2876 H   0  0  0  0  0  0  0  0  0  0  0  0
  152.6665  143.4925  162.6927 H   0  0  0  0  0  0  0  0  0  0  0  0
  151.5776  144.0209  161.4252 H   0  0  0  0  0  0  0  0  0  0  0  0
  151.9760  141.5832  161.2295 H   0  0  0  0  0  0  0  0  0  0  0  0
  154.9452  142.2560  161.0130 H   0  0  0  0  0  0  0  0  0  0  0  0
  154.2401  140.6500  160.8460 H   0  0  0  0  0  0  0  0  0  0  0  0
  154.1584  141.4874  162.3890 H   0  0  0  0  0  0  0  0  0  0  0  0
  152.9461  143.3977  159.0630 H   0  0  0  0  0  0  0  0  0  0  0  0
  153.4170  141.7248  158.9153 H   0  0  0  0  0  0  0  0  0  0  0  0
  151.1414  140.9434  158.8334 H   0  0  0  0  0  0  0  0  0  0  0  0
  150.4983  142.4740  159.3894 H   0  0  0  0  0  0  0  0  0  0  0  0
  150.4725  140.6025  156.8548 H   0  0  0  0  0  0  0  0  0  0  0  0
  150.3610  142.8062  154.8811 H   0  0  0  0  0  0  0  0  0  0  0  0
  151.2436  141.3533  154.5011 H   0  0  0  0  0  0  0  0  0  0  0  0
  148.1281  143.0298  154.0642 H   0  0  0  0  0  0  0  0  0  0  0  0
  146.0529  141.9726  153.1947 H   0  0  0  0  0  0  0  0  0  0  0  0
  145.8871  139.4714  153.1838 H   0  0  0  0  0  0  0  0  0  0  0  0
  148.4858  137.4427  155.6406 H   0  0  0  0  0  0  0  0  0  0  0  0
  149.2272  137.0685  154.0956 H   0  0  0  0  0  0  0  0  0  0  0  0
  150.6201  136.9553  156.8351 H   0  0  0  0  0  0  0  0  0  0  0  0
  150.1772  135.5826  155.8374 H   0  0  0  0  0  0  0  0  0  0  0  0
  152.3991  138.4335  156.0458 H   0  0  0  0  0  0  0  0  0  0  0  0
  153.1665  138.0652  154.5125 H   0  0  0  0  0  0  0  0  0  0  0  0
  151.1085  138.6159  153.2641 H   0  0  0  0  0  0  0  0  0  0  0  0
  151.5293  139.9780  154.2923 H   0  0  0  0  0  0  0  0  0  0  0  0
  1  2  1  0  0  0  0
  1 22  1  0  0  0  0
  1 23  1  0  0  0  0
  1 24  1  0  0  0  0
  2  3  1  0  0  0  0
  2  4  1  0  0  0  0
  2 25  1  0  0  0  0
  3 26  1  0  0  0  0
  3 27  1  0  0  0  0
  3 28  1  0  0  0  0
  4  5  1  0  0  0  0
  4 29  1  0  0  0  0
  4 30  1  0  0  0  0
  5  6  1  0  0  0  0
  5 31  1  0  0  0  0
  5 32  1  0  0  0  0
  6  7  2  0  0  0  0
  6  8  1  0  0  0  0
  8  9  1  0  0  0  0
  8 33  1  0  0  0  0
  9 10  1  0  0  0  0
  9 34  1  0  0  0  0
  9 35  1  0  0  0  0
 10 15  1  0  0  0  0
 10 11  2  0  0  0  0
 11 12  1  0  0  0  0
 11 36  1  0  0  0  0
 12 13  2  0  0  0  0
 12 37  1  0  0  0  0
 13 14  1  0  0  0  0
 13 38  1  0  0  0  0
 14 15  2  0  0  0  0
 15 16  1  0  0  0  0
 16 21  1  0  0  0  0
 16 17  1  0  0  0  0
 17 18  1  0  0  0  0
 17 39  1  0  0  0  0
 17 40  1  0  0  0  0
 18 19  1  0  0  0  0
 18 41  1  0  0  0  0
 18 42  1  0  0  0  0
 19 20  1  0  0  0  0
 20 21  1  0  0  0  0
 20 43  1  0  0  0  0
 20 44  1  0  0  0  0
 21 45  1  0  0  0  0
 21 46  1  0  0  0  0
M  END
> <s_m_source_file>
AV-unprocessed.smi

> <i_m_source_file_index>
403

> <i_lp_mmshare_version>
43012

> <i_f3d_flags>
0

> <s_epik_input>
W0NIM11bQ0hdKFtDSDNdKVtDSDJdW0NIMl1DKD1PKVtOSF1bQ0gyXWMxW2NIXVtjSF1bY0hdbmMxTjJbQ0gyXVtDSDJdT1tDSDJdW0NIMl0y

> <s_epik_cmdline>
J2VwaWtfcHl0aG9uJywgJy1waCcsICc3LjAnLCAnLXRuJywgJzgnLCAnLW1hJywgJzIwMCcsICctbWV0YWxfYmluZGluZycsICctaW1hZScsICc8aW5maWxlLm1hZT4nLCAnLW9tYWUnLCAnPG91dGZpbGUubWFlPic=

> <r_lp_tautomer_probability>
1

> <r_epik_Ionization_Penalty>
0.00581842

> <r_epik_Ionization_Penalty_Charging>
0

> <r_epik_Ionization_Penalty_Neutral>
0.00581842

> <r_epik_State_Penalty>
0.00427389

> <r_epik_Charging_Adjusted_Penalty>
0.00427389

> <i_epik_Tot_Q>
0

> <i_epik_Tot_abs_Q>
0

> <r_epik_Metal_State_Penalty>
-0

> <b_epik_Metal_Only>
0

> <s_lp_Force_Field>
OPLS_2005

> <r_lp_Energy>
20.7725

> <b_lp_Chiralities_Consistent>
1

> <s_lp_Variant>
AV-unprocessed.smi:403-1

> <Gold.Version>
5.8.1

> <Gold.Id.Protein>
6NUR|6NUR_protein|mol2

> <Gold.PLP.Fitness>
43.2636

> <Gold.PLP.PLP>
-38.9665

> <Gold.PLP.part.hbond>
-1.0000

> <Gold.PLP.part.metal>
0.0000

> <Gold.PLP.part.buried>
-2.1422

> <Gold.PLP.part.nonpolar>
-35.6582

> <Gold.PLP.part.repulsive>
1.0390

> <Gold.PLP.ligand.clash>
0.0000

> <Gold.PLP.ligand.torsion>
0.9442

> <Gold.PLP.Chemscore.Hbond>
1.0000

> <Gold.PLP.Chemscore.CHOScore>
1.0000

> <Gold.PLP.Chemscore.Metal>
0.0000

> <Gold.Chemscore.Hbonds>
donor molecule, donor type, donor heavy atom, donor atom, acceptor molecule, acceptor atom, score
      P1  H 10752 10765       L1    19  1.00
      L1  C    13    38       P1 10175  0.99

> <Gold.PLP.Chemscore.Internal.Correction>
0.1855

> <Gold.Rescore>
     Score         DG    S(hbond)    S(metal)    S(lipo)     H(rot)  DE(clash)    DE(int)     intcor
     14.65     -16.69       0.94        0.00     106.90       1.73       0.06       1.98       ----

> <Gold.Chemscore.Fitness>
14.6508

> <Gold.Chemscore.DG>
-16.6922

> <Gold.Chemscore.ZeroCoef>
-5.4800

> <Gold.Chemscore.Hbond>
0.9419

> <Gold.Chemscore.Metal>
0.0000

> <Gold.Chemscore.Lipo>
106.8998

> <Gold.Chemscore.Internal_Hbond>
0.0000

> <Gold.Chemscore.DEClash>
0.0583

> <Gold.Chemscore.DEInternal>
1.9831

> <Gold.Chemscore.Rot>
1.7347

> <Gold.Chemscore.Internal.Correction>
   9.000000E+99

> <Gold.Chemscore.Hbonds>
donor molecule, donor type, donor heavy atom, donor atom, acceptor molecule, acceptor atom, score
      P1  H 10752 10765       L1    19  0.74

> <Gold.Chemscore.Hbond.Weighted>
-3.1458

> <Gold.Chemscore.Metal.Weighted>
-0.0000

> <Gold.Chemscore.Lipo.Weighted>
-12.5073

> <Gold.Chemscore.Internal_Hbond.Weighted>
0.0000

> <Gold.Chemscore.DEClash.Weighted>
0.0583

> <Gold.Chemscore.DEInternal.Weighted>
1.9831

> <Gold.Chemscore.Rot.Weighted>
4.4409

> <Gold.Chemscore.Internal.Correction.Weighted>
   9.000000E+99

> <Gold.Protein.RotatedTorsions>
[ 6907 6896 6895 6894 ] final   30.70 input  -60.11 | X-H torsion
[ 7974 7965 7964 7962 ] final -178.11 input  175.53 | X-H torsion
[ 8008 7997 7996 7995 ] final  -24.68 input   59.86 | X-H torsion
[ 10167 10162 10161 10158 ] final  146.27 input  -65.29 | X-H torsion
[ 10718 10713 10712 10709 ] final  -30.21 input   66.30 | X-H torsion
[ 10763 10752 10751 10750 ] final  174.06 input  -60.55 | X-H torsion
[ 11005 11000 10999 10996 ] final   17.46 input  -57.11 | X-H torsion

> <Gold.Protein.ActiveResidues>
 VAL166  LYS551  ARG553  GLY616  TRP617  ASP618  TYR619  PRO620  LYS621  CYS622 
 ASP623  PHE694  ASN695  SER759  ASP760  ASP761  ALA762  ILE779  LEU786  VAL792 
 PHE793  MET794  SER795  GLU796  ALA797  LYS798  CYS799  TRP800  GLU811  SER814 

> <Gold.Protein.RotatedAtoms>
  152.0498  134.9660  160.0574 H   0  0  0  0  0  0  0  0  0  0  0  0  # atno 6907 bound_to 6896
  152.1066  133.4273  159.4620 H   0  0  0  0  0  0  0  0  0  0  0  0  # atno 6908 bound_to 6896
  150.6841  134.2617  159.4595 H   0  0  0  0  0  0  0  0  0  0  0  0  # atno 6909 bound_to 6896
  144.7130  140.0918  143.6421 H   0  0  0  0  0  0  0  0  0  0  0  0  # atno 7974 bound_to 7965
  154.4516  140.1947  156.0502 H   0  0  0  0  0  0  0  0  0  0  0  0  # atno 8008 bound_to 7997
  156.0659  140.3291  155.7490 H   0  0  0  0  0  0  0  0  0  0  0  0  # atno 8009 bound_to 7997
  155.5339  140.0580  157.2874 H   0  0  0  0  0  0  0  0  0  0  0  0  # atno 8010 bound_to 7997
  139.4910  144.5841  151.6813 H   0  0  0  0  0  0  0  0  0  0  0  0  # atno 10167 bound_to 10162
  156.4026  130.4393  149.7311 H   0  0  0  0  0  0  0  0  0  0  0  0  # atno 10718 bound_to 10713
  154.4487  135.2764  155.1796 H   0  0  0  0  0  0  0  0  0  0  0  0  # atno 10763 bound_to 10752
  154.3632  135.6125  153.5705 H   0  0  0  0  0  0  0  0  0  0  0  0  # atno 10764 bound_to 10752
  152.9845  135.5839  154.4828 H   0  0  0  0  0  0  0  0  0  0  0  0  # atno 10765 bound_to 10752
  140.4357  134.1374  155.7685 H   0  0  0  0  0  0  0  0  0  0  0  0  # atno 11005 bound_to 11000
  145.9614  139.2803  143.1153 LP  0  0  0  0  0  0  0  0  0  0  0  0  # atno 17320 bound_to 7965
  145.9217  140.9111  143.0402 LP  0  0  0  0  0  0  0  0  0  0  0  0  # atno 17321 bound_to 7965
  140.5454  144.0512  150.6105 LP  0  0  0  0  0  0  0  0  0  0  0  0  # atno 17342 bound_to 10162
  140.3548  143.2942  152.0448 LP  0  0  0  0  0  0  0  0  0  0  0  0  # atno 17343 bound_to 10162
  156.4321  130.7820  151.2840 LP  0  0  0  0  0  0  0  0  0  0  0  0  # atno 17370 bound_to 10713
  157.7504  131.0151  150.3490 LP  0  0  0  0  0  0  0  0  0  0  0  0  # atno 17371 bound_to 10713
  141.1727  133.8577  157.1521 LP  0  0  0  0  0  0  0  0  0  0  0  0  # atno 17394 bound_to 11000
  140.0104  134.9990  157.0382 LP  0  0  0  0  0  0  0  0  0  0  0  0  # atno 17395 bound_to 11000

$$$$
