AV-unprocessed.smi:609|AV-procd|sdf|3046|dock6
  -GOLD-   2262023563D 1   1.00000     0.00000
 Structure written by MMmdl.
 43 45  0  0  0  0  0  0  0  0  2 V2000
  151.8964  144.0122  158.1571 C   0  0  0  0  0  0  0  0  0  0  0  0
  151.6970  142.5851  157.6782 C   0  0  0  0  0  0  0  0  0  0  0  0
  151.0885  142.3606  156.4228 C   0  0  0  0  0  0  0  0  0  0  0  0
  150.8863  141.0492  155.9398 C   0  0  0  0  0  0  0  0  0  0  0  0
  150.3151  140.6033  154.7603 N   0  0  0  0  0  0  0  0  0  0  0  0
  150.4127  139.2839  154.8963 C   0  0  0  0  0  0  0  0  0  0  0  0
  150.9768  138.8215  156.0284 N   0  0  0  0  0  0  0  0  0  0  0  0
  151.1779  137.4322  156.3988 C   0  0  0  0  0  0  0  0  0  0  0  0
  150.5800  136.4486  155.3729 C   0  0  1  0  0  0  0  0  0  0  0  0
  151.4515  136.4012  154.2618 O   0  0  0  0  0  0  0  0  0  0  0  0
  150.3812  135.0240  155.9250 C   0  0  0  0  0  0  0  0  0  0  0  0
  149.4036  133.9742  154.8136 S   0  0  0  0  0  0  0  0  0  0  0  0
  150.0552  132.3448  155.0197 C   0  0  0  0  0  0  0  0  0  0  0  0
  151.1697  132.0265  155.6857 N   0  3  0  0  0  0  0  0  0  0  0  0
  151.3662  130.6722  155.6418 C   0  0  0  0  0  0  0  0  0  0  0  0
  150.3244  130.1493  154.9169 C   0  0  0  0  0  0  0  0  0  0  0  0
  149.5311  131.2057  154.5466 N   0  0  0  0  0  0  0  0  0  0  0  0
  148.2975  131.1507  153.7608 C   0  0  0  0  0  0  0  0  0  0  0  0
  151.3137  139.9599  156.7534 C   0  0  0  0  0  0  0  0  0  0  0  0
  151.9210  140.1702  158.0044 C   0  0  0  0  0  0  0  0  0  0  0  0
  152.1143  141.4867  158.4724 C   0  0  0  0  0  0  0  0  0  0  0  0
  152.7713  141.7038  159.8237 C   0  0  0  0  0  0  0  0  0  0  0  0
  151.5467  144.7329  157.4175 H   0  0  0  0  0  0  0  0  0  0  0  0
  152.9526  144.2099  158.3414 H   0  0  0  0  0  0  0  0  0  0  0  0
  151.3445  144.1860  159.0811 H   0  0  0  0  0  0  0  0  0  0  0  0
  150.7705  143.1969  155.8177 H   0  0  0  0  0  0  0  0  0  0  0  0
  150.0486  138.6137  154.1311 H   0  0  0  0  0  0  0  0  0  0  0  0
  152.2496  137.2591  156.5078 H   0  0  0  0  0  0  0  0  0  0  0  0
  150.7365  137.2708  157.3832 H   0  0  0  0  0  0  0  0  0  0  0  0
  149.6197  136.8355  155.0293 H   0  0  0  0  0  0  0  0  0  0  0  0
  150.9454  136.1916  153.4915 H   0  0  0  0  0  0  0  0  0  0  0  0
  151.3453  134.5478  156.1079 H   0  0  0  0  0  0  0  0  0  0  0  0
  149.8550  135.0582  156.8787 H   0  0  0  0  0  0  0  0  0  0  0  0
  152.2104  130.1941  156.1170 H   0  0  0  0  0  0  0  0  0  0  0  0
  150.0956  129.1289  154.6451 H   0  0  0  0  0  0  0  0  0  0  0  0
  148.0712  130.1147  153.5071 H   0  0  0  0  0  0  0  0  0  0  0  0
  148.4271  131.7276  152.8447 H   0  0  0  0  0  0  0  0  0  0  0  0
  147.4777  131.5665  154.3472 H   0  0  0  0  0  0  0  0  0  0  0  0
  152.2348  139.3248  158.5984 H   0  0  0  0  0  0  0  0  0  0  0  0
  153.0187  140.7562  160.3032 H   0  0  0  0  0  0  0  0  0  0  0  0
  152.1051  142.2522  160.4898 H   0  0  0  0  0  0  0  0  0  0  0  0
  153.6948  142.2723  159.7119 H   0  0  0  0  0  0  0  0  0  0  0  0
  151.7750  132.6898  156.1523 H   0  0  0  0  0  0  0  0  0  0  0  0
  1  2  1  0  0  0  0
  1 23  1  0  0  0  0
  1 24  1  0  0  0  0
  1 25  1  0  0  0  0
  2 21  1  0  0  0  0
  2  3  2  0  0  0  0
  3  4  1  0  0  0  0
  3 26  1  0  0  0  0
  4 19  2  0  0  0  0
  4  5  1  0  0  0  0
  5  6  2  0  0  0  0
  6  7  1  0  0  0  0
  6 27  1  0  0  0  0
  7  8  1  0  0  0  0
  7 19  1  0  0  0  0
  8  9  1  0  0  0  0
  8 28  1  0  0  0  0
  8 29  1  0  0  0  0
  9 10  1  0  0  0  0
  9 11  1  0  0  0  0
  9 30  1  0  0  0  0
 10 31  1  0  0  0  0
 11 12  1  0  0  0  0
 11 32  1  0  0  0  0
 11 33  1  0  0  0  0
 12 13  1  0  0  0  0
 13 17  1  0  0  0  0
 13 14  2  0  0  0  0
 14 15  1  0  0  0  0
 14 43  1  0  0  0  0
 15 16  2  0  0  0  0
 15 34  1  0  0  0  0
 16 17  1  0  0  0  0
 16 35  1  0  0  0  0
 17 18  1  0  0  0  0
 18 36  1  0  0  0  0
 18 37  1  0  0  0  0
 18 38  1  0  0  0  0
 19 20  1  0  0  0  0
 20 21  2  0  0  0  0
 20 39  1  0  0  0  0
 21 22  1  0  0  0  0
 22 40  1  0  0  0  0
 22 41  1  0  0  0  0
 22 42  1  0  0  0  0
M  CHG  1  14   1
M  END
> <s_m_source_file>
AV-unprocessed.smi

> <i_m_source_file_index>
609

> <i_lp_mmshare_version>
43012

> <i_f3d_flags>
0

> <s_epik_input>
W0NIM11jKFtjSF0xKWMoW0NIM10pW2NIXWMoYzEyKW4oW2NIXW4yKVtDSDJdW0NASF0oW09IXSlbQ0gyXVNjM25bY0hdW2NIXW4zW0NIM10=

> <s_epik_cmdline>
J2VwaWtfcHl0aG9uJywgJy1waCcsICc3LjAnLCAnLXRuJywgJzgnLCAnLW1hJywgJzIwMCcsICctbWV0YWxfYmluZGluZycsICctaW1hZScsICc8aW5maWxlLm1hZT4nLCAnLW9tYWUnLCAnPG91dGZpbGUubWFlPic=

> <r_lp_tautomer_probability>
1

> <r_epik_Ionization_Penalty>
0.215713

> <r_epik_Ionization_Penalty_Charging>
0

> <r_epik_Ionization_Penalty_Neutral>
0.215713

> <r_epik_State_Penalty>
0.19579

> <r_epik_Charging_Adjusted_Penalty>
0.19579

> <i_epik_Tot_Q>
1

> <i_epik_Tot_abs_Q>
1

> <r_epik_Metal_State_Penalty>
0.429751

> <b_epik_Metal_Only>
0

> <s_lp_Force_Field>
OPLS_2005

> <r_lp_Energy>
9.84341

> <b_lp_Chiralities_Consistent>
1

> <s_lp_Variant>
AV-unprocessed.smi:609-2

> <Gold.Version>
5.8.1

> <Gold.Id.Protein>
6NUR|6NUR_protein|mol2

> <Gold.PLP.Fitness>
51.3661

> <Gold.PLP.PLP>
-43.6373

> <Gold.PLP.part.hbond>
-3.0000

> <Gold.PLP.part.metal>
0.0000

> <Gold.PLP.part.buried>
-5.2369

> <Gold.PLP.part.nonpolar>
-35.2355

> <Gold.PLP.part.repulsive>
0.1506

> <Gold.PLP.ligand.clash>
0.0000

> <Gold.PLP.ligand.torsion>
0.5264

> <Gold.PLP.Chemscore.Hbond>
2.9200

> <Gold.PLP.Chemscore.CHOScore>
0.0000

> <Gold.PLP.Chemscore.Metal>
0.0000

> <Gold.Chemscore.Hbonds>
donor molecule, donor type, donor heavy atom, donor atom, acceptor molecule, acceptor atom, score
      L1  H    10    31       P1  7949  0.69
      P1  H  7989  7998       L1     5  0.91
      P1  H 10752 10764       L1    10  1.00

> <Gold.PLP.Chemscore.Internal.Correction>
0.0215

> <Gold.Rescore>
     Score         DG    S(hbond)    S(metal)    S(lipo)     H(rot)  DE(clash)    DE(int)     intcor
     15.31     -16.01       1.46        0.00     103.21       2.52       0.18       0.52       ----

> <Gold.Chemscore.Fitness>
15.3085

> <Gold.Chemscore.DG>
-16.0081

> <Gold.Chemscore.ZeroCoef>
-5.4800

> <Gold.Chemscore.Hbond>
1.4644

> <Gold.Chemscore.Metal>
0.0000

> <Gold.Chemscore.Lipo>
103.2143

> <Gold.Chemscore.Internal_Hbond>
0.0000

> <Gold.Chemscore.DEClash>
0.1783

> <Gold.Chemscore.DEInternal>
0.5213

> <Gold.Chemscore.Rot>
2.5153

> <Gold.Chemscore.Internal.Correction>
   9.000000E+99

> <Gold.Chemscore.Hbonds>
donor molecule, donor type, donor heavy atom, donor atom, acceptor molecule, acceptor atom, score
      L1  H    10    31       P1  7949  0.11
      P1  H  7989  7998       L1     5  0.10
      P1  H 10752 10764       L1    10  0.78

> <Gold.Chemscore.Hbond.Weighted>
-4.8911

> <Gold.Chemscore.Metal.Weighted>
-0.0000

> <Gold.Chemscore.Lipo.Weighted>
-12.0761

> <Gold.Chemscore.Internal_Hbond.Weighted>
0.0000

> <Gold.Chemscore.DEClash.Weighted>
0.1783

> <Gold.Chemscore.DEInternal.Weighted>
0.5213

> <Gold.Chemscore.Rot.Weighted>
6.4391

> <Gold.Chemscore.Internal.Correction.Weighted>
   9.000000E+99

> <Gold.Protein.RotatedTorsions>
[ 6907 6896 6895 6894 ] final  150.44 input  -60.11 | X-H torsion
[ 7974 7965 7964 7962 ] final -125.37 input  175.53 | X-H torsion
[ 8008 7997 7996 7995 ] final  -43.97 input   59.86 | X-H torsion
[ 10167 10162 10161 10158 ] final -153.74 input  -65.29 | X-H torsion
[ 10718 10713 10712 10709 ] final  -26.25 input   66.30 | X-H torsion
[ 10763 10752 10751 10750 ] final  -81.18 input  -60.55 | X-H torsion
[ 11005 11000 10999 10996 ] final   96.68 input  -57.11 | X-H torsion

> <Gold.Protein.ActiveResidues>
 VAL166  LYS551  ARG553  GLY616  TRP617  ASP618  TYR619  PRO620  LYS621  CYS622 
 ASP623  PHE694  ASN695  SER759  ASP760  ASP761  ALA762  ILE779  LEU786  VAL792 
 PHE793  MET794  SER795  GLU796  ALA797  LYS798  CYS799  TRP800  GLU811  SER814 

> <Gold.Protein.RotatedAtoms>
  152.1144  133.4318  159.4645 H   0  0  0  0  0  0  0  0  0  0  0  0  # atno 6907 bound_to 6896
  150.6868  134.2610  159.4558 H   0  0  0  0  0  0  0  0  0  0  0  0  # atno 6908 bound_to 6896
  152.0482  134.9670  160.0625 H   0  0  0  0  0  0  0  0  0  0  0  0  # atno 6909 bound_to 6896
  144.9983  140.7797  143.4512 H   0  0  0  0  0  0  0  0  0  0  0  0  # atno 7974 bound_to 7965
  154.3997  140.1434  156.3606 H   0  0  0  0  0  0  0  0  0  0  0  0  # atno 8008 bound_to 7997
  155.8184  140.3470  155.5478 H   0  0  0  0  0  0  0  0  0  0  0  0  # atno 8009 bound_to 7997
  155.8313  140.0912  157.1781 H   0  0  0  0  0  0  0  0  0  0  0  0  # atno 8010 bound_to 7997
  139.7072  143.9168  152.2453 H   0  0  0  0  0  0  0  0  0  0  0  0  # atno 10167 bound_to 10162
  156.4537  130.4489  149.6973 H   0  0  0  0  0  0  0  0  0  0  0  0  # atno 10718 bound_to 10713
  154.5603  135.5635  153.7001 H   0  0  0  0  0  0  0  0  0  0  0  0  # atno 10763 bound_to 10752
  153.0016  135.6272  154.2253 H   0  0  0  0  0  0  0  0  0  0  0  0  # atno 10764 bound_to 10752
  154.2191  135.2870  155.2911 H   0  0  0  0  0  0  0  0  0  0  0  0  # atno 10765 bound_to 10752
  139.8780  134.8963  156.4195 H   0  0  0  0  0  0  0  0  0  0  0  0  # atno 11005 bound_to 11000
  145.2188  139.2169  143.5104 LP  0  0  0  0  0  0  0  0  0  0  0  0  # atno 17320 bound_to 7965
  146.3446  140.2042  142.8589 LP  0  0  0  0  0  0  0  0  0  0  0  0  # atno 17321 bound_to 7965
  139.9026  144.6903  150.8648 LP  0  0  0  0  0  0  0  0  0  0  0  0  # atno 17342 bound_to 10162
  140.7724  143.3502  151.2029 LP  0  0  0  0  0  0  0  0  0  0  0  0  # atno 17343 bound_to 10162
  156.3789  130.7569  151.2559 LP  0  0  0  0  0  0  0  0  0  0  0  0  # atno 17370 bound_to 10713
  157.7501  131.0301  150.4124 LP  0  0  0  0  0  0  0  0  0  0  0  0  # atno 17371 bound_to 10713
  140.9144  133.7689  155.9830 LP  0  0  0  0  0  0  0  0  0  0  0  0  # atno 17394 bound_to 11000
  140.8510  134.2954  157.5275 LP  0  0  0  0  0  0  0  0  0  0  0  0  # atno 17395 bound_to 11000

$$$$
