AV-unprocessed.smi:407|AV-procd|sdf|2501|dock8
  -GOLD-   2262022453D 1   1.00000     0.00000
 Structure written by MMmdl.
 45 47  0  0  0  0  0  0  0  0  1 V2000
  156.6849  140.9379  165.4026 C   0  0  0  0  0  0  0  0  0  0  0  0
  155.9727  139.6332  165.7560 C   0  0  0  0  0  0  0  0  0  0  0  0
  155.8246  139.3437  166.9430 O   0  0  0  0  0  0  0  0  0  0  0  0
  155.4963  138.7748  164.6344 C   0  0  0  0  0  0  0  0  0  0  0  0
  154.8826  137.5350  164.9203 C   0  0  0  0  0  0  0  0  0  0  0  0
  154.4248  136.7052  163.8794 C   0  0  0  0  0  0  0  0  0  0  0  0
  154.5672  137.0904  162.5322 C   0  0  0  0  0  0  0  0  0  0  0  0
  154.0945  136.2160  161.5774 O   0  0  0  0  0  0  0  0  0  0  0  0
  154.1661  136.6050  160.2118 C   0  0  0  0  0  0  0  0  0  0  0  0
  153.1755  137.7568  159.9734 C   0  0  2  0  0  0  0  0  0  0  0  0
  151.8995  137.1797  159.7780 O   0  0  0  0  0  0  0  0  0  0  0  0
  153.5260  138.5624  158.7058 C   0  0  0  0  0  0  0  0  0  0  0  0
  152.7357  139.7890  158.6060 N   0  0  0  0  0  0  0  0  0  0  0  0
  151.8072  140.0747  157.6621 C   0  0  0  0  0  0  0  0  0  0  0  0
  151.4745  139.3400  156.7323 O   0  0  0  0  0  0  0  0  0  0  0  0
  151.3129  141.3079  157.9198 N   0  0  0  0  0  0  0  0  0  0  0  0
  150.2918  142.0196  157.1608 C   0  0  0  0  0  0  0  0  0  0  0  0
  151.9382  141.8248  159.0613 C   0  0  0  0  0  0  0  0  0  0  0  0
  151.7738  143.0514  159.7273 C   0  0  0  0  0  0  0  0  0  0  0  0
  152.5751  143.2776  160.8709 C   0  0  0  0  0  0  0  0  0  0  0  0
  153.5018  142.2984  161.3142 C   0  0  0  0  0  0  0  0  0  0  0  0
  153.6459  141.0715  160.6250 C   0  0  0  0  0  0  0  0  0  0  0  0
  152.8358  140.8710  159.4932 C   0  0  0  0  0  0  0  0  0  0  0  0
  155.1781  138.3352  162.2426 C   0  0  0  0  0  0  0  0  0  0  0  0
  155.6367  139.1669  163.2828 C   0  0  0  0  0  0  0  0  0  0  0  0
  157.5649  140.7393  164.7906 H   0  0  0  0  0  0  0  0  0  0  0  0
  157.0092  141.4524  166.3075 H   0  0  0  0  0  0  0  0  0  0  0  0
  156.0164  141.6021  164.8543 H   0  0  0  0  0  0  0  0  0  0  0  0
  154.7573  137.2049  165.9416 H   0  0  0  0  0  0  0  0  0  0  0  0
  153.9601  135.7599  164.1189 H   0  0  0  0  0  0  0  0  0  0  0  0
  155.1817  136.9498  160.0107 H   0  0  0  0  0  0  0  0  0  0  0  0
  153.9585  135.7698  159.5401 H   0  0  0  0  0  0  0  0  0  0  0  0
  153.1613  138.4113  160.8462 H   0  0  0  0  0  0  0  0  0  0  0  0
  151.6159  137.3718  158.8975 H   0  0  0  0  0  0  0  0  0  0  0  0
  154.5773  138.8528  158.7340 H   0  0  0  0  0  0  0  0  0  0  0  0
  153.4173  137.9515  157.8090 H   0  0  0  0  0  0  0  0  0  0  0  0
  150.6164  143.0390  156.9501 H   0  0  0  0  0  0  0  0  0  0  0  0
  149.3645  142.0665  157.7322 H   0  0  0  0  0  0  0  0  0  0  0  0
  150.0795  141.5344  156.2072 H   0  0  0  0  0  0  0  0  0  0  0  0
  151.0673  143.7920  159.3825 H   0  0  0  0  0  0  0  0  0  0  0  0
  152.4814  144.2072  161.4128 H   0  0  0  0  0  0  0  0  0  0  0  0
  154.1048  142.4924  162.1890 H   0  0  0  0  0  0  0  0  0  0  0  0
  154.3512  140.3250  160.9585 H   0  0  0  0  0  0  0  0  0  0  0  0
  155.3076  138.6776  161.2273 H   0  0  0  0  0  0  0  0  0  0  0  0
  156.0956  140.1073  163.0170 H   0  0  0  0  0  0  0  0  0  0  0  0
  1  2  1  0  0  0  0
  1 26  1  0  0  0  0
  1 27  1  0  0  0  0
  1 28  1  0  0  0  0
  2  3  2  0  0  0  0
  2  4  1  0  0  0  0
  4 25  1  0  0  0  0
  4  5  2  0  0  0  0
  5  6  1  0  0  0  0
  5 29  1  0  0  0  0
  6  7  2  0  0  0  0
  6 30  1  0  0  0  0
  7  8  1  0  0  0  0
  7 24  1  0  0  0  0
  8  9  1  0  0  0  0
  9 10  1  0  0  0  0
  9 31  1  0  0  0  0
  9 32  1  0  0  0  0
 10 11  1  0  0  0  0
 10 12  1  0  0  0  0
 10 33  1  0  0  0  0
 11 34  1  0  0  0  0
 12 13  1  0  0  0  0
 12 35  1  0  0  0  0
 12 36  1  0  0  0  0
 13 23  1  0  0  0  0
 13 14  1  0  0  0  0
 14 15  2  0  0  0  0
 14 16  1  0  0  0  0
 16 17  1  0  0  0  0
 16 18  1  0  0  0  0
 17 37  1  0  0  0  0
 17 38  1  0  0  0  0
 17 39  1  0  0  0  0
 18 23  2  0  0  0  0
 18 19  1  0  0  0  0
 19 20  2  0  0  0  0
 19 40  1  0  0  0  0
 20 21  1  0  0  0  0
 20 41  1  0  0  0  0
 21 22  2  0  0  0  0
 21 42  1  0  0  0  0
 22 23  1  0  0  0  0
 22 43  1  0  0  0  0
 24 25  2  0  0  0  0
 24 44  1  0  0  0  0
 25 45  1  0  0  0  0
M  END
> <s_m_source_file>
AV-unprocessed.smi

> <i_m_source_file_index>
407

> <i_lp_mmshare_version>
43012

> <i_f3d_flags>
0

> <s_epik_input>
W0NIM11DKD1PKWMxW2NIXVtjSF1jKFtjSF1bY0hdMSlPW0NIMl1bQ0BIXShbT0hdKVtDSDJdbihjKD1PKW4yW0NIM10pYyhjMjMpW2NIXVtjSF1bY0hdW2NIXTM=

> <s_epik_cmdline>
J2VwaWtfcHl0aG9uJywgJy1waCcsICc3LjAnLCAnLXRuJywgJzgnLCAnLW1hJywgJzIwMCcsICctbWV0YWxfYmluZGluZycsICctaW1hZScsICc8aW5maWxlLm1hZT4nLCAnLW9tYWUnLCAnPG91dGZpbGUubWFlPic=

> <r_lp_tautomer_probability>
1

> <r_epik_Ionization_Penalty>
2.40123e-06

> <r_epik_Ionization_Penalty_Charging>
1.9356e-09

> <r_epik_Ionization_Penalty_Neutral>
2.3993e-06

> <r_epik_State_Penalty>
-0

> <r_epik_Charging_Adjusted_Penalty>
1.9356e-09

> <i_epik_Tot_Q>
0

> <i_epik_Tot_abs_Q>
0

> <r_epik_Metal_State_Penalty>
-0

> <b_epik_Metal_Only>
0

> <s_lp_Force_Field>
OPLS_2005

> <r_lp_Energy>
53.6429

> <b_lp_Chiralities_Consistent>
1

> <s_lp_Variant>
AV-unprocessed.smi:407-1

> <Gold.Version>
5.8.1

> <Gold.Id.Protein>
6NUR|6NUR_protein|mol2

> <Gold.PLP.Fitness>
50.9473

> <Gold.PLP.PLP>
-48.6417

> <Gold.PLP.part.hbond>
-1.9622

> <Gold.PLP.part.metal>
0.0000

> <Gold.PLP.part.buried>
-6.9812

> <Gold.PLP.part.nonpolar>
-40.0538

> <Gold.PLP.part.repulsive>
0.1143

> <Gold.PLP.ligand.clash>
0.0000

> <Gold.PLP.ligand.torsion>
0.3387

> <Gold.PLP.Chemscore.Hbond>
0.9750

> <Gold.PLP.Chemscore.CHOScore>
0.0000

> <Gold.PLP.Chemscore.Metal>
0.0000

> <Gold.Chemscore.Hbonds>
donor molecule, donor type, donor heavy atom, donor atom, acceptor molecule, acceptor atom, score
      P1  H  6896  6908       L1    11  0.98

> <Gold.PLP.Chemscore.Internal.Correction>
0.0580

> <Gold.Rescore>
     Score         DG    S(hbond)    S(metal)    S(lipo)     H(rot)  DE(clash)    DE(int)     intcor
     16.98     -17.50       0.95        0.00     125.96       2.30       0.09       0.43       ----

> <Gold.Chemscore.Fitness>
16.9838

> <Gold.Chemscore.DG>
-17.4999

> <Gold.Chemscore.ZeroCoef>
-5.4800

> <Gold.Chemscore.Hbond>
0.9479

> <Gold.Chemscore.Metal>
0.0000

> <Gold.Chemscore.Lipo>
125.9629

> <Gold.Chemscore.Internal_Hbond>
0.0000

> <Gold.Chemscore.DEClash>
0.0875

> <Gold.Chemscore.DEInternal>
0.4286

> <Gold.Chemscore.Rot>
2.2984

> <Gold.Chemscore.Internal.Correction>
   9.000000E+99

> <Gold.Chemscore.Hbonds>
donor molecule, donor type, donor heavy atom, donor atom, acceptor molecule, acceptor atom, score
      P1  H  6896  6908       L1    11  0.45

> <Gold.Chemscore.Hbond.Weighted>
-3.1661

> <Gold.Chemscore.Metal.Weighted>
-0.0000

> <Gold.Chemscore.Lipo.Weighted>
-14.7377

> <Gold.Chemscore.Internal_Hbond.Weighted>
0.0000

> <Gold.Chemscore.DEClash.Weighted>
0.0875

> <Gold.Chemscore.DEInternal.Weighted>
0.4286

> <Gold.Chemscore.Rot.Weighted>
5.8839

> <Gold.Chemscore.Internal.Correction.Weighted>
   9.000000E+99

> <Gold.Protein.RotatedTorsions>
[ 6907 6896 6895 6894 ] final -118.60 input  -60.11 | X-H torsion
[ 7974 7965 7964 7962 ] final  130.00 input  175.53 | X-H torsion
[ 8008 7997 7996 7995 ] final   39.30 input   59.86 | X-H torsion
[ 10167 10162 10161 10158 ] final -124.88 input  -65.29 | X-H torsion
[ 10718 10713 10712 10709 ] final  -92.06 input   66.30 | X-H torsion
[ 10763 10752 10751 10750 ] final  -31.14 input  -60.55 | X-H torsion
[ 11005 11000 10999 10996 ] final   92.41 input  -57.11 | X-H torsion

> <Gold.Protein.ActiveResidues>
 VAL166  LYS551  ARG553  GLY616  TRP617  ASP618  TYR619  PRO620  LYS621  CYS622 
 ASP623  PHE694  ASN695  SER759  ASP760  ASP761  ALA762  ILE779  LEU786  VAL792 
 PHE793  MET794  SER795  GLU796  ALA797  LYS798  CYS799  TRP800  GLU811  SER814 

> <Gold.Protein.RotatedAtoms>
  150.8234  133.8214  159.3128 H   0  0  0  0  0  0  0  0  0  0  0  0  # atno 6907 bound_to 6896
  151.5965  135.1048  160.0060 H   0  0  0  0  0  0  0  0  0  0  0  0  # atno 6908 bound_to 6896
  152.4321  133.7255  159.6614 H   0  0  0  0  0  0  0  0  0  0  0  0  # atno 6909 bound_to 6896
  145.0226  139.4118  143.5190 H   0  0  0  0  0  0  0  0  0  0  0  0  # atno 7974 bound_to 7965
  155.2344  140.3340  155.4299 H   0  0  0  0  0  0  0  0  0  0  0  0  # atno 8008 bound_to 7997
  156.2282  140.1838  156.7356 H   0  0  0  0  0  0  0  0  0  0  0  0  # atno 8009 bound_to 7997
  154.5933  140.0634  156.9254 H   0  0  0  0  0  0  0  0  0  0  0  0  # atno 8010 bound_to 7997
  139.9881  143.5670  152.2352 H   0  0  0  0  0  0  0  0  0  0  0  0  # atno 10167 bound_to 10162
  155.9999  130.4972  150.5569 H   0  0  0  0  0  0  0  0  0  0  0  0  # atno 10718 bound_to 10713
  153.7925  135.6896  153.4869 H   0  0  0  0  0  0  0  0  0  0  0  0  # atno 10763 bound_to 10752
  153.1740  135.4531  154.9939 H   0  0  0  0  0  0  0  0  0  0  0  0  # atno 10764 bound_to 10752
  154.8039  135.3349  154.7420 H   0  0  0  0  0  0  0  0  0  0  0  0  # atno 10765 bound_to 10752
  139.8824  134.8731  156.3568 H   0  0  0  0  0  0  0  0  0  0  0  0  # atno 11005 bound_to 11000
  146.3487  139.9732  142.8704 LP  0  0  0  0  0  0  0  0  0  0  0  0  # atno 17320 bound_to 7965
  145.1876  140.9796  143.4230 LP  0  0  0  0  0  0  0  0  0  0  0  0  # atno 17321 bound_to 7965
  139.6360  144.7650  151.2437 LP  0  0  0  0  0  0  0  0  0  0  0  0  # atno 17342 bound_to 10162
  140.7465  143.6397  150.8346 LP  0  0  0  0  0  0  0  0  0  0  0  0  # atno 17343 bound_to 10162
  157.3484  131.0729  151.1733 LP  0  0  0  0  0  0  0  0  0  0  0  0  # atno 17370 bound_to 10713
  157.2558  130.6635  149.5952 LP  0  0  0  0  0  0  0  0  0  0  0  0  # atno 17371 bound_to 10713
  140.9556  133.7422  156.0331 LP  0  0  0  0  0  0  0  0  0  0  0  0  # atno 17394 bound_to 11000
  140.8052  134.3463  157.5428 LP  0  0  0  0  0  0  0  0  0  0  0  0  # atno 17395 bound_to 11000

$$$$
