AV-unprocessed.smi:2279|AV-procd|sdf|9188|dock8
  -GOLD-   2272012403D 1   1.00000     0.00000
 Structure written by MMmdl.
 57 59  0  0  0  0  0  0  0  0  2 V2000
  151.8768  145.9154  159.6447 C   0  0  0  0  0  0  0  0  0  0  0  0
  151.9201  144.4585  159.2339 C   0  0  0  0  0  0  0  0  0  0  0  0
  152.7797  143.5508  159.8816 C   0  0  0  0  0  0  0  0  0  0  0  0
  152.7747  142.2090  159.4528 C   0  0  0  0  0  0  0  0  0  0  0  0
  153.6728  141.1792  160.1052 C   0  0  0  0  0  0  0  0  0  0  0  0
  151.9895  141.7589  158.4509 N   0  0  0  0  0  0  0  0  0  0  0  0
  151.1587  142.6244  157.8187 C   0  0  0  0  0  0  0  0  0  0  0  0
  150.2913  142.2512  156.7579 N   0  0  0  0  0  0  0  0  0  0  0  0
  150.0900  141.0266  156.2401 C   0  0  0  0  0  0  0  0  0  0  0  0
  150.6640  139.9976  156.5981 O   0  0  0  0  0  0  0  0  0  0  0  0
  149.1746  141.0593  155.2604 N   0  0  0  0  0  0  0  0  0  0  0  0
  148.7311  139.9043  154.4852 C   0  0  0  0  0  0  0  0  0  0  0  0
  147.4961  140.2497  153.6430 C   0  0  0  0  0  0  0  0  0  0  0  0
  146.9449  138.9983  152.9392 C   0  0  0  0  0  0  0  0  0  0  0  0
  146.5616  137.9584  153.9087 N   0  0  0  0  0  0  0  0  0  0  0  0
  145.8979  136.8349  153.2113 C   0  0  2  0  0  0  0  0  0  0  0  0
  144.6908  137.3222  152.3699 C   0  0  0  0  0  0  0  0  0  0  0  0
  143.4966  137.7304  153.2521 C   0  0  0  0  0  0  0  0  0  0  0  0
  143.0730  136.6166  154.1351 N   0  3  2  0  0  0  0  0  0  0  0  0
  141.8680  136.9504  154.9242 C   0  0  0  0  0  0  0  0  0  0  0  0
  144.1847  136.1249  154.9841 C   0  0  0  0  0  0  0  0  0  0  0  0
  145.3850  135.6916  154.1240 C   0  0  0  0  0  0  0  0  0  0  0  0
  147.7708  137.5625  154.6474 C   0  0  0  0  0  0  0  0  0  0  0  0
  148.3689  138.7493  155.4240 C   0  0  0  0  0  0  0  0  0  0  0  0
  151.0994  143.9865  158.1897 C   0  0  0  0  0  0  0  0  0  0  0  0
  152.4135  146.0787  160.5797 H   0  0  0  0  0  0  0  0  0  0  0  0
  150.8456  146.2416  159.7835 H   0  0  0  0  0  0  0  0  0  0  0  0
  152.3341  146.5367  158.8745 H   0  0  0  0  0  0  0  0  0  0  0  0
  153.4258  143.8743  160.6848 H   0  0  0  0  0  0  0  0  0  0  0  0
  154.1233  141.5688  161.0184 H   0  0  0  0  0  0  0  0  0  0  0  0
  154.4740  140.8926  159.4236 H   0  0  0  0  0  0  0  0  0  0  0  0
  153.1043  140.2849  160.3628 H   0  0  0  0  0  0  0  0  0  0  0  0
  149.7589  143.0044  156.3488 H   0  0  0  0  0  0  0  0  0  0  0  0
  148.7536  141.9479  155.0329 H   0  0  0  0  0  0  0  0  0  0  0  0
  149.5367  139.5742  153.8263 H   0  0  0  0  0  0  0  0  0  0  0  0
  146.7191  140.6856  154.2730 H   0  0  0  0  0  0  0  0  0  0  0  0
  147.7507  141.0050  152.8984 H   0  0  0  0  0  0  0  0  0  0  0  0
  146.0983  139.3132  152.3344 H   0  0  0  0  0  0  0  0  0  0  0  0
  147.6895  138.6029  152.2462 H   0  0  0  0  0  0  0  0  0  0  0  0
  146.6361  136.3937  152.5395 H   0  0  0  0  0  0  0  0  0  0  0  0
  144.9435  138.1361  151.6939 H   0  0  0  0  0  0  0  0  0  0  0  0
  144.3732  136.5086  151.7164 H   0  0  0  0  0  0  0  0  0  0  0  0
  143.7548  138.6014  153.8567 H   0  0  0  0  0  0  0  0  0  0  0  0
  142.6608  138.0250  152.6163 H   0  0  0  0  0  0  0  0  0  0  0  0
  142.0677  137.7710  155.6144 H   0  0  0  0  0  0  0  0  0  0  0  0
  141.5361  136.0884  155.5038 H   0  0  0  0  0  0  0  0  0  0  0  0
  141.0476  137.2452  154.2690 H   0  0  0  0  0  0  0  0  0  0  0  0
  144.4828  136.9039  155.6876 H   0  0  0  0  0  0  0  0  0  0  0  0
  143.8394  135.2777  155.5778 H   0  0  0  0  0  0  0  0  0  0  0  0
  145.0623  134.8668  153.4869 H   0  0  0  0  0  0  0  0  0  0  0  0
  146.1735  135.2577  154.7376 H   0  0  0  0  0  0  0  0  0  0  0  0
  147.5370  136.8007  155.3886 H   0  0  0  0  0  0  0  0  0  0  0  0
  148.5082  137.1381  153.9645 H   0  0  0  0  0  0  0  0  0  0  0  0
  149.2546  138.4220  155.9698 H   0  0  0  0  0  0  0  0  0  0  0  0
  147.6510  139.0873  156.1732 H   0  0  0  0  0  0  0  0  0  0  0  0
  150.4326  144.6657  157.6779 H   0  0  0  0  0  0  0  0  0  0  0  0
  142.8152  135.8517  153.5280 H   0  0  0  0  0  0  0  0  0  0  0  0
  1  2  1  0  0  0  0
  1 26  1  0  0  0  0
  1 27  1  0  0  0  0
  1 28  1  0  0  0  0
  2 25  1  0  0  0  0
  2  3  2  0  0  0  0
  3  4  1  0  0  0  0
  3 29  1  0  0  0  0
  4  5  1  0  0  0  0
  4  6  2  0  0  0  0
  5 30  1  0  0  0  0
  5 31  1  0  0  0  0
  5 32  1  0  0  0  0
  6  7  1  0  0  0  0
  7  8  1  0  0  0  0
  7 25  2  0  0  0  0
  8  9  1  0  0  0  0
  8 33  1  0  0  0  0
  9 10  2  0  0  0  0
  9 11  1  0  0  0  0
 11 12  1  0  0  0  0
 11 34  1  0  0  0  0
 12 24  1  0  0  0  0
 12 13  1  0  0  0  0
 12 35  1  0  0  0  0
 13 14  1  0  0  0  0
 13 36  1  0  0  0  0
 13 37  1  0  0  0  0
 14 15  1  0  0  0  0
 14 38  1  0  0  0  0
 14 39  1  0  0  0  0
 15 16  1  0  0  0  0
 15 23  1  0  0  0  0
 16 22  1  0  0  0  0
 16 17  1  0  0  0  0
 16 40  1  0  0  0  0
 17 18  1  0  0  0  0
 17 41  1  0  0  0  0
 17 42  1  0  0  0  0
 18 19  1  0  0  0  0
 18 43  1  0  0  0  0
 18 44  1  0  0  0  0
 19 20  1  0  0  0  0
 19 21  1  0  0  0  0
 19 57  1  0  0  0  0
 20 45  1  0  0  0  0
 20 46  1  0  0  0  0
 20 47  1  0  0  0  0
 21 22  1  0  0  0  0
 21 48  1  0  0  0  0
 21 49  1  0  0  0  0
 22 50  1  0  0  0  0
 22 51  1  0  0  0  0
 23 24  1  0  0  0  0
 23 52  1  0  0  0  0
 23 53  1  0  0  0  0
 24 54  1  0  0  0  0
 24 55  1  0  0  0  0
 25 56  1  0  0  0  0
M  CHG  1  19   1
M  END
> <s_m_source_file>
AV-unprocessed.smi

> <i_m_source_file_index>
2279

> <i_lp_mmshare_version>
43012

> <i_f3d_flags>
0

> <s_epik_input>
W0NIM11jMVtjSF1jKFtDSDNdKW5jKFtjSF0xKVtOSF1DKD1PKVtOSF1bQ0hdMltDSDJdW0NIMl1OKFtDSDJdW0NIMl0yKVtDSF0zW0NIMl1bQ0gyXU4oW0NIM10pW0NIMl1bQ0gyXTM=

> <s_epik_cmdline>
J2VwaWtfcHl0aG9uJywgJy1waCcsICc3LjAnLCAnLXRuJywgJzgnLCAnLW1hJywgJzIwMCcsICctbWV0YWxfYmluZGluZycsICctaW1hZScsICc8aW5maWxlLm1hZT4nLCAnLW9tYWUnLCAnPG91dGZpbGUubWFlPic=

> <r_epik_Ionization_Penalty>
1.01001

> <r_epik_Ionization_Penalty_Charging>
0.000974969

> <r_epik_Ionization_Penalty_Neutral>
1.00904

> <r_epik_State_Penalty>
1.10286

> <r_epik_Charging_Adjusted_Penalty>
1.10383

> <i_epik_Tot_Q>
1

> <i_epik_Tot_abs_Q>
1

> <r_epik_Metal_State_Penalty>
1.10279

> <b_epik_Metal_Only>
0

> <s_lp_Force_Field>
OPLS_2005

> <r_lp_Energy>
36.6633

> <b_lp_Chiralities_Consistent>
1

> <s_lp_Variant>
AV-unprocessed.smi:2279-6

> <Gold.Version>
5.8.1

> <Gold.Id.Protein>
6NUR|6NUR_protein|mol2

> <Gold.PLP.Fitness>
39.7095

> <Gold.PLP.PLP>
-36.9746

> <Gold.PLP.part.hbond>
-0.9940

> <Gold.PLP.part.metal>
0.0000

> <Gold.PLP.part.buried>
-0.2942

> <Gold.PLP.part.nonpolar>
-36.2584

> <Gold.PLP.part.repulsive>
0.3132

> <Gold.PLP.ligand.clash>
0.0000

> <Gold.PLP.ligand.torsion>
0.1217

> <Gold.PLP.Chemscore.Hbond>
0.9913

> <Gold.PLP.Chemscore.CHOScore>
0.0000

> <Gold.PLP.Chemscore.Metal>
0.0000

> <Gold.Chemscore.Hbonds>
donor molecule, donor type, donor heavy atom, donor atom, acceptor molecule, acceptor atom, score
      L1  H     8    33       P1  8028  0.96

> <Gold.PLP.Chemscore.Internal.Correction>
0.0045

> <Gold.Rescore>
     Score         DG    S(hbond)    S(metal)    S(lipo)     H(rot)  DE(clash)    DE(int)     intcor
     14.85     -18.89       0.99        0.00     112.48       1.20       1.32       2.73       ----

> <Gold.Chemscore.Fitness>
14.8472

> <Gold.Chemscore.DG>
-18.8915

> <Gold.Chemscore.ZeroCoef>
-5.4800

> <Gold.Chemscore.Hbond>
0.9936

> <Gold.Chemscore.Metal>
0.0000

> <Gold.Chemscore.Lipo>
112.4799

> <Gold.Chemscore.Internal_Hbond>
0.0000

> <Gold.Chemscore.DEClash>
1.3176

> <Gold.Chemscore.DEInternal>
2.7266

> <Gold.Chemscore.Rot>
1.1981

> <Gold.Chemscore.Internal.Correction>
   9.000000E+99

> <Gold.Chemscore.Hbonds>
donor molecule, donor type, donor heavy atom, donor atom, acceptor molecule, acceptor atom, score
      L1  H     8    33       P1  8028  0.91

> <Gold.Chemscore.Hbond.Weighted>
-3.3186

> <Gold.Chemscore.Metal.Weighted>
-0.0000

> <Gold.Chemscore.Lipo.Weighted>
-13.1601

> <Gold.Chemscore.Internal_Hbond.Weighted>
0.0000

> <Gold.Chemscore.DEClash.Weighted>
1.3176

> <Gold.Chemscore.DEInternal.Weighted>
2.7266

> <Gold.Chemscore.Rot.Weighted>
3.0673

> <Gold.Chemscore.Internal.Correction.Weighted>
   9.000000E+99

> <Gold.Protein.RotatedTorsions>
[ 6907 6896 6895 6894 ] final  -47.86 input  -60.11 | X-H torsion
[ 7974 7965 7964 7962 ] final  -37.63 input  175.53 | X-H torsion
[ 8008 7997 7996 7995 ] final  175.13 input   59.86 | X-H torsion
[ 10167 10162 10161 10158 ] final   14.35 input  -65.29 | X-H torsion
[ 10718 10713 10712 10709 ] final   42.97 input   66.30 | X-H torsion
[ 10763 10752 10751 10750 ] final  -71.36 input  -60.55 | X-H torsion
[ 11005 11000 10999 10996 ] final  169.66 input  -57.11 | X-H torsion

> <Gold.Protein.ActiveResidues>
 VAL166  LYS551  ARG553  GLY616  TRP617  ASP618  TYR619  PRO620  LYS621  CYS622 
 ASP623  PHE694  ASN695  SER759  ASP760  ASP761  ALA762  ILE779  LEU786  VAL792 
 PHE793  MET794  SER795  GLU796  ALA797  LYS798  CYS799  TRP800  GLU811  SER814 

> <Gold.Protein.RotatedAtoms>
  150.8964  134.8373  159.7329 H   0  0  0  0  0  0  0  0  0  0  0  0  # atno 6907 bound_to 6896
  152.4867  134.4569  159.9602 H   0  0  0  0  0  0  0  0  0  0  0  0  # atno 6908 bound_to 6896
  151.4626  133.3550  159.2847 H   0  0  0  0  0  0  0  0  0  0  0  0  # atno 6909 bound_to 6896
  146.0558  140.6418  142.9020 H   0  0  0  0  0  0  0  0  0  0  0  0  # atno 7974 bound_to 7965
  156.0903  140.1417  156.9601 H   0  0  0  0  0  0  0  0  0  0  0  0  # atno 8008 bound_to 7997
  154.4638  140.0934  156.7011 H   0  0  0  0  0  0  0  0  0  0  0  0  # atno 8009 bound_to 7997
  155.4931  140.3448  155.4360 H   0  0  0  0  0  0  0  0  0  0  0  0  # atno 8010 bound_to 7997
  140.5941  143.8736  150.6901 H   0  0  0  0  0  0  0  0  0  0  0  0  # atno 10167 bound_to 10162
  157.4107  130.7913  149.7428 H   0  0  0  0  0  0  0  0  0  0  0  0  # atno 10718 bound_to 10713
  154.4306  135.5965  153.6066 H   0  0  0  0  0  0  0  0  0  0  0  0  # atno 10763 bound_to 10752
  152.9799  135.5974  154.3843 H   0  0  0  0  0  0  0  0  0  0  0  0  # atno 10764 bound_to 10752
  154.3681  135.2841  155.2260 H   0  0  0  0  0  0  0  0  0  0  0  0  # atno 10765 bound_to 10752
  140.3001  134.7603  157.3909 H   0  0  0  0  0  0  0  0  0  0  0  0  # atno 11005 bound_to 11000
  144.7147  140.4167  143.7053 LP  0  0  0  0  0  0  0  0  0  0  0  0  # atno 17320 bound_to 7965
  145.6646  139.1587  143.2789 LP  0  0  0  0  0  0  0  0  0  0  0  0  # atno 17321 bound_to 7965
  140.2266  143.3767  152.1599 LP  0  0  0  0  0  0  0  0  0  0  0  0  # atno 17342 bound_to 10162
  139.5247  144.7086  151.5275 LP  0  0  0  0  0  0  0  0  0  0  0  0  # atno 17343 bound_to 10162
  155.9850  130.3987  150.3284 LP  0  0  0  0  0  0  0  0  0  0  0  0  # atno 17370 bound_to 10713
  157.1422  131.0299  151.2923 LP  0  0  0  0  0  0  0  0  0  0  0  0  # atno 17371 bound_to 10713
  140.1117  134.5336  155.8260 LP  0  0  0  0  0  0  0  0  0  0  0  0  # atno 17394 bound_to 11000
  141.2130  133.6727  156.6702 LP  0  0  0  0  0  0  0  0  0  0  0  0  # atno 17395 bound_to 11000

$$$$
