AV-unprocessed.smi:452|AV-procd|sdf|2610|dock2
  -GOLD-   2262023 03D 1   1.00000     0.00000
 Structure written by MMmdl.
 43 44  0  0  0  0  0  0  0  0  1 V2000
  143.5037  135.7315  151.9486 C   0  0  0  0  0  0  0  0  0  0  0  0
  144.8239  136.2828  151.3881 C   0  0  0  0  0  0  0  0  0  0  0  0
  145.8074  135.1315  151.1173 C   0  0  0  0  0  0  0  0  0  0  0  0
  145.4110  137.3537  152.3310 C   0  0  0  0  0  0  0  0  0  0  0  0
  146.6986  138.0190  151.8043 C   0  0  0  0  0  0  0  0  0  0  0  0
  147.2497  139.0801  152.7626 C   0  0  0  0  0  0  0  0  0  0  0  0
  146.6178  140.1195  152.9534 O   0  0  0  0  0  0  0  0  0  0  0  0
  148.4300  138.7864  153.3404 N   0  0  0  0  0  0  0  0  0  0  0  0
  149.1747  139.5604  154.2694 C   0  0  0  0  0  0  0  0  0  0  0  0
  150.3874  138.9756  154.6964 C   0  0  0  0  0  0  0  0  0  0  0  0
  151.1978  139.6584  155.6233 C   0  0  0  0  0  0  0  0  0  0  0  0
  150.7806  140.9153  156.1011 C   0  0  0  0  0  0  0  0  0  0  0  0
  151.5689  141.6032  157.0345 N   0  0  0  0  0  0  0  0  0  0  0  0
  151.8295  140.8247  158.2387 C   0  0  0  0  0  0  0  0  0  0  0  0
  152.7996  141.5858  159.1595 C   0  0  0  0  0  0  0  0  0  0  0  0
  152.2712  142.8771  159.4495 O   0  0  0  0  0  0  0  0  0  0  0  0
  152.0915  143.6577  158.2711 C   0  0  0  0  0  0  0  0  0  0  0  0
  151.0984  142.9507  157.3319 C   0  0  0  0  0  0  0  0  0  0  0  0
  149.5555  141.4264  155.6181 C   0  0  0  0  0  0  0  0  0  0  0  0
  148.7769  140.7714  154.7316 N   0  0  0  0  0  0  0  0  0  0  0  0
  143.6563  135.2438  152.9121 H   0  0  0  0  0  0  0  0  0  0  0  0
  143.0627  134.9997  151.2712 H   0  0  0  0  0  0  0  0  0  0  0  0
  142.7718  136.5271  152.0906 H   0  0  0  0  0  0  0  0  0  0  0  0
  144.5954  136.7601  150.4340 H   0  0  0  0  0  0  0  0  0  0  0  0
  146.1057  134.6398  152.0438 H   0  0  0  0  0  0  0  0  0  0  0  0
  146.7106  135.4784  150.6167 H   0  0  0  0  0  0  0  0  0  0  0  0
  145.3566  134.3763  150.4727 H   0  0  0  0  0  0  0  0  0  0  0  0
  144.6575  138.1274  152.4871 H   0  0  0  0  0  0  0  0  0  0  0  0
  145.5961  136.9138  153.3122 H   0  0  0  0  0  0  0  0  0  0  0  0
  147.4670  137.2659  151.6284 H   0  0  0  0  0  0  0  0  0  0  0  0
  146.5037  138.4960  150.8433 H   0  0  0  0  0  0  0  0  0  0  0  0
  148.8363  137.8958  153.0943 H   0  0  0  0  0  0  0  0  0  0  0  0
  150.6967  138.0100  154.3232 H   0  0  0  0  0  0  0  0  0  0  0  0
  152.1251  139.2196  155.9618 H   0  0  0  0  0  0  0  0  0  0  0  0
  150.8928  140.6340  158.7644 H   0  0  0  0  0  0  0  0  0  0  0  0
  152.2526  139.8559  157.9699 H   0  0  0  0  0  0  0  0  0  0  0  0
  152.9383  141.0399  160.0927 H   0  0  0  0  0  0  0  0  0  0  0  0
  153.7827  141.6797  158.6953 H   0  0  0  0  0  0  0  0  0  0  0  0
  151.7121  144.6408  158.5497 H   0  0  0  0  0  0  0  0  0  0  0  0
  153.0513  143.8145  157.7762 H   0  0  0  0  0  0  0  0  0  0  0  0
  150.9908  143.5176  156.4065 H   0  0  0  0  0  0  0  0  0  0  0  0
  150.1154  142.9085  157.8025 H   0  0  0  0  0  0  0  0  0  0  0  0
  149.1816  142.3819  155.9555 H   0  0  0  0  0  0  0  0  0  0  0  0
  1  2  1  0  0  0  0
  1 21  1  0  0  0  0
  1 22  1  0  0  0  0
  1 23  1  0  0  0  0
  2  3  1  0  0  0  0
  2  4  1  0  0  0  0
  2 24  1  0  0  0  0
  3 25  1  0  0  0  0
  3 26  1  0  0  0  0
  3 27  1  0  0  0  0
  4  5  1  0  0  0  0
  4 28  1  0  0  0  0
  4 29  1  0  0  0  0
  5  6  1  0  0  0  0
  5 30  1  0  0  0  0
  5 31  1  0  0  0  0
  6  7  2  0  0  0  0
  6  8  1  0  0  0  0
  8  9  1  0  0  0  0
  8 32  1  0  0  0  0
  9 20  1  0  0  0  0
  9 10  2  0  0  0  0
 10 11  1  0  0  0  0
 10 33  1  0  0  0  0
 11 12  2  0  0  0  0
 11 34  1  0  0  0  0
 12 13  1  0  0  0  0
 12 19  1  0  0  0  0
 13 18  1  0  0  0  0
 13 14  1  0  0  0  0
 14 15  1  0  0  0  0
 14 35  1  0  0  0  0
 14 36  1  0  0  0  0
 15 16  1  0  0  0  0
 15 37  1  0  0  0  0
 15 38  1  0  0  0  0
 16 17  1  0  0  0  0
 17 18  1  0  0  0  0
 17 39  1  0  0  0  0
 17 40  1  0  0  0  0
 18 41  1  0  0  0  0
 18 42  1  0  0  0  0
 19 20  2  0  0  0  0
 19 43  1  0  0  0  0
M  END
> <s_m_source_file>
AV-unprocessed.smi

> <i_m_source_file_index>
452

> <i_lp_mmshare_version>
43012

> <i_f3d_flags>
0

> <s_epik_input>
W0NIM11bQ0hdKFtDSDNdKVtDSDJdW0NIMl1DKD1PKVtOSF1jMVtjSF1bY0hdYyhbY0hdbjEpTjJbQ0gyXVtDSDJdT1tDSDJdW0NIMl0y

> <s_epik_cmdline>
J2VwaWtfcHl0aG9uJywgJy1waCcsICc3LjAnLCAnLXRuJywgJzgnLCAnLW1hJywgJzIwMCcsICctbWV0YWxfYmluZGluZycsICctaW1hZScsICc8aW5maWxlLm1hZT4nLCAnLW9tYWUnLCAnPG91dGZpbGUubWFlPic=

> <r_lp_tautomer_probability>
1

> <r_epik_Ionization_Penalty>
0.0030116

> <r_epik_Ionization_Penalty_Charging>
0

> <r_epik_Ionization_Penalty_Neutral>
0.0030116

> <r_epik_State_Penalty>
0.00263935

> <r_epik_Charging_Adjusted_Penalty>
0.00263935

> <i_epik_Tot_Q>
0

> <i_epik_Tot_abs_Q>
0

> <r_epik_Metal_State_Penalty>
-0

> <b_epik_Metal_Only>
0

> <s_lp_Force_Field>
OPLS_2005

> <r_lp_Energy>
28.4973

> <b_lp_Chiralities_Consistent>
1

> <s_lp_Variant>
AV-unprocessed.smi:452-1

> <Gold.Version>
5.8.1

> <Gold.Id.Protein>
6NUR|6NUR_protein|mol2

> <Gold.PLP.Fitness>
41.6969

> <Gold.PLP.PLP>
-35.8101

> <Gold.PLP.part.hbond>
-2.0000

> <Gold.PLP.part.metal>
0.0000

> <Gold.PLP.part.buried>
0.1245

> <Gold.PLP.part.nonpolar>
-36.0816

> <Gold.PLP.part.repulsive>
1.3123

> <Gold.PLP.ligand.clash>
0.0000

> <Gold.PLP.ligand.torsion>
0.1100

> <Gold.PLP.Chemscore.Hbond>
1.0000

> <Gold.PLP.Chemscore.CHOScore>
1.0000

> <Gold.PLP.Chemscore.Metal>
0.0000

> <Gold.Chemscore.Hbonds>
donor molecule, donor type, donor heavy atom, donor atom, acceptor molecule, acceptor atom, score
      L1  H     8    32       P1  7948  0.94
      L1  C    19    43       P1  8028  1.00

> <Gold.PLP.Chemscore.Internal.Correction>
0.1067

> <Gold.Rescore>
     Score         DG    S(hbond)    S(metal)    S(lipo)     H(rot)  DE(clash)    DE(int)     intcor
     12.27     -15.97       0.89        0.00      95.57       1.43       2.29       1.41       ----

> <Gold.Chemscore.Fitness>
12.2727

> <Gold.Chemscore.DG>
-15.9718

> <Gold.Chemscore.ZeroCoef>
-5.4800

> <Gold.Chemscore.Hbond>
0.8921

> <Gold.Chemscore.Metal>
0.0000

> <Gold.Chemscore.Lipo>
95.5655

> <Gold.Chemscore.Internal_Hbond>
0.0000

> <Gold.Chemscore.DEClash>
2.2864

> <Gold.Chemscore.DEInternal>
1.4128

> <Gold.Chemscore.Rot>
1.4332

> <Gold.Chemscore.Internal.Correction>
   9.000000E+99

> <Gold.Chemscore.Hbonds>
donor molecule, donor type, donor heavy atom, donor atom, acceptor molecule, acceptor atom, score
      L1  H     8    32       P1  7948  0.86

> <Gold.Chemscore.Hbond.Weighted>
-2.9796

> <Gold.Chemscore.Metal.Weighted>
-0.0000

> <Gold.Chemscore.Lipo.Weighted>
-11.1812

> <Gold.Chemscore.Internal_Hbond.Weighted>
0.0000

> <Gold.Chemscore.DEClash.Weighted>
2.2864

> <Gold.Chemscore.DEInternal.Weighted>
1.4128

> <Gold.Chemscore.Rot.Weighted>
3.6689

> <Gold.Chemscore.Internal.Correction.Weighted>
   9.000000E+99

> <Gold.Protein.RotatedTorsions>
[ 6907 6896 6895 6894 ] final  162.09 input  -60.11 | X-H torsion
[ 7974 7965 7964 7962 ] final  116.50 input  175.53 | X-H torsion
[ 8008 7997 7996 7995 ] final   97.46 input   59.86 | X-H torsion
[ 10167 10162 10161 10158 ] final   -5.33 input  -65.29 | X-H torsion
[ 10718 10713 10712 10709 ] final  -40.74 input   66.30 | X-H torsion
[ 10763 10752 10751 10750 ] final  -24.93 input  -60.55 | X-H torsion
[ 11005 11000 10999 10996 ] final  -96.30 input  -57.11 | X-H torsion

> <Gold.Protein.ActiveResidues>
 VAL166  LYS551  ARG553  GLY616  TRP617  ASP618  TYR619  PRO620  LYS621  CYS622 
 ASP623  PHE694  ASN695  SER759  ASP760  ASP761  ALA762  ILE779  LEU786  VAL792 
 PHE793  MET794  SER795  GLU796  ALA797  LYS798  CYS799  TRP800  GLU811  SER814 

> <Gold.Protein.RotatedAtoms>
  151.9458  133.3651  159.3981 H   0  0  0  0  0  0  0  0  0  0  0  0  # atno 6907 bound_to 6896
  150.6990  134.4392  159.5293 H   0  0  0  0  0  0  0  0  0  0  0  0  # atno 6908 bound_to 6896
  152.2057  134.8548  160.0554 H   0  0  0  0  0  0  0  0  0  0  0  0  # atno 6909 bound_to 6896
  145.1789  139.3060  143.4428 H   0  0  0  0  0  0  0  0  0  0  0  0  # atno 7974 bound_to 7965
  156.0903  140.3258  155.7807 H   0  0  0  0  0  0  0  0  0  0  0  0  # atno 8008 bound_to 7997
  155.5007  140.0569  157.2957 H   0  0  0  0  0  0  0  0  0  0  0  0  # atno 8009 bound_to 7997
  154.4634  140.1977  156.0200 H   0  0  0  0  0  0  0  0  0  0  0  0  # atno 8010 bound_to 7997
  140.6959  143.6321  150.8513 H   0  0  0  0  0  0  0  0  0  0  0  0  # atno 10167 bound_to 10162
  156.2780  130.4214  149.8367 H   0  0  0  0  0  0  0  0  0  0  0  0  # atno 10718 bound_to 10713
  153.6917  135.6961  153.5088 H   0  0  0  0  0  0  0  0  0  0  0  0  # atno 10763 bound_to 10752
  153.2408  135.4306  155.0695 H   0  0  0  0  0  0  0  0  0  0  0  0  # atno 10764 bound_to 10752
  154.8371  135.3507  154.6458 H   0  0  0  0  0  0  0  0  0  0  0  0  # atno 10765 bound_to 10752
  141.1416  133.8088  157.0552 H   0  0  0  0  0  0  0  0  0  0  0  0  # atno 11005 bound_to 11000
  146.3456  140.1962  142.8589 LP  0  0  0  0  0  0  0  0  0  0  0  0  # atno 17320 bound_to 7965
  145.0156  140.8751  143.5197 LP  0  0  0  0  0  0  0  0  0  0  0  0  # atno 17321 bound_to 7965
  140.0039  143.5715  152.2865 LP  0  0  0  0  0  0  0  0  0  0  0  0  # atno 17342 bound_to 10162
  139.6414  144.7655  151.2331 LP  0  0  0  0  0  0  0  0  0  0  0  0  # atno 17343 bound_to 10162
  156.5824  130.8471  151.3386 LP  0  0  0  0  0  0  0  0  0  0  0  0  # atno 17370 bound_to 10713
  157.7305  130.9687  150.1838 LP  0  0  0  0  0  0  0  0  0  0  0  0  # atno 17371 bound_to 10713
  140.0606  134.9757  157.1298 LP  0  0  0  0  0  0  0  0  0  0  0  0  # atno 17394 bound_to 11000
  140.3854  134.2242  155.7168 LP  0  0  0  0  0  0  0  0  0  0  0  0  # atno 17395 bound_to 11000

$$$$
