AV-unprocessed.smi:1120|AV-procd|sdf|4823|dock2
  -GOLD-   22720 3383D 1   1.00000     0.00000
 Structure written by MMmdl.
 47 48  0  0  0  0  0  0  0  0  2 V2000
  146.6962  133.4616  151.3021 C   0  0  0  0  0  0  0  0  0  0  0  0
  147.1327  133.4803  152.7733 C   0  0  2  0  0  0  0  0  0  0  0  0
  146.8819  134.8567  153.4309 C   0  0  0  0  0  0  0  0  0  0  0  0
  147.3564  134.9191  154.9062 C   0  0  0  0  0  0  0  0  0  0  0  0
  148.8378  134.5187  155.1161 C   0  0  2  0  0  0  0  0  0  0  0  0
  149.7116  135.5564  154.5838 N   0  5  0  0  0  0  0  0  0  0  0  0
  150.5227  136.5352  155.5921 S   0  0  0  0  0  0  0  0  0  0  0  0
  149.6166  137.2939  156.4693 O   0  0  0  0  0  0  0  0  0  0  0  0
  151.6720  135.8745  156.2336 O   0  0  0  0  0  0  0  0  0  0  0  0
  151.2076  137.7735  154.3989 C   0  0  0  0  0  0  0  0  0  0  0  0
  151.8605  138.9507  155.1257 C   0  0  0  0  0  0  0  0  0  0  0  0
  153.0812  138.9774  155.2825 O   0  0  0  0  0  0  0  0  0  0  0  0
  151.0412  139.9281  155.5439 N   0  0  0  0  0  0  0  0  0  0  0  0
  151.4626  141.1361  156.2420 C   0  0  0  0  0  0  0  0  0  0  0  0
  150.5156  141.4750  157.4051 C   0  0  0  0  0  0  0  0  0  0  0  0
  151.0958  142.5273  158.3309 C   0  0  0  0  0  0  0  0  0  0  0  0
  150.5025  143.8037  158.4326 C   0  0  0  0  0  0  0  0  0  0  0  0
  151.0834  144.7463  159.3030 C   0  0  0  0  0  0  0  0  0  0  0  0
  152.2305  144.3792  160.0324 C   0  0  0  0  0  0  0  0  0  0  0  0
  152.7479  143.0802  159.8583 C   0  0  0  0  0  0  0  0  0  0  0  0
  152.1981  142.1686  159.0276 N   0  0  0  0  0  0  0  0  0  0  0  0
  149.1013  133.1631  154.4110 C   0  0  0  0  0  0  0  0  0  0  0  0
  148.6244  133.1099  152.9365 C   0  0  0  0  0  0  0  0  0  0  0  0
  147.2577  134.1874  150.7133 H   0  0  0  0  0  0  0  0  0  0  0  0
  145.6372  133.7016  151.2043 H   0  0  0  0  0  0  0  0  0  0  0  0
  146.8542  132.4783  150.8586 H   0  0  0  0  0  0  0  0  0  0  0  0
  146.5389  132.7369  153.3072 H   0  0  0  0  0  0  0  0  0  0  0  0
  147.3751  135.6372  152.8473 H   0  0  0  0  0  0  0  0  0  0  0  0
  145.8172  135.0887  153.3907 H   0  0  0  0  0  0  0  0  0  0  0  0
  147.1761  135.9161  155.3107 H   0  0  0  0  0  0  0  0  0  0  0  0
  146.7313  134.2462  155.4944 H   0  0  0  0  0  0  0  0  0  0  0  0
  148.9994  134.3896  156.1869 H   0  0  0  0  0  0  0  0  0  0  0  0
  151.9188  137.2735  153.7412 H   0  0  0  0  0  0  0  0  0  0  0  0
  150.3857  138.1358  153.7817 H   0  0  0  0  0  0  0  0  0  0  0  0
  150.0505  139.8162  155.3834 H   0  0  0  0  0  0  0  0  0  0  0  0
  152.4720  140.9693  156.6184 H   0  0  0  0  0  0  0  0  0  0  0  0
  151.5254  141.9715  155.5429 H   0  0  0  0  0  0  0  0  0  0  0  0
  149.5581  141.8288  157.0204 H   0  0  0  0  0  0  0  0  0  0  0  0
  150.2985  140.5763  157.9842 H   0  0  0  0  0  0  0  0  0  0  0  0
  149.6244  144.0564  157.8564 H   0  0  0  0  0  0  0  0  0  0  0  0
  150.6569  145.7329  159.4088 H   0  0  0  0  0  0  0  0  0  0  0  0
  152.7029  145.0761  160.7089 H   0  0  0  0  0  0  0  0  0  0  0  0
  153.6261  142.7647  160.4017 H   0  0  0  0  0  0  0  0  0  0  0  0
  150.1582  132.9021  154.4650 H   0  0  0  0  0  0  0  0  0  0  0  0
  148.5805  132.3818  154.9655 H   0  0  0  0  0  0  0  0  0  0  0  0
  148.7934  132.1058  152.5460 H   0  0  0  0  0  0  0  0  0  0  0  0
  149.2378  133.7723  152.3218 H   0  0  0  0  0  0  0  0  0  0  0  0
  1  2  1  0  0  0  0
  1 24  1  0  0  0  0
  1 25  1  0  0  0  0
  1 26  1  0  0  0  0
  2 23  1  0  0  0  0
  2  3  1  0  0  0  0
  2 27  1  0  0  0  0
  3  4  1  0  0  0  0
  3 28  1  0  0  0  0
  3 29  1  0  0  0  0
  4  5  1  0  0  0  0
  4 30  1  0  0  0  0
  4 31  1  0  0  0  0
  5  6  1  0  0  0  0
  5 22  1  0  0  0  0
  5 32  1  0  0  0  0
  6  7  1  0  0  0  0
  7  8  2  0  0  0  0
  7  9  2  0  0  0  0
  7 10  1  0  0  0  0
 10 11  1  0  0  0  0
 10 33  1  0  0  0  0
 10 34  1  0  0  0  0
 11 12  2  0  0  0  0
 11 13  1  0  0  0  0
 13 14  1  0  0  0  0
 13 35  1  0  0  0  0
 14 15  1  0  0  0  0
 14 36  1  0  0  0  0
 14 37  1  0  0  0  0
 15 16  1  0  0  0  0
 15 38  1  0  0  0  0
 15 39  1  0  0  0  0
 16 21  1  0  0  0  0
 16 17  2  0  0  0  0
 17 18  1  0  0  0  0
 17 40  1  0  0  0  0
 18 19  2  0  0  0  0
 18 41  1  0  0  0  0
 19 20  1  0  0  0  0
 19 42  1  0  0  0  0
 20 21  2  0  0  0  0
 20 43  1  0  0  0  0
 22 23  1  0  0  0  0
 22 44  1  0  0  0  0
 22 45  1  0  0  0  0
 23 46  1  0  0  0  0
 23 47  1  0  0  0  0
M  CHG  1   6  -1
M  END
> <s_m_source_file>
AV-unprocessed.smi

> <i_m_source_file_index>
1120

> <i_lp_mmshare_version>
43012

> <i_f3d_flags>
0

> <s_epik_input>
W0NIM11bQ0BASF0xW0NIMl1bQ0gyXVtDQEhdKFtDSDJdW0NIMl0xKVtOSF1TKD1PKSg9TylbQ0gyXUMoPU8pW05IXVtDSDJdW0NIMl1jMltjSF1bY0hdW2NIXVtjSF1uMg==

> <s_epik_cmdline>
J2VwaWtfcHl0aG9uJywgJy1waCcsICc3LjAnLCAnLXRuJywgJzgnLCAnLW1hJywgJzIwMCcsICctbWV0YWxfYmluZGluZycsICctaW1hZScsICc8aW5maWxlLm1hZT4nLCAnLW9tYWUnLCAnPG91dGZpbGUubWFlPic=

> <r_epik_Ionization_Penalty>
5.68623

> <r_epik_Ionization_Penalty_Charging>
5.66033

> <r_epik_Ionization_Penalty_Neutral>
0.0259005

> <r_epik_State_Penalty>
5.67764

> <r_epik_Charging_Adjusted_Penalty>
11.338

> <i_epik_Tot_Q>
-1

> <i_epik_Tot_abs_Q>
1

> <r_epik_Metal_State_Penalty>
1.68319

> <b_epik_Metal_Only>
1

> <s_lp_Force_Field>
OPLS_2005

> <r_lp_Energy>
10.049

> <b_lp_Chiralities_Consistent>
1

> <s_lp_Variant>
AV-unprocessed.smi:1120-6

> <Gold.Version>
5.8.1

> <Gold.Id.Protein>
6NUR|6NUR_protein|mol2

> <Gold.PLP.Fitness>
48.4299

> <Gold.PLP.PLP>
-44.0440

> <Gold.PLP.part.hbond>
-2.0000

> <Gold.PLP.part.metal>
0.0000

> <Gold.PLP.part.buried>
-7.9101

> <Gold.PLP.part.nonpolar>
-35.4938

> <Gold.PLP.part.repulsive>
0.6223

> <Gold.PLP.ligand.clash>
0.0000

> <Gold.PLP.ligand.torsion>
1.3910

> <Gold.PLP.Chemscore.Hbond>
2.0000

> <Gold.PLP.Chemscore.CHOScore>
0.0000

> <Gold.PLP.Chemscore.Metal>
0.0000

> <Gold.Chemscore.Hbonds>
donor molecule, donor type, donor heavy atom, donor atom, acceptor molecule, acceptor atom, score
      P1  H  7997  8009       L1    12  1.00
      P1  H 10752 10763       L1     9  1.00

> <Gold.PLP.Chemscore.Internal.Correction>
1.1678

> <Gold.Rescore>
     Score         DG    S(hbond)    S(metal)    S(lipo)     H(rot)  DE(clash)    DE(int)     intcor
     17.96     -19.25       1.88        0.00     104.74       1.86       0.05       1.24       ----

> <Gold.Chemscore.Fitness>
17.9600

> <Gold.Chemscore.DG>
-19.2454

> <Gold.Chemscore.ZeroCoef>
-5.4800

> <Gold.Chemscore.Hbond>
1.8783

> <Gold.Chemscore.Metal>
0.0000

> <Gold.Chemscore.Lipo>
104.7360

> <Gold.Chemscore.Internal_Hbond>
0.0000

> <Gold.Chemscore.DEClash>
0.0474

> <Gold.Chemscore.DEInternal>
1.2380

> <Gold.Chemscore.Rot>
1.8602

> <Gold.Chemscore.Internal.Correction>
   9.000000E+99

> <Gold.Chemscore.Hbonds>
donor molecule, donor type, donor heavy atom, donor atom, acceptor molecule, acceptor atom, score
      P1  H  7997  8009       L1    12  0.98
      P1  H 10752 10763       L1     9  0.78

> <Gold.Chemscore.Hbond.Weighted>
-6.2735

> <Gold.Chemscore.Metal.Weighted>
-0.0000

> <Gold.Chemscore.Lipo.Weighted>
-12.2541

> <Gold.Chemscore.Internal_Hbond.Weighted>
0.0000

> <Gold.Chemscore.DEClash.Weighted>
0.0474

> <Gold.Chemscore.DEInternal.Weighted>
1.2380

> <Gold.Chemscore.Rot.Weighted>
4.7622

> <Gold.Chemscore.Internal.Correction.Weighted>
   9.000000E+99

> <Gold.Protein.RotatedTorsions>
[ 6907 6896 6895 6894 ] final  163.08 input  -60.11 | X-H torsion
[ 7974 7965 7964 7962 ] final -163.72 input  175.53 | X-H torsion
[ 8008 7997 7996 7995 ] final -132.60 input   59.86 | X-H torsion
[ 10167 10162 10161 10158 ] final -175.66 input  -65.29 | X-H torsion
[ 10718 10713 10712 10709 ] final  133.22 input   66.30 | X-H torsion
[ 10763 10752 10751 10750 ] final   80.59 input  -60.55 | X-H torsion
[ 11005 11000 10999 10996 ] final   81.14 input  -57.11 | X-H torsion

> <Gold.Protein.ActiveResidues>
 VAL166  LYS551  ARG553  GLY616  TRP617  ASP618  TYR619  PRO620  LYS621  CYS622 
 ASP623  PHE694  ASN695  SER759  ASP760  ASP761  ALA762  ILE779  LEU786  VAL792 
 PHE793  MET794  SER795  GLU796  ALA797  LYS798  CYS799  TRP800  GLU811  SER814 

> <Gold.Protein.RotatedAtoms>
  151.9306  133.3610  159.3929 H   0  0  0  0  0  0  0  0  0  0  0  0  # atno 6907 bound_to 6896
  150.7018  134.4541  159.5359 H   0  0  0  0  0  0  0  0  0  0  0  0  # atno 6908 bound_to 6896
  152.2181  134.8439  160.0540 H   0  0  0  0  0  0  0  0  0  0  0  0  # atno 6909 bound_to 6896
  144.7317  140.3065  143.6195 H   0  0  0  0  0  0  0  0  0  0  0  0  # atno 7974 bound_to 7965
  155.3315  140.0467  157.3042 H   0  0  0  0  0  0  0  0  0  0  0  0  # atno 8008 bound_to 7997
  154.5325  140.2262  155.8744 H   0  0  0  0  0  0  0  0  0  0  0  0  # atno 8009 bound_to 7997
  156.1803  140.3075  155.9142 H   0  0  0  0  0  0  0  0  0  0  0  0  # atno 8010 bound_to 7997
  139.5569  144.1966  152.1175 H   0  0  0  0  0  0  0  0  0  0  0  0  # atno 10167 bound_to 10162
  157.4795  131.1085  150.9700 H   0  0  0  0  0  0  0  0  0  0  0  0  # atno 10718 bound_to 10713
  153.1046  135.4797  154.8928 H   0  0  0  0  0  0  0  0  0  0  0  0  # atno 10763 bound_to 10752
  154.7416  135.3083  154.8721 H   0  0  0  0  0  0  0  0  0  0  0  0  # atno 10764 bound_to 10752
  153.9327  135.6843  153.4798 H   0  0  0  0  0  0  0  0  0  0  0  0  # atno 10765 bound_to 10752
  139.9109  134.7974  156.2002 H   0  0  0  0  0  0  0  0  0  0  0  0  # atno 11005 bound_to 11000
  145.7707  139.1856  143.2214 LP  0  0  0  0  0  0  0  0  0  0  0  0  # atno 17320 bound_to 7965
  146.0913  140.7653  142.9594 LP  0  0  0  0  0  0  0  0  0  0  0  0  # atno 17321 bound_to 7965
  140.1472  144.5148  150.6709 LP  0  0  0  0  0  0  0  0  0  0  0  0  # atno 17342 bound_to 10162
  140.6844  143.2342  151.5300 LP  0  0  0  0  0  0  0  0  0  0  0  0  # atno 17343 bound_to 10162
  157.0438  130.5760  149.5360 LP  0  0  0  0  0  0  0  0  0  0  0  0  # atno 17370 bound_to 10713
  156.0114  130.5205  150.7999 LP  0  0  0  0  0  0  0  0  0  0  0  0  # atno 17371 bound_to 10713
  141.0529  133.6879  156.1806 LP  0  0  0  0  0  0  0  0  0  0  0  0  # atno 17394 bound_to 11000
  140.6782  134.4796  157.5588 LP  0  0  0  0  0  0  0  0  0  0  0  0  # atno 17395 bound_to 11000

$$$$
