AV-unprocessed.smi:2153|AV-procd|sdf|8768|dock1
  -GOLD-   2272011543D 1   1.00000     0.00000
 Structure written by MMmdl.
 48 49  0  0  0  0  0  0  0  0  1 V2000
  154.3109  143.1426  160.6026 C   0  0  0  0  0  0  0  0  0  0  0  0
  153.0296  143.8750  160.1750 C   0  0  2  0  0  0  0  0  0  0  0  0
  151.7889  143.3404  160.9209 C   0  0  0  0  0  0  0  0  0  0  0  0
  150.5159  144.1008  160.5182 C   0  0  0  0  0  0  0  0  0  0  0  0
  150.3097  144.0745  158.9971 C   0  0  0  0  0  0  0  0  0  0  0  0
  151.5437  144.6117  158.2559 C   0  0  0  0  0  0  0  0  0  0  0  0
  152.8195  143.8330  158.6442 C   0  0  2  0  0  0  0  0  0  0  0  0
  152.7191  142.4679  158.2578 O   0  0  0  0  0  0  0  0  0  0  0  0
  152.9557  142.1942  156.8853 C   0  0  0  0  0  0  0  0  0  0  0  0
  154.2783  141.4222  156.7539 C   0  0  0  0  0  0  0  0  0  0  0  0
  154.0912  140.1430  156.0751 N   0  0  0  0  0  0  0  0  0  0  0  0
  155.0788  139.3065  155.7194 C   0  0  0  0  0  0  0  0  0  0  0  0
  156.2714  139.5628  155.8838 O   0  0  0  0  0  0  0  0  0  0  0  0
  154.6586  137.9874  155.0598 C   0  0  0  0  0  0  0  0  0  0  0  0
  155.6782  136.9439  155.2292 N   0  0  0  0  0  0  0  0  0  0  0  0
  156.5097  136.6360  154.1674 C   0  0  0  0  0  0  0  0  0  0  0  0
  157.4583  135.6756  154.2158 C   0  0  0  0  0  0  0  0  0  0  0  0
  157.6560  134.8811  155.4212 C   0  0  0  0  0  0  0  0  0  0  0  0
  158.5120  134.0006  155.5155 O   0  0  0  0  0  0  0  0  0  0  0  0
  156.7876  135.2071  156.4889 N   0  0  0  0  0  0  0  0  0  0  0  0
  156.9329  134.4584  157.7202 C   0  0  0  0  0  0  0  0  0  0  0  0
  155.8188  136.2359  156.4437 C   0  0  0  0  0  0  0  0  0  0  0  0
  155.1180  136.5182  157.4181 O   0  0  0  0  0  0  0  0  0  0  0  0
  154.2566  142.0772  160.3765 H   0  0  0  0  0  0  0  0  0  0  0  0
  154.4803  143.2444  161.6747 H   0  0  0  0  0  0  0  0  0  0  0  0
  155.1840  143.5483  160.0911 H   0  0  0  0  0  0  0  0  0  0  0  0
  153.1547  144.9211  160.4581 H   0  0  0  0  0  0  0  0  0  0  0  0
  151.6577  142.2776  160.7129 H   0  0  0  0  0  0  0  0  0  0  0  0
  151.9362  143.4247  161.9980 H   0  0  0  0  0  0  0  0  0  0  0  0
  149.6504  143.6668  161.0190 H   0  0  0  0  0  0  0  0  0  0  0  0
  150.5844  145.1343  160.8592 H   0  0  0  0  0  0  0  0  0  0  0  0
  150.1139  143.0520  158.6758 H   0  0  0  0  0  0  0  0  0  0  0  0
  149.4286  144.6586  158.7307 H   0  0  0  0  0  0  0  0  0  0  0  0
  151.3746  144.5807  157.1802 H   0  0  0  0  0  0  0  0  0  0  0  0
  151.6784  145.6653  158.5035 H   0  0  0  0  0  0  0  0  0  0  0  0
  153.6861  144.2851  158.1583 H   0  0  0  0  0  0  0  0  0  0  0  0
  152.1434  141.6167  156.4446 H   0  0  0  0  0  0  0  0  0  0  0  0
  153.0225  143.1347  156.3369 H   0  0  0  0  0  0  0  0  0  0  0  0
  154.9814  142.0086  156.1626 H   0  0  0  0  0  0  0  0  0  0  0  0
  154.7408  141.2799  157.7321 H   0  0  0  0  0  0  0  0  0  0  0  0
  153.1400  139.8605  155.8891 H   0  0  0  0  0  0  0  0  0  0  0  0
  153.7065  137.6503  155.4734 H   0  0  0  0  0  0  0  0  0  0  0  0
  154.4674  138.1666  154.0004 H   0  0  0  0  0  0  0  0  0  0  0  0
  156.3945  137.1891  153.2465 H   0  0  0  0  0  0  0  0  0  0  0  0
  158.0739  135.4871  153.3486 H   0  0  0  0  0  0  0  0  0  0  0  0
  155.9888  134.4510  158.2661 H   0  0  0  0  0  0  0  0  0  0  0  0
  157.7220  134.9444  158.2954 H   0  0  0  0  0  0  0  0  0  0  0  0
  157.1888  133.4247  157.4822 H   0  0  0  0  0  0  0  0  0  0  0  0
  1  2  1  0  0  0  0
  1 24  1  0  0  0  0
  1 25  1  0  0  0  0
  1 26  1  0  0  0  0
  2  7  1  0  0  0  0
  2  3  1  0  0  0  0
  2 27  1  0  0  0  0
  3  4  1  0  0  0  0
  3 28  1  0  0  0  0
  3 29  1  0  0  0  0
  4  5  1  0  0  0  0
  4 30  1  0  0  0  0
  4 31  1  0  0  0  0
  5  6  1  0  0  0  0
  5 32  1  0  0  0  0
  5 33  1  0  0  0  0
  6  7  1  0  0  0  0
  6 34  1  0  0  0  0
  6 35  1  0  0  0  0
  7  8  1  0  0  0  0
  7 36  1  0  0  0  0
  8  9  1  0  0  0  0
  9 10  1  0  0  0  0
  9 37  1  0  0  0  0
  9 38  1  0  0  0  0
 10 11  1  0  0  0  0
 10 39  1  0  0  0  0
 10 40  1  0  0  0  0
 11 12  1  0  0  0  0
 11 41  1  0  0  0  0
 12 13  2  0  0  0  0
 12 14  1  0  0  0  0
 14 15  1  0  0  0  0
 14 42  1  0  0  0  0
 14 43  1  0  0  0  0
 15 22  1  0  0  0  0
 15 16  1  0  0  0  0
 16 17  2  0  0  0  0
 16 44  1  0  0  0  0
 17 18  1  0  0  0  0
 17 45  1  0  0  0  0
 18 19  2  0  0  0  0
 18 20  1  0  0  0  0
 20 21  1  0  0  0  0
 20 22  1  0  0  0  0
 21 46  1  0  0  0  0
 21 47  1  0  0  0  0
 21 48  1  0  0  0  0
 22 23  2  0  0  0  0
M  END
> <s_m_source_file>
AV-unprocessed.smi

> <i_m_source_file_index>
2153

> <i_lp_mmshare_version>
43012

> <i_f3d_flags>
0

> <s_epik_input>
W0NIM11bQ0BASF0xW0NIMl1bQ0gyXVtDSDJdW0NIMl1bQ0BIXTFPW0NIMl1bQ0gyXVtOSF1DKD1PKVtDSDJdbjJbY0hdW2NIXWMoPU8pbihbQ0gzXSljMj1P

> <s_epik_cmdline>
J2VwaWtfcHl0aG9uJywgJy1waCcsICc3LjAnLCAnLXRuJywgJzgnLCAnLW1hJywgJzIwMCcsICctbWV0YWxfYmluZGluZycsICctaW1hZScsICc8aW5maWxlLm1hZT4nLCAnLW9tYWUnLCAnPG91dGZpbGUubWFlPic=

> <r_lp_tautomer_probability>
1

> <r_epik_Ionization_Penalty>
4.02205e-08

> <r_epik_Ionization_Penalty_Charging>
1.23606e-08

> <r_epik_Ionization_Penalty_Neutral>
2.78599e-08

> <r_epik_State_Penalty>
-0

> <r_epik_Charging_Adjusted_Penalty>
1.23606e-08

> <i_epik_Tot_Q>
0

> <i_epik_Tot_abs_Q>
0

> <r_epik_Metal_State_Penalty>
-0

> <b_epik_Metal_Only>
0

> <s_lp_Force_Field>
OPLS_2005

> <r_lp_Energy>
17.534

> <b_lp_Chiralities_Consistent>
1

> <s_lp_Variant>
AV-unprocessed.smi:2153-3

> <Gold.Version>
5.8.1

> <Gold.Id.Protein>
6NUR|6NUR_protein|mol2

> <Gold.PLP.Fitness>
58.7792

> <Gold.PLP.PLP>
-53.1960

> <Gold.PLP.part.hbond>
-3.0000

> <Gold.PLP.part.metal>
0.0000

> <Gold.PLP.part.buried>
-7.4504

> <Gold.PLP.part.nonpolar>
-42.2401

> <Gold.PLP.part.repulsive>
0.1966

> <Gold.PLP.ligand.clash>
0.0000

> <Gold.PLP.ligand.torsion>
1.5083

> <Gold.PLP.Chemscore.Hbond>
2.8400

> <Gold.PLP.Chemscore.CHOScore>
0.0000

> <Gold.PLP.Chemscore.Metal>
0.0000

> <Gold.PLP.Chemscore.Internal.Correction>
0.0798

> <Gold.Rescore>
     Score         DG    S(hbond)    S(metal)    S(lipo)     H(rot)  DE(clash)    DE(int)     intcor
     20.82     -22.14       2.77        0.00     111.49       2.20       0.01       1.31       ----

> <Gold.Chemscore.Fitness>
20.8203

> <Gold.Chemscore.DG>
-22.1440

> <Gold.Chemscore.ZeroCoef>
-5.4800

> <Gold.Chemscore.Hbond>
2.7677

> <Gold.Chemscore.Metal>
0.0000

> <Gold.Chemscore.Lipo>
111.4851

> <Gold.Chemscore.Internal_Hbond>
0.0000

> <Gold.Chemscore.DEClash>
0.0098

> <Gold.Chemscore.DEInternal>
1.3139

> <Gold.Chemscore.Rot>
2.1968

> <Gold.Chemscore.Internal.Correction>
   9.000000E+99

> <Gold.Chemscore.Hbond.Weighted>
-9.2440

> <Gold.Chemscore.Metal.Weighted>
-0.0000

> <Gold.Chemscore.Lipo.Weighted>
-13.0438

> <Gold.Chemscore.Internal_Hbond.Weighted>
0.0000

> <Gold.Chemscore.DEClash.Weighted>
0.0098

> <Gold.Chemscore.DEInternal.Weighted>
1.3139

> <Gold.Chemscore.Rot.Weighted>
5.6238

> <Gold.Chemscore.Internal.Correction.Weighted>
   9.000000E+99

> <Gold.Protein.RotatedTorsions>
[ 6907 6896 6895 6894 ] final   83.78 input  -60.11 | X-H torsion
[ 7974 7965 7964 7962 ] final  160.48 input  175.53 | X-H torsion
[ 8008 7997 7996 7995 ] final  156.59 input   59.86 | X-H torsion
[ 10167 10162 10161 10158 ] final  179.12 input  -65.29 | X-H torsion
[ 10718 10713 10712 10709 ] final -115.27 input   66.30 | X-H torsion
[ 10763 10752 10751 10750 ] final  141.69 input  -60.55 | X-H torsion
[ 11005 11000 10999 10996 ] final  -21.10 input  -57.11 | X-H torsion

> <Gold.Protein.ActiveResidues>
 VAL166  LYS551  ARG553  GLY616  TRP617  ASP618  TYR619  PRO620  LYS621  CYS622 
 ASP623  PHE694  ASN695  SER759  ASP760  ASP761  ALA762  ILE779  LEU786  VAL792 
 PHE793  MET794  SER795  GLU796  ALA797  LYS798  CYS799  TRP800  GLU811  SER814 

> <Gold.Protein.RotatedAtoms>
  152.5336  134.2842  159.9018 H   0  0  0  0  0  0  0  0  0  0  0  0  # atno 6907 bound_to 6896
  151.2796  133.4209  159.2634 H   0  0  0  0  0  0  0  0  0  0  0  0  # atno 6908 bound_to 6896
  151.0295  134.9544  159.8160 H   0  0  0  0  0  0  0  0  0  0  0  0  # atno 6909 bound_to 6896
  144.7735  139.7763  143.6288 H   0  0  0  0  0  0  0  0  0  0  0  0  # atno 7974 bound_to 7965
  156.2414  140.1908  156.6978 H   0  0  0  0  0  0  0  0  0  0  0  0  # atno 8008 bound_to 7997
  154.6204  140.0609  156.9634 H   0  0  0  0  0  0  0  0  0  0  0  0  # atno 8009 bound_to 7997
  155.1871  140.3281  155.4367 H   0  0  0  0  0  0  0  0  0  0  0  0  # atno 8010 bound_to 7997
  139.5323  144.2599  152.0716 H   0  0  0  0  0  0  0  0  0  0  0  0  # atno 10167 bound_to 10162
  156.0884  130.6071  150.8883 H   0  0  0  0  0  0  0  0  0  0  0  0  # atno 10718 bound_to 10713
  153.9433  135.2977  155.3442 H   0  0  0  0  0  0  0  0  0  0  0  0  # atno 10763 bound_to 10752
  154.7465  135.5000  153.9216 H   0  0  0  0  0  0  0  0  0  0  0  0  # atno 10764 bound_to 10752
  153.1031  135.6739  153.9743 H   0  0  0  0  0  0  0  0  0  0  0  0  # atno 10765 bound_to 10752
  140.8529  133.7844  155.9986 H   0  0  0  0  0  0  0  0  0  0  0  0  # atno 11005 bound_to 11000
  146.1898  139.5132  142.9812 LP  0  0  0  0  0  0  0  0  0  0  0  0  # atno 17320 bound_to 7965
  145.6255  141.0314  143.1892 LP  0  0  0  0  0  0  0  0  0  0  0  0  # atno 17321 bound_to 7965
  140.2064  144.4606  150.6406 LP  0  0  0  0  0  0  0  0  0  0  0  0  # atno 17342 bound_to 10162
  140.6508  143.2224  151.6081 LP  0  0  0  0  0  0  0  0  0  0  0  0  # atno 17343 bound_to 10162
  157.6026  131.0940  150.8934 LP  0  0  0  0  0  0  0  0  0  0  0  0  # atno 17370 bound_to 10713
  156.9089  130.5273  149.5281 LP  0  0  0  0  0  0  0  0  0  0  0  0  # atno 17371 bound_to 10713
  140.8770  134.2657  157.5163 LP  0  0  0  0  0  0  0  0  0  0  0  0  # atno 17394 bound_to 11000
  139.8704  134.9596  156.4337 LP  0  0  0  0  0  0  0  0  0  0  0  0  # atno 17395 bound_to 11000

$$$$
