AV-unprocessed.smi:692|AV-procd|sdf|3369|dock1
  -GOLD-   22720 0343D 1   1.00000     0.00000
 Structure written by MMmdl.
 37 38  0  0  0  0  0  0  0  0  1 V2000
  145.3823  143.5582  154.1625 C   0  0  0  0  0  0  0  0  0  0  0  0
  145.4664  142.2201  154.9054 C   0  0  0  0  0  0  0  0  0  0  0  0
  146.5288  141.3231  154.3463 C   0  0  0  0  0  0  0  0  0  0  0  0
  147.8551  141.6296  154.1616 C   0  0  0  0  0  0  0  0  0  0  0  0
  148.7455  140.2966  153.4760 S   0  0  0  0  0  0  0  0  0  0  0  0
  147.2610  139.3580  153.4720 C   0  0  0  0  0  0  0  0  0  0  0  0
  147.2143  138.0245  152.9880 N   0  0  0  0  0  0  0  0  0  0  0  0
  146.1302  137.2582  152.7746 C   0  0  0  0  0  0  0  0  0  0  0  0
  144.9697  137.5807  153.0308 O   0  0  0  0  0  0  0  0  0  0  0  0
  146.4676  136.0727  152.2465 N   0  0  0  0  0  0  0  0  0  0  0  0
  145.5252  135.0172  151.8876 C   0  0  1  0  0  0  0  0  0  0  0  0
  144.9490  135.2801  150.4956 C   0  0  0  0  0  0  0  0  0  0  0  0
  143.9166  134.2041  150.1380 C   0  0  0  0  0  0  0  0  0  0  0  0
  144.4022  132.7711  150.4076 C   0  0  0  0  0  0  0  0  0  0  0  0
  143.8170  131.8450  149.8452 O   0  0  0  0  0  0  0  0  0  0  0  0
  145.4277  132.5679  151.2703 N   0  0  0  0  0  0  0  0  0  0  0  0
  145.8848  131.2096  151.5685 C   0  0  0  0  0  0  0  0  0  0  0  0
  146.2083  133.6366  151.9135 C   0  0  0  0  0  0  0  0  0  0  0  0
  146.2023  140.0235  153.9469 N   0  0  0  0  0  0  0  0  0  0  0  0
  144.6007  144.1889  154.5860 H   0  0  0  0  0  0  0  0  0  0  0  0
  145.1554  143.4081  153.1068 H   0  0  0  0  0  0  0  0  0  0  0  0
  146.3232  144.1056  154.2291 H   0  0  0  0  0  0  0  0  0  0  0  0
  145.6554  142.4070  155.9632 H   0  0  0  0  0  0  0  0  0  0  0  0
  144.4965  141.7243  154.8591 H   0  0  0  0  0  0  0  0  0  0  0  0
  148.3603  142.5575  154.3855 H   0  0  0  0  0  0  0  0  0  0  0  0
  148.1083  137.6125  152.7649 H   0  0  0  0  0  0  0  0  0  0  0  0
  147.4448  135.8894  152.0717 H   0  0  0  0  0  0  0  0  0  0  0  0
  144.6971  135.0186  152.5996 H   0  0  0  0  0  0  0  0  0  0  0  0
  144.4780  136.2635  150.4608 H   0  0  0  0  0  0  0  0  0  0  0  0
  145.7471  135.2898  149.7516 H   0  0  0  0  0  0  0  0  0  0  0  0
  143.0114  134.3604  150.7261 H   0  0  0  0  0  0  0  0  0  0  0  0
  143.6278  134.2995  149.0908 H   0  0  0  0  0  0  0  0  0  0  0  0
  145.1091  130.6550  152.0979 H   0  0  0  0  0  0  0  0  0  0  0  0
  146.7797  131.2041  152.1921 H   0  0  0  0  0  0  0  0  0  0  0  0
  146.1261  130.6699  150.6514 H   0  0  0  0  0  0  0  0  0  0  0  0
  147.1686  133.6917  151.3982 H   0  0  0  0  0  0  0  0  0  0  0  0
  146.4261  133.3635  152.9474 H   0  0  0  0  0  0  0  0  0  0  0  0
  1  2  1  0  0  0  0
  1 20  1  0  0  0  0
  1 21  1  0  0  0  0
  1 22  1  0  0  0  0
  2  3  1  0  0  0  0
  2 23  1  0  0  0  0
  2 24  1  0  0  0  0
  3 19  1  0  0  0  0
  3  4  2  0  0  0  0
  4  5  1  0  0  0  0
  4 25  1  0  0  0  0
  5  6  1  0  0  0  0
  6  7  1  0  0  0  0
  6 19  2  0  0  0  0
  7  8  1  0  0  0  0
  7 26  1  0  0  0  0
  8  9  2  0  0  0  0
  8 10  1  0  0  0  0
 10 11  1  0  0  0  0
 10 27  1  0  0  0  0
 11 18  1  0  0  0  0
 11 12  1  0  0  0  0
 11 28  1  0  0  0  0
 12 13  1  0  0  0  0
 12 29  1  0  0  0  0
 12 30  1  0  0  0  0
 13 14  1  0  0  0  0
 13 31  1  0  0  0  0
 13 32  1  0  0  0  0
 14 15  2  0  0  0  0
 14 16  1  0  0  0  0
 16 17  1  0  0  0  0
 16 18  1  0  0  0  0
 17 33  1  0  0  0  0
 17 34  1  0  0  0  0
 17 35  1  0  0  0  0
 18 36  1  0  0  0  0
 18 37  1  0  0  0  0
M  END
> <s_m_source_file>
AV-unprocessed.smi

> <i_m_source_file_index>
692

> <i_lp_mmshare_version>
43012

> <i_f3d_flags>
0

> <s_epik_input>
W0NIM11bQ0gyXWMxW2NIXXNjKG4xKVtOSF1DKD1PKVtOSF1bQ0BASF0yW0NIMl1bQ0gyXUMoPU8pTihbQ0gzXSlbQ0gyXTI=

> <s_epik_cmdline>
J2VwaWtfcHl0aG9uJywgJy1waCcsICc3LjAnLCAnLXRuJywgJzgnLCAnLW1hJywgJzIwMCcsICctbWV0YWxfYmluZGluZycsICctaW1hZScsICc8aW5maWxlLm1hZT4nLCAnLW9tYWUnLCAnPG91dGZpbGUubWFlPic=

> <r_lp_tautomer_probability>
1

> <r_epik_Ionization_Penalty>
0.000165573

> <r_epik_Ionization_Penalty_Charging>
0

> <r_epik_Ionization_Penalty_Neutral>
0.000165573

> <r_epik_State_Penalty>
-0

> <r_epik_Charging_Adjusted_Penalty>
0

> <i_epik_Tot_Q>
0

> <i_epik_Tot_abs_Q>
0

> <r_epik_Metal_State_Penalty>
0.031163

> <b_epik_Metal_Only>
0

> <s_lp_Force_Field>
OPLS_2005

> <r_lp_Energy>
8.08007

> <b_lp_Chiralities_Consistent>
1

> <s_lp_Variant>
AV-unprocessed.smi:692-2

> <Gold.Version>
5.8.1

> <Gold.Id.Protein>
6NUR|6NUR_protein|mol2

> <Gold.PLP.Fitness>
40.1853

> <Gold.PLP.PLP>
-30.2115

> <Gold.PLP.part.hbond>
-2.9173

> <Gold.PLP.part.metal>
0.0000

> <Gold.PLP.part.buried>
0.2070

> <Gold.PLP.part.nonpolar>
-30.2073

> <Gold.PLP.part.repulsive>
1.5630

> <Gold.PLP.ligand.clash>
0.0000

> <Gold.PLP.ligand.torsion>
0.3952

> <Gold.PLP.Chemscore.Hbond>
2.5859

> <Gold.PLP.Chemscore.CHOScore>
1.0000

> <Gold.PLP.Chemscore.Metal>
0.0000

> <Gold.Chemscore.Hbonds>
donor molecule, donor type, donor heavy atom, donor atom, acceptor molecule, acceptor atom, score
      L1  H     7    26       P1  7948  0.90
      L1  H    10    27       P1  7948  1.00
      P1  H 10785 10796       L1    15  0.67
      L1  C     4    25       P1  8028  0.98

> <Gold.PLP.Chemscore.Internal.Correction>
0.0064

> <Gold.Rescore>
     Score         DG    S(hbond)    S(metal)    S(lipo)     H(rot)  DE(clash)    DE(int)     intcor
     14.17     -19.01       2.90        0.00      59.98       1.24       3.16       1.68       ----

> <Gold.Chemscore.Fitness>
14.1669

> <Gold.Chemscore.DG>
-19.0054

> <Gold.Chemscore.ZeroCoef>
-5.4800

> <Gold.Chemscore.Hbond>
2.8978

> <Gold.Chemscore.Metal>
0.0000

> <Gold.Chemscore.Lipo>
59.9794

> <Gold.Chemscore.Internal_Hbond>
0.0000

> <Gold.Chemscore.DEClash>
3.1617

> <Gold.Chemscore.DEInternal>
1.6767

> <Gold.Chemscore.Rot>
1.2386

> <Gold.Chemscore.Internal.Correction>
   9.000000E+99

> <Gold.Chemscore.Hbonds>
donor molecule, donor type, donor heavy atom, donor atom, acceptor molecule, acceptor atom, score
      L1  H     7    26       P1  7948  0.88
      L1  H    10    27       P1  7948  0.93
      P1  H 10785 10796       L1    15  0.65

> <Gold.Chemscore.Hbond.Weighted>
-9.6786

> <Gold.Chemscore.Metal.Weighted>
-0.0000

> <Gold.Chemscore.Lipo.Weighted>
-7.0176

> <Gold.Chemscore.Internal_Hbond.Weighted>
0.0000

> <Gold.Chemscore.DEClash.Weighted>
3.1617

> <Gold.Chemscore.DEInternal.Weighted>
1.6767

> <Gold.Chemscore.Rot.Weighted>
3.1708

> <Gold.Chemscore.Internal.Correction.Weighted>
   9.000000E+99

> <Gold.Protein.RotatedTorsions>
[ 6907 6896 6895 6894 ] final   89.14 input  -60.11 | X-H torsion
[ 7974 7965 7964 7962 ] final  176.64 input  175.53 | X-H torsion
[ 8008 7997 7996 7995 ] final  161.08 input   59.86 | X-H torsion
[ 10167 10162 10161 10158 ] final  169.25 input  -65.29 | X-H torsion
[ 10718 10713 10712 10709 ] final   33.84 input   66.30 | X-H torsion
[ 10763 10752 10751 10750 ] final   87.01 input  -60.55 | X-H torsion
[ 11005 11000 10999 10996 ] final -173.43 input  -57.11 | X-H torsion

> <Gold.Protein.ActiveResidues>
 VAL166  LYS551  ARG553  GLY616  TRP617  ASP618  TYR619  PRO620  LYS621  CYS622 
 ASP623  PHE694  ASN695  SER759  ASP760  ASP761  ALA762  ILE779  LEU786  VAL792 
 PHE793  MET794  SER795  GLU796  ALA797  LYS798  CYS799  TRP800  GLU811  SER814 

> <Gold.Protein.RotatedAtoms>
  152.5433  134.2013  159.8712 H   0  0  0  0  0  0  0  0  0  0  0  0  # atno 6907 bound_to 6896
  151.2002  133.4608  159.2603 H   0  0  0  0  0  0  0  0  0  0  0  0  # atno 6908 bound_to 6896
  151.0997  134.9977  159.8498 H   0  0  0  0  0  0  0  0  0  0  0  0  # atno 6909 bound_to 6896
  144.7181  140.0126  143.6440 H   0  0  0  0  0  0  0  0  0  0  0  0  # atno 7974 bound_to 7965
  156.2128  140.1787  156.7656 H   0  0  0  0  0  0  0  0  0  0  0  0  # atno 8008 bound_to 7997
  154.5747  140.0676  156.9047 H   0  0  0  0  0  0  0  0  0  0  0  0  # atno 8009 bound_to 7997
  155.2609  140.3335  155.4276 H   0  0  0  0  0  0  0  0  0  0  0  0  # atno 8010 bound_to 7997
  139.4987  144.3727  151.9707 H   0  0  0  0  0  0  0  0  0  0  0  0  # atno 10167 bound_to 10162
  157.3029  130.7360  149.6678 H   0  0  0  0  0  0  0  0  0  0  0  0  # atno 10718 bound_to 10713
  153.1627  135.4559  154.9794 H   0  0  0  0  0  0  0  0  0  0  0  0  # atno 10763 bound_to 10752
  154.7909  135.3220  154.7782 H   0  0  0  0  0  0  0  0  0  0  0  0  # atno 10764 bound_to 10752
  153.8269  135.6942  153.4874 H   0  0  0  0  0  0  0  0  0  0  0  0  # atno 10765 bound_to 10752
  140.4858  134.6032  157.4936 H   0  0  0  0  0  0  0  0  0  0  0  0  # atno 11005 bound_to 11000
  146.0246  139.3280  143.0792 LP  0  0  0  0  0  0  0  0  0  0  0  0  # atno 17320 bound_to 7965
  145.8527  140.9520  143.0741 LP  0  0  0  0  0  0  0  0  0  0  0  0  # atno 17321 bound_to 7965
  140.3163  144.3480  150.6021 LP  0  0  0  0  0  0  0  0  0  0  0  0  # atno 17342 bound_to 10162
  140.5759  143.2176  151.7517 LP  0  0  0  0  0  0  0  0  0  0  0  0  # atno 17343 bound_to 10162
  155.9672  130.4274  150.4744 LP  0  0  0  0  0  0  0  0  0  0  0  0  # atno 17370 bound_to 10713
  157.2728  131.0590  151.2249 LP  0  0  0  0  0  0  0  0  0  0  0  0  # atno 17371 bound_to 10713
  139.9799  134.7155  155.9880 LP  0  0  0  0  0  0  0  0  0  0  0  0  # atno 17394 bound_to 11000
  141.1508  133.6549  156.4009 LP  0  0  0  0  0  0  0  0  0  0  0  0  # atno 17395 bound_to 11000

$$$$
