AV-unprocessed.smi:1620|AV-procd|sdf|6491|dock9
  -GOLD-   22720 7153D 1   1.00000     0.00000
 Structure written by MMmdl.
 40 40  0  0  0  0  0  0  0  0  1 V2000
  153.2261  144.3385  158.4767 C   0  0  0  0  0  0  0  0  0  0  0  0
  152.0541  144.1376  159.4544 C   0  0  0  0  0  0  0  0  0  0  0  0
  151.8529  145.4209  160.2825 C   0  0  0  0  0  0  0  0  0  0  0  0
  152.2370  142.8710  160.3403 C   0  0  2  0  0  0  0  0  0  0  0  0
  152.8251  143.1523  161.7399 C   0  0  0  0  0  0  0  0  0  0  0  0
  153.0183  141.8119  159.6502 N   0  0  0  0  0  0  0  0  0  0  0  0
  154.2920  141.4441  160.2836 C   0  0  0  0  0  0  0  0  0  0  0  0
  152.5998  141.0908  158.5758 C   0  0  0  0  0  0  0  0  0  0  0  0
  153.1579  140.0517  158.2190 O   0  0  0  0  0  0  0  0  0  0  0  0
  151.5884  141.6516  157.8847 N   0  0  0  0  0  0  0  0  0  0  0  0
  150.9414  141.1507  156.7269 C   0  0  0  0  0  0  0  0  0  0  0  0
  151.4472  140.1097  155.9059 C   0  0  0  0  0  0  0  0  0  0  0  0
  150.6297  139.8557  154.8955 N   0  0  0  0  0  0  0  0  0  0  0  0
  149.5987  140.7244  155.0502 N   0  0  0  0  0  0  0  0  0  0  0  0
  148.5051  140.7215  154.0953 C   0  0  0  0  0  0  0  0  0  0  0  0
  147.8344  139.3485  154.0284 C   0  0  0  0  0  0  0  0  0  0  0  0
  148.0846  138.6001  152.9508 N   0  0  0  0  0  0  0  0  0  0  0  0
  147.1005  138.9688  154.9384 O   0  0  0  0  0  0  0  0  0  0  0  0
  149.7588  141.5320  156.1592 C   0  0  0  0  0  0  0  0  0  0  0  0
  154.1745  144.4296  159.0070 H   0  0  0  0  0  0  0  0  0  0  0  0
  153.0911  145.2438  157.8840 H   0  0  0  0  0  0  0  0  0  0  0  0
  153.3124  143.5119  157.7720 H   0  0  0  0  0  0  0  0  0  0  0  0
  151.1576  144.0068  158.8480 H   0  0  0  0  0  0  0  0  0  0  0  0
  152.7039  145.6065  160.9384 H   0  0  0  0  0  0  0  0  0  0  0  0
  150.9575  145.3688  160.9017 H   0  0  0  0  0  0  0  0  0  0  0  0
  151.7390  146.2908  159.6353 H   0  0  0  0  0  0  0  0  0  0  0  0
  151.2314  142.5106  160.5566 H   0  0  0  0  0  0  0  0  0  0  0  0
  152.1366  143.7345  162.3516 H   0  0  0  0  0  0  0  0  0  0  0  0
  153.7628  143.7055  161.6895 H   0  0  0  0  0  0  0  0  0  0  0  0
  153.0145  142.2230  162.2780 H   0  0  0  0  0  0  0  0  0  0  0  0
  155.0750  141.2912  159.5390 H   0  0  0  0  0  0  0  0  0  0  0  0
  154.1797  140.5204  160.8527 H   0  0  0  0  0  0  0  0  0  0  0  0
  154.6592  142.2114  160.9640 H   0  0  0  0  0  0  0  0  0  0  0  0
  151.2409  142.5324  158.2352 H   0  0  0  0  0  0  0  0  0  0  0  0
  152.3598  139.5411  156.0073 H   0  0  0  0  0  0  0  0  0  0  0  0
  147.7771  141.4874  154.3683 H   0  0  0  0  0  0  0  0  0  0  0  0
  148.8980  140.9896  153.1136 H   0  0  0  0  0  0  0  0  0  0  0  0
  147.6703  137.6829  152.8680 H   0  0  0  0  0  0  0  0  0  0  0  0
  148.6945  138.9509  152.2267 H   0  0  0  0  0  0  0  0  0  0  0  0
  149.0316  142.2837  156.4287 H   0  0  0  0  0  0  0  0  0  0  0  0
  1  2  1  0  0  0  0
  1 20  1  0  0  0  0
  1 21  1  0  0  0  0
  1 22  1  0  0  0  0
  2  3  1  0  0  0  0
  2  4  1  0  0  0  0
  2 23  1  0  0  0  0
  3 24  1  0  0  0  0
  3 25  1  0  0  0  0
  3 26  1  0  0  0  0
  4  5  1  0  0  0  0
  4  6  1  0  0  0  0
  4 27  1  0  0  0  0
  5 28  1  0  0  0  0
  5 29  1  0  0  0  0
  5 30  1  0  0  0  0
  6  7  1  0  0  0  0
  6  8  1  0  0  0  0
  7 31  1  0  0  0  0
  7 32  1  0  0  0  0
  7 33  1  0  0  0  0
  8  9  2  0  0  0  0
  8 10  1  0  0  0  0
 10 11  1  0  0  0  0
 10 34  1  0  0  0  0
 11 19  2  0  0  0  0
 11 12  1  0  0  0  0
 12 13  2  0  0  0  0
 12 35  1  0  0  0  0
 13 14  1  0  0  0  0
 14 15  1  0  0  0  0
 14 19  1  0  0  0  0
 15 16  1  0  0  0  0
 15 36  1  0  0  0  0
 15 37  1  0  0  0  0
 16 17  1  0  0  0  0
 16 18  2  0  0  0  0
 17 38  1  0  0  0  0
 17 39  1  0  0  0  0
 19 40  1  0  0  0  0
M  END
> <s_m_source_file>
AV-unprocessed.smi

> <i_m_source_file_index>
1620

> <i_lp_mmshare_version>
43012

> <i_f3d_flags>
0

> <s_epik_input>
W0NIM11bQ0hdKFtDSDNdKVtDQEhdKFtDSDNdKU4oW0NIM10pQyg9TylbTkhdYzFbY0hdbm4oW2NIXTEpW0NIMl1DKD1PKVtOSDJd

> <s_epik_cmdline>
J2VwaWtfcHl0aG9uJywgJy1waCcsICc3LjAnLCAnLXRuJywgJzgnLCAnLW1hJywgJzIwMCcsICctbWV0YWxfYmluZGluZycsICctaW1hZScsICc8aW5maWxlLm1hZT4nLCAnLW9tYWUnLCAnPG91dGZpbGUubWFlPic=

> <r_lp_tautomer_probability>
1

> <r_epik_Ionization_Penalty>
4.85642e-05

> <r_epik_Ionization_Penalty_Charging>
0

> <r_epik_Ionization_Penalty_Neutral>
4.85642e-05

> <r_epik_State_Penalty>
-0

> <r_epik_Charging_Adjusted_Penalty>
0

> <i_epik_Tot_Q>
0

> <i_epik_Tot_abs_Q>
0

> <r_epik_Metal_State_Penalty>
-0

> <b_epik_Metal_Only>
0

> <s_lp_Force_Field>
OPLS_2005

> <r_lp_Energy>
32.3257

> <b_lp_Chiralities_Consistent>
1

> <s_lp_Variant>
AV-unprocessed.smi:1620-1

> <Gold.Version>
5.8.1

> <Gold.Id.Protein>
6NUR|6NUR_protein|mol2

> <Gold.PLP.Fitness>
53.0436

> <Gold.PLP.PLP>
-45.9337

> <Gold.PLP.part.hbond>
-3.9658

> <Gold.PLP.part.metal>
0.0000

> <Gold.PLP.part.buried>
-4.0427

> <Gold.PLP.part.nonpolar>
-38.0243

> <Gold.PLP.part.repulsive>
0.2812

> <Gold.PLP.ligand.clash>
3.2298

> <Gold.PLP.ligand.torsion>
1.3533

> <Gold.PLP.Chemscore.Hbond>
3.3163

> <Gold.PLP.Chemscore.CHOScore>
0.9528

> <Gold.PLP.Chemscore.Metal>
0.0000

> <Gold.Chemscore.Hbonds>
donor molecule, donor type, donor heavy atom, donor atom, acceptor molecule, acceptor atom, score
      L1  H    17    38       P1  7948  0.17
      L1  H    17    39       P1  7957  1.00
      P1  H  7989  7998       L1    13  0.76
      P1  H  7997  8008       L1     9  1.00
      L1  C    19    40       P1  8028  0.92

> <Gold.PLP.Chemscore.Internal.Correction>
0.2392

> <Gold.Rescore>
     Score         DG    S(hbond)    S(metal)    S(lipo)     H(rot)  DE(clash)    DE(int)     intcor
     17.61     -21.17       2.96        0.00      95.68       2.10       0.01       3.55       ----

> <Gold.Chemscore.Fitness>
17.6083

> <Gold.Chemscore.DG>
-21.1728

> <Gold.Chemscore.ZeroCoef>
-5.4800

> <Gold.Chemscore.Hbond>
2.9593

> <Gold.Chemscore.Metal>
0.0000

> <Gold.Chemscore.Lipo>
95.6814

> <Gold.Chemscore.Internal_Hbond>
0.0000

> <Gold.Chemscore.DEClash>
0.0149

> <Gold.Chemscore.DEInternal>
3.5496

> <Gold.Chemscore.Rot>
2.1039

> <Gold.Chemscore.Internal.Correction>
   9.000000E+99

> <Gold.Chemscore.Hbonds>
donor molecule, donor type, donor heavy atom, donor atom, acceptor molecule, acceptor atom, score
      L1  H    17    38       P1  7948  0.17
      L1  H    17    39       P1  7957  0.98
      P1  H  7989  7998       L1    13  0.03
      P1  H  7997  8008       L1     9  0.94

> <Gold.Chemscore.Hbond.Weighted>
-9.8841

> <Gold.Chemscore.Metal.Weighted>
-0.0000

> <Gold.Chemscore.Lipo.Weighted>
-11.1947

> <Gold.Chemscore.Internal_Hbond.Weighted>
0.0000

> <Gold.Chemscore.DEClash.Weighted>
0.0149

> <Gold.Chemscore.DEInternal.Weighted>
3.5496

> <Gold.Chemscore.Rot.Weighted>
5.3860

> <Gold.Chemscore.Internal.Correction.Weighted>
   9.000000E+99

> <Gold.Protein.RotatedTorsions>
[ 6907 6896 6895 6894 ] final  101.31 input  -60.11 | X-H torsion
[ 7974 7965 7964 7962 ] final   -6.45 input  175.53 | X-H torsion
[ 8008 7997 7996 7995 ] final  -76.48 input   59.86 | X-H torsion
[ 10167 10162 10161 10158 ] final  -13.53 input  -65.29 | X-H torsion
[ 10718 10713 10712 10709 ] final  -55.27 input   66.30 | X-H torsion
[ 10763 10752 10751 10750 ] final -106.75 input  -60.55 | X-H torsion
[ 11005 11000 10999 10996 ] final  -89.05 input  -57.11 | X-H torsion

> <Gold.Protein.ActiveResidues>
 VAL166  LYS551  ARG553  GLY616  TRP617  ASP618  TYR619  PRO620  LYS621  CYS622 
 ASP623  PHE694  ASN695  SER759  ASP760  ASP761  ALA762  ILE779  LEU786  VAL792 
 PHE793  MET794  SER795  GLU796  ALA797  LYS798  CYS799  TRP800  GLU811  SER814 

> <Gold.Protein.RotatedAtoms>
  152.5352  134.0145  159.7953 H   0  0  0  0  0  0  0  0  0  0  0  0  # atno 6907 bound_to 6896
  151.0341  133.5756  159.2665 H   0  0  0  0  0  0  0  0  0  0  0  0  # atno 6908 bound_to 6896
  151.2749  135.0703  159.9201 H   0  0  0  0  0  0  0  0  0  0  0  0  # atno 6909 bound_to 6896
  146.2330  140.2172  142.8336 H   0  0  0  0  0  0  0  0  0  0  0  0  # atno 7974 bound_to 7965
  154.5509  140.0726  156.8665 H   0  0  0  0  0  0  0  0  0  0  0  0  # atno 8008 bound_to 7997
  155.2996  140.3383  155.4230 H   0  0  0  0  0  0  0  0  0  0  0  0  # atno 8009 bound_to 7997
  156.1960  140.1704  156.7983 H   0  0  0  0  0  0  0  0  0  0  0  0  # atno 8010 bound_to 7997
  140.7184  143.5417  150.9402 H   0  0  0  0  0  0  0  0  0  0  0  0  # atno 10167 bound_to 10162
  156.1382  130.4156  150.0149 H   0  0  0  0  0  0  0  0  0  0  0  0  # atno 10718 bound_to 10713
  154.8032  135.4700  154.0327 H   0  0  0  0  0  0  0  0  0  0  0  0  # atno 10763 bound_to 10752
  153.1816  135.6841  153.8477 H   0  0  0  0  0  0  0  0  0  0  0  0  # atno 10764 bound_to 10752
  153.8025  135.3228  155.3369 H   0  0  0  0  0  0  0  0  0  0  0  0  # atno 10765 bound_to 10752
  141.1591  133.7607  156.9539 H   0  0  0  0  0  0  0  0  0  0  0  0  # atno 11005 bound_to 11000
  144.9660  140.8322  143.5484 LP  0  0  0  0  0  0  0  0  0  0  0  0  # atno 17320 bound_to 7965
  145.2148  139.2187  143.5124 LP  0  0  0  0  0  0  0  0  0  0  0  0  # atno 17321 bound_to 7965
  139.9140  143.6686  152.3110 LP  0  0  0  0  0  0  0  0  0  0  0  0  # atno 17342 bound_to 10162
  139.7079  144.7625  151.1161 LP  0  0  0  0  0  0  0  0  0  0  0  0  # atno 17343 bound_to 10162
  156.8042  130.9301  151.3645 LP  0  0  0  0  0  0  0  0  0  0  0  0  # atno 17370 bound_to 10713
  157.6551  130.8918  149.9713 LP  0  0  0  0  0  0  0  0  0  0  0  0  # atno 17371 bound_to 10713
  140.1238  134.9400  157.2241 LP  0  0  0  0  0  0  0  0  0  0  0  0  # atno 17394 bound_to 11000
  140.3038  134.3101  155.7283 LP  0  0  0  0  0  0  0  0  0  0  0  0  # atno 17395 bound_to 11000

$$$$
