AV-unprocessed.smi:3314|AV-procd|sdf|12742|dock6
  -GOLD-   2272019 83D 1   1.00000     0.00000
 Structure written by MMmdl.
 38 39  0  0  0  0  0  0  0  0  2 V2000
  151.4365  145.6604  160.0482 C   0  0  0  0  0  0  0  0  0  0  0  0
  151.9424  144.2511  160.2770 C   0  0  0  0  0  0  0  0  0  0  0  0
  152.4973  143.8783  161.5189 C   0  0  0  0  0  0  0  0  0  0  0  0
  152.9485  142.5552  161.6975 C   0  0  0  0  0  0  0  0  0  0  0  0
  153.5473  142.0734  163.0020 C   0  0  0  0  0  0  0  0  0  0  0  0
  152.8479  141.6711  160.6801 N   0  3  0  0  0  0  0  0  0  0  0  0
  152.3350  141.9761  159.4655 C   0  0  0  0  0  0  0  0  0  0  0  0
  152.2845  140.9260  158.5085 N   0  0  0  0  0  0  0  0  0  0  0  0
  151.6819  140.9001  157.3050 C   0  0  0  0  0  0  0  0  0  0  0  0
  151.0621  141.8432  156.8126 O   0  0  0  0  0  0  0  0  0  0  0  0
  151.8167  139.5768  156.5407 C   0  0  1  0  0  0  0  0  0  0  0  0
  150.4581  138.9288  156.1888 C   0  0  0  0  0  0  0  0  0  0  0  0
  150.6309  137.7089  155.4116 N   0  0  0  0  0  0  0  0  0  0  0  0
  149.3531  137.0945  155.0850 C   0  0  0  0  0  0  0  0  0  0  0  0
  151.4098  137.9977  154.2154 C   0  0  0  0  0  0  0  0  0  0  0  0
  152.7598  138.6486  154.5615 C   0  0  0  0  0  0  0  0  0  0  0  0
  152.5419  139.8246  155.3366 O   0  0  0  0  0  0  0  0  0  0  0  0
  151.8563  143.2929  159.2445 C   0  0  0  0  0  0  0  0  0  0  0  0
  151.5895  146.2868  160.9276 H   0  0  0  0  0  0  0  0  0  0  0  0
  150.3703  145.6470  159.8210 H   0  0  0  0  0  0  0  0  0  0  0  0
  151.9607  146.1188  159.2091 H   0  0  0  0  0  0  0  0  0  0  0  0
  152.5718  144.5946  162.3245 H   0  0  0  0  0  0  0  0  0  0  0  0
  153.6031  142.8823  163.7311 H   0  0  0  0  0  0  0  0  0  0  0  0
  154.5557  141.6913  162.8403 H   0  0  0  0  0  0  0  0  0  0  0  0
  152.9395  141.2740  163.4265 H   0  0  0  0  0  0  0  0  0  0  0  0
  152.8138  140.0992  158.7449 H   0  0  0  0  0  0  0  0  0  0  0  0
  152.3933  138.8920  157.1653 H   0  0  0  0  0  0  0  0  0  0  0  0
  149.9121  138.7016  157.1055 H   0  0  0  0  0  0  0  0  0  0  0  0
  149.8458  139.6371  155.6275 H   0  0  0  0  0  0  0  0  0  0  0  0
  149.5014  136.1644  154.5356 H   0  0  0  0  0  0  0  0  0  0  0  0
  148.7417  137.7579  154.4719 H   0  0  0  0  0  0  0  0  0  0  0  0
  148.7948  136.8586  155.9915 H   0  0  0  0  0  0  0  0  0  0  0  0
  151.5824  137.0785  153.6545 H   0  0  0  0  0  0  0  0  0  0  0  0
  150.8466  138.6633  153.5592 H   0  0  0  0  0  0  0  0  0  0  0  0
  153.3927  137.9533  155.1149 H   0  0  0  0  0  0  0  0  0  0  0  0
  153.2968  138.9152  153.6512 H   0  0  0  0  0  0  0  0  0  0  0  0
  151.4120  143.5871  158.3064 H   0  0  0  0  0  0  0  0  0  0  0  0
  153.1814  140.7202  160.8399 H   0  0  0  0  0  0  0  0  0  0  0  0
  1  2  1  0  0  0  0
  1 19  1  0  0  0  0
  1 20  1  0  0  0  0
  1 21  1  0  0  0  0
  2 18  1  0  0  0  0
  2  3  2  0  0  0  0
  3  4  1  0  0  0  0
  3 22  1  0  0  0  0
  4  5  1  0  0  0  0
  4  6  2  0  0  0  0
  5 23  1  0  0  0  0
  5 24  1  0  0  0  0
  5 25  1  0  0  0  0
  6  7  1  0  0  0  0
  6 38  1  0  0  0  0
  7  8  1  0  0  0  0
  7 18  2  0  0  0  0
  8  9  1  0  0  0  0
  8 26  1  0  0  0  0
  9 10  2  0  0  0  0
  9 11  1  0  0  0  0
 11 17  1  0  0  0  0
 11 12  1  0  0  0  0
 11 27  1  0  0  0  0
 12 13  1  0  0  0  0
 12 28  1  0  0  0  0
 12 29  1  0  0  0  0
 13 14  1  0  0  0  0
 13 15  1  0  0  0  0
 14 30  1  0  0  0  0
 14 31  1  0  0  0  0
 14 32  1  0  0  0  0
 15 16  1  0  0  0  0
 15 33  1  0  0  0  0
 15 34  1  0  0  0  0
 16 17  1  0  0  0  0
 16 35  1  0  0  0  0
 16 36  1  0  0  0  0
 18 37  1  0  0  0  0
M  CHG  1   6   1
M  END
> <s_m_source_file>
AV-unprocessed.smi

> <i_m_source_file_index>
3314

> <i_lp_mmshare_version>
43012

> <i_f3d_flags>
0

> <s_epik_input>
W0NIM11jMVtjSF1jKFtDSDNdKW5jKFtjSF0xKVtOSF1DKD1PKVtDQEBIXTJbQ0gyXU4oW0NIM10pW0NIMl1bQ0gyXU8y

> <s_epik_cmdline>
J2VwaWtfcHl0aG9uJywgJy1waCcsICc3LjAnLCAnLXRuJywgJzgnLCAnLW1hJywgJzIwMCcsICctbWV0YWxfYmluZGluZycsICctaW1hZScsICc8aW5maWxlLm1hZT4nLCAnLW9tYWUnLCAnPG91dGZpbGUubWFlPic=

> <r_epik_Ionization_Penalty>
2.57421

> <r_epik_Ionization_Penalty_Charging>
1.80498

> <r_epik_Ionization_Penalty_Neutral>
0.76923

> <r_epik_State_Penalty>
2.63884

> <r_epik_Charging_Adjusted_Penalty>
4.44382

> <i_epik_Tot_Q>
1

> <i_epik_Tot_abs_Q>
1

> <r_epik_Metal_State_Penalty>
6.15142

> <b_epik_Metal_Only>
0

> <s_lp_Force_Field>
OPLS_2005

> <r_lp_Energy>
30.3211

> <b_lp_Chiralities_Consistent>
1

> <s_lp_Variant>
AV-unprocessed.smi:3314-12

> <Gold.Version>
5.8.1

> <Gold.Id.Protein>
6NUR|6NUR_protein|mol2

> <Gold.PLP.Fitness>
42.1842

> <Gold.PLP.PLP>
-39.0462

> <Gold.PLP.part.hbond>
-1.6841

> <Gold.PLP.part.metal>
0.0000

> <Gold.PLP.part.buried>
-6.8759

> <Gold.PLP.part.nonpolar>
-31.9893

> <Gold.PLP.part.repulsive>
0.3134

> <Gold.PLP.ligand.clash>
0.0000

> <Gold.PLP.ligand.torsion>
0.0265

> <Gold.PLP.Chemscore.Hbond>
1.0629

> <Gold.PLP.Chemscore.CHOScore>
0.0000

> <Gold.PLP.Chemscore.Metal>
0.0000

> <Gold.Chemscore.Hbonds>
donor molecule, donor type, donor heavy atom, donor atom, acceptor molecule, acceptor atom, score
      P1  H  7989  7998       L1    17  0.12
      P1  H  7997  8008       L1    17  1.00

> <Gold.PLP.Chemscore.Internal.Correction>
0.0023

> <Gold.Rescore>
     Score         DG    S(hbond)    S(metal)    S(lipo)     H(rot)  DE(clash)    DE(int)     intcor
     15.44     -17.04       0.70        0.00     100.65       1.00       0.23       1.37       ----

> <Gold.Chemscore.Fitness>
15.4369

> <Gold.Chemscore.DG>
-17.0375

> <Gold.Chemscore.ZeroCoef>
-5.4800

> <Gold.Chemscore.Hbond>
0.7009

> <Gold.Chemscore.Metal>
0.0000

> <Gold.Chemscore.Lipo>
100.6549

> <Gold.Chemscore.Internal_Hbond>
0.0000

> <Gold.Chemscore.DEClash>
0.2317

> <Gold.Chemscore.DEInternal>
1.3689

> <Gold.Chemscore.Rot>
1.0000

> <Gold.Chemscore.Internal.Correction>
   9.000000E+99

> <Gold.Chemscore.Hbonds>
donor molecule, donor type, donor heavy atom, donor atom, acceptor molecule, acceptor atom, score
      P1  H  7989  7998       L1    17  0.01
      P1  H  7997  8008       L1    17  0.09

> <Gold.Chemscore.Hbond.Weighted>
-2.3409

> <Gold.Chemscore.Metal.Weighted>
-0.0000

> <Gold.Chemscore.Lipo.Weighted>
-11.7766

> <Gold.Chemscore.Internal_Hbond.Weighted>
0.0000

> <Gold.Chemscore.DEClash.Weighted>
0.2317

> <Gold.Chemscore.DEInternal.Weighted>
1.3689

> <Gold.Chemscore.Rot.Weighted>
2.5600

> <Gold.Chemscore.Internal.Correction.Weighted>
   9.000000E+99

> <Gold.Protein.RotatedTorsions>
[ 6907 6896 6895 6894 ] final  -96.69 input  -60.11 | X-H torsion
[ 7974 7965 7964 7962 ] final  -11.78 input  175.53 | X-H torsion
[ 8008 7997 7996 7995 ] final  -28.83 input   59.86 | X-H torsion
[ 10167 10162 10161 10158 ] final  -18.66 input  -65.29 | X-H torsion
[ 10718 10713 10712 10709 ] final   33.10 input   66.30 | X-H torsion
[ 10763 10752 10751 10750 ] final -134.64 input  -60.55 | X-H torsion
[ 11005 11000 10999 10996 ] final  159.39 input  -57.11 | X-H torsion

> <Gold.Protein.ActiveResidues>
 VAL166  LYS551  ARG553  GLY616  TRP617  ASP618  TYR619  PRO620  LYS621  CYS622 
 ASP623  PHE694  ASN695  SER759  ASP760  ASP761  ALA762  ILE779  LEU786  VAL792 
 PHE793  MET794  SER795  GLU796  ALA797  LYS798  CYS799  TRP800  GLU811  SER814 

> <Gold.Protein.RotatedAtoms>
  150.6995  134.1464  159.4123 H   0  0  0  0  0  0  0  0  0  0  0  0  # atno 6907 bound_to 6896
  151.9448  135.0194  160.0547 H   0  0  0  0  0  0  0  0  0  0  0  0  # atno 6908 bound_to 6896
  152.2062  133.4842  159.5122 H   0  0  0  0  0  0  0  0  0  0  0  0  # atno 6909 bound_to 6896
  146.2175  140.2961  142.8372 H   0  0  0  0  0  0  0  0  0  0  0  0  # atno 7974 bound_to 7965
  154.4315  140.1834  156.1152 H   0  0  0  0  0  0  0  0  0  0  0  0  # atno 8008 bound_to 7997
  156.0186  140.3343  155.6990 H   0  0  0  0  0  0  0  0  0  0  0  0  # atno 8009 bound_to 7997
  155.6008  140.0640  157.2724 H   0  0  0  0  0  0  0  0  0  0  0  0  # atno 8010 bound_to 7997
  140.7261  143.4894  151.0012 H   0  0  0  0  0  0  0  0  0  0  0  0  # atno 10167 bound_to 10162
  157.2936  130.7315  149.6625 H   0  0  0  0  0  0  0  0  0  0  0  0  # atno 10718 bound_to 10713
  154.8716  135.3728  154.4768 H   0  0  0  0  0  0  0  0  0  0  0  0  # atno 10763 bound_to 10752
  153.5425  135.7026  153.5635 H   0  0  0  0  0  0  0  0  0  0  0  0  # atno 10764 bound_to 10752
  153.3790  135.4001  155.1808 H   0  0  0  0  0  0  0  0  0  0  0  0  # atno 10765 bound_to 10752
  140.1957  134.8375  157.2962 H   0  0  0  0  0  0  0  0  0  0  0  0  # atno 11005 bound_to 11000
  144.9091  140.7736  143.5818 LP  0  0  0  0  0  0  0  0  0  0  0  0  # atno 17320 bound_to 7965
  145.2890  139.1890  143.4750 LP  0  0  0  0  0  0  0  0  0  0  0  0  # atno 17321 bound_to 7965
  139.8597  143.7330  152.3174 LP  0  0  0  0  0  0  0  0  0  0  0  0  # atno 17342 bound_to 10162
  139.7541  144.7526  151.0462 LP  0  0  0  0  0  0  0  0  0  0  0  0  # atno 17343 bound_to 10162
  155.9668  130.4301  150.4862 LP  0  0  0  0  0  0  0  0  0  0  0  0  # atno 17370 bound_to 10713
  157.2830  131.0610  151.2185 LP  0  0  0  0  0  0  0  0  0  0  0  0  # atno 17371 bound_to 10713
  140.2110  134.4138  155.7613 LP  0  0  0  0  0  0  0  0  0  0  0  0  # atno 17394 bound_to 11000
  141.2227  133.7118  156.8338 LP  0  0  0  0  0  0  0  0  0  0  0  0  # atno 17395 bound_to 11000

$$$$
