AV-unprocessed.smi:3119|AV-procd|sdf|11891|dock10
  -GOLD-   2272017283D 1   1.00000     0.00000
 Structure written by MMmdl.
 32 33  0  0  0  0  0  0  0  0  2 V2000
  152.7623  139.5807  154.9993 O   0  0  0  0  0  0  0  0  0  0  0  0
  151.6510  139.2001  155.3694 C   0  0  0  0  0  0  0  0  0  0  0  0
  151.0389  139.6855  156.4587 N   0  0  0  0  0  0  0  0  0  0  0  0
  151.6098  140.6987  157.3356 C   0  0  0  0  0  0  0  0  0  0  0  0
  151.0472  142.0871  157.0033 C   0  0  0  0  0  0  0  0  0  0  0  0
  151.3853  143.1107  158.0700 C   0  0  0  0  0  0  0  0  0  0  0  0
  152.2536  142.8168  159.1437 C   0  0  0  0  0  0  0  0  0  0  0  0
  152.5348  143.8182  160.0967 C   0  0  0  0  0  0  0  0  0  0  0  0
  151.9437  145.0909  159.9556 C   0  0  0  0  0  0  0  0  0  0  0  0
  151.0850  145.3305  158.8634 C   0  0  0  0  0  0  0  0  0  0  0  0
  150.8406  144.3452  157.9712 N   0  3  0  0  0  0  0  0  0  0  0  0
  150.8837  138.1272  154.5847 C   0  0  0  0  0  0  0  0  0  0  0  0
  149.3553  138.2037  154.7420 C   0  0  0  0  0  0  0  0  0  0  0  0
  149.3353  136.6806  154.9000 C   0  0  0  0  0  0  0  0  0  0  0  0
  150.8223  136.7451  155.2607 C   0  0  0  0  0  0  0  0  0  0  0  0
  150.1251  139.3263  156.6950 H   0  0  0  0  0  0  0  0  0  0  0  0
  151.3874  140.4488  158.3745 H   0  0  0  0  0  0  0  0  0  0  0  0
  152.6957  140.6940  157.2273 H   0  0  0  0  0  0  0  0  0  0  0  0
  151.4386  142.4316  156.0448 H   0  0  0  0  0  0  0  0  0  0  0  0
  149.9631  142.0336  156.8921 H   0  0  0  0  0  0  0  0  0  0  0  0
  152.7021  141.8382  159.2364 H   0  0  0  0  0  0  0  0  0  0  0  0
  153.1969  143.6126  160.9251 H   0  0  0  0  0  0  0  0  0  0  0  0
  152.1467  145.8717  160.6742 H   0  0  0  0  0  0  0  0  0  0  0  0
  150.5913  146.2731  158.6767 H   0  0  0  0  0  0  0  0  0  0  0  0
  151.1837  138.0549  153.5373 H   0  0  0  0  0  0  0  0  0  0  0  0
  149.0239  138.7249  155.6420 H   0  0  0  0  0  0  0  0  0  0  0  0
  148.8293  138.5647  153.8577 H   0  0  0  0  0  0  0  0  0  0  0  0
  148.6885  136.3141  155.6975 H   0  0  0  0  0  0  0  0  0  0  0  0
  149.1520  136.1616  153.9580 H   0  0  0  0  0  0  0  0  0  0  0  0
  151.4281  135.9798  154.7751 H   0  0  0  0  0  0  0  0  0  0  0  0
  150.9913  136.7587  156.3389 H   0  0  0  0  0  0  0  0  0  0  0  0
  150.2179  144.5416  157.1871 H   0  0  0  0  0  0  0  0  0  0  0  0
  1  2  2  0  0  0  0
  2  3  1  0  0  0  0
  2 12  1  0  0  0  0
  3  4  1  0  0  0  0
  3 16  1  0  0  0  0
  4  5  1  0  0  0  0
  4 17  1  0  0  0  0
  4 18  1  0  0  0  0
  5  6  1  0  0  0  0
  5 19  1  0  0  0  0
  5 20  1  0  0  0  0
  6 11  1  0  0  0  0
  6  7  2  0  0  0  0
  7  8  1  0  0  0  0
  7 21  1  0  0  0  0
  8  9  2  0  0  0  0
  8 22  1  0  0  0  0
  9 10  1  0  0  0  0
  9 23  1  0  0  0  0
 10 11  2  0  0  0  0
 10 24  1  0  0  0  0
 11 32  1  0  0  0  0
 12 15  1  0  0  0  0
 12 13  1  0  0  0  0
 12 25  1  0  0  0  0
 13 14  1  0  0  0  0
 13 26  1  0  0  0  0
 13 27  1  0  0  0  0
 14 15  1  0  0  0  0
 14 28  1  0  0  0  0
 14 29  1  0  0  0  0
 15 30  1  0  0  0  0
 15 31  1  0  0  0  0
M  CHG  1  11   1
M  END
> <s_m_source_file>
AV-unprocessed.smi

> <i_m_source_file_index>
3119

> <i_lp_mmshare_version>
43012

> <i_f3d_flags>
0

> <s_epik_input>
W0NIMl0xW0NIMl1bQ0gyXVtDSF0xQyg9TylbTkhdW0NIMl1bQ0gyXWMyW2NIXVtjSF1bY0hdW2NIXW4y

> <s_epik_cmdline>
J2VwaWtfcHl0aG9uJywgJy1waCcsICc3LjAnLCAnLXRuJywgJzgnLCAnLW1hJywgJzIwMCcsICctbWV0YWxfYmluZGluZycsICctaW1hZScsICc8aW5maWxlLm1hZT4nLCAnLW9tYWUnLCAnPG91dGZpbGUubWFlPic=

> <r_epik_Ionization_Penalty>
1.82741

> <r_epik_Ionization_Penalty_Charging>
1.82741

> <r_epik_Ionization_Penalty_Neutral>
1.62845e-08

> <r_epik_State_Penalty>
1.94311

> <r_epik_Charging_Adjusted_Penalty>
3.77052

> <i_epik_Tot_Q>
1

> <i_epik_Tot_abs_Q>
1

> <r_epik_Metal_State_Penalty>
1.96982

> <b_epik_Metal_Only>
0

> <s_lp_Force_Field>
OPLS_2005

> <r_lp_Energy>
15.9357

> <b_lp_Chiralities_Consistent>
1

> <s_lp_Variant>
AV-unprocessed.smi:3119-2

> <Gold.Version>
5.8.1

> <Gold.Id.Protein>
6NUR|6NUR_protein|mol2

> <Gold.PLP.Fitness>
43.1617

> <Gold.PLP.PLP>
-34.9001

> <Gold.PLP.part.hbond>
-3.0000

> <Gold.PLP.part.metal>
0.0000

> <Gold.PLP.part.buried>
-4.2975

> <Gold.PLP.part.nonpolar>
-28.4763

> <Gold.PLP.part.repulsive>
0.1530

> <Gold.PLP.ligand.clash>
0.0000

> <Gold.PLP.ligand.torsion>
0.7420

> <Gold.PLP.Chemscore.Hbond>
3.1133

> <Gold.PLP.Chemscore.CHOScore>
0.0000

> <Gold.PLP.Chemscore.Metal>
0.0000

> <Gold.Chemscore.Hbonds>
donor molecule, donor type, donor heavy atom, donor atom, acceptor molecule, acceptor atom, score
      L1  H    11    32       P1  8028  2.00
      P1  H  7989  7998       L1     1  0.09
      P1  H  7997  8009       L1     1  1.00

> <Gold.PLP.Chemscore.Internal.Correction>
0.4058

> <Gold.Rescore>
     Score         DG    S(hbond)    S(metal)    S(lipo)     H(rot)  DE(clash)    DE(int)     intcor
     17.64     -18.71       1.81        0.00      94.71       1.53       0.33       0.73       ----

> <Gold.Chemscore.Fitness>
17.6433

> <Gold.Chemscore.DG>
-18.7072

> <Gold.Chemscore.ZeroCoef>
-5.4800

> <Gold.Chemscore.Hbond>
1.8135

> <Gold.Chemscore.Metal>
0.0000

> <Gold.Chemscore.Lipo>
94.7120

> <Gold.Chemscore.Internal_Hbond>
0.0000

> <Gold.Chemscore.DEClash>
0.3319

> <Gold.Chemscore.DEInternal>
0.7320

> <Gold.Chemscore.Rot>
1.5278

> <Gold.Chemscore.Internal.Correction>
   9.000000E+99

> <Gold.Chemscore.Hbonds>
donor molecule, donor type, donor heavy atom, donor atom, acceptor molecule, acceptor atom, score
      L1  H    11    32       P1  8028  0.53
      P1  H  7997  8009       L1     1  0.93

> <Gold.Chemscore.Hbond.Weighted>
-6.0570

> <Gold.Chemscore.Metal.Weighted>
-0.0000

> <Gold.Chemscore.Lipo.Weighted>
-11.0813

> <Gold.Chemscore.Internal_Hbond.Weighted>
0.0000

> <Gold.Chemscore.DEClash.Weighted>
0.3319

> <Gold.Chemscore.DEInternal.Weighted>
0.7320

> <Gold.Chemscore.Rot.Weighted>
3.9111

> <Gold.Chemscore.Internal.Correction.Weighted>
   9.000000E+99

> <Gold.Protein.RotatedTorsions>
[ 6907 6896 6895 6894 ] final -135.19 input  -60.11 | X-H torsion
[ 7974 7965 7964 7962 ] final  -99.16 input  175.53 | X-H torsion
[ 8008 7997 7996 7995 ] final -127.01 input   59.86 | X-H torsion
[ 10167 10162 10161 10158 ] final   88.00 input  -65.29 | X-H torsion
[ 10718 10713 10712 10709 ] final  -77.67 input   66.30 | X-H torsion
[ 10763 10752 10751 10750 ] final  114.13 input  -60.55 | X-H torsion
[ 11005 11000 10999 10996 ] final    9.88 input  -57.11 | X-H torsion

> <Gold.Protein.ActiveResidues>
 VAL166  LYS551  ARG553  GLY616  TRP617  ASP618  TYR619  PRO620  LYS621  CYS622 
 ASP623  PHE694  ASN695  SER759  ASP760  ASP761  ALA762  ILE779  LEU786  VAL792 
 PHE793  MET794  SER795  GLU796  ALA797  LYS798  CYS799  TRP800  GLU811  SER814 

> <Gold.Protein.RotatedAtoms>
  150.9949  133.6112  159.2702 H   0  0  0  0  0  0  0  0  0  0  0  0  # atno 6907 bound_to 6896
  151.3320  135.0843  159.9351 H   0  0  0  0  0  0  0  0  0  0  0  0  # atno 6908 bound_to 6896
  152.5257  133.9577  159.7756 H   0  0  0  0  0  0  0  0  0  0  0  0  # atno 6909 bound_to 6896
  145.3112  140.9401  143.2768 H   0  0  0  0  0  0  0  0  0  0  0  0  # atno 7974 bound_to 7965
  155.2391  140.0428  157.2972 H   0  0  0  0  0  0  0  0  0  0  0  0  # atno 8008 bound_to 7997
  154.5839  140.2408  155.7984 H   0  0  0  0  0  0  0  0  0  0  0  0  # atno 8009 bound_to 7997
  156.2213  140.2969  155.9967 H   0  0  0  0  0  0  0  0  0  0  0  0  # atno 8010 bound_to 7997
  139.8717  144.6489  150.8942 H   0  0  0  0  0  0  0  0  0  0  0  0  # atno 10167 bound_to 10162
  156.0138  130.4497  150.3379 H   0  0  0  0  0  0  0  0  0  0  0  0  # atno 10718 bound_to 10713
  153.5027  135.3634  155.2548 H   0  0  0  0  0  0  0  0  0  0  0  0  # atno 10763 bound_to 10752
  154.8747  135.4004  154.3459 H   0  0  0  0  0  0  0  0  0  0  0  0  # atno 10764 bound_to 10752
  153.4098  135.7077  153.6433 H   0  0  0  0  0  0  0  0  0  0  0  0  # atno 10765 bound_to 10752
  140.5208  134.0561  155.7844 H   0  0  0  0  0  0  0  0  0  0  0  0  # atno 11005 bound_to 11000
  144.9014  139.4645  143.6631 LP  0  0  0  0  0  0  0  0  0  0  0  0  # atno 17320 bound_to 7965
  146.3117  139.7770  142.9015 LP  0  0  0  0  0  0  0  0  0  0  0  0  # atno 17321 bound_to 7965
  140.7759  143.3658  151.1741 LP  0  0  0  0  0  0  0  0  0  0  0  0  # atno 17342 bound_to 10162
  139.7278  143.9121  152.3009 LP  0  0  0  0  0  0  0  0  0  0  0  0  # atno 17343 bound_to 10162
  157.1476  131.0312  151.2900 LP  0  0  0  0  0  0  0  0  0  0  0  0  # atno 17370 bound_to 10713
  157.4419  130.7549  149.7077 LP  0  0  0  0  0  0  0  0  0  0  0  0  # atno 17371 bound_to 10713
  141.1335  133.9261  157.2484 LP  0  0  0  0  0  0  0  0  0  0  0  0  # atno 17394 bound_to 11000
  139.9607  135.0155  156.9252 LP  0  0  0  0  0  0  0  0  0  0  0  0  # atno 17395 bound_to 11000

$$$$
