AV-unprocessed.smi:283|AV-procd|sdf|2155|dock9
  -GOLD-   2262021503D 1   1.00000     0.00000
 Structure written by MMmdl.
 48 51  0  0  0  0  0  0  0  0  1 V2000
  151.8908  140.2738  156.6142 C   0  0  0  0  0  0  0  0  0  0  0  0
  150.8791  141.3333  157.0705 C   0  0  2  0  0  0  0  0  0  0  0  0
  150.3293  142.0245  155.9053 N   0  0  0  0  0  0  0  0  0  0  0  0
  149.3866  141.4414  155.1321 C   0  0  0  0  0  0  0  0  0  0  0  0
  148.5386  142.2880  154.5012 N   0  0  0  0  0  0  0  0  0  0  0  0
  147.5514  141.8054  153.7417 C   0  0  0  0  0  0  0  0  0  0  0  0
  147.2384  140.5333  153.4907 N   0  0  0  0  0  0  0  0  0  0  0  0
  148.0940  139.6730  154.1148 C   0  0  0  0  0  0  0  0  0  0  0  0
  149.2002  140.0420  154.9317 C   0  0  0  0  0  0  0  0  0  0  0  0
  149.8630  138.8944  155.3487 N   0  0  0  0  0  0  0  0  0  0  0  0
  149.1757  137.9152  154.8299 C   0  0  0  0  0  0  0  0  0  0  0  0
  148.0635  138.2932  154.1089 N   0  0  0  0  0  0  0  0  0  0  0  0
  147.0708  137.4269  153.3910 C   0  0  1  0  0  0  0  0  0  0  0  0
  146.1697  136.9308  154.3393 O   0  0  0  0  0  0  0  0  0  0  0  0
  144.9308  137.6360  154.2907 C   0  0  1  0  0  0  0  0  0  0  0  0
  144.9598  138.8525  155.2381 C   0  0  0  0  0  0  0  0  0  0  0  0
  143.7870  139.6227  155.0844 O   0  0  0  0  0  0  0  0  0  0  0  0
  144.8027  138.0064  152.8111 C   0  0  2  0  0  0  0  0  0  0  0  0
  144.1845  136.9297  152.1272 O   0  0  0  0  0  0  0  0  0  0  0  0
  146.2477  138.2470  152.3755 C   0  0  2  0  0  0  0  0  0  0  0  0
  146.4721  137.8605  151.0326 O   0  0  0  0  0  0  0  0  0  0  0  0
  151.5074  142.2491  158.1262 C   0  0  0  0  0  0  0  0  0  0  0  0
  151.8638  141.7266  159.3916 C   0  0  0  0  0  0  0  0  0  0  0  0
  152.4560  142.5487  160.3682 C   0  0  0  0  0  0  0  0  0  0  0  0
  152.6906  143.9079  160.0941 C   0  0  0  0  0  0  0  0  0  0  0  0
  152.3244  144.4436  158.8459 C   0  0  0  0  0  0  0  0  0  0  0  0
  151.7302  143.6251  157.8645 C   0  0  0  0  0  0  0  0  0  0  0  0
  151.2880  144.3431  156.3550 Cl  0  0  0  0  0  0  0  0  0  0  0  0
  147.6697  136.6260  152.9557 H   0  0  0  0  0  0  0  0  0  0  0  0
  144.1323  136.9644  154.6108 H   0  0  0  0  0  0  0  0  0  0  0  0
  144.1843  138.8919  152.6584 H   0  0  0  0  0  0  0  0  0  0  0  0
  146.4764  139.3079  152.4860 H   0  0  0  0  0  0  0  0  0  0  0  0
  152.2472  139.6831  157.4585 H   0  0  0  0  0  0  0  0  0  0  0  0
  152.7588  140.7319  156.1393 H   0  0  0  0  0  0  0  0  0  0  0  0
  151.4432  139.5843  155.8978 H   0  0  0  0  0  0  0  0  0  0  0  0
  150.0438  140.7974  157.5176 H   0  0  0  0  0  0  0  0  0  0  0  0
  150.4730  143.0238  155.9038 H   0  0  0  0  0  0  0  0  0  0  0  0
  146.9158  142.5439  153.2760 H   0  0  0  0  0  0  0  0  0  0  0  0
  149.4624  136.8841  154.9758 H   0  0  0  0  0  0  0  0  0  0  0  0
  145.0095  138.5189  156.2747 H   0  0  0  0  0  0  0  0  0  0  0  0
  145.8294  139.4852  155.0592 H   0  0  0  0  0  0  0  0  0  0  0  0
  143.6097  139.7194  154.1611 H   0  0  0  0  0  0  0  0  0  0  0  0
  144.1663  137.1353  151.2049 H   0  0  0  0  0  0  0  0  0  0  0  0
  145.7232  138.1236  150.5196 H   0  0  0  0  0  0  0  0  0  0  0  0
  151.6904  140.6850  159.6193 H   0  0  0  0  0  0  0  0  0  0  0  0
  152.7306  142.1357  161.3275 H   0  0  0  0  0  0  0  0  0  0  0  0
  153.1460  144.5403  160.8421 H   0  0  0  0  0  0  0  0  0  0  0  0
  152.4993  145.4897  158.6413 H   0  0  0  0  0  0  0  0  0  0  0  0
  1  2  1  0  0  0  0
  1 33  1  0  0  0  0
  1 34  1  0  0  0  0
  1 35  1  0  0  0  0
  2  3  1  0  0  0  0
  2 22  1  0  0  0  0
  2 36  1  0  0  0  0
  3  4  1  0  0  0  0
  3 37  1  0  0  0  0
  4  9  1  0  0  0  0
  4  5  2  0  0  0  0
  5  6  1  0  0  0  0
  6  7  2  0  0  0  0
  6 38  1  0  0  0  0
  7  8  1  0  0  0  0
  8 12  1  0  0  0  0
  8  9  2  0  0  0  0
  9 10  1  0  0  0  0
 10 11  2  0  0  0  0
 11 12  1  0  0  0  0
 11 39  1  0  0  0  0
 12 13  1  0  0  0  0
 13 29  1  0  0  0  0
 13 20  1  0  0  0  0
 13 14  1  0  0  0  0
 14 15  1  0  0  0  0
 15 30  1  0  0  0  0
 15 16  1  0  0  0  0
 15 18  1  0  0  0  0
 16 17  1  0  0  0  0
 16 40  1  0  0  0  0
 16 41  1  0  0  0  0
 17 42  1  0  0  0  0
 18 31  1  0  0  0  0
 18 19  1  0  0  0  0
 18 20  1  0  0  0  0
 19 43  1  0  0  0  0
 20 32  1  0  0  0  0
 20 21  1  0  0  0  0
 21 44  1  0  0  0  0
 22 27  1  0  0  0  0
 22 23  2  0  0  0  0
 23 24  1  0  0  0  0
 23 45  1  0  0  0  0
 24 25  2  0  0  0  0
 24 46  1  0  0  0  0
 25 26  1  0  0  0  0
 25 47  1  0  0  0  0
 26 27  2  0  0  0  0
 26 48  1  0  0  0  0
 27 28  1  0  0  0  0
M  END
> <s_m_source_file>
AV-unprocessed.smi

> <i_m_source_file_index>
283

> <i_lp_mmshare_version>
43012

> <i_f3d_flags>
0

> <s_epik_input>
Q2xjMVtjSF1bY0hdW2NIXVtjSF1jMVtDQEhdKFtDSDNdKVtOSF1jKG5bY0hdbjIpYyhjMjMpbltjSF1uM1tDQEBIXTRPW0NASF0oW0NIMl1bT0hdKVtDQEBIXShbT0hdKVtDQEhdNFtPSF0=

> <s_epik_cmdline>
J2VwaWtfcHl0aG9uJywgJy1waCcsICc3LjAnLCAnLXRuJywgJzgnLCAnLW1hJywgJzIwMCcsICctbWV0YWxfYmluZGluZycsICctaW1hZScsICc8aW5maWxlLm1hZT4nLCAnLW9tYWUnLCAnPG91dGZpbGUubWFlPic=

> <r_lp_tautomer_probability>
1

> <r_epik_Ionization_Penalty>
0.000266407

> <r_epik_Ionization_Penalty_Charging>
0

> <r_epik_Ionization_Penalty_Neutral>
0.000266407

> <r_epik_State_Penalty>
-0

> <r_epik_Charging_Adjusted_Penalty>
0

> <i_epik_Tot_Q>
0

> <i_epik_Tot_abs_Q>
0

> <r_epik_Metal_State_Penalty>
-0

> <b_epik_Metal_Only>
0

> <s_epik_Chemistry_Notes>
This compound contains an acetal/aminal-like group ( X-CH(R)-Y where X, Y are N, S, or O) that may be acid/base labile, releasing an aldehyde.

> <s_lp_Force_Field>
OPLS_2005

> <r_lp_Energy>
45.281

> <b_lp_Chiralities_Consistent>
1

> <s_lp_Variant>
AV-unprocessed.smi:283-31

> <Gold.Version>
5.8.1

> <Gold.Id.Protein>
6NUR|6NUR_protein|mol2

> <Gold.PLP.Fitness>
47.2285

> <Gold.PLP.PLP>
-37.7128

> <Gold.PLP.part.hbond>
-6.7914

> <Gold.PLP.part.metal>
0.0000

> <Gold.PLP.part.buried>
3.9714

> <Gold.PLP.part.nonpolar>
-39.5940

> <Gold.PLP.part.repulsive>
3.3047

> <Gold.PLP.ligand.clash>
0.7301

> <Gold.PLP.ligand.torsion>
1.0241

> <Gold.PLP.Chemscore.Hbond>
4.0627

> <Gold.PLP.Chemscore.CHOScore>
0.0000

> <Gold.PLP.Chemscore.Metal>
0.0000

> <Gold.Chemscore.Hbonds>
donor molecule, donor type, donor heavy atom, donor atom, acceptor molecule, acceptor atom, score
      L1  H     3    37       P1  8028  0.14
      L1  H    17    42       P1 10175  1.00
      L1  H    19    43       P1 10171  0.91
      L1  H    21    44       P1 10171  1.00
      P1  H  7954  7966       L1    21  0.98

> <Gold.PLP.Chemscore.Internal.Correction>
0.1060

> <Gold.Rescore>
     Score         DG    S(hbond)    S(metal)    S(lipo)     H(rot)  DE(clash)    DE(int)     intcor
      9.50     -21.98       4.14        0.00     112.53       4.10       6.93       5.55       ----

> <Gold.Chemscore.Fitness>
9.4998

> <Gold.Chemscore.DG>
-21.9777

> <Gold.Chemscore.ZeroCoef>
-5.4800

> <Gold.Chemscore.Hbond>
4.1375

> <Gold.Chemscore.Metal>
0.0000

> <Gold.Chemscore.Lipo>
112.5323

> <Gold.Chemscore.Internal_Hbond>
0.0000

> <Gold.Chemscore.DEClash>
6.9265

> <Gold.Chemscore.DEInternal>
5.5514

> <Gold.Chemscore.Rot>
4.0968

> <Gold.Chemscore.Internal.Correction>
   9.000000E+99

> <Gold.Chemscore.Hbonds>
donor molecule, donor type, donor heavy atom, donor atom, acceptor molecule, acceptor atom, score
      L1  H     3    37       P1  8028  0.14
      L1  H    17    42       P1 10175  0.99
      L1  H    19    43       P1 10171  0.84
      L1  H    21    44       P1 10171  0.93
      P1  H  7954  7966       L1    21  0.68

> <Gold.Chemscore.Hbond.Weighted>
-13.8194

> <Gold.Chemscore.Metal.Weighted>
-0.0000

> <Gold.Chemscore.Lipo.Weighted>
-13.1663

> <Gold.Chemscore.Internal_Hbond.Weighted>
0.0000

> <Gold.Chemscore.DEClash.Weighted>
6.9265

> <Gold.Chemscore.DEInternal.Weighted>
5.5514

> <Gold.Chemscore.Rot.Weighted>
10.4879

> <Gold.Chemscore.Internal.Correction.Weighted>
   9.000000E+99

> <Gold.Protein.RotatedTorsions>
[ 6907 6896 6895 6894 ] final -113.76 input  -60.11 | X-H torsion
[ 7974 7965 7964 7962 ] final -140.99 input  175.53 | X-H torsion
[ 8008 7997 7996 7995 ] final  -79.59 input   59.86 | X-H torsion
[ 10167 10162 10161 10158 ] final   54.40 input  -65.29 | X-H torsion
[ 10718 10713 10712 10709 ] final -126.64 input   66.30 | X-H torsion
[ 10763 10752 10751 10750 ] final  -56.67 input  -60.55 | X-H torsion
[ 11005 11000 10999 10996 ] final  176.19 input  -57.11 | X-H torsion

> <Gold.Protein.ActiveResidues>
 VAL166  LYS551  ARG553  GLY616  TRP617  ASP618  TYR619  PRO620  LYS621  CYS622 
 ASP623  PHE694  ASN695  SER759  ASP760  ASP761  ALA762  ILE779  LEU786  VAL792 
 PHE793  MET794  SER795  GLU796  ALA797  LYS798  CYS799  TRP800  GLU811  SER814 

> <Gold.Protein.RotatedAtoms>
  150.7853  133.8898  159.3309 H   0  0  0  0  0  0  0  0  0  0  0  0  # atno 6907 bound_to 6896
  151.6750  135.0968  160.0214 H   0  0  0  0  0  0  0  0  0  0  0  0  # atno 6908 bound_to 6896
  152.3915  133.6647  159.6277 H   0  0  0  0  0  0  0  0  0  0  0  0  # atno 6909 bound_to 6896
  144.8554  140.6134  143.5363 H   0  0  0  0  0  0  0  0  0  0  0  0  # atno 7974 bound_to 7965
  154.5800  140.0676  156.9090 H   0  0  0  0  0  0  0  0  0  0  0  0  # atno 8008 bound_to 7997
  155.2480  140.3349  155.4267 H   0  0  0  0  0  0  0  0  0  0  0  0  # atno 8009 bound_to 7997
  156.2182  140.1787  156.7524 H   0  0  0  0  0  0  0  0  0  0  0  0  # atno 8010 bound_to 7997
  140.2305  144.3691  150.6416 H   0  0  0  0  0  0  0  0  0  0  0  0  # atno 10167 bound_to 10162
  156.1783  130.6715  151.0271 H   0  0  0  0  0  0  0  0  0  0  0  0  # atno 10718 bound_to 10713
  154.2103  135.6395  153.5113 H   0  0  0  0  0  0  0  0  0  0  0  0  # atno 10763 bound_to 10752
  152.9991  135.5472  154.6222 H   0  0  0  0  0  0  0  0  0  0  0  0  # atno 10764 bound_to 10752
  154.5657  135.2912  155.0849 H   0  0  0  0  0  0  0  0  0  0  0  0  # atno 10765 bound_to 10752
  140.3704  134.7035  157.4388 H   0  0  0  0  0  0  0  0  0  0  0  0  # atno 11005 bound_to 11000
  145.4416  139.1535  143.3967 LP  0  0  0  0  0  0  0  0  0  0  0  0  # atno 17320 bound_to 7965
  146.2819  140.4538  142.8773 LP  0  0  0  0  0  0  0  0  0  0  0  0  # atno 17321 bound_to 7965
  140.6188  143.2174  151.6736 LP  0  0  0  0  0  0  0  0  0  0  0  0  # atno 17342 bound_to 10162
  139.5111  144.3519  152.0644 LP  0  0  0  0  0  0  0  0  0  0  0  0  # atno 17343 bound_to 10162
  157.6851  131.0827  150.7265 LP  0  0  0  0  0  0  0  0  0  0  0  0  # atno 17370 bound_to 10713
  156.7322  130.4713  149.5497 LP  0  0  0  0  0  0  0  0  0  0  0  0  # atno 17371 bound_to 10713
  140.0556  134.6068  155.8809 LP  0  0  0  0  0  0  0  0  0  0  0  0  # atno 17394 bound_to 11000
  141.1956  133.6588  156.5652 LP  0  0  0  0  0  0  0  0  0  0  0  0  # atno 17395 bound_to 11000

$$$$
