AV-unprocessed.smi:2112|AV-procd|sdf|8613|dock2
  -GOLD-   2272011353D 1   1.00000     0.00000
 Structure written by MMmdl.
 41 42  0  0  0  0  0  0  0  0  1 V2000
  145.6128  136.0203  150.9007 C   0  0  0  0  0  0  0  0  0  0  0  0
  145.6931  136.9027  152.1586 C   0  0  0  0  0  0  0  0  0  0  0  0
  144.3310  136.9524  152.8670 C   0  0  0  0  0  0  0  0  0  0  0  0
  146.1997  138.3287  151.8574 C   0  0  0  0  0  0  0  0  0  0  0  0
  147.5139  138.5878  152.4400 N   0  0  0  0  0  0  0  0  0  0  0  0
  147.7695  139.4455  153.4386 C   0  0  0  0  0  0  0  0  0  0  0  0
  146.9074  140.1406  153.9754 O   0  0  0  0  0  0  0  0  0  0  0  0
  149.0781  139.4534  153.7455 N   0  0  0  0  0  0  0  0  0  0  0  0
  149.7495  140.1830  154.7641 C   0  0  0  0  0  0  0  0  0  0  0  0
  151.0834  139.9485  155.1714 C   0  0  0  0  0  0  0  0  0  0  0  0
  151.6428  140.7603  156.1767 C   0  0  0  0  0  0  0  0  0  0  0  0
  150.8613  141.7939  156.7447 C   0  0  0  0  0  0  0  0  0  0  0  0
  151.3862  142.6279  157.7519 N   0  0  0  0  0  0  0  0  0  0  0  0
  152.3968  142.1488  158.6858 C   0  0  0  0  0  0  0  0  0  0  0  0
  153.1956  143.3886  159.1046 C   0  0  0  0  0  0  0  0  0  0  0  0
  152.2572  144.5561  158.8006 C   0  0  0  0  0  0  0  0  0  0  0  0
  151.4887  144.0685  157.5738 C   0  0  0  0  0  0  0  0  0  0  0  0
  149.5847  142.0172  156.3522 N   0  0  0  0  0  0  0  0  0  0  0  0
  149.0535  141.2372  155.3878 C   0  0  0  0  0  0  0  0  0  0  0  0
  144.9546  136.4603  150.1511 H   0  0  0  0  0  0  0  0  0  0  0  0
  145.2272  135.0293  151.1410 H   0  0  0  0  0  0  0  0  0  0  0  0
  146.5924  135.8809  150.4436 H   0  0  0  0  0  0  0  0  0  0  0  0
  146.3988  136.4335  152.8455 H   0  0  0  0  0  0  0  0  0  0  0  0
  143.5729  137.4180  152.2364 H   0  0  0  0  0  0  0  0  0  0  0  0
  144.3901  137.5243  153.7936 H   0  0  0  0  0  0  0  0  0  0  0  0
  143.9824  135.9513  153.1222 H   0  0  0  0  0  0  0  0  0  0  0  0
  146.2022  138.5109  150.7812 H   0  0  0  0  0  0  0  0  0  0  0  0
  145.5099  139.0582  152.2830 H   0  0  0  0  0  0  0  0  0  0  0  0
  148.2880  138.0666  152.0551 H   0  0  0  0  0  0  0  0  0  0  0  0
  149.6738  138.8902  153.1565 H   0  0  0  0  0  0  0  0  0  0  0  0
  151.6937  139.1772  154.7290 H   0  0  0  0  0  0  0  0  0  0  0  0
  152.6579  140.5786  156.4963 H   0  0  0  0  0  0  0  0  0  0  0  0
  151.8973  141.7017  159.5459 H   0  0  0  0  0  0  0  0  0  0  0  0
  153.0506  141.3986  158.2394 H   0  0  0  0  0  0  0  0  0  0  0  0
  153.5118  143.3562  160.1474 H   0  0  0  0  0  0  0  0  0  0  0  0
  154.0903  143.4720  158.4860 H   0  0  0  0  0  0  0  0  0  0  0  0
  151.5695  144.7027  159.6346 H   0  0  0  0  0  0  0  0  0  0  0  0
  152.7836  145.4950  158.6267 H   0  0  0  0  0  0  0  0  0  0  0  0
  152.0459  144.2852  156.6612 H   0  0  0  0  0  0  0  0  0  0  0  0
  150.5066  144.5368  157.4996 H   0  0  0  0  0  0  0  0  0  0  0  0
  148.0356  141.4639  155.1066 H   0  0  0  0  0  0  0  0  0  0  0  0
  1  2  1  0  0  0  0
  1 20  1  0  0  0  0
  1 21  1  0  0  0  0
  1 22  1  0  0  0  0
  2  3  1  0  0  0  0
  2  4  1  0  0  0  0
  2 23  1  0  0  0  0
  3 24  1  0  0  0  0
  3 25  1  0  0  0  0
  3 26  1  0  0  0  0
  4  5  1  0  0  0  0
  4 27  1  0  0  0  0
  4 28  1  0  0  0  0
  5  6  1  0  0  0  0
  5 29  1  0  0  0  0
  6  7  2  0  0  0  0
  6  8  1  0  0  0  0
  8  9  1  0  0  0  0
  8 30  1  0  0  0  0
  9 19  1  0  0  0  0
  9 10  2  0  0  0  0
 10 11  1  0  0  0  0
 10 31  1  0  0  0  0
 11 12  2  0  0  0  0
 11 32  1  0  0  0  0
 12 13  1  0  0  0  0
 12 18  1  0  0  0  0
 13 17  1  0  0  0  0
 13 14  1  0  0  0  0
 14 15  1  0  0  0  0
 14 33  1  0  0  0  0
 14 34  1  0  0  0  0
 15 16  1  0  0  0  0
 15 35  1  0  0  0  0
 15 36  1  0  0  0  0
 16 17  1  0  0  0  0
 16 37  1  0  0  0  0
 16 38  1  0  0  0  0
 17 39  1  0  0  0  0
 17 40  1  0  0  0  0
 18 19  2  0  0  0  0
 19 41  1  0  0  0  0
M  END
> <s_m_source_file>
AV-unprocessed.smi

> <i_m_source_file_index>
2112

> <i_lp_mmshare_version>
43012

> <i_f3d_flags>
0

> <s_epik_input>
W0NIM11bQ0hdKFtDSDNdKVtDSDJdW05IXUMoPU8pW05IXWMxW2NIXVtjSF1jKG5bY0hdMSlOMltDSDJdW0NIMl1bQ0gyXVtDSDJdMg==

> <s_epik_cmdline>
J2VwaWtfcHl0aG9uJywgJy1waCcsICc3LjAnLCAnLXRuJywgJzgnLCAnLW1hJywgJzIwMCcsICctbWV0YWxfYmluZGluZycsICctaW1hZScsICc8aW5maWxlLm1hZT4nLCAnLW9tYWUnLCAnPG91dGZpbGUubWFlPic=

> <r_lp_tautomer_probability>
1

> <r_epik_Ionization_Penalty>
0.101487

> <r_epik_Ionization_Penalty_Charging>
0

> <r_epik_Ionization_Penalty_Neutral>
0.101487

> <r_epik_State_Penalty>
0.0909146

> <r_epik_Charging_Adjusted_Penalty>
0.0909146

> <i_epik_Tot_Q>
0

> <i_epik_Tot_abs_Q>
0

> <r_epik_Metal_State_Penalty>
0.0775519

> <b_epik_Metal_Only>
0

> <s_lp_Force_Field>
OPLS_2005

> <r_lp_Energy>
29.5251

> <b_lp_Chiralities_Consistent>
1

> <s_lp_Variant>
AV-unprocessed.smi:2112-1

> <Gold.Version>
5.8.1

> <Gold.Id.Protein>
6NUR|6NUR_protein|mol2

> <Gold.PLP.Fitness>
43.3726

> <Gold.PLP.PLP>
-43.3454

> <Gold.PLP.part.hbond>
-3.0000

> <Gold.PLP.part.metal>
0.0000

> <Gold.PLP.part.buried>
-2.5861

> <Gold.PLP.part.nonpolar>
-41.0879

> <Gold.PLP.part.repulsive>
1.8120

> <Gold.PLP.ligand.clash>
0.0000

> <Gold.PLP.ligand.torsion>
1.5540

> <Gold.PLP.Chemscore.Hbond>
0.9760

> <Gold.PLP.Chemscore.CHOScore>
0.0000

> <Gold.PLP.Chemscore.Metal>
0.0000

> <Gold.Chemscore.Hbonds>
donor molecule, donor type, donor heavy atom, donor atom, acceptor molecule, acceptor atom, score
      L1  H     5    29       P1  7948  0.86
      L1  H     8    30       P1  7957  0.02

> <Gold.PLP.Chemscore.Internal.Correction>
0.2071

> <Gold.Rescore>
     Score         DG    S(hbond)    S(metal)    S(lipo)     H(rot)  DE(clash)    DE(int)     intcor
     14.79     -17.53       0.98        0.00     100.37       1.15       0.20       2.54       ----

> <Gold.Chemscore.Fitness>
14.7891

> <Gold.Chemscore.DG>
-17.5289

> <Gold.Chemscore.ZeroCoef>
-5.4800

> <Gold.Chemscore.Hbond>
0.9752

> <Gold.Chemscore.Metal>
0.0000

> <Gold.Chemscore.Lipo>
100.3697

> <Gold.Chemscore.Internal_Hbond>
0.0000

> <Gold.Chemscore.DEClash>
0.1951

> <Gold.Chemscore.DEInternal>
2.5447

> <Gold.Chemscore.Rot>
1.1529

> <Gold.Chemscore.Internal.Correction>
   9.000000E+99

> <Gold.Chemscore.Hbonds>
donor molecule, donor type, donor heavy atom, donor atom, acceptor molecule, acceptor atom, score
      L1  H     5    29       P1  7948  0.84
      L1  H     8    30       P1  7957  0.03

> <Gold.Chemscore.Hbond.Weighted>
-3.2572

> <Gold.Chemscore.Metal.Weighted>
-0.0000

> <Gold.Chemscore.Lipo.Weighted>
-11.7433

> <Gold.Chemscore.Internal_Hbond.Weighted>
0.0000

> <Gold.Chemscore.DEClash.Weighted>
0.1951

> <Gold.Chemscore.DEInternal.Weighted>
2.5447

> <Gold.Chemscore.Rot.Weighted>
2.9515

> <Gold.Chemscore.Internal.Correction.Weighted>
   9.000000E+99

> <Gold.Protein.RotatedTorsions>
[ 6907 6896 6895 6894 ] final -162.01 input  -60.11 | X-H torsion
[ 7974 7965 7964 7962 ] final -159.00 input  175.53 | X-H torsion
[ 8008 7997 7996 7995 ] final  117.84 input   59.86 | X-H torsion
[ 10167 10162 10161 10158 ] final  144.21 input  -65.29 | X-H torsion
[ 10718 10713 10712 10709 ] final  104.44 input   66.30 | X-H torsion
[ 10763 10752 10751 10750 ] final -158.57 input  -60.55 | X-H torsion
[ 11005 11000 10999 10996 ] final  -49.61 input  -57.11 | X-H torsion

> <Gold.Protein.ActiveResidues>
 VAL166  LYS551  ARG553  GLY616  TRP617  ASP618  TYR619  PRO620  LYS621  CYS622 
 ASP623  PHE694  ASN695  SER759  ASP760  ASP761  ALA762  ILE779  LEU786  VAL792 
 PHE793  MET794  SER795  GLU796  ALA797  LYS798  CYS799  TRP800  GLU811  SER814 

> <Gold.Protein.RotatedAtoms>
  151.3736  133.3846  159.2702 H   0  0  0  0  0  0  0  0  0  0  0  0  # atno 6907 bound_to 6896
  150.9632  134.9017  159.7753 H   0  0  0  0  0  0  0  0  0  0  0  0  # atno 6908 bound_to 6896
  152.5157  134.3696  159.9365 H   0  0  0  0  0  0  0  0  0  0  0  0  # atno 6909 bound_to 6896
  144.7482  140.3747  143.6068 H   0  0  0  0  0  0  0  0  0  0  0  0  # atno 7974 bound_to 7965
  156.2515  140.2887  156.0742 H   0  0  0  0  0  0  0  0  0  0  0  0  # atno 8008 bound_to 7997
  155.1638  140.0400  157.2865 H   0  0  0  0  0  0  0  0  0  0  0  0  # atno 8009 bound_to 7997
  154.6374  140.2514  155.7368 H   0  0  0  0  0  0  0  0  0  0  0  0  # atno 8010 bound_to 7997
  139.4952  144.5987  151.6527 H   0  0  0  0  0  0  0  0  0  0  0  0  # atno 10167 bound_to 10162
  157.6740  131.0803  150.5706 H   0  0  0  0  0  0  0  0  0  0  0  0  # atno 10718 bound_to 10713
  154.7546  135.3101  154.8494 H   0  0  0  0  0  0  0  0  0  0  0  0  # atno 10763 bound_to 10752
  153.9272  135.6789  153.4750 H   0  0  0  0  0  0  0  0  0  0  0  0  # atno 10764 bound_to 10752
  153.1143  135.4852  154.9017 H   0  0  0  0  0  0  0  0  0  0  0  0  # atno 10765 bound_to 10752
  141.0769  133.6663  156.3611 H   0  0  0  0  0  0  0  0  0  0  0  0  # atno 11005 bound_to 11000
  145.7041  139.1668  143.2576 LP  0  0  0  0  0  0  0  0  0  0  0  0  # atno 17320 bound_to 7965
  146.1394  140.7078  142.9374 LP  0  0  0  0  0  0  0  0  0  0  0  0  # atno 17321 bound_to 7965
  140.5632  144.0234  150.6179 LP  0  0  0  0  0  0  0  0  0  0  0  0  # atno 17342 bound_to 10162
  140.3327  143.3068  152.0671 LP  0  0  0  0  0  0  0  0  0  0  0  0  # atno 17343 bound_to 10162
  156.6007  130.4354  149.5898 LP  0  0  0  0  0  0  0  0  0  0  0  0  # atno 17370 bound_to 10713
  156.2508  130.6906  151.1643 LP  0  0  0  0  0  0  0  0  0  0  0  0  # atno 17371 bound_to 10713
  140.5554  134.5987  157.5419 LP  0  0  0  0  0  0  0  0  0  0  0  0  # atno 17394 bound_to 11000
  139.9581  134.7499  156.0296 LP  0  0  0  0  0  0  0  0  0  0  0  0  # atno 17395 bound_to 11000

$$$$
