AV-unprocessed.smi:3187|AV-procd|sdf|12182|dock3
  -GOLD-   2272018 23D 1   1.00000     0.00000
 Structure written by MMmdl.
 42 43  0  0  0  0  0  0  0  0  3 V2000
  152.9522  140.7883  159.9449 C   0  0  0  0  0  0  0  0  0  0  0  0
  152.5877  142.2622  159.9971 C   0  0  0  0  0  0  0  0  0  0  0  0
  152.4831  142.9153  161.1711 C   0  0  0  0  0  0  0  0  0  0  0  0
  152.1666  144.3928  161.3126 C   0  0  0  0  0  0  0  0  0  0  0  0
  151.7607  145.0484  159.9832 C   0  0  0  0  0  0  0  0  0  0  0  0
  152.5873  144.4980  158.8072 C   0  0  2  0  0  0  0  0  0  0  0  0
  152.3752  145.3223  157.5262 C   0  0  0  0  0  0  0  0  0  0  0  0
  152.3927  142.9589  158.6479 C   0  0  2  0  0  0  0  0  0  0  0  0
  151.0357  142.5382  158.0266 C   0  0  0  0  0  0  0  0  0  0  0  0
  150.9684  142.8152  156.5774 N   0  3  0  0  0  0  0  0  0  0  0  0
  150.6053  141.6445  155.7553 C   0  0  0  0  0  0  0  0  0  0  0  0
  151.7294  140.5988  155.7569 C   0  0  0  0  0  0  0  0  0  0  0  0
  151.3238  139.3585  155.0911 N   0  0  0  0  0  0  0  0  0  0  0  0
  151.5233  138.0755  155.5334 C   0  0  0  0  0  0  0  0  0  0  0  0
  150.9773  137.2465  154.5873 C   0  0  0  0  0  0  0  0  0  0  0  0
  150.4686  138.0576  153.6080 N   0  3  0  0  0  0  0  0  0  0  0  0
  150.6805  139.3417  153.9160 C   0  0  0  0  0  0  0  0  0  0  0  0
  153.8634  140.6449  159.3638 H   0  0  0  0  0  0  0  0  0  0  0  0
  152.1584  140.1975  159.4899 H   0  0  0  0  0  0  0  0  0  0  0  0
  153.1284  140.3893  160.9445 H   0  0  0  0  0  0  0  0  0  0  0  0
  152.6563  142.3839  162.0958 H   0  0  0  0  0  0  0  0  0  0  0  0
  151.3786  144.5271  162.0540 H   0  0  0  0  0  0  0  0  0  0  0  0
  153.0574  144.8820  161.7077 H   0  0  0  0  0  0  0  0  0  0  0  0
  150.6989  144.8819  159.8016 H   0  0  0  0  0  0  0  0  0  0  0  0
  151.8846  146.1290  160.0650 H   0  0  0  0  0  0  0  0  0  0  0  0
  153.6357  144.6460  159.0731 H   0  0  0  0  0  0  0  0  0  0  0  0
  151.3257  145.3574  157.2347 H   0  0  0  0  0  0  0  0  0  0  0  0
  152.9515  144.9168  156.6943 H   0  0  0  0  0  0  0  0  0  0  0  0
  152.7004  146.3527  157.6737 H   0  0  0  0  0  0  0  0  0  0  0  0
  153.1906  142.5955  157.9982 H   0  0  0  0  0  0  0  0  0  0  0  0
  150.8704  141.4684  158.1494 H   0  0  0  0  0  0  0  0  0  0  0  0
  150.2097  143.0332  158.5370 H   0  0  0  0  0  0  0  0  0  0  0  0
  150.2775  143.5368  156.4283 H   0  0  0  0  0  0  0  0  0  0  0  0
  149.6832  141.2057  156.1393 H   0  0  0  0  0  0  0  0  0  0  0  0
  150.4057  141.9744  154.7346 H   0  0  0  0  0  0  0  0  0  0  0  0
  152.6108  140.9803  155.2391 H   0  0  0  0  0  0  0  0  0  0  0  0
  152.0349  140.3565  156.7760 H   0  0  0  0  0  0  0  0  0  0  0  0
  152.0243  137.8514  156.4646 H   0  0  0  0  0  0  0  0  0  0  0  0
  150.9138  136.1688  154.5392 H   0  0  0  0  0  0  0  0  0  0  0  0
  150.3877  140.1948  153.3294 H   0  0  0  0  0  0  0  0  0  0  0  0
  151.8677  143.1631  156.2759 H   0  0  0  0  0  0  0  0  0  0  0  0
  149.9972  137.7340  152.7721 H   0  0  0  0  0  0  0  0  0  0  0  0
  1  2  1  0  0  0  0
  1 18  1  0  0  0  0
  1 19  1  0  0  0  0
  1 20  1  0  0  0  0
  2  8  1  0  0  0  0
  2  3  2  0  0  0  0
  3  4  1  0  0  0  0
  3 21  1  0  0  0  0
  4  5  1  0  0  0  0
  4 22  1  0  0  0  0
  4 23  1  0  0  0  0
  5  6  1  0  0  0  0
  5 24  1  0  0  0  0
  5 25  1  0  0  0  0
  6  7  1  0  0  0  0
  6  8  1  0  0  0  0
  6 26  1  0  0  0  0
  7 27  1  0  0  0  0
  7 28  1  0  0  0  0
  7 29  1  0  0  0  0
  8  9  1  0  0  0  0
  8 30  1  0  0  0  0
  9 10  1  0  0  0  0
  9 31  1  0  0  0  0
  9 32  1  0  0  0  0
 10 11  1  0  0  0  0
 10 33  1  0  0  0  0
 10 41  1  0  0  0  0
 11 12  1  0  0  0  0
 11 34  1  0  0  0  0
 11 35  1  0  0  0  0
 12 13  1  0  0  0  0
 12 36  1  0  0  0  0
 12 37  1  0  0  0  0
 13 17  1  0  0  0  0
 13 14  1  0  0  0  0
 14 15  2  0  0  0  0
 14 38  1  0  0  0  0
 15 16  1  0  0  0  0
 15 39  1  0  0  0  0
 16 17  2  0  0  0  0
 16 42  1  0  0  0  0
 17 40  1  0  0  0  0
M  CHG  1  10   1
M  CHG  1  16   1
M  END
> <s_m_source_file>
AV-unprocessed.smi

> <i_m_source_file_index>
3187

> <i_lp_mmshare_version>
43012

> <i_f3d_flags>
0

> <s_epik_input>
W0NIM11DMT1bQ0hdW0NIMl1bQ0gyXVtDQEBIXShbQ0gzXSlbQ0BIXTFbQ0gyXVtOSF1bQ0gyXVtDSDJdbjJbY0hdW2NIXW5bY0hdMg==

> <s_epik_cmdline>
J2VwaWtfcHl0aG9uJywgJy1waCcsICc3LjAnLCAnLXRuJywgJzgnLCAnLW1hJywgJzIwMCcsICctbWV0YWxfYmluZGluZycsICctaW1hZScsICc8aW5maWxlLm1hZT4nLCAnLW9tYWUnLCAnPG91dGZpbGUubWFlPic=

> <r_lp_tautomer_probability>
1

> <r_epik_Ionization_Penalty>
1.51066

> <r_epik_Ionization_Penalty_Charging>
0.0026721

> <r_epik_Ionization_Penalty_Neutral>
1.50798

> <r_epik_State_Penalty>
1.12593

> <r_epik_Charging_Adjusted_Penalty>
1.12861

> <i_epik_Tot_Q>
2

> <i_epik_Tot_abs_Q>
2

> <r_epik_Metal_State_Penalty>
5.12155

> <b_epik_Metal_Only>
0

> <s_lp_Force_Field>
OPLS_2005

> <r_lp_Energy>
26.0631

> <b_lp_Chiralities_Consistent>
1

> <s_lp_Variant>
AV-unprocessed.smi:3187-8

> <Gold.Version>
5.8.1

> <Gold.Id.Protein>
6NUR|6NUR_protein|mol2

> <Gold.PLP.Fitness>
60.6968

> <Gold.PLP.PLP>
-46.9461

> <Gold.PLP.part.hbond>
-2.9113

> <Gold.PLP.part.metal>
0.0000

> <Gold.PLP.part.buried>
-4.3198

> <Gold.PLP.part.nonpolar>
-38.8670

> <Gold.PLP.part.repulsive>
0.1398

> <Gold.PLP.ligand.clash>
0.0000

> <Gold.PLP.ligand.torsion>
0.6994

> <Gold.PLP.Chemscore.Hbond>
4.0000

> <Gold.PLP.Chemscore.CHOScore>
1.0000

> <Gold.PLP.Chemscore.Metal>
0.0000

> <Gold.Chemscore.Hbonds>
donor molecule, donor type, donor heavy atom, donor atom, acceptor molecule, acceptor atom, score
      L1  H    10    33       P1  8028  2.00
      L1  H    16    42       P1  7948  1.73
      L1  C    17    40       P1  7957  0.87

> <Gold.PLP.Chemscore.Internal.Correction>
0.1495

> <Gold.Rescore>
     Score         DG    S(hbond)    S(metal)    S(lipo)     H(rot)  DE(clash)    DE(int)     intcor
     18.66     -22.02       1.95        0.00     128.82       1.97       1.88       1.47       ----

> <Gold.Chemscore.Fitness>
18.6642

> <Gold.Chemscore.DG>
-22.0190

> <Gold.Chemscore.ZeroCoef>
-5.4800

> <Gold.Chemscore.Hbond>
1.9516

> <Gold.Chemscore.Metal>
0.0000

> <Gold.Chemscore.Lipo>
128.8206

> <Gold.Chemscore.Internal_Hbond>
0.0000

> <Gold.Chemscore.DEClash>
1.8836

> <Gold.Chemscore.DEInternal>
1.4711

> <Gold.Chemscore.Rot>
1.9732

> <Gold.Chemscore.Internal.Correction>
   9.000000E+99

> <Gold.Chemscore.Hbonds>
donor molecule, donor type, donor heavy atom, donor atom, acceptor molecule, acceptor atom, score
      L1  H    10    33       P1  8028  0.98
      L1  H    16    42       P1  7948  0.16

> <Gold.Chemscore.Hbond.Weighted>
-6.5183

> <Gold.Chemscore.Metal.Weighted>
-0.0000

> <Gold.Chemscore.Lipo.Weighted>
-15.0720

> <Gold.Chemscore.Internal_Hbond.Weighted>
0.0000

> <Gold.Chemscore.DEClash.Weighted>
1.8836

> <Gold.Chemscore.DEInternal.Weighted>
1.4711

> <Gold.Chemscore.Rot.Weighted>
5.0514

> <Gold.Chemscore.Internal.Correction.Weighted>
   9.000000E+99

> <Gold.Protein.RotatedTorsions>
[ 6907 6896 6895 6894 ] final -171.45 input  -60.11 | X-H torsion
[ 7974 7965 7964 7962 ] final   58.94 input  175.53 | X-H torsion
[ 8008 7997 7996 7995 ] final -134.33 input   59.86 | X-H torsion
[ 10167 10162 10161 10158 ] final -165.56 input  -65.29 | X-H torsion
[ 10718 10713 10712 10709 ] final   98.98 input   66.30 | X-H torsion
[ 10763 10752 10751 10750 ] final   56.78 input  -60.55 | X-H torsion
[ 11005 11000 10999 10996 ] final  129.11 input  -57.11 | X-H torsion

> <Gold.Protein.ActiveResidues>
 VAL166  LYS551  ARG553  GLY616  TRP617  ASP618  TYR619  PRO620  LYS621  CYS622 
 ASP623  PHE694  ASN695  SER759  ASP760  ASP761  ALA762  ILE779  LEU786  VAL792 
 PHE793  MET794  SER795  GLU796  ALA797  LYS798  CYS799  TRP800  GLU811  SER814 

> <Gold.Protein.RotatedAtoms>
  151.5240  133.3461  159.2906 H   0  0  0  0  0  0  0  0  0  0  0  0  # atno 6907 bound_to 6896
  150.8634  134.7994  159.7111 H   0  0  0  0  0  0  0  0  0  0  0  0  # atno 6908 bound_to 6896
  152.4647  134.5113  159.9806 H   0  0  0  0  0  0  0  0  0  0  0  0  # atno 6909 bound_to 6896
  145.9126  139.3666  143.0526 H   0  0  0  0  0  0  0  0  0  0  0  0  # atno 7974 bound_to 7965
  155.3603  140.0482  157.3046 H   0  0  0  0  0  0  0  0  0  0  0  0  # atno 8008 bound_to 7997
  154.5181  140.2215  155.8990 H   0  0  0  0  0  0  0  0  0  0  0  0  # atno 8009 bound_to 7997
  156.1659  140.3106  155.8894 H   0  0  0  0  0  0  0  0  0  0  0  0  # atno 8010 bound_to 7997
  139.6174  144.0693  152.1900 H   0  0  0  0  0  0  0  0  0  0  0  0  # atno 10167 bound_to 10162
  157.6885  131.0656  150.4878 H   0  0  0  0  0  0  0  0  0  0  0  0  # atno 10718 bound_to 10713
  152.9838  135.5664  154.5285 H   0  0  0  0  0  0  0  0  0  0  0  0  # atno 10763 bound_to 10752
  154.4760  135.2786  155.1608 H   0  0  0  0  0  0  0  0  0  0  0  0  # atno 10764 bound_to 10752
  154.3137  135.6283  153.5530 H   0  0  0  0  0  0  0  0  0  0  0  0  # atno 10765 bound_to 10752
  139.9597  134.9605  156.9100 H   0  0  0  0  0  0  0  0  0  0  0  0  # atno 11005 bound_to 11000
  145.8652  140.9452  143.0679 LP  0  0  0  0  0  0  0  0  0  0  0  0  # atno 17320 bound_to 7965
  144.6745  140.0582  143.7477 LP  0  0  0  0  0  0  0  0  0  0  0  0  # atno 17321 bound_to 7965
  140.0326  144.6069  150.7475 LP  0  0  0  0  0  0  0  0  0  0  0  0  # atno 17342 bound_to 10162
  140.7360  143.2747  151.3778 LP  0  0  0  0  0  0  0  0  0  0  0  0  # atno 17343 bound_to 10162
  156.5206  130.4161  149.6252 LP  0  0  0  0  0  0  0  0  0  0  0  0  # atno 17370 bound_to 10713
  156.3157  130.7253  151.2155 LP  0  0  0  0  0  0  0  0  0  0  0  0  # atno 17371 bound_to 10713
  140.5527  134.0611  155.7374 LP  0  0  0  0  0  0  0  0  0  0  0  0  # atno 17394 bound_to 11000
  141.1273  133.9361  157.2609 LP  0  0  0  0  0  0  0  0  0  0  0  0  # atno 17395 bound_to 11000

$$$$
