AV-unprocessed.smi:2845|AV-procd|sdf|10950|dock1
  -GOLD-   2272015403D 1   1.00000     0.00000
 Structure written by MMmdl.
 43 45  0  0  0  0  0  0  0  0  2 V2000
  152.2206  144.1824  161.0381 C   0  0  0  0  0  0  0  0  0  0  0  0
  152.1046  143.2319  159.8585 C   0  0  0  0  0  0  0  0  0  0  0  0
  151.1875  143.5430  158.8294 C   0  0  0  0  0  0  0  0  0  0  0  0
  151.1076  142.6569  157.7616 C   0  0  0  0  0  0  0  0  0  0  0  0
  150.3197  142.6834  156.6089 N   0  3  0  0  0  0  0  0  0  0  0  0
  150.5953  141.5904  155.8449 C   0  0  0  0  0  0  0  0  0  0  0  0
  151.5466  140.8651  156.4931 N   0  0  0  0  0  0  0  0  0  0  0  0
  152.1927  139.6035  156.1023 C   0  0  0  0  0  0  0  0  0  0  0  0
  151.4967  138.3636  156.6970 C   0  0  1  0  0  0  0  0  0  0  0  0
  152.4047  137.2794  156.7516 O   0  0  0  0  0  0  0  0  0  0  0  0
  150.9327  138.6429  158.1034 C   0  0  0  0  0  0  0  0  0  0  0  0
  150.1513  137.5332  158.6192 N   0  0  0  0  0  0  0  0  0  0  0  0
  149.8761  136.3423  158.0792 C   0  0  0  0  0  0  0  0  0  0  0  0
  149.1294  135.5607  158.8482 N   0  0  0  0  0  0  0  0  0  0  0  0
  148.9757  136.3970  159.9152 C   0  0  0  0  0  0  0  0  0  0  0  0
  148.0108  135.9019  161.3771 S   0  0  2  0  0  0  0  0  0  0  0  0
  146.6309  135.1077  160.4258 C   0  0  0  0  0  0  0  0  0  0  0  0
  147.4561  137.1971  161.9743 O   0  0  0  0  0  0  0  0  0  0  0  0
  149.5609  137.5906  159.8364 N   0  0  0  0  0  0  0  0  0  0  0  0
  151.8978  141.4928  157.6946 C   0  0  0  0  0  0  0  0  0  0  0  0
  152.8055  141.1714  158.7011 C   0  0  0  0  0  0  0  0  0  0  0  0
  152.9031  142.0607  159.7950 C   0  0  0  0  0  0  0  0  0  0  0  0
  153.8892  141.7375  160.9046 C   0  0  0  0  0  0  0  0  0  0  0  0
  151.5599  145.0424  160.9244 H   0  0  0  0  0  0  0  0  0  0  0  0
  153.2407  144.5563  161.1304 H   0  0  0  0  0  0  0  0  0  0  0  0
  151.9515  143.6760  161.9653 H   0  0  0  0  0  0  0  0  0  0  0  0
  150.5769  144.4333  158.8701 H   0  0  0  0  0  0  0  0  0  0  0  0
  150.1416  141.3441  154.8956 H   0  0  0  0  0  0  0  0  0  0  0  0
  152.2449  139.5467  155.0149 H   0  0  0  0  0  0  0  0  0  0  0  0
  153.2241  139.6522  156.4537 H   0  0  0  0  0  0  0  0  0  0  0  0
  150.6762  138.0726  156.0399 H   0  0  0  0  0  0  0  0  0  0  0  0
  152.5798  136.9888  155.8690 H   0  0  0  0  0  0  0  0  0  0  0  0
  151.7393  138.8650  158.8042 H   0  0  0  0  0  0  0  0  0  0  0  0
  150.2894  139.5233  158.0802 H   0  0  0  0  0  0  0  0  0  0  0  0
  150.2326  136.0405  157.1051 H   0  0  0  0  0  0  0  0  0  0  0  0
  146.9852  134.7229  159.4692 H   0  0  0  0  0  0  0  0  0  0  0  0
  145.8377  135.8311  160.2366 H   0  0  0  0  0  0  0  0  0  0  0  0
  146.2140  134.2775  160.9956 H   0  0  0  0  0  0  0  0  0  0  0  0
  153.4202  140.2849  158.6498 H   0  0  0  0  0  0  0  0  0  0  0  0
  154.3816  140.7795  160.7340 H   0  0  0  0  0  0  0  0  0  0  0  0
  153.3813  141.6820  161.8676 H   0  0  0  0  0  0  0  0  0  0  0  0
  154.6618  142.5045  160.9630 H   0  0  0  0  0  0  0  0  0  0  0  0
  149.6446  143.3947  156.3587 H   0  0  0  0  0  0  0  0  0  0  0  0
  1  2  1  0  0  0  0
  1 24  1  0  0  0  0
  1 25  1  0  0  0  0
  1 26  1  0  0  0  0
  2 22  1  0  0  0  0
  2  3  2  0  0  0  0
  3  4  1  0  0  0  0
  3 27  1  0  0  0  0
  4 20  2  0  0  0  0
  4  5  1  0  0  0  0
  5  6  2  0  0  0  0
  5 43  1  0  0  0  0
  6  7  1  0  0  0  0
  6 28  1  0  0  0  0
  7  8  1  0  0  0  0
  7 20  1  0  0  0  0
  8  9  1  0  0  0  0
  8 29  1  0  0  0  0
  8 30  1  0  0  0  0
  9 10  1  0  0  0  0
  9 11  1  0  0  0  0
  9 31  1  0  0  0  0
 10 32  1  0  0  0  0
 11 12  1  0  0  0  0
 11 33  1  0  0  0  0
 11 34  1  0  0  0  0
 12 19  1  0  0  0  0
 12 13  1  0  0  0  0
 13 14  2  0  0  0  0
 13 35  1  0  0  0  0
 14 15  1  0  0  0  0
 15 16  1  0  0  0  0
 15 19  2  0  0  0  0
 16 17  1  0  0  0  0
 16 18  2  0  0  0  0
 17 36  1  0  0  0  0
 17 37  1  0  0  0  0
 17 38  1  0  0  0  0
 20 21  1  0  0  0  0
 21 22  2  0  0  0  0
 21 39  1  0  0  0  0
 22 23  1  0  0  0  0
 23 40  1  0  0  0  0
 23 41  1  0  0  0  0
 23 42  1  0  0  0  0
M  CHG  1   5   1
M  END
> <s_m_source_file>
AV-unprocessed.smi

> <i_m_source_file_index>
2845

> <i_lp_mmshare_version>
43012

> <i_f3d_flags>
0

> <s_epik_input>
W0NIM11jKFtjSF0xKWMoW0NIM10pW2NIXWMoYzEyKW4oW2NIXW4yKVtDSDJdW0NASF0oW09IXSlbQ0gyXW4zW2NIXW5jKG4zKVtTQF0oPU8pW0NIM10=

> <s_epik_cmdline>
J2VwaWtfcHl0aG9uJywgJy1waCcsICc3LjAnLCAnLXRuJywgJzgnLCAnLW1hJywgJzIwMCcsICctbWV0YWxfYmluZGluZycsICctaW1hZScsICc8aW5maWxlLm1hZT4nLCAnLW9tYWUnLCAnPG91dGZpbGUubWFlPic=

> <r_lp_tautomer_probability>
1

> <r_epik_Ionization_Penalty>
1.12076

> <r_epik_Ionization_Penalty_Charging>
1.12075

> <r_epik_Ionization_Penalty_Neutral>
1.54566e-06

> <r_epik_State_Penalty>
1.17957

> <r_epik_Charging_Adjusted_Penalty>
2.30033

> <i_epik_Tot_Q>
1

> <i_epik_Tot_abs_Q>
1

> <r_epik_Metal_State_Penalty>
1.26402

> <b_epik_Metal_Only>
0

> <s_lp_Force_Field>
OPLS_2005

> <r_lp_Energy>
14.8832

> <b_lp_Chiralities_Consistent>
1

> <s_lp_Variant>
AV-unprocessed.smi:2845-8

> <Gold.Version>
5.8.1

> <Gold.Id.Protein>
6NUR|6NUR_protein|mol2

> <Gold.PLP.Fitness>
56.2420

> <Gold.PLP.PLP>
-45.0805

> <Gold.PLP.part.hbond>
-4.9741

> <Gold.PLP.part.metal>
0.0000

> <Gold.PLP.part.buried>
-5.6679

> <Gold.PLP.part.nonpolar>
-32.8425

> <Gold.PLP.part.repulsive>
0.0586

> <Gold.PLP.ligand.clash>
0.0000

> <Gold.PLP.ligand.torsion>
1.1431

> <Gold.PLP.Chemscore.Hbond>
4.1325

> <Gold.PLP.Chemscore.CHOScore>
0.0000

> <Gold.PLP.Chemscore.Metal>
0.0000

> <Gold.Chemscore.Hbonds>
donor molecule, donor type, donor heavy atom, donor atom, acceptor molecule, acceptor atom, score
      L1  H     5    43       P1  8028  2.00
      P1  H  6896  6909       L1    14  0.60
      P1  H  6931  6943       L1    18  0.91
      P1  H  6934  6947       L1    18  0.56

> <Gold.PLP.Chemscore.Internal.Correction>
1.0503

> <Gold.Rescore>
     Score         DG    S(hbond)    S(metal)    S(lipo)     H(rot)  DE(clash)    DE(int)     intcor
     15.97     -18.13       2.45        0.00      98.76       2.77       0.30       1.86       ----

> <Gold.Chemscore.Fitness>
15.9654

> <Gold.Chemscore.DG>
-18.1269

> <Gold.Chemscore.ZeroCoef>
-5.4800

> <Gold.Chemscore.Hbond>
2.4484

> <Gold.Chemscore.Metal>
0.0000

> <Gold.Chemscore.Lipo>
98.7639

> <Gold.Chemscore.Internal_Hbond>
0.0000

> <Gold.Chemscore.DEClash>
0.2976

> <Gold.Chemscore.DEInternal>
1.8639

> <Gold.Chemscore.Rot>
2.7681

> <Gold.Chemscore.Internal.Correction>
   9.000000E+99

> <Gold.Chemscore.Hbonds>
donor molecule, donor type, donor heavy atom, donor atom, acceptor molecule, acceptor atom, score
      L1  H     5    43       P1  8028  1.00
      P1  H  6896  6909       L1    14  0.05
      P1  H  6931  6943       L1    18  0.23
      P1  H  6934  6947       L1    18  0.55

> <Gold.Chemscore.Hbond.Weighted>
-8.1778

> <Gold.Chemscore.Metal.Weighted>
-0.0000

> <Gold.Chemscore.Lipo.Weighted>
-11.5554

> <Gold.Chemscore.Internal_Hbond.Weighted>
0.0000

> <Gold.Chemscore.DEClash.Weighted>
0.2976

> <Gold.Chemscore.DEInternal.Weighted>
1.8639

> <Gold.Chemscore.Rot.Weighted>
7.0863

> <Gold.Chemscore.Internal.Correction.Weighted>
   9.000000E+99

> <Gold.Protein.RotatedTorsions>
[ 6907 6896 6895 6894 ] final   24.81 input  -60.11 | X-H torsion
[ 7974 7965 7964 7962 ] final  151.55 input  175.53 | X-H torsion
[ 8008 7997 7996 7995 ] final  141.39 input   59.86 | X-H torsion
[ 10167 10162 10161 10158 ] final  -67.23 input  -65.29 | X-H torsion
[ 10718 10713 10712 10709 ] final  -70.98 input   66.30 | X-H torsion
[ 10763 10752 10751 10750 ] final   97.25 input  -60.55 | X-H torsion
[ 11005 11000 10999 10996 ] final  -81.29 input  -57.11 | X-H torsion

> <Gold.Protein.ActiveResidues>
 VAL166  LYS551  ARG553  GLY616  TRP617  ASP618  TYR619  PRO620  LYS621  CYS622 
 ASP623  PHE694  ASN695  SER759  ASP760  ASP761  ALA762  ILE779  LEU786  VAL792 
 PHE793  MET794  SER795  GLU796  ALA797  LYS798  CYS799  TRP800  GLU811  SER814 

> <Gold.Protein.RotatedAtoms>
  151.9631  135.0113  160.0548 H   0  0  0  0  0  0  0  0  0  0  0  0  # atno 6907 bound_to 6896
  152.1850  133.4729  159.4986 H   0  0  0  0  0  0  0  0  0  0  0  0  # atno 6908 bound_to 6896
  150.6924  134.1702  159.4252 H   0  0  0  0  0  0  0  0  0  0  0  0  # atno 6909 bound_to 6896
  144.8284  139.6552  143.6069 H   0  0  0  0  0  0  0  0  0  0  0  0  # atno 7974 bound_to 7965
  156.2966  140.2316  156.4556 H   0  0  0  0  0  0  0  0  0  0  0  0  # atno 8008 bound_to 7997
  154.8063  140.0445  157.1330 H   0  0  0  0  0  0  0  0  0  0  0  0  # atno 8009 bound_to 7997
  154.9475  140.3037  155.5094 H   0  0  0  0  0  0  0  0  0  0  0  0  # atno 8010 bound_to 7997
  140.5598  143.2312  151.6750 H   0  0  0  0  0  0  0  0  0  0  0  0  # atno 10167 bound_to 10162
  156.0383  130.4342  150.2376 H   0  0  0  0  0  0  0  0  0  0  0  0  # atno 10718 bound_to 10713
  153.2746  135.4190  155.1020 H   0  0  0  0  0  0  0  0  0  0  0  0  # atno 10763 bound_to 10752
  154.8468  135.3480  154.6197 H   0  0  0  0  0  0  0  0  0  0  0  0  # atno 10764 bound_to 10752
  153.6617  135.7048  153.5233 H   0  0  0  0  0  0  0  0  0  0  0  0  # atno 10765 bound_to 10752
  141.1667  133.7190  156.8401 H   0  0  0  0  0  0  0  0  0  0  0  0  # atno 11005 bound_to 11000
  146.2589  139.6364  142.9376 LP  0  0  0  0  0  0  0  0  0  0  0  0  # atno 17320 bound_to 7965
  145.4948  141.0438  143.2573 LP  0  0  0  0  0  0  0  0  0  0  0  0  # atno 17321 bound_to 7965
  139.5065  144.3681  152.0497 LP  0  0  0  0  0  0  0  0  0  0  0  0  # atno 17342 bound_to 10162
  140.2806  144.3864  150.6120 LP  0  0  0  0  0  0  0  0  0  0  0  0  # atno 17343 bound_to 10162
  157.0473  131.0052  151.3265 LP  0  0  0  0  0  0  0  0  0  0  0  0  # atno 17370 bound_to 10713
  157.5166  130.7971  149.7762 LP  0  0  0  0  0  0  0  0  0  0  0  0  # atno 17371 bound_to 10713
  140.1989  134.8911  157.3147 LP  0  0  0  0  0  0  0  0  0  0  0  0  # atno 17394 bound_to 11000
  140.2208  134.4025  155.7566 LP  0  0  0  0  0  0  0  0  0  0  0  0  # atno 17395 bound_to 11000

$$$$
