AV-unprocessed.smi:3308|AV-procd|sdf|12714|dock6
  -GOLD-   2272019 53D 1   1.00000     0.00000
 Structure written by MMmdl.
 40 41  0  0  0  0  0  0  0  0  1 V2000
  152.4150  139.1310  155.5449 C   0  0  0  0  0  0  0  0  0  0  0  0
  151.1030  139.9442  155.5982 C   0  0  2  0  0  0  0  0  0  0  0  0
  150.7545  140.1889  156.9950 N   0  0  0  0  0  0  0  0  0  0  0  0
  151.4448  141.3515  157.5681 C   0  0  0  0  0  0  0  0  0  0  0  0
  152.4843  140.9243  158.6096 C   0  0  0  0  0  0  0  0  0  0  0  0
  153.1012  139.8736  158.4326 O   0  0  0  0  0  0  0  0  0  0  0  0
  152.6936  141.7114  159.6865 N   0  0  0  0  0  0  0  0  0  0  0  0
  151.9776  142.9648  159.9172 C   0  0  0  0  0  0  0  0  0  0  0  0
  152.6857  143.6373  161.0934 C   0  0  0  0  0  0  0  0  0  0  0  0
  153.3197  142.4818  161.8551 C   0  0  0  0  0  0  0  0  0  0  0  0
  153.6395  141.4509  160.7722 C   0  0  0  0  0  0  0  0  0  0  0  0
  149.9076  139.2194  154.9228 C   0  0  1  0  0  0  0  0  0  0  0  0
  149.2630  138.1597  155.8366 C   0  0  0  0  0  0  0  0  0  0  0  0
  148.8884  140.1587  154.4702 N   0  0  0  0  0  0  0  0  0  0  0  0
  148.8393  141.5279  154.6431 C   0  0  0  0  0  0  0  0  0  0  0  0
  147.6987  141.9754  154.0407 C   0  0  0  0  0  0  0  0  0  0  0  0
  147.1060  140.7920  153.5189 C   0  0  0  0  0  0  0  0  0  0  0  0
  147.8192  139.7080  153.7768 N   0  0  0  0  0  0  0  0  0  0  0  0
  152.7396  138.9584  154.5189 H   0  0  0  0  0  0  0  0  0  0  0  0
  152.2948  138.1566  156.0200 H   0  0  0  0  0  0  0  0  0  0  0  0
  153.2367  139.6428  156.0443 H   0  0  0  0  0  0  0  0  0  0  0  0
  151.2561  140.8954  155.0851 H   0  0  0  0  0  0  0  0  0  0  0  0
  150.9154  139.3496  157.5332 H   0  0  0  0  0  0  0  0  0  0  0  0
  151.9198  141.9468  156.7893 H   0  0  0  0  0  0  0  0  0  0  0  0
  150.7165  142.0020  158.0553 H   0  0  0  0  0  0  0  0  0  0  0  0
  151.9775  143.6074  159.0353 H   0  0  0  0  0  0  0  0  0  0  0  0
  150.9410  142.7389  160.1723 H   0  0  0  0  0  0  0  0  0  0  0  0
  153.4675  144.2997  160.7190 H   0  0  0  0  0  0  0  0  0  0  0  0
  152.0107  144.2319  161.7095 H   0  0  0  0  0  0  0  0  0  0  0  0
  154.1985  142.7820  162.4266 H   0  0  0  0  0  0  0  0  0  0  0  0
  152.5935  142.0644  162.5541 H   0  0  0  0  0  0  0  0  0  0  0  0
  153.5589  140.4363  161.1639 H   0  0  0  0  0  0  0  0  0  0  0  0
  154.6555  141.5936  160.4011 H   0  0  0  0  0  0  0  0  0  0  0  0
  150.2837  138.7017  154.0375 H   0  0  0  0  0  0  0  0  0  0  0  0
  149.9737  137.3791  156.1086 H   0  0  0  0  0  0  0  0  0  0  0  0
  148.4240  137.6727  155.3386 H   0  0  0  0  0  0  0  0  0  0  0  0
  148.8899  138.6022  156.7608 H   0  0  0  0  0  0  0  0  0  0  0  0
  149.6127  142.0634  155.1738 H   0  0  0  0  0  0  0  0  0  0  0  0
  147.3417  142.9930  153.9818 H   0  0  0  0  0  0  0  0  0  0  0  0
  146.1852  140.6887  152.9640 H   0  0  0  0  0  0  0  0  0  0  0  0
  1  2  1  0  0  0  0
  1 19  1  0  0  0  0
  1 20  1  0  0  0  0
  1 21  1  0  0  0  0
  2  3  1  0  0  0  0
  2 12  1  0  0  0  0
  2 22  1  0  0  0  0
  3  4  1  0  0  0  0
  3 23  1  0  0  0  0
  4  5  1  0  0  0  0
  4 24  1  0  0  0  0
  4 25  1  0  0  0  0
  5  6  2  0  0  0  0
  5  7  1  0  0  0  0
  7 11  1  0  0  0  0
  7  8  1  0  0  0  0
  8  9  1  0  0  0  0
  8 26  1  0  0  0  0
  8 27  1  0  0  0  0
  9 10  1  0  0  0  0
  9 28  1  0  0  0  0
  9 29  1  0  0  0  0
 10 11  1  0  0  0  0
 10 30  1  0  0  0  0
 10 31  1  0  0  0  0
 11 32  1  0  0  0  0
 11 33  1  0  0  0  0
 12 13  1  0  0  0  0
 12 14  1  0  0  0  0
 12 34  1  0  0  0  0
 13 35  1  0  0  0  0
 13 36  1  0  0  0  0
 13 37  1  0  0  0  0
 14 18  1  0  0  0  0
 14 15  1  0  0  0  0
 15 16  2  0  0  0  0
 15 38  1  0  0  0  0
 16 17  1  0  0  0  0
 16 39  1  0  0  0  0
 17 18  2  0  0  0  0
 17 40  1  0  0  0  0
M  END
> <s_m_source_file>
AV-unprocessed.smi

> <i_m_source_file_index>
3308

> <i_lp_mmshare_version>
43012

> <i_f3d_flags>
0

> <s_epik_input>
bjFbY0hdW2NIXVtjSF1uMVtDQEBIXShbQ0gzXSlbQ0BIXShbQ0gzXSlbTkhdW0NIMl1DKD1PKU4yW0NIMl1bQ0gyXVtDSDJdW0NIMl0y

> <s_epik_cmdline>
J2VwaWtfcHl0aG9uJywgJy1waCcsICc3LjAnLCAnLXRuJywgJzgnLCAnLW1hJywgJzIwMCcsICctbWV0YWxfYmluZGluZycsICctaW1hZScsICc8aW5maWxlLm1hZT4nLCAnLW9tYWUnLCAnPG91dGZpbGUubWFlPic=

> <r_lp_tautomer_probability>
1

> <r_epik_Ionization_Penalty>
0.918676

> <r_epik_Ionization_Penalty_Charging>
0

> <r_epik_Ionization_Penalty_Neutral>
0.918676

> <r_epik_State_Penalty>
0.958258

> <r_epik_Charging_Adjusted_Penalty>
0.958258

> <i_epik_Tot_Q>
0

> <i_epik_Tot_abs_Q>
0

> <r_epik_Metal_State_Penalty>
0.956879

> <b_epik_Metal_Only>
0

> <s_lp_Force_Field>
OPLS_2005

> <r_lp_Energy>
36.0541

> <b_lp_Chiralities_Consistent>
1

> <s_lp_Variant>
AV-unprocessed.smi:3308-7

> <Gold.Version>
5.8.1

> <Gold.Id.Protein>
6NUR|6NUR_protein|mol2

> <Gold.PLP.Fitness>
46.6710

> <Gold.PLP.PLP>
-41.8676

> <Gold.PLP.part.hbond>
-1.0000

> <Gold.PLP.part.metal>
0.0000

> <Gold.PLP.part.buried>
-2.6661

> <Gold.PLP.part.nonpolar>
-38.4608

> <Gold.PLP.part.repulsive>
0.2533

> <Gold.PLP.ligand.clash>
0.0000

> <Gold.PLP.ligand.torsion>
1.4663

> <Gold.PLP.Chemscore.Hbond>
1.0000

> <Gold.PLP.Chemscore.CHOScore>
1.5562

> <Gold.PLP.Chemscore.Metal>
0.0000

> <Gold.Chemscore.Hbonds>
donor molecule, donor type, donor heavy atom, donor atom, acceptor molecule, acceptor atom, score
      P1  H  7997  8009       L1     6  0.86
      L1  C    15    38       P1  8028  0.22
      L1  C    17    40       P1 10175  0.95

> <Gold.PLP.Chemscore.Internal.Correction>
0.0673

> <Gold.Rescore>
     Score         DG    S(hbond)    S(metal)    S(lipo)     H(rot)  DE(clash)    DE(int)     intcor
     14.11     -15.61       0.96        0.00      96.67       1.72       0.08       1.43       ----

> <Gold.Chemscore.Fitness>
14.1066

> <Gold.Chemscore.DG>
-15.6104

> <Gold.Chemscore.ZeroCoef>
-5.4800

> <Gold.Chemscore.Hbond>
0.9649

> <Gold.Chemscore.Metal>
0.0000

> <Gold.Chemscore.Lipo>
96.6730

> <Gold.Chemscore.Internal_Hbond>
0.0000

> <Gold.Chemscore.DEClash>
0.0779

> <Gold.Chemscore.DEInternal>
1.4259

> <Gold.Chemscore.Rot>
1.7200

> <Gold.Chemscore.Internal.Correction>
   9.000000E+99

> <Gold.Chemscore.Hbonds>
donor molecule, donor type, donor heavy atom, donor atom, acceptor molecule, acceptor atom, score
      P1  H  7997  8009       L1     6  0.62

> <Gold.Chemscore.Hbond.Weighted>
-3.2227

> <Gold.Chemscore.Metal.Weighted>
-0.0000

> <Gold.Chemscore.Lipo.Weighted>
-11.3107

> <Gold.Chemscore.Internal_Hbond.Weighted>
0.0000

> <Gold.Chemscore.DEClash.Weighted>
0.0779

> <Gold.Chemscore.DEInternal.Weighted>
1.4259

> <Gold.Chemscore.Rot.Weighted>
4.4031

> <Gold.Chemscore.Internal.Correction.Weighted>
   9.000000E+99

> <Gold.Protein.RotatedTorsions>
[ 6907 6896 6895 6894 ] final  178.94 input  -60.11 | X-H torsion
[ 7974 7965 7964 7962 ] final -153.37 input  175.53 | X-H torsion
[ 8008 7997 7996 7995 ] final  167.04 input   59.86 | X-H torsion
[ 10167 10162 10161 10158 ] final  -58.45 input  -65.29 | X-H torsion
[ 10718 10713 10712 10709 ] final  -98.49 input   66.30 | X-H torsion
[ 10763 10752 10751 10750 ] final  -35.08 input  -60.55 | X-H torsion
[ 11005 11000 10999 10996 ] final  133.49 input  -57.11 | X-H torsion

> <Gold.Protein.ActiveResidues>
 VAL166  LYS551  ARG553  GLY616  TRP617  ASP618  TYR619  PRO620  LYS621  CYS622 
 ASP623  PHE694  ASN695  SER759  ASP760  ASP761  ALA762  ILE779  LEU786  VAL792 
 PHE793  MET794  SER795  GLU796  ALA797  LYS798  CYS799  TRP800  GLU811  SER814 

> <Gold.Protein.RotatedAtoms>
  151.6797  133.3312  159.3216 H   0  0  0  0  0  0  0  0  0  0  0  0  # atno 6907 bound_to 6896
  150.7829  134.6791  159.6443 H   0  0  0  0  0  0  0  0  0  0  0  0  # atno 6908 bound_to 6896
  152.3891  134.6474  160.0166 H   0  0  0  0  0  0  0  0  0  0  0  0  # atno 6909 bound_to 6896
  144.7744  140.4535  143.5884 H   0  0  0  0  0  0  0  0  0  0  0  0  # atno 7974 bound_to 7965
  156.1668  140.1627  156.8517 H   0  0  0  0  0  0  0  0  0  0  0  0  # atno 8008 bound_to 7997
  154.5216  140.0777  156.8216 H   0  0  0  0  0  0  0  0  0  0  0  0  # atno 8009 bound_to 7997
  155.3595  140.3394  155.4243 H   0  0  0  0  0  0  0  0  0  0  0  0  # atno 8010 bound_to 7997
  140.6197  143.2415  151.5511 H   0  0  0  0  0  0  0  0  0  0  0  0  # atno 10167 bound_to 10162
  156.0109  130.5240  150.6530 H   0  0  0  0  0  0  0  0  0  0  0  0  # atno 10718 bound_to 10713
  153.8573  135.6843  153.4786 H   0  0  0  0  0  0  0  0  0  0  0  0  # atno 10763 bound_to 10752
  153.1362  135.4677  154.9424 H   0  0  0  0  0  0  0  0  0  0  0  0  # atno 10764 bound_to 10752
  154.7775  135.3258  154.8010 H   0  0  0  0  0  0  0  0  0  0  0  0  # atno 10765 bound_to 10752
  139.9855  134.9533  156.9733 H   0  0  0  0  0  0  0  0  0  0  0  0  # atno 11005 bound_to 11000
  145.6228  139.1526  143.3013 LP  0  0  0  0  0  0  0  0  0  0  0  0  # atno 17320 bound_to 7965
  146.1914  140.6337  142.9144 LP  0  0  0  0  0  0  0  0  0  0  0  0  # atno 17321 bound_to 7965
  139.5428  144.2602  152.1384 LP  0  0  0  0  0  0  0  0  0  0  0  0  # atno 17342 bound_to 10162
  140.1819  144.4836  150.6524 LP  0  0  0  0  0  0  0  0  0  0  0  0  # atno 17343 bound_to 10162
  157.4287  131.0846  151.1060 LP  0  0  0  0  0  0  0  0  0  0  0  0  # atno 17370 bound_to 10713
  157.1639  130.6237  149.5619 LP  0  0  0  0  0  0  0  0  0  0  0  0  # atno 17371 bound_to 10713
  140.5011  134.1097  155.7250 LP  0  0  0  0  0  0  0  0  0  0  0  0  # atno 17394 bound_to 11000
  141.1521  133.8950  157.2072 LP  0  0  0  0  0  0  0  0  0  0  0  0  # atno 17395 bound_to 11000

$$$$
