AV-unprocessed.smi:2355|AV-procd|sdf|9392|dock4
  -GOLD-   2272013 23D 1   1.00000     0.00000
 Structure written by MMmdl.
 49 50  0  0  0  0  0  0  0  0  2 V2000
  144.4842  134.2088  150.2400 C   0  0  0  0  0  0  0  0  0  0  0  0
  144.4426  135.3091  151.2791 C   0  0  0  0  0  0  0  0  0  0  0  0
  143.2869  135.5264  152.0533 C   0  0  0  0  0  0  0  0  0  0  0  0
  143.3075  136.5684  153.0010 C   0  0  0  0  0  0  0  0  0  0  0  0
  142.1003  136.8574  153.8680 C   0  0  0  0  0  0  0  0  0  0  0  0
  144.3797  137.3658  153.1955 N   0  0  0  0  0  0  0  0  0  0  0  0
  145.4992  137.1642  152.4568 C   0  0  0  0  0  0  0  0  0  0  0  0
  146.6767  137.9483  152.5838 N   0  0  0  0  0  0  0  0  0  0  0  0
  147.2419  138.4138  153.7112 C   0  0  0  0  0  0  0  0  0  0  0  0
  146.8408  138.1890  154.8538 O   0  0  0  0  0  0  0  0  0  0  0  0
  148.3074  139.1845  153.4431 N   0  0  0  0  0  0  0  0  0  0  0  0
  149.1420  139.8666  154.4353 C   0  0  1  0  0  0  0  0  0  0  0  0
  150.6004  139.4063  154.2743 C   0  0  0  0  0  0  0  0  0  0  0  0
  148.9688  141.4151  154.3793 C   0  0  1  0  0  0  0  0  0  0  0  0
  147.5485  141.8112  153.9037 C   0  0  0  0  0  0  0  0  0  0  0  0
  149.3631  142.0303  155.6898 N   0  3  0  0  0  0  0  0  0  0  0  0
  148.5156  141.5702  156.8208 C   0  0  0  0  0  0  0  0  0  0  0  0
  148.8405  142.3625  158.0971 C   0  0  0  0  0  0  0  0  0  0  0  0
  150.2171  142.2054  158.4114 O   0  0  0  0  0  0  0  0  0  0  0  0
  151.0520  142.7147  157.3808 C   0  0  0  0  0  0  0  0  0  0  0  0
  150.7982  141.9471  156.0717 C   0  0  0  0  0  0  0  0  0  0  0  0
  145.5620  136.1404  151.4855 C   0  0  0  0  0  0  0  0  0  0  0  0
  143.6853  133.4850  150.4023 H   0  0  0  0  0  0  0  0  0  0  0  0
  145.4359  133.6783  150.2821 H   0  0  0  0  0  0  0  0  0  0  0  0
  144.3687  134.6303  149.2414 H   0  0  0  0  0  0  0  0  0  0  0  0
  142.4082  134.9113  151.9241 H   0  0  0  0  0  0  0  0  0  0  0  0
  141.3382  136.0863  153.7538 H   0  0  0  0  0  0  0  0  0  0  0  0
  141.6596  137.8162  153.5943 H   0  0  0  0  0  0  0  0  0  0  0  0
  142.3867  136.8975  154.9193 H   0  0  0  0  0  0  0  0  0  0  0  0
  147.1248  138.2011  151.7154 H   0  0  0  0  0  0  0  0  0  0  0  0
  148.5642  139.3129  152.4747 H   0  0  0  0  0  0  0  0  0  0  0  0
  148.8450  139.5169  155.4242 H   0  0  0  0  0  0  0  0  0  0  0  0
  151.2540  139.9169  154.9819 H   0  0  0  0  0  0  0  0  0  0  0  0
  150.9832  139.5894  153.2704 H   0  0  0  0  0  0  0  0  0  0  0  0
  150.6910  138.3357  154.4623 H   0  0  0  0  0  0  0  0  0  0  0  0
  149.6556  141.8041  153.6255 H   0  0  0  0  0  0  0  0  0  0  0  0
  147.3083  141.3622  152.9410 H   0  0  0  0  0  0  0  0  0  0  0  0
  147.4561  142.8871  153.7554 H   0  0  0  0  0  0  0  0  0  0  0  0
  146.7791  141.4990  154.6105 H   0  0  0  0  0  0  0  0  0  0  0  0
  147.4586  141.6921  156.5890 H   0  0  0  0  0  0  0  0  0  0  0  0
  148.6809  140.5056  156.9926 H   0  0  0  0  0  0  0  0  0  0  0  0
  148.5972  143.4193  157.9746 H   0  0  0  0  0  0  0  0  0  0  0  0
  148.2441  141.9921  158.9310 H   0  0  0  0  0  0  0  0  0  0  0  0
  150.8718  143.7826  157.2452 H   0  0  0  0  0  0  0  0  0  0  0  0
  152.0931  142.6053  157.6840 H   0  0  0  0  0  0  0  0  0  0  0  0
  151.0915  140.9023  156.1842 H   0  0  0  0  0  0  0  0  0  0  0  0
  151.4322  142.3889  155.3037 H   0  0  0  0  0  0  0  0  0  0  0  0
  146.4588  135.9919  150.9013 H   0  0  0  0  0  0  0  0  0  0  0  0
  149.1762  143.0180  155.5841 H   0  0  0  0  0  0  0  0  0  0  0  0
  1  2  1  0  0  0  0
  1 23  1  0  0  0  0
  1 24  1  0  0  0  0
  1 25  1  0  0  0  0
  2 22  1  0  0  0  0
  2  3  2  0  0  0  0
  3  4  1  0  0  0  0
  3 26  1  0  0  0  0
  4  5  1  0  0  0  0
  4  6  2  0  0  0  0
  5 27  1  0  0  0  0
  5 28  1  0  0  0  0
  5 29  1  0  0  0  0
  6  7  1  0  0  0  0
  7  8  1  0  0  0  0
  7 22  2  0  0  0  0
  8  9  1  0  0  0  0
  8 30  1  0  0  0  0
  9 10  2  0  0  0  0
  9 11  1  0  0  0  0
 11 12  1  0  0  0  0
 11 31  1  0  0  0  0
 12 13  1  0  0  0  0
 12 14  1  0  0  0  0
 12 32  1  0  0  0  0
 13 33  1  0  0  0  0
 13 34  1  0  0  0  0
 13 35  1  0  0  0  0
 14 15  1  0  0  0  0
 14 16  1  0  0  0  0
 14 36  1  0  0  0  0
 15 37  1  0  0  0  0
 15 38  1  0  0  0  0
 15 39  1  0  0  0  0
 16 21  1  0  0  0  0
 16 17  1  0  0  0  0
 16 49  1  0  0  0  0
 17 18  1  0  0  0  0
 17 40  1  0  0  0  0
 17 41  1  0  0  0  0
 18 19  1  0  0  0  0
 18 42  1  0  0  0  0
 18 43  1  0  0  0  0
 19 20  1  0  0  0  0
 20 21  1  0  0  0  0
 20 44  1  0  0  0  0
 20 45  1  0  0  0  0
 21 46  1  0  0  0  0
 21 47  1  0  0  0  0
 22 48  1  0  0  0  0
M  CHG  1  16   1
M  END
> <s_m_source_file>
AV-unprocessed.smi

> <i_m_source_file_index>
2355

> <i_lp_mmshare_version>
43012

> <i_f3d_flags>
0

> <s_epik_input>
W0NIM11jMVtjSF1jKFtDSDNdKW5jKFtjSF0xKVtOSF1DKD1PKVtOSF1bQ0BIXShbQ0gzXSlbQ0BIXShbQ0gzXSlOMltDSDJdW0NIMl1PW0NIMl1bQ0gyXTI=

> <s_epik_cmdline>
J2VwaWtfcHl0aG9uJywgJy1waCcsICc3LjAnLCAnLXRuJywgJzgnLCAnLW1hJywgJzIwMCcsICctbWV0YWxfYmluZGluZycsICctaW1hZScsICc8aW5maWxlLm1hZT4nLCAnLW9tYWUnLCAnPG91dGZpbGUubWFlPic=

> <r_epik_Ionization_Penalty>
0.602711

> <r_epik_Ionization_Penalty_Charging>
0.602531

> <r_epik_Ionization_Penalty_Neutral>
0.000180055

> <r_epik_State_Penalty>
0.617039

> <r_epik_Charging_Adjusted_Penalty>
1.21957

> <i_epik_Tot_Q>
1

> <i_epik_Tot_abs_Q>
1

> <r_epik_Metal_State_Penalty>
0.617075

> <b_epik_Metal_Only>
0

> <s_lp_Force_Field>
OPLS_2005

> <r_lp_Energy>
30.3549

> <b_lp_Chiralities_Consistent>
1

> <s_lp_Variant>
AV-unprocessed.smi:2355-8

> <Gold.Version>
5.8.1

> <Gold.Id.Protein>
6NUR|6NUR_protein|mol2

> <Gold.PLP.Fitness>
46.5128

> <Gold.PLP.PLP>
-39.2703

> <Gold.PLP.part.hbond>
-3.0000

> <Gold.PLP.part.metal>
0.0000

> <Gold.PLP.part.buried>
-5.9915

> <Gold.PLP.part.nonpolar>
-30.2379

> <Gold.PLP.part.repulsive>
0.5584

> <Gold.PLP.ligand.clash>
0.0000

> <Gold.PLP.ligand.torsion>
0.9479

> <Gold.PLP.Chemscore.Hbond>
3.0000

> <Gold.PLP.Chemscore.CHOScore>
0.0000

> <Gold.PLP.Chemscore.Metal>
0.0000

> <Gold.Chemscore.Hbonds>
donor molecule, donor type, donor heavy atom, donor atom, acceptor molecule, acceptor atom, score
      L1  H    11    31       P1  7957  1.00
      L1  H    16    49       P1  8028  2.00

> <Gold.PLP.Chemscore.Internal.Correction>
0.1382

> <Gold.Rescore>
     Score         DG    S(hbond)    S(metal)    S(lipo)     H(rot)  DE(clash)    DE(int)     intcor
     16.61     -18.26       1.99        0.00      83.98       1.45       0.05       1.61       ----

> <Gold.Chemscore.Fitness>
16.6113

> <Gold.Chemscore.DG>
-18.2644

> <Gold.Chemscore.ZeroCoef>
-5.4800

> <Gold.Chemscore.Hbond>
1.9944

> <Gold.Chemscore.Metal>
0.0000

> <Gold.Chemscore.Lipo>
83.9782

> <Gold.Chemscore.Internal_Hbond>
0.0000

> <Gold.Chemscore.DEClash>
0.0471

> <Gold.Chemscore.DEInternal>
1.6059

> <Gold.Chemscore.Rot>
1.4462

> <Gold.Chemscore.Internal.Correction>
   9.000000E+99

> <Gold.Chemscore.Hbonds>
donor molecule, donor type, donor heavy atom, donor atom, acceptor molecule, acceptor atom, score
      L1  H    11    31       P1  7957  0.97
      L1  H    16    49       P1  8028  1.00

> <Gold.Chemscore.Hbond.Weighted>
-6.6612

> <Gold.Chemscore.Metal.Weighted>
-0.0000

> <Gold.Chemscore.Lipo.Weighted>
-9.8254

> <Gold.Chemscore.Internal_Hbond.Weighted>
0.0000

> <Gold.Chemscore.DEClash.Weighted>
0.0471

> <Gold.Chemscore.DEInternal.Weighted>
1.6059

> <Gold.Chemscore.Rot.Weighted>
3.7023

> <Gold.Chemscore.Internal.Correction.Weighted>
   9.000000E+99

> <Gold.Protein.RotatedTorsions>
[ 6907 6896 6895 6894 ] final -111.98 input  -60.11 | X-H torsion
[ 7974 7965 7964 7962 ] final  -74.71 input  175.53 | X-H torsion
[ 8008 7997 7996 7995 ] final  158.66 input   59.86 | X-H torsion
[ 10167 10162 10161 10158 ] final  111.85 input  -65.29 | X-H torsion
[ 10718 10713 10712 10709 ] final  146.25 input   66.30 | X-H torsion
[ 10763 10752 10751 10750 ] final   99.07 input  -60.55 | X-H torsion
[ 11005 11000 10999 10996 ] final  -70.75 input  -57.11 | X-H torsion

> <Gold.Protein.ActiveResidues>
 VAL166  LYS551  ARG553  GLY616  TRP617  ASP618  TYR619  PRO620  LYS621  CYS622 
 ASP623  PHE694  ASN695  SER759  ASP760  ASP761  ALA762  ILE779  LEU786  VAL792 
 PHE793  MET794  SER795  GLU796  ALA797  LYS798  CYS799  TRP800  GLU811  SER814 

> <Gold.Protein.RotatedAtoms>
  150.7727  133.9156  159.3382 H   0  0  0  0  0  0  0  0  0  0  0  0  # atno 6907 bound_to 6896
  151.7039  135.0923  160.0265 H   0  0  0  0  0  0  0  0  0  0  0  0  # atno 6908 bound_to 6896
  152.3751  133.6432  159.6153 H   0  0  0  0  0  0  0  0  0  0  0  0  # atno 6909 bound_to 6896
  145.6355  140.9326  143.1064 H   0  0  0  0  0  0  0  0  0  0  0  0  # atno 7974 bound_to 7965
  156.2289  140.1852  156.7294 H   0  0  0  0  0  0  0  0  0  0  0  0  # atno 8008 bound_to 7997
  154.5988  140.0639  156.9367 H   0  0  0  0  0  0  0  0  0  0  0  0  # atno 8009 bound_to 7997
  155.2210  140.3307  155.4318 H   0  0  0  0  0  0  0  0  0  0  0  0  # atno 8010 bound_to 7997
  139.6580  144.7129  151.1920 H   0  0  0  0  0  0  0  0  0  0  0  0  # atno 10167 bound_to 10162
  157.3355  131.0927  151.1127 H   0  0  0  0  0  0  0  0  0  0  0  0  # atno 10718 bound_to 10713
  153.2969  135.4126  155.1217 H   0  0  0  0  0  0  0  0  0  0  0  0  # atno 10763 bound_to 10752
  154.8537  135.3532  154.5905 H   0  0  0  0  0  0  0  0  0  0  0  0  # atno 10764 bound_to 10752
  153.6329  135.7060  153.5327 H   0  0  0  0  0  0  0  0  0  0  0  0  # atno 10765 bound_to 10752
  141.1580  133.6798  156.6800 H   0  0  0  0  0  0  0  0  0  0  0  0  # atno 11005 bound_to 11000
  144.7177  139.8139  143.7393 LP  0  0  0  0  0  0  0  0  0  0  0  0  # atno 17320 bound_to 7965
  146.1322  139.4360  143.0161 LP  0  0  0  0  0  0  0  0  0  0  0  0  # atno 17321 bound_to 7965
  140.7567  143.6041  150.8671 LP  0  0  0  0  0  0  0  0  0  0  0  0  # atno 17342 bound_to 10162
  139.9695  143.6072  152.2978 LP  0  0  0  0  0  0  0  0  0  0  0  0  # atno 17343 bound_to 10162
  157.2359  130.6547  149.5869 LP  0  0  0  0  0  0  0  0  0  0  0  0  # atno 17370 bound_to 10713
  155.9701  130.4584  150.5997 LP  0  0  0  0  0  0  0  0  0  0  0  0  # atno 17371 bound_to 10713
  140.3110  134.8086  157.4176 LP  0  0  0  0  0  0  0  0  0  0  0  0  # atno 17394 bound_to 11000
  140.1179  134.5259  155.8209 LP  0  0  0  0  0  0  0  0  0  0  0  0  # atno 17395 bound_to 11000

$$$$
